CSD_code = GEGNIQ | q = 0 | S = 0 | Stoichiometry = C21H28AgClN2 | MND = 2
 OpenBabel04212202043D

 53 55  0  0  0  0  0  0  0  0999 V2000
    1.8026   11.0610    2.3786 Ag  0  0  0  0  0  0  0  0  0  0  0  0
    0.2620   12.1396    1.1561 Cl  0  0  0  0  0  0  0  0  0  0  0  0
    3.4475    8.6900    3.6072 N   0  0  0  0  0  0  0  0  0  0  0  0
    4.3149   10.5936    4.2001 N   0  0  0  0  0  0  0  0  0  0  0  0
    3.3153   10.0295    3.4868 C   0  0  0  0  0  3  0  0  0  0  0  0
    4.4995    8.3806    4.4435 C   0  0  0  0  0  0  0  0  0  0  0  0
    4.9788    7.1937    4.9358 C   0  0  0  0  0  0  0  0  0  0  0  0
    4.5428    6.2443    4.6697 H   0  0  0  0  0  0  0  0  0  0  0  0
    6.0669    7.2313    5.8261 C   0  0  0  0  0  0  0  0  0  0  0  0
    6.6102    6.0423    6.3639 C   0  0  0  0  0  0  0  0  0  0  0  0
    6.1728    5.0990    6.0697 H   0  0  0  0  0  0  0  0  0  0  0  0
    7.6617    6.0785    7.2323 C   0  0  0  0  0  0  0  0  0  0  0  0
    8.0679    5.1629    7.6356 H   0  0  0  0  0  0  0  0  0  0  0  0
    8.2269    7.3088    7.6106 C   0  0  0  0  0  0  0  0  0  0  0  0
    9.0594    7.3198    8.2982 H   0  0  0  0  0  0  0  0  0  0  0  0
    7.7280    8.4773    7.1136 C   0  0  0  0  0  0  0  0  0  0  0  0
    8.1594    9.4253    7.4016 H   0  0  0  0  0  0  0  0  0  0  0  0
    6.6396    8.4808    6.2117 C   0  0  0  0  0  0  0  0  0  0  0  0
    6.1192    9.6862    5.7074 C   0  0  0  0  0  0  0  0  0  0  0  0
    6.5468   10.6235    6.0254 H   0  0  0  0  0  0  0  0  0  0  0  0
    5.0670    9.6242    4.8300 C   0  0  0  0  0  0  0  0  0  0  0  0
    2.5684    7.7406    2.9780 C   0  0  0  0  0  0  0  0  0  0  0  0
    1.6025    8.2435    2.8390 H   0  0  0  0  0  0  0  0  0  0  0  0
    2.4269    6.8946    3.6561 H   0  0  0  0  0  0  0  0  0  0  0  0
    3.0425    7.2229    1.5996 C   0  0  0  0  0  0  0  0  0  0  0  0
    3.4081    8.3897    0.6838 C   0  0  0  0  0  0  0  0  0  0  0  0
    4.3098    8.8899    1.0307 H   0  0  0  0  0  0  0  0  0  0  0  0
    2.5958    9.1238    0.6425 H   0  0  0  0  0  0  0  0  0  0  0  0
    3.5907    8.0300   -0.3255 H   0  0  0  0  0  0  0  0  0  0  0  0
    1.8768    6.4428    0.9872 C   0  0  0  0  0  0  0  0  0  0  0  0
    2.1748    6.0041    0.0384 H   0  0  0  0  0  0  0  0  0  0  0  0
    1.0301    7.1011    0.8078 H   0  0  0  0  0  0  0  0  0  0  0  0
    1.5569    5.6404    1.6485 H   0  0  0  0  0  0  0  0  0  0  0  0
    4.2527    6.2978    1.7479 C   0  0  0  0  0  0  0  0  0  0  0  0
    4.0052    5.4310    2.3572 H   0  0  0  0  0  0  0  0  0  0  0  0
    5.0920    6.8182    2.2034 H   0  0  0  0  0  0  0  0  0  0  0  0
    4.5677    5.9415    0.7701 H   0  0  0  0  0  0  0  0  0  0  0  0
    4.5099   12.0145    4.3165 C   0  0  0  0  0  0  0  0  0  0  0  0
    4.8603   12.2353    5.3284 H   0  0  0  0  0  0  0  0  0  0  0  0
    3.5277   12.4840    4.1758 H   0  0  0  0  0  0  0  0  0  0  0  0
    5.4872   12.6297    3.2875 C   0  0  0  0  0  0  0  0  0  0  0  0
    5.3671   14.1508    3.4079 C   0  0  0  0  0  0  0  0  0  0  0  0
    4.3668   14.4770    3.1331 H   0  0  0  0  0  0  0  0  0  0  0  0
    6.0786   14.6381    2.7464 H   0  0  0  0  0  0  0  0  0  0  0  0
    5.5693   14.4767    4.4260 H   0  0  0  0  0  0  0  0  0  0  0  0
    5.1140   12.2030    1.8689 C   0  0  0  0  0  0  0  0  0  0  0  0
    5.3054   11.1427    1.7176 H   0  0  0  0  0  0  0  0  0  0  0  0
    5.7042   12.7576    1.1441 H   0  0  0  0  0  0  0  0  0  0  0  0
    4.0550   12.3986    1.6674 H   0  0  0  0  0  0  0  0  0  0  0  0
    6.9288   12.2073    3.5802 C   0  0  0  0  0  0  0  0  0  0  0  0
    7.2384   12.5449    4.5670 H   0  0  0  0  0  0  0  0  0  0  0  0
    7.5998   12.6505    2.8483 H   0  0  0  0  0  0  0  0  0  0  0  0
    7.0399   11.1267    3.5285 H   0  0  0  0  0  0  0  0  0  0  0  0
  1  5  1  0  0  0  0
  2  1  1  0  0  0  0
  3  6  1  0  0  0  0
  4 38  1  0  0  0  0
  4 21  1  0  0  0  0
  5  3  1  0  0  0  0
  5  4  1  0  0  0  0
  6 21  2  0  0  0  0
  6  7  1  0  0  0  0
  7  9  2  0  0  0  0
  8  7  1  0  0  0  0
  9 18  1  0  0  0  0
  9 10  1  0  0  0  0
 10 12  2  0  0  0  0
 11 10  1  0  0  0  0
 12 14  1  0  0  0  0
 12 13  1  0  0  0  0
 14 15  1  0  0  0  0
 16 17  1  0  0  0  0
 16 14  2  0  0  0  0
 18 16  1  0  0  0  0
 19 20  1  0  0  0  0
 19 18  2  0  0  0  0
 21 19  1  0  0  0  0
 22  3  1  0  0  0  0
 22 24  1  0  0  0  0
 23 22  1  0  0  0  0
 25 34  1  0  0  0  0
 25 22  1  0  0  0  0
 26 27  1  0  0  0  0
 26 25  1  0  0  0  0
 28 26  1  0  0  0  0
 29 26  1  0  0  0  0
 30 25  1  0  0  0  0
 30 33  1  0  0  0  0
 31 30  1  0  0  0  0
 32 30  1  0  0  0  0
 34 36  1  0  0  0  0
 34 35  1  0  0  0  0
 37 34  1  0  0  0  0
 38 39  1  0  0  0  0
 40 38  1  0  0  0  0
 41 42  1  0  0  0  0
 41 50  1  0  0  0  0
 41 38  1  0  0  0  0
 42 45  1  0  0  0  0
 43 42  1  0  0  0  0
 44 42  1  0  0  0  0
 46 41  1  0  0  0  0
 47 46  1  0  0  0  0
 48 46  1  0  0  0  0
 49 46  1  0  0  0  0
 50 51  1  0  0  0  0
 52 50  1  0  0  0  0
 53 50  1  0  0  0  0
M  END
$$$$
