CSD_code = GEJLUF | q = 0 | S = 0 | Stoichiometry = C26H27AuClPSi2 | MND = 2
 OpenBabel04212202043D

 58 62  0  0  1  0  0  0  0  0999 V2000
   25.8247    8.0988    4.8485 Au  0  0  0  0  0  0  0  0  0  0  0  0
   24.6977    6.5593    3.6547 P   0  0  2  0  0  4  0  0  0  0  0  0
   26.9625    9.6852    6.0095 Cl  0  0  0  0  0  0  0  0  0  0  0  0
   22.7386    5.4071    5.9959 Si  0  0  0  0  0  0  0  0  0  0  0  0
   22.9407    8.6760    1.8879 Si  0  0  0  0  0  0  0  0  0  0  0  0
   24.0660    5.1671    4.6607 C   0  0  2  0  0  3  0  0  0  0  0  0
   22.4760    3.7262    6.8268 C   0  0  0  0  0  0  0  0  0  0  0  0
   23.4809    3.1646    7.6114 C   0  0  0  0  0  0  0  0  0  0  0  0
   24.4083    3.7025    7.7489 H   0  0  0  0  0  0  0  0  0  0  0  0
   23.3127    1.9336    8.2182 C   0  0  0  0  0  0  0  0  0  0  0  0
   24.1055    1.5163    8.8223 H   0  0  0  0  0  0  0  0  0  0  0  0
   22.1276    1.2362    8.0527 C   0  0  0  0  0  0  0  0  0  0  0  0
   21.9933    0.2741    8.5251 H   0  0  0  0  0  0  0  0  0  0  0  0
   21.1158    1.7800    7.2803 C   0  0  0  0  0  0  0  0  0  0  0  0
   20.1877    1.2423    7.1493 H   0  0  0  0  0  0  0  0  0  0  0  0
   21.2918    3.0117    6.6755 C   0  0  0  0  0  0  0  0  0  0  0  0
   20.4951    3.4268    6.0766 H   0  0  0  0  0  0  0  0  0  0  0  0
   23.3328    6.7135    7.2465 C   0  0  0  0  0  0  0  0  0  0  0  0
   23.6110    7.6388    6.7472 H   0  0  0  0  0  0  0  0  0  0  0  0
   24.2060    6.3713    7.7939 H   0  0  0  0  0  0  0  0  0  0  0  0
   22.5606    6.9464    7.9736 H   0  0  0  0  0  0  0  0  0  0  0  0
   21.1790    6.0020    5.0781 C   0  0  0  0  0  0  0  0  0  0  0  0
   20.3487    6.1548    5.7603 H   0  0  0  0  0  0  0  0  0  0  0  0
   20.8639    5.2890    4.3215 H   0  0  0  0  0  0  0  0  0  0  0  0
   21.3713    6.9463    4.5764 H   0  0  0  0  0  0  0  0  0  0  0  0
   24.8727    4.0871    4.4880 C   0  0  0  0  0  3  0  0  0  0  0  0
   24.7735    3.2034    5.1008 H   0  0  0  0  0  0  0  0  0  0  0  0
   25.7691    4.1367    3.3494 C   0  0  0  0  0  0  0  0  0  0  0  0
   25.7025    5.4045    2.7823 C   0  0  0  0  0  0  0  0  0  0  0  0
   25.8588    5.6699    1.4263 C   0  0  0  0  0  0  0  0  0  0  0  0
   26.5049    4.6865    0.6809 C   0  0  0  0  0  0  0  0  0  0  0  0
   26.6971    4.8193   -0.3734 H   0  0  0  0  0  0  0  0  0  0  0  0
   26.8229    3.4799    1.3003 C   0  0  0  0  0  0  0  0  0  0  0  0
   27.3186    2.7180    0.7161 H   0  0  0  0  0  0  0  0  0  0  0  0
   26.4143    3.1610    2.5934 C   0  0  0  0  0  0  0  0  0  0  0  0
   26.5382    2.1551    2.9663 H   0  0  0  0  0  0  0  0  0  0  0  0
   25.0326    6.8091    1.0768 C   0  0  0  0  0  3  0  0  0  0  0  0
   25.0223    7.2272    0.0811 H   0  0  0  0  0  0  0  0  0  0  0  0
   24.1819    7.2481    2.0415 C   0  0  1  0  0  3  0  0  0  0  0  0
   22.8326    9.5329    3.5836 C   0  0  0  0  0  0  0  0  0  0  0  0
   21.9985   10.2263    3.6329 H   0  0  0  0  0  0  0  0  0  0  0  0
   23.7383   10.0927    3.8014 H   0  0  0  0  0  0  0  0  0  0  0  0
   22.7049    8.8012    4.3788 H   0  0  0  0  0  0  0  0  0  0  0  0
   21.2675    7.9058    1.3973 C   0  0  0  0  0  0  0  0  0  0  0  0
   20.9641    7.1394    2.1041 H   0  0  0  0  0  0  0  0  0  0  0  0
   21.3182    7.4434    0.4162 H   0  0  0  0  0  0  0  0  0  0  0  0
   20.4851    8.6577    1.3716 H   0  0  0  0  0  0  0  0  0  0  0  0
   23.6081    9.8478    0.5608 C   0  0  0  0  0  0  0  0  0  0  0  0
   22.8291   10.2629   -0.5147 C   0  0  0  0  0  0  0  0  0  0  0  0
   21.8122    9.9094   -0.6001 H   0  0  0  0  0  0  0  0  0  0  0  0
   23.3358   11.1200   -1.4751 C   0  0  0  0  0  0  0  0  0  0  0  0
   22.7147   11.4300   -2.3033 H   0  0  0  0  0  0  0  0  0  0  0  0
   24.6376   11.5804   -1.3750 C   0  0  0  0  0  0  0  0  0  0  0  0
   25.0354   12.2494   -2.1239 H   0  0  0  0  0  0  0  0  0  0  0  0
   25.4274   11.1800   -0.3097 C   0  0  0  0  0  0  0  0  0  0  0  0
   26.4431   11.5377   -0.2246 H   0  0  0  0  0  0  0  0  0  0  0  0
   24.9155   10.3226    0.6464 C   0  0  0  0  0  0  0  0  0  0  0  0
   25.5386   10.0136    1.4744 H   0  0  0  0  0  0  0  0  0  0  0  0
  1  3  1  0  0  0  0
  2  6  1  0  0  0  0
  2  1  1  1  0  0  0
  4  7  1  0  0  0  0
  4 18  1  0  0  0  0
  5 40  1  0  0  0  0
  6  4  1  1  0  0  0
  7  8  1  0  0  0  0
  8  9  1  0  0  0  0
  8 10  2  0  0  0  0
 10 11  1  0  0  0  0
 12 10  1  0  0  0  0
 12 13  1  0  0  0  0
 14 12  2  0  0  0  0
 15 14  1  0  0  0  0
 16  7  2  0  0  0  0
 16 14  1  0  0  0  0
 17 16  1  0  0  0  0
 18 20  1  0  0  0  0
 18 21  1  0  0  0  0
 19 18  1  0  0  0  0
 22 23  1  0  0  0  0
 22  4  1  0  0  0  0
 24 22  1  0  0  0  0
 25 22  1  0  0  0  0
 26  6  1  0  0  0  0
 26 27  1  0  0  0  0
 28 26  1  0  0  0  0
 29 28  1  0  0  0  0
 29  2  1  0  0  0  0
 30 29  2  0  0  0  0
 31 33  2  0  0  0  0
 31 30  1  0  0  0  0
 32 31  1  0  0  0  0
 33 35  1  0  0  0  0
 34 33  1  0  0  0  0
 35 36  1  0  0  0  0
 35 28  2  0  0  0  0
 37 30  1  0  0  0  0
 37 39  1  0  0  0  0
 38 37  1  0  0  0  0
 39  5  1  1  0  0  0
 39  2  1  0  0  0  0
 40 41  1  0  0  0  0
 40 42  1  0  0  0  0
 40 43  1  0  0  0  0
 44  5  1  0  0  0  0
 44 45  1  0  0  0  0
 46 44  1  0  0  0  0
 47 44  1  0  0  0  0
 48 57  1  0  0  0  0
 48  5  1  0  0  0  0
 49 48  2  0  0  0  0
 50 49  1  0  0  0  0
 51 53  2  0  0  0  0
 51 49  1  0  0  0  0
 52 51  1  0  0  0  0
 53 55  1  0  0  0  0
 54 53  1  0  0  0  0
 55 56  1  0  0  0  0
 55 57  2  0  0  0  0
 57 58  1  0  0  0  0
M  END
$$$$
