CSD_code = GEJTIA | q = 0 | S = 0 | Stoichiometry = C13H13Br2N3Zn | MND = 5
 OpenBabel04212202043D

 32 35  0  0  1  0  0  0  0  0999 V2000
    3.3325    1.7217    8.9188 Zn  0  0  0  0  0  0  0  0  0  0  0  0
    1.0376    1.9956    9.4424 Br  0  0  0  0  0  0  0  0  0  0  0  0
    5.3928    1.7859   10.1750 Br  0  0  0  0  0  0  0  0  0  0  0  0
    3.5126    3.7056    7.8902 N   0  0  0  0  0  0  0  0  0  0  0  0
    4.4779    1.3991    7.0905 N   0  0  1  0  0  0  0  0  0  0  0  0
    3.2490   -0.4547    8.5339 N   0  0  0  0  0  0  0  0  0  0  0  0
    2.8492    4.8069    8.1874 C   0  0  0  0  0  3  0  0  0  0  0  0
    2.1467    4.7356    9.0068 H   0  0  0  0  0  0  0  0  0  0  0  0
    3.0234    5.9947    7.4915 C   0  0  0  0  0  0  0  0  0  0  0  0
    2.4650    6.8736    7.7693 H   0  0  0  0  0  0  0  0  0  0  0  0
    3.9189    6.0123    6.4357 C   0  0  0  0  0  0  0  0  0  0  0  0
    4.0733    6.9109    5.8573 H   0  0  0  0  0  0  0  0  0  0  0  0
    4.6167    4.8558    6.1257 C   0  0  0  0  0  0  0  0  0  0  0  0
    5.3007    4.8421    5.2923 H   0  0  0  0  0  0  0  0  0  0  0  0
    4.3935    3.7120    6.8864 C   0  0  0  0  0  0  0  0  0  0  0  0
    5.0794    2.4308    6.6507 C   0  0  1  0  0  3  0  0  0  0  0  0
    6.4229    2.3938    6.0013 C   0  0  0  0  0  0  0  0  0  0  0  0
    6.7940    3.3833    5.7606 H   0  0  0  0  0  0  0  0  0  0  0  0
    6.3923    1.7853    5.0971 H   0  0  0  0  0  0  0  0  0  0  0  0
    7.1238    1.9227    6.6929 H   0  0  0  0  0  0  0  0  0  0  0  0
    5.0437    0.0900    7.0039 C   0  0  0  0  0  0  0  0  0  0  0  0
    6.0204    0.0669    7.5123 H   0  0  0  0  0  0  0  0  0  0  0  0
    5.2127   -0.1987    5.9585 H   0  0  0  0  0  0  0  0  0  0  0  0
    4.1472   -0.9168    7.6738 C   0  0  1  0  0  3  0  0  0  0  0  0
    4.2831   -2.2756    7.4162 C   0  0  0  0  0  0  0  0  0  0  0  0
    5.0262   -2.6200    6.7132 H   0  0  0  0  0  0  0  0  0  0  0  0
    3.4564   -3.1676    8.0760 C   0  0  0  0  0  0  0  0  0  0  0  0
    3.5433   -4.2287    7.8969 H   0  0  0  0  0  0  0  0  0  0  0  0
    2.5143   -2.6732    8.9653 C   0  0  0  0  0  0  0  0  0  0  0  0
    1.8462   -3.3306    9.4971 H   0  0  0  0  0  0  0  0  0  0  0  0
    2.4471   -1.3057    9.1603 C   0  0  0  0  0  0  0  0  0  0  0  0
    1.7236   -0.8708    9.8362 H   0  0  0  0  0  0  0  0  0  0  0  0
  1  2  1  0  0  0  0
  1  3  1  0  0  0  0
  4  7  1  0  0  0  0
  4  1  1  0  0  0  0
  5 21  1  1  0  0  0
  5  1  1  0  0  0  0
  6  1  1  0  0  0  0
  6 31  1  0  0  0  0
  7  8  1  0  0  0  0
  9 10  1  0  0  0  0
  9  7  1  0  0  0  0
 11  9  2  0  0  0  0
 12 11  1  0  0  0  0
 13 11  1  0  0  0  0
 13 15  2  0  0  0  0
 14 13  1  0  0  0  0
 15  4  1  0  0  0  0
 16 17  1  1  0  0  0
 16 15  1  0  0  0  0
 16  5  1  0  0  0  0
 17 20  1  0  0  0  0
 18 17  1  0  0  0  0
 19 17  1  0  0  0  0
 21 22  1  0  0  0  0
 21 24  1  0  0  0  0
 23 21  1  0  0  0  0
 24 25  1  1  0  0  0
 24  6  1  0  0  0  0
 25 27  2  0  0  0  0
 26 25  1  0  0  0  0
 27 29  1  0  0  0  0
 28 27  1  0  0  0  0
 29 31  2  0  0  0  0
 29 30  1  0  0  0  0
 31 32  1  0  0  0  0
M  END
$$$$
