CSD_code = GEJTEW | q = 0 | S = 0 | Stoichiometry = C13H13Cl2N3Zn | MND = 5
 OpenBabel04212202043D

 32 35  0  0  1  0  0  0  0  0999 V2000
    8.3318    1.0895    1.4267 Zn  0  0  0  0  0  0  0  0  0  0  0  0
    7.7871    0.9756    3.5804 Cl  0  0  0  0  0  0  0  0  0  0  0  0
    9.7959    2.5733    0.5660 Cl  0  0  0  0  0  0  0  0  0  0  0  0
    9.6052   -0.6809    1.3875 N   0  0  0  0  0  0  0  0  0  0  0  0
    8.1742    0.2560   -0.5784 N   0  0  2  0  0  0  0  0  0  0  0  0
    6.4535    1.8317    0.6607 N   0  0  0  0  0  0  0  0  0  0  0  0
   10.2263   -1.1948    2.4311 C   0  0  0  0  0  3  0  0  0  0  0  0
    9.8927   -0.8390    3.3965 H   0  0  0  0  0  0  0  0  0  0  0  0
   11.2429   -2.1321    2.3039 C   0  0  0  0  0  0  0  0  0  0  0  0
   11.7327   -2.5276    3.1790 H   0  0  0  0  0  0  0  0  0  0  0  0
   11.6094   -2.5346    1.0307 C   0  0  0  0  0  0  0  0  0  0  0  0
   12.3978   -3.2585    0.8864 H   0  0  0  0  0  0  0  0  0  0  0  0
   10.9515   -1.9939   -0.0632 C   0  0  0  0  0  0  0  0  0  0  0  0
   11.2198   -2.2997   -1.0614 H   0  0  0  0  0  0  0  0  0  0  0  0
    9.9423   -1.0591    0.1532 C   0  0  0  0  0  0  0  0  0  0  0  0
    9.2000   -0.3969   -0.9368 C   0  0  2  0  0  3  0  0  0  0  0  0
    9.7345   -0.5134   -2.3303 C   0  0  0  0  0  0  0  0  0  0  0  0
    9.6645   -1.5447   -2.6739 H   0  0  0  0  0  0  0  0  0  0  0  0
   10.7811   -0.2157   -2.3409 H   0  0  0  0  0  0  0  0  0  0  0  0
    9.1860    0.1215   -3.0191 H   0  0  0  0  0  0  0  0  0  0  0  0
    7.3702    1.0566   -1.4445 C   0  0  0  0  0  0  0  0  0  0  0  0
    6.9122    0.4580   -2.2422 H   0  0  0  0  0  0  0  0  0  0  0  0
    7.9909    1.8358   -1.9100 H   0  0  0  0  0  0  0  0  0  0  0  0
    6.2939    1.7550   -0.6529 C   0  0  2  0  0  3  0  0  0  0  0  0
    5.1955    2.3245   -1.2874 C   0  0  0  0  0  0  0  0  0  0  0  0
    5.0893    2.2492   -2.3591 H   0  0  0  0  0  0  0  0  0  0  0  0
    4.2513    2.9886   -0.5239 C   0  0  0  0  0  0  0  0  0  0  0  0
    3.3913    3.4433   -0.9927 H   0  0  0  0  0  0  0  0  0  0  0  0
    4.4285    3.0561    0.8499 C   0  0  0  0  0  0  0  0  0  0  0  0
    3.7157    3.5618    1.4808 H   0  0  0  0  0  0  0  0  0  0  0  0
    5.5489    2.4584    1.3998 C   0  0  0  0  0  0  0  0  0  0  0  0
    5.7398    2.4686    2.4639 H   0  0  0  0  0  0  0  0  0  0  0  0
  1  2  1  0  0  0  0
  3  1  1  0  0  0  0
  4  1  1  0  0  0  0
  4  7  1  0  0  0  0
  5 21  1  6  0  0  0
  5  1  1  0  0  0  0
  6 31  1  0  0  0  0
  6  1  1  0  0  0  0
  7  8  1  0  0  0  0
  9  7  1  0  0  0  0
  9 10  1  0  0  0  0
 11  9  2  0  0  0  0
 12 11  1  0  0  0  0
 13 15  2  0  0  0  0
 13 11  1  0  0  0  0
 14 13  1  0  0  0  0
 15  4  1  0  0  0  0
 16 17  1  1  0  0  0
 16  5  1  0  0  0  0
 16 15  1  0  0  0  0
 18 17  1  0  0  0  0
 19 17  1  0  0  0  0
 20 17  1  0  0  0  0
 21 24  1  0  0  0  0
 22 21  1  0  0  0  0
 23 21  1  0  0  0  0
 24 25  1  6  0  0  0
 24  6  1  0  0  0  0
 25 27  2  0  0  0  0
 26 25  1  0  0  0  0
 27 29  1  0  0  0  0
 28 27  1  0  0  0  0
 29 31  2  0  0  0  0
 29 30  1  0  0  0  0
 31 32  1  0  0  0  0
M  END
$$$$
