CSD_code = GELKEP | q = -1 | S = 0 | Stoichiometry = C15H11Cl2N4O2Pd(1-) | MND = 4
 OpenBabel04212202043D

 35 38  0  0  0  0  0  0  0  0999 V2000
   10.2527    2.8011    1.7306 Pd  0  0  0  0  0  0  0  0  0  0  0  0
    8.2801    3.7054    2.3210 Cl  0  0  0  0  0  0  0  0  0  0  0  0
   14.9674    0.2244   -0.7612 O   0  0  0  0  0  0  0  0  0  0  0  0
   11.9501    2.0390    1.0444 N   0  0  0  0  0  0  0  0  0  0  0  0
    8.6572    3.1226   -0.8304 C   0  0  0  0  0  0  0  0  0  0  0  0
    7.8981    3.5311   -0.1719 H   0  0  0  0  0  0  0  0  0  0  0  0
   10.9075    2.7355    3.8495 Cl  0  0  0  0  0  0  0  0  0  0  0  0
   13.0757    1.9031    1.7180 N   0  0  0  0  0  0  0  0  0  0  0  0
   14.2580    2.1874    4.0309 O   0  0  0  0  0  0  0  0  0  0  0  0
    8.4588    3.0003   -2.1933 C   0  0  0  0  0  0  0  0  0  0  0  0
    7.5238    3.3173   -2.6284 H   0  0  0  0  0  0  0  0  0  0  0  0
   12.9991    1.3117   -0.9265 N   0  0  0  0  0  2  0  0  0  0  0  0
    9.4717    2.4666   -2.9842 C   0  0  0  0  0  0  0  0  0  0  0  0
    9.3403    2.3601   -4.0511 H   0  0  0  0  0  0  0  0  0  0  0  0
    9.7914    2.7480   -0.2391 N   0  0  0  0  0  0  0  0  0  0  0  0
   10.6476    2.0747   -2.3750 C   0  0  0  0  0  0  0  0  0  0  0  0
   11.4787    1.6502   -2.9146 H   0  0  0  0  0  0  0  0  0  0  0  0
   10.7775    2.2322   -0.9989 C   0  0  0  0  0  0  0  0  0  0  0  0
   11.9863    1.8331   -0.2813 C   0  0  0  0  0  0  0  0  0  0  0  0
   14.1149    0.9242   -0.2309 C   0  0  0  0  0  0  0  0  0  0  0  0
   15.3716    1.4352    1.9860 C   0  0  0  0  0  0  0  0  0  0  0  0
   15.3442    1.8098    3.3503 C   0  0  0  0  0  0  0  0  0  0  0  0
   16.5411    1.7843    4.0731 C   0  0  0  0  0  0  0  0  0  0  0  0
   16.4955    2.0671    5.1141 H   0  0  0  0  0  0  0  0  0  0  0  0
   17.7327    1.4219    3.4873 C   0  0  0  0  0  0  0  0  0  0  0  0
   18.6405    1.4173    4.0760 H   0  0  0  0  0  0  0  0  0  0  0  0
   17.7762    1.0600    2.1439 C   0  0  0  0  0  0  0  0  0  0  0  0
   16.5993    1.0714    1.4219 C   0  0  0  0  0  0  0  0  0  0  0  0
   16.6123    0.7802    0.3837 H   0  0  0  0  0  0  0  0  0  0  0  0
   19.0755    0.6808    1.4937 C   0  0  0  0  0  0  0  0  0  0  0  0
   19.6610    0.0357    2.1477 H   0  0  0  0  0  0  0  0  0  0  0  0
   19.6692    1.5721    1.2828 H   0  0  0  0  0  0  0  0  0  0  0  0
   18.8948    0.1615    0.5559 H   0  0  0  0  0  0  0  0  0  0  0  0
   14.1660    1.4300    1.1677 C   0  0  0  0  0  0  0  0  0  0  0  0
   13.4549    2.1953    3.4601 H   0  0  0  0  0  0  0  0  0  0  0  0
  1  2  1  0  0  0  0
  1  7  1  0  0  0  0
  3 20  2  0  0  0  0
  4  8  1  0  0  0  0
  4  1  1  0  0  0  0
  5 15  1  0  0  0  0
  5  6  1  0  0  0  0
 10  5  2  0  0  0  0
 11 10  1  0  0  0  0
 12 19  1  0  0  0  0
 12 20  1  0  0  0  0
 13 16  2  0  0  0  0
 13 10  1  0  0  0  0
 14 13  1  0  0  0  0
 15  1  1  0  0  0  0
 16 18  1  0  0  0  0
 17 16  1  0  0  0  0
 18 19  2  0  0  0  0
 18 15  1  0  0  0  0
 19  4  1  0  0  0  0
 20 34  1  0  0  0  0
 21 22  1  0  0  0  0
 22  9  1  0  0  0  0
 22 23  2  0  0  0  0
 23 24  1  0  0  0  0
 25 23  1  0  0  0  0
 25 26  1  0  0  0  0
 27 25  2  0  0  0  0
 28 21  2  0  0  0  0
 28 27  1  0  0  0  0
 29 28  1  0  0  0  0
 30 27  1  0  0  0  0
 30 31  1  0  0  0  0
 32 30  1  0  0  0  0
 33 30  1  0  0  0  0
 34  8  2  0  0  0  0
 34 21  1  0  0  0  0
 35  9  1  0  0  0  0
M  END
$$$$
