CSD_code = GELMAL | q = 0 | S = 0 | Stoichiometry = C8H12BrN2PPtS2 | MND = 4
 OpenBabel04212202043D

 27 28  0  0  0  0  0  0  0  0999 V2000
    6.4501    5.3379    8.9510 Pt  0  0  2  0  0  0  0  0  0  0  0  0
    5.7112    3.6338   10.5160 Br  0  0  0  0  0  0  0  0  0  0  0  0
    5.5809    5.0286    5.9107 S   0  0  0  0  0  0  0  0  0  0  0  0
    7.0825    6.9092    7.3750 S   0  0  0  0  0  0  0  0  0  0  0  0
    7.4552    6.3742   10.6846 P   0  0  0  0  0  4  0  0  0  0  0  0
    5.5303    4.4157    7.4038 N   0  0  0  0  0  0  0  0  0  0  0  0
    6.4155    6.3321    6.0143 N   0  0  0  0  0  2  0  0  0  0  0  0
    8.4257    7.8465   10.2443 C   0  0  0  0  0  0  0  0  0  0  0  0
    8.0508    9.1380   10.5905 C   0  0  0  0  0  0  0  0  0  0  0  0
    8.8151   10.2156   10.1766 C   0  0  0  0  0  0  0  0  0  0  0  0
    9.9507   10.0136    9.4116 C   0  0  0  0  0  0  0  0  0  0  0  0
   10.3224    8.7279    9.0516 C   0  0  0  0  0  0  0  0  0  0  0  0
    9.5603    7.6513    9.4606 C   0  0  0  0  0  0  0  0  0  0  0  0
    8.6611    5.3672   11.6234 C   0  0  0  0  0  0  0  0  0  0  0  0
    6.3163    6.9150   12.0057 C   0  0  0  0  0  0  0  0  0  0  0  0
    5.0027    3.5518    7.4663 H   0  0  0  0  0  0  0  0  0  0  0  0
    7.1621    9.3091   11.1788 H   0  0  0  0  0  0  0  0  0  0  0  0
    8.5183   11.2178   10.4491 H   0  0  0  0  0  0  0  0  0  0  0  0
   10.5417   10.8574    9.0884 H   0  0  0  0  0  0  0  0  0  0  0  0
   11.2018    8.5677    8.4458 H   0  0  0  0  0  0  0  0  0  0  0  0
    9.8341    6.6472    9.1650 H   0  0  0  0  0  0  0  0  0  0  0  0
    8.1358    4.5266   12.0751 H   0  0  0  0  0  0  0  0  0  0  0  0
    9.1227    5.9794   12.3974 H   0  0  0  0  0  0  0  0  0  0  0  0
    9.4302    4.9817   10.9569 H   0  0  0  0  0  0  0  0  0  0  0  0
    5.8343    6.0277   12.4163 H   0  0  0  0  0  0  0  0  0  0  0  0
    5.5477    7.5683   11.5954 H   0  0  0  0  0  0  0  0  0  0  0  0
    6.8685    7.4300   12.7911 H   0  0  0  0  0  0  0  0  0  0  0  0
  1  2  1  6  0  0  0
  1  5  1  0  0  0  0
  3  7  1  0  0  0  0
  3  6  1  0  0  0  0
  4  1  1  0  0  0  0
  5 14  1  0  0  0  0
  5 15  1  0  0  0  0
  6 16  1  0  0  0  0
  6  1  1  0  0  0  0
  7  4  1  0  0  0  0
  8  9  1  0  0  0  0
  8  5  1  0  0  0  0
  9 17  1  0  0  0  0
 10 18  1  0  0  0  0
 10  9  2  0  0  0  0
 11 10  1  0  0  0  0
 12 11  2  0  0  0  0
 12 13  1  0  0  0  0
 13  8  2  0  0  0  0
 14 22  1  0  0  0  0
 14 23  1  0  0  0  0
 15 25  1  0  0  0  0
 15 27  1  0  0  0  0
 19 11  1  0  0  0  0
 20 12  1  0  0  0  0
 21 13  1  0  0  0  0
 24 14  1  0  0  0  0
 26 15  1  0  0  0  0
M  END
$$$$
