CSD_code = GELNOA | q = 0 | S = 0 | Stoichiometry = C18H15CuIN3 | MND = 4
 OpenBabel04212202043D

 38 41  0  0  1  0  0  0  0  0999 V2000
   -1.8527   -0.4919    2.3142 I   0  0  0  0  0  0  0  0  0  0  0  0
   -3.2413    0.9598    3.8102 Cu  0  0  2  0  0  0  0  0  0  0  0  0
   -1.6877    3.3728    3.3318 N   0  0  0  0  0  2  0  0  0  0  0  0
   -3.7046   -0.2088    5.3503 N   0  0  0  0  0  0  0  0  0  0  0  0
   -5.2070    0.7598    3.4732 N   0  0  0  0  0  0  0  0  0  0  0  0
   -2.4820    2.6156    3.7401 C   0  0  0  0  0  2  0  0  0  0  0  0
   -0.6933    4.0936    2.7603 C   0  0  0  0  0  0  0  0  0  0  0  0
   -0.5605    5.4539    3.0262 C   0  0  0  0  0  0  0  0  0  0  0  0
    0.4637    6.1619    2.4293 C   0  0  0  0  0  0  0  0  0  0  0  0
    1.3609    5.5380    1.5693 C   0  0  0  0  0  0  0  0  0  0  0  0
    1.2107    4.1769    1.3152 C   0  0  0  0  0  0  0  0  0  0  0  0
    0.1963    3.4487    1.8993 C   0  0  0  0  0  0  0  0  0  0  0  0
    2.4832    6.3044    0.9420 C   0  0  0  0  0  0  0  0  0  0  0  0
   -2.8172   -0.7843    6.1480 C   0  0  0  0  0  3  0  0  0  0  0  0
   -3.1518   -1.7944    7.0291 C   0  0  0  0  0  0  0  0  0  0  0  0
   -4.4714   -2.2306    7.0663 C   0  0  0  0  0  0  0  0  0  0  0  0
   -5.3959   -1.6431    6.2244 C   0  0  0  0  0  0  0  0  0  0  0  0
   -4.9820   -0.6212    5.3706 C   0  0  0  0  0  0  0  0  0  0  0  0
   -5.8526    0.0412    4.4032 C   0  0  2  0  0  3  0  0  0  0  0  0
   -7.2444   -0.0544    4.3997 C   0  0  0  0  0  0  0  0  0  0  0  0
   -7.9575    0.5850    3.4043 C   0  0  0  0  0  0  0  0  0  0  0  0
   -7.2689    1.3067    2.4355 C   0  0  0  0  0  0  0  0  0  0  0  0
   -5.8907    1.3697    2.5195 C   0  0  0  0  0  0  0  0  0  0  0  0
   -1.2565    5.9413    3.6930 H   0  0  0  0  0  0  0  0  0  0  0  0
    0.5677    7.2176    2.6344 H   0  0  0  0  0  0  0  0  0  0  0  0
    1.8999    3.6810    0.6479 H   0  0  0  0  0  0  0  0  0  0  0  0
    0.0770    2.3941    1.7024 H   0  0  0  0  0  0  0  0  0  0  0  0
    2.6414    5.9843   -0.0855 H   0  0  0  0  0  0  0  0  0  0  0  0
    3.4073    6.1252    1.4925 H   0  0  0  0  0  0  0  0  0  0  0  0
    2.2826    7.3728    0.9540 H   0  0  0  0  0  0  0  0  0  0  0  0
   -1.8021   -0.4195    6.0692 H   0  0  0  0  0  0  0  0  0  0  0  0
   -2.4006   -2.2323    7.6661 H   0  0  0  0  0  0  0  0  0  0  0  0
   -4.7691   -3.0245    7.7346 H   0  0  0  0  0  0  0  0  0  0  0  0
   -6.4184   -1.9848    6.2129 H   0  0  0  0  0  0  0  0  0  0  0  0
   -7.7574   -0.6116    5.1671 H   0  0  0  0  0  0  0  0  0  0  0  0
   -9.0351    0.5222    3.3787 H   0  0  0  0  0  0  0  0  0  0  0  0
   -7.7909    1.8068    1.6358 H   0  0  0  0  0  0  0  0  0  0  0  0
   -5.3054    1.9191    1.7945 H   0  0  0  0  0  0  0  0  0  0  0  0
  2  1  1  6  0  0  0
  2  4  1  0  0  0  0
  3  6  1  0  0  0  0
  4 18  1  0  0  0  0
  4 14  1  0  0  0  0
  5  2  1  0  0  0  0
  5 19  1  0  0  0  0
  6  2  1  0  0  0  0
  7  8  1  0  0  0  0
  7  3  1  0  0  0  0
  8 24  1  0  0  0  0
  9 25  1  0  0  0  0
  9  8  2  0  0  0  0
 10  9  1  0  0  0  0
 11 10  2  0  0  0  0
 11 12  1  0  0  0  0
 12  7  2  0  0  0  0
 13 30  1  0  0  0  0
 13 29  1  0  0  0  0
 13 10  1  0  0  0  0
 14 15  1  0  0  0  0
 15 16  2  0  0  0  0
 15 32  1  0  0  0  0
 16 33  1  0  0  0  0
 17 16  1  0  0  0  0
 18 17  2  0  0  0  0
 19 20  1  6  0  0  0
 19 18  1  0  0  0  0
 20 35  1  0  0  0  0
 21 20  2  0  0  0  0
 22 23  2  0  0  0  0
 22 21  1  0  0  0  0
 23  5  1  0  0  0  0
 26 11  1  0  0  0  0
 27 12  1  0  0  0  0
 28 13  1  0  0  0  0
 31 14  1  0  0  0  0
 34 17  1  0  0  0  0
 36 21  1  0  0  0  0
 37 22  1  0  0  0  0
 38 23  1  0  0  0  0
M  END
$$$$
