CSD_code = GELNIW | q = -1 | S = 0 | Stoichiometry = C2H6Br5OPtS(1-) | MND = 6
 OpenBabel04212202043D

 16 15  0  0  0  0  0  0  0  0999 V2000
    7.9479    3.0812   20.6697 Pt  0  0  0  0  0  0  0  0  0  0  0  0
    6.0640    2.0946   19.2860 Br  0  0  0  0  0  0  0  0  0  0  0  0
    8.7916    0.8806   21.3765 Br  0  0  0  0  0  0  0  0  0  0  0  0
    6.4254    3.2504   22.6652 Br  0  0  0  0  0  0  0  0  0  0  0  0
    9.7272    4.2712   21.9694 Br  0  0  0  0  0  0  0  0  0  0  0  0
    9.4450    3.1192   18.6480 Br  0  0  0  0  0  0  0  0  0  0  0  0
    7.0226    5.1829   19.9061 S   0  0  0  0  0  0  0  0  0  0  0  0
    7.6939    6.3781   20.3718 O   0  0  0  0  0  1  0  0  0  0  0  0
    5.2503    5.4203   20.2787 C   0  0  0  0  0  0  0  0  0  0  0  0
    5.1344    5.4565   21.3568 H   0  0  0  0  0  0  0  0  0  0  0  0
    4.6898    4.5892   19.8669 H   0  0  0  0  0  0  0  0  0  0  0  0
    4.9532    6.3640   19.8372 H   0  0  0  0  0  0  0  0  0  0  0  0
    6.8954    5.3492   18.0915 C   0  0  0  0  0  0  0  0  0  0  0  0
    7.8994    5.3369   17.6809 H   0  0  0  0  0  0  0  0  0  0  0  0
    6.4189    6.3009   17.8893 H   0  0  0  0  0  0  0  0  0  0  0  0
    6.3183    4.5191   17.7014 H   0  0  0  0  0  0  0  0  0  0  0  0
  1  3  1  0  0  0  0
  1  5  1  0  0  0  0
  1  4  1  0  0  0  0
  2  1  1  0  0  0  0
  6  1  1  0  0  0  0
  7  9  1  0  0  0  0
  7  8  1  0  0  0  0
  7  1  1  0  0  0  0
  9 10  1  0  0  0  0
 11  9  1  0  0  0  0
 12  9  1  0  0  0  0
 13  7  1  0  0  0  0
 14 13  1  0  0  0  0
 15 13  1  0  0  0  0
 16 13  1  0  0  0  0
M  END
$$$$
