CSD_code = GELNAO | q = -1 | S = 0 | Stoichiometry = C2H6Br5OPtS(1-) | MND = 6
 OpenBabel04212202043D

 16 15  0  0  0  0  0  0  0  0999 V2000
    6.4974    4.9301   12.7625 Pt  0  0  0  0  0  0  0  0  0  0  0  0
    7.7413    3.4367   11.1650 Br  0  0  0  0  0  0  0  0  0  0  0  0
    5.2926    6.2800   14.5110 Br  0  0  0  0  0  0  0  0  0  0  0  0
    4.2818    4.1557   11.7996 Br  0  0  0  0  0  0  0  0  0  0  0  0
    8.6720    5.5072   13.8615 Br  0  0  0  0  0  0  0  0  0  0  0  0
    6.6623    6.8585   11.2428 Br  0  0  0  0  0  0  0  0  0  0  0  0
    6.2201    3.0034   14.1999 S   0  0  0  0  0  0  0  0  0  0  0  0
    7.2722    2.7764   15.1681 O   0  0  0  0  0  1  0  0  0  0  0  0
    5.9924    1.4197   13.3188 C   0  0  0  0  0  0  0  0  0  0  0  0
    6.9044    1.2050   12.7719 H   0  0  0  0  0  0  0  0  0  0  0  0
    5.1566    1.5144   12.6356 H   0  0  0  0  0  0  0  0  0  0  0  0
    5.8154    0.6573   14.0677 H   0  0  0  0  0  0  0  0  0  0  0  0
    4.6536    2.9670   15.1389 C   0  0  0  0  0  0  0  0  0  0  0  0
    4.6546    3.8056   15.8273 H   0  0  0  0  0  0  0  0  0  0  0  0
    4.6293    2.0323   15.6859 H   0  0  0  0  0  0  0  0  0  0  0  0
    3.8249    3.0492   14.4454 H   0  0  0  0  0  0  0  0  0  0  0  0
  1  5  1  0  0  0  0
  1  7  1  0  0  0  0
  1  3  1  0  0  0  0
  2  1  1  0  0  0  0
  4  1  1  0  0  0  0
  6  1  1  0  0  0  0
  7 13  1  0  0  0  0
  7  8  1  0  0  0  0
  9 12  1  0  0  0  0
  9  7  1  0  0  0  0
 10  9  1  0  0  0  0
 11  9  1  0  0  0  0
 13 15  1  0  0  0  0
 13 14  1  0  0  0  0
 16 13  1  0  0  0  0
M  END
$$$$
