CSD_code = GEMJOX | q = 0 | S = 0 | Stoichiometry = C28H19Cl2NO2PReS | MND = 6
 OpenBabel04212202043D

 55 59  0  0  1  0  0  0  0  0999 V2000
    6.1584   11.9264    2.8652 Re  0  0  0  0  0  0  0  0  0  0  0  0
    6.7544   12.0074    4.4023 O   0  0  0  0  0  1  0  0  0  0  0  0
    4.4479   10.3650    3.5214 Cl  0  0  0  0  0  0  0  0  0  0  0  0
    5.5500   11.7444    0.8478 Cl  0  0  0  0  0  0  0  0  0  0  0  0
    8.1651   13.2164    2.0538 S   0  0  0  0  0  0  0  0  0  0  0  0
    4.4972   13.6008    3.4042 P   0  0  0  0  0  4  0  0  0  0  0  0
    8.0916   10.6491    2.2539 N   0  0  0  0  0  0  0  0  0  0  0  0
   10.0480   11.5097    1.3461 O   0  0  0  0  0  0  0  0  0  0  0  0
    3.2385   13.7995    2.1192 C   0  0  0  0  0  0  0  0  0  0  0  0
    3.0237   15.0085    1.4673 C   0  0  0  0  0  0  0  0  0  0  0  0
    2.0451   15.0936    0.4915 C   0  0  0  0  0  0  0  0  0  0  0  0
    1.2845   13.9826    0.1663 C   0  0  0  0  0  0  0  0  0  0  0  0
    1.4950   12.7786    0.8216 C   0  0  0  0  0  0  0  0  0  0  0  0
    2.4692   12.6817    1.7967 C   0  0  0  0  0  0  0  0  0  0  0  0
    5.3246   15.1943    3.6043 C   0  0  0  0  0  0  0  0  0  0  0  0
    6.0742   15.6829    2.5344 C   0  0  0  0  0  0  0  0  0  0  0  0
    6.7582   16.8762    2.6592 C   0  0  0  0  0  0  0  0  0  0  0  0
    6.6991   17.5853    3.8495 C   0  0  0  0  0  0  0  0  0  0  0  0
    5.9558   17.1011    4.9134 C   0  0  0  0  0  0  0  0  0  0  0  0
    5.2697   15.9045    4.7983 C   0  0  0  0  0  0  0  0  0  0  0  0
    3.5814   13.2933    4.9350 C   0  0  0  0  0  0  0  0  0  0  0  0
    4.1986   12.6118    5.9799 C   0  0  0  0  0  0  0  0  0  0  0  0
    3.5112   12.4030    7.1612 C   0  0  0  0  0  0  0  0  0  0  0  0
    2.2142   12.8719    7.3026 C   0  0  0  0  0  0  0  0  0  0  0  0
    1.6014   13.5532    6.2631 C   0  0  0  0  0  0  0  0  0  0  0  0
    2.2799   13.7670    5.0768 C   0  0  0  0  0  0  0  0  0  0  0  0
    8.8636   11.6656    1.8627 C   0  0  1  0  0  3  0  0  0  0  0  0
   10.8069   12.5773    1.0632 C   0  0  0  0  0  0  0  0  0  0  0  0
   11.6233   13.4913    1.0958 C   0  0  0  0  0  3  0  0  0  0  0  0
    8.3752    9.3504    2.2925 C   0  0  0  0  0  0  0  0  0  0  0  0
    7.3319    8.4671    2.7053 C   0  0  0  0  0  0  0  0  0  0  0  0
    7.5076    7.1345    2.7857 C   0  0  0  0  0  0  0  0  0  0  0  0
    8.7791    6.5278    2.4395 C   0  0  0  0  0  0  0  0  0  0  0  0
    9.8342    7.4308    2.0336 C   0  0  0  0  0  0  0  0  0  0  0  0
    9.6384    8.7641    1.9688 C   0  0  0  0  0  0  0  0  0  0  0  0
    8.9548    5.2118    2.4859 C   0  0  0  0  0  1  0  0  0  0  0  0
    3.6150   15.8763    1.7218 H   0  0  0  0  0  0  0  0  0  0  0  0
    1.8796   16.0313   -0.0178 H   0  0  0  0  0  0  0  0  0  0  0  0
    0.5276   14.0544   -0.6003 H   0  0  0  0  0  0  0  0  0  0  0  0
    0.9025   11.9125    0.5683 H   0  0  0  0  0  0  0  0  0  0  0  0
    2.6482   11.7449    2.3086 H   0  0  0  0  0  0  0  0  0  0  0  0
    6.1246   15.1167    1.6139 H   0  0  0  0  0  0  0  0  0  0  0  0
    7.3465   17.2474    1.8342 H   0  0  0  0  0  0  0  0  0  0  0  0
    7.2406   18.5138    3.9493 H   0  0  0  0  0  0  0  0  0  0  0  0
    5.9159   17.6529    5.8407 H   0  0  0  0  0  0  0  0  0  0  0  0
    4.6972   15.5185    5.6294 H   0  0  0  0  0  0  0  0  0  0  0  0
    5.2075   12.2400    5.8466 H   0  0  0  0  0  0  0  0  0  0  0  0
    3.9846   11.8683    7.9704 H   0  0  0  0  0  0  0  0  0  0  0  0
    1.6770   12.7021    8.2236 H   0  0  0  0  0  0  0  0  0  0  0  0
    0.5902   13.9155    6.3741 H   0  0  0  0  0  0  0  0  0  0  0  0
    1.8037   14.2943    4.2620 H   0  0  0  0  0  0  0  0  0  0  0  0
    6.3769    8.9011    2.9707 H   0  0  0  0  0  0  0  0  0  0  0  0
    6.7128    6.4796    3.1027 H   0  0  0  0  0  0  0  0  0  0  0  0
   10.7891    6.9949    1.7859 H   0  0  0  0  0  0  0  0  0  0  0  0
   10.4580    9.3972    1.6661 H   0  0  0  0  0  0  0  0  0  0  0  0
  1  6  1  0  0  0  0
  1  3  1  0  0  0  0
  1  2  1  0  0  0  0
  4  1  1  0  0  0  0
  5  1  1  0  0  0  0
  6 15  1  0  0  0  0
  6 21  1  0  0  0  0
  7 30  1  0  0  0  0
  7  1  1  0  0  0  0
  9  6  1  0  0  0  0
 10 37  1  0  0  0  0
 10  9  2  0  0  0  0
 11 10  1  0  0  0  0
 12 11  2  0  0  0  0
 12 13  1  0  0  0  0
 13 14  2  0  0  0  0
 14  9  1  0  0  0  0
 14 41  1  0  0  0  0
 15 20  1  0  0  0  0
 16 17  1  0  0  0  0
 16 15  2  0  0  0  0
 17 18  2  0  0  0  0
 18 44  1  0  0  0  0
 18 19  1  0  0  0  0
 19 45  1  0  0  0  0
 20 19  2  0  0  0  0
 20 46  1  0  0  0  0
 21 26  2  0  0  0  0
 21 22  1  0  0  0  0
 22 23  2  0  0  0  0
 23 24  1  0  0  0  0
 23 48  1  0  0  0  0
 24 49  1  0  0  0  0
 25 50  1  0  0  0  0
 25 24  2  0  0  0  0
 26 25  1  0  0  0  0
 27  8  1  6  0  0  0
 27  5  1  0  0  0  0
 27  7  1  0  0  0  0
 28 29  3  0  0  0  0
 28  8  1  0  0  0  0
 30 31  1  0  0  0  0
 31 32  2  0  0  0  0
 31 52  1  0  0  0  0
 32 53  1  0  0  0  0
 33 36  1  0  0  0  0
 33 32  1  0  0  0  0
 34 33  2  0  0  0  0
 35 34  1  0  0  0  0
 35 30  2  0  0  0  0
 38 11  1  0  0  0  0
 39 12  1  0  0  0  0
 40 13  1  0  0  0  0
 42 16  1  0  0  0  0
 43 17  1  0  0  0  0
 47 22  1  0  0  0  0
 51 26  1  0  0  0  0
 54 34  1  0  0  0  0
 55 35  1  0  0  0  0
M  END
$$$$
