CSD_code = GENYAB | q = 0 | S = 0 | Stoichiometry = C30H26ClNP2Pd | MND = 4
 OpenBabel04212202043D

 61 67  0  0  0  0  0  0  0  0999 V2000
    2.5943   -2.0205    4.0111 C   0  0  0  0  0  0  0  0  0  0  0  0
    3.6740   -2.8615    3.7496 C   0  0  0  0  0  0  0  0  0  0  0  0
    4.5774   -2.4502    3.3153 H   0  0  0  0  0  0  0  0  0  0  0  0
    3.5861   -4.2121    4.0257 C   0  0  0  0  0  0  0  0  0  0  0  0
    4.4272   -4.8602    3.8273 H   0  0  0  0  0  0  0  0  0  0  0  0
    2.4130   -4.7359    4.5461 C   0  0  0  0  0  0  0  0  0  0  0  0
    2.3424   -5.7922    4.7592 H   0  0  0  0  0  0  0  0  0  0  0  0
    1.3256   -3.9091    4.7747 C   0  0  0  0  0  0  0  0  0  0  0  0
    0.4049   -4.3221    5.1600 H   0  0  0  0  0  0  0  0  0  0  0  0
    1.4084   -2.5553    4.5021 C   0  0  0  0  0  0  0  0  0  0  0  0
    0.5535   -1.9140    4.6632 H   0  0  0  0  0  0  0  0  0  0  0  0
    1.4062    0.6085    4.3695 C   0  0  0  0  0  0  0  0  0  0  0  0
    0.6292    1.4774    3.6053 C   0  0  0  0  0  0  0  0  0  0  0  0
    0.8106    1.5677    2.5228 H   0  0  0  0  0  0  0  0  0  0  0  0
   -0.3774    2.2132    4.2063 C   0  0  0  0  0  0  0  0  0  0  0  0
   -0.9806    2.8865    3.6153 H   0  0  0  0  0  0  0  0  0  0  0  0
   -0.6124    2.0845    5.5655 C   0  0  0  0  0  0  0  0  0  0  0  0
   -1.3982    2.6587    6.0336 H   0  0  0  0  0  0  0  0  0  0  0  0
    0.1576    1.2199    6.3280 C   0  0  0  0  0  0  0  0  0  0  0  0
   -0.0291    1.1214    7.3874 H   0  0  0  0  0  0  0  0  0  0  0  0
    1.1666    0.4839    5.7350 C   0  0  0  0  0  0  0  0  0  0  0  0
    1.7682   -0.1930    6.3274 H   0  0  0  0  0  0  0  0  0  0  0  0
    4.2531    0.3571    4.4195 C   0  0  0  0  0  0  0  0  0  0  0  0
    4.0499    0.4795    5.4882 H   0  0  0  0  0  0  0  0  0  0  0  0
    5.0709   -0.3662    4.3070 H   0  0  0  0  0  0  0  0  0  0  0  0
    4.5820    1.6565    3.7488 C   0  0  0  0  0  0  0  0  0  0  0  0
    5.3643    2.7283    4.1244 C   0  0  0  0  0  0  0  0  0  0  0  0
    5.8971    2.8375    5.0498 H   0  0  0  0  0  0  0  0  0  0  0  0
    5.3310    3.6509    3.0606 C   0  0  0  0  0  0  0  0  0  0  0  0
    5.8355    4.5974    3.0189 H   0  0  0  0  0  0  0  0  0  0  0  0
    4.5275    3.1046    2.0817 C   0  0  0  0  0  0  0  0  0  0  0  0
    4.0904    3.6020    0.7367 C   0  0  0  0  0  0  0  0  0  0  0  0
    4.9139    4.0724    0.1892 H   0  0  0  0  0  0  0  0  0  0  0  0
    3.2688    4.3258    0.8306 H   0  0  0  0  0  0  0  0  0  0  0  0
    2.5928    2.6947   -1.6405 C   0  0  0  0  0  0  0  0  0  0  0  0
    1.7728    1.7687   -2.2812 C   0  0  0  0  0  0  0  0  0  0  0  0
    1.6527    0.7831   -1.8490 H   0  0  0  0  0  0  0  0  0  0  0  0
    1.1104    2.1219   -3.4419 C   0  0  0  0  0  0  0  0  0  0  0  0
    0.4736    1.4047   -3.9378 H   0  0  0  0  0  0  0  0  0  0  0  0
    1.2607    3.3967   -3.9646 C   0  0  0  0  0  0  0  0  0  0  0  0
    0.7436    3.6737   -4.8715 H   0  0  0  0  0  0  0  0  0  0  0  0
    2.0673    4.3220   -3.3221 C   0  0  0  0  0  0  0  0  0  0  0  0
    2.1773    5.3173   -3.7280 H   0  0  0  0  0  0  0  0  0  0  0  0
    2.7335    3.9771   -2.1594 C   0  0  0  0  0  0  0  0  0  0  0  0
    3.3550    4.7056   -1.6582 H   0  0  0  0  0  0  0  0  0  0  0  0
    4.9727    1.3685   -0.8359 C   0  0  0  0  0  0  0  0  0  0  0  0
    5.3870    0.1328   -0.3425 C   0  0  0  0  0  0  0  0  0  0  0  0
    4.7804   -0.3882    0.4155 H   0  0  0  0  0  0  0  0  0  0  0  0
    6.5498   -0.4461   -0.8197 C   0  0  0  0  0  0  0  0  0  0  0  0
    6.8721   -1.4042   -0.4391 H   0  0  0  0  0  0  0  0  0  0  0  0
    7.2990    0.2004   -1.7893 C   0  0  0  0  0  0  0  0  0  0  0  0
    8.2063   -0.2526   -2.1608 H   0  0  0  0  0  0  0  0  0  0  0  0
    6.8831    1.4239   -2.2900 C   0  0  0  0  0  0  0  0  0  0  0  0
    7.4648    1.9218   -3.0520 H   0  0  0  0  0  0  0  0  0  0  0  0
    5.7222    2.0077   -1.8179 C   0  0  0  0  0  0  0  0  0  0  0  0
    5.3892    2.9569   -2.2156 H   0  0  0  0  0  0  0  0  0  0  0  0
    4.0793    1.8969    2.5099 N   0  0  0  0  0  0  0  0  0  0  0  0
    3.4536    2.1135   -0.1531 P   0  0  0  0  0  4  0  0  0  0  0  0
    2.7565   -0.2794    3.5364 P   0  0  0  0  0  4  0  0  0  0  0  0
    2.8840    0.6833    1.5030 Pd  0  0  0  0  0  0  0  0  0  0  0  0
    1.5348   -0.7423    0.3849 Cl  0  0  0  0  0  0  0  0  0  0  0  0
  1 10  1  0  0  0  0
  2  1  2  0  0  0  0
  2  4  1  0  0  0  0
  3  2  1  0  0  0  0
  4  6  2  0  0  0  0
  5  4  1  0  0  0  0
  6  7  1  0  0  0  0
  6  8  1  0  0  0  0
  8  9  1  0  0  0  0
 10 11  1  0  0  0  0
 10  8  2  0  0  0  0
 12 21  1  0  0  0  0
 13 15  1  0  0  0  0
 13 12  2  0  0  0  0
 14 13  1  0  0  0  0
 15 17  2  0  0  0  0
 16 15  1  0  0  0  0
 17 18  1  0  0  0  0
 17 19  1  0  0  0  0
 19 20  1  0  0  0  0
 21 22  1  0  0  0  0
 21 19  2  0  0  0  0
 23 24  1  0  0  0  0
 25 23  1  0  0  0  0
 26 27  2  0  0  0  0
 26 23  1  0  0  0  0
 27 28  1  0  0  0  0
 29 27  1  0  0  0  0
 30 29  1  0  0  0  0
 31 57  1  0  0  0  0
 31 29  2  0  0  0  0
 32 34  1  0  0  0  0
 32 31  1  0  0  0  0
 33 32  1  0  0  0  0
 35 58  1  0  0  0  0
 36 37  1  0  0  0  0
 36 35  2  0  0  0  0
 38 36  1  0  0  0  0
 39 38  1  0  0  0  0
 40 38  2  0  0  0  0
 40 42  1  0  0  0  0
 41 40  1  0  0  0  0
 42 44  2  0  0  0  0
 43 42  1  0  0  0  0
 44 45  1  0  0  0  0
 44 35  1  0  0  0  0
 46 47  1  0  0  0  0
 46 58  1  0  0  0  0
 47 48  1  0  0  0  0
 49 50  1  0  0  0  0
 49 47  2  0  0  0  0
 51 49  1  0  0  0  0
 52 51  1  0  0  0  0
 53 55  1  0  0  0  0
 53 51  2  0  0  0  0
 54 53  1  0  0  0  0
 55 46  2  0  0  0  0
 56 55  1  0  0  0  0
 57 26  1  0  0  0  0
 58 32  1  0  0  0  0
 58 60  1  0  0  0  0
 59  1  1  0  0  0  0
 59 12  1  0  0  0  0
 59 23  1  0  0  0  0
 60 57  1  0  0  0  0
 60 59  1  0  0  0  0
 61 60  1  0  0  0  0
M  END
$$$$
