CSD_code = GENYOP | q = 0 | S = 0 | Stoichiometry = C30H26BrNNiP2 | MND = 4
 OpenBabel04212202043D

 61 67  0  0  0  0  0  0  0  0999 V2000
    4.1302    0.2644    4.5082 C   0  0  0  0  0  0  0  0  0  0  0  0
    3.8017    0.3249    5.5505 H   0  0  0  0  0  0  0  0  0  0  0  0
    4.9317   -0.4836    4.4445 H   0  0  0  0  0  0  0  0  0  0  0  0
    4.5589    1.5804    3.9398 C   0  0  0  0  0  0  0  0  0  0  0  0
    5.3229    2.6155    4.4275 C   0  0  0  0  0  0  0  0  0  0  0  0
    5.7775    2.6689    5.3989 H   0  0  0  0  0  0  0  0  0  0  0  0
    5.3943    3.5897    3.4093 C   0  0  0  0  0  0  0  0  0  0  0  0
    5.9150    4.5277    3.4551 H   0  0  0  0  0  0  0  0  0  0  0  0
    4.6680    3.1103    2.3437 C   0  0  0  0  0  0  0  0  0  0  0  0
    4.3380    3.6647    0.9938 C   0  0  0  0  0  0  0  0  0  0  0  0
    5.1876    4.1441    0.4977 H   0  0  0  0  0  0  0  0  0  0  0  0
    3.5170    4.3922    1.0466 H   0  0  0  0  0  0  0  0  0  0  0  0
    5.2044    1.4938   -0.7429 C   0  0  0  0  0  0  0  0  0  0  0  0
    6.4666    1.6174   -0.1711 C   0  0  0  0  0  0  0  0  0  0  0  0
    6.5962    2.1721    0.7481 H   0  0  0  0  0  0  0  0  0  0  0  0
    7.5563    1.0185   -0.7773 C   0  0  0  0  0  0  0  0  0  0  0  0
    8.5374    1.1217   -0.3368 H   0  0  0  0  0  0  0  0  0  0  0  0
    7.3907    0.2837   -1.9400 C   0  0  0  0  0  0  0  0  0  0  0  0
    8.2448   -0.1823   -2.4087 H   0  0  0  0  0  0  0  0  0  0  0  0
    6.1287    0.1342   -2.4940 C   0  0  0  0  0  0  0  0  0  0  0  0
    5.9963   -0.4536   -3.3901 H   0  0  0  0  0  0  0  0  0  0  0  0
    5.0347    0.7300   -1.8961 C   0  0  0  0  0  0  0  0  0  0  0  0
    4.0434    0.6035   -2.3109 H   0  0  0  0  0  0  0  0  0  0  0  0
    2.8071    2.9080   -1.3362 C   0  0  0  0  0  0  0  0  0  0  0  0
    3.4857    3.6292   -2.3142 C   0  0  0  0  0  0  0  0  0  0  0  0
    4.5637    3.7102   -2.2723 H   0  0  0  0  0  0  0  0  0  0  0  0
    2.7785    4.2285   -3.3384 C   0  0  0  0  0  0  0  0  0  0  0  0
    3.3040    4.7867   -4.0996 H   0  0  0  0  0  0  0  0  0  0  0  0
    1.3975    4.1121   -3.3910 C   0  0  0  0  0  0  0  0  0  0  0  0
    0.8499    4.5794   -4.1961 H   0  0  0  0  0  0  0  0  0  0  0  0
    0.7216    3.3970   -2.4173 C   0  0  0  0  0  0  0  0  0  0  0  0
   -0.3530    3.3028   -2.4604 H   0  0  0  0  0  0  0  0  0  0  0  0
    1.4237    2.7964   -1.3867 C   0  0  0  0  0  0  0  0  0  0  0  0
    0.9024    2.2269   -0.6293 H   0  0  0  0  0  0  0  0  0  0  0  0
    1.2483    0.4136    4.1119 C   0  0  0  0  0  0  0  0  0  0  0  0
    0.0362   -0.2096    3.8211 C   0  0  0  0  0  0  0  0  0  0  0  0
    0.0288   -1.1026    3.2101 H   0  0  0  0  0  0  0  0  0  0  0  0
   -1.1442    0.3212    4.3049 C   0  0  0  0  0  0  0  0  0  0  0  0
   -2.0822   -0.1652    4.0819 H   0  0  0  0  0  0  0  0  0  0  0  0
   -1.1246    1.4793    5.0666 C   0  0  0  0  0  0  0  0  0  0  0  0
   -2.0482    1.8933    5.4436 H   0  0  0  0  0  0  0  0  0  0  0  0
    0.0770    2.1150    5.3333 C   0  0  0  0  0  0  0  0  0  0  0  0
    0.0906    3.0260    5.9139 H   0  0  0  0  0  0  0  0  0  0  0  0
    1.2636    1.5916    4.8518 C   0  0  0  0  0  0  0  0  0  0  0  0
    2.1972    2.1022    5.0439 H   0  0  0  0  0  0  0  0  0  0  0  0
    2.6004   -2.0520    3.6991 C   0  0  0  0  0  0  0  0  0  0  0  0
    2.1769   -2.4881    4.9513 C   0  0  0  0  0  0  0  0  0  0  0  0
    1.8990   -1.7656    5.7070 H   0  0  0  0  0  0  0  0  0  0  0  0
    2.1040   -3.8416    5.2175 C   0  0  0  0  0  0  0  0  0  0  0  0
    1.7734   -4.1815    6.1881 H   0  0  0  0  0  0  0  0  0  0  0  0
    2.4513   -4.7620    4.2399 C   0  0  0  0  0  0  0  0  0  0  0  0
    2.3882   -5.8191    4.4518 H   0  0  0  0  0  0  0  0  0  0  0  0
    2.8743   -4.3290    2.9950 C   0  0  0  0  0  0  0  0  0  0  0  0
    3.1404   -5.0453    2.2325 H   0  0  0  0  0  0  0  0  0  0  0  0
    2.9531   -2.9741    2.7227 C   0  0  0  0  0  0  0  0  0  0  0  0
    3.2715   -2.6305    1.7481 H   0  0  0  0  0  0  0  0  0  0  0  0
    3.7325    2.1934    0.0540 P   0  0  0  0  0  4  0  0  0  0  0  0
    2.7639   -0.2701    3.3853 P   0  0  0  0  0  4  0  0  0  0  0  0
    3.1058    0.8066    1.5634 Ni  0  0  0  0  0  0  0  0  0  0  0  0
    1.8666   -0.4625    0.2587 Br  0  0  0  0  0  0  0  0  0  0  0  0
    4.1609    1.8849    2.6695 N   0  0  0  0  0  0  0  0  0  0  0  0
  1  2  1  0  0  0  0
  3  1  1  0  0  0  0
  4  5  2  0  0  0  0
  4  1  1  0  0  0  0
  5  6  1  0  0  0  0
  7  8  1  0  0  0  0
  7  5  1  0  0  0  0
  9 61  1  0  0  0  0
  9  7  2  0  0  0  0
 10 12  1  0  0  0  0
 10  9  1  0  0  0  0
 11 10  1  0  0  0  0
 13 14  1  0  0  0  0
 13 57  1  0  0  0  0
 14 15  1  0  0  0  0
 16 17  1  0  0  0  0
 16 14  2  0  0  0  0
 18 16  1  0  0  0  0
 19 18  1  0  0  0  0
 20 18  2  0  0  0  0
 20 22  1  0  0  0  0
 21 20  1  0  0  0  0
 22 13  2  0  0  0  0
 23 22  1  0  0  0  0
 24 57  1  0  0  0  0
 25 26  1  0  0  0  0
 25 24  2  0  0  0  0
 27 25  1  0  0  0  0
 28 27  1  0  0  0  0
 29 27  2  0  0  0  0
 29 31  1  0  0  0  0
 30 29  1  0  0  0  0
 31 33  2  0  0  0  0
 32 31  1  0  0  0  0
 33 24  1  0  0  0  0
 33 34  1  0  0  0  0
 35 44  1  0  0  0  0
 36 35  2  0  0  0  0
 36 38  1  0  0  0  0
 37 36  1  0  0  0  0
 38 40  2  0  0  0  0
 39 38  1  0  0  0  0
 40 42  1  0  0  0  0
 40 41  1  0  0  0  0
 42 43  1  0  0  0  0
 44 45  1  0  0  0  0
 44 42  2  0  0  0  0
 46 47  1  0  0  0  0
 47 49  2  0  0  0  0
 47 48  1  0  0  0  0
 49 50  1  0  0  0  0
 51 52  1  0  0  0  0
 51 49  1  0  0  0  0
 53 51  2  0  0  0  0
 54 53  1  0  0  0  0
 55 53  1  0  0  0  0
 55 46  2  0  0  0  0
 56 55  1  0  0  0  0
 57 10  1  0  0  0  0
 57 59  1  0  0  0  0
 58 46  1  0  0  0  0
 58 35  1  0  0  0  0
 58  1  1  0  0  0  0
 59 61  1  0  0  0  0
 59 58  1  0  0  0  0
 60 59  1  0  0  0  0
 61  4  1  0  0  0  0
M  END
$$$$
