CSD_code = GEPGEP | q = 0 | S = 0 | Stoichiometry = C16H20Cl2PdS2 | MND = 4
 OpenBabel04212202043D

 41 42  0  0  0  0  0  0  0  0999 V2000
    3.9178    7.7831    3.2595 Pd  0  0  0  0  0  0  0  0  0  0  0  0
    4.1095    8.3164    5.4794 Cl  0  0  0  0  0  0  0  0  0  0  0  0
    1.8289    6.8186    3.5082 S   0  0  2  0  0  3  0  0  0  0  0  0
    0.1659    6.0783    6.7059 C   0  0  0  0  0  0  0  0  0  0  0  0
    1.0670    6.2999    7.2592 H   0  0  0  0  0  0  0  0  0  0  0  0
   -0.0556    6.6949    5.4804 C   0  0  0  0  0  0  0  0  0  0  0  0
   -1.2177    6.4043    4.7740 C   0  0  0  0  0  0  0  0  0  0  0  0
   -1.3868    6.8734    3.8155 H   0  0  0  0  0  0  0  0  0  0  0  0
   -2.1471    5.5203    5.2899 C   0  0  0  0  0  0  0  0  0  0  0  0
   -3.0478    5.3031    4.7354 H   0  0  0  0  0  0  0  0  0  0  0  0
   -1.9231    4.9141    6.5154 C   0  0  0  0  0  0  0  0  0  0  0  0
   -2.6494    4.2241    6.9181 H   0  0  0  0  0  0  0  0  0  0  0  0
   -0.7662    5.1949    7.2220 C   0  0  0  0  0  0  0  0  0  0  0  0
   -0.5874    4.7240    8.1772 H   0  0  0  0  0  0  0  0  0  0  0  0
    0.9598    7.6276    4.9103 C   0  0  0  0  0  0  0  0  0  0  0  0
    1.7164    7.9245    5.6388 H   0  0  0  0  0  0  0  0  0  0  0  0
    0.4968    8.5116    4.4695 H   0  0  0  0  0  0  0  0  0  0  0  0
    2.5572    5.3920    4.3721 C   0  0  0  0  0  0  0  0  0  0  0  0
    1.7631    4.7056    4.6559 H   0  0  0  0  0  0  0  0  0  0  0  0
    3.1003    5.7468    5.2497 H   0  0  0  0  0  0  0  0  0  0  0  0
    3.2385    4.9089    3.6671 H   0  0  0  0  0  0  0  0  0  0  0  0
    3.7293    7.2501    1.0371 Cl  0  0  0  0  0  0  0  0  0  0  0  0
    6.0057    8.7474    3.0055 S   0  0  1  0  0  3  0  0  0  0  0  0
    7.6695    9.4883   -0.1915 C   0  0  0  0  0  0  0  0  0  0  0  0
    6.7683    9.2665   -0.7445 H   0  0  0  0  0  0  0  0  0  0  0  0
    7.8914    8.8718    1.0339 C   0  0  0  0  0  0  0  0  0  0  0  0
    9.0536    9.1627    1.7401 C   0  0  0  0  0  0  0  0  0  0  0  0
    9.2230    8.6936    2.6986 H   0  0  0  0  0  0  0  0  0  0  0  0
    9.9828   10.0467    1.2239 C   0  0  0  0  0  0  0  0  0  0  0  0
   10.8836   10.2640    1.7782 H   0  0  0  0  0  0  0  0  0  0  0  0
    9.7583   10.6528   -0.0015 C   0  0  0  0  0  0  0  0  0  0  0  0
   10.4845   11.3428   -0.4045 H   0  0  0  0  0  0  0  0  0  0  0  0
    8.6013   10.3717   -0.7079 C   0  0  0  0  0  0  0  0  0  0  0  0
    8.4222   10.8425   -1.6631 H   0  0  0  0  0  0  0  0  0  0  0  0
    6.8762    7.9389    1.6042 C   0  0  0  0  0  0  0  0  0  0  0  0
    6.1195    7.6419    0.8759 H   0  0  0  0  0  0  0  0  0  0  0  0
    7.3391    7.0552    2.0454 H   0  0  0  0  0  0  0  0  0  0  0  0
    5.2781   10.1749    2.1423 C   0  0  0  0  0  0  0  0  0  0  0  0
    6.0726   10.8609    1.8580 H   0  0  0  0  0  0  0  0  0  0  0  0
    4.7344    9.8199    1.2649 H   0  0  0  0  0  0  0  0  0  0  0  0
    4.5974   10.6583    2.8477 H   0  0  0  0  0  0  0  0  0  0  0  0
  1  3  1  0  0  0  0
  1  2  1  0  0  0  0
  3 18  1  1  0  0  0
  3 15  1  0  0  0  0
  4 13  1  0  0  0  0
  4  5  1  0  0  0  0
  6  4  2  0  0  0  0
  7  9  2  0  0  0  0
  7  6  1  0  0  0  0
  8  7  1  0  0  0  0
  9 11  1  0  0  0  0
 10  9  1  0  0  0  0
 11 12  1  0  0  0  0
 11 13  2  0  0  0  0
 13 14  1  0  0  0  0
 15  6  1  0  0  0  0
 15 16  1  0  0  0  0
 17 15  1  0  0  0  0
 18 19  1  0  0  0  0
 18 20  1  0  0  0  0
 21 18  1  0  0  0  0
 22  1  1  0  0  0  0
 23 35  1  6  0  0  0
 23  1  1  0  0  0  0
 24 26  1  0  0  0  0
 25 24  1  0  0  0  0
 26 35  1  0  0  0  0
 26 27  2  0  0  0  0
 27 28  1  0  0  0  0
 29 27  1  0  0  0  0
 29 30  1  0  0  0  0
 31 29  2  0  0  0  0
 32 31  1  0  0  0  0
 33 24  2  0  0  0  0
 33 31  1  0  0  0  0
 34 33  1  0  0  0  0
 35 37  1  0  0  0  0
 36 35  1  0  0  0  0
 38 41  1  0  0  0  0
 38 23  1  0  0  0  0
 39 38  1  0  0  0  0
 40 38  1  0  0  0  0
M  END
$$$$
