CSD_code = GEQCOU | q = -1 | S = 0 | Stoichiometry = C32H16F2N8Re(1-) | MND = 6
 OpenBabel04212202043D

 59 70  0  0  0  0  0  0  0  0999 V2000
   -0.0000   10.9180   10.9180 Re  0  0  0  0  0  0  0  0  0  0  0  0
    1.9538   10.9180   10.9180 F   0  0  0  0  0  0  0  0  0  0  0  0
    0.0005    9.5067    9.5070 N   0  0  0  0  0  4  0  0  0  0  0  0
    0.0000   10.9180    7.5618 N   0  0  0  0  0  0  0  0  0  0  0  0
    0.0000    7.5613   10.9180 N   0  0  0  0  0  0  0  0  0  0  0  0
    0.0021    9.7459    8.1633 C   0  0  0  0  0  0  0  0  0  0  0  0
    0.0060    8.4735    7.4740 C   0  0  0  0  0  0  0  0  0  0  0  0
    0.0099    8.1318    6.1309 C   0  0  0  0  0  0  0  0  0  0  0  0
    0.0097    8.9009    5.3738 H   0  0  0  0  0  0  0  0  0  0  0  0
    0.0144    6.7882    5.8011 C   0  0  0  0  0  0  0  0  0  0  0  0
    0.0180    6.4922    4.7607 H   0  0  0  0  0  0  0  0  0  0  0  0
    0.0149    5.8023    6.7865 C   0  0  0  0  0  0  0  0  0  0  0  0
    0.0186    4.7620    6.4901 H   0  0  0  0  0  0  0  0  0  0  0  0
    0.0106    6.1311    8.1304 C   0  0  0  0  0  0  0  0  0  0  0  0
    0.0113    5.3730    8.8985 H   0  0  0  0  0  0  0  0  0  0  0  0
    0.0061    7.4740    8.4732 C   0  0  0  0  0  0  0  0  0  0  0  0
    0.0022    8.1629    9.7459 C   0  0  0  0  0  0  0  0  0  0  0  0
   -1.9538   10.9180   10.9180 F   0  0  0  0  0  0  0  0  0  0  0  0
   -0.0021   12.0901    8.1633 C   0  0  0  0  0  0  0  0  0  0  0  0
   -0.0005   12.3293    9.5070 N   0  0  0  0  0  0  0  0  0  0  0  0
    0.0005   12.3293   12.3290 N   0  0  0  0  0  4  0  0  0  0  0  0
    0.0021   12.0901   13.6727 C   0  0  0  0  0  0  0  0  0  0  0  0
   -0.0000   10.9180   14.2742 N   0  0  0  0  0  0  0  0  0  0  0  0
   -0.0021    9.7459   13.6727 C   0  0  0  0  0  0  0  0  0  0  0  0
   -0.0005    9.5067   12.3290 N   0  0  0  0  0  0  0  0  0  0  0  0
   -0.0022    8.1629   12.0901 C   0  0  0  0  0  0  0  0  0  0  0  0
   -0.0061    7.4740   13.3628 C   0  0  0  0  0  0  0  0  0  0  0  0
   -0.0060    8.4735   14.3620 C   0  0  0  0  0  0  0  0  0  0  0  0
   -0.0099    8.1318   15.7051 C   0  0  0  0  0  0  0  0  0  0  0  0
   -0.0097    8.9009   16.4622 H   0  0  0  0  0  0  0  0  0  0  0  0
   -0.0144    6.7882   16.0349 C   0  0  0  0  0  0  0  0  0  0  0  0
   -0.0180    6.4922   17.0753 H   0  0  0  0  0  0  0  0  0  0  0  0
   -0.0149    5.8023   15.0495 C   0  0  0  0  0  0  0  0  0  0  0  0
   -0.0186    4.7620   15.3459 H   0  0  0  0  0  0  0  0  0  0  0  0
   -0.0106    6.1311   13.7056 C   0  0  0  0  0  0  0  0  0  0  0  0
   -0.0113    5.3730   12.9375 H   0  0  0  0  0  0  0  0  0  0  0  0
    0.0060   13.3625   14.3620 C   0  0  0  0  0  0  0  0  0  0  0  0
    0.0099   13.7042   15.7051 C   0  0  0  0  0  0  0  0  0  0  0  0
    0.0097   12.9351   16.4622 H   0  0  0  0  0  0  0  0  0  0  0  0
    0.0144   15.0478   16.0349 C   0  0  0  0  0  0  0  0  0  0  0  0
    0.0180   15.3438   17.0753 H   0  0  0  0  0  0  0  0  0  0  0  0
    0.0149   16.0337   15.0495 C   0  0  0  0  0  0  0  0  0  0  0  0
    0.0186   17.0740   15.3459 H   0  0  0  0  0  0  0  0  0  0  0  0
    0.0106   15.7049   13.7056 C   0  0  0  0  0  0  0  0  0  0  0  0
    0.0113   16.4630   12.9375 H   0  0  0  0  0  0  0  0  0  0  0  0
    0.0061   14.3620   13.3628 C   0  0  0  0  0  0  0  0  0  0  0  0
    0.0022   13.6731   12.0901 C   0  0  0  0  0  0  0  0  0  0  0  0
   -0.0000   14.2747   10.9180 N   0  0  0  0  0  0  0  0  0  0  0  0
   -0.0022   13.6731    9.7459 C   0  0  0  0  0  0  0  0  0  0  0  0
   -0.0061   14.3620    8.4732 C   0  0  0  0  0  0  0  0  0  0  0  0
   -0.0060   13.3625    7.4740 C   0  0  0  0  0  0  0  0  0  0  0  0
   -0.0099   13.7042    6.1309 C   0  0  0  0  0  0  0  0  0  0  0  0
   -0.0097   12.9351    5.3738 H   0  0  0  0  0  0  0  0  0  0  0  0
   -0.0144   15.0478    5.8011 C   0  0  0  0  0  0  0  0  0  0  0  0
   -0.0180   15.3438    4.7607 H   0  0  0  0  0  0  0  0  0  0  0  0
   -0.0149   16.0337    6.7865 C   0  0  0  0  0  0  0  0  0  0  0  0
   -0.0186   17.0740    6.4901 H   0  0  0  0  0  0  0  0  0  0  0  0
   -0.0106   15.7049    8.1304 C   0  0  0  0  0  0  0  0  0  0  0  0
   -0.0113   16.4630    8.8985 H   0  0  0  0  0  0  0  0  0  0  0  0
  1  2  1  0  0  0  0
  1 21  1  0  0  0  0
  1 25  1  0  0  0  0
  3 17  1  0  0  0  0
  3  1  1  0  0  0  0
  4 19  2  0  0  0  0
  4  6  1  0  0  0  0
  5 26  1  0  0  0  0
  6  3  2  0  0  0  0
  7  6  1  0  0  0  0
  7 16  2  0  0  0  0
  8  7  1  0  0  0  0
  9  8  1  0  0  0  0
 10  8  2  0  0  0  0
 10 12  1  0  0  0  0
 11 10  1  0  0  0  0
 12 14  2  0  0  0  0
 13 12  1  0  0  0  0
 14 16  1  0  0  0  0
 14 15  1  0  0  0  0
 16 17  1  0  0  0  0
 17  5  2  0  0  0  0
 18  1  1  0  0  0  0
 19 20  1  0  0  0  0
 20 49  1  0  0  0  0
 20  1  1  0  0  0  0
 21 22  1  0  0  0  0
 22 23  2  0  0  0  0
 22 37  1  0  0  0  0
 24 23  1  0  0  0  0
 24 28  2  0  0  0  0
 25 24  1  0  0  0  0
 26 25  1  0  0  0  0
 26 27  2  0  0  0  0
 27 35  1  0  0  0  0
 27 28  1  0  0  0  0
 28 29  1  0  0  0  0
 29 31  2  0  0  0  0
 29 30  1  0  0  0  0
 31 32  1  0  0  0  0
 33 34  1  0  0  0  0
 33 31  1  0  0  0  0
 35 33  2  0  0  0  0
 36 35  1  0  0  0  0
 37 38  1  0  0  0  0
 38 40  2  0  0  0  0
 38 39  1  0  0  0  0
 40 41  1  0  0  0  0
 42 43  1  0  0  0  0
 42 40  1  0  0  0  0
 44 42  2  0  0  0  0
 45 44  1  0  0  0  0
 46 44  1  0  0  0  0
 46 37  2  0  0  0  0
 47 21  2  0  0  0  0
 47 46  1  0  0  0  0
 48 47  1  0  0  0  0
 49 48  2  0  0  0  0
 50 49  1  0  0  0  0
 51 19  1  0  0  0  0
 51 50  2  0  0  0  0
 52 51  1  0  0  0  0
 53 52  1  0  0  0  0
 54 52  2  0  0  0  0
 54 56  1  0  0  0  0
 55 54  1  0  0  0  0
 56 58  2  0  0  0  0
 57 56  1  0  0  0  0
 58 50  1  0  0  0  0
 58 59  1  0  0  0  0
M  END
$$$$
