CSD_code = GEQNAR | q = 0 | S = 0 | Stoichiometry = C21H36BClN4O2Zn | MND = 4
 OpenBabel04212202043D

 66 69  0  0  1  0  0  0  0  0999 V2000
    0.1792    2.5734   -3.2354 Zn  0  0  2  0  0  0  0  0  0  0  0  0
    0.2819    0.4745   -2.8288 Cl  0  0  0  0  0  0  0  0  0  0  0  0
    1.1654    4.9388   -4.3563 N   0  0  1  0  0  0  0  0  0  0  0  0
    1.6217    3.7406   -3.9258 N   0  0  0  0  0  0  0  0  0  0  0  0
   -0.9232    5.1138   -2.8606 N   0  0  1  0  0  0  0  0  0  0  0  0
   -0.7651    3.9564   -2.1790 N   0  0  0  0  0  0  0  0  0  0  0  0
   -1.0216    2.6344   -4.8867 O   0  0  0  0  0  0  0  0  0  0  0  0
   -1.1451    4.8266   -5.3582 O   0  0  0  0  0  0  0  0  0  0  0  0
   -1.3911    3.5957   -5.5389 C   0  0  0  0  0  3  0  0  0  0  0  0
    2.1765    5.6188   -4.9375 C   0  0  1  0  0  3  0  0  0  0  0  0
    3.3097    4.8309   -4.8579 C   0  0  0  0  0  0  0  0  0  0  0  0
    2.9216    3.6584   -4.2110 C   0  0  0  0  0  0  0  0  0  0  0  0
   -1.7248    5.9409   -2.1564 C   0  0  2  0  0  3  0  0  0  0  0  0
   -2.0700    5.2910   -0.9861 C   0  0  0  0  0  0  0  0  0  0  0  0
   -1.4430    4.0466   -1.0344 C   0  0  0  0  0  0  0  0  0  0  0  0
    2.0431    6.9564   -5.5946 C   0  0  0  0  0  0  0  0  0  0  0  0
    3.4027    7.6332   -5.7626 C   0  0  0  0  0  0  0  0  0  0  0  0
    1.3581    6.7878   -6.9556 C   0  0  0  0  0  0  0  0  0  0  0  0
   -2.1845    7.2870   -2.6204 C   0  0  0  0  0  0  0  0  0  0  0  0
   -3.2585    7.1147   -3.7005 C   0  0  0  0  0  0  0  0  0  0  0  0
   -2.7254    8.1220   -1.4606 C   0  0  0  0  0  0  0  0  0  0  0  0
    3.7741    2.4666   -3.8731 C   0  0  0  0  0  0  0  0  0  0  0  0
    3.6186    2.1212   -2.3883 C   0  0  0  0  0  0  0  0  0  0  0  0
    5.2477    2.7786   -4.1564 C   0  0  0  0  0  0  0  0  0  0  0  0
    3.3394    1.2801   -4.7419 C   0  0  0  0  0  0  0  0  0  0  0  0
   -1.4907    2.9505   -0.0059 C   0  0  0  0  0  0  0  0  0  0  0  0
   -2.3170    1.7832   -0.5595 C   0  0  0  0  0  0  0  0  0  0  0  0
   -0.0689    2.4837    0.3230 C   0  0  0  0  0  0  0  0  0  0  0  0
   -2.1517    3.4650    1.2777 C   0  0  0  0  0  0  0  0  0  0  0  0
   -0.2827    5.4179   -4.2183 B   0  0  2  0  0  0  0  0  0  0  0  0
   -2.0362    3.4220   -6.4240 H   0  0  0  0  0  0  0  0  0  0  0  0
    4.2848    5.0762   -5.2191 H   0  0  0  0  0  0  0  0  0  0  0  0
   -2.6910    5.6707   -0.2039 H   0  0  0  0  0  0  0  0  0  0  0  0
    1.4171    7.5959   -4.9660 H   0  0  0  0  0  0  0  0  0  0  0  0
    3.2655    8.6401   -6.1496 H   0  0  0  0  0  0  0  0  0  0  0  0
    4.0243    7.0828   -6.4639 H   0  0  0  0  0  0  0  0  0  0  0  0
    3.9214    7.6979   -4.8093 H   0  0  0  0  0  0  0  0  0  0  0  0
    1.2494    7.7544   -7.4416 H   0  0  0  0  0  0  0  0  0  0  0  0
    0.3739    6.3441   -6.8331 H   0  0  0  0  0  0  0  0  0  0  0  0
    1.9550    6.1425   -7.5968 H   0  0  0  0  0  0  0  0  0  0  0  0
   -1.3336    7.8174   -3.0572 H   0  0  0  0  0  0  0  0  0  0  0  0
   -3.5959    8.0873   -4.0504 H   0  0  0  0  0  0  0  0  0  0  0  0
   -4.1129    6.5765   -3.2954 H   0  0  0  0  0  0  0  0  0  0  0  0
   -2.8627    6.5567   -4.5445 H   0  0  0  0  0  0  0  0  0  0  0  0
   -2.9622    9.1242   -1.8097 H   0  0  0  0  0  0  0  0  0  0  0  0
   -1.9890    8.1992   -0.6646 H   0  0  0  0  0  0  0  0  0  0  0  0
   -3.6333    7.6806   -1.0576 H   0  0  0  0  0  0  0  0  0  0  0  0
    3.8738    2.9789   -1.7690 H   0  0  0  0  0  0  0  0  0  0  0  0
    4.2781    1.2965   -2.1297 H   0  0  0  0  0  0  0  0  0  0  0  0
    2.5985    1.8190   -2.1653 H   0  0  0  0  0  0  0  0  0  0  0  0
    5.5792    3.6392   -3.5799 H   0  0  0  0  0  0  0  0  0  0  0  0
    5.4080    2.9786   -5.2130 H   0  0  0  0  0  0  0  0  0  0  0  0
    5.8598    1.9241   -3.8779 H   0  0  0  0  0  0  0  0  0  0  0  0
    3.9574    0.4131   -4.5219 H   0  0  0  0  0  0  0  0  0  0  0  0
    3.4439    1.5236   -5.7976 H   0  0  0  0  0  0  0  0  0  0  0  0
    2.3029    1.0181   -4.5462 H   0  0  0  0  0  0  0  0  0  0  0  0
   -3.3263    2.1122   -0.7997 H   0  0  0  0  0  0  0  0  0  0  0  0
   -2.3767    0.9879    0.1793 H   0  0  0  0  0  0  0  0  0  0  0  0
   -1.8593    1.3794   -1.4587 H   0  0  0  0  0  0  0  0  0  0  0  0
    0.5370    3.3204    0.6654 H   0  0  0  0  0  0  0  0  0  0  0  0
    0.4056    2.0411   -0.5492 H   0  0  0  0  0  0  0  0  0  0  0  0
   -0.0991    1.7317    1.1075 H   0  0  0  0  0  0  0  0  0  0  0  0
   -3.1848    3.7512    1.0971 H   0  0  0  0  0  0  0  0  0  0  0  0
   -1.6123    4.3221    1.6744 H   0  0  0  0  0  0  0  0  0  0  0  0
   -2.1457    2.6792    2.0293 H   0  0  0  0  0  0  0  0  0  0  0  0
   -0.3251    6.5788   -4.4120 H   0  0  0  0  0  0  0  0  0  0  0  0
  1  2  1  1  0  0  0
  1  6  1  0  0  0  0
  3 30  1  0  0  0  0
  3  4  1  6  0  0  0
  4  1  1  0  0  0  0
  5  6  1  1  0  0  0
  5 13  1  0  0  0  0
  6 15  1  0  0  0  0
  7  1  1  0  0  0  0
  8 30  1  0  0  0  0
  9  8  1  0  0  0  0
  9  7  1  0  0  0  0
 10 16  1  6  0  0  0
 10 11  1  0  0  0  0
 10  3  1  0  0  0  0
 11 12  2  0  0  0  0
 12  4  1  0  0  0  0
 12 22  1  0  0  0  0
 13 19  1  6  0  0  0
 13 14  1  0  0  0  0
 14 33  1  0  0  0  0
 15 14  2  0  0  0  0
 15 26  1  0  0  0  0
 16 34  1  0  0  0  0
 17 16  1  0  0  0  0
 17 37  1  0  0  0  0
 18 39  1  0  0  0  0
 18 16  1  0  0  0  0
 19 21  1  0  0  0  0
 20 43  1  0  0  0  0
 20 19  1  0  0  0  0
 21 47  1  0  0  0  0
 21 46  1  0  0  0  0
 22 23  1  0  0  0  0
 23 50  1  0  0  0  0
 23 49  1  0  0  0  0
 23 48  1  0  0  0  0
 24 53  1  0  0  0  0
 24 22  1  0  0  0  0
 24 51  1  0  0  0  0
 25 56  1  0  0  0  0
 25 54  1  0  0  0  0
 25 22  1  0  0  0  0
 26 28  1  0  0  0  0
 26 29  1  0  0  0  0
 27 26  1  0  0  0  0
 27 58  1  0  0  0  0
 28 60  1  0  0  0  0
 28 62  1  0  0  0  0
 29 64  1  0  0  0  0
 29 65  1  0  0  0  0
 30 66  1  6  0  0  0
 30  5  1  0  0  0  0
 31  9  1  0  0  0  0
 32 11  1  0  0  0  0
 35 17  1  0  0  0  0
 36 17  1  0  0  0  0
 38 18  1  0  0  0  0
 40 18  1  0  0  0  0
 41 19  1  0  0  0  0
 42 20  1  0  0  0  0
 44 20  1  0  0  0  0
 45 21  1  0  0  0  0
 52 24  1  0  0  0  0
 55 25  1  0  0  0  0
 57 27  1  0  0  0  0
 59 27  1  0  0  0  0
 61 28  1  0  0  0  0
 63 29  1  0  0  0  0
M  END
$$$$
