CSD_code = GEQTAX | q = 0 | S = 0 | Stoichiometry = C8H7Br2O2Re | MND = 9
 OpenBabel04212202043D

 20 20  0  0  1  0  0  0  0  0999 V2000
    2.6792    2.3096    1.6720 Re  0  0  0  0  0  0  0  0  0  0  0  0
    4.4307    4.0179    1.5338 Br  0  0  0  0  0  0  0  0  0  0  0  0
    2.7308    1.7063   -0.6136 Br  0  0  0  0  0  0  0  0  0  0  0  0
    2.8450    2.8568    4.7116 O   0  0  0  0  0  1  0  0  0  0  0  0
   -0.2266    3.2890    1.9581 O   0  0  0  0  0  1  0  0  0  0  0  0
    2.7789    2.6447    3.5925 C   0  0  0  0  0  2  0  0  0  0  0  0
    0.8445    2.9021    1.8804 C   0  0  0  0  0  2  0  0  0  0  0  0
    2.7414   -1.4127    1.1674 C   0  0  0  0  0  0  0  0  0  0  0  0
    1.9654   -0.6110    1.9513 C   0  0  0  0  0  0  0  0  0  0  0  0
    0.8931   -0.6301    2.0332 H   0  0  0  0  0  0  0  0  0  0  0  0
    2.8295    0.2541    2.7541 C   0  0  1  0  0  0  0  0  0  0  0  0
    2.6165    0.2817    3.8214 H   0  0  0  0  0  0  0  0  0  0  0  0
    4.2056   -0.1194    2.3590 C   0  0  0  0  0  0  0  0  0  0  0  0
    5.0930    0.3051    2.7982 H   0  0  0  0  0  0  0  0  0  0  0  0
    4.1365   -1.0942    1.4276 C   0  0  0  0  0  0  0  0  0  0  0  0
    4.9614   -1.5722    0.9308 H   0  0  0  0  0  0  0  0  0  0  0  0
    2.2987   -2.4259    0.1830 C   0  0  0  0  0  0  0  0  0  0  0  0
    1.2329   -2.6194    0.2730 H   0  0  0  0  0  0  0  0  0  0  0  0
    2.8509   -3.3558    0.3102 H   0  0  0  0  0  0  0  0  0  0  0  0
    2.5000   -2.0584   -0.8257 H   0  0  0  0  0  0  0  0  0  0  0  0
  1  7  1  0  0  0  0
  1 11  1  0  0  0  0
  1  6  1  0  0  0  0
  2  1  1  0  0  0  0
  3  1  1  0  0  0  0
  6  4  1  0  0  0  0
  7  5  1  0  0  0  0
  8 15  1  0  0  0  0
  8  9  2  0  0  0  0
  9 10  1  0  0  0  0
  9 11  1  0  0  0  0
 11 12  1  1  0  0  0
 13 11  1  0  0  0  0
 13 14  1  0  0  0  0
 15 13  2  0  0  0  0
 16 15  1  0  0  0  0
 17 18  1  0  0  0  0
 17 19  1  0  0  0  0
 17  8  1  0  0  0  0
 20 17  1  0  0  0  0
M  END
$$$$
