CSD_code = GEQXAC | q = 0 | S = 0 | Stoichiometry = C29H22ClN3O5P2Pd | MND = 4
 OpenBabel04212202043D

 63 70  0  0  1  0  0  0  0  0999 V2000
    0.6374    3.0223    4.0367 Pd  0  0  1  0  0  0  0  0  0  0  0  0
   -0.3095    4.0329    5.8115 Cl  0  0  0  0  0  0  0  0  0  0  0  0
    1.2110    2.5925    1.9258 P   0  0  0  0  0  4  0  0  0  0  0  0
    1.9209    4.8338    4.1854 P   0  0  0  0  0  0  0  0  0  0  0  0
    0.6031    3.9396    1.2923 O   0  0  0  0  0  0  0  0  0  0  0  0
    2.2533    2.0914    0.7977 O   0  0  0  0  0  0  0  0  0  0  0  0
    2.8738    4.4873    2.8110 O   0  0  0  0  0  0  0  0  0  0  0  0
    2.9870    4.3086    5.3253 O   0  0  0  0  0  0  0  0  0  0  0  0
    1.7027    6.2632    4.3361 O   0  0  0  0  0  0  0  0  0  0  0  0
   -0.5425    1.1904    3.7940 N   0  0  0  0  0  0  0  0  0  0  0  0
    0.0616    1.3992    1.5585 N   0  0  0  0  0  0  0  0  0  0  0  0
    0.0532    0.9764    0.6391 H   0  0  0  0  0  0  0  0  0  0  0  0
   -0.9838    1.0092    6.0431 N   0  0  0  0  0  0  0  0  0  0  0  0
   -0.6799    1.9888    6.1358 H   0  0  0  0  0  0  0  0  0  0  0  0
   -1.5803    0.6511    6.7699 H   0  0  0  0  0  0  0  0  0  0  0  0
   -0.6183    0.7165    2.5436 C   0  0  2  0  0  3  0  0  0  0  0  0
   -1.3571   -0.4195    2.2284 C   0  0  0  0  0  0  0  0  0  0  0  0
   -1.4067   -0.7666    1.2094 H   0  0  0  0  0  0  0  0  0  0  0  0
   -2.0197   -1.0838    3.2502 C   0  0  0  0  0  0  0  0  0  0  0  0
   -2.6040   -1.9640    3.0293 H   0  0  0  0  0  0  0  0  0  0  0  0
   -1.9259   -0.6160    4.5396 C   0  0  0  0  0  0  0  0  0  0  0  0
   -2.4219   -1.1129    5.3571 H   0  0  0  0  0  0  0  0  0  0  0  0
   -1.1686    0.5412    4.7940 C   0  0  0  0  0  0  0  0  0  0  0  0
    0.5136    4.2460   -0.0538 C   0  0  0  0  0  0  0  0  0  0  0  0
   -0.7524    4.5488   -0.5372 C   0  0  0  0  0  0  0  0  0  0  0  0
   -1.5868    4.4822    0.1441 H   0  0  0  0  0  0  0  0  0  0  0  0
   -0.9269    4.9370   -1.8515 C   0  0  0  0  0  0  0  0  0  0  0  0
   -1.9147    5.1710   -2.2168 H   0  0  0  0  0  0  0  0  0  0  0  0
    0.1711    5.0180   -2.6924 C   0  0  0  0  0  0  0  0  0  0  0  0
    0.0458    5.3123   -3.7232 H   0  0  0  0  0  0  0  0  0  0  0  0
    1.4301    4.7210   -2.2103 C   0  0  0  0  0  0  0  0  0  0  0  0
    2.2822    4.7702   -2.8714 H   0  0  0  0  0  0  0  0  0  0  0  0
    1.6335    4.3324   -0.8844 C   0  0  0  0  0  0  0  0  0  0  0  0
    3.0022    4.0213   -0.4373 C   0  0  0  0  0  0  0  0  0  0  0  0
    4.0803    4.7902   -0.8744 C   0  0  0  0  0  0  0  0  0  0  0  0
    3.8866    5.6716   -1.4666 H   0  0  0  0  0  0  0  0  0  0  0  0
    5.3795    4.4544   -0.5464 C   0  0  0  0  0  0  0  0  0  0  0  0
    6.1960    5.0693   -0.8920 H   0  0  0  0  0  0  0  0  0  0  0  0
    5.6355    3.3307    0.2209 C   0  0  0  0  0  0  0  0  0  0  0  0
    6.6490    3.0589    0.4703 H   0  0  0  0  0  0  0  0  0  0  0  0
    4.5815    2.5675    0.6866 C   0  0  0  0  0  0  0  0  0  0  0  0
    4.7418    1.6945    1.2993 H   0  0  0  0  0  0  0  0  0  0  0  0
    3.2804    2.9160    0.3664 C   0  0  0  0  0  0  0  0  0  0  0  0
    4.2035    4.8145    2.8850 C   0  0  0  0  0  0  0  0  0  0  0  0
    4.6880    5.9446    2.2466 C   0  0  0  0  0  0  0  0  0  0  0  0
    3.9864    6.6030    1.7592 H   0  0  0  0  0  0  0  0  0  0  0  0
    6.0465    6.2075    2.2510 C   0  0  0  0  0  0  0  0  0  0  0  0
    6.4202    7.0937    1.7606 H   0  0  0  0  0  0  0  0  0  0  0  0
    6.9228    5.3423    2.8843 C   0  0  0  0  0  0  0  0  0  0  0  0
    7.9827    5.5486    2.8824 H   0  0  0  0  0  0  0  0  0  0  0  0
    6.4407    4.2223    3.5379 C   0  0  0  0  0  0  0  0  0  0  0  0
    7.1166    3.5599    4.0588 H   0  0  0  0  0  0  0  0  0  0  0  0
    5.0790    3.9534    3.5628 C   0  0  0  0  0  0  0  0  0  0  0  0
    4.5021    2.7981    4.2697 C   0  0  0  0  0  0  0  0  0  0  0  0
    4.9556    1.4947    4.0960 C   0  0  0  0  0  0  0  0  0  0  0  0
    5.8283    1.3196    3.4836 H   0  0  0  0  0  0  0  0  0  0  0  0
    4.2793    0.4324    4.6699 C   0  0  0  0  0  0  0  0  0  0  0  0
    4.6317   -0.5758    4.5099 H   0  0  0  0  0  0  0  0  0  0  0  0
    3.1481    0.6549    5.4403 C   0  0  0  0  0  0  0  0  0  0  0  0
    2.6175   -0.1765    5.8802 H   0  0  0  0  0  0  0  0  0  0  0  0
    2.7033    1.9511    5.6712 C   0  0  0  0  0  0  0  0  0  0  0  0
    1.8883    2.1548    6.3662 H   0  0  0  0  0  0  0  0  0  0  0  0
    3.4023    3.0185    5.1063 C   0  0  0  0  0  0  0  0  0  0  0  0
  1  4  1  0  0  0  0
  1  2  1  6  0  0  0
  3  1  1  0  0  0  0
  4  9  2  0  0  0  0
  4  8  1  0  0  0  0
  5  3  1  0  0  0  0
  6  3  1  0  0  0  0
  7 44  1  0  0  0  0
  7  4  1  0  0  0  0
 10  1  1  0  0  0  0
 10 23  1  0  0  0  0
 11  3  1  0  0  0  0
 11 16  1  0  0  0  0
 12 11  1  0  0  0  0
 13 14  1  0  0  0  0
 13 15  1  0  0  0  0
 16 17  1  6  0  0  0
 16 10  1  0  0  0  0
 17 19  2  0  0  0  0
 18 17  1  0  0  0  0
 19 21  1  0  0  0  0
 20 19  1  0  0  0  0
 21 23  2  0  0  0  0
 21 22  1  0  0  0  0
 23 13  1  0  0  0  0
 24  5  1  0  0  0  0
 25 24  1  0  0  0  0
 25 26  1  0  0  0  0
 27 25  2  0  0  0  0
 28 27  1  0  0  0  0
 29 31  2  0  0  0  0
 29 27  1  0  0  0  0
 30 29  1  0  0  0  0
 31 33  1  0  0  0  0
 32 31  1  0  0  0  0
 33 34  1  0  0  0  0
 33 24  2  0  0  0  0
 34 43  1  0  0  0  0
 35 37  1  0  0  0  0
 35 34  2  0  0  0  0
 36 35  1  0  0  0  0
 37 39  2  0  0  0  0
 38 37  1  0  0  0  0
 39 40  1  0  0  0  0
 39 41  1  0  0  0  0
 41 42  1  0  0  0  0
 43 41  2  0  0  0  0
 43  6  1  0  0  0  0
 44 53  1  0  0  0  0
 45 47  1  0  0  0  0
 45 44  2  0  0  0  0
 46 45  1  0  0  0  0
 47 49  2  0  0  0  0
 48 47  1  0  0  0  0
 49 51  1  0  0  0  0
 50 49  1  0  0  0  0
 51 53  2  0  0  0  0
 51 52  1  0  0  0  0
 53 54  1  0  0  0  0
 54 63  1  0  0  0  0
 55 54  2  0  0  0  0
 55 57  1  0  0  0  0
 56 55  1  0  0  0  0
 57 59  2  0  0  0  0
 58 57  1  0  0  0  0
 59 61  1  0  0  0  0
 59 60  1  0  0  0  0
 61 62  1  0  0  0  0
 63  8  1  0  0  0  0
 63 61  2  0  0  0  0
M  END
$$$$
