CSD_code = GEQXUW | q = 0 | S = 0 | Stoichiometry = C18H17Cl2HgN3 | MND = 5
 OpenBabel04212202043D

 41 43  0  0  1  0  0  0  0  0999 V2000
    9.5013    8.9288    6.6734 C   0  0  0  0  0  0  0  0  0  0  0  0
    9.1532    9.9198    6.4072 H   0  0  0  0  0  0  0  0  0  0  0  0
    9.6409    8.5509    7.9996 C   0  0  0  0  0  0  0  0  0  0  0  0
    9.3952    9.2394    8.7921 H   0  0  0  0  0  0  0  0  0  0  0  0
   10.0754    7.2646    8.2731 C   0  0  0  0  0  0  0  0  0  0  0  0
   10.1634    6.9170    9.2913 H   0  0  0  0  0  0  0  0  0  0  0  0
   10.3940    6.4272    7.2178 C   0  0  0  0  0  0  0  0  0  0  0  0
   10.7151    5.4149    7.4033 H   0  0  0  0  0  0  0  0  0  0  0  0
   10.2463    6.8959    5.9147 C   0  0  0  0  0  0  0  0  0  0  0  0
   10.6014    6.0695    4.7435 C   0  0  2  0  0  3  0  0  0  0  0  0
   11.5937    5.0966    4.8281 C   0  0  0  0  0  0  0  0  0  0  0  0
   12.1184    4.9255    5.7538 H   0  0  0  0  0  0  0  0  0  0  0  0
   11.9163    4.3703    3.6930 C   0  0  0  0  0  0  0  0  0  0  0  0
   12.6764    3.6041    3.7326 H   0  0  0  0  0  0  0  0  0  0  0  0
   11.2608    4.6507    2.5116 C   0  0  0  0  0  0  0  0  0  0  0  0
   11.4833    4.1061    1.6072 H   0  0  0  0  0  0  0  0  0  0  0  0
   10.2814    5.6510    2.4930 C   0  0  0  0  0  0  0  0  0  0  0  0
    9.6607    6.0345    1.2108 C   0  0  0  0  0  0  0  0  0  0  0  0
   10.5451    6.3047    0.1687 C   0  0  0  0  0  0  0  0  0  0  0  0
   11.6057    6.1967    0.3456 H   0  0  0  0  0  0  0  0  0  0  0  0
   10.0990    6.7549   -1.0578 C   0  0  0  0  0  0  0  0  0  0  0  0
   10.8031    6.9746   -1.8451 H   0  0  0  0  0  0  0  0  0  0  0  0
    8.7415    6.9335   -1.2527 C   0  0  0  0  0  0  0  0  0  0  0  0
    8.3719    7.2917   -2.2018 H   0  0  0  0  0  0  0  0  0  0  0  0
    7.8463    6.6476   -0.2399 C   0  0  0  0  0  0  0  0  0  0  0  0
    6.7967    6.7910   -0.4326 H   0  0  0  0  0  0  0  0  0  0  0  0
    8.2748    6.1925    1.0083 C   0  0  0  0  0  0  0  0  0  0  0  0
    7.4224    4.5503    2.5799 C   0  0  0  0  0  0  0  0  0  0  0  0
    6.8647    3.8620    1.9303 H   0  0  0  0  0  0  0  0  0  0  0  0
    6.9775    4.5371    3.5749 H   0  0  0  0  0  0  0  0  0  0  0  0
    8.4480    4.1987    2.6543 H   0  0  0  0  0  0  0  0  0  0  0  0
    5.9755    6.2818    1.8251 C   0  0  0  0  0  0  0  0  0  0  0  0
    5.4974    5.6504    1.0642 H   0  0  0  0  0  0  0  0  0  0  0  0
    5.9099    7.3289    1.5296 H   0  0  0  0  0  0  0  0  0  0  0  0
    5.4370    6.1539    2.7647 H   0  0  0  0  0  0  0  0  0  0  0  0
    6.8132    6.8354    5.3724 Cl  0  0  0  0  0  0  0  0  0  0  0  0
    7.9860    9.5490    2.2719 Cl  0  0  0  0  0  0  0  0  0  0  0  0
    8.1460    7.8881    3.8082 Hg  0  0  0  0  0  0  0  0  0  0  0  0
    9.7835    8.1242    5.6595 N   0  0  0  0  0  0  0  0  0  0  0  0
    9.9663    6.3268    3.5970 N   0  0  0  0  0  0  0  0  0  0  0  0
    7.3675    5.9106    2.0535 N   0  0  0  0  0  0  0  0  0  0  0  0
  1  3  1  0  0  0  0
  2  1  1  0  0  0  0
  3  5  2  0  0  0  0
  3  4  1  0  0  0  0
  5  6  1  0  0  0  0
  7  8  1  0  0  0  0
  7  5  1  0  0  0  0
  9  7  2  0  0  0  0
 10 11  1  0  0  0  0
 10  9  1  6  0  0  0
 11 12  1  0  0  0  0
 13 14  1  0  0  0  0
 13 11  2  0  0  0  0
 15 13  1  0  0  0  0
 16 15  1  0  0  0  0
 17 15  2  0  0  0  0
 17 40  1  0  0  0  0
 18 17  1  0  0  0  0
 19 20  1  0  0  0  0
 19 18  2  0  0  0  0
 21 19  1  0  0  0  0
 22 21  1  0  0  0  0
 23 21  2  0  0  0  0
 23 25  1  0  0  0  0
 24 23  1  0  0  0  0
 25 27  2  0  0  0  0
 26 25  1  0  0  0  0
 27 18  1  0  0  0  0
 27 41  1  0  0  0  0
 28 31  1  0  0  0  0
 28 30  1  0  0  0  0
 29 28  1  0  0  0  0
 32 41  1  0  0  0  0
 32 35  1  0  0  0  0
 33 32  1  0  0  0  0
 34 32  1  0  0  0  0
 37 38  1  0  0  0  0
 38 36  1  0  0  0  0
 39  9  1  0  0  0  0
 39  1  2  0  0  0  0
 40 38  1  0  0  0  0
 40 10  1  0  0  0  0
 41 28  1  0  0  0  0
M  END
$$$$
