CSD_code = GEQXEG | q = 0 | S = 0 | Stoichiometry = C17H14Cl2N2OZn | MND = 4
 OpenBabel04212202043D

 37 40  0  0  1  0  0  0  0  0999 V2000
   -0.0693   -1.2519    3.8472 C   0  0  0  0  0  3  0  0  0  0  0  0
   -0.6079   -2.5187    4.0096 C   0  0  0  0  0  0  0  0  0  0  0  0
   -1.5353   -2.7158    5.0207 C   0  0  0  0  0  0  0  0  0  0  0  0
   -1.8984   -1.6425    5.8164 C   0  0  0  0  0  0  0  0  0  0  0  0
   -1.3182   -0.3988    5.5767 C   0  0  0  0  0  0  0  0  0  0  0  0
   -1.6474    0.7993    6.3667 C   0  0  2  0  0  3  0  0  0  0  0  0
   -2.8580    0.9622    7.0305 C   0  0  0  0  0  0  0  0  0  0  0  0
   -3.0924    2.1571    7.6975 C   0  0  0  0  0  0  0  0  0  0  0  0
   -2.1279    3.1449    7.6834 C   0  0  0  0  0  0  0  0  0  0  0  0
   -0.9337    2.9094    6.9982 C   0  0  0  0  0  0  0  0  0  0  0  0
    0.1402    3.8980    6.8805 C   0  0  0  0  0  0  0  0  0  0  0  0
    1.4608    3.5153    7.1044 C   0  0  0  0  0  0  0  0  0  0  0  0
    2.4989    4.4021    6.8868 C   0  0  0  0  0  0  0  0  0  0  0  0
    2.2187    5.6718    6.4132 C   0  0  0  0  0  0  0  0  0  0  0  0
    0.9135    6.0685    6.1822 C   0  0  0  0  0  0  0  0  0  0  0  0
   -0.1431    5.1968    6.4212 C   0  0  0  0  0  0  0  0  0  0  0  0
   -1.7544    6.6104    5.3980 C   0  0  0  0  0  0  0  0  0  0  0  0
    2.6974    0.7719    5.1816 Cl  0  0  0  0  0  0  0  0  0  0  0  0
    0.0774    3.2686    3.4842 Cl  0  0  0  0  0  0  0  0  0  0  0  0
    0.6696   -1.0464    3.0853 H   0  0  0  0  0  0  0  0  0  0  0  0
   -0.2984   -3.3279    3.3685 H   0  0  0  0  0  0  0  0  0  0  0  0
   -1.9659   -3.6913    5.1922 H   0  0  0  0  0  0  0  0  0  0  0  0
   -2.6010   -1.7725    6.6234 H   0  0  0  0  0  0  0  0  0  0  0  0
   -3.6145    0.1951    6.9991 H   0  0  0  0  0  0  0  0  0  0  0  0
   -4.0280    2.3128    8.2139 H   0  0  0  0  0  0  0  0  0  0  0  0
   -2.2800    4.0885    8.1798 H   0  0  0  0  0  0  0  0  0  0  0  0
    1.6643    2.5264    7.4906 H   0  0  0  0  0  0  0  0  0  0  0  0
    3.5165    4.0940    7.0668 H   0  0  0  0  0  0  0  0  0  0  0  0
    3.0226    6.3646    6.2149 H   0  0  0  0  0  0  0  0  0  0  0  0
    0.7242    7.0599    5.8028 H   0  0  0  0  0  0  0  0  0  0  0  0
   -1.5136    7.5578    5.8914 H   0  0  0  0  0  0  0  0  0  0  0  0
   -2.8283    6.5596    5.2251 H   0  0  0  0  0  0  0  0  0  0  0  0
   -1.2288    6.5432    4.4423 H   0  0  0  0  0  0  0  0  0  0  0  0
   -0.7202    1.7558    6.3720 N   0  0  0  0  0  0  0  0  0  0  0  0
   -0.4174   -0.2282    4.6071 N   0  0  0  0  0  0  0  0  0  0  0  0
   -1.4505    5.5036    6.2190 O   0  0  0  0  0  0  0  0  0  0  0  0
    0.7020    1.6244    4.8135 Zn  0  0  0  0  0  0  0  0  0  0  0  0
  1  2  1  0  0  0  0
  1 35  1  0  0  0  0
  2  3  2  0  0  0  0
  3 22  1  0  0  0  0
  3  4  1  0  0  0  0
  4 23  1  0  0  0  0
  5  4  2  0  0  0  0
  6  5  1  6  0  0  0
  6 34  1  0  0  0  0
  6  7  1  0  0  0  0
  7  8  2  0  0  0  0
  8 25  1  0  0  0  0
  9  8  1  0  0  0  0
  9 26  1  0  0  0  0
 10  9  2  0  0  0  0
 11 10  1  0  0  0  0
 11 12  1  0  0  0  0
 12 27  1  0  0  0  0
 13 28  1  0  0  0  0
 13 12  2  0  0  0  0
 14 13  1  0  0  0  0
 15 14  2  0  0  0  0
 15 16  1  0  0  0  0
 16 11  2  0  0  0  0
 17 31  1  0  0  0  0
 17 36  1  0  0  0  0
 19 37  1  0  0  0  0
 20  1  1  0  0  0  0
 21  2  1  0  0  0  0
 24  7  1  0  0  0  0
 29 14  1  0  0  0  0
 30 15  1  0  0  0  0
 32 17  1  0  0  0  0
 33 17  1  0  0  0  0
 34 10  1  0  0  0  0
 35 37  1  0  0  0  0
 35  5  1  0  0  0  0
 36 16  1  0  0  0  0
 37 18  1  0  0  0  0
 37 34  1  0  0  0  0
M  END
$$$$
