CSD_code = GEQZEH | q = 0 | S = 0 | Stoichiometry = C20H17ClOPRhS | MND = 4
 OpenBabel04212202043D

 42 45  0  0  0  0  0  0  0  0999 V2000
    5.2199    2.6830    9.2770 Rh  0  0  2  0  0  0  0  0  0  0  0  0
    4.5772    1.0143    7.8426 S   0  0  2  0  0  3  0  0  0  0  0  0
    6.1169    3.6953    7.4917 P   0  0  0  0  0  4  0  0  0  0  0  0
    4.5796    1.3382   10.9719 Cl  0  0  0  0  0  0  0  0  0  0  0  0
    5.5451    4.0735   10.4318 C   0  0  0  0  0  2  0  0  0  0  0  0
    5.7279    4.9667   11.1257 O   0  0  0  0  0  1  0  0  0  0  0  0
    5.3945   -0.5384    8.3209 C   0  0  0  0  0  0  0  0  0  0  0  0
    5.9962    2.5613    6.0599 C   0  0  0  0  0  0  0  0  0  0  0  0
    5.3708    1.3348    6.2711 C   0  0  0  0  0  0  0  0  0  0  0  0
    5.3043    0.3962    5.2523 C   0  0  0  0  0  0  0  0  0  0  0  0
    5.8795    0.6754    4.0257 C   0  0  0  0  0  0  0  0  0  0  0  0
    6.5041    1.8947    3.8077 C   0  0  0  0  0  0  0  0  0  0  0  0
    6.5628    2.8348    4.8198 C   0  0  0  0  0  0  0  0  0  0  0  0
    7.9329    3.8140    7.6258 C   0  0  0  0  0  0  0  0  0  0  0  0
    8.7266    4.6485    6.8475 C   0  0  0  0  0  0  0  0  0  0  0  0
   10.1019    4.6229    6.9965 C   0  0  0  0  0  0  0  0  0  0  0  0
   10.6903    3.7662    7.9128 C   0  0  0  0  0  0  0  0  0  0  0  0
    9.9027    2.9340    8.6928 C   0  0  0  0  0  0  0  0  0  0  0  0
    8.5285    2.9594    8.5499 C   0  0  0  0  0  0  0  0  0  0  0  0
    5.6356    5.3090    6.8170 C   0  0  0  0  0  0  0  0  0  0  0  0
    4.7479    5.4343    5.7538 C   0  0  0  0  0  0  0  0  0  0  0  0
    4.3396    6.6904    5.3417 C   0  0  0  0  0  0  0  0  0  0  0  0
    4.7993    7.8219    5.9950 C   0  0  0  0  0  0  0  0  0  0  0  0
    5.6632    7.6996    7.0728 C   0  0  0  0  0  0  0  0  0  0  0  0
    6.0743    6.4483    7.4890 C   0  0  0  0  0  0  0  0  0  0  0  0
    4.8023   -0.5450    5.4171 H   0  0  0  0  0  0  0  0  0  0  0  0
    5.8330   -0.0573    3.2343 H   0  0  0  0  0  0  0  0  0  0  0  0
    6.9472    2.1096    2.8470 H   0  0  0  0  0  0  0  0  0  0  0  0
    7.0513    3.7843    4.6563 H   0  0  0  0  0  0  0  0  0  0  0  0
    8.2708    5.3298    6.1425 H   0  0  0  0  0  0  0  0  0  0  0  0
   10.7180    5.2766    6.3964 H   0  0  0  0  0  0  0  0  0  0  0  0
   11.7643    3.7530    8.0245 H   0  0  0  0  0  0  0  0  0  0  0  0
   10.3606    2.2736    9.4140 H   0  0  0  0  0  0  0  0  0  0  0  0
    7.8870    2.3286    9.1707 H   0  0  0  0  0  0  0  0  0  0  0  0
    4.3802    4.5497    5.2517 H   0  0  0  0  0  0  0  0  0  0  0  0
    3.6558    6.7862    4.5109 H   0  0  0  0  0  0  0  0  0  0  0  0
    4.4771    8.8001    5.6707 H   0  0  0  0  0  0  0  0  0  0  0  0
    6.0104    8.5813    7.5908 H   0  0  0  0  0  0  0  0  0  0  0  0
    6.7394    6.3385    8.3360 H   0  0  0  0  0  0  0  0  0  0  0  0
    6.4620   -0.4653    8.1336 H   0  0  0  0  0  0  0  0  0  0  0  0
    5.1996   -0.6482    9.3859 H   0  0  0  0  0  0  0  0  0  0  0  0
    4.9575   -1.3643    7.7672 H   0  0  0  0  0  0  0  0  0  0  0  0
  1  5  1  0  0  0  0
  1  4  1  1  0  0  0
  2  7  1  1  0  0  0
  2  1  1  0  0  0  0
  3 14  1  0  0  0  0
  3  1  1  0  0  0  0
  5  6  1  0  0  0  0
  7 41  1  0  0  0  0
  8  9  1  0  0  0  0
  8  3  1  0  0  0  0
  9  2  1  0  0  0  0
 10 26  1  0  0  0  0
 10  9  2  0  0  0  0
 11 10  1  0  0  0  0
 12 11  2  0  0  0  0
 12 13  1  0  0  0  0
 13  8  2  0  0  0  0
 14 19  1  0  0  0  0
 15 16  1  0  0  0  0
 15 14  2  0  0  0  0
 16 17  2  0  0  0  0
 17 32  1  0  0  0  0
 17 18  1  0  0  0  0
 18 33  1  0  0  0  0
 19 18  2  0  0  0  0
 19 34  1  0  0  0  0
 20 25  1  0  0  0  0
 20  3  1  0  0  0  0
 21 20  2  0  0  0  0
 22 21  1  0  0  0  0
 22 23  2  0  0  0  0
 23 24  1  0  0  0  0
 24 25  2  0  0  0  0
 24 38  1  0  0  0  0
 25 39  1  0  0  0  0
 27 11  1  0  0  0  0
 28 12  1  0  0  0  0
 29 13  1  0  0  0  0
 30 15  1  0  0  0  0
 31 16  1  0  0  0  0
 35 21  1  0  0  0  0
 36 22  1  0  0  0  0
 37 23  1  0  0  0  0
 40  7  1  0  0  0  0
 42  7  1  0  0  0  0
M  END
$$$$
