CSD_code = GERCOW | q = 0 | S = 0 | Stoichiometry = C6ClF5Hg | MND = 2
 OpenBabel04212202043D

 13 13  0  0  0  0  0  0  0  0999 V2000
    1.1285    1.9244    7.3910 Hg  0  0  0  0  0  0  0  0  0  0  0  0
    0.8227    2.1198    9.6364 Cl  0  0  0  0  0  0  0  0  0  0  0  0
    1.8006   -0.5692    5.3647 F   0  0  0  0  0  0  0  0  0  0  0  0
    2.1918   -0.7954    2.6779 F   0  0  0  0  0  0  0  0  0  0  0  0
    2.0348    1.4198    1.0954 F   0  0  0  0  0  0  0  0  0  0  0  0
    1.4869    3.8486    2.2059 F   0  0  0  0  0  0  0  0  0  0  0  0
    1.0992    4.0504    4.8956 F   0  0  0  0  0  0  0  0  0  0  0  0
    1.4422    1.7451    5.1853 C   0  0  0  0  0  0  0  0  0  0  0  0
    1.7224    0.5222    4.5894 C   0  0  0  0  0  0  0  0  0  0  0  0
    1.9244    0.3932    3.2171 C   0  0  0  0  0  0  0  0  0  0  0  0
    1.8444    1.5239    2.4078 C   0  0  0  0  0  0  0  0  0  0  0  0
    1.5644    2.7644    2.9763 C   0  0  0  0  0  0  0  0  0  0  0  0
    1.3684    2.8542    4.3524 C   0  0  0  0  0  0  0  0  0  0  0  0
  1  2  1  0  0  0  0
  4 10  1  0  0  0  0
  5 11  1  0  0  0  0
  6 12  1  0  0  0  0
  8  1  1  0  0  0  0
  9  8  1  0  0  0  0
  9  3  1  0  0  0  0
 10  9  2  0  0  0  0
 11 12  2  0  0  0  0
 11 10  1  0  0  0  0
 12 13  1  0  0  0  0
 13  7  1  0  0  0  0
 13  8  2  0  0  0  0
M  END
$$$$
