CSD_code = GESDAJ | q = 0 | S = 0 | Stoichiometry = C7H4ClHgNO3S | MND = 2
 OpenBabel04212202043D

 18 20  0  0  1  0  0  0  0  0999 V2000
    5.7937   -0.2436   -0.4818 Hg  0  0  0  0  0  0  0  0  0  0  0  0
    7.5274   -1.5389   -1.0185 Cl  0  0  0  0  0  0  0  0  0  0  0  0
    3.7444    2.0467    1.5997 S   0  0  0  0  0  0  0  0  0  0  0  0
    3.3153    1.1953    2.6623 O   0  0  0  0  0  0  0  0  0  0  0  0
    4.6732    3.0874    1.9034 O   0  0  0  0  0  0  0  0  0  0  0  0
    3.9376    0.5472   -1.7906 O   0  0  0  0  0  0  0  0  0  0  0  0
    4.3577    1.0992    0.3338 N   0  0  1  0  0  0  0  0  0  0  0  0
    2.3650    2.6437    0.6216 C   0  0  0  0  0  0  0  0  0  0  0  0
    1.3463    3.5052    0.9516 C   0  0  0  0  0  0  0  0  0  0  0  0
    0.3974    3.7931   -0.0251 C   0  0  0  0  0  0  0  0  0  0  0  0
    0.4817    3.2268   -1.2892 C   0  0  0  0  0  0  0  0  0  0  0  0
    1.5135    2.3581   -1.6142 C   0  0  0  0  0  0  0  0  0  0  0  0
    2.4577    2.0719   -0.6394 C   0  0  0  0  0  0  0  0  0  0  0  0
    3.6250    1.1815   -0.7700 C   0  0  1  0  0  3  0  0  0  0  0  0
    1.2912    3.9392    1.9370 H   0  0  0  0  0  0  0  0  0  0  0  0
   -0.4142    4.4662    0.2058 H   0  0  0  0  0  0  0  0  0  0  0  0
   -0.2660    3.4654   -2.0303 H   0  0  0  0  0  0  0  0  0  0  0  0
    1.5944    1.9088   -2.5914 H   0  0  0  0  0  0  0  0  0  0  0  0
  2  1  1  0  0  0  0
  3  5  2  0  0  0  0
  3  4  2  0  0  0  0
  6  1  1  0  0  0  0
  7  1  1  6  0  0  0
  7  3  1  0  0  0  0
  8  9  1  0  0  0  0
  8  3  1  0  0  0  0
  9 15  1  0  0  0  0
 10 16  1  0  0  0  0
 10  9  2  0  0  0  0
 11 10  1  0  0  0  0
 12 11  2  0  0  0  0
 12 13  1  0  0  0  0
 13  8  2  0  0  0  0
 14  6  1  6  0  0  0
 14 13  1  0  0  0  0
 14  7  1  0  0  0  0
 17 11  1  0  0  0  0
 18 12  1  0  0  0  0
M  END
$$$$
