CSD_code = GETMEA | q = 0 | S = 0 | Stoichiometry = C34H27Cl2NOP2Pd | MND = 4
 OpenBabel04212202043D

 68 73  0  0  1  0  0  0  0  0999 V2000
   -0.0926    7.5274    4.2961 Pd  0  0  0  0  0  0  0  0  0  0  0  0
   -1.3448    9.2656    5.1290 Cl  0  0  0  0  0  0  0  0  0  0  0  0
    1.6166    8.9416    3.8436 Cl  0  0  0  0  0  0  0  0  0  0  0  0
    1.2179    5.8736    3.5949 P   0  0  0  0  0  4  0  0  0  0  0  0
   -0.8182    4.8245    5.3889 P   0  0  0  0  0  4  0  0  0  0  0  0
   -1.4214    4.5565    3.2255 O   0  0  0  0  0  0  0  0  0  0  0  0
    3.0043    5.9573    3.8686 C   0  0  0  0  0  0  0  0  0  0  0  0
    0.7825    4.3674    4.6050 C   0  0  0  0  0  0  0  0  0  0  0  0
    1.5344    4.2212    5.3881 H   0  0  0  0  0  0  0  0  0  0  0  0
    0.6776    3.4725    3.9921 H   0  0  0  0  0  0  0  0  0  0  0  0
   -1.8871    3.4052    5.7094 C   0  0  0  0  0  0  0  0  0  0  0  0
   -0.2163    5.3182    7.0421 C   0  0  0  0  0  0  0  0  0  0  0  0
   -2.5253    6.4150    2.2493 C   0  0  0  0  0  0  0  0  0  0  0  0
    0.0045    4.3109    7.9797 C   0  0  0  0  0  0  0  0  0  0  0  0
   -0.2659    3.2909    7.7368 H   0  0  0  0  0  0  0  0  0  0  0  0
    0.9542    5.4812    1.8518 C   0  0  0  0  0  0  0  0  0  0  0  0
   -1.7017    6.2242    4.7020 C   0  0  2  0  0  0  0  0  0  0  0  0
   -2.4063    6.8160    5.2832 H   0  0  0  0  0  0  0  0  0  0  0  0
   -1.9052    5.7159    3.3841 C   0  0  0  0  0  0  0  0  0  0  0  0
    1.1879    4.2418    1.2684 C   0  0  0  0  0  0  0  0  0  0  0  0
    1.5954    3.4300    1.8555 H   0  0  0  0  0  0  0  0  0  0  0  0
    0.4432    6.5308    1.0897 C   0  0  0  0  0  0  0  0  0  0  0  0
    0.2810    7.5036    1.5615 H   0  0  0  0  0  0  0  0  0  0  0  0
    3.9566    5.6602    2.9042 C   0  0  0  0  0  0  0  0  0  0  0  0
    3.6486    5.3414    1.9181 H   0  0  0  0  0  0  0  0  0  0  0  0
    0.5556    4.6084    9.2117 C   0  0  0  0  0  0  0  0  0  0  0  0
    0.7150    3.8213    9.9338 H   0  0  0  0  0  0  0  0  0  0  0  0
    0.1542    6.3346   -0.2482 C   0  0  0  0  0  0  0  0  0  0  0  0
   -0.2457    7.1445   -0.8402 H   0  0  0  0  0  0  0  0  0  0  0  0
   -2.5300    7.8089    2.1460 C   0  0  0  0  0  0  0  0  0  0  0  0
   -2.1059    8.4283    2.9380 H   0  0  0  0  0  0  0  0  0  0  0  0
   -3.5780    7.6316   -0.0111 C   0  0  0  0  0  0  0  0  0  0  0  0
    3.3945    6.4088    5.1282 C   0  0  0  0  0  0  0  0  0  0  0  0
    2.6310    6.6869    5.8515 H   0  0  0  0  0  0  0  0  0  0  0  0
    0.8924    4.0533   -0.0695 C   0  0  0  0  0  0  0  0  0  0  0  0
    1.0657    3.0899   -0.5265 H   0  0  0  0  0  0  0  0  0  0  0  0
    0.1466    6.6281    7.3493 C   0  0  0  0  0  0  0  0  0  0  0  0
   -0.0090    7.4493    6.6361 H   0  0  0  0  0  0  0  0  0  0  0  0
    5.6884    6.2264    4.4689 C   0  0  0  0  0  0  0  0  0  0  0  0
    6.7378    6.3366    4.6987 H   0  0  0  0  0  0  0  0  0  0  0  0
   -3.0473    5.6396    1.2120 C   0  0  0  0  0  0  0  0  0  0  0  0
   -3.0220    4.5645    1.3067 H   0  0  0  0  0  0  0  0  0  0  0  0
    0.3715    5.0931   -0.8240 C   0  0  0  0  0  0  0  0  0  0  0  0
    0.1359    4.9342   -1.8658 H   0  0  0  0  0  0  0  0  0  0  0  0
   -1.7558    2.1736    5.0853 C   0  0  0  0  0  0  0  0  0  0  0  0
   -0.9624    2.0097    4.3723 H   0  0  0  0  0  0  0  0  0  0  0  0
    0.9056    5.9147    9.5158 C   0  0  0  0  0  0  0  0  0  0  0  0
    1.3379    6.1474   10.4773 H   0  0  0  0  0  0  0  0  0  0  0  0
   -3.0541    8.4130    1.0213 C   0  0  0  0  0  0  0  0  0  0  0  0
   -3.0543    9.4891    0.9309 H   0  0  0  0  0  0  0  0  0  0  0  0
    5.3001    5.7929    3.2127 C   0  0  0  0  0  0  0  0  0  0  0  0
    6.0458    5.5669    2.4647 H   0  0  0  0  0  0  0  0  0  0  0  0
   -2.6608    1.1662    5.3703 C   0  0  0  0  0  0  0  0  0  0  0  0
   -2.5622    0.2050    4.8882 H   0  0  0  0  0  0  0  0  0  0  0  0
    0.7025    6.9193    8.5845 C   0  0  0  0  0  0  0  0  0  0  0  0
    0.9768    7.9377    8.8152 H   0  0  0  0  0  0  0  0  0  0  0  0
    4.7353    6.5384    5.4277 C   0  0  0  0  0  0  0  0  0  0  0  0
    5.0414    6.8962    6.3994 H   0  0  0  0  0  0  0  0  0  0  0  0
   -2.9296    3.6329    6.6033 C   0  0  0  0  0  0  0  0  0  0  0  0
   -3.0175    4.6028    7.0772 H   0  0  0  0  0  0  0  0  0  0  0  0
   -3.6941    1.3885    6.2661 C   0  0  0  0  0  0  0  0  0  0  0  0
   -4.3982    0.5989    6.4817 H   0  0  0  0  0  0  0  0  0  0  0  0
   -3.5752    6.2387    0.0895 C   0  0  0  0  0  0  0  0  0  0  0  0
   -3.9802    5.6431   -0.7152 H   0  0  0  0  0  0  0  0  0  0  0  0
   -4.5247    8.7369   -2.1176 N   0  0  0  0  0  0  0  0  0  0  0  0
   -4.1021    8.2470   -1.1714 C   0  0  0  0  0  0  0  0  0  0  0  0
   -3.8310    2.6233    6.8816 C   0  0  0  0  0  0  0  0  0  0  0  0
   -4.6404    2.7973    7.5746 H   0  0  0  0  0  0  0  0  0  0  0  0
  1 17  1  0  0  0  0
  1  2  1  0  0  0  0
  3  1  1  0  0  0  0
  4  7  1  0  0  0  0
  4  1  1  0  0  0  0
  4  8  1  0  0  0  0
  5 11  1  0  0  0  0
  5 12  1  0  0  0  0
  6 19  2  0  0  0  0
  7 33  1  0  0  0  0
  8  9  1  0  0  0  0
  8  5  1  0  0  0  0
 10  8  1  0  0  0  0
 11 59  1  0  0  0  0
 12 37  2  0  0  0  0
 12 14  1  0  0  0  0
 13 19  1  0  0  0  0
 14 26  2  0  0  0  0
 15 14  1  0  0  0  0
 16  4  1  0  0  0  0
 17 18  1  1  0  0  0
 17  5  1  0  0  0  0
 19 17  1  0  0  0  0
 20 16  1  0  0  0  0
 20 21  1  0  0  0  0
 22 23  1  0  0  0  0
 22 16  2  0  0  0  0
 24 51  1  0  0  0  0
 24  7  2  0  0  0  0
 25 24  1  0  0  0  0
 26 47  1  0  0  0  0
 26 27  1  0  0  0  0
 28 22  1  0  0  0  0
 29 28  1  0  0  0  0
 30 13  1  0  0  0  0
 30 31  1  0  0  0  0
 32 63  2  0  0  0  0
 32 49  1  0  0  0  0
 33 57  2  0  0  0  0
 33 34  1  0  0  0  0
 35 20  2  0  0  0  0
 36 35  1  0  0  0  0
 37 55  1  0  0  0  0
 38 37  1  0  0  0  0
 39 40  1  0  0  0  0
 39 57  1  0  0  0  0
 41 42  1  0  0  0  0
 41 13  2  0  0  0  0
 43 28  2  0  0  0  0
 43 35  1  0  0  0  0
 44 43  1  0  0  0  0
 45 53  1  0  0  0  0
 45 11  2  0  0  0  0
 46 45  1  0  0  0  0
 47 48  1  0  0  0  0
 49 30  2  0  0  0  0
 50 49  1  0  0  0  0
 51 39  2  0  0  0  0
 52 51  1  0  0  0  0
 53 61  2  0  0  0  0
 54 53  1  0  0  0  0
 55 56  1  0  0  0  0
 55 47  2  0  0  0  0
 57 58  1  0  0  0  0
 59 67  2  0  0  0  0
 59 60  1  0  0  0  0
 61 62  1  0  0  0  0
 61 67  1  0  0  0  0
 63 41  1  0  0  0  0
 64 63  1  0  0  0  0
 65 66  3  0  0  0  0
 66 32  1  0  0  0  0
 67 68  1  0  0  0  0
M  END
$$$$
