CSD_code = GETNUQ | q = 0 | S = 0 | Stoichiometry = C21H22BBrN4O3Pt | MND = 6
 OpenBabel04212202043D

 53 57  0  0  0  0  0  0  0  0999 V2000
   13.0645    5.2805    0.0774 Pt  0  0  0  0  0  0  0  0  0  0  0  0
   12.7418    5.8902    2.5695 Br  0  0  0  0  0  0  0  0  0  0  0  0
   16.1273    4.3773    0.9213 N   0  0  0  0  0  0  0  0  0  0  0  0
   15.5920    2.4060    1.7172 O   0  0  0  0  0  0  0  0  0  0  0  0
   15.3686    0.8584   -2.7914 O   0  0  0  0  0  0  0  0  0  0  0  0
   15.7459    2.5210   -1.2414 O   0  0  0  0  0  0  0  0  0  0  0  0
   11.3403    6.2833   -0.4121 C   0  0  0  0  0  0  0  0  0  0  0  0
   11.2520    6.5641   -1.4625 H   0  0  0  0  0  0  0  0  0  0  0  0
   11.2664    7.1958    0.1847 H   0  0  0  0  0  0  0  0  0  0  0  0
   10.4912    5.6465   -0.1485 H   0  0  0  0  0  0  0  0  0  0  0  0
   12.2040    3.2840    0.8274 N   0  0  0  0  0  0  0  0  0  0  0  0
   18.2344    1.8291    2.3470 N   0  0  0  0  0  0  0  0  0  0  0  0
   14.0932    6.9950   -0.3916 C   0  0  0  0  0  0  0  0  0  0  0  0
   13.8454    7.4238   -1.3616 H   0  0  0  0  0  0  0  0  0  0  0  0
   15.1498    6.7202   -0.3757 H   0  0  0  0  0  0  0  0  0  0  0  0
   13.9075    7.7390    0.3849 H   0  0  0  0  0  0  0  0  0  0  0  0
   14.8194    4.2087    0.7693 N   0  0  0  0  0  0  0  0  0  0  0  0
   14.5069    3.0307    1.2478 C   0  0  0  0  0  0  0  0  0  0  0  0
   13.1717    2.4939    1.3108 C   0  0  0  0  0  0  0  0  0  0  0  0
   10.9539    2.8639    0.9151 C   0  0  0  0  0  0  0  0  0  0  0  0
   10.1962    3.5336    0.5341 H   0  0  0  0  0  0  0  0  0  0  0  0
   10.6051    1.6419    1.4673 C   0  0  0  0  0  0  0  0  0  0  0  0
    9.5690    1.3484    1.5147 H   0  0  0  0  0  0  0  0  0  0  0  0
   11.6072    0.8139    1.9514 C   0  0  0  0  0  0  0  0  0  0  0  0
   11.3707   -0.1459    2.3848 H   0  0  0  0  0  0  0  0  0  0  0  0
   12.9173    1.2484    1.8804 C   0  0  0  0  0  0  0  0  0  0  0  0
   13.7379    0.6583    2.2560 H   0  0  0  0  0  0  0  0  0  0  0  0
   17.9558    3.0322    1.8524 C   0  0  0  0  0  0  0  0  0  0  0  0
   19.4804    1.5753    2.6928 C   0  0  0  0  0  0  0  0  0  0  0  0
   19.6579    0.5853    3.0913 H   0  0  0  0  0  0  0  0  0  0  0  0
   20.5124    2.4964    2.5655 C   0  0  0  0  0  0  0  0  0  0  0  0
   21.5156    2.2389    2.8665 H   0  0  0  0  0  0  0  0  0  0  0  0
   20.2191    3.7487    2.0454 C   0  0  0  0  0  0  0  0  0  0  0  0
   20.9935    4.4926    1.9310 H   0  0  0  0  0  0  0  0  0  0  0  0
   18.9157    4.0310    1.6776 C   0  0  0  0  0  0  0  0  0  0  0  0
   18.6213    4.9846    1.2721 H   0  0  0  0  0  0  0  0  0  0  0  0
   13.3603    4.5953   -1.8989 C   0  0  0  0  0  0  0  0  0  0  0  0
   12.9849    5.3201   -2.6218 H   0  0  0  0  0  0  0  0  0  0  0  0
   14.4357    4.4705   -2.0243 H   0  0  0  0  0  0  0  0  0  0  0  0
   12.6412    3.3153   -2.0076 C   0  0  0  0  0  0  0  0  0  0  0  0
   13.2855    2.0619   -1.9251 C   0  0  0  0  0  0  0  0  0  0  0  0
   12.4921    0.9108   -1.9329 C   0  0  0  0  0  0  0  0  0  0  0  0
   12.9762   -0.0543   -1.8401 H   0  0  0  0  0  0  0  0  0  0  0  0
   11.1166    0.9582   -2.0442 C   0  0  0  0  0  0  0  0  0  0  0  0
   10.5366    0.0471   -2.0274 H   0  0  0  0  0  0  0  0  0  0  0  0
   10.4980    2.1870   -2.2173 C   0  0  0  0  0  0  0  0  0  0  0  0
    9.4282    2.2404   -2.3604 H   0  0  0  0  0  0  0  0  0  0  0  0
   11.2536    3.3390   -2.2068 C   0  0  0  0  0  0  0  0  0  0  0  0
   10.7696    4.2945   -2.3434 H   0  0  0  0  0  0  0  0  0  0  0  0
   16.5786    3.2936    1.4872 C   0  0  0  0  0  0  0  0  0  0  0  0
   14.8507    1.8248   -1.9814 B   0  0  0  0  0  0  0  0  0  0  0  0
   16.6519    2.2681   -1.4305 H   0  0  0  0  0  0  0  0  0  0  0  0
   14.7430    0.3696   -3.3237 H   0  0  0  0  0  0  0  0  0  0  0  0
  1 17  1  0  0  0  0
  1 11  1  0  0  0  0
  1  2  1  0  0  0  0
  3 50  2  0  0  0  0
  5 51  1  0  0  0  0
  7 10  1  0  0  0  0
  7  1  1  0  0  0  0
  7  9  1  0  0  0  0
  8  7  1  0  0  0  0
 11 20  1  0  0  0  0
 11 19  1  0  0  0  0
 12 29  1  0  0  0  0
 13 15  1  0  0  0  0
 13  1  1  0  0  0  0
 13 16  1  0  0  0  0
 14 13  1  0  0  0  0
 17  3  1  0  0  0  0
 17 18  1  0  0  0  0
 18 19  2  0  0  0  0
 18  4  1  0  0  0  0
 19 26  1  0  0  0  0
 20 22  2  0  0  0  0
 21 20  1  0  0  0  0
 22 23  1  0  0  0  0
 22 24  1  0  0  0  0
 24 25  1  0  0  0  0
 26 24  2  0  0  0  0
 26 27  1  0  0  0  0
 28 12  2  0  0  0  0
 29 30  1  0  0  0  0
 31 29  2  0  0  0  0
 31 32  1  0  0  0  0
 33 31  1  0  0  0  0
 34 33  1  0  0  0  0
 35 28  1  0  0  0  0
 35 33  2  0  0  0  0
 36 35  1  0  0  0  0
 37  1  1  0  0  0  0
 38 37  1  0  0  0  0
 39 37  1  0  0  0  0
 40 41  1  0  0  0  0
 40 37  1  0  0  0  0
 42 41  2  0  0  0  0
 42 43  1  0  0  0  0
 44 45  1  0  0  0  0
 44 42  1  0  0  0  0
 46 48  1  0  0  0  0
 46 44  2  0  0  0  0
 47 46  1  0  0  0  0
 48 40  2  0  0  0  0
 49 48  1  0  0  0  0
 50  4  1  0  0  0  0
 50 28  1  0  0  0  0
 51 41  1  0  0  0  0
 51  6  1  0  0  0  0
 52  6  1  0  0  0  0
 53  5  1  0  0  0  0
M  END
$$$$
