CSD_code = GETNOK | q = 0 | S = 0 | Stoichiometry = C25H30BBrN2O6Pt | MND = 6
 OpenBabel04212202043D

 66 69  0  0  1  0  0  0  0  0999 V2000
    2.9435    6.6847    7.8961 Pt  0  0  0  0  0  0  0  0  0  0  0  0
    0.6817    7.2905    6.7840 Br  0  0  0  0  0  0  0  0  0  0  0  0
    0.9758   -0.0978    9.1711 O   0  0  0  0  0  0  0  0  0  0  0  0
    1.9584   -0.2165    7.1573 O   0  0  0  0  0  0  0  0  0  0  0  0
    3.8948    4.5901    1.0712 O   0  0  0  0  0  0  0  0  0  0  0  0
    2.9193    2.7978    2.0158 O   0  0  0  0  0  0  0  0  0  0  0  0
    5.6088   -0.3702    7.0291 O   0  0  0  0  0  0  0  0  0  0  0  0
    6.0349    0.1628    6.3605 H   0  0  0  0  0  0  0  0  0  0  0  0
    4.5258   -0.4115    9.0858 O   0  0  0  0  0  0  0  0  0  0  0  0
    4.5747   -1.3597    8.9581 H   0  0  0  0  0  0  0  0  0  0  0  0
    2.1191    4.6357    8.0011 N   0  0  0  0  0  0  0  0  0  0  0  0
    3.3588    5.8277    5.8943 N   0  0  0  0  0  0  0  0  0  0  0  0
    1.5263    4.0869    9.0511 C   0  0  0  0  0  3  0  0  0  0  0  0
    1.2475    4.7603    9.8496 H   0  0  0  0  0  0  0  0  0  0  0  0
    1.2663    2.7334    9.1462 C   0  0  0  0  0  0  0  0  0  0  0  0
    0.7884    2.3068   10.0128 H   0  0  0  0  0  0  0  0  0  0  0  0
    1.6717    1.9094    8.0996 C   0  0  0  0  0  0  0  0  0  0  0  0
    1.4896    0.4344    8.2207 C   0  0  0  0  0  0  0  0  0  0  0  0
    1.8795   -1.6440    7.1960 C   0  0  0  0  0  0  0  0  0  0  0  0
    2.1305   -1.9778    8.2085 H   0  0  0  0  0  0  0  0  0  0  0  0
    0.8452   -1.9404    6.9859 H   0  0  0  0  0  0  0  0  0  0  0  0
    2.8376   -2.2071    6.1627 C   0  0  0  0  0  0  0  0  0  0  0  0
    2.5384   -1.8968    5.1649 H   0  0  0  0  0  0  0  0  0  0  0  0
    2.8294   -3.2922    6.2114 H   0  0  0  0  0  0  0  0  0  0  0  0
    3.8453   -1.8458    6.3519 H   0  0  0  0  0  0  0  0  0  0  0  0
    2.2428    2.4904    6.9778 C   0  0  0  0  0  0  0  0  0  0  0  0
    2.5544    1.8623    6.1613 H   0  0  0  0  0  0  0  0  0  0  0  0
    2.4329    3.8709    6.9465 C   0  0  0  0  0  0  0  0  0  0  0  0
    2.9506    4.5573    5.7547 C   0  0  1  0  0  3  0  0  0  0  0  0
    3.7723    6.4981    4.8279 C   0  0  0  0  0  0  0  0  0  0  0  0
    4.0745    7.5235    4.9911 H   0  0  0  0  0  0  0  0  0  0  0  0
    3.8217    5.9506    3.5615 C   0  0  0  0  0  0  0  0  0  0  0  0
    4.1680    6.5171    2.7124 H   0  0  0  0  0  0  0  0  0  0  0  0
    3.3997    4.6327    3.3959 C   0  0  0  0  0  0  0  0  0  0  0  0
    2.9491    3.9351    4.5065 C   0  0  0  0  0  0  0  0  0  0  0  0
    2.5858    2.9290    4.3863 H   0  0  0  0  0  0  0  0  0  0  0  0
    3.4418    4.0256    2.0344 C   0  0  0  0  0  0  0  0  0  0  0  0
    2.9036    2.1223    0.7557 C   0  0  0  0  0  0  0  0  0  0  0  0
    2.1036    1.3845    0.8423 H   0  0  0  0  0  0  0  0  0  0  0  0
    2.6620    2.8458   -0.0294 H   0  0  0  0  0  0  0  0  0  0  0  0
    4.2401    1.4562    0.4636 C   0  0  0  0  0  0  0  0  0  0  0  0
    5.0188    2.2092    0.3701 H   0  0  0  0  0  0  0  0  0  0  0  0
    4.1729    0.9043   -0.4692 H   0  0  0  0  0  0  0  0  0  0  0  0
    4.5043    0.7692    1.2643 H   0  0  0  0  0  0  0  0  0  0  0  0
    3.6660    8.6034    7.6683 C   0  0  0  0  0  0  0  0  0  0  0  0
    2.8206    9.2910    7.6063 H   0  0  0  0  0  0  0  0  0  0  0  0
    4.2282    8.6646    6.7328 H   0  0  0  0  0  0  0  0  0  0  0  0
    4.3218    8.9357    8.4732 H   0  0  0  0  0  0  0  0  0  0  0  0
    4.8698    6.1602    8.6094 C   0  0  0  0  0  0  0  0  0  0  0  0
    5.5887    6.6700    7.9641 H   0  0  0  0  0  0  0  0  0  0  0  0
    4.9966    6.4987    9.6375 H   0  0  0  0  0  0  0  0  0  0  0  0
    5.0023    4.7031    8.4998 C   0  0  0  0  0  0  0  0  0  0  0  0
    4.6139    3.8558    9.5451 C   0  0  0  0  0  0  0  0  0  0  0  0
    4.2647    4.2918   10.4709 H   0  0  0  0  0  0  0  0  0  0  0  0
    4.6575    2.4869    9.4063 C   0  0  0  0  0  0  0  0  0  0  0  0
    4.3384    1.8495   10.2171 H   0  0  0  0  0  0  0  0  0  0  0  0
    5.1024    1.8808    8.2265 C   0  0  0  0  0  0  0  0  0  0  0  0
    5.5387    2.7281    7.2060 C   0  0  0  0  0  0  0  0  0  0  0  0
    5.9149    2.3088    6.2797 H   0  0  0  0  0  0  0  0  0  0  0  0
    5.4934    4.1012    7.3358 C   0  0  0  0  0  0  0  0  0  0  0  0
    5.8496    4.7264    6.5269 H   0  0  0  0  0  0  0  0  0  0  0  0
    2.3508    7.2595    9.7839 C   0  0  0  0  0  0  0  0  0  0  0  0
    2.7351    8.2233   10.1157 H   0  0  0  0  0  0  0  0  0  0  0  0
    2.6568    6.5051   10.5131 H   0  0  0  0  0  0  0  0  0  0  0  0
    1.2597    7.3201    9.7688 H   0  0  0  0  0  0  0  0  0  0  0  0
    5.0920    0.3106    8.0962 B   0  0  0  0  0  0  0  0  0  0  0  0
  1 11  1  0  0  0  0
  1 49  1  0  0  0  0
  1 62  1  0  0  0  0
  2  1  1  0  0  0  0
  4 19  1  0  0  0  0
  4 18  1  0  0  0  0
  5 37  2  0  0  0  0
  6 37  1  0  0  0  0
  7 66  1  0  0  0  0
  8  7  1  0  0  0  0
 10  9  1  0  0  0  0
 11 13  1  0  0  0  0
 12  1  1  0  0  0  0
 13 15  1  0  0  0  0
 13 14  1  0  0  0  0
 15 16  1  0  0  0  0
 17 18  1  0  0  0  0
 17 15  2  0  0  0  0
 18  3  2  0  0  0  0
 19 20  1  0  0  0  0
 21 19  1  0  0  0  0
 22 24  1  0  0  0  0
 22 25  1  0  0  0  0
 22 19  1  0  0  0  0
 23 22  1  0  0  0  0
 26 17  1  0  0  0  0
 27 26  1  0  0  0  0
 28 26  2  0  0  0  0
 28 11  1  0  0  0  0
 29 35  1  6  0  0  0
 29 12  1  0  0  0  0
 29 28  1  0  0  0  0
 30 31  1  0  0  0  0
 30 12  1  0  0  0  0
 32 30  2  0  0  0  0
 33 32  1  0  0  0  0
 34 32  1  0  0  0  0
 34 35  2  0  0  0  0
 36 35  1  0  0  0  0
 37 34  1  0  0  0  0
 38 39  1  0  0  0  0
 38  6  1  0  0  0  0
 40 38  1  0  0  0  0
 41 38  1  0  0  0  0
 41 44  1  0  0  0  0
 42 41  1  0  0  0  0
 43 41  1  0  0  0  0
 45  1  1  0  0  0  0
 45 48  1  0  0  0  0
 46 45  1  0  0  0  0
 47 45  1  0  0  0  0
 49 51  1  0  0  0  0
 50 49  1  0  0  0  0
 52 49  1  0  0  0  0
 52 53  1  0  0  0  0
 53 54  1  0  0  0  0
 55 53  2  0  0  0  0
 55 56  1  0  0  0  0
 57 55  1  0  0  0  0
 58 60  1  0  0  0  0
 58 57  2  0  0  0  0
 59 58  1  0  0  0  0
 60 52  2  0  0  0  0
 61 60  1  0  0  0  0
 62 63  1  0  0  0  0
 62 64  1  0  0  0  0
 65 62  1  0  0  0  0
 66 57  1  0  0  0  0
 66  9  1  0  0  0  0
M  END
$$$$
