CSD_code = GETPAY | q = 0 | S = 0 | Stoichiometry = C21H22BBrN4O3Pt | MND = 6
 OpenBabel04212202043D

 53 57  0  0  0  0  0  0  0  0999 V2000
    3.5022    6.6962    1.5265 Pt  0  0  0  0  0  0  0  0  0  0  0  0
    3.5245    7.1665    4.0717 Br  0  0  0  0  0  0  0  0  0  0  0  0
    2.9291    2.7733    2.8471 O   0  0  0  0  0  0  0  0  0  0  0  0
    0.5384    2.0540    0.7578 O   0  0  0  0  0  0  0  0  0  0  0  0
   -0.1138    1.3916    0.9919 H   0  0  0  0  0  0  0  0  0  0  0  0
    1.6016    0.1863   -0.1233 O   0  0  0  0  0  0  0  0  0  0  0  0
    2.3548   -0.1643   -0.5948 H   0  0  0  0  0  0  0  0  0  0  0  0
    3.8695    4.6118    2.1500 N   0  0  0  0  0  0  0  0  0  0  0  0
    4.8129    3.6769    2.1824 N   0  0  0  0  0  0  0  0  0  0  0  0
    4.1070    0.2715    3.1072 N   0  0  0  0  0  0  0  0  0  0  0  0
    1.4214    5.9331    2.0013 N   0  0  0  0  0  0  0  0  0  0  0  0
    2.5420    3.8729   -0.3916 C   0  0  0  0  0  0  0  0  0  0  0  0
    1.5371    4.2312   -0.2094 H   0  0  0  0  0  0  0  0  0  0  0  0
    2.7467    4.0613    2.5404 C   0  0  0  0  0  0  0  0  0  0  0  0
    4.2372    2.5814    2.5908 C   0  0  0  0  0  0  0  0  0  0  0  0
    4.8707    1.2863    2.7139 C   0  0  0  0  0  0  0  0  0  0  0  0
    4.6602   -0.9215    3.1929 C   0  0  0  0  0  0  0  0  0  0  0  0
    4.0005   -1.7153    3.5167 H   0  0  0  0  0  0  0  0  0  0  0  0
    5.9938   -1.1697    2.8935 C   0  0  0  0  0  0  0  0  0  0  0  0
    6.3978   -2.1660    2.9800 H   0  0  0  0  0  0  0  0  0  0  0  0
    6.7875   -0.1076    2.4839 C   0  0  0  0  0  0  0  0  0  0  0  0
    7.8293   -0.2597    2.2431 H   0  0  0  0  0  0  0  0  0  0  0  0
    6.2216    1.1508    2.3884 C   0  0  0  0  0  0  0  0  0  0  0  0
    6.7793    2.0170    2.0739 H   0  0  0  0  0  0  0  0  0  0  0  0
    1.4677    4.7260    2.5821 C   0  0  0  0  0  0  0  0  0  0  0  0
    0.2696    6.5842    1.9997 C   0  0  0  0  0  0  0  0  0  0  0  0
    0.2710    7.5531    1.5189 H   0  0  0  0  0  0  0  0  0  0  0  0
   -0.8834    6.0736    2.5752 C   0  0  0  0  0  0  0  0  0  0  0  0
   -1.7965    6.6467    2.5523 H   0  0  0  0  0  0  0  0  0  0  0  0
   -0.8371    4.8232    3.1750 C   0  0  0  0  0  0  0  0  0  0  0  0
   -1.7171    4.3985    3.6333 H   0  0  0  0  0  0  0  0  0  0  0  0
    0.3596    4.1310    3.1779 C   0  0  0  0  0  0  0  0  0  0  0  0
    0.4592    3.1568    3.6272 H   0  0  0  0  0  0  0  0  0  0  0  0
    2.9910    8.6445    1.1170 C   0  0  0  0  0  0  0  0  0  0  0  0
    2.5282    8.7739    0.1370 H   0  0  0  0  0  0  0  0  0  0  0  0
    3.8488    9.3165    1.1799 H   0  0  0  0  0  0  0  0  0  0  0  0
    2.2778    8.9477    1.8887 H   0  0  0  0  0  0  0  0  0  0  0  0
    3.3168    6.2368   -0.5243 C   0  0  0  0  0  0  0  0  0  0  0  0
    2.2863    6.4810   -0.7965 H   0  0  0  0  0  0  0  0  0  0  0  0
    4.0068    6.8158   -1.1380 H   0  0  0  0  0  0  0  0  0  0  0  0
    3.5652    4.7920   -0.6376 C   0  0  0  0  0  0  0  0  0  0  0  0
    2.7661    2.4997   -0.3372 C   0  0  0  0  0  0  0  0  0  0  0  0
    4.0577    2.0396   -0.6057 C   0  0  0  0  0  0  0  0  0  0  0  0
    4.2736    0.9790   -0.5566 H   0  0  0  0  0  0  0  0  0  0  0  0
    5.0753    2.9272   -0.9113 C   0  0  0  0  0  0  0  0  0  0  0  0
    6.0659    2.5526   -1.1264 H   0  0  0  0  0  0  0  0  0  0  0  0
    4.8383    4.2877   -0.9195 C   0  0  0  0  0  0  0  0  0  0  0  0
    5.6442    4.9756   -1.1277 H   0  0  0  0  0  0  0  0  0  0  0  0
    1.6005    1.5283    0.0984 B   0  0  0  0  0  0  0  0  0  0  0  0
    5.4857    7.1648    1.2850 C   0  0  0  0  0  0  0  0  0  0  0  0
    5.7311    7.6752    0.3538 H   0  0  0  0  0  0  0  0  0  0  0  0
    6.0106    6.2070    1.3250 H   0  0  0  0  0  0  0  0  0  0  0  0
    5.8115    7.7843    2.1225 H   0  0  0  0  0  0  0  0  0  0  0  0
  1 11  1  0  0  0  0
  1  8  1  0  0  0  0
  1  2  1  0  0  0  0
  4  5  1  0  0  0  0
  6 49  1  0  0  0  0
  7  6  1  0  0  0  0
  8  9  1  0  0  0  0
  8 14  1  0  0  0  0
  9 15  2  0  0  0  0
 10 17  1  0  0  0  0
 11 25  1  0  0  0  0
 12 42  1  0  0  0  0
 12 13  1  0  0  0  0
 14 25  2  0  0  0  0
 14  3  1  0  0  0  0
 15 16  1  0  0  0  0
 15  3  1  0  0  0  0
 16 10  2  0  0  0  0
 17 18  1  0  0  0  0
 19 20  1  0  0  0  0
 19 17  2  0  0  0  0
 21 19  1  0  0  0  0
 22 21  1  0  0  0  0
 23 21  2  0  0  0  0
 23 16  1  0  0  0  0
 24 23  1  0  0  0  0
 25 32  1  0  0  0  0
 26 11  1  0  0  0  0
 26 28  2  0  0  0  0
 27 26  1  0  0  0  0
 28 30  1  0  0  0  0
 29 28  1  0  0  0  0
 30 32  2  0  0  0  0
 30 31  1  0  0  0  0
 32 33  1  0  0  0  0
 34 36  1  0  0  0  0
 34  1  1  0  0  0  0
 34 37  1  0  0  0  0
 35 34  1  0  0  0  0
 38  1  1  0  0  0  0
 39 38  1  0  0  0  0
 40 38  1  0  0  0  0
 41 38  1  0  0  0  0
 41 12  2  0  0  0  0
 42 49  1  0  0  0  0
 43 44  1  0  0  0  0
 43 42  2  0  0  0  0
 45 43  1  0  0  0  0
 46 45  1  0  0  0  0
 47 45  2  0  0  0  0
 47 41  1  0  0  0  0
 48 47  1  0  0  0  0
 49  4  1  0  0  0  0
 50 52  1  0  0  0  0
 50  1  1  0  0  0  0
 50 53  1  0  0  0  0
 51 50  1  0  0  0  0
M  END
$$$$
