CSD_code = GETPEC | q = 0 | S = 0 | Stoichiometry = C21H22BBrN4O3Pt | MND = 6
 OpenBabel04212202043D

 53 57  0  0  1  0  0  0  0  0999 V2000
   -4.1639   -2.8192    8.0083 Pt  0  0  0  0  0  0  0  0  0  0  0  0
   -6.4900   -2.0923    8.8860 Br  0  0  0  0  0  0  0  0  0  0  0  0
   -6.0120   -6.4910    7.2661 O   0  0  0  0  0  0  0  0  0  0  0  0
   -3.7598   -9.8530    5.5903 O   0  0  0  0  0  0  0  0  0  0  0  0
   -4.0288   -9.2888    4.8675 H   0  0  0  0  0  0  0  0  0  0  0  0
   -2.6473  -10.0239    7.6193 O   0  0  0  0  0  0  0  0  0  0  0  0
   -2.8331  -10.9546    7.4894 H   0  0  0  0  0  0  0  0  0  0  0  0
   -5.3983   -3.1279    6.1171 N   0  0  0  0  0  0  0  0  0  0  0  0
   -4.9449   -4.8591    8.2430 N   0  0  0  0  0  0  0  0  0  0  0  0
   -4.7855   -5.9389    9.0011 N   0  0  0  0  0  0  0  0  0  0  0  0
   -4.7591   -8.6260    9.8916 N   0  0  0  0  0  0  0  0  0  0  0  0
   -5.7437   -2.2413    5.1971 C   0  0  0  0  0  3  0  0  0  0  0  0
   -5.2067   -1.3027    5.2142 H   0  0  0  0  0  0  0  0  0  0  0  0
   -6.7387   -2.4736    4.2612 C   0  0  0  0  0  0  0  0  0  0  0  0
   -6.9867   -1.7140    3.5376 H   0  0  0  0  0  0  0  0  0  0  0  0
   -7.4035   -3.6921    4.2768 C   0  0  0  0  0  0  0  0  0  0  0  0
   -8.1832   -3.9059    3.5619 H   0  0  0  0  0  0  0  0  0  0  0  0
   -7.0558   -4.6245    5.2361 C   0  0  0  0  0  0  0  0  0  0  0  0
   -7.5497   -5.5804    5.3073 H   0  0  0  0  0  0  0  0  0  0  0  0
   -6.0518   -4.2996    6.1456 C   0  0  0  0  0  0  0  0  0  0  0  0
   -5.6713   -5.1951    7.2080 C   0  0  1  0  0  3  0  0  0  0  0  0
   -5.4122   -6.9099    8.4104 C   0  0  0  0  0  0  0  0  0  0  0  0
   -5.4317   -8.3060    8.7915 C   0  0  0  0  0  0  0  0  0  0  0  0
   -6.0826   -9.2468    7.9924 C   0  0  0  0  0  0  0  0  0  0  0  0
   -6.6215   -8.9371    7.1110 H   0  0  0  0  0  0  0  0  0  0  0  0
   -6.0054  -10.5785    8.3603 C   0  0  0  0  0  0  0  0  0  0  0  0
   -6.4897  -11.3382    7.7644 H   0  0  0  0  0  0  0  0  0  0  0  0
   -5.2899  -10.9157    9.4978 C   0  0  0  0  0  0  0  0  0  0  0  0
   -5.1981  -11.9433    9.8134 H   0  0  0  0  0  0  0  0  0  0  0  0
   -4.6911   -9.8947   10.2285 C   0  0  0  0  0  0  0  0  0  0  0  0
   -4.1282  -10.1058   11.1273 H   0  0  0  0  0  0  0  0  0  0  0  0
   -2.3584   -3.4325    7.0960 C   0  0  0  0  0  0  0  0  0  0  0  0
   -2.3115   -2.9187    6.1320 H   0  0  0  0  0  0  0  0  0  0  0  0
   -1.4961   -3.1553    7.7012 H   0  0  0  0  0  0  0  0  0  0  0  0
   -2.4463   -4.8875    6.9202 C   0  0  0  0  0  0  0  0  0  0  0  0
   -3.0345   -5.4451    5.7790 C   0  0  0  0  0  0  0  0  0  0  0  0
   -3.3568   -4.7938    4.9751 H   0  0  0  0  0  0  0  0  0  0  0  0
   -3.2208   -6.8085    5.6682 C   0  0  0  0  0  0  0  0  0  0  0  0
   -3.7016   -7.1936    4.7747 H   0  0  0  0  0  0  0  0  0  0  0  0
   -2.8138   -7.6894    6.6744 C   0  0  0  0  0  0  0  0  0  0  0  0
   -2.1747   -7.1296    7.7861 C   0  0  0  0  0  0  0  0  0  0  0  0
   -1.8438   -7.7934    8.5692 H   0  0  0  0  0  0  0  0  0  0  0  0
   -1.9945   -5.7696    7.9092 C   0  0  0  0  0  0  0  0  0  0  0  0
   -1.5230   -5.3667    8.7929 H   0  0  0  0  0  0  0  0  0  0  0  0
   -3.2941   -2.7529    9.8651 C   0  0  0  0  0  0  0  0  0  0  0  0
   -2.2268   -2.5365    9.8733 H   0  0  0  0  0  0  0  0  0  0  0  0
   -3.4677   -3.7474   10.2845 H   0  0  0  0  0  0  0  0  0  0  0  0
   -3.8109   -2.0077   10.4726 H   0  0  0  0  0  0  0  0  0  0  0  0
   -3.5510   -0.8827    7.6914 C   0  0  0  0  0  0  0  0  0  0  0  0
   -2.5950   -0.6414    8.1575 H   0  0  0  0  0  0  0  0  0  0  0  0
   -4.3073   -0.2065    8.0950 H   0  0  0  0  0  0  0  0  0  0  0  0
   -3.4571   -0.6962    6.6178 H   0  0  0  0  0  0  0  0  0  0  0  0
   -3.0808   -9.2395    6.6069 B   0  0  0  0  0  0  0  0  0  0  0  0
  1  9  1  0  0  0  0
  1  2  1  0  0  0  0
  1 45  1  0  0  0  0
  3 22  1  0  0  0  0
  4 53  1  0  0  0  0
  5  4  1  0  0  0  0
  7  6  1  0  0  0  0
  8 20  1  0  0  0  0
  8  1  1  0  0  0  0
  9 10  1  0  0  0  0
 11 30  1  0  0  0  0
 12 13  1  0  0  0  0
 12  8  1  0  0  0  0
 14 16  2  0  0  0  0
 14 12  1  0  0  0  0
 15 14  1  0  0  0  0
 16 18  1  0  0  0  0
 17 16  1  0  0  0  0
 18 19  1  0  0  0  0
 18 20  2  0  0  0  0
 21 20  1  6  0  0  0
 21  3  1  0  0  0  0
 21  9  1  0  0  0  0
 22 23  1  0  0  0  0
 22 10  2  0  0  0  0
 23 11  2  0  0  0  0
 24 26  2  0  0  0  0
 24 23  1  0  0  0  0
 25 24  1  0  0  0  0
 26 28  1  0  0  0  0
 27 26  1  0  0  0  0
 28 29  1  0  0  0  0
 28 30  2  0  0  0  0
 30 31  1  0  0  0  0
 32 34  1  0  0  0  0
 32  1  1  0  0  0  0
 33 32  1  0  0  0  0
 35 32  1  0  0  0  0
 35 43  1  0  0  0  0
 36 35  2  0  0  0  0
 37 36  1  0  0  0  0
 38 36  1  0  0  0  0
 38 40  2  0  0  0  0
 39 38  1  0  0  0  0
 40 41  1  0  0  0  0
 41 43  2  0  0  0  0
 41 42  1  0  0  0  0
 43 44  1  0  0  0  0
 45 46  1  0  0  0  0
 45 47  1  0  0  0  0
 45 48  1  0  0  0  0
 49  1  1  0  0  0  0
 49 51  1  0  0  0  0
 49 50  1  0  0  0  0
 52 49  1  0  0  0  0
 53 40  1  0  0  0  0
 53  6  1  0  0  0  0
M  END
$$$$
