CSD_code = GETZUA | q = 0 | S = 0 | Stoichiometry = C24H33Cl3IrP3 | MND = 6
 OpenBabel04212202043D

 64 66  0  0  0  0  0  0  0  0999 V2000
    3.3068    0.6379    3.9662 Ir  0  0  0  0  0  0  0  0  0  0  0  0
    4.9904   -0.6088    5.0604 Cl  0  0  0  0  0  0  0  0  0  0  0  0
    2.3686    1.1214    6.0863 Cl  0  0  0  0  0  0  0  0  0  0  0  0
    1.6282    1.8002    2.7706 Cl  0  0  0  0  0  0  0  0  0  0  0  0
    4.3805    0.0642    1.9774 P   0  0  0  0  0  4  0  0  0  0  0  0
    4.4008    2.6695    4.3523 P   0  0  0  0  0  4  0  0  0  0  0  0
    1.8001   -1.1492    4.1280 P   0  0  0  0  0  4  0  0  0  0  0  0
    6.0074    0.8145    1.6455 C   0  0  0  0  0  0  0  0  0  0  0  0
    6.2914    1.5293    0.4885 C   0  0  0  0  0  0  0  0  0  0  0  0
    7.5691    2.0138    0.2698 C   0  0  0  0  0  0  0  0  0  0  0  0
    8.5697    1.7958    1.2005 C   0  0  0  0  0  0  0  0  0  0  0  0
    8.2872    1.0981    2.3632 C   0  0  0  0  0  0  0  0  0  0  0  0
    7.0137    0.6102    2.5863 C   0  0  0  0  0  0  0  0  0  0  0  0
    3.4445    0.3002    0.4300 C   0  0  0  0  0  0  0  0  0  0  0  0
    4.8376   -1.7043    1.8499 C   0  0  0  0  0  0  0  0  0  0  0  0
    5.2242    3.5483    2.9867 C   0  0  0  0  0  0  0  0  0  0  0  0
    6.5463    3.9679    3.0258 C   0  0  0  0  0  0  0  0  0  0  0  0
    7.0692    4.7045    1.9770 C   0  0  0  0  0  0  0  0  0  0  0  0
    6.2812    5.0241    0.8852 C   0  0  0  0  0  0  0  0  0  0  0  0
    4.9659    4.5914    0.8333 C   0  0  0  0  0  0  0  0  0  0  0  0
    4.4408    3.8546    1.8770 C   0  0  0  0  0  0  0  0  0  0  0  0
    5.6156    2.6200    5.7069 C   0  0  0  0  0  0  0  0  0  0  0  0
    3.2789    4.0041    4.9030 C   0  0  0  0  0  0  0  0  0  0  0  0
    1.3968   -2.1359    2.6497 C   0  0  0  0  0  0  0  0  0  0  0  0
    1.8044   -3.4545    2.4826 C   0  0  0  0  0  0  0  0  0  0  0  0
    1.4667   -4.1471    1.3320 C   0  0  0  0  0  0  0  0  0  0  0  0
    0.7279   -3.5296    0.3370 C   0  0  0  0  0  0  0  0  0  0  0  0
    0.3292   -2.2113    0.4917 C   0  0  0  0  0  0  0  0  0  0  0  0
    0.6645   -1.5165    1.6392 C   0  0  0  0  0  0  0  0  0  0  0  0
    0.1137   -0.6696    4.6449 C   0  0  0  0  0  0  0  0  0  0  0  0
    2.2284   -2.3823    5.3982 C   0  0  0  0  0  0  0  0  0  0  0  0
    4.0228   -0.0570   -0.4212 H   0  0  0  0  0  0  0  0  0  0  0  0
    2.5208   -0.2713    0.5112 H   0  0  0  0  0  0  0  0  0  0  0  0
    3.1862    1.3499    0.3107 H   0  0  0  0  0  0  0  0  0  0  0  0
    5.4448   -1.8582    0.9580 H   0  0  0  0  0  0  0  0  0  0  0  0
    5.4031   -1.9864    2.7356 H   0  0  0  0  0  0  0  0  0  0  0  0
    3.9331   -2.3076    1.7912 H   0  0  0  0  0  0  0  0  0  0  0  0
    5.9656    3.6250    5.9412 H   0  0  0  0  0  0  0  0  0  0  0  0
    5.1103    2.1934    6.5737 H   0  0  0  0  0  0  0  0  0  0  0  0
    6.4474    1.9710    5.4402 H   0  0  0  0  0  0  0  0  0  0  0  0
    3.8439    4.9327    4.9909 H   0  0  0  0  0  0  0  0  0  0  0  0
    2.4777    4.1256    4.1761 H   0  0  0  0  0  0  0  0  0  0  0  0
    2.8457    3.7296    5.8630 H   0  0  0  0  0  0  0  0  0  0  0  0
    2.3020   -1.8494    6.3462 H   0  0  0  0  0  0  0  0  0  0  0  0
    1.4548   -3.1476    5.4592 H   0  0  0  0  0  0  0  0  0  0  0  0
    3.1986   -2.8263    5.1845 H   0  0  0  0  0  0  0  0  0  0  0  0
    0.1525   -0.3226    5.6758 H   0  0  0  0  0  0  0  0  0  0  0  0
   -0.5468   -1.5328    4.5582 H   0  0  0  0  0  0  0  0  0  0  0  0
   -0.2495    0.1426    4.0184 H   0  0  0  0  0  0  0  0  0  0  0  0
    5.5223    1.7186   -0.2439 H   0  0  0  0  0  0  0  0  0  0  0  0
    7.7824    2.5646   -0.6347 H   0  0  0  0  0  0  0  0  0  0  0  0
    9.5659    2.1730    1.0218 H   0  0  0  0  0  0  0  0  0  0  0  0
    9.0629    0.9305    3.0962 H   0  0  0  0  0  0  0  0  0  0  0  0
    6.7856    0.0674    3.4928 H   0  0  0  0  0  0  0  0  0  0  0  0
    7.1734    3.7227    3.8691 H   0  0  0  0  0  0  0  0  0  0  0  0
    8.0976    5.0332    2.0160 H   0  0  0  0  0  0  0  0  0  0  0  0
    6.6927    5.6066    0.0739 H   0  0  0  0  0  0  0  0  0  0  0  0
    4.3496    4.8335   -0.0205 H   0  0  0  0  0  0  0  0  0  0  0  0
    3.4158    3.5105    1.8449 H   0  0  0  0  0  0  0  0  0  0  0  0
    2.3839   -3.9456    3.2502 H   0  0  0  0  0  0  0  0  0  0  0  0
    1.7819   -5.1736    1.2132 H   0  0  0  0  0  0  0  0  0  0  0  0
    0.4644   -4.0740   -0.5577 H   0  0  0  0  0  0  0  0  0  0  0  0
   -0.2437   -1.7244   -0.2840 H   0  0  0  0  0  0  0  0  0  0  0  0
    0.3659   -0.4845    1.7588 H   0  0  0  0  0  0  0  0  0  0  0  0
  1  7  1  0  0  0  0
  1  6  1  0  0  0  0
  1  2  1  0  0  0  0
  1  3  1  0  0  0  0
  4  1  1  0  0  0  0
  5  1  1  0  0  0  0
  6 23  1  0  0  0  0
  6 22  1  0  0  0  0
  7 30  1  0  0  0  0
  7 31  1  0  0  0  0
  8  5  1  0  0  0  0
  8 13  1  0  0  0  0
  9  8  2  0  0  0  0
 10  9  1  0  0  0  0
 10 11  2  0  0  0  0
 11 12  1  0  0  0  0
 12 13  2  0  0  0  0
 12 53  1  0  0  0  0
 13 54  1  0  0  0  0
 14 33  1  0  0  0  0
 14  5  1  0  0  0  0
 15  5  1  0  0  0  0
 15 36  1  0  0  0  0
 16 17  1  0  0  0  0
 16  6  1  0  0  0  0
 17 55  1  0  0  0  0
 18 56  1  0  0  0  0
 18 17  2  0  0  0  0
 19 18  1  0  0  0  0
 20 19  2  0  0  0  0
 20 21  1  0  0  0  0
 21 16  2  0  0  0  0
 22 38  1  0  0  0  0
 22 39  1  0  0  0  0
 23 41  1  0  0  0  0
 23 43  1  0  0  0  0
 24  7  1  0  0  0  0
 25 24  1  0  0  0  0
 25 60  1  0  0  0  0
 26 25  2  0  0  0  0
 27 28  2  0  0  0  0
 27 26  1  0  0  0  0
 28 29  1  0  0  0  0
 29 64  1  0  0  0  0
 29 24  2  0  0  0  0
 30 47  1  0  0  0  0
 31 45  1  0  0  0  0
 31 44  1  0  0  0  0
 32 14  1  0  0  0  0
 34 14  1  0  0  0  0
 35 15  1  0  0  0  0
 37 15  1  0  0  0  0
 40 22  1  0  0  0  0
 42 23  1  0  0  0  0
 46 31  1  0  0  0  0
 48 30  1  0  0  0  0
 49 30  1  0  0  0  0
 50  9  1  0  0  0  0
 51 10  1  0  0  0  0
 52 11  1  0  0  0  0
 57 19  1  0  0  0  0
 58 20  1  0  0  0  0
 59 21  1  0  0  0  0
 61 26  1  0  0  0  0
 62 27  1  0  0  0  0
 63 28  1  0  0  0  0
M  END
$$$$
