CSD_code = GEVTUZ | q = 0 | S = 0 | Stoichiometry = C28H24Cl2N8Ni | MND = 6
 OpenBabel04212202043D

 63 70  0  0  0  0  0  0  0  0999 V2000
    4.1339    6.4559    4.7021 Ni  0  0  0  0  0  0  0  0  0  0  0  0
    2.4226    6.6630    6.0457 Cl  0  0  0  0  0  0  0  0  0  0  0  0
    3.7140    4.6680    4.4399 N   0  0  0  0  0  0  0  0  0  0  0  0
    5.2757    5.5412    6.5164 N   0  0  0  0  0  0  0  0  0  0  0  0
    5.8442    5.7753    7.6293 N   0  0  0  0  0  2  0  0  0  0  0  0
    5.8216    4.6647    8.3702 N   0  0  0  0  0  0  0  0  0  0  0  0
    3.0201    4.2646    3.3823 C   0  0  0  0  0  3  0  0  0  0  0  0
    2.6967    5.0304    2.6901 H   0  0  0  0  0  0  0  0  0  0  0  0
    2.7077    2.9347    3.1582 C   0  0  0  0  0  0  0  0  0  0  0  0
    2.1388    2.6585    2.2849 H   0  0  0  0  0  0  0  0  0  0  0  0
    3.1353    1.9777    4.0653 C   0  0  0  0  0  0  0  0  0  0  0  0
    2.9131    0.9315    3.9170 H   0  0  0  0  0  0  0  0  0  0  0  0
    3.8539    2.3956    5.1681 C   0  0  0  0  0  0  0  0  0  0  0  0
    4.2109    1.6898    5.9013 H   0  0  0  0  0  0  0  0  0  0  0  0
    4.1243    3.7522    5.3296 C   0  0  0  0  0  0  0  0  0  0  0  0
    4.8522    4.2509    6.4796 C   0  0  0  0  0  0  0  0  0  0  0  0
    5.2097    3.6729    7.6828 C   0  0  0  0  0  0  0  0  0  0  0  0
    5.0432    2.6957    8.0809 H   0  0  0  0  0  0  0  0  0  0  0  0
    6.3666    4.6430    9.6597 C   0  0  0  0  0  0  0  0  0  0  0  0
    6.6681    3.4469   10.2984 C   0  0  0  0  0  0  0  0  0  0  0  0
    6.5006    2.5011    9.8069 H   0  0  0  0  0  0  0  0  0  0  0  0
    7.2036    3.4693   11.5730 C   0  0  0  0  0  0  0  0  0  0  0  0
    7.4347    2.5352   12.0636 H   0  0  0  0  0  0  0  0  0  0  0  0
    7.4524    4.6687   12.2275 C   0  0  0  0  0  0  0  0  0  0  0  0
    7.1540    5.8586   11.5692 C   0  0  0  0  0  0  0  0  0  0  0  0
    7.3448    6.7999   12.0629 H   0  0  0  0  0  0  0  0  0  0  0  0
    6.6159    5.8538   10.2996 C   0  0  0  0  0  0  0  0  0  0  0  0
    6.3803    6.7722    9.7866 H   0  0  0  0  0  0  0  0  0  0  0  0
    8.0190    4.6938   13.6124 C   0  0  0  0  0  0  0  0  0  0  0  0
    7.2653    5.0433   14.3178 H   0  0  0  0  0  0  0  0  0  0  0  0
    8.8652    5.3762   13.6669 H   0  0  0  0  0  0  0  0  0  0  0  0
    8.3450    3.7038   13.9202 H   0  0  0  0  0  0  0  0  0  0  0  0
    5.8451    6.2487    3.3584 Cl  0  0  0  0  0  0  0  0  0  0  0  0
    4.5535    8.2439    4.9644 N   0  0  0  0  0  0  0  0  0  0  0  0
    2.9918    7.3706    2.8879 N   0  0  0  0  0  0  0  0  0  0  0  0
    2.4234    7.1365    1.7749 N   0  0  0  0  0  2  0  0  0  0  0  0
    2.4460    8.2470    1.0341 N   0  0  0  0  0  0  0  0  0  0  0  0
    5.2475    8.6473    6.0219 C   0  0  0  0  0  3  0  0  0  0  0  0
    5.5711    7.8814    6.7140 H   0  0  0  0  0  0  0  0  0  0  0  0
    5.5599    9.9772    6.2459 C   0  0  0  0  0  0  0  0  0  0  0  0
    6.1289   10.2534    7.1191 H   0  0  0  0  0  0  0  0  0  0  0  0
    5.1324   10.9341    5.3387 C   0  0  0  0  0  0  0  0  0  0  0  0
    5.3547   11.9803    5.4870 H   0  0  0  0  0  0  0  0  0  0  0  0
    4.4138   10.5162    4.2360 C   0  0  0  0  0  0  0  0  0  0  0  0
    4.0568   11.2220    3.5027 H   0  0  0  0  0  0  0  0  0  0  0  0
    4.1432    9.1596    4.0747 C   0  0  0  0  0  0  0  0  0  0  0  0
    3.4153    8.6609    2.9247 C   0  0  0  0  0  0  0  0  0  0  0  0
    3.0577    9.2390    1.7215 C   0  0  0  0  0  0  0  0  0  0  0  0
    3.2240   10.2162    1.3235 H   0  0  0  0  0  0  0  0  0  0  0  0
    1.9010    8.2687   -0.2555 C   0  0  0  0  0  0  0  0  0  0  0  0
    1.5996    9.4649   -0.8942 C   0  0  0  0  0  0  0  0  0  0  0  0
    1.7669   10.4106   -0.4026 H   0  0  0  0  0  0  0  0  0  0  0  0
    1.0641    9.4425   -2.1688 C   0  0  0  0  0  0  0  0  0  0  0  0
    0.8328   10.3766   -2.6594 H   0  0  0  0  0  0  0  0  0  0  0  0
    0.8153    8.2431   -2.8233 C   0  0  0  0  0  0  0  0  0  0  0  0
    1.1136    7.0532   -2.1650 C   0  0  0  0  0  0  0  0  0  0  0  0
    0.9230    6.1118   -2.6588 H   0  0  0  0  0  0  0  0  0  0  0  0
    1.6517    7.0580   -0.8954 C   0  0  0  0  0  0  0  0  0  0  0  0
    1.8874    6.1396   -0.3824 H   0  0  0  0  0  0  0  0  0  0  0  0
    0.2487    8.2180   -4.2082 C   0  0  0  0  0  0  0  0  0  0  0  0
    1.0024    7.8685   -4.9136 H   0  0  0  0  0  0  0  0  0  0  0  0
   -0.5975    7.5356   -4.2627 H   0  0  0  0  0  0  0  0  0  0  0  0
   -0.0773    9.2080   -4.5160 H   0  0  0  0  0  0  0  0  0  0  0  0
  1 34  1  0  0  0  0
  1  2  1  0  0  0  0
  1  4  1  0  0  0  0
  3  1  1  0  0  0  0
  3 15  1  0  0  0  0
  4  5  1  0  0  0  0
  5  6  1  0  0  0  0
  6 19  1  0  0  0  0
  7  3  1  0  0  0  0
  8  7  1  0  0  0  0
  9  7  1  0  0  0  0
  9 11  2  0  0  0  0
 10  9  1  0  0  0  0
 11 13  1  0  0  0  0
 12 11  1  0  0  0  0
 13 15  2  0  0  0  0
 13 14  1  0  0  0  0
 15 16  1  0  0  0  0
 16  4  1  0  0  0  0
 16 17  2  0  0  0  0
 17 18  1  0  0  0  0
 17  6  1  0  0  0  0
 19 20  2  0  0  0  0
 19 27  1  0  0  0  0
 20 22  1  0  0  0  0
 21 20  1  0  0  0  0
 22 23  1  0  0  0  0
 22 24  2  0  0  0  0
 24 29  1  0  0  0  0
 25 26  1  0  0  0  0
 25 24  1  0  0  0  0
 27 25  2  0  0  0  0
 28 27  1  0  0  0  0
 29 31  1  0  0  0  0
 29 32  1  0  0  0  0
 29 30  1  0  0  0  0
 33  1  1  0  0  0  0
 34 38  1  0  0  0  0
 35 47  1  0  0  0  0
 35  1  1  0  0  0  0
 36 35  1  0  0  0  0
 37 48  1  0  0  0  0
 37 36  1  0  0  0  0
 38 40  1  0  0  0  0
 38 39  1  0  0  0  0
 40 41  1  0  0  0  0
 42 43  1  0  0  0  0
 42 40  2  0  0  0  0
 44 42  1  0  0  0  0
 45 44  1  0  0  0  0
 46 44  2  0  0  0  0
 46 34  1  0  0  0  0
 47 46  1  0  0  0  0
 48 47  2  0  0  0  0
 49 48  1  0  0  0  0
 50 37  1  0  0  0  0
 51 52  1  0  0  0  0
 51 50  1  0  0  0  0
 53 51  2  0  0  0  0
 54 53  1  0  0  0  0
 55 53  1  0  0  0  0
 55 56  2  0  0  0  0
 56 58  1  0  0  0  0
 57 56  1  0  0  0  0
 58 59  1  0  0  0  0
 58 50  2  0  0  0  0
 60 55  1  0  0  0  0
 61 60  1  0  0  0  0
 62 60  1  0  0  0  0
 63 60  1  0  0  0  0
M  END
$$$$
