CSD_code = GEWQEG | q = 0 | S = 0 | Stoichiometry = C12H26I2N2Pt | MND = 4
 OpenBabel04212202043D

 43 44  0  0  0  0  0  0  0  0999 V2000
    9.1257   -1.7333    6.0616 Pt  0  0  0  0  0  0  0  0  0  0  0  0
    7.9113   -1.4360    8.3731 I   0  0  0  0  0  0  0  0  0  0  0  0
   10.9706   -1.6544    7.0336 N   0  0  0  0  0  4  0  0  0  0  0  0
   10.7937   -1.7220    8.0428 H   0  0  0  0  0  0  0  0  0  0  0  0
   11.5351   -2.4678    6.7644 H   0  0  0  0  0  0  0  0  0  0  0  0
   11.7415   -0.4243    6.7797 C   0  0  0  0  0  0  0  0  0  0  0  0
   12.0839   -0.4505    5.7388 H   0  0  0  0  0  0  0  0  0  0  0  0
   10.8423    0.7969    6.9707 C   0  0  0  0  0  0  0  0  0  0  0  0
   10.4739    0.8242    7.9989 H   0  0  0  0  0  0  0  0  0  0  0  0
    9.9766    0.7203    6.2968 H   0  0  0  0  0  0  0  0  0  0  0  0
   11.6195    2.0735    6.6721 C   0  0  0  0  0  0  0  0  0  0  0  0
   11.9391    2.0682    5.6277 H   0  0  0  0  0  0  0  0  0  0  0  0
   10.9736    2.9399    6.8213 H   0  0  0  0  0  0  0  0  0  0  0  0
   12.8431    2.1725    7.5784 C   0  0  0  0  0  0  0  0  0  0  0  0
   12.5191    2.2409    8.6194 H   0  0  0  0  0  0  0  0  0  0  0  0
   13.4060    3.0771    7.3434 H   0  0  0  0  0  0  0  0  0  0  0  0
   13.7377    0.9486    7.4048 C   0  0  0  0  0  0  0  0  0  0  0  0
   14.5985    1.0162    8.0722 H   0  0  0  0  0  0  0  0  0  0  0  0
   14.1109    0.9139    6.3789 H   0  0  0  0  0  0  0  0  0  0  0  0
   12.9585   -0.3307    7.7003 C   0  0  0  0  0  0  0  0  0  0  0  0
   13.6055   -1.2005    7.5576 H   0  0  0  0  0  0  0  0  0  0  0  0
   12.6268   -0.3201    8.7427 H   0  0  0  0  0  0  0  0  0  0  0  0
   10.3386   -2.0338    3.7517 I   0  0  0  0  0  0  0  0  0  0  0  0
    7.2814   -1.8153    5.0888 N   0  0  0  0  0  4  0  0  0  0  0  0
    7.4583   -1.7478    4.0795 H   0  0  0  0  0  0  0  0  0  0  0  0
    6.7169   -1.0018    5.3578 H   0  0  0  0  0  0  0  0  0  0  0  0
    6.5102   -3.0452    5.3428 C   0  0  0  0  0  0  0  0  0  0  0  0
    6.1679   -3.0189    6.3837 H   0  0  0  0  0  0  0  0  0  0  0  0
    7.4094   -4.2664    5.1519 C   0  0  0  0  0  0  0  0  0  0  0  0
    7.7777   -4.2937    4.1236 H   0  0  0  0  0  0  0  0  0  0  0  0
    8.2751   -4.1898    5.8257 H   0  0  0  0  0  0  0  0  0  0  0  0
    6.6322   -5.5431    5.4504 C   0  0  0  0  0  0  0  0  0  0  0  0
    6.3127   -5.5378    6.4948 H   0  0  0  0  0  0  0  0  0  0  0  0
    7.2782   -6.4095    5.3011 H   0  0  0  0  0  0  0  0  0  0  0  0
    5.4086   -5.6420    4.5441 C   0  0  0  0  0  0  0  0  0  0  0  0
    5.7326   -5.7104    3.5031 H   0  0  0  0  0  0  0  0  0  0  0  0
    4.8458   -6.5466    4.7791 H   0  0  0  0  0  0  0  0  0  0  0  0
    4.5140   -4.4182    4.7178 C   0  0  0  0  0  0  0  0  0  0  0  0
    3.6532   -4.4857    4.0505 H   0  0  0  0  0  0  0  0  0  0  0  0
    4.1408   -4.3835    5.7437 H   0  0  0  0  0  0  0  0  0  0  0  0
    5.2931   -3.1389    4.4223 C   0  0  0  0  0  0  0  0  0  0  0  0
    4.6462   -2.2691    4.5651 H   0  0  0  0  0  0  0  0  0  0  0  0
    5.6248   -3.1494    3.3799 H   0  0  0  0  0  0  0  0  0  0  0  0
  1  3  1  0  0  0  0
  1  2  1  0  0  0  0
  3  4  1  0  0  0  0
  5  3  1  0  0  0  0
  6  8  1  0  0  0  0
  6  3  1  0  0  0  0
  6 20  1  0  0  0  0
  7  6  1  0  0  0  0
  8  9  1  0  0  0  0
 10  8  1  0  0  0  0
 11 13  1  0  0  0  0
 11  8  1  0  0  0  0
 11 14  1  0  0  0  0
 12 11  1  0  0  0  0
 14 15  1  0  0  0  0
 16 14  1  0  0  0  0
 17 14  1  0  0  0  0
 17 20  1  0  0  0  0
 17 18  1  0  0  0  0
 19 17  1  0  0  0  0
 20 22  1  0  0  0  0
 21 20  1  0  0  0  0
 23  1  1  0  0  0  0
 24 27  1  0  0  0  0
 24 26  1  0  0  0  0
 24  1  1  0  0  0  0
 25 24  1  0  0  0  0
 27 28  1  0  0  0  0
 29 27  1  0  0  0  0
 29 32  1  0  0  0  0
 29 31  1  0  0  0  0
 30 29  1  0  0  0  0
 32 33  1  0  0  0  0
 34 32  1  0  0  0  0
 35 38  1  0  0  0  0
 35 37  1  0  0  0  0
 35 32  1  0  0  0  0
 36 35  1  0  0  0  0
 38 40  1  0  0  0  0
 39 38  1  0  0  0  0
 41 42  1  0  0  0  0
 41 38  1  0  0  0  0
 41 27  1  0  0  0  0
 43 41  1  0  0  0  0
M  END
$$$$
