CSD_code = GEXPEG | q = 0 | S = 0 | Stoichiometry = C16H19Cl2NP2PdS2 | MND = 4
 OpenBabel04212202043D

 43 47  0  0  1  0  0  0  0  0999 V2000
    4.7078    0.5486   17.8543 Pd  0  0  0  0  0  0  0  0  0  0  0  0
    3.0804   -0.8972   17.3451 Cl  0  0  0  0  0  0  0  0  0  0  0  0
    3.5686    0.9820   19.7335 Cl  0  0  0  0  0  0  0  0  0  0  0  0
    5.5442    0.1150   15.5613 S   0  0  0  0  0  0  0  0  0  0  0  0
    6.3234    2.2568   18.5791 S   0  0  0  0  0  0  0  0  0  0  0  0
    7.3882    0.2809   16.2009 P   0  0  1  0  0  4  0  0  0  0  0  0
    7.0514    0.5068   19.1296 P   0  0  0  0  0  0  0  0  0  0  0  0
    7.7302   -0.2754   17.7802 N   0  0  1  0  0  0  0  0  0  0  0  0
    8.5172   -0.9644   15.4458 C   0  0  0  0  0  0  0  0  0  0  0  0
    8.1402   -1.2608   14.4671 H   0  0  0  0  0  0  0  0  0  0  0  0
    9.5214   -0.5511   15.3326 H   0  0  0  0  0  0  0  0  0  0  0  0
    8.4817   -2.1036   16.4620 C   0  0  0  0  0  0  0  0  0  0  0  0
    7.5177   -2.6139   16.3939 H   0  0  0  0  0  0  0  0  0  0  0  0
    9.2767   -2.8298   16.2946 H   0  0  0  0  0  0  0  0  0  0  0  0
    8.6054   -1.4438   17.8325 C   0  0  0  0  0  0  0  0  0  0  0  0
    8.2880   -2.1106   18.6388 H   0  0  0  0  0  0  0  0  0  0  0  0
    9.6428   -1.1386   18.0176 H   0  0  0  0  0  0  0  0  0  0  0  0
    8.1608    1.9152   16.0205 C   0  0  0  0  0  0  0  0  0  0  0  0
    9.4527    2.1387   16.4811 C   0  0  0  0  0  0  0  0  0  0  0  0
   10.0014    1.3416   16.9653 H   0  0  0  0  0  0  0  0  0  0  0  0
   10.0203    3.3890   16.3270 C   0  0  0  0  0  0  0  0  0  0  0  0
   11.0216    3.5736   16.6874 H   0  0  0  0  0  0  0  0  0  0  0  0
    9.3041    4.4055   15.7133 C   0  0  0  0  0  0  0  0  0  0  0  0
    9.7509    5.3819   15.6012 H   0  0  0  0  0  0  0  0  0  0  0  0
    8.0190    4.1764   15.2493 C   0  0  0  0  0  0  0  0  0  0  0  0
    7.4632    4.9714   14.7763 H   0  0  0  0  0  0  0  0  0  0  0  0
    7.4434    2.9283   15.4000 C   0  0  0  0  0  0  0  0  0  0  0  0
    6.4342    2.7324   15.0614 H   0  0  0  0  0  0  0  0  0  0  0  0
    6.1404   -0.7955   20.0435 C   0  0  0  0  0  0  0  0  0  0  0  0
    5.5480   -1.8506   19.3447 C   0  0  0  0  0  0  0  0  0  0  0  0
    5.6900   -1.9585   18.2676 H   0  0  0  0  0  0  0  0  0  0  0  0
    4.7769   -2.7704   20.0312 C   0  0  0  0  0  0  0  0  0  0  0  0
    4.3028   -3.5751   19.4909 H   0  0  0  0  0  0  0  0  0  0  0  0
    4.5880   -2.6369   21.3991 C   0  0  0  0  0  0  0  0  0  0  0  0
    3.9644   -3.3433   21.9255 H   0  0  0  0  0  0  0  0  0  0  0  0
    5.1797   -1.5921   22.0882 C   0  0  0  0  0  0  0  0  0  0  0  0
    5.0203   -1.4828   23.1502 H   0  0  0  0  0  0  0  0  0  0  0  0
    5.9549   -0.6648   21.4133 C   0  0  0  0  0  0  0  0  0  0  0  0
    6.3860    0.1743   21.9399 H   0  0  0  0  0  0  0  0  0  0  0  0
    8.5231    0.8529   20.1709 C   0  0  0  0  0  0  0  0  0  0  0  0
    9.0064   -0.0631   20.5043 H   0  0  0  0  0  0  0  0  0  0  0  0
    8.2064    1.4342   21.0343 H   0  0  0  0  0  0  0  0  0  0  0  0
    9.2148    1.4598   19.5872 H   0  0  0  0  0  0  0  0  0  0  0  0
  1  5  1  0  0  0  0
  1  7  1  0  0  0  0
  1  3  1  0  0  0  0
  2  1  1  0  0  0  0
  4  6  1  0  0  0  0
  4  1  1  0  0  0  0
  5  7  1  0  0  0  0
  6 18  1  6  0  0  0
  6  8  1  0  0  0  0
  7 29  1  0  0  0  0
  7 40  1  0  0  0  0
  8 15  1  6  0  0  0
  8  7  1  0  0  0  0
  9  6  1  0  0  0  0
  9 12  1  0  0  0  0
 10  9  1  0  0  0  0
 11  9  1  0  0  0  0
 12 15  1  0  0  0  0
 13 12  1  0  0  0  0
 14 12  1  0  0  0  0
 15 17  1  0  0  0  0
 15 16  1  0  0  0  0
 18 19  1  0  0  0  0
 19 20  1  0  0  0  0
 21 19  2  0  0  0  0
 21 22  1  0  0  0  0
 23 21  1  0  0  0  0
 24 23  1  0  0  0  0
 25 27  1  0  0  0  0
 25 23  2  0  0  0  0
 26 25  1  0  0  0  0
 27 18  2  0  0  0  0
 28 27  1  0  0  0  0
 29 38  1  0  0  0  0
 30 32  1  0  0  0  0
 30 29  2  0  0  0  0
 31 30  1  0  0  0  0
 32 34  2  0  0  0  0
 33 32  1  0  0  0  0
 34 35  1  0  0  0  0
 34 36  1  0  0  0  0
 36 37  1  0  0  0  0
 38 39  1  0  0  0  0
 38 36  2  0  0  0  0
 40 41  1  0  0  0  0
 40 42  1  0  0  0  0
 43 40  1  0  0  0  0
M  END
$$$$
