CSD_code = GEYBIY | q = 0 | S = 0 | Stoichiometry = C10H8BrN2O3ReS | MND = 6
 OpenBabel04212202043D

 26 27  0  0  1  0  0  0  0  0999 V2000
    6.8812    6.3558    1.9239 Re  0  0  0  0  0  0  0  0  0  0  0  0
    6.2334    6.4175    4.4114 Br  0  0  0  0  0  0  0  0  0  0  0  0
    8.0646    4.1754    2.5474 S   0  0  0  0  0  0  0  0  0  0  0  0
    8.4439    7.4448    2.3719 C   0  0  0  0  0  2  0  0  0  0  0  0
    5.2746    4.9487    1.7872 N   0  0  0  0  0  0  0  0  0  0  0  0
    5.1310    8.8438    1.3560 O   0  0  0  0  0  1  0  0  0  0  0  0
    3.0524    4.3080    1.1931 C   0  0  0  0  0  0  0  0  0  0  0  0
    2.1610    4.5283    0.6294 H   0  0  0  0  0  0  0  0  0  0  0  0
    6.6422    3.6095    3.2435 C   0  0  1  0  0  3  0  0  0  0  0  0
    4.1443    5.1500    1.1120 C   0  0  0  0  0  3  0  0  0  0  0  0
    4.1156    6.0304    0.4824 H   0  0  0  0  0  0  0  0  0  0  0  0
    7.9209    2.5643    5.0133 C   0  0  0  0  0  0  0  0  0  0  0  0
    8.6480    2.1023    4.3439 H   0  0  0  0  0  0  0  0  0  0  0  0
    7.7296    1.9054    5.8550 H   0  0  0  0  0  0  0  0  0  0  0  0
    8.3408    3.5083    5.3743 H   0  0  0  0  0  0  0  0  0  0  0  0
    5.3612    3.8625    2.5811 C   0  0  0  0  0  0  0  0  0  0  0  0
    3.1314    3.1874    2.0092 C   0  0  0  0  0  0  0  0  0  0  0  0
    2.3016    2.5036    2.0961 H   0  0  0  0  0  0  0  0  0  0  0  0
    4.3018    2.9605    2.7046 C   0  0  0  0  0  0  0  0  0  0  0  0
    4.4083    2.0809    3.3199 H   0  0  0  0  0  0  0  0  0  0  0  0
    5.8004    7.9332    1.5535 C   0  0  0  0  0  2  0  0  0  0  0  0
    7.6804    5.9267   -1.0228 O   0  0  0  0  0  1  0  0  0  0  0  0
    7.3844    6.1054    0.0676 C   0  0  0  0  0  2  0  0  0  0  0  0
    9.3645    8.0051    2.7464 O   0  0  0  0  0  1  0  0  0  0  0  0
    6.6888    2.7996    4.3038 N   0  0  0  0  0  0  0  0  0  0  0  0
    5.8321    2.6372    4.8121 H   0  0  0  0  0  0  0  0  0  0  0  0
  1  4  1  0  0  0  0
  1  3  1  0  0  0  0
  1  2  1  0  0  0  0
  3  9  1  0  0  0  0
  4 24  1  0  0  0  0
  5  1  1  0  0  0  0
  5 16  1  0  0  0  0
  6 21  1  0  0  0  0
  7 17  2  0  0  0  0
  8  7  1  0  0  0  0
  9 25  1  6  0  0  0
 10  7  1  0  0  0  0
 10  5  1  0  0  0  0
 11 10  1  0  0  0  0
 12 15  1  0  0  0  0
 12 14  1  0  0  0  0
 13 12  1  0  0  0  0
 16 19  2  0  0  0  0
 16  9  1  0  0  0  0
 17 18  1  0  0  0  0
 17 19  1  0  0  0  0
 19 20  1  0  0  0  0
 21  1  1  0  0  0  0
 22 23  1  0  0  0  0
 23  1  1  0  0  0  0
 25 26  1  0  0  0  0
 25 12  1  0  0  0  0
M  END
$$$$
