CSD_code = GEYWUE | q = 0 | S = 0 | Stoichiometry = C20H30Cl2N8Pt | MND = 4
 OpenBabel04212202043D

 61 63  0  0  0  0  0  0  0  0999 V2000
   -2.5102    5.9469    3.6128 Pt  0  0  0  0  0  0  0  0  0  0  0  0
   -2.8484    7.5598    2.0853 Cl  0  0  0  0  0  0  0  0  0  0  0  0
   -3.4639    0.9840    4.6085 N   0  0  0  0  0  2  0  0  0  0  0  0
   -4.4550   -1.0497    4.9116 N   0  0  0  0  0  0  0  0  0  0  0  0
   -2.2923   -0.7553    5.7119 N   0  0  0  0  0  0  0  0  0  0  0  0
   -2.3557    4.4267    4.8999 N   0  0  0  0  0  0  0  0  0  0  0  0
   -2.9044    2.1017    5.1422 C   0  0  0  0  0  0  0  0  0  0  0  0
   -2.8798    2.2807    6.5359 C   0  0  0  0  0  0  0  0  0  0  0  0
   -3.1721    1.4557    7.1708 H   0  0  0  0  0  0  0  0  0  0  0  0
   -2.5516    3.5063    7.0744 C   0  0  0  0  0  0  0  0  0  0  0  0
   -2.5136    3.6524    8.1422 H   0  0  0  0  0  0  0  0  0  0  0  0
   -2.3260    4.5710    6.2208 C   0  0  0  0  0  0  0  0  0  0  0  0
   -2.1340    5.5696    6.5881 H   0  0  0  0  0  0  0  0  0  0  0  0
   -2.5539    3.2120    4.3398 C   0  0  0  0  0  0  0  0  0  0  0  0
   -3.3889   -0.2123    5.0871 C   0  0  0  0  0  3  0  0  0  0  0  0
   -5.7621   -0.4907    4.6595 C   0  0  0  0  0  0  0  0  0  0  0  0
   -5.7577    0.5614    4.9296 H   0  0  0  0  0  0  0  0  0  0  0  0
   -6.4978   -1.0213    5.2691 H   0  0  0  0  0  0  0  0  0  0  0  0
   -6.0521   -0.5802    3.6095 H   0  0  0  0  0  0  0  0  0  0  0  0
   -4.3106   -2.4347    4.5354 C   0  0  0  0  0  0  0  0  0  0  0  0
   -3.2681   -2.7328    4.5849 H   0  0  0  0  0  0  0  0  0  0  0  0
   -4.6686   -2.5825    3.5105 H   0  0  0  0  0  0  0  0  0  0  0  0
   -4.9017   -3.0772    5.1942 H   0  0  0  0  0  0  0  0  0  0  0  0
   -2.4359   -1.6799    6.8147 C   0  0  0  0  0  0  0  0  0  0  0  0
   -3.4800   -1.9405    6.9618 H   0  0  0  0  0  0  0  0  0  0  0  0
   -2.0628   -1.2172    7.7348 H   0  0  0  0  0  0  0  0  0  0  0  0
   -1.8580   -2.5916    6.6374 H   0  0  0  0  0  0  0  0  0  0  0  0
   -1.0180   -0.0790    5.6731 C   0  0  0  0  0  0  0  0  0  0  0  0
   -0.9451    0.5036    4.7562 H   0  0  0  0  0  0  0  0  0  0  0  0
   -0.2301   -0.8353    5.6905 H   0  0  0  0  0  0  0  0  0  0  0  0
   -0.8730    0.5858    6.5328 H   0  0  0  0  0  0  0  0  0  0  0  0
   -1.5539    0.9840    2.6175 N   0  0  0  0  0  2  0  0  0  0  0  0
   -0.5634   -1.0500    2.3143 N   0  0  0  0  0  0  0  0  0  0  0  0
   -2.7259   -0.7550    1.5140 N   0  0  0  0  0  0  0  0  0  0  0  0
   -2.6627    4.4266    2.3257 N   0  0  0  0  0  0  0  0  0  0  0  0
   -2.1133    2.1017    2.0836 C   0  0  0  0  0  0  0  0  0  0  0  0
   -2.1375    2.2807    0.6899 C   0  0  0  0  0  0  0  0  0  0  0  0
   -1.8449    1.4557    0.0551 H   0  0  0  0  0  0  0  0  0  0  0  0
   -2.4659    3.5062    0.1513 C   0  0  0  0  0  0  0  0  0  0  0  0
   -2.5035    3.6522   -0.9166 H   0  0  0  0  0  0  0  0  0  0  0  0
   -2.6921    4.5708    1.0048 C   0  0  0  0  0  0  0  0  0  0  0  0
   -2.8845    5.5693    0.6374 H   0  0  0  0  0  0  0  0  0  0  0  0
   -2.4643    3.2119    2.8860 C   0  0  0  0  0  0  0  0  0  0  0  0
   -1.6292   -0.2123    2.1388 C   0  0  0  0  0  3  0  0  0  0  0  0
    0.7440   -0.4914    2.5665 C   0  0  0  0  0  0  0  0  0  0  0  0
    0.7398    0.5608    2.2964 H   0  0  0  0  0  0  0  0  0  0  0  0
    1.4795   -1.0222    1.9568 H   0  0  0  0  0  0  0  0  0  0  0  0
    1.0339   -0.5810    3.6165 H   0  0  0  0  0  0  0  0  0  0  0  0
   -0.7081   -2.4349    2.6905 C   0  0  0  0  0  0  0  0  0  0  0  0
   -1.7507   -2.7328    2.6411 H   0  0  0  0  0  0  0  0  0  0  0  0
   -0.3501   -2.5830    3.7153 H   0  0  0  0  0  0  0  0  0  0  0  0
   -0.1174   -3.0776    2.0316 H   0  0  0  0  0  0  0  0  0  0  0  0
   -2.5825   -1.6795    0.4111 C   0  0  0  0  0  0  0  0  0  0  0  0
   -1.5385   -1.9404    0.2641 H   0  0  0  0  0  0  0  0  0  0  0  0
   -2.9554   -1.2166   -0.5090 H   0  0  0  0  0  0  0  0  0  0  0  0
   -3.1607   -2.5911    0.5882 H   0  0  0  0  0  0  0  0  0  0  0  0
   -4.0000   -0.0784    1.5527 C   0  0  0  0  0  0  0  0  0  0  0  0
   -4.0729    0.5040    2.4697 H   0  0  0  0  0  0  0  0  0  0  0  0
   -4.7881   -0.8345    1.5352 H   0  0  0  0  0  0  0  0  0  0  0  0
   -4.1449    0.5865    0.6931 H   0  0  0  0  0  0  0  0  0  0  0  0
   -2.1743    7.5591    5.1405 Cl  0  0  0  0  0  0  0  0  0  0  0  0
  1  6  1  0  0  0  0
  1 61  1  0  0  0  0
  2  1  1  0  0  0  0
  3 15  1  0  0  0  0
  3  7  1  0  0  0  0
  4 15  1  0  0  0  0
  5 24  1  0  0  0  0
  6 12  1  0  0  0  0
  7  8  2  0  0  0  0
  8 10  1  0  0  0  0
  8  9  1  0  0  0  0
 10 11  1  0  0  0  0
 12 13  1  0  0  0  0
 12 10  2  0  0  0  0
 14  6  1  0  0  0  0
 14  7  1  0  0  0  0
 15  5  1  0  0  0  0
 16  4  1  0  0  0  0
 16 17  1  0  0  0  0
 16 18  1  0  0  0  0
 19 16  1  0  0  0  0
 20 21  1  0  0  0  0
 20  4  1  0  0  0  0
 20 23  1  0  0  0  0
 22 20  1  0  0  0  0
 24 25  1  0  0  0  0
 24 26  1  0  0  0  0
 27 24  1  0  0  0  0
 28 30  1  0  0  0  0
 28  5  1  0  0  0  0
 28 31  1  0  0  0  0
 29 28  1  0  0  0  0
 33 45  1  0  0  0  0
 33 49  1  0  0  0  0
 34 57  1  0  0  0  0
 34 44  1  0  0  0  0
 35 43  1  0  0  0  0
 35  1  1  0  0  0  0
 36 32  1  0  0  0  0
 36 43  1  0  0  0  0
 37 36  2  0  0  0  0
 38 37  1  0  0  0  0
 39 37  1  0  0  0  0
 39 41  2  0  0  0  0
 40 39  1  0  0  0  0
 41 35  1  0  0  0  0
 42 41  1  0  0  0  0
 43 14  2  0  0  0  0
 44 33  1  0  0  0  0
 44 32  1  0  0  0  0
 45 48  1  0  0  0  0
 46 45  1  0  0  0  0
 47 45  1  0  0  0  0
 49 51  1  0  0  0  0
 50 49  1  0  0  0  0
 52 49  1  0  0  0  0
 53 56  1  0  0  0  0
 53 34  1  0  0  0  0
 54 53  1  0  0  0  0
 55 53  1  0  0  0  0
 57 58  1  0  0  0  0
 59 57  1  0  0  0  0
 60 57  1  0  0  0  0
M  END
$$$$
