CSD_code = GEYWEO | q = 0 | S = 0 | Stoichiometry = C20H26Cl2N8Pt | MND = 4
 OpenBabel04212202043D

 57 61  0  0  0  0  0  0  0  0999 V2000
    4.9609    6.4192    4.2196 Pt  0  0  0  0  0  0  0  0  0  0  0  0
    3.8538    6.1215    2.2870 Cl  0  0  0  0  0  0  0  0  0  0  0  0
    6.3874    7.7573    3.1170 Cl  0  0  0  0  0  0  0  0  0  0  0  0
    4.5007    6.0799    9.3594 N   0  0  0  0  0  2  0  0  0  0  0  0
    3.9250    5.8039   11.5877 N   0  0  0  0  0  0  0  0  0  0  0  0
    6.0330    5.3164   11.0227 N   0  0  0  0  0  0  0  0  0  0  0  0
    4.4322    3.5312    8.4784 N   0  0  0  0  0  2  0  0  0  0  0  0
    2.5707    3.2247    9.9406 N   0  0  0  0  0  0  0  0  0  0  0  0
    4.5628    2.3608   10.4749 N   0  0  0  0  0  0  0  0  0  0  0  0
    5.7881    6.6967    6.0160 N   0  0  0  0  0  0  0  0  0  0  0  0
    3.8341    5.1588    5.2827 N   0  0  0  0  0  0  0  0  0  0  0  0
    5.3612    6.4357    8.3642 C   0  0  0  0  0  0  0  0  0  0  0  0
    6.3608    7.3894    8.6155 C   0  0  0  0  0  0  0  0  0  0  0  0
    6.5310    7.7043    9.6350 H   0  0  0  0  0  0  0  0  0  0  0  0
    7.0650    7.9487    7.5708 C   0  0  0  0  0  0  0  0  0  0  0  0
    7.8409    8.6758    7.7499 H   0  0  0  0  0  0  0  0  0  0  0  0
    6.7253    7.6023    6.2752 C   0  0  0  0  0  0  0  0  0  0  0  0
    7.1978    8.0588    5.4164 H   0  0  0  0  0  0  0  0  0  0  0  0
    5.1533    6.0495    7.0202 C   0  0  0  0  0  0  0  0  0  0  0  0
    4.2281    5.0192    6.5695 C   0  0  0  0  0  0  0  0  0  0  0  0
    2.9243    4.3451    4.7575 C   0  0  0  0  0  0  0  0  0  0  0  0
    2.6490    4.5374    3.7297 H   0  0  0  0  0  0  0  0  0  0  0  0
    2.3727    3.3041    5.4828 C   0  0  0  0  0  0  0  0  0  0  0  0
    1.6252    2.6697    5.0339 H   0  0  0  0  0  0  0  0  0  0  0  0
    2.8333    3.0657    6.7599 C   0  0  0  0  0  0  0  0  0  0  0  0
    2.4976    2.2067    7.3230 H   0  0  0  0  0  0  0  0  0  0  0  0
    3.7984    3.9097    7.3328 C   0  0  0  0  0  0  0  0  0  0  0  0
    4.8356    5.7773   10.5576 C   0  0  0  0  0  3  0  0  0  0  0  0
    4.6095    5.5653   12.8435 C   0  0  0  0  0  0  0  0  0  0  0  0
    4.0105    4.9237   13.4950 H   0  0  0  0  0  0  0  0  0  0  0  0
    4.7926    6.5135   13.3700 H   0  0  0  0  0  0  0  0  0  0  0  0
    5.9205    4.9095   12.4063 C   0  0  0  0  0  0  0  0  0  0  0  0
    6.7799    5.2609   12.9840 H   0  0  0  0  0  0  0  0  0  0  0  0
    5.8694    3.8155   12.4826 H   0  0  0  0  0  0  0  0  0  0  0  0
    2.8464    6.7588   11.5771 C   0  0  0  0  0  0  0  0  0  0  0  0
    3.1425    7.7050   12.0460 H   0  0  0  0  0  0  0  0  0  0  0  0
    1.9918    6.3548   12.1212 H   0  0  0  0  0  0  0  0  0  0  0  0
    2.5697    6.9482   10.5436 H   0  0  0  0  0  0  0  0  0  0  0  0
    7.0685    4.7655   10.1866 C   0  0  0  0  0  0  0  0  0  0  0  0
    6.6436    4.4502    9.2337 H   0  0  0  0  0  0  0  0  0  0  0  0
    7.5099    3.9019   10.6821 H   0  0  0  0  0  0  0  0  0  0  0  0
    7.8527    5.5050    9.9999 H   0  0  0  0  0  0  0  0  0  0  0  0
    3.8608    3.0651    9.5251 C   0  0  0  0  0  3  0  0  0  0  0  0
    2.3950    2.6985   11.2764 C   0  0  0  0  0  0  0  0  0  0  0  0
    1.4691    2.1207   11.3458 H   0  0  0  0  0  0  0  0  0  0  0  0
    2.3553    3.5147   12.0095 H   0  0  0  0  0  0  0  0  0  0  0  0
    3.6430    1.8339   11.4643 C   0  0  0  0  0  0  0  0  0  0  0  0
    4.0673    1.9144   12.4685 H   0  0  0  0  0  0  0  0  0  0  0  0
    3.4287    0.7735   11.2667 H   0  0  0  0  0  0  0  0  0  0  0  0
    1.6762    4.2336    9.4338 C   0  0  0  0  0  0  0  0  0  0  0  0
    2.2507    5.0372    8.9730 H   0  0  0  0  0  0  0  0  0  0  0  0
    1.0907    4.6416   10.2565 H   0  0  0  0  0  0  0  0  0  0  0  0
    0.9943    3.8114    8.6899 H   0  0  0  0  0  0  0  0  0  0  0  0
    5.6819    1.5402   10.0877 C   0  0  0  0  0  0  0  0  0  0  0  0
    5.3630    0.5254    9.8210 H   0  0  0  0  0  0  0  0  0  0  0  0
    6.3931    1.4747   10.9120 H   0  0  0  0  0  0  0  0  0  0  0  0
    6.1577    1.9990    9.2253 H   0  0  0  0  0  0  0  0  0  0  0  0
  1 11  1  0  0  0  0
  1 10  1  0  0  0  0
  2  1  1  0  0  0  0
  3  1  1  0  0  0  0
  4 28  1  0  0  0  0
  5 29  1  0  0  0  0
  6 32  1  0  0  0  0
  7 43  1  0  0  0  0
  8 44  1  0  0  0  0
  9 47  1  0  0  0  0
 10 17  1  0  0  0  0
 10 19  1  0  0  0  0
 11 20  1  0  0  0  0
 12 13  2  0  0  0  0
 12  4  1  0  0  0  0
 13 14  1  0  0  0  0
 15 16  1  0  0  0  0
 15 13  1  0  0  0  0
 17 15  2  0  0  0  0
 18 17  1  0  0  0  0
 19 12  1  0  0  0  0
 20 19  2  0  0  0  0
 20 27  1  0  0  0  0
 21 11  1  0  0  0  0
 21 23  2  0  0  0  0
 22 21  1  0  0  0  0
 23 25  1  0  0  0  0
 24 23  1  0  0  0  0
 25 26  1  0  0  0  0
 25 27  2  0  0  0  0
 27  7  1  0  0  0  0
 28  6  1  0  0  0  0
 28  5  1  0  0  0  0
 29 31  1  0  0  0  0
 29 30  1  0  0  0  0
 32 34  1  0  0  0  0
 32 29  1  0  0  0  0
 32 33  1  0  0  0  0
 35  5  1  0  0  0  0
 35 36  1  0  0  0  0
 35 37  1  0  0  0  0
 38 35  1  0  0  0  0
 39 41  1  0  0  0  0
 39  6  1  0  0  0  0
 40 39  1  0  0  0  0
 42 39  1  0  0  0  0
 43  8  1  0  0  0  0
 43  9  1  0  0  0  0
 44 45  1  0  0  0  0
 44 47  1  0  0  0  0
 44 46  1  0  0  0  0
 47 48  1  0  0  0  0
 49 47  1  0  0  0  0
 50  8  1  0  0  0  0
 50 52  1  0  0  0  0
 51 50  1  0  0  0  0
 53 50  1  0  0  0  0
 54  9  1  0  0  0  0
 54 56  1  0  0  0  0
 55 54  1  0  0  0  0
 57 54  1  0  0  0  0
M  END
$$$$
