CSD_code = GEYXOZ | q = 0 | S = 0 | Stoichiometry = C22H28Br2N6Ni | MND = 4
 OpenBabel04212202043D

 59 63  0  0  0  0  0  0  0  0999 V2000
    2.9652    7.8243    1.2852 Ni  0  0  0  0  0  0  0  0  0  0  0  0
    1.4916    7.4902   -0.4322 Br  0  0  0  0  0  0  0  0  0  0  0  0
    5.0812    7.8335    2.1338 Br  0  0  0  0  0  0  0  0  0  0  0  0
    2.4797    9.9121    1.7722 N   0  0  0  0  0  0  0  0  0  0  0  0
    2.5793   10.9418   -0.3073 N   0  0  0  0  0  0  0  0  0  0  0  0
    1.5732   12.0829    1.3259 N   0  0  0  0  0  0  0  0  0  0  0  0
    2.2480    6.5441    2.4766 N   0  0  0  0  0  0  0  0  0  0  0  0
    2.3722    4.6842    3.9567 N   0  0  0  0  0  0  0  0  0  0  0  0
    3.6752    4.7092    2.1495 N   0  0  0  0  0  0  0  0  0  0  0  0
    2.5533    9.9823    3.1637 C   0  0  0  0  0  0  0  0  0  0  0  0
    3.4575   10.8751    3.7485 C   0  0  0  0  0  0  0  0  0  0  0  0
    4.0210   11.5325    3.1017 H   0  0  0  0  0  0  0  0  0  0  0  0
    3.6519   10.8971    5.1125 C   0  0  0  0  0  0  0  0  0  0  0  0
    4.3656   11.5849    5.5408 H   0  0  0  0  0  0  0  0  0  0  0  0
    2.9364   10.0347    5.9279 C   0  0  0  0  0  0  0  0  0  0  0  0
    3.0872   10.0414    6.9969 H   0  0  0  0  0  0  0  0  0  0  0  0
    2.0231    9.1646    5.3637 C   0  0  0  0  0  0  0  0  0  0  0  0
    1.4454    8.5023    5.9949 H   0  0  0  0  0  0  0  0  0  0  0  0
    1.8244    9.1105    3.9881 C   0  0  0  0  0  0  0  0  0  0  0  0
    0.7508    8.2150    3.4930 C   0  0  0  0  0  0  0  0  0  0  0  0
   -0.5600    8.5903    3.7754 C   0  0  0  0  0  0  0  0  0  0  0  0
   -0.7265    9.5356    4.2739 H   0  0  0  0  0  0  0  0  0  0  0  0
   -1.6338    7.7912    3.4340 C   0  0  0  0  0  0  0  0  0  0  0  0
   -2.6400    8.1166    3.6511 H   0  0  0  0  0  0  0  0  0  0  0  0
   -1.4105    6.5721    2.8128 C   0  0  0  0  0  0  0  0  0  0  0  0
   -2.2399    5.9362    2.5431 H   0  0  0  0  0  0  0  0  0  0  0  0
   -0.1225    6.1744    2.5288 C   0  0  0  0  0  0  0  0  0  0  0  0
    0.0648    5.2363    2.0265 H   0  0  0  0  0  0  0  0  0  0  0  0
    0.9709    6.9847    2.8555 C   0  0  0  0  0  0  0  0  0  0  0  0
    2.2350   10.9193    1.0026 C   0  0  0  0  0  3  0  0  0  0  0  0
    2.1982   12.1877   -0.9298 C   0  0  0  0  0  0  0  0  0  0  0  0
    1.7090   12.0029   -1.8901 H   0  0  0  0  0  0  0  0  0  0  0  0
    3.0852   12.8128   -1.1052 H   0  0  0  0  0  0  0  0  0  0  0  0
    1.2611   12.8090    0.1054 C   0  0  0  0  0  0  0  0  0  0  0  0
    1.4343   13.8785    0.2490 H   0  0  0  0  0  0  0  0  0  0  0  0
    0.2082   12.6579   -0.1691 H   0  0  0  0  0  0  0  0  0  0  0  0
    3.6271   10.1589   -0.8986 C   0  0  0  0  0  0  0  0  0  0  0  0
    3.8925    9.3366   -0.2246 H   0  0  0  0  0  0  0  0  0  0  0  0
    4.5219   10.7676   -1.0696 H   0  0  0  0  0  0  0  0  0  0  0  0
    3.2873    9.7363   -1.8454 H   0  0  0  0  0  0  0  0  0  0  0  0
    0.5858   12.1543    2.3747 C   0  0  0  0  0  0  0  0  0  0  0  0
   -0.3359   11.6259    2.1004 H   0  0  0  0  0  0  0  0  0  0  0  0
    0.3530   13.2040    2.5526 H   0  0  0  0  0  0  0  0  0  0  0  0
    0.9820   11.7241    3.2912 H   0  0  0  0  0  0  0  0  0  0  0  0
    2.7273    5.3842    2.8274 C   0  0  0  0  0  3  0  0  0  0  0  0
    3.3297    3.6072    4.1661 C   0  0  0  0  0  0  0  0  0  0  0  0
    2.8063    2.6974    4.4694 H   0  0  0  0  0  0  0  0  0  0  0  0
    4.0435    3.8833    4.9526 H   0  0  0  0  0  0  0  0  0  0  0  0
    4.0226    3.4730    2.8117 C   0  0  0  0  0  0  0  0  0  0  0  0
    5.1085    3.3784    2.8968 H   0  0  0  0  0  0  0  0  0  0  0  0
    3.6411    2.6185    2.2373 H   0  0  0  0  0  0  0  0  0  0  0  0
    1.8816    5.3316    5.1517 C   0  0  0  0  0  0  0  0  0  0  0  0
    2.6055    6.0532    5.5476 H   0  0  0  0  0  0  0  0  0  0  0  0
    1.6997    4.5611    5.8992 H   0  0  0  0  0  0  0  0  0  0  0  0
    0.9438    5.8441    4.9476 H   0  0  0  0  0  0  0  0  0  0  0  0
    4.0547    4.8800    0.7741 C   0  0  0  0  0  0  0  0  0  0  0  0
    3.6425    4.0738    0.1593 H   0  0  0  0  0  0  0  0  0  0  0  0
    5.1426    4.8833    0.6941 H   0  0  0  0  0  0  0  0  0  0  0  0
    3.6753    5.8388    0.3935 H   0  0  0  0  0  0  0  0  0  0  0  0
  1  4  1  0  0  0  0
  1  3  1  0  0  0  0
  1  7  1  0  0  0  0
  2  1  1  0  0  0  0
  4 10  1  0  0  0  0
  5 30  1  0  0  0  0
  6 41  1  0  0  0  0
  7 45  1  0  0  0  0
  7 29  1  0  0  0  0
  8 46  1  0  0  0  0
  8 52  1  0  0  0  0
  9 49  1  0  0  0  0
  9 45  1  0  0  0  0
 10 11  2  0  0  0  0
 10 19  1  0  0  0  0
 11 13  1  0  0  0  0
 12 11  1  0  0  0  0
 13 14  1  0  0  0  0
 13 15  2  0  0  0  0
 15 16  1  0  0  0  0
 17 15  1  0  0  0  0
 17 18  1  0  0  0  0
 19 17  2  0  0  0  0
 20 21  1  0  0  0  0
 20 19  1  0  0  0  0
 21 22  1  0  0  0  0
 23 24  1  0  0  0  0
 23 21  2  0  0  0  0
 25 23  1  0  0  0  0
 26 25  1  0  0  0  0
 27 25  2  0  0  0  0
 27 29  1  0  0  0  0
 28 27  1  0  0  0  0
 29 20  2  0  0  0  0
 30  6  1  0  0  0  0
 30  4  1  0  0  0  0
 31  5  1  0  0  0  0
 31 34  1  0  0  0  0
 32 31  1  0  0  0  0
 33 31  1  0  0  0  0
 34 35  1  0  0  0  0
 34  6  1  0  0  0  0
 36 34  1  0  0  0  0
 37  5  1  0  0  0  0
 37 38  1  0  0  0  0
 39 37  1  0  0  0  0
 40 37  1  0  0  0  0
 41 43  1  0  0  0  0
 41 44  1  0  0  0  0
 42 41  1  0  0  0  0
 45  8  1  0  0  0  0
 46 47  1  0  0  0  0
 46 48  1  0  0  0  0
 49 50  1  0  0  0  0
 49 46  1  0  0  0  0
 51 49  1  0  0  0  0
 52 53  1  0  0  0  0
 52 54  1  0  0  0  0
 55 52  1  0  0  0  0
 56  9  1  0  0  0  0
 57 56  1  0  0  0  0
 58 56  1  0  0  0  0
 59 56  1  0  0  0  0
M  END
$$$$
