CSD_code = GEZGEA | q = 0 | S = 0 | Stoichiometry = C12H19Br2NNiS2 | MND = 5
 OpenBabel04212202043D

 37 39  0  0  0  0  0  0  0  0999 V2000
    4.0837    5.4308    2.6379 Br  0  0  0  0  0  0  0  0  0  0  0  0
    5.6141    9.6802    2.6534 C   0  0  0  0  0  0  0  0  0  0  0  0
    2.6394    7.8370   -0.7286 Br  0  0  0  0  0  0  0  0  0  0  0  0
    6.1898   10.9252    2.8807 C   0  0  0  0  0  0  0  0  0  0  0  0
    6.0114   11.7470    2.2014 H   0  0  0  0  0  0  0  0  0  0  0  0
    3.7944    7.2553    1.2523 Ni  0  0  0  0  0  0  0  0  0  0  0  0
    5.5323    6.8058   -0.0292 S   0  0  1  0  0  3  0  0  0  0  0  0
    2.0699    8.0668    2.3603 S   0  0  2  0  0  3  0  0  0  0  0  0
    4.7584    9.4279    1.5131 N   0  0  0  0  0  4  0  0  0  0  0  0
    5.5107    9.5745    0.2595 C   0  0  0  0  0  0  0  0  0  0  0  0
    4.8049    9.5986   -0.5745 H   0  0  0  0  0  0  0  0  0  0  0  0
    6.0989   10.5031    0.2405 H   0  0  0  0  0  0  0  0  0  0  0  0
    6.4513    8.3923    0.0850 C   0  0  0  0  0  0  0  0  0  0  0  0
    7.1311    8.3119    0.9337 H   0  0  0  0  0  0  0  0  0  0  0  0
    7.0225    8.4922   -0.8380 H   0  0  0  0  0  0  0  0  0  0  0  0
    6.7808    5.7370    0.7328 C   0  0  0  0  0  0  0  0  0  0  0  0
    7.6719    5.7721    0.1118 H   0  0  0  0  0  0  0  0  0  0  0  0
    7.0001    6.0549    1.7476 H   0  0  0  0  0  0  0  0  0  0  0  0
    6.3770    4.7294    0.7481 H   0  0  0  0  0  0  0  0  0  0  0  0
    3.5629   10.2807    1.5610 C   0  0  0  0  0  0  0  0  0  0  0  0
    3.8148   11.3333    1.7523 H   0  0  0  0  0  0  0  0  0  0  0  0
    3.0494   10.2218    0.5982 H   0  0  0  0  0  0  0  0  0  0  0  0
    6.9994   11.1203    3.9848 C   0  0  0  0  0  0  0  0  0  0  0  0
    7.4417   12.0906    4.1556 H   0  0  0  0  0  0  0  0  0  0  0  0
    2.6297    9.7916    2.6575 C   0  0  0  0  0  0  0  0  0  0  0  0
    1.7336   10.4109    2.6989 H   0  0  0  0  0  0  0  0  0  0  0  0
    3.1327    9.8038    3.6248 H   0  0  0  0  0  0  0  0  0  0  0  0
    7.2438   10.0811    4.8679 C   0  0  0  0  0  0  0  0  0  0  0  0
    7.8766   10.2409    5.7276 H   0  0  0  0  0  0  0  0  0  0  0  0
    1.9727    7.5344    4.0893 C   0  0  0  0  0  0  0  0  0  0  0  0
    2.9387    7.6204    4.5779 H   0  0  0  0  0  0  0  0  0  0  0  0
    1.2281    8.1511    4.5854 H   0  0  0  0  0  0  0  0  0  0  0  0
    1.6568    6.4956    4.0911 H   0  0  0  0  0  0  0  0  0  0  0  0
    6.6749    8.8401    4.6433 C   0  0  0  0  0  0  0  0  0  0  0  0
    6.8581    8.0220    5.3231 H   0  0  0  0  0  0  0  0  0  0  0  0
    5.8635    8.6437    3.5394 C   0  0  0  0  0  0  0  0  0  0  0  0
    5.4149    7.6740    3.3603 H   0  0  0  0  0  0  0  0  0  0  0  0
  2  4  2  0  0  0  0
  2 36  1  0  0  0  0
  3  6  1  0  0  0  0
  4 23  1  0  0  0  0
  5  4  1  0  0  0  0
  6  9  1  0  0  0  0
  6  8  1  0  0  0  0
  6  1  1  0  0  0  0
  7 13  1  0  0  0  0
  7 16  1  1  0  0  0
  7  6  1  0  0  0  0
  8 25  1  0  0  0  0
  8 30  1  1  0  0  0
  9 20  1  0  0  0  0
  9  2  1  0  0  0  0
 10  9  1  0  0  0  0
 11 10  1  0  0  0  0
 12 10  1  0  0  0  0
 13 10  1  0  0  0  0
 13 14  1  0  0  0  0
 15 13  1  0  0  0  0
 16 19  1  0  0  0  0
 16 18  1  0  0  0  0
 17 16  1  0  0  0  0
 20 21  1  0  0  0  0
 20 25  1  0  0  0  0
 22 20  1  0  0  0  0
 23 24  1  0  0  0  0
 23 28  2  0  0  0  0
 25 26  1  0  0  0  0
 25 27  1  0  0  0  0
 28 29  1  0  0  0  0
 30 33  1  0  0  0  0
 30 31  1  0  0  0  0
 30 32  1  0  0  0  0
 34 28  1  0  0  0  0
 34 35  1  0  0  0  0
 36 34  2  0  0  0  0
 37 36  1  0  0  0  0
M  END
$$$$
