CSD_code = GEZKAZ | q = 0 | S = 0 | Stoichiometry = C6H14Cl2N4Ru | MND = 6
 OpenBabel04212202043D

 27 28  0  0  0  0  0  0  0  0999 V2000
   -0.2052    4.4982    7.1333 Ru  0  0  0  0  0  0  0  0  0  0  0  0
   -1.7730    6.2703    7.5104 Cl  0  0  0  0  0  0  0  0  0  0  0  0
    1.3132    2.7120    6.7917 Cl  0  0  0  0  0  0  0  0  0  0  0  0
   -0.0784    4.7740    4.9809 N   0  0  0  0  0  4  0  0  0  0  0  0
   -0.9787    4.6564    4.5195 H   0  0  0  0  0  0  0  0  0  0  0  0
    0.5455    4.0106    4.7037 H   0  0  0  0  0  0  0  0  0  0  0  0
    0.3161    5.6587    4.6680 H   0  0  0  0  0  0  0  0  0  0  0  0
    1.5773    5.7179    7.3875 N   0  0  0  0  0  4  0  0  0  0  0  0
    2.3248    5.0305    7.2540 H   0  0  0  0  0  0  0  0  0  0  0  0
    1.6514    6.1133    8.3232 H   0  0  0  0  0  0  0  0  0  0  0  0
    1.6959    6.4777    6.7205 H   0  0  0  0  0  0  0  0  0  0  0  0
   -0.5145    4.0968    9.2486 N   0  0  0  0  0  4  0  0  0  0  0  0
    0.2140    4.1911    9.9563 H   0  0  0  0  0  0  0  0  0  0  0  0
   -1.2202    4.8350    9.3925 H   0  0  0  0  0  0  0  0  0  0  0  0
   -1.9847    3.2501    7.0975 N   0  0  0  0  0  4  0  0  0  0  0  0
   -2.6538    4.0087    7.2987 H   0  0  0  0  0  0  0  0  0  0  0  0
   -2.2987    2.7402    6.2718 H   0  0  0  0  0  0  0  0  0  0  0  0
   -1.0886    2.7926    9.3020 C   0  0  0  0  0  0  0  0  0  0  0  0
   -1.8405    2.3595    8.2021 C   0  0  0  0  0  0  0  0  0  0  0  0
   -2.3546    1.0743    8.1875 C   0  0  0  0  0  0  0  0  0  0  0  0
   -2.9104    0.7308    7.3262 H   0  0  0  0  0  0  0  0  0  0  0  0
   -2.1286    0.2178    9.2545 C   0  0  0  0  0  0  0  0  0  0  0  0
   -2.5229   -0.7862    9.2269 H   0  0  0  0  0  0  0  0  0  0  0  0
   -1.3872    0.6448   10.3391 C   0  0  0  0  0  0  0  0  0  0  0  0
   -1.1981   -0.0232   11.1651 H   0  0  0  0  0  0  0  0  0  0  0  0
   -0.8679    1.9304   10.3625 C   0  0  0  0  0  0  0  0  0  0  0  0
   -0.2639    2.2551   11.1983 H   0  0  0  0  0  0  0  0  0  0  0  0
  1  8  1  0  0  0  0
  1  2  1  0  0  0  0
  1 12  1  0  0  0  0
  3  1  1  0  0  0  0
  4  1  1  0  0  0  0
  5  4  1  0  0  0  0
  6  4  1  0  0  0  0
  7  4  1  0  0  0  0
  8 10  1  0  0  0  0
  9  8  1  0  0  0  0
 11  8  1  0  0  0  0
 12 18  1  0  0  0  0
 12 14  1  0  0  0  0
 12 13  1  0  0  0  0
 15  1  1  0  0  0  0
 15 16  1  0  0  0  0
 15 19  1  0  0  0  0
 17 15  1  0  0  0  0
 18 26  1  0  0  0  0
 19 18  2  0  0  0  0
 20 19  1  0  0  0  0
 20 22  2  0  0  0  0
 21 20  1  0  0  0  0
 22 24  1  0  0  0  0
 23 22  1  0  0  0  0
 24 26  2  0  0  0  0
 24 25  1  0  0  0  0
 26 27  1  0  0  0  0
M  END
$$$$
