CSD_code = GEZLOO | q = 0 | S = 0 | Stoichiometry = C25H27Cl2NOP2Ru | MND = 6
 OpenBabel04212202043D

 59 64  0  0  1  0  0  0  0  0999 V2000
    8.1989    4.5963    0.0937 Ru  0  0  0  0  0  0  0  0  0  0  0  0
    9.8085    6.1449   -0.1857 P   0  0  2  0  0  4  0  0  0  0  0  0
    6.6224    6.3241    0.5992 Cl  0  0  0  0  0  0  0  0  0  0  0  0
    7.3439    4.5965   -2.7664 O   0  0  0  0  0  1  0  0  0  0  0  0
    8.4601    4.5965    2.2878 N   0  0  2  0  0  4  0  0  0  0  0  0
    7.6923    4.5963   -1.6778 C   0  0  0  0  0  2  0  0  0  0  0  0
   11.4126    5.2952   -0.3945 C   0  0  0  0  0  0  0  0  0  0  0  0
   12.6125    5.9854   -0.5333 C   0  0  0  0  0  0  0  0  0  0  0  0
   12.6106    7.0669   -0.5477 H   0  0  0  0  0  0  0  0  0  0  0  0
   13.8007    5.2903   -0.6687 C   0  0  0  0  0  0  0  0  0  0  0  0
   14.7302    5.8290   -0.7787 H   0  0  0  0  0  0  0  0  0  0  0  0
    8.8715    5.8336    2.9691 C   0  0  0  0  0  0  0  0  0  0  0  0
    8.8950    5.6539    4.0533 H   0  0  0  0  0  0  0  0  0  0  0  0
    8.1028    6.5863    2.7642 H   0  0  0  0  0  0  0  0  0  0  0  0
   10.2224    6.4185    2.5405 C   0  0  0  0  0  0  0  0  0  0  0  0
   10.9659    5.6269    2.4170 H   0  0  0  0  0  0  0  0  0  0  0  0
   10.5709    7.0733    3.3435 H   0  0  0  0  0  0  0  0  0  0  0  0
   10.1258    7.2376    1.2533 C   0  0  0  0  0  0  0  0  0  0  0  0
   11.0472    7.8026    1.0779 H   0  0  0  0  0  0  0  0  0  0  0  0
    9.2875    7.9378    1.3139 H   0  0  0  0  0  0  0  0  0  0  0  0
    9.6964    7.2882   -1.5815 C   0  0  0  0  0  0  0  0  0  0  0  0
   10.4555    7.1352   -2.7377 C   0  0  0  0  0  0  0  0  0  0  0  0
   11.1991    6.3521   -2.7979 H   0  0  0  0  0  0  0  0  0  0  0  0
   10.2504    7.9833   -3.8112 C   0  0  0  0  0  0  0  0  0  0  0  0
   10.8430    7.8664   -4.7069 H   0  0  0  0  0  0  0  0  0  0  0  0
    9.2814    8.9707   -3.7445 C   0  0  0  0  0  0  0  0  0  0  0  0
    9.1227    9.6271   -4.5873 H   0  0  0  0  0  0  0  0  0  0  0  0
    8.5011    9.1031   -2.6064 C   0  0  0  0  0  0  0  0  0  0  0  0
    7.7282    9.8560   -2.5648 H   0  0  0  0  0  0  0  0  0  0  0  0
    8.7001    8.2618   -1.5285 C   0  0  0  0  0  0  0  0  0  0  0  0
    8.0639    8.3272   -0.6561 H   0  0  0  0  0  0  0  0  0  0  0  0
    7.4310    4.5964    2.3390 H   0  0  0  0  0  0  0  0  0  0  0  0
    9.8085    3.0484   -0.1858 P   0  0  1  0  0  4  0  0  0  0  0  0
   11.4125    3.8980   -0.3944 C   0  0  0  0  0  0  0  0  0  0  0  0
   12.6124    3.2076   -0.5331 C   0  0  0  0  0  0  0  0  0  0  0  0
   12.6103    2.1261   -0.5474 H   0  0  0  0  0  0  0  0  0  0  0  0
   13.8007    3.9026   -0.6686 C   0  0  0  0  0  0  0  0  0  0  0  0
   14.7301    3.3638   -0.7785 H   0  0  0  0  0  0  0  0  0  0  0  0
    8.8716    3.3592    2.9690 C   0  0  0  0  0  0  0  0  0  0  0  0
    8.8949    3.5388    4.0532 H   0  0  0  0  0  0  0  0  0  0  0  0
    8.1029    2.6065    2.7639 H   0  0  0  0  0  0  0  0  0  0  0  0
   10.2225    2.7744    2.5404 C   0  0  0  0  0  0  0  0  0  0  0  0
   10.9660    3.5660    2.4169 H   0  0  0  0  0  0  0  0  0  0  0  0
   10.5710    2.1195    3.3433 H   0  0  0  0  0  0  0  0  0  0  0  0
   10.1259    1.9554    1.2532 C   0  0  0  0  0  0  0  0  0  0  0  0
   11.0474    1.3906    1.0776 H   0  0  0  0  0  0  0  0  0  0  0  0
    9.2877    1.2551    1.3136 H   0  0  0  0  0  0  0  0  0  0  0  0
    9.6964    1.9051   -1.5815 C   0  0  0  0  0  0  0  0  0  0  0  0
   10.4555    2.0580   -2.7377 C   0  0  0  0  0  0  0  0  0  0  0  0
   11.1990    2.8412   -2.7980 H   0  0  0  0  0  0  0  0  0  0  0  0
   10.2505    1.2097   -3.8111 C   0  0  0  0  0  0  0  0  0  0  0  0
   10.8431    1.3265   -4.7068 H   0  0  0  0  0  0  0  0  0  0  0  0
    9.2816    0.2222   -3.7442 C   0  0  0  0  0  0  0  0  0  0  0  0
    9.1231   -0.4344   -4.5869 H   0  0  0  0  0  0  0  0  0  0  0  0
    8.5011    0.0901   -2.6063 C   0  0  0  0  0  0  0  0  0  0  0  0
    7.7282   -0.6628   -2.5646 H   0  0  0  0  0  0  0  0  0  0  0  0
    8.6999    0.9315   -1.5285 C   0  0  0  0  0  0  0  0  0  0  0  0
    8.0637    0.8663   -0.6562 H   0  0  0  0  0  0  0  0  0  0  0  0
    6.6227    2.8699    0.5992 Cl  0  0  0  0  0  0  0  0  0  0  0  0
  1  3  1  0  0  0  0
  1 59  1  0  0  0  0
  1  5  1  0  0  0  0
  2 21  1  6  0  0  0
  2  1  1  0  0  0  0
  2 18  1  0  0  0  0
  4  6  1  0  0  0  0
  5 32  1  1  0  0  0
  5 39  1  0  0  0  0
  5 12  1  0  0  0  0
  6  1  1  0  0  0  0
  7 34  1  0  0  0  0
  7  2  1  0  0  0  0
  8  7  2  0  0  0  0
  9  8  1  0  0  0  0
 10 37  2  0  0  0  0
 10  8  1  0  0  0  0
 11 10  1  0  0  0  0
 12 13  1  0  0  0  0
 14 12  1  0  0  0  0
 15 12  1  0  0  0  0
 15 17  1  0  0  0  0
 16 15  1  0  0  0  0
 18 20  1  0  0  0  0
 18 15  1  0  0  0  0
 19 18  1  0  0  0  0
 21 30  1  0  0  0  0
 22 21  2  0  0  0  0
 23 22  1  0  0  0  0
 24 26  2  0  0  0  0
 24 22  1  0  0  0  0
 25 24  1  0  0  0  0
 26 28  1  0  0  0  0
 27 26  1  0  0  0  0
 28 29  1  0  0  0  0
 28 30  2  0  0  0  0
 30 31  1  0  0  0  0
 33 48  1  6  0  0  0
 33  1  1  0  0  0  0
 33 45  1  0  0  0  0
 34 33  1  0  0  0  0
 35 34  2  0  0  0  0
 36 35  1  0  0  0  0
 37 35  1  0  0  0  0
 38 37  1  0  0  0  0
 39 40  1  0  0  0  0
 41 39  1  0  0  0  0
 42 39  1  0  0  0  0
 42 44  1  0  0  0  0
 43 42  1  0  0  0  0
 45 47  1  0  0  0  0
 45 42  1  0  0  0  0
 46 45  1  0  0  0  0
 48 57  1  0  0  0  0
 49 48  2  0  0  0  0
 50 49  1  0  0  0  0
 51 53  2  0  0  0  0
 51 49  1  0  0  0  0
 52 51  1  0  0  0  0
 53 55  1  0  0  0  0
 54 53  1  0  0  0  0
 55 56  1  0  0  0  0
 55 57  2  0  0  0  0
 57 58  1  0  0  0  0
M  END
$$$$
