CSD_code = GIBZOJ | q = 0 | S = 0 | Stoichiometry = C14H38B10Br2NiP2 | MND = 4
 OpenBabel04212202043D

 67 72  0  0  1  0  0  0  0  0999 V2000
    4.8604    0.4979    3.2986 Ni  0  0  0  0  0  0  0  0  0  0  0  0
    5.2023   -1.3883    2.0673 Br  0  0  0  0  0  0  0  0  0  0  0  0
    2.7878   -0.0960    4.0348 Br  0  0  0  0  0  0  0  0  0  0  0  0
    6.9823    0.9101    3.1619 P   0  0  0  0  0  0  0  0  0  0  0  0
    4.4440    2.5294    3.9234 P   0  0  0  0  0  0  0  0  0  0  0  0
    6.7765    3.9126    2.5496 B   0  0  1  0  0  0  0  0  0  0  0  0
    6.2468    3.5682    1.5638 H   0  0  0  0  0  0  0  0  0  0  0  0
    6.1674    5.1981    3.5957 B   0  0  1  0  0  0  0  0  0  0  0  0
    5.1892    5.7729    3.2852 H   0  0  0  0  0  0  0  0  0  0  0  0
    6.4195    4.6998    5.2601 B   0  0  0  0  0  0  0  0  0  0  0  0
    5.6347    4.9450    6.0906 H   0  0  0  0  0  0  0  0  0  0  0  0
    7.1509    3.1104    5.2527 B   0  0  2  0  0  0  0  0  0  0  0  0
    6.8473    2.2614    5.9997 H   0  0  0  0  0  0  0  0  0  0  0  0
    8.4955    3.7378    2.8252 B   0  0  0  0  0  0  0  0  0  0  0  0
    9.1555    3.3138    1.9590 H   0  0  0  0  0  0  0  0  0  0  0  0
    7.7543    5.3504    2.8149 B   0  0  1  0  0  0  0  0  0  0  0  0
    7.9474    6.1092    1.9389 H   0  0  0  0  0  0  0  0  0  0  0  0
    7.5466    5.8392    4.5156 B   0  0  1  0  0  0  0  0  0  0  0  0
    7.5787    6.9643    4.8516 H   0  0  0  0  0  0  0  0  0  0  0  0
    8.1599    4.5187    5.5568 B   0  0  1  0  0  0  0  0  0  0  0  0
    8.6234    4.7005    6.6210 H   0  0  0  0  0  0  0  0  0  0  0  0
    8.7377    3.2256    4.4869 B   0  0  1  0  0  0  0  0  0  0  0  0
    9.5604    2.4279    4.7527 H   0  0  0  0  0  0  0  0  0  0  0  0
    8.9928    4.9256    4.0354 B   0  0  1  0  0  0  0  0  0  0  0  0
   10.0712    5.3912    4.0176 H   0  0  0  0  0  0  0  0  0  0  0  0
    7.3603    2.6958    3.6119 C   0  0  1  0  0  0  0  0  0  0  0  0
    6.0217    3.5458    4.0341 C   0  0  1  0  0  0  0  0  0  0  0  0
    7.6619   -0.1327    4.5859 C   0  0  0  0  0  0  0  0  0  0  0  0
    8.3907    0.4770    5.1321 H   0  0  0  0  0  0  0  0  0  0  0  0
    6.5061   -0.5001    5.5253 C   0  0  0  0  0  0  0  0  0  0  0  0
    5.7679   -1.1206    5.0029 H   0  0  0  0  0  0  0  0  0  0  0  0
    6.0044    0.3751    5.9381 H   0  0  0  0  0  0  0  0  0  0  0  0
    6.8772   -1.0864    6.3646 H   0  0  0  0  0  0  0  0  0  0  0  0
    8.3261   -1.4356    4.1413 C   0  0  0  0  0  0  0  0  0  0  0  0
    8.5909   -2.0099    5.0283 H   0  0  0  0  0  0  0  0  0  0  0  0
    9.2348   -1.2713    3.5728 H   0  0  0  0  0  0  0  0  0  0  0  0
    7.6405   -2.0415    3.5518 H   0  0  0  0  0  0  0  0  0  0  0  0
    8.0740    0.4181    1.7253 C   0  0  0  0  0  0  0  0  0  0  0  0
    7.8845   -0.6608    1.6764 H   0  0  0  0  0  0  0  0  0  0  0  0
    9.5811    0.6401    1.9016 C   0  0  0  0  0  0  0  0  0  0  0  0
   10.1241   -0.2405    1.5637 H   0  0  0  0  0  0  0  0  0  0  0  0
    9.8602    0.8389    2.9333 H   0  0  0  0  0  0  0  0  0  0  0  0
    9.9219    1.4772    1.2999 H   0  0  0  0  0  0  0  0  0  0  0  0
    7.5705    0.9953    0.4041 C   0  0  0  0  0  0  0  0  0  0  0  0
    7.6885    2.0756    0.3577 H   0  0  0  0  0  0  0  0  0  0  0  0
    6.5232    0.7375    0.2513 H   0  0  0  0  0  0  0  0  0  0  0  0
    8.1352    0.5574   -0.4166 H   0  0  0  0  0  0  0  0  0  0  0  0
    3.3358    2.9994    5.3548 C   0  0  0  0  0  0  0  0  0  0  0  0
    2.4092    2.4797    5.0836 H   0  0  0  0  0  0  0  0  0  0  0  0
    3.8031    2.3718    6.6664 C   0  0  0  0  0  0  0  0  0  0  0  0
    4.7394    2.8014    7.0153 H   0  0  0  0  0  0  0  0  0  0  0  0
    3.9179    1.2945    6.5524 H   0  0  0  0  0  0  0  0  0  0  0  0
    3.0480    2.5380    7.4322 H   0  0  0  0  0  0  0  0  0  0  0  0
    3.0261    4.4921    5.5209 C   0  0  0  0  0  0  0  0  0  0  0  0
    1.9629    4.6278    5.7101 H   0  0  0  0  0  0  0  0  0  0  0  0
    3.2952    5.0784    4.6459 H   0  0  0  0  0  0  0  0  0  0  0  0
    3.5584    4.9054    6.3722 H   0  0  0  0  0  0  0  0  0  0  0  0
    3.5053    3.2001    2.4246 C   0  0  0  0  0  0  0  0  0  0  0  0
    3.8983    4.1982    2.1998 H   0  0  0  0  0  0  0  0  0  0  0  0
    3.7601    2.2756    1.2273 C   0  0  0  0  0  0  0  0  0  0  0  0
    3.3670    1.2712    1.4260 H   0  0  0  0  0  0  0  0  0  0  0  0
    4.8170    2.1981    0.9724 H   0  0  0  0  0  0  0  0  0  0  0  0
    3.2414    2.6513    0.3466 H   0  0  0  0  0  0  0  0  0  0  0  0
    1.9925    3.2870    2.6258 C   0  0  0  0  0  0  0  0  0  0  0  0
    1.5339    3.5832    1.6832 H   0  0  0  0  0  0  0  0  0  0  0  0
    1.7095    4.0197    3.3735 H   0  0  0  0  0  0  0  0  0  0  0  0
    1.5793    2.3182    2.9005 H   0  0  0  0  0  0  0  0  0  0  0  0
  1  5  1  0  0  0  0
  1  3  1  0  0  0  0
  2  1  1  0  0  0  0
  4  1  1  0  0  0  0
  4 28  1  0  0  0  0
  5 48  1  0  0  0  0
  6 14  1  0  0  0  0
  6 26  1  0  0  0  0
  6 27  1  0  0  0  0
  7  6  1  0  0  0  0
  8  9  1  6  0  0  0
  8 27  1  0  0  0  0
  8 10  1  0  0  0  0
 10 11  1  0  0  0  0
 12 10  1  0  0  0  0
 12 13  1  1  0  0  0
 14 22  1  0  0  0  0
 15 14  1  0  0  0  0
 16  8  1  0  0  0  0
 16 24  1  0  0  0  0
 16 18  1  0  0  0  0
 17 16  1  0  0  0  0
 18 19  1  0  0  0  0
 18 20  1  0  0  0  0
 20 21  1  0  0  0  0
 22 23  1  1  0  0  0
 22 20  1  0  0  0  0
 24 18  1  0  0  0  0
 24 20  1  0  0  0  0
 25 24  1  0  0  0  0
 26 27  1  0  0  0  0
 26 22  1  0  0  0  0
 26 12  1  0  0  0  0
 27 12  1  0  0  0  0
 28 29  1  0  0  0  0
 28 30  1  0  0  0  0
 30 32  1  0  0  0  0
 30 33  1  0  0  0  0
 31 30  1  0  0  0  0
 34 28  1  0  0  0  0
 34 35  1  0  0  0  0
 36 34  1  0  0  0  0
 37 34  1  0  0  0  0
 38 40  1  0  0  0  0
 38  4  1  0  0  0  0
 39 38  1  0  0  0  0
 40 42  1  0  0  0  0
 41 40  1  0  0  0  0
 43 40  1  0  0  0  0
 44 38  1  0  0  0  0
 45 44  1  0  0  0  0
 46 44  1  0  0  0  0
 47 44  1  0  0  0  0
 48 54  1  0  0  0  0
 48 50  1  0  0  0  0
 49 48  1  0  0  0  0
 50 51  1  0  0  0  0
 50 53  1  0  0  0  0
 52 50  1  0  0  0  0
 54 55  1  0  0  0  0
 54 57  1  0  0  0  0
 56 54  1  0  0  0  0
 58 64  1  0  0  0  0
 58  5  1  0  0  0  0
 59 58  1  0  0  0  0
 60 61  1  0  0  0  0
 60 58  1  0  0  0  0
 62 60  1  0  0  0  0
 63 60  1  0  0  0  0
 64 67  1  0  0  0  0
 64 66  1  0  0  0  0
 65 64  1  0  0  0  0
M  END
$$$$
