CSD_code = GICROA | q = 1 | S = 0 | Stoichiometry = C14H19Cl2CoN5(1+) | MND = 6
 OpenBabel04212202043D

 41 46  0  0  1  0  0  0  0  0999 V2000
    8.9587    9.1369   10.8986 Co  0  0  0  0  0  0  0  0  0  0  0  0
    7.7425   10.9041   11.1956 Cl  0  0  0  0  0  0  0  0  0  0  0  0
    7.2192    7.9431   10.8578 Cl  0  0  0  0  0  0  0  0  0  0  0  0
    9.0961    9.3444    9.1123 N   0  0  1  0  0  0  0  0  0  0  0  0
   10.0887    7.6945   10.6472 N   0  0  1  0  0  0  0  0  0  0  0  0
   10.6953   10.2740   10.9199 N   0  0  2  0  0  4  0  0  0  0  0  0
   10.2577    9.9731   14.5592 N   0  0  0  0  0  0  0  0  0  0  0  0
   10.8164   10.6069   15.1088 H   0  0  0  0  0  0  0  0  0  0  0  0
    9.2665    9.0503   12.8135 N   0  0  0  0  0  0  0  0  0  0  0  0
   10.5021   11.2181    9.8089 C   0  0  0  0  0  0  0  0  0  0  0  0
   11.4415   11.7055    9.5269 H   0  0  0  0  0  0  0  0  0  0  0  0
    9.7846   11.9749   10.1249 H   0  0  0  0  0  0  0  0  0  0  0  0
    9.9058   10.4300    8.6276 C   0  0  0  0  0  0  0  0  0  0  0  0
    9.2692   11.1044    8.0395 H   0  0  0  0  0  0  0  0  0  0  0  0
   10.6865   10.0493    7.9546 H   0  0  0  0  0  0  0  0  0  0  0  0
    9.1316    8.1297    8.4363 C   0  0  0  0  0  0  0  0  0  0  0  0
    8.1154    7.7588    8.2834 H   0  0  0  0  0  0  0  0  0  0  0  0
    9.6816    8.1738    7.4911 H   0  0  0  0  0  0  0  0  0  0  0  0
    9.8084    7.0360    9.4533 C   0  0  0  0  0  0  0  0  0  0  0  0
    9.0176    6.3001    9.6133 H   0  0  0  0  0  0  0  0  0  0  0  0
   10.6869    6.5704    8.9961 H   0  0  0  0  0  0  0  0  0  0  0  0
   11.4503    7.9302   11.0278 C   0  0  0  0  0  0  0  0  0  0  0  0
   12.1281    7.2222   10.5399 H   0  0  0  0  0  0  0  0  0  0  0  0
   11.5298    7.7867   12.1108 H   0  0  0  0  0  0  0  0  0  0  0  0
   11.8381    9.3753   10.6638 C   0  0  0  0  0  0  0  0  0  0  0  0
   12.7223    9.6914   11.2252 H   0  0  0  0  0  0  0  0  0  0  0  0
   12.0812    9.4116    9.6012 H   0  0  0  0  0  0  0  0  0  0  0  0
   10.7620   10.9024   12.2460 C   0  0  0  0  0  0  0  0  0  0  0  0
   10.1832   11.8327   12.2263 H   0  0  0  0  0  0  0  0  0  0  0  0
   11.7921   11.1407   12.5388 H   0  0  0  0  0  0  0  0  0  0  0  0
   10.1139    9.9777   13.2230 C   0  0  1  0  0  3  0  0  0  0  0  0
    9.4434    8.9766   15.0600 C   0  0  0  0  0  0  0  0  0  0  0  0
    9.1978    8.5387   16.3519 C   0  0  0  0  0  0  0  0  0  0  0  0
    9.6726    9.0005   17.2025 H   0  0  0  0  0  0  0  0  0  0  0  0
    8.3135    7.4886   16.4937 C   0  0  0  0  0  0  0  0  0  0  0  0
    8.0899    7.1172   17.4811 H   0  0  0  0  0  0  0  0  0  0  0  0
    7.6989    6.8943   15.3881 C   0  0  0  0  0  0  0  0  0  0  0  0
    7.0154    6.0761   15.5503 H   0  0  0  0  0  0  0  0  0  0  0  0
    7.9394    7.3236   14.0996 C   0  0  0  0  0  0  0  0  0  0  0  0
    7.4622    6.8670   13.2490 H   0  0  0  0  0  0  0  0  0  0  0  0
    8.8222    8.3865   13.9393 C   0  0  0  0  0  0  0  0  0  0  0  0
  1  6  1  0  0  0  0
  1  2  1  0  0  0  0
  1  9  1  0  0  0  0
  3  1  1  0  0  0  0
  4 16  1  6  0  0  0
  4  1  1  0  0  0  0
  5 19  1  6  0  0  0
  5  1  1  0  0  0  0
  5 22  1  0  0  0  0
  6 10  1  6  0  0  0
  6 28  1  0  0  0  0
  7 32  1  0  0  0  0
  7  8  1  0  0  0  0
  9 31  1  0  0  0  0
  9 41  1  0  0  0  0
 10 12  1  0  0  0  0
 11 10  1  0  0  0  0
 13  4  1  0  0  0  0
 13 10  1  0  0  0  0
 14 13  1  0  0  0  0
 15 13  1  0  0  0  0
 16 19  1  0  0  0  0
 17 16  1  0  0  0  0
 18 16  1  0  0  0  0
 19 20  1  0  0  0  0
 21 19  1  0  0  0  0
 22 24  1  0  0  0  0
 23 22  1  0  0  0  0
 25  6  1  0  0  0  0
 25 22  1  0  0  0  0
 25 26  1  0  0  0  0
 27 25  1  0  0  0  0
 28 30  1  0  0  0  0
 29 28  1  0  0  0  0
 31 28  1  1  0  0  0
 31  7  1  0  0  0  0
 32 33  1  0  0  0  0
 33 35  2  0  0  0  0
 33 34  1  0  0  0  0
 35 36  1  0  0  0  0
 37 38  1  0  0  0  0
 37 35  1  0  0  0  0
 39 37  2  0  0  0  0
 40 39  1  0  0  0  0
 41 39  1  0  0  0  0
 41 32  2  0  0  0  0
M  END
$$$$
