CSD_code = GICXUM | q = 0 | S = 0 | Stoichiometry = C30H30Cl2NiP2 | MND = 4
 OpenBabel04212202043D

 65 69  0  0  0  0  0  0  0  0999 V2000
   -2.3629   -1.1642    5.0828 C   0  0  0  0  0  0  0  0  0  0  0  0
   -3.0678   -0.3727    5.3240 H   0  0  0  0  0  0  0  0  0  0  0  0
   -1.6068   -1.2022    5.8641 H   0  0  0  0  0  0  0  0  0  0  0  0
   -2.8974   -2.1117    5.0738 H   0  0  0  0  0  0  0  0  0  0  0  0
   -0.8246   -2.1230    3.3621 C   0  0  0  0  0  0  0  0  0  0  0  0
   -1.4519   -2.9842    3.1429 H   0  0  0  0  0  0  0  0  0  0  0  0
   -0.1703   -2.3916    4.1875 H   0  0  0  0  0  0  0  0  0  0  0  0
   -0.2159   -1.9117    2.4853 H   0  0  0  0  0  0  0  0  0  0  0  0
   -1.4317    1.5997   -0.4576 C   0  0  0  0  0  0  0  0  0  0  0  0
   -0.8067    1.0678   -1.1602 H   0  0  0  0  0  0  0  0  0  0  0  0
    2.8802    0.6968    7.8570 C   0  0  0  0  0  0  0  0  0  0  0  0
    2.5825    0.0754    8.6892 H   0  0  0  0  0  0  0  0  0  0  0  0
   -2.4441    2.4289   -0.9147 C   0  0  0  0  0  0  0  0  0  0  0  0
   -2.6144    2.5363   -1.9757 H   0  0  0  0  0  0  0  0  0  0  0  0
   -0.1410    3.4772    4.1575 Ni  0  0  0  0  0  0  0  0  0  0  0  0
   -1.5960    2.0680    3.5662 P   0  0  0  0  0  4  0  0  0  0  0  0
    1.2718    1.9475    4.3403 P   0  0  0  0  0  4  0  0  0  0  0  0
   -1.6828    4.8428    3.7306 Cl  0  0  0  0  0  0  0  0  0  0  0  0
    1.4807    4.7048    4.7049 Cl  0  0  0  0  0  0  0  0  0  0  0  0
   -2.0158    2.1449    1.8097 C   0  0  0  0  0  0  0  0  0  0  0  0
   -3.0921    2.1329    4.5944 C   0  0  0  0  0  0  0  0  0  0  0  0
    2.4126    1.6646    5.7107 C   0  0  0  0  0  0  0  0  0  0  0  0
   -0.8973    0.3543    3.8179 C   0  0  0  0  0  0  0  0  0  0  0  0
    0.3902    0.3608    4.1814 C   0  0  0  0  0  0  0  0  0  0  0  0
    0.9585   -0.5426    4.3640 H   0  0  0  0  0  0  0  0  0  0  0  0
    2.2943    1.8940    2.8411 C   0  0  0  0  0  0  0  0  0  0  0  0
   -3.0042    3.0091    1.3478 C   0  0  0  0  0  0  0  0  0  0  0  0
   -3.5679    3.6029    2.0518 H   0  0  0  0  0  0  0  0  0  0  0  0
   -4.4079    1.9947    4.1711 C   0  0  0  0  0  0  0  0  0  0  0  0
   -4.6406    1.8210    3.1302 H   0  0  0  0  0  0  0  0  0  0  0  0
    3.6410    2.3178    5.7333 C   0  0  0  0  0  0  0  0  0  0  0  0
    3.9109    2.9676    4.9132 H   0  0  0  0  0  0  0  0  0  0  0  0
   -1.2124    1.4608    0.8995 C   0  0  0  0  0  0  0  0  0  0  0  0
   -0.4084    0.8322    1.2613 H   0  0  0  0  0  0  0  0  0  0  0  0
   -1.7127   -0.9208    3.7120 C   0  0  0  0  0  0  0  0  0  0  0  0
    4.4888    2.1431    6.8108 C   0  0  0  0  0  0  0  0  0  0  0  0
    5.4432    2.6477    6.8306 H   0  0  0  0  0  0  0  0  0  0  0  0
    3.3413    0.9915    2.6926 C   0  0  0  0  0  0  0  0  0  0  0  0
    3.6165    0.3440    3.5141 H   0  0  0  0  0  0  0  0  0  0  0  0
   -2.8232    2.3920    5.9383 C   0  0  0  0  0  0  0  0  0  0  0  0
   -1.7899    2.5391    6.2474 H   0  0  0  0  0  0  0  0  0  0  0  0
    2.6281    2.6730    0.5943 C   0  0  0  0  0  0  0  0  0  0  0  0
    2.3532    3.3259   -0.2205 H   0  0  0  0  0  0  0  0  0  0  0  0
    1.9371    2.7313    1.7901 C   0  0  0  0  0  0  0  0  0  0  0  0
    1.1213    3.4413    1.9291 H   0  0  0  0  0  0  0  0  0  0  0  0
   -5.1630    2.3352    6.4290 C   0  0  0  0  0  0  0  0  0  0  0  0
   -5.9727    2.4164    7.1387 H   0  0  0  0  0  0  0  0  0  0  0  0
   -5.4364    2.0958    5.0931 C   0  0  0  0  0  0  0  0  0  0  0  0
   -6.4593    1.9929    4.7617 H   0  0  0  0  0  0  0  0  0  0  0  0
    4.1124    1.3305    7.8690 C   0  0  0  0  0  0  0  0  0  0  0  0
    4.7762    1.1985    8.7107 H   0  0  0  0  0  0  0  0  0  0  0  0
    3.6753    1.7771    0.4485 C   0  0  0  0  0  0  0  0  0  0  0  0
    4.2198    1.7318   -0.4831 H   0  0  0  0  0  0  0  0  0  0  0  0
   -2.8064   -0.8137    2.6497 C   0  0  0  0  0  0  0  0  0  0  0  0
   -3.4173    0.0687    2.8100 H   0  0  0  0  0  0  0  0  0  0  0  0
   -3.4521   -1.6885    2.6994 H   0  0  0  0  0  0  0  0  0  0  0  0
   -2.3753   -0.7630    1.6527 H   0  0  0  0  0  0  0  0  0  0  0  0
   -3.2208    3.1373   -0.0124 C   0  0  0  0  0  0  0  0  0  0  0  0
   -3.9908    3.8046   -0.3702 H   0  0  0  0  0  0  0  0  0  0  0  0
   -3.8517    2.4882    6.8534 C   0  0  0  0  0  0  0  0  0  0  0  0
   -3.6369    2.6931    7.8916 H   0  0  0  0  0  0  0  0  0  0  0  0
    2.0260    0.8674    6.7831 C   0  0  0  0  0  0  0  0  0  0  0  0
    1.0541    0.3905    6.7741 H   0  0  0  0  0  0  0  0  0  0  0  0
    4.0318    0.9408    1.4955 C   0  0  0  0  0  0  0  0  0  0  0  0
    4.8513    0.2468    1.3769 H   0  0  0  0  0  0  0  0  0  0  0  0
  1  2  1  0  0  0  0
  1  3  1  0  0  0  0
  4  1  1  0  0  0  0
  5 35  1  0  0  0  0
  5  7  1  0  0  0  0
  6  5  1  0  0  0  0
  8  5  1  0  0  0  0
  9 33  1  0  0  0  0
 10  9  1  0  0  0  0
 11 50  1  0  0  0  0
 11 12  1  0  0  0  0
 13  9  2  0  0  0  0
 13 58  1  0  0  0  0
 14 13  1  0  0  0  0
 15 17  1  0  0  0  0
 15 19  1  0  0  0  0
 16 23  1  0  0  0  0
 16 15  1  0  0  0  0
 16 21  1  0  0  0  0
 17 22  1  0  0  0  0
 18 15  1  0  0  0  0
 20 16  1  0  0  0  0
 21 40  1  0  0  0  0
 22 31  2  0  0  0  0
 22 62  1  0  0  0  0
 23 24  2  0  0  0  0
 24 17  1  0  0  0  0
 24 25  1  0  0  0  0
 26 17  1  0  0  0  0
 27 20  1  0  0  0  0
 27 28  1  0  0  0  0
 29 21  2  0  0  0  0
 29 48  1  0  0  0  0
 30 29  1  0  0  0  0
 31 36  1  0  0  0  0
 32 31  1  0  0  0  0
 33 34  1  0  0  0  0
 33 20  2  0  0  0  0
 35 23  1  0  0  0  0
 35  1  1  0  0  0  0
 36 37  1  0  0  0  0
 36 50  2  0  0  0  0
 38 26  1  0  0  0  0
 38 39  1  0  0  0  0
 40 41  1  0  0  0  0
 40 60  2  0  0  0  0
 42 44  1  0  0  0  0
 43 42  1  0  0  0  0
 44 45  1  0  0  0  0
 44 26  2  0  0  0  0
 46 60  1  0  0  0  0
 46 47  1  0  0  0  0
 48 46  2  0  0  0  0
 49 48  1  0  0  0  0
 50 51  1  0  0  0  0
 52 42  2  0  0  0  0
 52 64  1  0  0  0  0
 53 52  1  0  0  0  0
 54 56  1  0  0  0  0
 54 55  1  0  0  0  0
 54 35  1  0  0  0  0
 57 54  1  0  0  0  0
 58 27  2  0  0  0  0
 59 58  1  0  0  0  0
 60 61  1  0  0  0  0
 62 11  2  0  0  0  0
 63 62  1  0  0  0  0
 64 38  2  0  0  0  0
 65 64  1  0  0  0  0
M  END
$$$$
