CSD_code = GIDBIE | q = 0 | S = 0 | Stoichiometry = C16H10Cl2N4O2Ru | MND = 6
 OpenBabel04212202043D

 35 38  0  0  0  0  0  0  0  0999 V2000
    2.7534    0.4258    1.4330 Ru  0  0  0  0  0  0  0  0  0  0  0  0
    0.7135    0.3488    2.6932 Cl  0  0  0  0  0  0  0  0  0  0  0  0
    4.8151    0.0033    0.2815 Cl  0  0  0  0  0  0  0  0  0  0  0  0
    2.2834   -1.4882    0.9030 N   0  0  0  0  0  0  0  0  0  0  0  0
    3.5414   -0.5533    2.9219 N   0  0  0  0  0  0  0  0  0  0  0  0
    4.1404    0.0873    3.8719 N   0  0  0  0  0  2  0  0  0  0  0  0
    5.8281   -0.4241    6.9732 N   0  0  0  0  0  0  0  0  0  0  0  0
    1.6206   -1.8772   -0.1789 C   0  0  0  0  0  3  0  0  0  0  0  0
    1.3526   -3.2073   -0.4582 C   0  0  0  0  0  0  0  0  0  0  0  0
    1.7933   -4.1798    0.4260 C   0  0  0  0  0  0  0  0  0  0  0  0
    2.4841   -3.7819    1.5556 C   0  0  0  0  0  0  0  0  0  0  0  0
    2.7151   -2.4247    1.7695 C   0  0  0  0  0  0  0  0  0  0  0  0
    3.4300   -1.8923    2.9268 C   0  0  0  0  0  0  0  0  0  0  0  0
    3.9720   -2.6382    3.9796 C   0  0  0  0  0  0  0  0  0  0  0  0
    4.6093   -1.9601    4.9925 C   0  0  0  0  0  0  0  0  0  0  0  0
    4.6733   -0.5598    4.9002 C   0  0  0  0  0  0  0  0  0  0  0  0
    5.3267    0.2446    5.9350 C   0  0  0  0  0  0  0  0  0  0  0  0
    5.4065    1.6329    5.8210 C   0  0  0  0  0  0  0  0  0  0  0  0
    6.0328    2.3393    6.8334 C   0  0  0  0  0  0  0  0  0  0  0  0
    6.5520    1.6428    7.9139 C   0  0  0  0  0  0  0  0  0  0  0  0
    6.4207    0.2595    7.9302 C   0  0  0  0  0  0  0  0  0  0  0  0
    3.3005    2.0662    2.1258 C   0  0  0  0  0  2  0  0  0  0  0  0
    1.9613    1.2809   -0.0299 C   0  0  0  0  0  2  0  0  0  0  0  0
    3.6675    3.0276    2.6081 O   0  0  0  0  0  1  0  0  0  0  0  0
    1.4744    1.8006   -0.9186 O   0  0  0  0  0  1  0  0  0  0  0  0
    1.2876   -1.0989   -0.8536 H   0  0  0  0  0  0  0  0  0  0  0  0
    0.8096   -3.4693   -1.3516 H   0  0  0  0  0  0  0  0  0  0  0  0
    1.6032   -5.2254    0.2400 H   0  0  0  0  0  0  0  0  0  0  0  0
    2.8408   -4.5125    2.2631 H   0  0  0  0  0  0  0  0  0  0  0  0
    3.8906   -3.7136    3.9957 H   0  0  0  0  0  0  0  0  0  0  0  0
    5.0531   -2.4539    5.8410 H   0  0  0  0  0  0  0  0  0  0  0  0
    4.9847    2.1216    4.9585 H   0  0  0  0  0  0  0  0  0  0  0  0
    6.1141    3.4148    6.7805 H   0  0  0  0  0  0  0  0  0  0  0  0
    7.0462    2.1554    8.7241 H   0  0  0  0  0  0  0  0  0  0  0  0
    6.8087   -0.3304    8.7504 H   0  0  0  0  0  0  0  0  0  0  0  0
  1 22  1  0  0  0  0
  1  2  1  0  0  0  0
  1  5  1  0  0  0  0
  3  1  1  0  0  0  0
  4  1  1  0  0  0  0
  4 12  1  0  0  0  0
  5 13  1  0  0  0  0
  5  6  1  0  0  0  0
  6 16  1  0  0  0  0
  7 21  1  0  0  0  0
  8  4  1  0  0  0  0
  9  8  1  0  0  0  0
  9 10  2  0  0  0  0
 10 11  1  0  0  0  0
 11 12  2  0  0  0  0
 11 29  1  0  0  0  0
 12 13  1  0  0  0  0
 13 14  2  0  0  0  0
 14 30  1  0  0  0  0
 14 15  1  0  0  0  0
 15 31  1  0  0  0  0
 16 15  2  0  0  0  0
 16 17  1  0  0  0  0
 17  7  2  0  0  0  0
 18 17  1  0  0  0  0
 18 19  2  0  0  0  0
 19 20  1  0  0  0  0
 20 21  2  0  0  0  0
 20 34  1  0  0  0  0
 21 35  1  0  0  0  0
 22 24  1  0  0  0  0
 23  1  1  0  0  0  0
 25 23  1  0  0  0  0
 26  8  1  0  0  0  0
 27  9  1  0  0  0  0
 28 10  1  0  0  0  0
 32 18  1  0  0  0  0
 33 19  1  0  0  0  0
M  END
$$$$
