CSD_code = GIDPIU | q = 0 | S = 0 | Stoichiometry = C6H20B9Cl2RhS | MND = 7
 OpenBabel04212202043D

 39 39  0  0  1  0  0  0  0  0999 V2000
    6.6686    7.9748    1.5064 Rh  0  0  0  0  0  0  0  0  0  0  0  0
    7.1064   11.1420    0.3298 S   0  0  0  0  0  3  0  0  0  0  0  0
    4.9799    9.4603    0.9265 Cl  0  0  0  0  0 15  0  0  0  0  0  0
    9.7312    6.6968    1.8657 B   0  0  1  0  0  0  0  0  0  0  0  0
    7.5857    5.1447    1.0741 C   0  0  0  0  0  0  0  0  0  0  0  0
    8.3585    4.4460    0.7508 H   0  0  0  0  0  0  0  0  0  0  0  0
    6.8499    5.2213    0.2691 H   0  0  0  0  0  0  0  0  0  0  0  0
    7.0732    4.7333    1.9422 H   0  0  0  0  0  0  0  0  0  0  0  0
    5.1181    6.7606    2.5624 Cl  0  0  0  0  0 15  0  0  0  0  0  0
    9.7334    8.2008    2.8281 B   0  0  2  0  0  0  0  0  0  0  0  0
    7.2435    8.2735   -1.3973 C   0  0  0  0  0  0  0  0  0  0  0  0
    7.9396    8.2663   -2.2374 H   0  0  0  0  0  0  0  0  0  0  0  0
    6.5647    9.1206   -1.5071 H   0  0  0  0  0  0  0  0  0  0  0  0
    6.6446    7.3616   -1.4671 H   0  0  0  0  0  0  0  0  0  0  0  0
    8.1798    6.4888    1.3989 C   0  0  2  0  0  0  0  0  0  0  0  0
    9.1693    7.1784    0.1945 B   0  0  0  0  0  0  0  0  0  0  0  0
    7.9891    8.3241   -0.0854 C   0  0  1  0  0  0  0  0  0  0  0  0
   10.4908    8.1223    1.2113 B   0  0  1  0  0  0  0  0  0  0  0  0
    6.7393   11.9874    1.8889 C   0  0  0  0  0  0  0  0  0  0  0  0
    6.3769   12.9839    1.6567 H   0  0  0  0  0  0  0  0  0  0  0  0
    7.6300   12.0337    2.5056 H   0  0  0  0  0  0  0  0  0  0  0  0
    5.9581   11.4172    2.3800 H   0  0  0  0  0  0  0  0  0  0  0  0
    8.2591    7.1882    2.8318 B   0  0  0  0  0  2  0  0  0  0  0  0
    8.5137   12.2241   -0.1552 C   0  0  0  0  0  0  0  0  0  0  0  0
    8.1292   13.2232   -0.3284 H   0  0  0  0  0  0  0  0  0  0  0  0
    8.9285   11.8332   -1.0768 H   0  0  0  0  0  0  0  0  0  0  0  0
    9.2770   12.2366    0.6129 H   0  0  0  0  0  0  0  0  0  0  0  0
    8.1654    9.0081    2.6384 B   0  0  0  0  0  0  0  0  0  0  0  0
    9.5200    8.9658    0.0541 B   0  0  0  0  0  0  0  0  0  0  0  0
    9.6165    9.5850    1.7283 B   0  0  1  0  0  0  0  0  0  0  0  0
    8.0570    9.5545    0.9265 B   0  0  2  0  0  0  0  0  0  0  0  0
    7.6891    9.6449    3.5114 H   0  0  0  0  0  0  0  0  0  0  0  0
   10.3458    5.7117    2.0340 H   0  0  0  0  0  0  0  0  0  0  0  0
   11.6544    8.0922    1.0496 H   0  0  0  0  0  0  0  0  0  0  0  0
   10.3528    8.2824    3.8242 H   0  0  0  0  0  0  0  0  0  0  0  0
    9.4536    6.4823   -0.7122 H   0  0  0  0  0  0  0  0  0  0  0  0
   10.1454   10.6053    1.9941 H   0  0  0  0  0  0  0  0  0  0  0  0
    9.9550    9.4307   -0.9331 H   0  0  0  0  0  0  0  0  0  0  0  0
    7.8887    6.6258    3.7918 H   0  0  0  0  0  0  0  0  0  0  0  0
  2 19  1  0  0  0  0
  4 33  1  1  0  0  0
  4 10  1  0  0  0  0
  5 15  1  0  0  0  0
  5  8  1  0  0  0  0
  6  5  1  0  0  0  0
  7  5  1  0  0  0  0
 10 35  1  1  0  0  0
 12 11  1  0  0  0  0
 13 11  1  0  0  0  0
 14 11  1  0  0  0  0
 15  4  1  0  0  0  0
 15 23  1  1  0  0  0
 16 15  1  0  0  0  0
 17 11  1  6  0  0  0
 17 29  1  0  0  0  0
 17 16  1  0  0  0  0
 17 31  1  0  0  0  0
 18 34  1  6  0  0  0
 18 30  1  0  0  0  0
 18  4  1  0  0  0  0
 19 22  1  0  0  0  0
 19 21  1  0  0  0  0
 20 19  1  0  0  0  0
 23 39  1  0  0  0  0
 24  2  1  0  0  0  0
 24 27  1  0  0  0  0
 25 24  1  0  0  0  0
 26 24  1  0  0  0  0
 28 10  1  0  0  0  0
 28 32  1  0  0  0  0
 29 18  1  0  0  0  0
 30 37  1  1  0  0  0
 30 10  1  0  0  0  0
 31  2  1  6  0  0  0
 31 30  1  0  0  0  0
 31 28  1  0  0  0  0
 36 16  1  0  0  0  0
 38 29  1  0  0  0  0
M  END
$$$$
