CSD_code = GIFFOR | q = 0 | S = 0 | Stoichiometry = C19H22Cl2N4NiO3 | MND = 6
 OpenBabel04212202043D

 51 54  0  0  1  0  0  0  0  0999 V2000
    7.2012   13.5746    9.8515 Ni  0  0  0  0  0  0  0  0  0  0  0  0
    5.4475   14.1635   10.7302 Cl  0  0  0  0  0  0  0  0  0  0  0  0
    6.4652   11.6298    9.5224 Cl  0  0  0  0  0  0  0  0  0  0  0  0
    8.8881   12.9624    9.0354 N   0  0  0  0  0  0  0  0  0  0  0  0
    6.9743   14.1676    7.5512 O   0  0  0  0  0  0  0  0  0  0  0  0
   10.0659   11.5373   12.1533 N   0  0  0  0  0  0  0  0  0  0  0  0
    8.3709   12.7265   12.9790 C   0  0  0  0  0  0  0  0  0  0  0  0
    9.3464   11.7546   13.3035 C   0  0  0  0  0  0  0  0  0  0  0  0
    8.5173   13.0749   11.6723 N   0  0  0  0  0  0  0  0  0  0  0  0
   11.0575   10.5127   11.9848 C   0  0  0  0  0  0  0  0  0  0  0  0
   10.9524   10.0458   11.0053 H   0  0  0  0  0  0  0  0  0  0  0  0
   10.9072    9.7509   12.7490 H   0  0  0  0  0  0  0  0  0  0  0  0
   12.0688   10.9163   12.0915 H   0  0  0  0  0  0  0  0  0  0  0  0
    9.5199   12.3603   11.2020 C   0  0  2  0  0  3  0  0  0  0  0  0
    8.0163   15.5157    9.9752 O   0  0  0  0  0  0  0  0  0  0  0  0
    9.0656   13.0720    7.7215 C   0  0  2  0  0  3  0  0  0  0  0  0
    9.8796   12.4830    9.8016 C   0  0  0  0  0  0  0  0  0  0  0  0
    7.8510   13.2305    5.7059 O   0  0  0  0  0  0  0  0  0  0  0  0
    7.8576   13.5554    6.9947 C   0  0  0  0  0  0  0  0  0  0  0  0
   11.1216   12.1687    9.2497 C   0  0  0  0  0  0  0  0  0  0  0  0
   11.9369   11.8510    9.8782 H   0  0  0  0  0  0  0  0  0  0  0  0
    9.4305   11.2182   14.5810 C   0  0  0  0  0  0  0  0  0  0  0  0
   10.1709   10.4770   14.8433 H   0  0  0  0  0  0  0  0  0  0  0  0
   10.2559   12.7316    7.0929 C   0  0  0  0  0  0  0  0  0  0  0  0
   10.3433   12.8218    6.0228 H   0  0  0  0  0  0  0  0  0  0  0  0
   11.3087   12.2972    7.8829 C   0  0  0  0  0  0  0  0  0  0  0  0
   12.2633   12.0554    7.4404 H   0  0  0  0  0  0  0  0  0  0  0  0
    8.5185   11.6724   15.5110 C   0  0  0  0  0  0  0  0  0  0  0  0
    8.5518   11.2767   16.5154 H   0  0  0  0  0  0  0  0  0  0  0  0
    7.4521   13.1664   13.9285 C   0  0  0  0  0  0  0  0  0  0  0  0
    6.6944   13.8810   13.6510 H   0  0  0  0  0  0  0  0  0  0  0  0
    8.0252   17.7063   10.5062 N   0  0  0  0  0  0  0  0  0  0  0  0
    7.5443   12.6246   15.1902 C   0  0  0  0  0  0  0  0  0  0  0  0
    6.8476   12.9317   15.9556 H   0  0  0  0  0  0  0  0  0  0  0  0
    7.4446   16.5104   10.4006 C   0  0  0  0  0  3  0  0  0  0  0  0
    6.3989   16.4852   10.7346 H   0  0  0  0  0  0  0  0  0  0  0  0
    9.4012   17.9010   10.1159 C   0  0  0  0  0  0  0  0  0  0  0  0
    9.7919   16.9477    9.7653 H   0  0  0  0  0  0  0  0  0  0  0  0
    9.9927   18.2458   10.9669 H   0  0  0  0  0  0  0  0  0  0  0  0
    9.4695   18.6399    9.3145 H   0  0  0  0  0  0  0  0  0  0  0  0
    7.3294   18.8587   11.0142 C   0  0  0  0  0  0  0  0  0  0  0  0
    6.3085   18.5879   11.2730 H   0  0  0  0  0  0  0  0  0  0  0  0
    7.3077   19.6507   10.2612 H   0  0  0  0  0  0  0  0  0  0  0  0
    7.8325   19.2420   11.9057 H   0  0  0  0  0  0  0  0  0  0  0  0
    6.6384   13.5165    4.9961 C   0  0  0  0  0  0  0  0  0  0  0  0
    6.9141   13.4546    3.9414 H   0  0  0  0  0  0  0  0  0  0  0  0
    6.3167   14.5338    5.2414 H   0  0  0  0  0  0  0  0  0  0  0  0
    5.5473   12.5172    5.3500 C   0  0  0  0  0  0  0  0  0  0  0  0
    4.6493   12.7427    4.7823 H   0  0  0  0  0  0  0  0  0  0  0  0
    5.3163   12.5747    6.4112 H   0  0  0  0  0  0  0  0  0  0  0  0
    5.8723   11.5056    5.1193 H   0  0  0  0  0  0  0  0  0  0  0  0
  1 15  1  0  0  0  0
  1  2  1  0  0  0  0
  1  9  1  0  0  0  0
  3  1  1  0  0  0  0
  4 17  1  0  0  0  0
  4  1  1  0  0  0  0
  6  8  1  0  0  0  0
  7  8  2  0  0  0  0
  7 30  1  0  0  0  0
  8 22  1  0  0  0  0
  9  7  1  0  0  0  0
 10 13  1  0  0  0  0
 10  6  1  0  0  0  0
 10 12  1  0  0  0  0
 11 10  1  0  0  0  0
 14 17  1  6  0  0  0
 14  9  1  0  0  0  0
 14  6  1  0  0  0  0
 15 35  1  0  0  0  0
 16 19  1  6  0  0  0
 16  4  1  0  0  0  0
 18 19  1  0  0  0  0
 19  5  2  0  0  0  0
 20 17  2  0  0  0  0
 20 21  1  0  0  0  0
 22 23  1  0  0  0  0
 22 28  2  0  0  0  0
 24 16  1  0  0  0  0
 24 26  2  0  0  0  0
 25 24  1  0  0  0  0
 26 20  1  0  0  0  0
 27 26  1  0  0  0  0
 28 29  1  0  0  0  0
 30 33  2  0  0  0  0
 31 30  1  0  0  0  0
 32 41  1  0  0  0  0
 33 28  1  0  0  0  0
 33 34  1  0  0  0  0
 35 32  1  0  0  0  0
 35 36  1  0  0  0  0
 37 32  1  0  0  0  0
 37 39  1  0  0  0  0
 38 37  1  0  0  0  0
 40 37  1  0  0  0  0
 41 42  1  0  0  0  0
 41 44  1  0  0  0  0
 43 41  1  0  0  0  0
 45 47  1  0  0  0  0
 45 48  1  0  0  0  0
 45 18  1  0  0  0  0
 46 45  1  0  0  0  0
 48 50  1  0  0  0  0
 49 48  1  0  0  0  0
 51 48  1  0  0  0  0
M  END
$$$$
