CSD_code = GIFFUY | q = -1 | S = 0 | Stoichiometry = C8H8Br3N2Ni(1-) | MND = 4
 OpenBabel04212202043D

 22 23  0  0  0  0  0  0  0  0999 V2000
    3.2267    1.0351    8.5811 Ni  0  0  0  0  0  0  0  0  0  0  0  0
    3.6684    3.3568    8.0841 Br  0  0  0  0  0  0  0  0  0  0  0  0
    1.5917    0.6354   10.2546 Br  0  0  0  0  0  0  0  0  0  0  0  0
    5.0689   -0.4417    8.3286 Br  0  0  0  0  0  0  0  0  0  0  0  0
    2.2766    0.5292    7.1257 N   0  0  0  0  0  0  0  0  0  0  0  0
    1.9466    1.2460    6.0806 C   0  0  0  0  0  3  0  0  0  0  0  0
    2.1976    2.2818    5.9443 H   0  0  0  0  0  0  0  0  0  0  0  0
    1.2410    0.5440    5.1647 N   0  0  0  0  0  0  0  0  0  0  0  0
    1.1068   -0.7293    5.6609 C   0  0  0  0  0  0  0  0  0  0  0  0
    1.7662   -0.7320    6.9061 C   0  0  0  0  0  0  0  0  0  0  0  0
    1.8191   -1.8843    7.6813 C   0  0  0  0  0  0  0  0  0  0  0  0
    2.3247   -1.8882    8.6350 H   0  0  0  0  0  0  0  0  0  0  0  0
    1.2026   -3.0105    7.1807 C   0  0  0  0  0  0  0  0  0  0  0  0
    1.2240   -3.9235    7.7558 H   0  0  0  0  0  0  0  0  0  0  0  0
    0.5495   -3.0035    5.9465 C   0  0  0  0  0  0  0  0  0  0  0  0
    0.0802   -3.9111    5.5946 H   0  0  0  0  0  0  0  0  0  0  0  0
    0.4888   -1.8678    5.1649 C   0  0  0  0  0  0  0  0  0  0  0  0
   -0.0161   -1.8633    4.2101 H   0  0  0  0  0  0  0  0  0  0  0  0
    0.7405    1.0341    3.9148 C   0  0  0  0  0  0  0  0  0  0  0  0
    1.0015    2.0860    3.8143 H   0  0  0  0  0  0  0  0  0  0  0  0
   -0.3464    0.9290    3.8741 H   0  0  0  0  0  0  0  0  0  0  0  0
    1.1797    0.4752    3.0846 H   0  0  0  0  0  0  0  0  0  0  0  0
  1  3  1  0  0  0  0
  2  1  1  0  0  0  0
  4  1  1  0  0  0  0
  5  1  1  0  0  0  0
  6  5  1  0  0  0  0
  7  6  1  0  0  0  0
  8  9  1  0  0  0  0
  8  6  1  0  0  0  0
  9 10  1  0  0  0  0
 10  5  1  0  0  0  0
 10 11  2  0  0  0  0
 11 12  1  0  0  0  0
 13 11  1  0  0  0  0
 13 14  1  0  0  0  0
 15 13  2  0  0  0  0
 16 15  1  0  0  0  0
 17  9  2  0  0  0  0
 17 15  1  0  0  0  0
 18 17  1  0  0  0  0
 19  8  1  0  0  0  0
 20 19  1  0  0  0  0
 21 19  1  0  0  0  0
 22 19  1  0  0  0  0
M  END
$$$$
