CSD_code = GIFFOS | q = -1 | S = 0 | Stoichiometry = C4H6Br3N2Ni(1-) | MND = 4
 OpenBabel04212202043D

 16 16  0  0  0  0  0  0  0  0999 V2000
    6.0195   13.5382    3.7222 Ni  0  0  0  0  0  0  0  0  0  0  0  0
    4.2520   12.7447    2.5794 Br  0  0  0  0  0  0  0  0  0  0  0  0
    7.1554   15.1940    4.7115 Br  0  0  0  0  0  0  0  0  0  0  0  0
    7.6686   12.4247    2.7025 Br  0  0  0  0  0  0  0  0  0  0  0  0
    5.7838   12.1389    5.5516 N   0  0  0  0  0  0  0  0  0  0  0  0
    5.5921   10.8659    5.3126 C   0  0  0  0  0  3  0  0  0  0  0  0
    5.2485   10.4592    4.3807 H   0  0  0  0  0  0  0  0  0  0  0  0
    5.8820   10.1118    6.3902 N   0  0  0  0  0  0  0  0  0  0  0  0
    6.2854   10.9740    7.3726 C   0  0  0  0  0  0  0  0  0  0  0  0
    6.5834   10.6305    8.3424 H   0  0  0  0  0  0  0  0  0  0  0  0
    6.2193   12.2248    6.8360 C   0  0  0  0  0  0  0  0  0  0  0  0
    6.4620   13.1707    7.2787 H   0  0  0  0  0  0  0  0  0  0  0  0
    5.8117    8.6839    6.4859 C   0  0  0  0  0  0  0  0  0  0  0  0
    5.4899    8.2794    5.5278 H   0  0  0  0  0  0  0  0  0  0  0  0
    5.0981    8.3848    7.2585 H   0  0  0  0  0  0  0  0  0  0  0  0
    6.7918    8.2698    6.7339 H   0  0  0  0  0  0  0  0  0  0  0  0
  1  3  1  0  0  0  0
  1  5  1  0  0  0  0
  2  1  1  0  0  0  0
  4  1  1  0  0  0  0
  5 11  1  0  0  0  0
  6  5  1  0  0  0  0
  6  8  1  0  0  0  0
  7  6  1  0  0  0  0
  8 13  1  0  0  0  0
  8  9  1  0  0  0  0
  9 10  1  0  0  0  0
 11 12  1  0  0  0  0
 11  9  2  0  0  0  0
 13 16  1  0  0  0  0
 13 15  1  0  0  0  0
 14 13  1  0  0  0  0
M  END
$$$$
