CSD_code = GIFGAD | q = 0 | S = 0 | Stoichiometry = C7H6I2N2O3W | MND = 7
 OpenBabel04212202043D

 21 20  0  0  0  0  0  0  0  0999 V2000
    3.2364    2.0832    3.1166 W   0  0  0  0  0  0  0  0  0  0  0  0
    3.4020    1.1934    0.4338 I   0  0  0  0  0  0  0  0  0  0  0  0
    3.3311    3.9303    5.2664 I   0  0  0  0  0 15  0  0  0  0  0  0
    2.7157    0.1800    3.4260 C   0  0  0  0  0  0  0  0  0  0  0  0
    2.6046   -0.9781    3.6048 O   0  0  0  0  0  0  0  0  0  0  0  0
    1.6550    1.3123    4.0605 C   0  0  0  0  0  0  0  0  0  0  0  0
    0.6000    1.0437    4.5050 O   0  0  0  0  0  0  0  0  0  0  0  0
    4.6042    3.4788    2.3555 N   0  0  0  0  0  2  0  0  0  0  0  0
    5.3954    4.2177    1.9622 C   0  0  0  0  0  2  0  0  0  0  0  0
    6.3747    5.1322    1.4867 C   0  0  0  0  0  0  0  0  0  0  0  0
    7.3699    4.7526    1.7207 H   0  0  0  0  0  0  0  0  0  0  0  0
    6.2356    6.0969    1.9762 H   0  0  0  0  0  0  0  0  0  0  0  0
    6.2781    5.2503    0.4067 H   0  0  0  0  0  0  0  0  0  0  0  0
    4.7015    1.0333    3.9815 C   0  0  0  0  0  2  0  0  0  0  0  0
    1.7743    3.3527    2.3003 N   0  0  0  0  0  2  0  0  0  0  0  0
    5.4756    0.3406    4.4800 O   0  0  0  0  0  1  0  0  0  0  0  0
    0.9061    4.0246    1.9494 C   0  0  0  0  0  2  0  0  0  0  0  0
   -0.1735    4.8492    1.5227 C   0  0  0  0  0  0  0  0  0  0  0  0
   -1.1170    4.3722    1.7902 H   0  0  0  0  0  0  0  0  0  0  0  0
   -0.1101    5.8179    2.0198 H   0  0  0  0  0  0  0  0  0  0  0  0
   -0.1330    4.9881    0.4417 H   0  0  0  0  0  0  0  0  0  0  0  0
  1  4  1  0  0  0  0
  1 14  1  0  0  0  0
  1  6  1  0  0  0  0
  2  1  1  0  0  0  0
  4  5  2  0  0  0  0
  4  6  1  0  0  0  0
  6  7  2  0  0  0  0
  8  1  1  0  0  0  0
  9  8  1  0  0  0  0
 10 11  1  0  0  0  0
 10  9  1  0  0  0  0
 10 12  1  0  0  0  0
 13 10  1  0  0  0  0
 14 16  1  0  0  0  0
 15  1  1  0  0  0  0
 17 15  1  0  0  0  0
 18 19  1  0  0  0  0
 18 17  1  0  0  0  0
 18 20  1  0  0  0  0
 21 18  1  0  0  0  0
M  END
$$$$
