CSD_code = GIFGEI | q = 0 | S = 0 | Stoichiometry = C25H26Cl2N4Ni | MND = 5
 OpenBabel04212202043D

 58 63  0  0  1  0  0  0  0  0999 V2000
    7.8961    7.2388    3.4578 Ni  0  0  0  0  0  0  0  0  0  0  0  0
    8.5706    6.4924    1.7015 N   0  0  0  0  0  0  0  0  0  0  0  0
    8.4092    5.2856    4.6503 Cl  0  0  0  0  0  0  0  0  0  0  0  0
    9.6444    7.5882    3.6892 N   0  0  0  0  0  0  0  0  0  0  0  0
    5.8902    6.9764    3.1312 Cl  0  0  0  0  0  0  0  0  0  0  0  0
    7.7201    8.5777    4.9211 N   0  0  0  0  0  0  0  0  0  0  0  0
   10.3525    5.4179    0.8937 N   0  0  0  0  0  0  0  0  0  0  0  0
    9.8847    6.3042    1.8145 C   0  0  2  0  0  3  0  0  0  0  0  0
   10.0075    8.2971    4.7706 C   0  0  0  0  0  0  0  0  0  0  0  0
    8.1464    5.6998    0.6764 C   0  0  0  0  0  0  0  0  0  0  0  0
    8.8585    8.8225    5.4864 C   0  0  0  0  0  0  0  0  0  0  0  0
   10.5543    7.0077    2.8862 C   0  0  0  0  0  0  0  0  0  0  0  0
   12.3029    7.8551    4.2801 C   0  0  0  0  0  0  0  0  0  0  0  0
   13.3526    7.9566    4.5093 H   0  0  0  0  0  0  0  0  0  0  0  0
    9.0296    9.5831    6.7601 C   0  0  0  0  0  0  0  0  0  0  0  0
    8.0743    9.9782    7.0973 H   0  0  0  0  0  0  0  0  0  0  0  0
    9.7265   10.4069    6.6106 H   0  0  0  0  0  0  0  0  0  0  0  0
    9.4373    8.9283    7.5295 H   0  0  0  0  0  0  0  0  0  0  0  0
    6.4942    9.0139    5.4526 C   0  0  0  0  0  0  0  0  0  0  0  0
   11.3532    8.4341    5.1034 C   0  0  0  0  0  0  0  0  0  0  0  0
   11.6456    8.9823    5.9841 H   0  0  0  0  0  0  0  0  0  0  0  0
   11.9108    7.1379    3.1554 C   0  0  0  0  0  0  0  0  0  0  0  0
   12.6532    6.7009    2.5099 H   0  0  0  0  0  0  0  0  0  0  0  0
    9.2673    5.0145    0.1527 C   0  0  0  0  0  0  0  0  0  0  0  0
    6.8731    5.5066    0.1452 C   0  0  0  0  0  0  0  0  0  0  0  0
    6.0278    6.0176    0.5773 H   0  0  0  0  0  0  0  0  0  0  0  0
   11.6874    4.9028    0.7775 C   0  0  0  0  0  0  0  0  0  0  0  0
   12.0495    4.5733    1.7527 H   0  0  0  0  0  0  0  0  0  0  0  0
   12.3642    5.6586    0.3704 H   0  0  0  0  0  0  0  0  0  0  0  0
   11.6751    4.0476    0.1048 H   0  0  0  0  0  0  0  0  0  0  0  0
    4.6464    8.8357    6.9551 C   0  0  0  0  0  0  0  0  0  0  0  0
    4.1463    8.3302    7.7675 H   0  0  0  0  0  0  0  0  0  0  0  0
    9.1370    4.1338   -0.9130 C   0  0  0  0  0  0  0  0  0  0  0  0
    9.9833    3.6038   -1.3235 H   0  0  0  0  0  0  0  0  0  0  0  0
    5.8717   10.0876    4.7925 C   0  0  0  0  0  0  0  0  0  0  0  0
    4.0491    9.9237    6.3518 C   0  0  0  0  0  0  0  0  0  0  0  0
    3.0934   10.2804    6.7064 H   0  0  0  0  0  0  0  0  0  0  0  0
    7.8706    3.9564   -1.4291 C   0  0  0  0  0  0  0  0  0  0  0  0
    7.7317    3.2761   -2.2559 H   0  0  0  0  0  0  0  0  0  0  0  0
    5.8781    8.3597    6.5236 C   0  0  0  0  0  0  0  0  0  0  0  0
    6.7591    4.6279   -0.9078 C   0  0  0  0  0  0  0  0  0  0  0  0
    5.7896    4.4445   -1.3447 H   0  0  0  0  0  0  0  0  0  0  0  0
    6.5658   10.6687    3.5902 C   0  0  0  0  0  0  0  0  0  0  0  0
    6.8297    9.8251    2.9334 H   0  0  0  0  0  0  0  0  0  0  0  0
    7.5070   11.1335    3.9080 H   0  0  0  0  0  0  0  0  0  0  0  0
    4.6551   10.5405    5.2699 C   0  0  0  0  0  0  0  0  0  0  0  0
    4.1611   11.3693    4.7896 H   0  0  0  0  0  0  0  0  0  0  0  0
    6.4641    7.1280    7.1562 C   0  0  0  0  0  0  0  0  0  0  0  0
    5.7398    6.3176    7.0420 H   0  0  0  0  0  0  0  0  0  0  0  0
    7.3684    6.8163    6.6324 H   0  0  0  0  0  0  0  0  0  0  0  0
    5.7517   11.6780    2.7935 C   0  0  0  0  0  0  0  0  0  0  0  0
    6.3130   11.9881    1.9143 H   0  0  0  0  0  0  0  0  0  0  0  0
    5.5349   12.5651    3.3853 H   0  0  0  0  0  0  0  0  0  0  0  0
    4.8168   11.2335    2.4624 H   0  0  0  0  0  0  0  0  0  0  0  0
    6.7678    7.3106    8.6430 C   0  0  0  0  0  0  0  0  0  0  0  0
    7.2093    6.4004    9.0416 H   0  0  0  0  0  0  0  0  0  0  0  0
    5.8605    7.5248    9.2029 H   0  0  0  0  0  0  0  0  0  0  0  0
    7.4648    8.1303    8.8046 H   0  0  0  0  0  0  0  0  0  0  0  0
  1  4  1  0  0  0  0
  1  3  1  0  0  0  0
  1  6  1  0  0  0  0
  2  8  1  0  0  0  0
  2  1  1  0  0  0  0
  4  9  1  0  0  0  0
  5  1  1  0  0  0  0
  6 19  1  0  0  0  0
  6 11  1  0  0  0  0
  7  8  1  0  0  0  0
  8 12  1  1  0  0  0
  9 20  1  0  0  0  0
  9 11  2  0  0  0  0
 10  2  1  0  0  0  0
 11 15  1  0  0  0  0
 12 22  2  0  0  0  0
 12  4  1  0  0  0  0
 13 14  1  0  0  0  0
 13 20  2  0  0  0  0
 15 16  1  0  0  0  0
 15 18  1  0  0  0  0
 17 15  1  0  0  0  0
 19 40  1  0  0  0  0
 20 21  1  0  0  0  0
 22 13  1  0  0  0  0
 23 22  1  0  0  0  0
 24 10  1  0  0  0  0
 24  7  1  0  0  0  0
 25 26  1  0  0  0  0
 25 10  2  0  0  0  0
 27  7  1  0  0  0  0
 27 28  1  0  0  0  0
 29 27  1  0  0  0  0
 30 27  1  0  0  0  0
 31 32  1  0  0  0  0
 33 24  2  0  0  0  0
 34 33  1  0  0  0  0
 35 46  1  0  0  0  0
 35 19  2  0  0  0  0
 36 37  1  0  0  0  0
 36 31  1  0  0  0  0
 38 33  1  0  0  0  0
 38 41  2  0  0  0  0
 39 38  1  0  0  0  0
 40 31  2  0  0  0  0
 40 48  1  0  0  0  0
 41 25  1  0  0  0  0
 42 41  1  0  0  0  0
 43 45  1  0  0  0  0
 43 35  1  0  0  0  0
 44 43  1  0  0  0  0
 46 36  2  0  0  0  0
 47 46  1  0  0  0  0
 48 55  1  0  0  0  0
 49 48  1  0  0  0  0
 50 48  1  0  0  0  0
 51 53  1  0  0  0  0
 51 43  1  0  0  0  0
 52 51  1  0  0  0  0
 54 51  1  0  0  0  0
 55 58  1  0  0  0  0
 55 56  1  0  0  0  0
 55 57  1  0  0  0  0
M  END
$$$$
