CSD_code = GIFPAN | q = 0 | S = 0 | Stoichiometry = C16H19BrN2O2Pd | MND = 4
 OpenBabel04212202043D

 41 43  0  0  1  0  0  0  0  0999 V2000
    2.6471    7.4088    2.0155 Pd  0  0  1  0  0  0  0  0  0  0  0  0
    3.6016    6.2688    3.9938 Br  0  0  0  0  0  0  0  0  0  0  0  0
    4.1335    6.4864    0.8451 N   0  0  0  0  0  4  0  0  0  0  0  0
    4.8539    7.2068    0.6885 H   0  0  0  0  0  0  0  0  0  0  0  0
    4.5277    5.7753    1.4679 H   0  0  0  0  0  0  0  0  0  0  0  0
    4.0282    6.4003   -2.7614 O   0  0  0  0  0  0  0  0  0  0  0  0
    5.1346    7.7021   -1.3086 O   0  0  0  0  0  0  0  0  0  0  0  0
    1.9171    8.2554    0.3312 C   0  0  0  0  0  0  0  0  0  0  0  0
    1.7709    7.4049   -0.7691 C   0  0  0  0  0  0  0  0  0  0  0  0
    1.3022    7.8885   -1.9815 C   0  0  0  0  0  0  0  0  0  0  0  0
    1.1913    7.2159   -2.8220 H   0  0  0  0  0  0  0  0  0  0  0  0
    0.9753    9.2271   -2.1162 C   0  0  0  0  0  0  0  0  0  0  0  0
    0.6102    9.6017   -3.0619 H   0  0  0  0  0  0  0  0  0  0  0  0
    1.1245   10.0816   -1.0391 C   0  0  0  0  0  0  0  0  0  0  0  0
    0.8806   11.1297   -1.1428 H   0  0  0  0  0  0  0  0  0  0  0  0
    1.5858    9.5968    0.1765 C   0  0  0  0  0  0  0  0  0  0  0  0
    1.6939   10.2879    1.0077 H   0  0  0  0  0  0  0  0  0  0  0  0
    2.2114    5.9634   -0.6289 C   0  0  0  0  0  0  0  0  0  0  0  0
    1.9362    5.3835   -1.5099 H   0  0  0  0  0  0  0  0  0  0  0  0
    1.7579    5.5030    0.2657 H   0  0  0  0  0  0  0  0  0  0  0  0
    3.7464    5.9333   -0.4516 C   0  0  1  0  0  0  0  0  0  0  0  0
    4.1076    4.9027   -0.5681 H   0  0  0  0  0  0  0  0  0  0  0  0
    4.3855    6.7898   -1.5470 C   0  0  0  0  0  0  0  0  0  0  0  0
    4.5136    7.1908   -3.8415 C   0  0  0  0  0  0  0  0  0  0  0  0
    4.0773    8.1902   -3.7932 H   0  0  0  0  0  0  0  0  0  0  0  0
    4.2079    6.6824   -4.7518 H   0  0  0  0  0  0  0  0  0  0  0  0
    5.6006    7.2751   -3.7916 H   0  0  0  0  0  0  0  0  0  0  0  0
    1.2909    8.2812    3.1042 N   0  0  0  0  0  0  0  0  0  0  0  0
    0.0067    7.9301    3.1167 C   0  0  0  0  0  3  0  0  0  0  0  0
   -0.3082    7.2069    2.3695 H   0  0  0  0  0  0  0  0  0  0  0  0
   -0.8922    8.4492    4.0294 C   0  0  0  0  0  0  0  0  0  0  0  0
   -1.9216    8.1270    4.0069 H   0  0  0  0  0  0  0  0  0  0  0  0
   -0.4636    9.3776    4.9729 C   0  0  0  0  0  0  0  0  0  0  0  0
    0.8816    9.7405    4.9380 C   0  0  0  0  0  0  0  0  0  0  0  0
    1.2733   10.4544    5.6455 H   0  0  0  0  0  0  0  0  0  0  0  0
    1.7195    9.1732    4.0003 C   0  0  0  0  0  0  0  0  0  0  0  0
    2.7791    9.4264    3.9652 H   0  0  0  0  0  0  0  0  0  0  0  0
   -1.3904    9.9437    5.9964 C   0  0  0  0  0  0  0  0  0  0  0  0
   -1.2575    9.4145    6.9404 H   0  0  0  0  0  0  0  0  0  0  0  0
   -2.4269    9.8348    5.6879 H   0  0  0  0  0  0  0  0  0  0  0  0
   -1.1757   10.9954    6.1718 H   0  0  0  0  0  0  0  0  0  0  0  0
  1 28  1  0  0  0  0
  1  2  1  6  0  0  0
  3  5  1  0  0  0  0
  3  1  1  0  0  0  0
  4  3  1  0  0  0  0
  6 23  1  0  0  0  0
  8  1  1  0  0  0  0
  9 18  1  0  0  0  0
  9  8  2  0  0  0  0
 10  9  1  0  0  0  0
 11 10  1  0  0  0  0
 12 10  2  0  0  0  0
 12 14  1  0  0  0  0
 13 12  1  0  0  0  0
 14 16  2  0  0  0  0
 15 14  1  0  0  0  0
 16  8  1  0  0  0  0
 16 17  1  0  0  0  0
 18 21  1  0  0  0  0
 18 20  1  0  0  0  0
 19 18  1  0  0  0  0
 21 22  1  6  0  0  0
 21  3  1  0  0  0  0
 23  7  2  0  0  0  0
 23 21  1  0  0  0  0
 24 25  1  0  0  0  0
 24 27  1  0  0  0  0
 24  6  1  0  0  0  0
 26 24  1  0  0  0  0
 28 29  1  0  0  0  0
 28 36  1  0  0  0  0
 29 31  1  0  0  0  0
 30 29  1  0  0  0  0
 31 33  2  0  0  0  0
 32 31  1  0  0  0  0
 33 38  1  0  0  0  0
 34 33  1  0  0  0  0
 34 35  1  0  0  0  0
 36 34  2  0  0  0  0
 37 36  1  0  0  0  0
 38 41  1  0  0  0  0
 38 39  1  0  0  0  0
 40 38  1  0  0  0  0
M  END
$$$$
