CSD_code = GIFSEU | q = 0 | S = 0 | Stoichiometry = C7H11Cl2N2O2ReS | MND = 6
 OpenBabel04212202043D

 26 28  0  0  1  0  0  0  0  0999 V2000
    0.3849    4.0509   10.3420 Re  0  0  0  0  0  0  0  0  0  0  0  0
    0.3956    2.5481    8.6395 Cl  0  0  0  0  0  0  0  0  0  0  0  0
    1.2153    5.6568    8.9711 Cl  0  0  0  0  0  0  0  0  0  0  0  0
   -0.1483    2.3791   12.6983 S   0  0  2  0  0  3  0  0  0  0  0  0
    1.9596    3.4278   10.9603 O   0  0  0  0  0  0  0  0  0  0  0  0
   -1.2147    4.4490   10.2761 O   0  0  0  0  0  1  0  0  0  0  0  0
    0.5394    5.4065   12.1745 N   0  0  0  0  0  0  0  0  0  0  0  0
    0.3256    6.1609   14.2165 N   0  0  0  0  0  0  0  0  0  0  0  0
    0.8124    6.7372   12.1610 C   0  0  0  0  0  0  0  0  0  0  0  0
    1.0745    7.2259   11.2446 H   0  0  0  0  0  0  0  0  0  0  0  0
    0.6837    7.2194   13.4268 C   0  0  0  0  0  0  0  0  0  0  0  0
    0.8115    8.2049   13.8229 H   0  0  0  0  0  0  0  0  0  0  0  0
    0.2485    5.0737   13.4156 C   0  0  1  0  0  3  0  0  0  0  0  0
   -0.1401    3.7333   13.9331 C   0  0  0  0  0  0  0  0  0  0  0  0
   -1.1702    3.7677   14.2973 H   0  0  0  0  0  0  0  0  0  0  0  0
    0.5089    3.4270   14.7571 H   0  0  0  0  0  0  0  0  0  0  0  0
    1.5962    1.8534   12.7086 C   0  0  0  0  0  0  0  0  0  0  0  0
    1.8953    1.6147   13.7276 H   0  0  0  0  0  0  0  0  0  0  0  0
    1.5919    0.9482   12.1012 H   0  0  0  0  0  0  0  0  0  0  0  0
    2.5336    2.9035   12.0752 C   0  0  0  0  0  0  0  0  0  0  0  0
    2.7347    3.7078   12.8082 H   0  0  0  0  0  0  0  0  0  0  0  0
    3.4929    2.4185   11.8318 H   0  0  0  0  0  0  0  0  0  0  0  0
    0.0552    6.2041   15.6263 C   0  0  0  0  0  0  0  0  0  0  0  0
    0.1714    7.2265   15.9790 H   0  0  0  0  0  0  0  0  0  0  0  0
    0.7475    5.5609   16.1735 H   0  0  0  0  0  0  0  0  0  0  0  0
   -0.9645    5.8729   15.8298 H   0  0  0  0  0  0  0  0  0  0  0  0
  1  5  1  0  0  0  0
  1  7  1  0  0  0  0
  1  4  1  0  0  0  0
  2  1  1  0  0  0  0
  3  1  1  0  0  0  0
  4 17  1  1  0  0  0
  4 14  1  0  0  0  0
  5 20  1  0  0  0  0
  6  1  1  0  0  0  0
  8 23  1  0  0  0  0
  9  7  1  0  0  0  0
  9 11  2  0  0  0  0
 10  9  1  0  0  0  0
 11 12  1  0  0  0  0
 11  8  1  0  0  0  0
 13  7  1  6  0  0  0
 13 14  1  0  0  0  0
 13  8  1  0  0  0  0
 14 15  1  0  0  0  0
 14 16  1  0  0  0  0
 17 18  1  0  0  0  0
 19 17  1  0  0  0  0
 20 17  1  0  0  0  0
 20 21  1  0  0  0  0
 22 20  1  0  0  0  0
 23 26  1  0  0  0  0
 23 24  1  0  0  0  0
 23 25  1  0  0  0  0
M  END
$$$$
