CSD_code = GIGDEG | q = 0 | S = 0 | Stoichiometry = C27H20BrCl2FeN3 | MND = 5
 OpenBabel04212202043D

 54 60  0  0  1  0  0  0  0  0999 V2000
    6.7239    2.6759    6.5960 Fe  0  0  0  0  0  0  0  0  0  0  0  0
   10.1087    1.5257    0.1628 Br  0  0  0  0  0  0  0  0  0  0  0  0
    8.1645    4.0538    7.2401 Cl  0  0  0  0  0  0  0  0  0  0  0  0
    7.4117    0.7974    6.1837 Cl  0  0  0  0  0  0  0  0  0  0  0  0
    5.3259    3.7466    6.7812 N   0  0  0  0  0  0  0  0  0  0  0  0
    6.5384    3.3442    4.7202 N   0  0  0  0  0  0  0  0  0  0  0  0
    5.6519    4.3124    4.5901 C   0  0  1  0  0  3  0  0  0  0  0  0
    6.2824    2.1885    8.5604 N   0  0  0  0  0  0  0  0  0  0  0  0
    7.3550    2.9645    3.6398 C   0  0  0  0  0  0  0  0  0  0  0  0
    5.2496    2.9693    8.9655 C   0  0  0  0  0  0  0  0  0  0  0  0
    4.8825    4.5403    5.7670 C   0  0  0  0  0  0  0  0  0  0  0  0
    3.6159    4.6576    8.2491 C   0  0  0  0  0  0  0  0  0  0  0  0
    4.7028    3.8156    7.9812 C   0  0  0  0  0  0  0  0  0  0  0  0
    5.4532    5.1008    3.3635 C   0  0  0  0  0  0  0  0  0  0  0  0
    3.7747    5.3861    5.9578 C   0  0  0  0  0  0  0  0  0  0  0  0
    3.4281    5.9786    5.1250 H   0  0  0  0  0  0  0  0  0  0  0  0
    4.7227    2.9735   10.2744 C   0  0  0  0  0  0  0  0  0  0  0  0
    9.2702    3.2992    2.2296 C   0  0  0  0  0  0  0  0  0  0  0  0
   10.1250    3.8866    1.9304 H   0  0  0  0  0  0  0  0  0  0  0  0
    7.8932    1.3466    1.9432 C   0  0  0  0  0  0  0  0  0  0  0  0
    7.6769    0.4254    1.4239 H   0  0  0  0  0  0  0  0  0  0  0  0
    8.9860    2.1105    1.5865 C   0  0  0  0  0  0  0  0  0  0  0  0
    6.8402    1.4037    9.4617 C   0  0  0  0  0  0  0  0  0  0  0  0
    7.6666    0.7963    9.1212 H   0  0  0  0  0  0  0  0  0  0  0  0
    3.1479    5.4553    7.1766 C   0  0  0  0  0  0  0  0  0  0  0  0
    2.3051    6.1113    7.3278 H   0  0  0  0  0  0  0  0  0  0  0  0
    7.0657    1.7648    2.9743 C   0  0  0  0  0  0  0  0  0  0  0  0
    8.4572    3.7443    3.2607 C   0  0  0  0  0  0  0  0  0  0  0  0
    5.0919    5.2733    0.9911 C   0  0  0  0  0  0  0  0  0  0  0  0
    4.9382    4.7951    0.0354 H   0  0  0  0  0  0  0  0  0  0  0  0
    3.0903    4.6346    9.5688 C   0  0  0  0  0  0  0  0  0  0  0  0
    2.2514    5.2763    9.7949 H   0  0  0  0  0  0  0  0  0  0  0  0
    5.3355    2.1161   11.2002 C   0  0  0  0  0  0  0  0  0  0  0  0
    4.9805    2.0756   12.2194 H   0  0  0  0  0  0  0  0  0  0  0  0
    5.2560    4.4979    2.1245 C   0  0  0  0  0  0  0  0  0  0  0  0
    5.2143    3.4230    2.0496 H   0  0  0  0  0  0  0  0  0  0  0  0
    3.6224    3.8358   10.5369 C   0  0  0  0  0  0  0  0  0  0  0  0
    3.2086    3.8411   11.5346 H   0  0  0  0  0  0  0  0  0  0  0  0
    6.3947    1.3376   10.7841 C   0  0  0  0  0  0  0  0  0  0  0  0
    6.8909    0.6700   11.4704 H   0  0  0  0  0  0  0  0  0  0  0  0
    5.8680    0.9318    3.3215 C   0  0  0  0  0  0  0  0  0  0  0  0
    5.3486    0.6198    2.4162 H   0  0  0  0  0  0  0  0  0  0  0  0
    5.1778    1.4748    3.9646 H   0  0  0  0  0  0  0  0  0  0  0  0
    6.1882    0.0376    3.8540 H   0  0  0  0  0  0  0  0  0  0  0  0
    8.7637    5.0420    3.9373 C   0  0  0  0  0  0  0  0  0  0  0  0
    9.7859    5.3457    3.7287 H   0  0  0  0  0  0  0  0  0  0  0  0
    8.6325    4.9575    5.0140 H   0  0  0  0  0  0  0  0  0  0  0  0
    8.0938    5.8224    3.5741 H   0  0  0  0  0  0  0  0  0  0  0  0
    5.3172    7.2625    2.3084 C   0  0  0  0  0  0  0  0  0  0  0  0
    5.3467    8.3395    2.3816 H   0  0  0  0  0  0  0  0  0  0  0  0
    5.1249    6.6547    1.0782 C   0  0  0  0  0  0  0  0  0  0  0  0
    5.0014    7.2566    0.1906 H   0  0  0  0  0  0  0  0  0  0  0  0
    5.4777    6.4934    3.4456 C   0  0  0  0  0  0  0  0  0  0  0  0
    5.6516    6.9647    4.4019 H   0  0  0  0  0  0  0  0  0  0  0  0
  1  5  1  0  0  0  0
  1  3  1  0  0  0  0
  1  8  1  0  0  0  0
  2 22  1  0  0  0  0
  4  1  1  0  0  0  0
  5 13  1  0  0  0  0
  6  1  1  0  0  0  0
  7 14  1  1  0  0  0
  7  6  1  0  0  0  0
  7 11  1  0  0  0  0
  8 10  1  0  0  0  0
  8 23  1  0  0  0  0
  9  6  1  0  0  0  0
 10 17  1  0  0  0  0
 11 15  2  0  0  0  0
 11  5  1  0  0  0  0
 12 31  1  0  0  0  0
 13 12  1  0  0  0  0
 13 10  2  0  0  0  0
 14 53  1  0  0  0  0
 15 25  1  0  0  0  0
 16 15  1  0  0  0  0
 17 37  1  0  0  0  0
 17 33  2  0  0  0  0
 18 28  2  0  0  0  0
 19 18  1  0  0  0  0
 20 27  1  0  0  0  0
 21 20  1  0  0  0  0
 22 20  2  0  0  0  0
 22 18  1  0  0  0  0
 23 39  2  0  0  0  0
 24 23  1  0  0  0  0
 25 26  1  0  0  0  0
 25 12  2  0  0  0  0
 27 41  1  0  0  0  0
 27  9  2  0  0  0  0
 28  9  1  0  0  0  0
 28 45  1  0  0  0  0
 29 51  2  0  0  0  0
 29 35  1  0  0  0  0
 30 29  1  0  0  0  0
 31 32  1  0  0  0  0
 31 37  2  0  0  0  0
 33 34  1  0  0  0  0
 35 14  2  0  0  0  0
 36 35  1  0  0  0  0
 37 38  1  0  0  0  0
 39 33  1  0  0  0  0
 39 40  1  0  0  0  0
 41 44  1  0  0  0  0
 41 43  1  0  0  0  0
 42 41  1  0  0  0  0
 45 47  1  0  0  0  0
 46 45  1  0  0  0  0
 48 45  1  0  0  0  0
 49 50  1  0  0  0  0
 49 53  2  0  0  0  0
 51 49  1  0  0  0  0
 52 51  1  0  0  0  0
 53 54  1  0  0  0  0
M  END
$$$$
