CSD_code = GIGMEP | q = 0 | S = 0 | Stoichiometry = C8H18Cl2MoO2S2 | MND = 6
 OpenBabel04212202043D

 33 33  0  0  0  0  0  0  0  0999 V2000
    8.7396   13.6009   12.0429 Mo  0  0  0  0  0  0  0  0  0  0  0  0
    8.6396   11.9711   14.5085 S   0  0  2  0  0  3  0  0  0  0  0  0
    6.3128   11.9420   11.7744 S   0  0  1  0  0  3  0  0  0  0  0  0
    7.0813   14.6582   13.1720 Cl  0  0  0  0  0  0  0  0  0  0  0  0
    9.6690   11.5941   11.5479 Cl  0  0  0  0  0  0  0  0  0  0  0  0
   10.0385   14.2831   12.7730 O   0  0  0  0  0  1  0  0  0  0  0  0
    8.3391   14.0957   10.5329 O   0  0  0  0  0  1  0  0  0  0  0  0
    6.9642   10.9871    9.3476 C   0  0  0  0  0  0  0  0  0  0  0  0
    7.3070   10.1828    8.7012 H   0  0  0  0  0  0  0  0  0  0  0  0
    7.7371   11.7562    9.3803 H   0  0  0  0  0  0  0  0  0  0  0  0
    6.0623   11.4222    8.9225 H   0  0  0  0  0  0  0  0  0  0  0  0
    5.5188    9.4787   10.7550 C   0  0  0  0  0  0  0  0  0  0  0  0
    4.6016    9.9875   10.4683 H   0  0  0  0  0  0  0  0  0  0  0  0
    5.3794    9.0265   11.7339 H   0  0  0  0  0  0  0  0  0  0  0  0
    5.7087    8.6804   10.0410 H   0  0  0  0  0  0  0  0  0  0  0  0
    6.6865   10.4485   10.7418 C   0  0  0  0  0  0  0  0  0  0  0  0
    7.5913    9.9947   11.1516 H   0  0  0  0  0  0  0  0  0  0  0  0
    6.0930   11.2832   13.4692 C   0  0  0  0  0  0  0  0  0  0  0  0
    5.6963   12.1344   14.0261 H   0  0  0  0  0  0  0  0  0  0  0  0
    5.3267   10.5092   13.4191 H   0  0  0  0  0  0  0  0  0  0  0  0
    7.3475   10.7323   14.1199 C   0  0  0  0  0  0  0  0  0  0  0  0
    7.8582   10.0245   13.4640 H   0  0  0  0  0  0  0  0  0  0  0  0
    7.0938   10.2258   15.0514 H   0  0  0  0  0  0  0  0  0  0  0  0
    7.9139   12.9775   15.8856 C   0  0  0  0  0  0  0  0  0  0  0  0
    6.9799   13.4029   15.5125 H   0  0  0  0  0  0  0  0  0  0  0  0
    8.9211   14.0862   16.1456 C   0  0  0  0  0  0  0  0  0  0  0  0
    8.5157   14.7937   16.8648 H   0  0  0  0  0  0  0  0  0  0  0  0
    9.1480   14.6234   15.2237 H   0  0  0  0  0  0  0  0  0  0  0  0
    9.8467   13.6725   16.5401 H   0  0  0  0  0  0  0  0  0  0  0  0
    7.6855   12.1184   17.1160 C   0  0  0  0  0  0  0  0  0  0  0  0
    8.6036   11.6073   17.3955 H   0  0  0  0  0  0  0  0  0  0  0  0
    6.9060   11.3779   16.9541 H   0  0  0  0  0  0  0  0  0  0  0  0
    7.3776   12.7533   17.9438 H   0  0  0  0  0  0  0  0  0  0  0  0
  1  6  1  0  0  0  0
  1  4  1  0  0  0  0
  1  2  1  0  0  0  0
  2 24  1  1  0  0  0
  3 16  1  6  0  0  0
  3  1  1  0  0  0  0
  3 18  1  0  0  0  0
  5  1  1  0  0  0  0
  7  1  1  0  0  0  0
  8 10  1  0  0  0  0
  8 16  1  0  0  0  0
  9  8  1  0  0  0  0
 11  8  1  0  0  0  0
 12 14  1  0  0  0  0
 13 12  1  0  0  0  0
 15 12  1  0  0  0  0
 16 12  1  0  0  0  0
 16 17  1  0  0  0  0
 18 19  1  0  0  0  0
 18 21  1  0  0  0  0
 20 18  1  0  0  0  0
 21  2  1  0  0  0  0
 21 23  1  0  0  0  0
 22 21  1  0  0  0  0
 24 26  1  0  0  0  0
 24 30  1  0  0  0  0
 25 24  1  0  0  0  0
 26 29  1  0  0  0  0
 26 27  1  0  0  0  0
 28 26  1  0  0  0  0
 30 31  1  0  0  0  0
 30 33  1  0  0  0  0
 32 30  1  0  0  0  0
M  END
$$$$
