CSD_code = GIGMAL | q = 0 | S = 0 | Stoichiometry = C8H18Cl2O2S2W | MND = 6
 OpenBabel04212202043D

 33 33  0  0  0  0  0  0  0  0999 V2000
    8.6539    0.5016    6.9216 W   0  0  0  0  0  0  0  0  0  0  0  0
    8.5600   -1.0610    4.5386 S   0  0  2  0  0  3  0  0  0  0  0  0
    6.2980   -1.0708    7.2004 S   0  0  1  0  0  3  0  0  0  0  0  0
    6.9563    1.6261    5.8237 Cl  0  0  0  0  0  0  0  0  0  0  0  0
    9.6473   -1.5293    7.4047 Cl  0  0  0  0  0  0  0  0  0  0  0  0
    9.9820    1.2397    6.2082 O   0  0  0  0  0  1  0  0  0  0  0  0
    8.2993    1.0195    8.4783 O   0  0  0  0  0  1  0  0  0  0  0  0
    8.8987    1.1209    3.0129 C   0  0  0  0  0  0  0  0  0  0  0  0
    9.1208    1.5768    3.9821 H   0  0  0  0  0  0  0  0  0  0  0  0
    8.5013    1.8909    2.3568 H   0  0  0  0  0  0  0  0  0  0  0  0
    9.8274    0.7412    2.5926 H   0  0  0  0  0  0  0  0  0  0  0  0
    7.7228   -0.8095    1.8939 C   0  0  0  0  0  0  0  0  0  0  0  0
    6.9463   -1.5643    1.9898 H   0  0  0  0  0  0  0  0  0  0  0  0
    8.6578   -1.2986    1.6319 H   0  0  0  0  0  0  0  0  0  0  0  0
    7.4430   -0.1411    1.0827 H   0  0  0  0  0  0  0  0  0  0  0  0
    7.8862   -0.0027    3.1682 C   0  0  0  0  0  0  0  0  0  0  0  0
    6.9332    0.4003    3.5167 H   0  0  0  0  0  0  0  0  0  0  0  0
    7.2537   -2.3112    4.8514 C   0  0  0  0  0  0  0  0  0  0  0  0
    6.9972   -2.7681    3.8958 H   0  0  0  0  0  0  0  0  0  0  0  0
    7.7522   -3.0550    5.4759 H   0  0  0  0  0  0  0  0  0  0  0  0
    6.0108   -1.7655    5.5265 C   0  0  0  0  0  0  0  0  0  0  0  0
    5.2538   -2.5444    5.6163 H   0  0  0  0  0  0  0  0  0  0  0  0
    5.5905   -0.9257    4.9694 H   0  0  0  0  0  0  0  0  0  0  0  0
    6.6857   -2.5401    8.2695 C   0  0  0  0  0  0  0  0  0  0  0  0
    7.5610   -3.0279    7.8359 H   0  0  0  0  0  0  0  0  0  0  0  0
    7.0425   -1.9463    9.6231 C   0  0  0  0  0  0  0  0  0  0  0  0
    7.7873   -1.1533    9.5111 H   0  0  0  0  0  0  0  0  0  0  0  0
    7.4582   -2.7159   10.2682 H   0  0  0  0  0  0  0  0  0  0  0  0
    6.1601   -1.5231   10.0980 H   0  0  0  0  0  0  0  0  0  0  0  0
    5.4988   -3.4817    8.3474 C   0  0  0  0  0  0  0  0  0  0  0  0
    5.3015   -3.9622    7.3924 H   0  0  0  0  0  0  0  0  0  0  0  0
    4.6077   -2.9441    8.6618 H   0  0  0  0  0  0  0  0  0  0  0  0
    5.7089   -4.2597    9.0778 H   0  0  0  0  0  0  0  0  0  0  0  0
  1  3  1  0  0  0  0
  1  5  1  0  0  0  0
  1  7  1  0  0  0  0
  2 16  1  6  0  0  0
  2 18  1  0  0  0  0
  2  1  1  0  0  0  0
  3 24  1  1  0  0  0
  4  1  1  0  0  0  0
  6  1  1  0  0  0  0
  8 16  1  0  0  0  0
  8  9  1  0  0  0  0
 10  8  1  0  0  0  0
 11  8  1  0  0  0  0
 12 13  1  0  0  0  0
 12 16  1  0  0  0  0
 14 12  1  0  0  0  0
 15 12  1  0  0  0  0
 16 17  1  0  0  0  0
 18 20  1  0  0  0  0
 18 21  1  0  0  0  0
 19 18  1  0  0  0  0
 21 22  1  0  0  0  0
 21  3  1  0  0  0  0
 23 21  1  0  0  0  0
 24 30  1  0  0  0  0
 24 26  1  0  0  0  0
 25 24  1  0  0  0  0
 26 29  1  0  0  0  0
 26 28  1  0  0  0  0
 27 26  1  0  0  0  0
 30 32  1  0  0  0  0
 30 33  1  0  0  0  0
 31 30  1  0  0  0  0
M  END
$$$$
