CSD_code = GIGTOH | q = -1 | S = 0 | Stoichiometry = C5H8Cl3N2O3Os(1-) | MND = 6
 OpenBabel04212202043D

 22 23  0  0  1  0  0  0  0  0999 V2000
    7.1428   10.7437   11.2310 Os  0  0  0  0  0  0  0  0  0  0  0  0
    5.4369    9.4974   12.1142 Cl  0  0  0  0  0  0  0  0  0  0  0  0
    5.8936   12.7218   11.4202 Cl  0  0  0  0  0  0  0  0  0  0  0  0
    8.4592    8.8564   10.7078 Cl  0  0  0  0  0  0  0  0  0  0  0  0
    6.3968   10.6046    9.3870 O   0  0  0  0  0  0  0  0  0  0  0  0
    6.4779   11.0787    7.2165 O   0  0  0  0  0  0  0  0  0  0  0  0
    8.5935   11.2757   13.6302 O   0  0  0  0  0  1  0  0  0  0  0  0
    8.6877   11.8273   10.0051 N   0  0  2  0  0  4  0  0  0  0  0  0
    9.4752   11.1808   10.0692 H   0  0  0  0  0  0  0  0  0  0  0  0
    7.9338   10.9994   12.6982 N   0  0  0  0  0  2  0  0  0  0  0  0
    9.0747   13.1846   10.4438 C   0  0  0  0  0  0  0  0  0  0  0  0
    9.9863   13.1491   11.0423 H   0  0  0  0  0  0  0  0  0  0  0  0
    8.2622   13.5977   11.0499 H   0  0  0  0  0  0  0  0  0  0  0  0
    9.2045   14.0059    9.1620 C   0  0  0  0  0  0  0  0  0  0  0  0
   10.1772   13.8462    8.6899 H   0  0  0  0  0  0  0  0  0  0  0  0
    9.0695   15.0701    9.3424 H   0  0  0  0  0  0  0  0  0  0  0  0
    8.0924   13.3986    8.3136 C   0  0  0  0  0  0  0  0  0  0  0  0
    7.1216   13.7418    8.6755 H   0  0  0  0  0  0  0  0  0  0  0  0
    8.1724   13.6149    7.2510 H   0  0  0  0  0  0  0  0  0  0  0  0
    8.2466   11.9042    8.5996 C   0  0  2  0  0  0  0  0  0  0  0  0
    8.9969   11.4588    7.9344 H   0  0  0  0  0  0  0  0  0  0  0  0
    6.9072   11.1239    8.3514 C   0  0  0  0  0  0  0  0  0  0  0  0
  1  3  1  0  0  0  0
  1  2  1  0  0  0  0
  1 10  1  0  0  0  0
  4  1  1  0  0  0  0
  5  1  1  0  0  0  0
  6 22  2  0  0  0  0
  8  9  1  1  0  0  0
  8 11  1  0  0  0  0
  8  1  1  0  0  0  0
 10  7  1  0  0  0  0
 11 12  1  0  0  0  0
 11 13  1  0  0  0  0
 14 16  1  0  0  0  0
 14 11  1  0  0  0  0
 15 14  1  0  0  0  0
 17 20  1  0  0  0  0
 17 18  1  0  0  0  0
 17 14  1  0  0  0  0
 19 17  1  0  0  0  0
 20 21  1  6  0  0  0
 20  8  1  0  0  0  0
 22 20  1  0  0  0  0
 22  5  1  0  0  0  0
M  END
$$$$
