CSD_code = GIGTUN | q = -1 | S = 0 | Stoichiometry = C5H8Cl3N2O3Os(1-) | MND = 6
 OpenBabel04212202043D

 22 23  0  0  1  0  0  0  0  0999 V2000
    3.2379   10.7500   11.2602 Os  0  0  0  0  0  0  0  0  0  0  0  0
    4.9433    9.5062   12.1465 Cl  0  0  0  0  0  0  0  0  0  0  0  0
    4.4845   12.7292   11.4471 Cl  0  0  0  0  0  0  0  0  0  0  0  0
    1.9225    8.8619   10.7374 Cl  0  0  0  0  0  0  0  0  0  0  0  0
    3.9856   10.6088    9.4170 O   0  0  0  0  0  0  0  0  0  0  0  0
    3.9050   11.0787    7.2454 O   0  0  0  0  0  0  0  0  0  0  0  0
    1.3064   13.1894   10.4673 C   0  0  0  0  0  0  0  0  0  0  0  0
    0.3956   13.1552   11.0671 H   0  0  0  0  0  0  0  0  0  0  0  0
    2.1197   13.6044   11.0712 H   0  0  0  0  0  0  0  0  0  0  0  0
    1.1749   14.0070    9.1832 C   0  0  0  0  0  0  0  0  0  0  0  0
    1.3072   15.0721    9.3604 H   0  0  0  0  0  0  0  0  0  0  0  0
    0.2027   13.8433    8.7114 H   0  0  0  0  0  0  0  0  0  0  0  0
    2.2884   13.3994    8.3371 C   0  0  0  0  0  0  0  0  0  0  0  0
    3.2585   13.7441    8.6997 H   0  0  0  0  0  0  0  0  0  0  0  0
    2.2096   13.6135    7.2739 H   0  0  0  0  0  0  0  0  0  0  0  0
    2.1352   11.9054    8.6261 C   0  0  1  0  0  0  0  0  0  0  0  0
    1.3851   11.4583    7.9617 H   0  0  0  0  0  0  0  0  0  0  0  0
    3.4751   11.1258    8.3801 C   0  0  0  0  0  0  0  0  0  0  0  0
    1.7825   11.2831   13.6563 O   0  0  0  0  0  1  0  0  0  0  0  0
    2.4451   11.0074   12.7261 N   0  0  0  0  0  2  0  0  0  0  0  0
    1.6935   11.8311   10.0317 N   0  0  1  0  0  4  0  0  0  0  0  0
    0.9054   11.1853   10.0964 H   0  0  0  0  0  0  0  0  0  0  0  0
  1  3  1  0  0  0  0
  1  2  1  0  0  0  0
  1 20  1  0  0  0  0
  4  1  1  0  0  0  0
  5  1  1  0  0  0  0
  6 18  2  0  0  0  0
  7  8  1  0  0  0  0
  7  9  1  0  0  0  0
 10 11  1  0  0  0  0
 10  7  1  0  0  0  0
 12 10  1  0  0  0  0
 13 16  1  0  0  0  0
 13 14  1  0  0  0  0
 13 10  1  0  0  0  0
 15 13  1  0  0  0  0
 16 17  1  6  0  0  0
 16 21  1  0  0  0  0
 18 16  1  0  0  0  0
 18  5  1  0  0  0  0
 20 19  1  0  0  0  0
 21 22  1  1  0  0  0
 21  7  1  0  0  0  0
 21  1  1  0  0  0  0
M  END
$$$$
