CSD_code = GIHMUF | q = 0 | S = 0 | Stoichiometry = C32H28ClN2OPRu | MND = 6
 OpenBabel04212202043D

 66 71  0  0  0  0  0  0  0  0999 V2000
    2.5271    0.8894    3.7376 Ru  0  0  0  0  0  0  0  0  0  0  0  0
    2.6305   -1.0261    5.1420 Cl  0  0  0  0  0  0  0  0  0  0  0  0
    2.2183    2.6747    2.3247 P   0  0  0  0  0  4  0  0  0  0  0  0
    5.5120    1.0549    3.8394 O   0  0  0  0  0  1  0  0  0  0  0  0
    0.5094    0.5499    3.8519 N   0  0  0  0  0  0  0  0  0  0  0  0
    2.0754    1.9263    5.3856 N   0  0  0  0  0  0  0  0  0  0  0  0
    0.4632    2.8018    1.8609 C   0  0  0  0  0  0  0  0  0  0  0  0
    0.0016    2.2360    0.6768 C   0  0  0  0  0  0  0  0  0  0  0  0
    0.7139    1.8483   -0.0385 H   0  0  0  0  0  0  0  0  0  0  0  0
   -1.3571    2.1662    0.4245 C   0  0  0  0  0  0  0  0  0  0  0  0
   -1.7099    1.7300   -0.4984 H   0  0  0  0  0  0  0  0  0  0  0  0
   -2.2647    2.6435    1.3555 C   0  0  0  0  0  0  0  0  0  0  0  0
   -3.3247    2.5829    1.1591 H   0  0  0  0  0  0  0  0  0  0  0  0
   -1.8126    3.1916    2.5458 C   0  0  0  0  0  0  0  0  0  0  0  0
   -2.5197    3.5548    3.2777 H   0  0  0  0  0  0  0  0  0  0  0  0
   -0.4568    3.2641    2.8017 C   0  0  0  0  0  0  0  0  0  0  0  0
   -0.1008    3.6778    3.7382 H   0  0  0  0  0  0  0  0  0  0  0  0
    2.6374    4.3432    2.9508 C   0  0  0  0  0  0  0  0  0  0  0  0
    1.8412    5.4729    2.8000 C   0  0  0  0  0  0  0  0  0  0  0  0
    0.8823    5.4054    2.3049 H   0  0  0  0  0  0  0  0  0  0  0  0
    2.2760    6.6932    3.2880 C   0  0  0  0  0  0  0  0  0  0  0  0
    1.6493    7.5663    3.1757 H   0  0  0  0  0  0  0  0  0  0  0  0
    3.5070    6.7998    3.9132 C   0  0  0  0  0  0  0  0  0  0  0  0
    3.8375    7.7548    4.2939 H   0  0  0  0  0  0  0  0  0  0  0  0
    4.3150    5.6819    4.0441 C   0  0  0  0  0  0  0  0  0  0  0  0
    5.2789    5.7603    4.5238 H   0  0  0  0  0  0  0  0  0  0  0  0
    3.8808    4.4604    3.5665 C   0  0  0  0  0  0  0  0  0  0  0  0
    4.5009    3.5785    3.6676 H   0  0  0  0  0  0  0  0  0  0  0  0
    3.0827    2.7831    0.7245 C   0  0  0  0  0  0  0  0  0  0  0  0
    4.0765    1.8656    0.4092 C   0  0  0  0  0  0  0  0  0  0  0  0
    4.2912    1.0652    1.1062 H   0  0  0  0  0  0  0  0  0  0  0  0
    4.7616    1.9754   -0.7891 C   0  0  0  0  0  0  0  0  0  0  0  0
    5.5329    1.2606   -1.0337 H   0  0  0  0  0  0  0  0  0  0  0  0
    4.4576    2.9981   -1.6718 C   0  0  0  0  0  0  0  0  0  0  0  0
    4.9914    3.0821   -2.6069 H   0  0  0  0  0  0  0  0  0  0  0  0
    3.4678    3.9172   -1.3572 C   0  0  0  0  0  0  0  0  0  0  0  0
    3.2323    4.7154   -2.0461 H   0  0  0  0  0  0  0  0  0  0  0  0
    2.7840    3.8165   -0.1610 C   0  0  0  0  0  0  0  0  0  0  0  0
    2.0149    4.5343    0.0902 H   0  0  0  0  0  0  0  0  0  0  0  0
   -0.2480   -0.1837    3.0463 C   0  0  0  0  0  3  0  0  0  0  0  0
    0.2322   -0.5665    2.1556 H   0  0  0  0  0  0  0  0  0  0  0  0
   -1.5783   -0.4576    3.3072 C   0  0  0  0  0  0  0  0  0  0  0  0
   -2.1478   -1.0581    2.6167 H   0  0  0  0  0  0  0  0  0  0  0  0
   -2.1579    0.0419    4.4693 C   0  0  0  0  0  0  0  0  0  0  0  0
   -3.1919   -0.1632    4.7016 H   0  0  0  0  0  0  0  0  0  0  0  0
   -1.3813    0.7969    5.3196 C   0  0  0  0  0  0  0  0  0  0  0  0
   -1.7762    1.1991    6.2400 H   0  0  0  0  0  0  0  0  0  0  0  0
   -0.0436    1.0363    4.9859 C   0  0  0  0  0  0  0  0  0  0  0  0
    0.8488    1.8138    5.7882 C   0  0  0  0  0  3  0  0  0  0  0  0
    0.5012    2.2790    6.7085 H   0  0  0  0  0  0  0  0  0  0  0  0
    2.9557    2.7027    6.1453 C   0  0  0  0  0  0  0  0  0  0  0  0
    2.6604    4.0278    6.4512 C   0  0  0  0  0  0  0  0  0  0  0  0
    1.7411    4.4704    6.0913 H   0  0  0  0  0  0  0  0  0  0  0  0
    3.5650    4.7912    7.1653 C   0  0  0  0  0  0  0  0  0  0  0  0
    3.3326    5.8254    7.3754 H   0  0  0  0  0  0  0  0  0  0  0  0
    4.7613    4.2479    7.6113 C   0  0  0  0  0  0  0  0  0  0  0  0
    5.0310    2.9106    7.3301 C   0  0  0  0  0  0  0  0  0  0  0  0
    5.9501    2.4685    7.6858 H   0  0  0  0  0  0  0  0  0  0  0  0
    4.1473    2.1428    6.6029 C   0  0  0  0  0  0  0  0  0  0  0  0
    4.3485    1.0988    6.4043 H   0  0  0  0  0  0  0  0  0  0  0  0
    5.7508    5.0689    8.3793 C   0  0  0  0  0  0  0  0  0  0  0  0
    5.3844    6.0807    8.5331 H   0  0  0  0  0  0  0  0  0  0  0  0
    6.6976    5.1184    7.8428 H   0  0  0  0  0  0  0  0  0  0  0  0
    5.9459    4.6169    9.3509 H   0  0  0  0  0  0  0  0  0  0  0  0
    4.3626    1.0407    3.8032 C   0  0  0  0  0  2  0  0  0  0  0  0
    2.6747   -0.0652    2.5405 H   0  0  0  0  0  0  0  0  0  0  0  0
  1 65  1  0  0  0  0
  1  5  1  0  0  0  0
  1  2  1  0  0  0  0
  1  6  1  0  0  0  0
  3 18  1  0  0  0  0
  3  1  1  0  0  0  0
  5 48  1  0  0  0  0
  6 49  1  0  0  0  0
  6 51  1  0  0  0  0
  7  3  1  0  0  0  0
  7 16  1  0  0  0  0
  8  7  2  0  0  0  0
  9  8  1  0  0  0  0
 10  8  1  0  0  0  0
 10 12  2  0  0  0  0
 11 10  1  0  0  0  0
 12 14  1  0  0  0  0
 13 12  1  0  0  0  0
 14 16  2  0  0  0  0
 14 15  1  0  0  0  0
 16 17  1  0  0  0  0
 18 27  1  0  0  0  0
 19 18  2  0  0  0  0
 19 21  1  0  0  0  0
 20 19  1  0  0  0  0
 21 23  2  0  0  0  0
 22 21  1  0  0  0  0
 23 25  1  0  0  0  0
 23 24  1  0  0  0  0
 25 26  1  0  0  0  0
 27 28  1  0  0  0  0
 27 25  2  0  0  0  0
 29  3  1  0  0  0  0
 30 29  1  0  0  0  0
 30 31  1  0  0  0  0
 32 30  2  0  0  0  0
 33 32  1  0  0  0  0
 34 36  2  0  0  0  0
 34 32  1  0  0  0  0
 35 34  1  0  0  0  0
 36 38  1  0  0  0  0
 37 36  1  0  0  0  0
 38 39  1  0  0  0  0
 38 29  2  0  0  0  0
 40 42  1  0  0  0  0
 40  5  1  0  0  0  0
 41 40  1  0  0  0  0
 42 44  2  0  0  0  0
 43 42  1  0  0  0  0
 44 45  1  0  0  0  0
 44 46  1  0  0  0  0
 46 47  1  0  0  0  0
 48 46  2  0  0  0  0
 48 49  1  0  0  0  0
 49 50  1  0  0  0  0
 51 52  2  0  0  0  0
 51 59  1  0  0  0  0
 52 54  1  0  0  0  0
 53 52  1  0  0  0  0
 54 55  1  0  0  0  0
 54 56  2  0  0  0  0
 56 61  1  0  0  0  0
 57 56  1  0  0  0  0
 57 58  1  0  0  0  0
 59 57  2  0  0  0  0
 60 59  1  0  0  0  0
 61 62  1  0  0  0  0
 61 64  1  0  0  0  0
 63 61  1  0  0  0  0
 65  4  1  0  0  0  0
 66  1  1  0  0  0  0
M  END
$$$$
