CSD_code = GIHTAV | q = 0 | S = 0 | Stoichiometry = C18H25ClIrN | MND = 8
 OpenBabel04212202043D

 46 48  0  0  1  0  0  0  0  0999 V2000
    5.7796    0.4945    0.6899 Ir  0  0  1  0  0  0  0  0  0  0  0  0
    5.0239   -0.7179    2.5572 Cl  0  0  0  0  0 15  0  0  0  0  0  0
    7.5572    0.4997    1.5861 N   0  0  0  0  0  0  0  0  0  0  0  0
    8.2559   -0.6287    1.7344 C   0  0  0  0  0  3  0  0  0  0  0  0
    7.8220   -1.5235    1.3112 H   0  0  0  0  0  0  0  0  0  0  0  0
    9.4572   -0.6767    2.4122 C   0  0  0  0  0  0  0  0  0  0  0  0
    9.9835   -1.6124    2.5100 H   0  0  0  0  0  0  0  0  0  0  0  0
    9.9571    0.4910    2.9685 C   0  0  0  0  0  0  0  0  0  0  0  0
   10.8892    0.4895    3.5121 H   0  0  0  0  0  0  0  0  0  0  0  0
    9.2300    1.6611    2.8181 C   0  0  0  0  0  0  0  0  0  0  0  0
    9.5880    2.5841    3.2437 H   0  0  0  0  0  0  0  0  0  0  0  0
    8.0337    1.6419    2.1203 C   0  0  0  0  0  0  0  0  0  0  0  0
    7.1447    2.8266    1.8716 C   0  0  1  0  0  0  0  0  0  0  0  0
    7.4268    3.2414    0.8949 H   0  0  0  0  0  0  0  0  0  0  0  0
    5.7123    2.2799    1.7761 C   0  0  0  0  0  0  0  0  0  0  0  0
    5.0660    3.0230    1.3058 H   0  0  0  0  0  0  0  0  0  0  0  0
    5.3367    2.1068    2.7893 H   0  0  0  0  0  0  0  0  0  0  0  0
    7.2685    3.9294    2.9229 C   0  0  0  0  0  0  0  0  0  0  0  0
    6.5093    4.6861    2.7425 H   0  0  0  0  0  0  0  0  0  0  0  0
    8.2430    4.4110    2.8840 H   0  0  0  0  0  0  0  0  0  0  0  0
    7.1141    3.5186    3.9172 H   0  0  0  0  0  0  0  0  0  0  0  0
    4.6954    1.1893   -1.1394 C   0  0  2  0  0  3  0  0  0  0  0  0
    6.0732    0.9600   -1.4607 C   0  0  2  0  0  0  0  0  0  0  0  0
    6.3070   -0.4693   -1.4119 C   0  0  0  0  0  0  0  0  0  0  0  0
    5.1471   -1.0835   -0.9403 C   0  0  0  0  0  0  0  0  0  0  0  0
    4.1514   -0.0520   -0.7096 C   0  0  1  0  0  0  0  0  0  0  0  0
    3.9400    2.4632   -1.3587 C   0  0  0  0  0  0  0  0  0  0  0  0
    3.5216    2.4687   -2.3670 H   0  0  0  0  0  0  0  0  0  0  0  0
    4.5885    3.3303   -1.2575 H   0  0  0  0  0  0  0  0  0  0  0  0
    3.1208    2.5611   -0.6504 H   0  0  0  0  0  0  0  0  0  0  0  0
    6.9889    1.9379   -2.1296 C   0  0  0  0  0  0  0  0  0  0  0  0
    8.0299    1.7313   -1.8864 H   0  0  0  0  0  0  0  0  0  0  0  0
    6.7607    2.9574   -1.8274 H   0  0  0  0  0  0  0  0  0  0  0  0
    6.8781    1.8738   -3.2142 H   0  0  0  0  0  0  0  0  0  0  0  0
    7.5722   -1.1253   -1.8655 C   0  0  0  0  0  0  0  0  0  0  0  0
    7.6304   -2.1549   -1.5194 H   0  0  0  0  0  0  0  0  0  0  0  0
    8.4482   -0.5907   -1.4983 H   0  0  0  0  0  0  0  0  0  0  0  0
    7.6182   -1.1303   -2.9563 H   0  0  0  0  0  0  0  0  0  0  0  0
    4.8790   -2.5409   -0.7535 C   0  0  0  0  0  0  0  0  0  0  0  0
    5.7687   -3.1369   -0.9444 H   0  0  0  0  0  0  0  0  0  0  0  0
    4.0916   -2.8683   -1.4342 H   0  0  0  0  0  0  0  0  0  0  0  0
    4.5443   -2.7361    0.2652 H   0  0  0  0  0  0  0  0  0  0  0  0
    2.7139   -0.3462   -0.4108 C   0  0  0  0  0  0  0  0  0  0  0  0
    2.6332   -1.0677    0.3997 H   0  0  0  0  0  0  0  0  0  0  0  0
    2.2272   -0.7665   -1.2935 H   0  0  0  0  0  0  0  0  0  0  0  0
    2.1820    0.5560   -0.1194 H   0  0  0  0  0  0  0  0  0  0  0  0
  1  3  1  1  0  0  0
  1 15  1  0  0  0  0
  3  4  1  0  0  0  0
  3 12  1  0  0  0  0
  4  6  1  0  0  0  0
  5  4  1  0  0  0  0
  6  7  1  0  0  0  0
  6  8  2  0  0  0  0
  8  9  1  0  0  0  0
 10  8  1  0  0  0  0
 10 11  1  0  0  0  0
 12 10  2  0  0  0  0
 13 14  1  6  0  0  0
 13 12  1  0  0  0  0
 13 18  1  0  0  0  0
 15 13  1  0  0  0  0
 15 17  1  0  0  0  0
 16 15  1  0  0  0  0
 18 21  1  0  0  0  0
 19 18  1  0  0  0  0
 20 18  1  0  0  0  0
 22 27  1  6  0  0  0
 22 26  1  0  0  0  0
 23 31  1  6  0  0  0
 23 24  1  0  0  0  0
 23 22  1  0  0  0  0
 23  1  1  0  0  0  0
 24 25  2  0  0  0  0
 25 39  1  0  0  0  0
 25 26  1  0  0  0  0
 26 43  1  1  0  0  0
 26  1  1  0  0  0  0
 27 29  1  0  0  0  0
 27 30  1  0  0  0  0
 28 27  1  0  0  0  0
 31 32  1  0  0  0  0
 31 33  1  0  0  0  0
 34 31  1  0  0  0  0
 35 36  1  0  0  0  0
 35 37  1  0  0  0  0
 35 24  1  0  0  0  0
 38 35  1  0  0  0  0
 39 42  1  0  0  0  0
 40 39  1  0  0  0  0
 41 39  1  0  0  0  0
 43 46  1  0  0  0  0
 43 44  1  0  0  0  0
 45 43  1  0  0  0  0
M  END
$$$$
