CSD_code = GIJNOF | q = 0 | S = 0 | Stoichiometry = C21H24BrCuN2Se | MND = 2
 OpenBabel04212202043D

 50 52  0  0  1  0  0  0  0  0999 V2000
    3.4786    1.6325    1.4494 Br  0  0  0  0  0  0  0  0  0  0  0  0
   -0.6930    3.3706    1.0544 Se  0  0  0  0  0  0  0  0  0  0  0  0
    1.4442    2.4539    1.1429 Cu  0  0  0  0  0  0  0  0  0  0  0  0
   -0.2021    3.4111   -1.7864 N   0  0  0  0  0  0  0  0  0  0  0  0
   -2.0215    4.4423   -1.1881 N   0  0  0  0  0  0  0  0  0  0  0  0
   -0.9622    3.7470   -0.7231 C   0  0  1  0  0  3  0  0  0  0  0  0
   -0.7921    3.9045   -2.9218 C   0  0  0  0  0  0  0  0  0  0  0  0
   -0.3576    3.7504   -3.8881 H   0  0  0  0  0  0  0  0  0  0  0  0
   -1.9239    4.5442   -2.5500 C   0  0  0  0  0  0  0  0  0  0  0  0
   -2.6624    5.0586   -3.1299 H   0  0  0  0  0  0  0  0  0  0  0  0
   -3.0671    4.9729   -0.3842 C   0  0  0  0  0  0  0  0  0  0  0  0
   -2.9351    6.2592    0.1360 C   0  0  0  0  0  0  0  0  0  0  0  0
   -3.9710    6.7596    0.9074 C   0  0  0  0  0  0  0  0  0  0  0  0
   -3.8847    7.7528    1.3231 H   0  0  0  0  0  0  0  0  0  0  0  0
   -5.1110    6.0093    1.1655 C   0  0  0  0  0  0  0  0  0  0  0  0
   -5.2058    4.7289    0.6391 C   0  0  0  0  0  0  0  0  0  0  0  0
   -6.0832    4.1331    0.8435 H   0  0  0  0  0  0  0  0  0  0  0  0
   -4.1924    4.1895   -0.1377 C   0  0  0  0  0  0  0  0  0  0  0  0
   -4.2773    2.7970   -0.6816 C   0  0  0  0  0  0  0  0  0  0  0  0
   -4.1544    2.7890   -1.7647 H   0  0  0  0  0  0  0  0  0  0  0  0
   -3.4880    2.1817   -0.2485 H   0  0  0  0  0  0  0  0  0  0  0  0
   -5.2347    2.3470   -0.4359 H   0  0  0  0  0  0  0  0  0  0  0  0
   -1.6914    7.0532   -0.1189 C   0  0  0  0  0  0  0  0  0  0  0  0
   -0.8351    6.5563    0.3386 H   0  0  0  0  0  0  0  0  0  0  0  0
   -1.4955    7.1468   -1.1871 H   0  0  0  0  0  0  0  0  0  0  0  0
   -1.7766    8.0477    0.3091 H   0  0  0  0  0  0  0  0  0  0  0  0
   -6.2028    6.5676    2.0237 C   0  0  0  0  0  0  0  0  0  0  0  0
   -5.9333    6.4643    3.0749 H   0  0  0  0  0  0  0  0  0  0  0  0
   -6.3524    7.6256    1.8203 H   0  0  0  0  0  0  0  0  0  0  0  0
   -7.1380    6.0386    1.8598 H   0  0  0  0  0  0  0  0  0  0  0  0
    1.0096    2.6628   -1.7824 C   0  0  0  0  0  0  0  0  0  0  0  0
    2.2254    3.3454   -1.8667 C   0  0  0  0  0  0  0  0  0  0  0  0
    2.2527    4.8444   -1.8525 C   0  0  0  0  0  0  0  0  0  0  0  0
    1.7699    5.2542   -2.7407 H   0  0  0  0  0  0  0  0  0  0  0  0
    1.7264    5.2279   -0.9774 H   0  0  0  0  0  0  0  0  0  0  0  0
    3.2775    5.2024   -1.8186 H   0  0  0  0  0  0  0  0  0  0  0  0
    3.3890    2.5988   -1.9359 C   0  0  0  0  0  0  0  0  0  0  0  0
    4.3401    3.1074   -1.9738 H   0  0  0  0  0  0  0  0  0  0  0  0
    3.3643    1.2093   -1.9160 C   0  0  0  0  0  0  0  0  0  0  0  0
    4.6383    0.4349   -1.9126 C   0  0  0  0  0  0  0  0  0  0  0  0
    5.3986    0.9270   -2.5133 H   0  0  0  0  0  0  0  0  0  0  0  0
    4.9973    0.3841   -0.8840 H   0  0  0  0  0  0  0  0  0  0  0  0
    4.4864   -0.5780   -2.2753 H   0  0  0  0  0  0  0  0  0  0  0  0
    2.1382    0.5620   -1.8362 C   0  0  0  0  0  0  0  0  0  0  0  0
    2.1108   -0.5169   -1.8043 H   0  0  0  0  0  0  0  0  0  0  0  0
    0.9478    1.2680   -1.7686 C   0  0  0  0  0  0  0  0  0  0  0  0
   -0.3753    0.5702   -1.6692 C   0  0  0  0  0  0  0  0  0  0  0  0
   -0.8567    0.8019   -0.7171 H   0  0  0  0  0  0  0  0  0  0  0  0
   -1.0455    0.8850   -2.4701 H   0  0  0  0  0  0  0  0  0  0  0  0
   -0.2425   -0.5062   -1.7275 H   0  0  0  0  0  0  0  0  0  0  0  0
  2  3  1  0  0  0  0
  3  1  1  0  0  0  0
  4 31  1  0  0  0  0
  4  6  1  0  0  0  0
  5  6  1  0  0  0  0
  5 11  1  0  0  0  0
  6  2  1  6  0  0  0
  7  9  2  0  0  0  0
  7  4  1  0  0  0  0
  8  7  1  0  0  0  0
  9  5  1  0  0  0  0
 10  9  1  0  0  0  0
 11 18  2  0  0  0  0
 11 12  1  0  0  0  0
 12 13  2  0  0  0  0
 13 15  1  0  0  0  0
 13 14  1  0  0  0  0
 15 27  1  0  0  0  0
 16 17  1  0  0  0  0
 16 15  2  0  0  0  0
 18 16  1  0  0  0  0
 19 22  1  0  0  0  0
 19 21  1  0  0  0  0
 19 18  1  0  0  0  0
 20 19  1  0  0  0  0
 23 12  1  0  0  0  0
 23 26  1  0  0  0  0
 23 24  1  0  0  0  0
 25 23  1  0  0  0  0
 27 28  1  0  0  0  0
 29 27  1  0  0  0  0
 30 27  1  0  0  0  0
 31 46  1  0  0  0  0
 32 33  1  0  0  0  0
 32 31  2  0  0  0  0
 33 36  1  0  0  0  0
 33 35  1  0  0  0  0
 34 33  1  0  0  0  0
 37 39  2  0  0  0  0
 37 32  1  0  0  0  0
 38 37  1  0  0  0  0
 39 40  1  0  0  0  0
 39 44  1  0  0  0  0
 40 42  1  0  0  0  0
 41 40  1  0  0  0  0
 43 40  1  0  0  0  0
 44 45  1  0  0  0  0
 44 46  2  0  0  0  0
 46 47  1  0  0  0  0
 47 48  1  0  0  0  0
 49 47  1  0  0  0  0
 50 47  1  0  0  0  0
M  END
$$$$
