CSD_code = GIJPAT | q = 0 | S = 0 | Stoichiometry = C21H24BrCuN2S | MND = 2
 OpenBabel04212202043D

 50 52  0  0  1  0  0  0  0  0999 V2000
    7.3379   10.0449    5.2101 Cu  0  0  0  0  0  0  0  0  0  0  0  0
    5.4610    8.9649    4.7838 Br  0  0  0  0  0  0  0  0  0  0  0  0
    9.2576   11.1458    5.3441 S   0  0  0  0  0  0  0  0  0  0  0  0
   12.7647   11.9037    6.3568 C   0  0  0  0  0  0  0  0  0  0  0  0
   10.6072   12.1089    7.4433 N   0  0  0  0  0  0  0  0  0  0  0  0
    6.3643   11.0370    8.0347 C   0  0  0  0  0  0  0  0  0  0  0  0
    8.7945   11.0606    8.0496 N   0  0  0  0  0  0  0  0  0  0  0  0
    9.4155   11.5150    9.1886 C   0  0  0  0  0  0  0  0  0  0  0  0
    8.9994   11.3329   10.1578 H   0  0  0  0  0  0  0  0  0  0  0  0
    9.5328   11.4298    6.9771 C   0  0  2  0  0  3  0  0  0  0  0  0
   10.5390   12.1636    8.8129 C   0  0  0  0  0  0  0  0  0  0  0  0
   11.2912   12.6583    9.3918 H   0  0  0  0  0  0  0  0  0  0  0  0
   11.6329   12.6664    6.6331 C   0  0  0  0  0  0  0  0  0  0  0  0
    7.6085    8.9383    8.1241 C   0  0  0  0  0  0  0  0  0  0  0  0
   13.7582   12.4679    5.5712 C   0  0  0  0  0  0  0  0  0  0  0  0
   14.6412   11.8878    5.3461 H   0  0  0  0  0  0  0  0  0  0  0  0
    7.5711   10.3325    8.0413 C   0  0  0  0  0  0  0  0  0  0  0  0
    5.1875    8.9250    8.1616 C   0  0  0  0  0  0  0  0  0  0  0  0
    8.9236    8.2178    8.1256 C   0  0  0  0  0  0  0  0  0  0  0  0
    9.5438    8.5378    8.9642 H   0  0  0  0  0  0  0  0  0  0  0  0
    8.7675    7.1450    8.1957 H   0  0  0  0  0  0  0  0  0  0  0  0
    9.4716    8.4237    7.2049 H   0  0  0  0  0  0  0  0  0  0  0  0
   11.4729   13.9559    6.1294 C   0  0  0  0  0  0  0  0  0  0  0  0
   13.6363   13.7531    5.0634 C   0  0  0  0  0  0  0  0  0  0  0  0
    6.4048    8.2558    8.1844 C   0  0  0  0  0  0  0  0  0  0  0  0
    6.4131    7.1770    8.2218 H   0  0  0  0  0  0  0  0  0  0  0  0
    6.3660   12.5335    7.9399 C   0  0  0  0  0  0  0  0  0  0  0  0
    5.3486   12.9134    7.9287 H   0  0  0  0  0  0  0  0  0  0  0  0
    6.8964   12.9779    8.7830 H   0  0  0  0  0  0  0  0  0  0  0  0
    6.8622   12.8567    7.0239 H   0  0  0  0  0  0  0  0  0  0  0  0
   12.4886   14.4821    5.3483 C   0  0  0  0  0  0  0  0  0  0  0  0
   12.3814   15.4792    4.9469 H   0  0  0  0  0  0  0  0  0  0  0  0
    5.1856   10.3130    8.0968 C   0  0  0  0  0  0  0  0  0  0  0  0
    4.2430   10.8381    8.0651 H   0  0  0  0  0  0  0  0  0  0  0  0
   12.8799   10.5048    6.8798 C   0  0  0  0  0  0  0  0  0  0  0  0
   13.8438   10.0767    6.6204 H   0  0  0  0  0  0  0  0  0  0  0  0
   12.7660   10.4794    7.9634 H   0  0  0  0  0  0  0  0  0  0  0  0
   12.0985    9.8815    6.4450 H   0  0  0  0  0  0  0  0  0  0  0  0
   14.7074   14.3457    4.2014 C   0  0  0  0  0  0  0  0  0  0  0  0
   15.6214   13.7603    4.2552 H   0  0  0  0  0  0  0  0  0  0  0  0
   14.3762   14.3698    3.1634 H   0  0  0  0  0  0  0  0  0  0  0  0
   14.9235   15.3681    4.5051 H   0  0  0  0  0  0  0  0  0  0  0  0
   10.2215   14.7285    6.4122 C   0  0  0  0  0  0  0  0  0  0  0  0
   10.3029   15.7430    6.0327 H   0  0  0  0  0  0  0  0  0  0  0  0
    9.3735   14.2470    5.9251 H   0  0  0  0  0  0  0  0  0  0  0  0
   10.0170   14.7694    7.4819 H   0  0  0  0  0  0  0  0  0  0  0  0
    3.9047    8.1655    8.1393 C   0  0  0  0  0  0  0  0  0  0  0  0
    4.0064    7.2038    8.6347 H   0  0  0  0  0  0  0  0  0  0  0  0
    3.1027    8.7322    8.6043 H   0  0  0  0  0  0  0  0  0  0  0  0
    3.6396    7.9882    7.0963 H   0  0  0  0  0  0  0  0  0  0  0  0
  1  3  1  0  0  0  0
  2  1  1  0  0  0  0
  4 13  1  0  0  0  0
  4 35  1  0  0  0  0
  5 11  1  0  0  0  0
  6 17  2  0  0  0  0
  6 33  1  0  0  0  0
  7  8  1  0  0  0  0
  8  9  1  0  0  0  0
 10  3  1  1  0  0  0
 10  5  1  0  0  0  0
 10  7  1  0  0  0  0
 11  8  2  0  0  0  0
 11 12  1  0  0  0  0
 13  5  1  0  0  0  0
 14 19  1  0  0  0  0
 14 25  2  0  0  0  0
 15  4  2  0  0  0  0
 16 15  1  0  0  0  0
 17  7  1  0  0  0  0
 17 14  1  0  0  0  0
 18 25  1  0  0  0  0
 19 21  1  0  0  0  0
 19 20  1  0  0  0  0
 22 19  1  0  0  0  0
 23 43  1  0  0  0  0
 23 13  2  0  0  0  0
 24 31  2  0  0  0  0
 24 15  1  0  0  0  0
 25 26  1  0  0  0  0
 27  6  1  0  0  0  0
 27 29  1  0  0  0  0
 28 27  1  0  0  0  0
 30 27  1  0  0  0  0
 31 23  1  0  0  0  0
 32 31  1  0  0  0  0
 33 18  2  0  0  0  0
 34 33  1  0  0  0  0
 35 37  1  0  0  0  0
 36 35  1  0  0  0  0
 38 35  1  0  0  0  0
 39 40  1  0  0  0  0
 39 42  1  0  0  0  0
 39 24  1  0  0  0  0
 41 39  1  0  0  0  0
 43 46  1  0  0  0  0
 44 43  1  0  0  0  0
 45 43  1  0  0  0  0
 47 18  1  0  0  0  0
 47 49  1  0  0  0  0
 47 48  1  0  0  0  0
 50 47  1  0  0  0  0
M  END
$$$$
