CSD_code = GIKJOA | q = 0 | S = 0 | Stoichiometry = C23H19Cl2NO3PRe | MND = 6
 OpenBabel04212202043D

 50 54  0  0  1  0  0  0  0  0999 V2000
   30.7578    2.1590    7.0626 Re  0  0  0  0  0  0  0  0  0  0  0  0
   32.9898    2.5417    7.1403 Cl  0  0  0  0  0  0  0  0  0  0  0  0
   30.4686    3.5411    8.8371 Cl  0  0  0  0  0  0  0  0  0  0  0  0
   28.6206    1.1306    7.6747 P   0  0  0  0  0  4  0  0  0  0  0  0
   31.3815    0.4444    5.5703 O   0  0  0  0  0  0  0  0  0  0  0  0
   31.2321    0.4827    8.2217 O   0  0  0  0  0  0  0  0  0  0  0  0
   30.1940    3.1039    5.8272 O   0  0  0  0  0  1  0  0  0  0  0  0
   32.3580   -1.5975    5.5837 N   0  0  0  0  0  0  0  0  0  0  0  0
   32.4073   -1.5473    4.5727 H   0  0  0  0  0  0  0  0  0  0  0  0
   31.8315   -0.5303    6.2155 C   0  0  2  0  0  3  0  0  0  0  0  0
   31.7675   -0.5630    7.6701 C   0  0  0  0  0  0  0  0  0  0  0  0
   32.2314   -1.6795    8.3301 C   0  0  0  0  0  0  0  0  0  0  0  0
   32.1868   -1.7193    9.4065 H   0  0  0  0  0  0  0  0  0  0  0  0
   32.7693   -2.7525    7.5973 C   0  0  0  0  0  0  0  0  0  0  0  0
   33.1387   -3.6202    8.1178 H   0  0  0  0  0  0  0  0  0  0  0  0
   32.8297   -2.6989    6.2424 C   0  0  0  0  0  0  0  0  0  0  0  0
   33.2371   -3.4847    5.6297 H   0  0  0  0  0  0  0  0  0  0  0  0
   28.6717   -0.6418    7.2960 C   0  0  0  0  0  0  0  0  0  0  0  0
   28.7803   -0.9914    5.9507 C   0  0  0  0  0  0  0  0  0  0  0  0
   28.7469   -0.2119    5.2006 H   0  0  0  0  0  0  0  0  0  0  0  0
   28.9516   -2.3150    5.5932 C   0  0  0  0  0  0  0  0  0  0  0  0
   29.0360   -2.5850    4.5507 H   0  0  0  0  0  0  0  0  0  0  0  0
   29.0233   -3.2945    6.5726 C   0  0  0  0  0  0  0  0  0  0  0  0
   29.1693   -4.3274    6.2933 H   0  0  0  0  0  0  0  0  0  0  0  0
   28.9075   -2.9499    7.9086 C   0  0  0  0  0  0  0  0  0  0  0  0
   28.9598   -3.7138    8.6699 H   0  0  0  0  0  0  0  0  0  0  0  0
   28.7323   -1.6262    8.2748 C   0  0  0  0  0  0  0  0  0  0  0  0
   28.6482   -1.3553    9.3176 H   0  0  0  0  0  0  0  0  0  0  0  0
   28.1375    1.2625    9.4193 C   0  0  0  0  0  0  0  0  0  0  0  0
   29.0774    0.9780   10.4088 C   0  0  0  0  0  0  0  0  0  0  0  0
   30.0829    0.7009   10.1274 H   0  0  0  0  0  0  0  0  0  0  0  0
   28.7287    1.0737   11.7425 C   0  0  0  0  0  0  0  0  0  0  0  0
   29.4606    0.8554   12.5056 H   0  0  0  0  0  0  0  0  0  0  0  0
   27.4473    1.4611   12.1005 C   0  0  0  0  0  0  0  0  0  0  0  0
   27.1780    1.5406   13.1433 H   0  0  0  0  0  0  0  0  0  0  0  0
   26.5158    1.7579   11.1203 C   0  0  0  0  0  0  0  0  0  0  0  0
   25.5199    2.0709   11.3970 H   0  0  0  0  0  0  0  0  0  0  0  0
   26.8557    1.6631    9.7822 C   0  0  0  0  0  0  0  0  0  0  0  0
   26.1275    1.9068    9.0228 H   0  0  0  0  0  0  0  0  0  0  0  0
   27.1826    1.7391    6.7493 C   0  0  0  0  0  0  0  0  0  0  0  0
   27.1786    3.0583    6.3088 C   0  0  0  0  0  0  0  0  0  0  0  0
   28.0477    3.6785    6.4901 H   0  0  0  0  0  0  0  0  0  0  0  0
   26.0801    3.5527    5.6279 C   0  0  0  0  0  0  0  0  0  0  0  0
   26.0786    4.5749    5.2816 H   0  0  0  0  0  0  0  0  0  0  0  0
   24.9879    2.7351    5.3850 C   0  0  0  0  0  0  0  0  0  0  0  0
   24.1329    3.1205    4.8497 H   0  0  0  0  0  0  0  0  0  0  0  0
   24.9911    1.4201    5.8233 C   0  0  0  0  0  0  0  0  0  0  0  0
   24.1397    0.7833    5.6327 H   0  0  0  0  0  0  0  0  0  0  0  0
   26.0841    0.9187    6.5064 C   0  0  0  0  0  0  0  0  0  0  0  0
   26.0888   -0.1062    6.8524 H   0  0  0  0  0  0  0  0  0  0  0  0
  1  2  1  0  0  0  0
  1  4  1  0  0  0  0
  1  6  1  0  0  0  0
  1  3  1  0  0  0  0
  4 29  1  0  0  0  0
  5  1  1  0  0  0  0
  7  1  1  0  0  0  0
  8 10  1  0  0  0  0
  8 16  1  0  0  0  0
  9  8  1  0  0  0  0
 10  5  1  6  0  0  0
 10 11  1  0  0  0  0
 11  6  1  0  0  0  0
 11 12  2  0  0  0  0
 12 13  1  0  0  0  0
 14 15  1  0  0  0  0
 14 12  1  0  0  0  0
 16 14  2  0  0  0  0
 17 16  1  0  0  0  0
 18  4  1  0  0  0  0
 18 27  1  0  0  0  0
 19 18  2  0  0  0  0
 20 19  1  0  0  0  0
 21 19  1  0  0  0  0
 21 23  2  0  0  0  0
 22 21  1  0  0  0  0
 23 25  1  0  0  0  0
 24 23  1  0  0  0  0
 25 27  2  0  0  0  0
 25 26  1  0  0  0  0
 27 28  1  0  0  0  0
 29 38  2  0  0  0  0
 29 30  1  0  0  0  0
 30 32  2  0  0  0  0
 31 30  1  0  0  0  0
 32 34  1  0  0  0  0
 32 33  1  0  0  0  0
 34 35  1  0  0  0  0
 36 37  1  0  0  0  0
 36 34  2  0  0  0  0
 38 36  1  0  0  0  0
 39 38  1  0  0  0  0
 40  4  1  0  0  0  0
 41 42  1  0  0  0  0
 41 40  2  0  0  0  0
 43 41  1  0  0  0  0
 44 43  1  0  0  0  0
 45 43  2  0  0  0  0
 45 47  1  0  0  0  0
 46 45  1  0  0  0  0
 47 49  2  0  0  0  0
 48 47  1  0  0  0  0
 49 40  1  0  0  0  0
 49 50  1  0  0  0  0
M  END
$$$$
