CSD_code = GIKJOB | q = -1 | S = 0 | Stoichiometry = C2H6Cl5OPtS(1-) | MND = 6
 OpenBabel04212202043D

 16 15  0  0  0  0  0  0  0  0999 V2000
    6.7066   11.5268   10.4040 Pt  0  0  0  0  0  0  0  0  0  0  0  0
    6.8768   13.6179    9.3385 Cl  0  0  0  0  0  0  0  0  0  0  0  0
    8.3087   10.6158    8.8944 Cl  0  0  0  0  0  0  0  0  0  0  0  0
    4.9058   10.9120    9.0989 Cl  0  0  0  0  0  0  0  0  0  0  0  0
    6.6514    9.4939   11.5866 Cl  0  0  0  0  0  0  0  0  0  0  0  0
    8.6791   12.1093   11.6641 S   0  0  0  0  0  0  0  0  0  0  0  0
    5.2809   12.4669   11.9884 Cl  0  0  0  0  0  0  0  0  0  0  0  0
    8.5937   12.8143   12.9296 O   0  0  0  0  0  1  0  0  0  0  0  0
    9.8486   13.0412   10.6254 C   0  0  0  0  0  0  0  0  0  0  0  0
    9.3722   13.9813   10.3685 H   0  0  0  0  0  0  0  0  0  0  0  0
   10.0222   12.4544    9.7309 H   0  0  0  0  0  0  0  0  0  0  0  0
   10.7540   13.2063   11.1975 H   0  0  0  0  0  0  0  0  0  0  0  0
    9.7064   10.6346   11.9550 C   0  0  0  0  0  0  0  0  0  0  0  0
    9.1436    9.9744   12.6063 H   0  0  0  0  0  0  0  0  0  0  0  0
   10.6312   10.9496   12.4238 H   0  0  0  0  0  0  0  0  0  0  0  0
    9.8677   10.1613   10.9935 H   0  0  0  0  0  0  0  0  0  0  0  0
  1  5  1  0  0  0  0
  1  6  1  0  0  0  0
  1  7  1  0  0  0  0
  2  1  1  0  0  0  0
  3  1  1  0  0  0  0
  4  1  1  0  0  0  0
  6 13  1  0  0  0  0
  6  8  1  0  0  0  0
  9 12  1  0  0  0  0
  9  6  1  0  0  0  0
 10  9  1  0  0  0  0
 11  9  1  0  0  0  0
 13 15  1  0  0  0  0
 13 14  1  0  0  0  0
 16 13  1  0  0  0  0
M  END
$$$$
