CSD_code = GIKVOM | q = 0 | S = 0 | Stoichiometry = C10H9Br2NPdS | MND = 5
 OpenBabel04212202043D

 24 24  0  0  1  0  0  0  0  0999 V2000
    2.3745   16.3981    8.4933 Pd  0  0  0  0  0  0  0  0  0  0  0  0
    2.0788   15.3968   10.6060 Br  0  0  0  0  0 15  0  0  0  0  0  0
    3.6896   18.1473    9.4291 Br  0  0  0  0  0 15  0  0  0  0  0  0
    0.2945   13.7315    8.2160 S   0  0  0  0  0  0  0  0  0  0  0  0
    1.6890   14.6667    6.3254 N   0  0  0  0  0  0  0  0  0  0  0  0
    1.4245   14.8739    7.6198 C   0  0  2  0  0  3  0  0  0  0  0  0
    1.0368   13.6019    5.7377 C   0  0  0  0  0  0  0  0  0  0  0  0
    1.1378   13.1449    4.4280 C   0  0  0  0  0  0  0  0  0  0  0  0
    1.7964   13.6241    3.7210 H   0  0  0  0  0  0  0  0  0  0  0  0
    0.3757   12.0548    4.0581 C   0  0  0  0  0  0  0  0  0  0  0  0
    0.4401   11.6850    3.0467 H   0  0  0  0  0  0  0  0  0  0  0  0
   -0.4712   11.4225    4.9655 C   0  0  0  0  0  0  0  0  0  0  0  0
   -1.0539   10.5736    4.6447 H   0  0  0  0  0  0  0  0  0  0  0  0
   -0.5718   11.8640    6.2702 C   0  0  0  0  0  0  0  0  0  0  0  0
   -1.2193   11.3786    6.9821 H   0  0  0  0  0  0  0  0  0  0  0  0
    0.1900   12.9577    6.6494 C   0  0  0  0  0  0  0  0  0  0  0  0
    2.6638   15.5012    5.6405 C   0  0  0  0  0  0  0  0  0  0  0  0
    2.2698   15.7595    4.6492 H   0  0  0  0  0  0  0  0  0  0  0  0
    3.5895   14.9275    5.5051 H   0  0  0  0  0  0  0  0  0  0  0  0
    2.9333   16.7701    6.4284 C   0  0  1  0  0  0  0  0  0  0  0  0
    1.9052   17.6301    6.7556 C   0  0  0  0  0  3  0  0  0  0  0  0
    3.9609   17.1332    6.4089 H   0  0  0  0  0  0  0  0  0  0  0  0
    2.1216   18.6622    7.0132 H   0  0  0  0  0  0  0  0  0  0  0  0
    0.8864   17.4228    6.4308 H   0  0  0  0  0  0  0  0  0  0  0  0
  5  6  1  0  0  0  0
  6  4  1  1  0  0  0
  6  1  1  0  0  0  0
  7  5  1  0  0  0  0
  7 16  1  0  0  0  0
  8  7  2  0  0  0  0
  9  8  1  0  0  0  0
 10  8  1  0  0  0  0
 10 12  2  0  0  0  0
 11 10  1  0  0  0  0
 12 14  1  0  0  0  0
 13 12  1  0  0  0  0
 14 16  2  0  0  0  0
 14 15  1  0  0  0  0
 16  4  1  0  0  0  0
 17  5  1  0  0  0  0
 17 20  1  0  0  0  0
 18 17  1  0  0  0  0
 19 17  1  0  0  0  0
 20 22  1  6  0  0  0
 20 21  1  0  0  0  0
 20  1  1  0  0  0  0
 21 23  1  0  0  0  0
 24 21  1  0  0  0  0
M  END
$$$$
