CSD_code = GILKOD | q = 0 | S = 0 | Stoichiometry = C18H27AuCl2F5P | MND = 4
 OpenBabel04212202043D

 54 54  0  0  0  0  0  0  0  0999 V2000
    4.6229    5.9219    9.0690 Au  0  0  0  0  0  0  0  0  0  0  0  0
    5.6080    8.0006    8.7922 Cl  0  0  0  0  0  0  0  0  0  0  0  0
    6.7273    5.0543    9.0185 Cl  0  0  0  0  0  0  0  0  0  0  0  0
    3.6427    3.7152    9.3737 P   0  0  0  0  0  4  0  0  0  0  0  0
    2.9092    6.9222    6.6529 F   0  0  0  0  0  0  0  0  0  0  0  0
    1.0735    8.9056    6.4736 F   0  0  0  0  0  0  0  0  0  0  0  0
    0.2516   10.2140    8.7291 F   0  0  0  0  0  0  0  0  0  0  0  0
    1.2800    9.4940   11.1573 F   0  0  0  0  0  0  0  0  0  0  0  0
    3.0952    7.4834   11.3147 F   0  0  0  0  0  0  0  0  0  0  0  0
    3.0220    7.1309    8.9929 C   0  0  0  0  0  0  0  0  0  0  0  0
    2.5068    7.5435    7.7752 C   0  0  0  0  0  0  0  0  0  0  0  0
    1.5700    8.5658    7.6662 C   0  0  0  0  0  0  0  0  0  0  0  0
    1.1519    9.2323    8.8125 C   0  0  0  0  0  0  0  0  0  0  0  0
    1.6753    8.8642   10.0481 C   0  0  0  0  0  0  0  0  0  0  0  0
    2.6059    7.8347   10.1127 C   0  0  0  0  0  0  0  0  0  0  0  0
    1.7210    3.8102    9.2531 C   0  0  0  0  0  0  0  0  0  0  0  0
    1.3248    4.1633    7.8173 C   0  0  0  0  0  0  0  0  0  0  0  0
    1.8733    5.0283    7.4613 H   0  0  0  0  0  0  0  0  0  0  0  0
    0.2634    4.4079    7.7952 H   0  0  0  0  0  0  0  0  0  0  0  0
    1.4777    3.3409    7.1258 H   0  0  0  0  0  0  0  0  0  0  0  0
    1.2262    4.9467   10.1702 C   0  0  0  0  0  0  0  0  0  0  0  0
    0.5294    4.5700   10.9149 H   0  0  0  0  0  0  0  0  0  0  0  0
    0.7043    5.7060    9.5928 H   0  0  0  0  0  0  0  0  0  0  0  0
    2.0390    5.4330   10.6942 H   0  0  0  0  0  0  0  0  0  0  0  0
    0.9880    2.5247    9.6497 C   0  0  0  0  0  0  0  0  0  0  0  0
    1.3121    1.6591    9.0841 H   0  0  0  0  0  0  0  0  0  0  0  0
   -0.0724    2.6719    9.4450 H   0  0  0  0  0  0  0  0  0  0  0  0
    1.0854    2.3118   10.7101 H   0  0  0  0  0  0  0  0  0  0  0  0
    4.0848    3.0200   11.0987 C   0  0  0  0  0  0  0  0  0  0  0  0
    3.2702    3.7305   12.1830 C   0  0  0  0  0  0  0  0  0  0  0  0
    3.4232    4.8076   12.1498 H   0  0  0  0  0  0  0  0  0  0  0  0
    3.6243    3.3876   13.1545 H   0  0  0  0  0  0  0  0  0  0  0  0
    2.2093    3.5125   12.1265 H   0  0  0  0  0  0  0  0  0  0  0  0
    5.5531    3.3187   11.4022 C   0  0  0  0  0  0  0  0  0  0  0  0
    6.2326    2.8906   10.6756 H   0  0  0  0  0  0  0  0  0  0  0  0
    5.7988    2.9060   12.3796 H   0  0  0  0  0  0  0  0  0  0  0  0
    5.7310    4.3909   11.4389 H   0  0  0  0  0  0  0  0  0  0  0  0
    3.8505    1.5103   11.2010 C   0  0  0  0  0  0  0  0  0  0  0  0
    2.8361    1.2243   10.9456 H   0  0  0  0  0  0  0  0  0  0  0  0
    4.0298    1.2069   12.2318 H   0  0  0  0  0  0  0  0  0  0  0  0
    4.5401    0.9529   10.5761 H   0  0  0  0  0  0  0  0  0  0  0  0
    4.3177    2.5865    7.9755 C   0  0  0  0  0  0  0  0  0  0  0  0
    4.4487    3.4815    6.7379 C   0  0  0  0  0  0  0  0  0  0  0  0
    3.5270    3.9895    6.4739 H   0  0  0  0  0  0  0  0  0  0  0  0
    4.7488    2.8722    5.8872 H   0  0  0  0  0  0  0  0  0  0  0  0
    5.2224    4.2298    6.8964 H   0  0  0  0  0  0  0  0  0  0  0  0
    5.7153    2.0387    8.2776 C   0  0  0  0  0  0  0  0  0  0  0  0
    6.4033    2.8336    8.5437 H   0  0  0  0  0  0  0  0  0  0  0  0
    6.0931    1.5720    7.3689 H   0  0  0  0  0  0  0  0  0  0  0  0
    5.7098    1.2785    9.0524 H   0  0  0  0  0  0  0  0  0  0  0  0
    3.4221    1.3832    7.6673 C   0  0  0  0  0  0  0  0  0  0  0  0
    3.2677    0.7615    8.5451 H   0  0  0  0  0  0  0  0  0  0  0  0
    3.9299    0.7724    6.9216 H   0  0  0  0  0  0  0  0  0  0  0  0
    2.4624    1.6639    7.2467 H   0  0  0  0  0  0  0  0  0  0  0  0
  1  4  1  0  0  0  0
  2  1  1  0  0  0  0
  3  1  1  0  0  0  0
  4 29  1  0  0  0  0
  5 11  1  0  0  0  0
  6 12  1  0  0  0  0
  7 13  1  0  0  0  0
 10  1  1  0  0  0  0
 10 15  1  0  0  0  0
 11 10  2  0  0  0  0
 12 11  1  0  0  0  0
 12 13  2  0  0  0  0
 13 14  1  0  0  0  0
 14 15  2  0  0  0  0
 14  8  1  0  0  0  0
 15  9  1  0  0  0  0
 16  4  1  0  0  0  0
 16 25  1  0  0  0  0
 16 21  1  0  0  0  0
 17 16  1  0  0  0  0
 18 17  1  0  0  0  0
 19 17  1  0  0  0  0
 20 17  1  0  0  0  0
 21 24  1  0  0  0  0
 21 22  1  0  0  0  0
 23 21  1  0  0  0  0
 25 28  1  0  0  0  0
 26 25  1  0  0  0  0
 27 25  1  0  0  0  0
 29 38  1  0  0  0  0
 29 34  1  0  0  0  0
 29 30  1  0  0  0  0
 30 32  1  0  0  0  0
 31 30  1  0  0  0  0
 33 30  1  0  0  0  0
 34 37  1  0  0  0  0
 34 36  1  0  0  0  0
 35 34  1  0  0  0  0
 38 40  1  0  0  0  0
 39 38  1  0  0  0  0
 41 38  1  0  0  0  0
 42 47  1  0  0  0  0
 42  4  1  0  0  0  0
 43 46  1  0  0  0  0
 43 42  1  0  0  0  0
 44 43  1  0  0  0  0
 45 43  1  0  0  0  0
 47 48  1  0  0  0  0
 47 50  1  0  0  0  0
 49 47  1  0  0  0  0
 51 42  1  0  0  0  0
 51 52  1  0  0  0  0
 53 51  1  0  0  0  0
 54 51  1  0  0  0  0
M  END
$$$$
