CSD_code = GILNEV | q = 0 | S = 0 | Stoichiometry = C23H24ClNO2Ti | MND = 9
 OpenBabel04212202043D

 52 56  0  0  1  0  0  0  0  0999 V2000
    2.8043    1.6868    2.7738 Ti  0  0  0  0  0  0  0  0  0  0  0  0
    3.8683    3.5017    1.9811 Cl  0  0  0  0  0  0  0  0  0  0  0  0
    4.3098    1.1835    3.5000 O   0  0  0  0  0  0  0  0  0  0  0  0
    1.5862    2.8671    3.3962 O   0  0  0  0  0  0  0  0  0  0  0  0
    2.1231    0.7558    4.6356 N   0  0  0  0  0  0  0  0  0  0  0  0
    4.8515    0.1804    4.1323 C   0  0  0  0  0  0  0  0  0  0  0  0
    6.2340   -0.1274    4.0005 C   0  0  0  0  0  0  0  0  0  0  0  0
    6.7116   -1.2416    4.6575 C   0  0  0  0  0  0  0  0  0  0  0  0
    7.7494   -1.5163    4.5595 H   0  0  0  0  0  0  0  0  0  0  0  0
    5.9149   -2.0575    5.4736 C   0  0  0  0  0  0  0  0  0  0  0  0
    4.5973   -1.7203    5.6566 C   0  0  0  0  0  0  0  0  0  0  0  0
    3.9650   -2.3086    6.3067 H   0  0  0  0  0  0  0  0  0  0  0  0
    4.0442   -0.6096    4.9996 C   0  0  0  0  0  0  0  0  0  0  0  0
    2.7086   -0.1968    5.2829 C   0  0  0  0  0  3  0  0  0  0  0  0
    2.2104   -0.6928    6.1213 H   0  0  0  0  0  0  0  0  0  0  0  0
    0.8993    1.3002    4.9698 C   0  0  0  0  0  0  0  0  0  0  0  0
   -0.0407    0.8405    5.8917 C   0  0  0  0  0  0  0  0  0  0  0  0
    0.1296   -0.0740    6.4412 H   0  0  0  0  0  0  0  0  0  0  0  0
   -1.2082    1.5513    6.0823 C   0  0  0  0  0  0  0  0  0  0  0  0
   -1.9436    1.1932    6.7864 H   0  0  0  0  0  0  0  0  0  0  0  0
   -1.4444    2.7259    5.3736 C   0  0  0  0  0  0  0  0  0  0  0  0
   -2.3617    3.2706    5.5400 H   0  0  0  0  0  0  0  0  0  0  0  0
   -0.5277    3.2032    4.4603 C   0  0  0  0  0  0  0  0  0  0  0  0
   -0.7033    4.1124    3.9052 H   0  0  0  0  0  0  0  0  0  0  0  0
    0.6606    2.4961    4.2397 C   0  0  0  0  0  0  0  0  0  0  0  0
    7.1274    0.7828    3.1673 C   0  0  0  0  0  0  0  0  0  0  0  0
    6.6316    0.8165    1.7141 C   0  0  0  0  0  0  0  0  0  0  0  0
    6.5527   -0.1938    1.3149 H   0  0  0  0  0  0  0  0  0  0  0  0
    7.3359    1.3750    1.1019 H   0  0  0  0  0  0  0  0  0  0  0  0
    5.6622    1.3106    1.6481 H   0  0  0  0  0  0  0  0  0  0  0  0
    7.0760    2.1993    3.7596 C   0  0  0  0  0  0  0  0  0  0  0  0
    7.7429    2.8544    3.2045 H   0  0  0  0  0  0  0  0  0  0  0  0
    7.3893    2.1857    4.8023 H   0  0  0  0  0  0  0  0  0  0  0  0
    6.0704    2.6139    3.6973 H   0  0  0  0  0  0  0  0  0  0  0  0
    8.5874    0.3171    3.1644 C   0  0  0  0  0  0  0  0  0  0  0  0
    8.6869   -0.6684    2.7149 H   0  0  0  0  0  0  0  0  0  0  0  0
    8.9975    0.2967    4.1715 H   0  0  0  0  0  0  0  0  0  0  0  0
    9.1812    1.0136    2.5769 H   0  0  0  0  0  0  0  0  0  0  0  0
    6.5246   -3.2549    6.1372 C   0  0  0  0  0  0  0  0  0  0  0  0
    5.8025   -3.7549    6.7770 H   0  0  0  0  0  0  0  0  0  0  0  0
    7.3811   -2.9603    6.7416 H   0  0  0  0  0  0  0  0  0  0  0  0
    6.8748   -3.9643    5.3884 H   0  0  0  0  0  0  0  0  0  0  0  0
    3.0380   -0.2617    1.3833 C   0  0  0  0  0  0  0  0  0  0  0  0
    3.8568   -0.9710    1.3987 H   0  0  0  0  0  0  0  0  0  0  0  0
    1.8099   -0.4092    2.0568 C   0  0  0  0  0  0  0  0  0  0  0  0
    1.5239   -1.2541    2.6702 H   0  0  0  0  0  0  0  0  0  0  0  0
    0.9610    0.6476    1.6624 C   0  0  0  0  0  0  0  0  0  0  0  0
   -0.0822    0.7553    1.9338 H   0  0  0  0  0  0  0  0  0  0  0  0
    1.6658    1.4565    0.7517 C   0  0  2  0  0  0  0  0  0  0  0  0
    1.2644    2.2968    0.1969 H   0  0  0  0  0  0  0  0  0  0  0  0
    2.9561    0.8944    0.5791 C   0  0  0  0  0  0  0  0  0  0  0  0
    3.6955    1.2286   -0.1393 H   0  0  0  0  0  0  0  0  0  0  0  0
  1  4  1  0  0  0  0
  1  3  1  0  0  0  0
  1  5  1  0  0  0  0
  2  1  1  0  0  0  0
  3  6  1  0  0  0  0
  4 25  1  0  0  0  0
  5 16  1  0  0  0  0
  5 14  1  0  0  0  0
  6 13  1  0  0  0  0
  7  6  2  0  0  0  0
  7  8  1  0  0  0  0
  8 10  2  0  0  0  0
  9  8  1  0  0  0  0
 10 11  1  0  0  0  0
 10 39  1  0  0  0  0
 11 12  1  0  0  0  0
 13 14  1  0  0  0  0
 13 11  2  0  0  0  0
 14 15  1  0  0  0  0
 16 17  1  0  0  0  0
 17 19  2  0  0  0  0
 17 18  1  0  0  0  0
 19 20  1  0  0  0  0
 21 22  1  0  0  0  0
 21 19  1  0  0  0  0
 23 21  2  0  0  0  0
 24 23  1  0  0  0  0
 25 23  1  0  0  0  0
 25 16  2  0  0  0  0
 26 31  1  0  0  0  0
 26  7  1  0  0  0  0
 27 26  1  0  0  0  0
 28 27  1  0  0  0  0
 29 27  1  0  0  0  0
 30 27  1  0  0  0  0
 31 33  1  0  0  0  0
 32 31  1  0  0  0  0
 34 31  1  0  0  0  0
 35 26  1  0  0  0  0
 35 37  1  0  0  0  0
 36 35  1  0  0  0  0
 38 35  1  0  0  0  0
 39 41  1  0  0  0  0
 39 40  1  0  0  0  0
 42 39  1  0  0  0  0
 43 44  1  0  0  0  0
 43 45  1  0  0  0  0
 45 46  1  0  0  0  0
 47 48  1  0  0  0  0
 47 45  2  0  0  0  0
 49 50  1  6  0  0  0
 49 47  1  0  0  0  0
 49  1  1  0  0  0  0
 51 49  1  0  0  0  0
 51 43  2  0  0  0  0
 52 51  1  0  0  0  0
M  END
$$$$
