CSD_code = GILSAV | q = -1 | S = 0 | Stoichiometry = C27H33FV(1-) | MND = 4
 OpenBabel04212202043D

 62 64  0  0  0  0  0  0  0  0999 V2000
   -0.3395    3.7279    3.2938 V   0  0  0  0  0  0  0  0  0  0  0  0
   -1.2281    4.6745    4.4250 F   0  0  0  0  0  0  0  0  0  0  0  0
   -1.4603    2.8795    1.8920 C   0  0  0  0  0  0  0  0  0  0  0  0
   -2.7217    3.4380    1.6106 C   0  0  0  0  0  0  0  0  0  0  0  0
   -3.6585    2.7764    0.8344 C   0  0  0  0  0  0  0  0  0  0  0  0
   -4.6188    3.2428    0.6365 H   0  0  0  0  0  0  0  0  0  0  0  0
   -3.3945    1.5235    0.2934 C   0  0  0  0  0  0  0  0  0  0  0  0
   -2.1503    0.9689    0.5409 C   0  0  0  0  0  0  0  0  0  0  0  0
   -1.9086    0.0003    0.1128 H   0  0  0  0  0  0  0  0  0  0  0  0
   -1.1991    1.6256    1.3143 C   0  0  0  0  0  0  0  0  0  0  0  0
   -3.0726    4.8022    2.1460 C   0  0  0  0  0  0  0  0  0  0  0  0
   -2.1939    5.4516    2.1303 H   0  0  0  0  0  0  0  0  0  0  0  0
   -3.4059    4.7248    3.1828 H   0  0  0  0  0  0  0  0  0  0  0  0
   -3.8755    5.2563    1.5627 H   0  0  0  0  0  0  0  0  0  0  0  0
   -4.4287    0.8057   -0.5291 C   0  0  0  0  0  0  0  0  0  0  0  0
   -3.9859   -0.0360   -1.0599 H   0  0  0  0  0  0  0  0  0  0  0  0
   -4.8791    1.4789   -1.2594 H   0  0  0  0  0  0  0  0  0  0  0  0
   -5.2298    0.4223    0.1075 H   0  0  0  0  0  0  0  0  0  0  0  0
    0.1333    0.9350    1.4923 C   0  0  0  0  0  0  0  0  0  0  0  0
    0.9488    1.6565    1.5405 H   0  0  0  0  0  0  0  0  0  0  0  0
    0.3217    0.2493    0.6640 H   0  0  0  0  0  0  0  0  0  0  0  0
    0.1532    0.3514    2.4171 H   0  0  0  0  0  0  0  0  0  0  0  0
    1.1564    2.5441    3.9728 C   0  0  0  0  0  0  0  0  0  0  0  0
    0.6275    1.6094    4.8753 C   0  0  0  0  0  0  0  0  0  0  0  0
    1.4203    0.6362    5.4692 C   0  0  0  0  0  0  0  0  0  0  0  0
    0.9775   -0.0776    6.1577 H   0  0  0  0  0  0  0  0  0  0  0  0
    2.7779    0.5601    5.1961 C   0  0  0  0  0  0  0  0  0  0  0  0
    3.3165    1.4828    4.3148 C   0  0  0  0  0  0  0  0  0  0  0  0
    4.3777    1.4399    4.0906 H   0  0  0  0  0  0  0  0  0  0  0  0
    2.5281    2.4577    3.7106 C   0  0  0  0  0  0  0  0  0  0  0  0
   -0.8400    1.6603    5.2269 C   0  0  0  0  0  0  0  0  0  0  0  0
   -1.0653    2.5824    5.7697 H   0  0  0  0  0  0  0  0  0  0  0  0
   -1.1182    0.8157    5.8611 H   0  0  0  0  0  0  0  0  0  0  0  0
   -1.4619    1.6366    4.3251 H   0  0  0  0  0  0  0  0  0  0  0  0
    3.6335   -0.5086    5.8185 C   0  0  0  0  0  0  0  0  0  0  0  0
    3.2378   -0.8071    6.7885 H   0  0  0  0  0  0  0  0  0  0  0  0
    4.6567   -0.1588    5.9502 H   0  0  0  0  0  0  0  0  0  0  0  0
    3.6607   -1.3941    5.1792 H   0  0  0  0  0  0  0  0  0  0  0  0
    3.2028    3.4238    2.7719 C   0  0  0  0  0  0  0  0  0  0  0  0
    2.5394    3.6990    1.9537 H   0  0  0  0  0  0  0  0  0  0  0  0
    4.1193    2.9934    2.3663 H   0  0  0  0  0  0  0  0  0  0  0  0
    3.4621    4.3429    3.2997 H   0  0  0  0  0  0  0  0  0  0  0  0
    0.6254    5.2773    2.3760 C   0  0  0  0  0  0  0  0  0  0  0  0
    0.7385    5.5400    0.9994 C   0  0  0  0  0  0  0  0  0  0  0  0
    1.3946    6.6708    0.5261 C   0  0  0  0  0  0  0  0  0  0  0  0
    1.4588    6.8393   -0.5442 H   0  0  0  0  0  0  0  0  0  0  0  0
    1.9672    7.5941    1.3843 C   0  0  0  0  0  0  0  0  0  0  0  0
    1.8893    7.3358    2.7438 C   0  0  0  0  0  0  0  0  0  0  0  0
    2.3521    8.0304    3.4378 H   0  0  0  0  0  0  0  0  0  0  0  0
    1.2459    6.2062    3.2317 C   0  0  0  0  0  0  0  0  0  0  0  0
    0.1669    4.6032   -0.0342 C   0  0  0  0  0  0  0  0  0  0  0  0
   -0.9203    4.5875    0.0214 H   0  0  0  0  0  0  0  0  0  0  0  0
    0.5171    3.5847    0.1271 H   0  0  0  0  0  0  0  0  0  0  0  0
    0.4587    4.9153   -1.0376 H   0  0  0  0  0  0  0  0  0  0  0  0
    2.6751    8.8175    0.8707 C   0  0  0  0  0  0  0  0  0  0  0  0
    2.5270    8.9287   -0.2022 H   0  0  0  0  0  0  0  0  0  0  0  0
    3.7477    8.7500    1.0629 H   0  0  0  0  0  0  0  0  0  0  0  0
    2.3047    9.7152    1.3669 H   0  0  0  0  0  0  0  0  0  0  0  0
    1.2596    6.0031    4.7257 C   0  0  0  0  0  0  0  0  0  0  0  0
    1.3305    4.9402    4.9645 H   0  0  0  0  0  0  0  0  0  0  0  0
    0.3360    6.3857    5.1639 H   0  0  0  0  0  0  0  0  0  0  0  0
    2.0976    6.5343    5.1804 H   0  0  0  0  0  0  0  0  0  0  0  0
  1 23  1  0  0  0  0
  1  2  1  0  0  0  0
  3  1  1  0  0  0  0
  4  3  1  0  0  0  0
  4 11  1  0  0  0  0
  5  4  2  0  0  0  0
  6  5  1  0  0  0  0
  7  8  2  0  0  0  0
  7  5  1  0  0  0  0
  8 10  1  0  0  0  0
  9  8  1  0  0  0  0
 10 19  1  0  0  0  0
 10  3  2  0  0  0  0
 11 13  1  0  0  0  0
 12 11  1  0  0  0  0
 14 11  1  0  0  0  0
 15 18  1  0  0  0  0
 15  7  1  0  0  0  0
 16 15  1  0  0  0  0
 17 15  1  0  0  0  0
 19 20  1  0  0  0  0
 19 22  1  0  0  0  0
 21 19  1  0  0  0  0
 23 24  1  0  0  0  0
 24 31  1  0  0  0  0
 24 25  2  0  0  0  0
 25 26  1  0  0  0  0
 27 25  1  0  0  0  0
 27 35  1  0  0  0  0
 28 27  2  0  0  0  0
 29 28  1  0  0  0  0
 30 23  2  0  0  0  0
 30 28  1  0  0  0  0
 31 32  1  0  0  0  0
 31 33  1  0  0  0  0
 34 31  1  0  0  0  0
 35 37  1  0  0  0  0
 35 36  1  0  0  0  0
 38 35  1  0  0  0  0
 39 42  1  0  0  0  0
 39 30  1  0  0  0  0
 40 39  1  0  0  0  0
 41 39  1  0  0  0  0
 43 50  1  0  0  0  0
 43  1  1  0  0  0  0
 44 43  2  0  0  0  0
 45 44  1  0  0  0  0
 45 47  2  0  0  0  0
 46 45  1  0  0  0  0
 47 48  1  0  0  0  0
 48 50  2  0  0  0  0
 48 49  1  0  0  0  0
 50 59  1  0  0  0  0
 51 52  1  0  0  0  0
 51 53  1  0  0  0  0
 51 44  1  0  0  0  0
 54 51  1  0  0  0  0
 55 57  1  0  0  0  0
 55 58  1  0  0  0  0
 55 47  1  0  0  0  0
 56 55  1  0  0  0  0
 59 60  1  0  0  0  0
 59 61  1  0  0  0  0
 59 62  1  0  0  0  0
M  END
$$$$
