CSD_code = GIMHAO | q = 0 | S = 0 | Stoichiometry = C21H13ClN5O5Re | MND = 6
 OpenBabel04212202043D

 46 49  0  0  0  0  0  0  0  0999 V2000
    3.7037    0.4061    4.6279 C   0  0  0  0  0  2  0  0  0  0  0  0
    8.4085    2.3771    7.9081 C   0  0  0  0  0  0  0  0  0  0  0  0
    7.2251    1.6214    7.8885 C   0  0  0  0  0  0  0  0  0  0  0  0
    7.0006    0.9860    8.7314 H   0  0  0  0  0  0  0  0  0  0  0  0
    6.3742    1.7000    6.8145 C   0  0  0  0  0  0  0  0  0  0  0  0
    5.4608    1.1213    6.7877 H   0  0  0  0  0  0  0  0  0  0  0  0
    6.6742    2.5440    5.7368 C   0  0  0  0  0  0  0  0  0  0  0  0
    7.8542    3.2950    5.7530 C   0  0  0  0  0  0  0  0  0  0  0  0
    8.1147    3.8997    4.8966 H   0  0  0  0  0  0  0  0  0  0  0  0
    8.7104    3.2126    6.8269 C   0  0  0  0  0  0  0  0  0  0  0  0
    9.6326    3.7721    6.8450 H   0  0  0  0  0  0  0  0  0  0  0  0
    9.6049    1.0412   12.1390 C   0  0  0  0  0  0  0  0  0  0  0  0
    8.5426    1.0363   12.3242 H   0  0  0  0  0  0  0  0  0  0  0  0
   10.0696    1.3830   10.8568 C   0  0  0  0  0  0  0  0  0  0  0  0
   11.4540    1.3980   10.6029 C   0  0  0  0  0  0  0  0  0  0  0  0
   11.7912    1.6377    9.6063 H   0  0  0  0  0  0  0  0  0  0  0  0
   12.3432    1.0952   11.6045 C   0  0  0  0  0  0  0  0  0  0  0  0
   13.4090    1.1112   11.4341 H   0  0  0  0  0  0  0  0  0  0  0  0
   11.8668    0.7795   12.8756 C   0  0  0  0  0  0  0  0  0  0  0  0
    5.5582    3.7043    4.0621 C   0  0  0  0  0  0  0  0  0  0  0  0
    5.9332    4.6517    4.4419 H   0  0  0  0  0  0  0  0  0  0  0  0
    4.7188    3.7029    2.8925 C   0  0  0  0  0  0  0  0  0  0  0  0
    4.3991    4.8728    2.2003 C   0  0  0  0  0  0  0  0  0  0  0  0
    4.7918    5.8174    2.5436 H   0  0  0  0  0  0  0  0  0  0  0  0
    3.1304    3.5420    0.6905 C   0  0  0  0  0  0  0  0  0  0  0  0
    2.5042    3.4289   -0.1795 H   0  0  0  0  0  0  0  0  0  0  0  0
    3.4843    2.4287    1.4338 C   0  0  0  0  0  0  0  0  0  0  0  0
    3.1296    1.4455    1.1531 H   0  0  0  0  0  0  0  0  0  0  0  0
    6.4617   -0.3411    4.4394 C   0  0  0  0  0  2  0  0  0  0  0  0
    4.8258   -0.4800    2.1626 C   0  0  0  0  0  2  0  0  0  0  0  0
    3.6014    4.7907    1.0773 C   0  0  0  0  0  0  0  0  0  0  0  0
    3.3513    5.6753    0.5125 H   0  0  0  0  0  0  0  0  0  0  0  0
   10.4971    0.7560   13.1421 C   0  0  0  0  0  0  0  0  0  0  0  0
   10.1636    0.5040   14.1371 H   0  0  0  0  0  0  0  0  0  0  0  0
    7.0400    1.5869    2.1558 Cl  0  0  0  0  0  0  0  0  0  0  0  0
    4.2642    2.4920    2.5060 N   0  0  0  0  0  0  0  0  0  0  0  0
    5.8115    2.5820    4.6446 N   0  0  0  0  0  0  0  0  0  0  0  0
   12.7951    0.4793   13.9232 N   0  0  0  0  0  0  0  0  0  0  0  0
    9.1625    1.5257    9.8568 N   0  0  0  0  0  0  0  0  0  0  0  0
    9.3089    2.3858    8.9501 N   0  0  0  0  0  0  0  0  0  0  0  0
    2.7985    0.1682    5.2937 O   0  0  0  0  0  1  0  0  0  0  0  0
   13.9790    0.4712   13.6463 O   0  0  0  0  0  0  0  0  0  0  0  0
   12.3466    0.2518   15.0302 O   0  0  0  0  0  0  0  0  0  0  0  0
    7.2768   -0.9531    4.9533 O   0  0  0  0  0  1  0  0  0  0  0  0
    4.6526   -1.1896    1.2854 O   0  0  0  0  0  1  0  0  0  0  0  0
    5.2322    0.8658    3.5187 Re  0  0  0  0  0  0  0  0  0  0  0  0
  1 41  1  0  0  0  0
  2 40  1  0  0  0  0
  3  2  1  0  0  0  0
  3  4  1  0  0  0  0
  5  3  2  0  0  0  0
  6  5  1  0  0  0  0
  7  8  2  0  0  0  0
  7  5  1  0  0  0  0
  8 10  1  0  0  0  0
  9  8  1  0  0  0  0
 10 11  1  0  0  0  0
 10  2  2  0  0  0  0
 12 13  1  0  0  0  0
 12 33  1  0  0  0  0
 14 12  2  0  0  0  0
 15 14  1  0  0  0  0
 15 17  2  0  0  0  0
 16 15  1  0  0  0  0
 17 19  1  0  0  0  0
 18 17  1  0  0  0  0
 19 33  2  0  0  0  0
 19 38  1  0  0  0  0
 20 21  1  0  0  0  0
 20 37  1  0  0  0  0
 22 20  2  0  0  0  0
 23 24  1  0  0  0  0
 23 22  1  0  0  0  0
 25 31  1  0  0  0  0
 25 27  2  0  0  0  0
 26 25  1  0  0  0  0
 27 36  1  0  0  0  0
 28 27  1  0  0  0  0
 29 44  1  0  0  0  0
 30 46  1  0  0  0  0
 31 23  2  0  0  0  0
 32 31  1  0  0  0  0
 33 34  1  0  0  0  0
 35 46  1  0  0  0  0
 36 22  1  0  0  0  0
 36 46  1  0  0  0  0
 37  7  1  0  0  0  0
 38 43  2  0  0  0  0
 39 14  1  0  0  0  0
 40 39  2  0  0  0  0
 42 38  2  0  0  0  0
 45 30  1  0  0  0  0
 46 29  1  0  0  0  0
 46  1  1  0  0  0  0
 46 37  1  0  0  0  0
M  END
$$$$
