CSD_code = GIMMUK | q = 0 | S = 0 | Stoichiometry = C19H16ClMnN2O3 | MND = 6
 OpenBabel04212202043D

 42 44  0  0  0  0  0  0  0  0999 V2000
    0.8312    4.6306    1.2358 Mn  0  0  0  0  0  0  0  0  0  0  0  0
    1.4791    4.6305    3.4287 Cl  0  0  0  0  0  0  0  0  0  0  0  0
   -0.2804    3.3366    1.7880 C   0  0  0  0  0  2  0  0  0  0  0  0
   -0.9270    2.5145    2.2511 O   0  0  0  0  0  1  0  0  0  0  0  0
    0.2456    4.6306   -0.4413 C   0  0  0  0  0  2  0  0  0  0  0  0
   -0.1411    4.6299   -1.5279 O   0  0  0  0  0  1  0  0  0  0  0  0
    2.3353    3.3749    0.9609 N   0  0  0  0  0  0  0  0  0  0  0  0
    2.1656    1.9801    1.0309 C   0  0  0  0  0  0  0  0  0  0  0  0
    1.5022    1.3162    0.0004 C   0  0  0  0  0  0  0  0  0  0  0  0
    1.2930   -0.0466    0.0838 C   0  0  0  0  0  0  0  0  0  0  0  0
    1.7205   -0.7536    1.1967 C   0  0  0  0  0  0  0  0  0  0  0  0
    2.3623   -0.0919    2.2298 C   0  0  0  0  0  0  0  0  0  0  0  0
    2.5974    1.2680    2.1486 C   0  0  0  0  0  0  0  0  0  0  0  0
    3.5186    3.9064    0.9573 C   0  0  0  0  0  0  0  0  0  0  0  0
    4.8039    3.1421    0.9218 C   0  0  0  0  0  0  0  0  0  0  0  0
    1.1585    1.8795   -0.8562 H   0  0  0  0  0  0  0  0  0  0  0  0
    0.7858   -0.5574   -0.7206 H   0  0  0  0  0  0  0  0  0  0  0  0
    1.5434   -1.8162    1.2628 H   0  0  0  0  0  0  0  0  0  0  0  0
    2.6831   -0.6351    3.1060 H   0  0  0  0  0  0  0  0  0  0  0  0
    3.0689    1.7963    2.9645 H   0  0  0  0  0  0  0  0  0  0  0  0
    5.4347    3.5057    0.1119 H   0  0  0  0  0  0  0  0  0  0  0  0
    4.6225    2.0798    0.7770 H   0  0  0  0  0  0  0  0  0  0  0  0
    5.3472    3.2798    1.8564 H   0  0  0  0  0  0  0  0  0  0  0  0
   -0.2807    5.9242    1.7885 C   0  0  0  0  0  2  0  0  0  0  0  0
    2.3351    5.8866    0.9610 N   0  0  0  0  0  0  0  0  0  0  0  0
    3.5185    5.3553    0.9573 C   0  0  0  0  0  0  0  0  0  0  0  0
   -0.9270    6.7467    2.2513 O   0  0  0  0  0  1  0  0  0  0  0  0
    2.1654    7.2814    1.0310 C   0  0  0  0  0  0  0  0  0  0  0  0
    4.8036    6.1198    0.9218 C   0  0  0  0  0  0  0  0  0  0  0  0
    1.5021    7.9453    0.0005 C   0  0  0  0  0  0  0  0  0  0  0  0
    2.5973    7.9934    2.1487 C   0  0  0  0  0  0  0  0  0  0  0  0
    5.4347    5.7560    0.1122 H   0  0  0  0  0  0  0  0  0  0  0  0
    4.6221    7.1820    0.7766 H   0  0  0  0  0  0  0  0  0  0  0  0
    5.3468    5.9824    1.8566 H   0  0  0  0  0  0  0  0  0  0  0  0
    1.2932    9.3082    0.0838 C   0  0  0  0  0  0  0  0  0  0  0  0
    1.1582    7.3820   -0.8560 H   0  0  0  0  0  0  0  0  0  0  0  0
    2.3626    9.3534    2.2297 C   0  0  0  0  0  0  0  0  0  0  0  0
    3.0688    7.4651    2.9646 H   0  0  0  0  0  0  0  0  0  0  0  0
    1.7209   10.0152    1.1966 C   0  0  0  0  0  0  0  0  0  0  0  0
    0.7861    9.8191   -0.7207 H   0  0  0  0  0  0  0  0  0  0  0  0
    2.6836    9.8966    3.1059 H   0  0  0  0  0  0  0  0  0  0  0  0
    1.5443   11.0779    1.2625 H   0  0  0  0  0  0  0  0  0  0  0  0
  1  3  1  0  0  0  0
  1 24  1  0  0  0  0
  1  2  1  0  0  0  0
  3  4  1  0  0  0  0
  5  1  1  0  0  0  0
  6  5  1  0  0  0  0
  7  8  1  0  0  0  0
  7  1  1  0  0  0  0
  8 13  1  0  0  0  0
  9 10  1  0  0  0  0
  9  8  2  0  0  0  0
 10 11  2  0  0  0  0
 11 18  1  0  0  0  0
 11 12  1  0  0  0  0
 12 19  1  0  0  0  0
 13 12  2  0  0  0  0
 13 20  1  0  0  0  0
 14 26  2  0  0  0  0
 14  7  1  0  0  0  0
 15 14  1  0  0  0  0
 15 23  1  0  0  0  0
 16  9  1  0  0  0  0
 17 10  1  0  0  0  0
 21 15  1  0  0  0  0
 22 15  1  0  0  0  0
 24 27  1  0  0  0  0
 25 28  1  0  0  0  0
 25  1  1  0  0  0  0
 26 25  1  0  0  0  0
 28 31  1  0  0  0  0
 29 26  1  0  0  0  0
 29 34  1  0  0  0  0
 30 35  1  0  0  0  0
 30 28  2  0  0  0  0
 31 37  2  0  0  0  0
 31 38  1  0  0  0  0
 32 29  1  0  0  0  0
 33 29  1  0  0  0  0
 35 39  2  0  0  0  0
 36 30  1  0  0  0  0
 37 41  1  0  0  0  0
 39 42  1  0  0  0  0
 39 37  1  0  0  0  0
 40 35  1  0  0  0  0
M  END
$$$$
