CSD_code = GIMVOQ | q = 1 | S = 0 | Stoichiometry = C6H18ClFeN4(1+) | MND = 5
 OpenBabel04212202043D

 30 32  0  0  0  0  0  0  0  0999 V2000
    9.4828    6.2541    6.1802 Fe  0  0  0  0  0  0  0  0  0  0  0  0
   11.0224    5.1566    5.5611 Cl  0  0  0  0  0  0  0  0  0  0  0  0
    8.2968    8.0615    5.8935 N   0  0  0  0  0  4  0  0  0  0  0  0
   11.0195    7.8856    6.9125 N   0  0  0  0  0  4  0  0  0  0  0  0
    8.0304    6.0348    7.7433 N   0  0  0  0  0  4  0  0  0  0  0  0
    8.3478    5.7351    4.1657 N   0  0  0  0  0  4  0  0  0  0  0  0
   11.0246    8.1629    7.8890 H   0  0  0  0  0  0  0  0  0  0  0  0
   11.9669    7.6035    6.6803 H   0  0  0  0  0  0  0  0  0  0  0  0
    9.1025    9.2412    6.2717 C   0  0  0  0  0  0  0  0  0  0  0  0
    8.9406    9.4474    7.3305 H   0  0  0  0  0  0  0  0  0  0  0  0
    8.7806   10.1213    5.7037 H   0  0  0  0  0  0  0  0  0  0  0  0
    8.4414    5.6396    8.5886 H   0  0  0  0  0  0  0  0  0  0  0  0
    7.3190    5.3728    7.4317 H   0  0  0  0  0  0  0  0  0  0  0  0
   10.5994    9.0069    6.0699 C   0  0  0  0  0  0  0  0  0  0  0  0
   10.8106    8.7423    5.0315 H   0  0  0  0  0  0  0  0  0  0  0  0
   11.1344    9.9369    6.3018 H   0  0  0  0  0  0  0  0  0  0  0  0
    7.8951    4.8345    4.0581 H   0  0  0  0  0  0  0  0  0  0  0  0
    9.1098    5.7538    3.4921 H   0  0  0  0  0  0  0  0  0  0  0  0
    7.0803    8.0028    6.7189 C   0  0  0  0  0  0  0  0  0  0  0  0
    6.3325    7.4031    6.2005 H   0  0  0  0  0  0  0  0  0  0  0  0
    6.6602    9.0016    6.8841 H   0  0  0  0  0  0  0  0  0  0  0  0
    7.3972    7.3216    8.0484 C   0  0  0  0  0  0  0  0  0  0  0  0
    8.1057    7.9177    8.6267 H   0  0  0  0  0  0  0  0  0  0  0  0
    6.4793    7.2126    8.6381 H   0  0  0  0  0  0  0  0  0  0  0  0
    7.9650    8.1348    4.4584 C   0  0  0  0  0  0  0  0  0  0  0  0
    8.8877    8.3638    3.9225 H   0  0  0  0  0  0  0  0  0  0  0  0
    7.2469    8.9440    4.2740 H   0  0  0  0  0  0  0  0  0  0  0  0
    7.4088    6.8240    3.8962 C   0  0  0  0  0  0  0  0  0  0  0  0
    6.4515    6.5763    4.3583 H   0  0  0  0  0  0  0  0  0  0  0  0
    7.2248    6.9681    2.8240 H   0  0  0  0  0  0  0  0  0  0  0  0
  1  4  1  0  0  0  0
  1  5  1  0  0  0  0
  2  1  1  0  0  0  0
  3  1  1  0  0  0  0
  3  9  1  0  0  0  0
  3 19  1  0  0  0  0
  4  7  1  0  0  0  0
  5 22  1  0  0  0  0
  5 12  1  0  0  0  0
  6  1  1  0  0  0  0
  8  4  1  0  0  0  0
  9 10  1  0  0  0  0
 11  9  1  0  0  0  0
 13  5  1  0  0  0  0
 14  9  1  0  0  0  0
 14 16  1  0  0  0  0
 14  4  1  0  0  0  0
 15 14  1  0  0  0  0
 17  6  1  0  0  0  0
 18  6  1  0  0  0  0
 19 21  1  0  0  0  0
 19 22  1  0  0  0  0
 20 19  1  0  0  0  0
 22 23  1  0  0  0  0
 22 24  1  0  0  0  0
 25  3  1  0  0  0  0
 26 25  1  0  0  0  0
 27 25  1  0  0  0  0
 28  6  1  0  0  0  0
 28 29  1  0  0  0  0
 28 25  1  0  0  0  0
 30 28  1  0  0  0  0
M  END
$$$$
