CSD_code = GINKAP | q = 0 | S = 0 | Stoichiometry = C15H27BrNO2Re | MND = 6
 OpenBabel04212202043D

 47 46  0  0  0  0  0  0  0  0999 V2000
    0.7336    4.7208    4.7547 Re  0  0  0  0  0  0  0  0  0  0  0  0
    0.0553    2.2831    4.4169 Br  0  0  0  0  0  0  0  0  0  0  0  0
   -0.2244    4.6645    6.1183 O   0  0  0  0  0  1  0  0  0  0  0  0
    1.5578    6.0940    4.2978 O   0  0  0  0  0  1  0  0  0  0  0  0
   -0.7571    5.0218    3.0593 C   0  0  0  0  0  0  0  0  0  0  0  0
   -2.1110    5.5585    3.4947 C   0  0  0  0  0  0  0  0  0  0  0  0
   -2.8684    4.5521    4.3630 C   0  0  0  0  0  0  0  0  0  0  0  0
   -2.9085    5.7926    2.1973 C   0  0  0  0  0  0  0  0  0  0  0  0
   -1.9694    6.8901    4.2373 C   0  0  0  0  0  0  0  0  0  0  0  0
    2.6823    3.7490    5.4187 C   0  0  0  0  0  0  0  0  0  0  0  0
    2.8948    3.7229    6.9233 C   0  0  0  0  0  0  0  0  0  0  0  0
    1.8815    2.8143    7.6219 C   0  0  0  0  0  0  0  0  0  0  0  0
    2.8351    5.1319    7.5196 C   0  0  0  0  0  0  0  0  0  0  0  0
    4.3083    3.1489    7.1393 C   0  0  0  0  0  0  0  0  0  0  0  0
    2.1012    4.1248    2.4414 N   0  0  0  0  0  0  0  0  0  0  0  0
    2.6871    5.1603    1.8521 C   0  0  0  0  0  0  0  0  0  0  0  0
    3.4563    5.0392    0.7078 C   0  0  0  0  0  0  0  0  0  0  0  0
    3.6243    3.7820    0.1492 C   0  0  0  0  0  0  0  0  0  0  0  0
    3.0119    2.7019    0.7626 C   0  0  0  0  0  0  0  0  0  0  0  0
    2.2604    2.9219    1.9062 C   0  0  0  0  0  0  0  0  0  0  0  0
   -0.8793    4.0882    2.5095 H   0  0  0  0  0  0  0  0  0  0  0  0
   -0.2560    5.7493    2.4176 H   0  0  0  0  0  0  0  0  0  0  0  0
   -2.3389    4.3845    5.3003 H   0  0  0  0  0  0  0  0  0  0  0  0
   -2.9715    3.5970    3.8522 H   0  0  0  0  0  0  0  0  0  0  0  0
   -3.8604    4.9290    4.6015 H   0  0  0  0  0  0  0  0  0  0  0  0
   -3.8964    6.1748    2.4433 H   0  0  0  0  0  0  0  0  0  0  0  0
   -3.0271    4.8641    1.6438 H   0  0  0  0  0  0  0  0  0  0  0  0
   -2.4086    6.5175    1.5585 H   0  0  0  0  0  0  0  0  0  0  0  0
   -1.4344    6.7500    5.1773 H   0  0  0  0  0  0  0  0  0  0  0  0
   -2.9498    7.3035    4.4639 H   0  0  0  0  0  0  0  0  0  0  0  0
   -1.4186    7.6111    3.6361 H   0  0  0  0  0  0  0  0  0  0  0  0
    3.4403    4.3749    4.9432 H   0  0  0  0  0  0  0  0  0  0  0  0
    2.7479    2.7396    5.0115 H   0  0  0  0  0  0  0  0  0  0  0  0
    0.8728    3.2090    7.5039 H   0  0  0  0  0  0  0  0  0  0  0  0
    2.0963    2.7552    8.6864 H   0  0  0  0  0  0  0  0  0  0  0  0
    1.9066    1.8097    7.2047 H   0  0  0  0  0  0  0  0  0  0  0  0
    3.5363    5.7946    7.0157 H   0  0  0  0  0  0  0  0  0  0  0  0
    3.0816    5.1058    8.5789 H   0  0  0  0  0  0  0  0  0  0  0  0
    1.8338    5.5508    7.4141 H   0  0  0  0  0  0  0  0  0  0  0  0
    4.5210    3.1010    8.2046 H   0  0  0  0  0  0  0  0  0  0  0  0
    5.0597    3.7775    6.6664 H   0  0  0  0  0  0  0  0  0  0  0  0
    4.3848    2.1451    6.7279 H   0  0  0  0  0  0  0  0  0  0  0  0
    2.5349    6.1197    2.3282 H   0  0  0  0  0  0  0  0  0  0  0  0
    3.9120    5.9123    0.2680 H   0  0  0  0  0  0  0  0  0  0  0  0
    4.2186    3.6487   -0.7426 H   0  0  0  0  0  0  0  0  0  0  0  0
    3.1100    1.7033    0.3681 H   0  0  0  0  0  0  0  0  0  0  0  0
    1.7644    2.1002    2.4044 H   0  0  0  0  0  0  0  0  0  0  0  0
  1 10  1  0  0  0  0
  1  3  1  0  0  0  0
  2  1  1  0  0  0  0
  4  1  1  0  0  0  0
  5  6  1  0  0  0  0
  5  1  1  0  0  0  0
  6  9  1  0  0  0  0
  6  7  1  0  0  0  0
  7 25  1  0  0  0  0
  7 23  1  0  0  0  0
  8 26  1  0  0  0  0
  8  6  1  0  0  0  0
  9 30  1  0  0  0  0
  9 29  1  0  0  0  0
 10 11  1  0  0  0  0
 11 14  1  0  0  0  0
 11 13  1  0  0  0  0
 11 12  1  0  0  0  0
 12 35  1  0  0  0  0
 13 38  1  0  0  0  0
 14 40  1  0  0  0  0
 16 43  1  0  0  0  0
 16 15  2  0  0  0  0
 17 16  1  0  0  0  0
 18 17  2  0  0  0  0
 18 19  1  0  0  0  0
 19 20  2  0  0  0  0
 20 47  1  0  0  0  0
 20 15  1  0  0  0  0
 21  5  1  0  0  0  0
 22  5  1  0  0  0  0
 24  7  1  0  0  0  0
 27  8  1  0  0  0  0
 28  8  1  0  0  0  0
 31  9  1  0  0  0  0
 32 10  1  0  0  0  0
 33 10  1  0  0  0  0
 34 12  1  0  0  0  0
 36 12  1  0  0  0  0
 37 13  1  0  0  0  0
 39 13  1  0  0  0  0
 41 14  1  0  0  0  0
 42 14  1  0  0  0  0
 44 17  1  0  0  0  0
 45 18  1  0  0  0  0
 46 19  1  0  0  0  0
M  END
$$$$
