CSD_code = GINROK | q = 1 | S = 0 | Stoichiometry = C9H22Cl2O6Y(1+) | MND = 8
 OpenBabel04212202043D

 40 37  0  0  0  0  0  0  0  0999 V2000
    6.5392   -1.6761    3.0902 Y   0  0  0  0  0  0  0  0  0  0  0  0
    5.3189    0.3062    2.3616 Cl  0  0  0  0  0  0  0  0  0  0  0  0
    5.2160   -3.0801    1.6511 Cl  0  0  0  0  0  0  0  0  0  0  0  0
    7.9683   -1.2374    1.0087 O   0  0  0  0  0  0  0  0  0  0  0  0
    8.3697    0.1377    3.3210 O   0  0  0  0  0  0  0  0  0  0  0  0
    8.5498   -2.1869    4.7882 O   0  0  0  0  0  0  0  0  0  0  0  0
    8.2169   -3.5354    2.4283 O   0  0  0  0  0  0  0  0  0  0  0  0
    5.6534   -3.1839    4.9224 O   0  0  0  0  0  0  0  0  0  0  0  0
    5.8415   -0.2879    5.1921 O   0  0  0  0  0  0  0  0  0  0  0  0
    8.9961   -0.2443    1.0033 C   0  0  0  0  0  0  0  0  0  0  0  0
    8.6184    0.7850    2.0736 C   0  0  0  0  0  0  0  0  0  0  0  0
    9.5200   -0.0425    4.1413 C   0  0  0  0  0  0  0  0  0  0  0  0
    9.1022   -0.9714    5.2852 C   0  0  0  0  0  0  0  0  0  0  0  0
    9.5186   -3.1790    4.4426 C   0  0  0  0  0  0  0  0  0  0  0  0
    8.8205   -4.1946    3.5315 C   0  0  0  0  0  0  0  0  0  0  0  0
    9.0414   -3.4016    1.2702 C   0  0  0  0  0  0  0  0  0  0  0  0
    8.3048   -2.4433    0.3266 C   0  0  0  0  0  0  0  0  0  0  0  0
    4.6843   -4.2391    4.7910 C   0  0  0  0  0  0  0  0  0  0  0  0
    5.8787   -3.1240    5.8631 H   0  0  0  0  0  0  0  0  0  0  0  0
    5.0066   -0.4092    5.6673 H   0  0  0  0  0  0  0  0  0  0  0  0
    5.6997    0.5123    4.6440 H   0  0  0  0  0  0  0  0  0  0  0  0
    9.9707   -0.6990    1.2259 H   0  0  0  0  0  0  0  0  0  0  0  0
    9.0461    0.2378    0.0196 H   0  0  0  0  0  0  0  0  0  0  0  0
    7.6670    1.2534    1.8005 H   0  0  0  0  0  0  0  0  0  0  0  0
    9.3950    1.5481    2.1752 H   0  0  0  0  0  0  0  0  0  0  0  0
   10.3456   -0.4798    3.5646 H   0  0  0  0  0  0  0  0  0  0  0  0
    9.8494    0.9216    4.5480 H   0  0  0  0  0  0  0  0  0  0  0  0
    8.2909   -0.4964    5.8439 H   0  0  0  0  0  0  0  0  0  0  0  0
    9.9475   -1.1706    5.9511 H   0  0  0  0  0  0  0  0  0  0  0  0
   10.3676   -2.7231    3.9197 H   0  0  0  0  0  0  0  0  0  0  0  0
    9.8887   -3.6718    5.3501 H   0  0  0  0  0  0  0  0  0  0  0  0
    7.9973   -4.6656    4.0772 H   0  0  0  0  0  0  0  0  0  0  0  0
    9.5247   -4.9630    3.1989 H   0  0  0  0  0  0  0  0  0  0  0  0
   10.0285   -3.0037    1.5431 H   0  0  0  0  0  0  0  0  0  0  0  0
    9.1723   -4.3768    0.7865 H   0  0  0  0  0  0  0  0  0  0  0  0
    7.3470   -2.8931    0.0420 H   0  0  0  0  0  0  0  0  0  0  0  0
    8.9002   -2.2366   -0.5675 H   0  0  0  0  0  0  0  0  0  0  0  0
    4.4580   -4.3320    3.7290 H   0  0  0  0  0  0  0  0  0  0  0  0
    3.7722   -3.9928    5.3383 H   0  0  0  0  0  0  0  0  0  0  0  0
    5.0920   -5.1819    5.1615 H   0  0  0  0  0  0  0  0  0  0  0  0
  2  1  1  0  0  0  0
  3  1  1  0  0  0  0
  5 12  1  0  0  0  0
  6 13  1  0  0  0  0
  7 15  1  0  0  0  0
  8 19  1  0  0  0  0
  9 20  1  0  0  0  0
 10  4  1  0  0  0  0
 10 22  1  0  0  0  0
 10 11  1  0  0  0  0
 11 25  1  0  0  0  0
 11  5  1  0  0  0  0
 12 27  1  0  0  0  0
 12 13  1  0  0  0  0
 13 28  1  0  0  0  0
 13 29  1  0  0  0  0
 14  6  1  0  0  0  0
 14 31  1  0  0  0  0
 15 32  1  0  0  0  0
 15 14  1  0  0  0  0
 16 34  1  0  0  0  0
 16  7  1  0  0  0  0
 17  4  1  0  0  0  0
 17 16  1  0  0  0  0
 18  8  1  0  0  0  0
 18 40  1  0  0  0  0
 18 39  1  0  0  0  0
 21  9  1  0  0  0  0
 23 10  1  0  0  0  0
 24 11  1  0  0  0  0
 26 12  1  0  0  0  0
 30 14  1  0  0  0  0
 33 15  1  0  0  0  0
 35 16  1  0  0  0  0
 36 17  1  0  0  0  0
 37 17  1  0  0  0  0
 38 18  1  0  0  0  0
M  END
$$$$
