CSD_code = GIPTUU | q = 0 | S = 0 | Stoichiometry = C20H21Cl2PZr | MND = 13
 OpenBabel04212202043D

 45 47  0  0  1  0  0  0  0  0999 V2000
    2.3528    1.3579    1.9914 Zr  0  0  0  0  0  0  0  0  0  0  0  0
    3.8038    2.3168   -0.2171 P   0  0  2  0  0  0  0  0  0  0  0  0
    2.7853   -0.4939    0.5741 Cl  0  0  0  0  0  0  0  0  0  0  0  0
    1.1093   -0.2777    3.2239 Cl  0  0  0  0  0  0  0  0  0  0  0  0
    3.7642    1.8710   -1.9942 C   0  0  0  0  0  0  0  0  0  0  0  0
    4.6647    2.4246   -2.9008 C   0  0  0  0  0  0  0  0  0  0  0  0
    4.5887    2.0998   -4.2422 C   0  0  0  0  0  0  0  0  0  0  0  0
    3.6126    1.2246   -4.6917 C   0  0  0  0  0  0  0  0  0  0  0  0
    2.7152    0.6707   -3.7949 C   0  0  0  0  0  0  0  0  0  0  0  0
    2.7889    0.9916   -2.4501 C   0  0  0  0  0  0  0  0  0  0  0  0
    3.5556    4.1540   -0.3833 C   0  0  0  0  0  0  0  0  0  0  0  0
    2.0366    4.3684   -0.4834 C   0  0  0  0  0  0  0  0  0  0  0  0
    1.3164    3.5324    0.5374 C   0  0  0  0  0  0  0  0  0  0  0  0
    0.5605    2.3736    0.2611 C   0  0  0  0  0  0  0  0  0  0  0  0
    0.0067    1.9054    1.4690 C   0  0  0  0  0  0  0  0  0  0  0  0
    0.4629    2.7510    2.5149 C   0  0  2  0  0  0  0  0  0  0  0  0
    1.2895    3.7419    1.9299 C   0  0  0  0  0  0  0  0  0  0  0  0
    5.6208    2.1871    0.1825 C   0  0  0  0  0  0  0  0  0  0  0  0
    5.7787    1.1931    1.3422 C   0  0  0  0  0  0  0  0  0  0  0  0
    4.8132    1.4820    2.4621 C   0  0  0  0  0  0  0  0  0  0  0  0
    4.2721    0.5261    3.3538 C   0  0  0  0  0  3  0  0  0  0  0  0
    3.4577    1.2049    4.2880 C   0  0  0  0  0  0  0  0  0  0  0  0
    3.4532    2.5705    3.9559 C   0  0  0  0  0  0  0  0  0  0  0  0
    4.2926    2.7492    2.8294 C   0  0  0  0  0  0  0  0  0  0  0  0
    5.4295    3.1095   -2.5596 H   0  0  0  0  0  0  0  0  0  0  0  0
    5.2922    2.5302   -4.9402 H   0  0  0  0  0  0  0  0  0  0  0  0
    3.5563    0.9734   -5.7405 H   0  0  0  0  0  0  0  0  0  0  0  0
    1.9578   -0.0158   -4.1425 H   0  0  0  0  0  0  0  0  0  0  0  0
    2.1069    0.5422   -1.7414 H   0  0  0  0  0  0  0  0  0  0  0  0
    3.9370    4.6426    0.5171 H   0  0  0  0  0  0  0  0  0  0  0  0
    4.0745    4.5679   -1.2510 H   0  0  0  0  0  0  0  0  0  0  0  0
    1.8027    5.4278   -0.3440 H   0  0  0  0  0  0  0  0  0  0  0  0
    1.6981    4.0764   -1.4812 H   0  0  0  0  0  0  0  0  0  0  0  0
    0.3245    2.0003   -0.7273 H   0  0  0  0  0  0  0  0  0  0  0  0
   -0.7358    1.1210    1.5658 H   0  0  0  0  0  0  0  0  0  0  0  0
    0.1131    2.7281    3.5424 H   0  0  0  0  0  0  0  0  0  0  0  0
    1.6867    4.6107    2.4393 H   0  0  0  0  0  0  0  0  0  0  0  0
    6.1825    1.8377   -0.6864 H   0  0  0  0  0  0  0  0  0  0  0  0
    6.0003    3.1714    0.4708 H   0  0  0  0  0  0  0  0  0  0  0  0
    5.5944    0.1775    0.9735 H   0  0  0  0  0  0  0  0  0  0  0  0
    6.8098    1.2294    1.7140 H   0  0  0  0  0  0  0  0  0  0  0  0
    4.5178   -0.5303    3.3758 H   0  0  0  0  0  0  0  0  0  0  0  0
    2.9801    0.7581    5.1501 H   0  0  0  0  0  0  0  0  0  0  0  0
    3.0089    3.3618    4.5469 H   0  0  0  0  0  0  0  0  0  0  0  0
    4.6262    3.7076    2.4548 H   0  0  0  0  0  0  0  0  0  0  0  0
  1 16  1  0  0  0  0
  1  4  1  0  0  0  0
  2 11  1  6  0  0  0
  2 18  1  0  0  0  0
  3  1  1  0  0  0  0
  5  2  1  0  0  0  0
  6 25  1  0  0  0  0
  6  5  2  0  0  0  0
  7  6  1  0  0  0  0
  8  7  2  0  0  0  0
  8  9  1  0  0  0  0
  9 10  2  0  0  0  0
 10  5  1  0  0  0  0
 10 29  1  0  0  0  0
 11 30  1  0  0  0  0
 12 11  1  0  0  0  0
 12 32  1  0  0  0  0
 12 13  1  0  0  0  0
 13 17  2  0  0  0  0
 14 13  1  0  0  0  0
 14 15  2  0  0  0  0
 15 35  1  0  0  0  0
 15 16  1  0  0  0  0
 16 36  1  1  0  0  0
 17 37  1  0  0  0  0
 17 16  1  0  0  0  0
 18 39  1  0  0  0  0
 18 19  1  0  0  0  0
 19 41  1  0  0  0  0
 19 20  1  0  0  0  0
 20 24  2  0  0  0  0
 20 21  1  0  0  0  0
 21 42  1  0  0  0  0
 21 22  1  0  0  0  0
 22 43  1  0  0  0  0
 23 22  2  0  0  0  0
 23 44  1  0  0  0  0
 24 23  1  0  0  0  0
 26  7  1  0  0  0  0
 27  8  1  0  0  0  0
 28  9  1  0  0  0  0
 31 11  1  0  0  0  0
 33 12  1  0  0  0  0
 34 14  1  0  0  0  0
 38 18  1  0  0  0  0
 40 19  1  0  0  0  0
 45 24  1  0  0  0  0
M  END
$$$$
