CSD_code = GIQQAA | q = 0 | S = 0 | Stoichiometry = C13H18ClNO4PRh | MND = 4
 OpenBabel04212202043D

 39 41  0  0  0  0  0  0  0  0999 V2000
    2.5251    8.8082    4.0881 Rh  0  0  2  0  0  0  0  0  0  0  0  0
    3.4333    9.6402    2.2191 Cl  0  0  0  0  0  0  0  0  0  0  0  0
    1.2115    7.8888    5.6675 P   0  0  0  0  0  4  0  0  0  0  0  0
   -0.2650    8.5999    5.5751 O   0  0  0  0  0  0  0  0  0  0  0  0
    0.7063    6.3592    5.5039 O   0  0  0  0  0  0  0  0  0  0  0  0
    1.5145    7.7871    7.2435 O   0  0  0  0  0  0  0  0  0  0  0  0
    5.0308    8.8233    5.6852 O   0  0  0  0  0  1  0  0  0  0  0  0
    0.7682    8.7972    2.9752 N   0  0  0  0  0  4  0  0  0  0  0  0
    1.0139    9.0022    2.0015 H   0  0  0  0  0  0  0  0  0  0  0  0
    0.1835    7.9636    3.0493 H   0  0  0  0  0  0  0  0  0  0  0  0
   -0.3499    9.8016    4.9057 C   0  0  0  0  0  0  0  0  0  0  0  0
    0.1985    9.9286    3.6190 C   0  0  0  0  0  0  0  0  0  0  0  0
    0.1340   11.1665    2.9824 C   0  0  0  0  0  0  0  0  0  0  0  0
    0.5758   11.2743    2.0025 H   0  0  0  0  0  0  0  0  0  0  0  0
   -0.4631   12.2467    3.6062 C   0  0  0  0  0  0  0  0  0  0  0  0
   -0.4956   13.2004    3.1035 H   0  0  0  0  0  0  0  0  0  0  0  0
   -1.0260   12.1031    4.8629 C   0  0  0  0  0  0  0  0  0  0  0  0
   -1.5033   12.9414    5.3450 H   0  0  0  0  0  0  0  0  0  0  0  0
   -0.9577   10.8844    5.5172 C   0  0  0  0  0  0  0  0  0  0  0  0
   -1.3648   10.7569    6.5078 H   0  0  0  0  0  0  0  0  0  0  0  0
    1.1857    5.5601    6.5884 C   0  0  0  0  0  0  0  0  0  0  0  0
    1.1057    6.5295    7.8056 C   0  0  0  0  0  0  0  0  0  0  0  0
    0.2980    4.3277    6.7027 C   0  0  0  0  0  0  0  0  0  0  0  0
    0.4691    3.6827    5.8449 H   0  0  0  0  0  0  0  0  0  0  0  0
   -0.7507    4.6063    6.7155 H   0  0  0  0  0  0  0  0  0  0  0  0
    0.5387    3.7791    7.6090 H   0  0  0  0  0  0  0  0  0  0  0  0
    2.6248    5.1546    6.2756 C   0  0  0  0  0  0  0  0  0  0  0  0
    2.6489    4.6872    5.2937 H   0  0  0  0  0  0  0  0  0  0  0  0
    3.0035    4.4516    7.0113 H   0  0  0  0  0  0  0  0  0  0  0  0
    3.2610    6.0385    6.2415 H   0  0  0  0  0  0  0  0  0  0  0  0
   -0.3223    6.6826    8.3230 C   0  0  0  0  0  0  0  0  0  0  0  0
   -0.3583    7.5374    8.9941 H   0  0  0  0  0  0  0  0  0  0  0  0
   -0.6364    5.7948    8.8642 H   0  0  0  0  0  0  0  0  0  0  0  0
   -1.0000    6.8723    7.4938 H   0  0  0  0  0  0  0  0  0  0  0  0
    2.0548    6.1870    8.9457 C   0  0  0  0  0  0  0  0  0  0  0  0
    1.8785    6.8665    9.7752 H   0  0  0  0  0  0  0  0  0  0  0  0
    3.0878    6.2972    8.6324 H   0  0  0  0  0  0  0  0  0  0  0  0
    1.8827    5.1681    9.2820 H   0  0  0  0  0  0  0  0  0  0  0  0
    4.0762    8.8482    5.0486 C   0  0  0  0  0  2  0  0  0  0  0  0
  1  2  1  6  0  0  0
  1 39  1  0  0  0  0
  1  3  1  0  0  0  0
  3  6  1  0  0  0  0
  4  3  1  0  0  0  0
  5  3  1  0  0  0  0
  5 21  1  0  0  0  0
  6 22  1  0  0  0  0
  8 10  1  0  0  0  0
  8 12  1  0  0  0  0
  8  1  1  0  0  0  0
  9  8  1  0  0  0  0
 11 19  1  0  0  0  0
 11  4  1  0  0  0  0
 12 11  2  0  0  0  0
 13 15  2  0  0  0  0
 13 12  1  0  0  0  0
 14 13  1  0  0  0  0
 15 17  1  0  0  0  0
 16 15  1  0  0  0  0
 17 18  1  0  0  0  0
 17 19  2  0  0  0  0
 19 20  1  0  0  0  0
 21 23  1  0  0  0  0
 21 22  1  0  0  0  0
 22 31  1  0  0  0  0
 22 35  1  0  0  0  0
 23 25  1  0  0  0  0
 23 26  1  0  0  0  0
 24 23  1  0  0  0  0
 27 21  1  0  0  0  0
 27 29  1  0  0  0  0
 28 27  1  0  0  0  0
 30 27  1  0  0  0  0
 31 33  1  0  0  0  0
 31 32  1  0  0  0  0
 34 31  1  0  0  0  0
 35 38  1  0  0  0  0
 35 36  1  0  0  0  0
 37 35  1  0  0  0  0
 39  7  1  0  0  0  0
M  END
$$$$
