CSD_code = GIQWAG | q = 0 | S = 0 | Stoichiometry = C20H26Cl4N2NiP2 | MND = 5
 OpenBabel04212202043D

 55 57  0  0  0  0  0  0  0  0999 V2000
    2.2234   12.5294   13.3214 Ni  0  0  0  0  0  0  0  0  0  0  0  0
    2.7928   10.7988   14.4890 P   0  0  0  0  0  4  0  0  0  0  0  0
    2.3532   14.5026   12.4450 P   0  0  0  0  0  4  0  0  0  0  0  0
    0.6845    9.4760    9.0578 Cl  0  0  0  0  0  0  0  0  0  0  0  0
   -2.0540   11.6307   17.1465 Cl  0  0  0  0  0  0  0  0  0  0  0  0
   -2.7446   14.3421   12.4802 Cl  0  0  0  0  0  0  0  0  0  0  0  0
    1.6546   13.4651   15.1553 Cl  0  0  0  0  0  0  0  0  0  0  0  0
    2.7401   11.6729   11.7392 C   0  0  0  0  0  0  0  0  0  0  0  0
    4.0265   11.5709   11.2263 C   0  0  0  0  0  0  0  0  0  0  0  0
    4.2786   10.8411   10.0745 C   0  0  0  0  0  0  0  0  0  0  0  0
    3.2485   10.1936    9.4132 C   0  0  0  0  0  0  0  0  0  0  0  0
    1.9620   10.2920    9.9075 C   0  0  0  0  0  0  0  0  0  0  0  0
    1.6797   11.0293   11.0594 C   0  0  0  0  0  0  0  0  0  0  0  0
    0.3473   11.1678   11.5985 C   0  0  0  0  0  3  0  0  0  0  0  0
   -1.3441   12.2439   14.2916 C   0  0  0  0  0  0  0  0  0  0  0  0
   -2.4286   13.0213   14.8366 C   0  0  0  0  0  0  0  0  0  0  0  0
   -2.8369   12.8168   16.1669 C   0  0  0  0  0  0  0  0  0  0  0  0
   -3.8609   13.5415   16.7465 C   0  0  0  0  0  0  0  0  0  0  0  0
   -4.5229   14.5061   16.0068 C   0  0  0  0  0  0  0  0  0  0  0  0
   -4.1574   14.7368   14.6931 C   0  0  0  0  0  0  0  0  0  0  0  0
   -3.1297   14.0069   14.1217 C   0  0  0  0  0  0  0  0  0  0  0  0
    3.3109    9.2167   13.7145 C   0  0  0  0  0  0  0  0  0  0  0  0
    1.6199   10.1737   15.7470 C   0  0  0  0  0  0  0  0  0  0  0  0
    4.2546   11.1853   15.5192 C   0  0  0  0  0  0  0  0  0  0  0  0
    3.5846   15.6010   13.2374 C   0  0  0  0  0  0  0  0  0  0  0  0
    0.8210   15.4845   12.5995 C   0  0  0  0  0  0  0  0  0  0  0  0
    2.7392   14.7510   10.6685 C   0  0  0  0  0  0  0  0  0  0  0  0
    0.1862   11.9602   12.5968 N   0  0  0  0  0  0  0  0  0  0  0  0
   -0.8999   12.4072   13.1065 N   0  0  0  0  0  0  0  0  0  0  0  0
   -4.6653   15.4833   14.1033 H   0  0  0  0  0  0  0  0  0  0  0  0
   -5.3221   15.0753   16.4541 H   0  0  0  0  0  0  0  0  0  0  0  0
    3.4407    9.6193    8.5205 H   0  0  0  0  0  0  0  0  0  0  0  0
   -0.9030   11.5007   14.9527 H   0  0  0  0  0  0  0  0  0  0  0  0
    4.0104   12.0261   16.1666 H   0  0  0  0  0  0  0  0  0  0  0  0
    1.9979   14.2288   10.0668 H   0  0  0  0  0  0  0  0  0  0  0  0
   -4.1350   13.3498   17.7719 H   0  0  0  0  0  0  0  0  0  0  0  0
    0.9858   16.4920   12.2185 H   0  0  0  0  0  0  0  0  0  0  0  0
    5.2858   10.7695    9.6896 H   0  0  0  0  0  0  0  0  0  0  0  0
    3.5337   16.5959   12.7960 H   0  0  0  0  0  0  0  0  0  0  0  0
    3.3685   15.6550   14.3029 H   0  0  0  0  0  0  0  0  0  0  0  0
    1.2619   11.0068   16.3489 H   0  0  0  0  0  0  0  0  0  0  0  0
    3.5874    8.4943   14.4811 H   0  0  0  0  0  0  0  0  0  0  0  0
    4.8516   12.0598   11.7303 H   0  0  0  0  0  0  0  0  0  0  0  0
    2.4903    8.8185   13.1203 H   0  0  0  0  0  0  0  0  0  0  0  0
   -0.4821   10.6097   11.1726 H   0  0  0  0  0  0  0  0  0  0  0  0
    0.0279   15.0011   12.0319 H   0  0  0  0  0  0  0  0  0  0  0  0
    4.5832   15.1896   13.0989 H   0  0  0  0  0  0  0  0  0  0  0  0
    3.7187   14.3365   10.4406 H   0  0  0  0  0  0  0  0  0  0  0  0
    2.7255   15.8120   10.4236 H   0  0  0  0  0  0  0  0  0  0  0  0
    5.0870   11.4642   14.8747 H   0  0  0  0  0  0  0  0  0  0  0  0
    4.5296   10.3188   16.1199 H   0  0  0  0  0  0  0  0  0  0  0  0
    0.7767    9.6961   15.2499 H   0  0  0  0  0  0  0  0  0  0  0  0
    0.5269   15.5243   13.6465 H   0  0  0  0  0  0  0  0  0  0  0  0
    4.1569    9.3905   13.0533 H   0  0  0  0  0  0  0  0  0  0  0  0
    2.1215    9.4455   16.3841 H   0  0  0  0  0  0  0  0  0  0  0  0
  1  2  1  0  0  0  0
  1  7  1  0  0  0  0
  2 24  1  0  0  0  0
  2 23  1  0  0  0  0
  3 26  1  0  0  0  0
  3 25  1  0  0  0  0
  3  1  1  0  0  0  0
  4 12  1  0  0  0  0
  6 21  1  0  0  0  0
  8  1  1  0  0  0  0
  9 43  1  0  0  0  0
  9  8  1  0  0  0  0
 10  9  2  0  0  0  0
 11 12  2  0  0  0  0
 11 10  1  0  0  0  0
 12 13  1  0  0  0  0
 13 14  1  0  0  0  0
 13  8  2  0  0  0  0
 14 28  1  0  0  0  0
 15 16  1  0  0  0  0
 15 33  1  0  0  0  0
 16 17  1  0  0  0  0
 17 18  2  0  0  0  0
 17  5  1  0  0  0  0
 18 36  1  0  0  0  0
 19 31  1  0  0  0  0
 19 18  1  0  0  0  0
 20 19  2  0  0  0  0
 21 20  1  0  0  0  0
 21 16  2  0  0  0  0
 22 42  1  0  0  0  0
 22  2  1  0  0  0  0
 23 41  1  0  0  0  0
 23 55  1  0  0  0  0
 24 51  1  0  0  0  0
 24 34  1  0  0  0  0
 25 40  1  0  0  0  0
 26 53  1  0  0  0  0
 27  3  1  0  0  0  0
 28 29  1  0  0  0  0
 28  1  1  0  0  0  0
 29 15  2  0  0  0  0
 30 20  1  0  0  0  0
 32 11  1  0  0  0  0
 35 27  1  0  0  0  0
 37 26  1  0  0  0  0
 38 10  1  0  0  0  0
 39 25  1  0  0  0  0
 44 22  1  0  0  0  0
 45 14  1  0  0  0  0
 46 26  1  0  0  0  0
 47 25  1  0  0  0  0
 48 27  1  0  0  0  0
 49 27  1  0  0  0  0
 50 24  1  0  0  0  0
 52 23  1  0  0  0  0
 54 22  1  0  0  0  0
M  END
$$$$
