CSD_code = GIRCOC | q = 0 | S = 0 | Stoichiometry = C18H14Cl2N2O4PtS | MND = 4
 OpenBabel04212202043D

 42 46  0  0  1  0  0  0  0  0999 V2000
    6.2311    8.0232    0.6510 Pt  0  0  0  0  0  0  0  0  0  0  0  0
    6.5306    7.4558   -1.5662 Cl  0  0  0  0  0  0  0  0  0  0  0  0
    5.8739    8.1510    2.9569 Cl  0  0  0  0  0  0  0  0  0  0  0  0
    8.4026    7.6037    1.1439 S   0  0  0  0  0  0  0  0  0  0  0  0
    3.6213   12.0945   -1.5119 O   0  0  0  0  0  0  0  0  0  0  0  0
    5.7655   12.6239   -1.3092 O   0  0  0  0  0  0  0  0  0  0  0  0
    7.5795   14.3813   -1.9230 O   0  0  0  0  0  0  0  0  0  0  0  0
    8.3190   14.9802   -2.0832 H   0  0  0  0  0  0  0  0  0  0  0  0
    9.3531    7.3914    0.0770 O   0  0  0  0  0  1  0  0  0  0  0  0
    2.7227    9.6645   -0.6499 N   0  0  0  0  0  0  0  0  0  0  0  0
    2.3492   10.4953   -1.0941 H   0  0  0  0  0  0  0  0  0  0  0  0
    4.2774    8.3690    0.2426 N   0  0  0  0  0  0  0  0  0  0  0  0
    9.0101    8.9685    2.1515 C   0  0  0  0  0  0  0  0  0  0  0  0
    8.9328    9.8926    1.4908 H   0  0  0  0  0  0  0  0  0  0  0  0
    8.3691    9.0704    3.0190 H   0  0  0  0  0  0  0  0  0  0  0  0
   10.0455    8.7878    2.4165 H   0  0  0  0  0  0  0  0  0  0  0  0
    8.5775    6.2129    2.3052 C   0  0  0  0  0  0  0  0  0  0  0  0
    7.9238    6.4008    3.1496 H   0  0  0  0  0  0  0  0  0  0  0  0
    8.2842    5.3068    1.7842 H   0  0  0  0  0  0  0  0  0  0  0  0
    9.6170    6.1485    2.6068 H   0  0  0  0  0  0  0  0  0  0  0  0
    3.1088    7.6564    0.2304 C   0  0  0  0  0  0  0  0  0  0  0  0
    2.8159    6.3681    0.6638 C   0  0  0  0  0  0  0  0  0  0  0  0
    3.5860    5.7488    1.0971 H   0  0  0  0  0  0  0  0  0  0  0  0
    1.5166    5.9329    0.5146 C   0  0  0  0  0  0  0  0  0  0  0  0
    1.2493    4.9388    0.8382 H   0  0  0  0  0  0  0  0  0  0  0  0
    0.5292    6.7475   -0.0477 C   0  0  0  0  0  0  0  0  0  0  0  0
   -0.4739    6.3614   -0.1435 H   0  0  0  0  0  0  0  0  0  0  0  0
    0.8030    8.0287   -0.4826 C   0  0  0  0  0  0  0  0  0  0  0  0
    0.0402    8.6556   -0.9162 H   0  0  0  0  0  0  0  0  0  0  0  0
    2.1071    8.4783   -0.3388 C   0  0  0  0  0  0  0  0  0  0  0  0
    4.0168    9.5559   -0.2916 C   0  0  0  0  0  0  0  0  0  0  0  0
    5.0479   10.5474   -0.4251 C   0  0  0  0  0  0  0  0  0  0  0  0
    6.2889   10.2892    0.0607 C   0  0  2  0  0  3  0  0  0  0  0  0
    7.3471   11.2242   -0.0758 C   0  0  0  0  0  0  0  0  0  0  0  0
    8.6395   11.1888    0.4057 C   0  0  0  0  0  3  0  0  0  0  0  0
    9.5938   12.1249    0.1470 C   0  0  0  0  0  0  0  0  0  0  0  0
   10.5867   12.0381    0.5592 H   0  0  0  0  0  0  0  0  0  0  0  0
    9.2726   13.2045   -0.6767 C   0  0  0  0  0  0  0  0  0  0  0  0
   10.0195   13.9452   -0.9247 H   0  0  0  0  0  0  0  0  0  0  0  0
    7.9825   13.3386   -1.1569 C   0  0  0  0  0  0  0  0  0  0  0  0
    7.0081   12.3734   -0.8408 C   0  0  0  0  0  0  0  0  0  0  0  0
    4.7283   11.8009   -1.1180 C   0  0  0  0  0  0  0  0  0  0  0  0
  1  4  1  0  0  0  0
  1  3  1  0  0  0  0
  2  1  1  0  0  0  0
  4 13  1  0  0  0  0
  4 17  1  0  0  0  0
  5 42  2  0  0  0  0
  6 42  1  0  0  0  0
  6 41  1  0  0  0  0
  7 40  1  0  0  0  0
  8  7  1  0  0  0  0
  9  4  1  0  0  0  0
 10 30  1  0  0  0  0
 10 31  1  0  0  0  0
 11 10  1  0  0  0  0
 12  1  1  0  0  0  0
 13 16  1  0  0  0  0
 13 15  1  0  0  0  0
 14 13  1  0  0  0  0
 17 20  1  0  0  0  0
 17 18  1  0  0  0  0
 19 17  1  0  0  0  0
 21 12  1  0  0  0  0
 21 22  1  0  0  0  0
 22 23  1  0  0  0  0
 24 22  2  0  0  0  0
 24 25  1  0  0  0  0
 26 24  1  0  0  0  0
 27 26  1  0  0  0  0
 28 30  1  0  0  0  0
 28 26  2  0  0  0  0
 29 28  1  0  0  0  0
 30 21  2  0  0  0  0
 31 12  1  0  0  0  0
 32 31  2  0  0  0  0
 33 32  1  6  0  0  0
 33  1  1  0  0  0  0
 34 33  1  0  0  0  0
 34 35  1  0  0  0  0
 36 35  2  0  0  0  0
 36 37  1  0  0  0  0
 38 36  1  0  0  0  0
 39 38  1  0  0  0  0
 40 41  1  0  0  0  0
 40 38  2  0  0  0  0
 41 34  2  0  0  0  0
 42 32  1  0  0  0  0
M  END
$$$$
