CSD_code = GIRCUI | q = 0 | S = 0 | Stoichiometry = C18H16Cl2N2O3PtS | MND = 4
 OpenBabel04212202043D

 43 46  0  0  0  0  0  0  0  0999 V2000
    1.0152    8.3511    1.7527 Pt  0  0  0  0  0  0  0  0  0  0  0  0
   -0.4727    7.7242    0.2028 S   0  0  0  0  0  0  0  0  0  0  0  0
    2.7537    7.3527    0.6565 Cl  0  0  0  0  0  0  0  0  0  0  0  0
   -0.7609    9.3313    2.9110 Cl  0  0  0  0  0  0  0  0  0  0  0  0
    2.2752    9.0477    3.1488 N   0  0  0  0  0  0  0  0  0  0  0  0
    1.1972    6.5181    7.1589 O   0  0  0  0  0  0  0  0  0  0  0  0
    2.4779    8.3000    7.2516 O   0  0  0  0  0  0  0  0  0  0  0  0
   -0.0831    6.8964   -0.9173 O   0  0  0  0  0  1  0  0  0  0  0  0
    4.6649   12.3711    3.1035 C   0  0  0  0  0  0  0  0  0  0  0  0
    5.3022   13.2416    3.1331 H   0  0  0  0  0  0  0  0  0  0  0  0
    3.2450    9.5819    5.0644 N   0  0  0  0  0  0  0  0  0  0  0  0
    3.4229    9.5191    6.0619 H   0  0  0  0  0  0  0  0  0  0  0  0
    3.6507   10.5228    4.1611 C   0  0  0  0  0  0  0  0  0  0  0  0
    1.8611    7.5247    6.5523 C   0  0  0  0  0  0  0  0  0  0  0  0
    3.0295   10.1712    2.9420 C   0  0  0  0  0  0  0  0  0  0  0  0
    4.0504   12.0253    1.8936 C   0  0  0  0  0  0  0  0  0  0  0  0
    4.2333   12.6384    1.0248 H   0  0  0  0  0  0  0  0  0  0  0  0
    1.7962    7.5885    5.0853 C   0  0  0  0  0  0  0  0  0  0  0  0
    0.4969    5.5473    5.0725 C   0  0  0  0  0  0  0  0  0  0  0  0
   -0.1319    4.5733    7.2086 C   0  0  0  0  0  0  0  0  0  0  0  0
   -0.0959    4.6096    8.2854 H   0  0  0  0  0  0  0  0  0  0  0  0
    3.2253   10.9280    1.7898 C   0  0  0  0  0  0  0  0  0  0  0  0
    2.7492   10.6400    0.8628 H   0  0  0  0  0  0  0  0  0  0  0  0
    0.5237    5.5606    6.4782 C   0  0  0  0  0  0  0  0  0  0  0  0
    2.4220    8.7134    4.4271 C   0  0  0  0  0  0  0  0  0  0  0  0
    1.1637    6.6007    4.3908 C   0  0  0  0  0  3  0  0  0  0  0  0
    1.1673    6.6060    3.2986 H   0  0  0  0  0  0  0  0  0  0  0  0
   -1.9380    6.9412    0.9467 C   0  0  0  0  0  0  0  0  0  0  0  0
   -1.6404    5.9664    1.3183 H   0  0  0  0  0  0  0  0  0  0  0  0
   -2.6904    6.8268    0.1752 H   0  0  0  0  0  0  0  0  0  0  0  0
   -2.2831    7.5717    1.7580 H   0  0  0  0  0  0  0  0  0  0  0  0
   -0.1918    4.5166    4.4176 C   0  0  0  0  0  0  0  0  0  0  0  0
   -0.2010    4.5059    3.3384 H   0  0  0  0  0  0  0  0  0  0  0  0
   -0.8362    3.5444    5.1447 C   0  0  0  0  0  0  0  0  0  0  0  0
   -1.3668    2.7525    4.6393 H   0  0  0  0  0  0  0  0  0  0  0  0
    4.4798   11.6331    4.2537 C   0  0  0  0  0  0  0  0  0  0  0  0
    4.9542   11.9015    5.1840 H   0  0  0  0  0  0  0  0  0  0  0  0
   -0.8079    3.5749    6.5388 C   0  0  0  0  0  0  0  0  0  0  0  0
   -1.3178    2.8079    7.1009 H   0  0  0  0  0  0  0  0  0  0  0  0
   -1.2664    9.2135   -0.4678 C   0  0  0  0  0  0  0  0  0  0  0  0
   -1.6536    9.7881    0.3663 H   0  0  0  0  0  0  0  0  0  0  0  0
   -2.0539    8.9125   -1.1492 H   0  0  0  0  0  0  0  0  0  0  0  0
   -0.5090    9.7778   -1.0028 H   0  0  0  0  0  0  0  0  0  0  0  0
  1  4  1  0  0  0  0
  1  5  1  0  0  0  0
  2 28  1  0  0  0  0
  2  1  1  0  0  0  0
  3  1  1  0  0  0  0
  5 25  1  0  0  0  0
  8  2  1  0  0  0  0
  9 10  1  0  0  0  0
  9 36  1  0  0  0  0
 11 12  1  0  0  0  0
 13 36  2  0  0  0  0
 13 11  1  0  0  0  0
 14  6  1  0  0  0  0
 14  7  2  0  0  0  0
 15  5  1  0  0  0  0
 15 13  1  0  0  0  0
 16  9  2  0  0  0  0
 17 16  1  0  0  0  0
 18 14  1  0  0  0  0
 19 24  1  0  0  0  0
 20 21  1  0  0  0  0
 22 16  1  0  0  0  0
 22 15  2  0  0  0  0
 23 22  1  0  0  0  0
 24  6  1  0  0  0  0
 24 20  2  0  0  0  0
 25 11  1  0  0  0  0
 25 18  2  0  0  0  0
 26 19  1  0  0  0  0
 26 18  1  0  0  0  0
 27 26  1  0  0  0  0
 28 29  1  0  0  0  0
 28 31  1  0  0  0  0
 30 28  1  0  0  0  0
 32 19  2  0  0  0  0
 32 34  1  0  0  0  0
 33 32  1  0  0  0  0
 34 38  2  0  0  0  0
 35 34  1  0  0  0  0
 36 37  1  0  0  0  0
 38 39  1  0  0  0  0
 38 20  1  0  0  0  0
 40  2  1  0  0  0  0
 40 41  1  0  0  0  0
 42 40  1  0  0  0  0
 43 40  1  0  0  0  0
M  END
$$$$
