CSD_code = GIRDOD | q = 0 | S = 0 | Stoichiometry = C18H14Cl4N2O3PtS | MND = 4
 OpenBabel04212202043D

 43 46  0  0  1  0  0  0  0  0999 V2000
    1.7488    2.5323    3.8418 Pt  0  0  0  0  0  0  0  0  0  0  0  0
    3.3171    1.5176    2.6173 S   0  0  0  0  0  0  0  0  0  0  0  0
    7.5471    5.8765    2.2163 Cl  0  0  0  0  0  0  0  0  0  0  0  0
    4.4603   10.0305    3.6536 Cl  0  0  0  0  0  0  0  0  0  0  0  0
    1.2415    3.8636    2.0151 Cl  0  0  0  0  0  0  0  0  0  0  0  0
    0.5024    3.6206    4.9681 N   0  0  0  0  0  0  0  0  0  0  0  0
    0.6614    7.7474    5.5408 O   0  0  0  0  0  0  0  0  0  0  0  0
    4.5312    2.3070    2.7494 O   0  0  0  0  0  1  0  0  0  0  0  0
    2.6354    7.9671    4.5988 O   0  0  0  0  0  0  0  0  0  0  0  0
   -0.4318    5.3654    5.9572 N   0  0  0  0  0  0  0  0  0  0  0  0
   -0.5317    6.3440    6.2085 H   0  0  0  0  0  0  0  0  0  0  0  0
   -0.7159    3.2275    5.4517 C   0  0  0  0  0  0  0  0  0  0  0  0
   -2.5772    4.2358    6.6695 C   0  0  0  0  0  0  0  0  0  0  0  0
   -3.0397    5.0825    7.1508 H   0  0  0  0  0  0  0  0  0  0  0  0
    5.1662    5.5720    3.4232 C   0  0  0  0  0  0  0  0  0  0  0  0
    5.3021    4.5030    3.3439 H   0  0  0  0  0  0  0  0  0  0  0  0
    5.8967    7.8398    3.0073 C   0  0  0  0  0  0  0  0  0  0  0  0
    6.6412    8.5185    2.6238 H   0  0  0  0  0  0  0  0  0  0  0  0
    3.9903    6.0729    3.9953 C   0  0  0  0  0  0  0  0  0  0  0  0
   -1.3228    4.3370    6.0823 C   0  0  0  0  0  0  0  0  0  0  0  0
    6.0998    6.4601    2.9340 C   0  0  0  0  0  0  0  0  0  0  0  0
    2.9636    5.2234    4.4928 C   0  0  0  0  0  0  0  0  0  0  0  0
    3.1545    4.1499    4.5025 H   0  0  0  0  0  0  0  0  0  0  0  0
    1.7810    5.7386    4.9334 C   0  0  0  0  0  0  0  0  0  0  0  0
    3.7635    7.4582    4.0579 C   0  0  0  0  0  0  0  0  0  0  0  0
    1.6209    7.1960    5.0475 C   0  0  0  0  0  0  0  0  0  0  0  0
   -3.1982    3.0061    6.6067 C   0  0  0  0  0  0  0  0  0  0  0  0
   -4.1741    2.8854    7.0513 H   0  0  0  0  0  0  0  0  0  0  0  0
    4.7343    8.3382    3.5642 C   0  0  0  0  0  0  0  0  0  0  0  0
   -1.3582    1.9935    5.3937 C   0  0  0  0  0  0  0  0  0  0  0  0
   -0.8790    1.1541    4.9120 H   0  0  0  0  0  0  0  0  0  0  0  0
    3.7458   -0.2007    3.0190 C   0  0  0  0  0  0  0  0  0  0  0  0
    3.9694   -0.2463    4.0798 H   0  0  0  0  0  0  0  0  0  0  0  0
    4.6138   -0.4823    2.4342 H   0  0  0  0  0  0  0  0  0  0  0  0
    2.8899   -0.8261    2.7940 H   0  0  0  0  0  0  0  0  0  0  0  0
    0.6511    4.9059    5.2856 C   0  0  2  0  0  3  0  0  0  0  0  0
    2.9987    1.3069    0.8429 C   0  0  0  0  0  0  0  0  0  0  0  0
    2.1710    0.6170    0.7268 H   0  0  0  0  0  0  0  0  0  0  0  0
    3.9013    0.9331    0.3737 H   0  0  0  0  0  0  0  0  0  0  0  0
    2.7335    2.2786    0.4390 H   0  0  0  0  0  0  0  0  0  0  0  0
   -2.6001    1.9052    5.9813 C   0  0  0  0  0  0  0  0  0  0  0  0
   -3.1316    0.9664    5.9633 H   0  0  0  0  0  0  0  0  0  0  0  0
    2.2723    1.1786    5.6312 Cl  0  0  0  0  0  0  0  0  0  0  0  0
  1  6  1  0  0  0  0
  1 43  1  0  0  0  0
  2  8  1  0  0  0  0
  2 32  1  0  0  0  0
  2  1  1  0  0  0  0
  3 21  1  0  0  0  0
  5  1  1  0  0  0  0
  6 36  1  0  0  0  0
  6 12  1  0  0  0  0
  9 26  1  0  0  0  0
 10 20  1  0  0  0  0
 10 11  1  0  0  0  0
 12 20  1  0  0  0  0
 13 14  1  0  0  0  0
 15 19  1  0  0  0  0
 16 15  1  0  0  0  0
 17 29  2  0  0  0  0
 18 17  1  0  0  0  0
 19 25  2  0  0  0  0
 19 22  1  0  0  0  0
 20 13  2  0  0  0  0
 21 17  1  0  0  0  0
 21 15  2  0  0  0  0
 22 23  1  0  0  0  0
 22 24  2  0  0  0  0
 24 26  1  0  0  0  0
 25  9  1  0  0  0  0
 26  7  2  0  0  0  0
 27 13  1  0  0  0  0
 27 28  1  0  0  0  0
 29  4  1  0  0  0  0
 29 25  1  0  0  0  0
 30 12  2  0  0  0  0
 30 41  1  0  0  0  0
 31 30  1  0  0  0  0
 32 33  1  0  0  0  0
 34 32  1  0  0  0  0
 35 32  1  0  0  0  0
 36 24  1  6  0  0  0
 36 10  1  0  0  0  0
 37  2  1  0  0  0  0
 38 37  1  0  0  0  0
 39 37  1  0  0  0  0
 40 37  1  0  0  0  0
 41 27  2  0  0  0  0
 42 41  1  0  0  0  0
M  END
$$$$
