CSD_code = GIRFES | q = 0 | S = 0 | Stoichiometry = C13H21ClO2P2Zr | MND = 10
 OpenBabel04212202043D

 40 39  0  0  1  0  0  0  0  0999 V2000
    0.7375    4.4066   11.4700 Zr  0  0  0  0  0  0  0  0  0  0  0  0
   -1.0235    6.0746   11.8794 Cl  0  0  0  0  0  0  0  0  0  0  0  0
   -1.5116    3.5569   10.2145 P   0  0  0  0  0  0  0  0  0  0  0  0
   -0.6737    3.4243   13.5793 P   0  0  0  0  0  0  0  0  0  0  0  0
    2.5492    6.8796   12.5415 O   0  0  0  0  0  0  0  0  0  0  0  0
    1.9474    6.8982    9.7761 O   0  0  0  0  0  0  0  0  0  0  0  0
    1.9125    5.8995   12.5060 C   0  0  0  0  0  3  0  0  0  0  0  0
    1.3626    5.9274   10.0637 C   0  0  0  0  0  3  0  0  0  0  0  0
    1.7011    2.5532   10.0610 C   0  0  0  0  0  3  0  0  0  0  0  0
    1.4410    2.0515   11.3556 C   0  0  1  0  0  0  0  0  0  0  0  0
    2.3510    2.6641   12.2470 C   0  0  0  0  0  3  0  0  0  0  0  0
    3.1676    3.5358   11.5017 C   0  0  0  0  0  0  0  0  0  0  0  0
    2.7670    3.4663   10.1543 C   0  0  0  0  0  0  0  0  0  0  0  0
   -2.4839    4.7045    9.1618 C   0  0  0  0  0  0  0  0  0  0  0  0
   -1.8193    1.9808    9.2944 C   0  0  0  0  0  0  0  0  0  0  0  0
   -2.7227    3.3365   11.6125 C   0  0  0  0  0  0  0  0  0  0  0  0
   -2.1197    2.5562   12.7786 C   0  0  0  0  0  0  0  0  0  0  0  0
   -1.5569    4.5333   14.7485 C   0  0  0  0  0  0  0  0  0  0  0  0
   -0.2062    2.0829   14.7603 C   0  0  0  0  0  0  0  0  0  0  0  0
    1.2565    2.1987    9.1381 H   0  0  0  0  0  0  0  0  0  0  0  0
    0.7814    1.2224   11.5910 H   0  0  0  0  0  0  0  0  0  0  0  0
    2.4897    2.4148   13.2930 H   0  0  0  0  0  0  0  0  0  0  0  0
    4.0247    4.0781   11.8784 H   0  0  0  0  0  0  0  0  0  0  0  0
    3.2647    3.9452    9.3213 H   0  0  0  0  0  0  0  0  0  0  0  0
   -3.5005    4.3350    9.0240 H   0  0  0  0  0  0  0  0  0  0  0  0
   -1.9933    4.7953    8.1923 H   0  0  0  0  0  0  0  0  0  0  0  0
   -2.5021    5.6815    9.6415 H   0  0  0  0  0  0  0  0  0  0  0  0
   -2.8850    1.8329    9.1213 H   0  0  0  0  0  0  0  0  0  0  0  0
   -1.4213    1.1333    9.8500 H   0  0  0  0  0  0  0  0  0  0  0  0
   -1.3086    2.0289    8.3335 H   0  0  0  0  0  0  0  0  0  0  0  0
   -3.6112    2.8190   11.2328 H   0  0  0  0  0  0  0  0  0  0  0  0
   -3.0097    4.3383   11.9414 H   0  0  0  0  0  0  0  0  0  0  0  0
   -2.8823    2.3750   13.5451 H   0  0  0  0  0  0  0  0  0  0  0  0
   -1.7558    1.5837   12.4262 H   0  0  0  0  0  0  0  0  0  0  0  0
   -2.2734    3.9732   15.3501 H   0  0  0  0  0  0  0  0  0  0  0  0
   -2.0590    5.3188   14.1876 H   0  0  0  0  0  0  0  0  0  0  0  0
   -0.8189    5.0007   15.4005 H   0  0  0  0  0  0  0  0  0  0  0  0
    0.5211    2.4791   15.4685 H   0  0  0  0  0  0  0  0  0  0  0  0
    0.2494    1.2509   14.2267 H   0  0  0  0  0  0  0  0  0  0  0  0
   -1.0788    1.7267   15.3075 H   0  0  0  0  0  0  0  0  0  0  0  0
  1  2  1  0  0  0  0
  1  7  1  0  0  0  0
  3 16  1  0  0  0  0
  4 18  1  0  0  0  0
  4 19  1  0  0  0  0
  6  8  2  0  0  0  0
  7  5  2  0  0  0  0
  8  1  1  0  0  0  0
  9 13  1  0  0  0  0
  9 10  1  0  0  0  0
 10  1  1  0  0  0  0
 10 21  1  1  0  0  0
 10 11  1  0  0  0  0
 11 22  1  0  0  0  0
 12 23  1  0  0  0  0
 12 11  1  0  0  0  0
 13 12  2  0  0  0  0
 14 27  1  0  0  0  0
 14  3  1  0  0  0  0
 15 29  1  0  0  0  0
 15  3  1  0  0  0  0
 16 32  1  0  0  0  0
 16 17  1  0  0  0  0
 17 33  1  0  0  0  0
 17  4  1  0  0  0  0
 18 35  1  0  0  0  0
 18 37  1  0  0  0  0
 19 40  1  0  0  0  0
 19 38  1  0  0  0  0
 20  9  1  0  0  0  0
 24 13  1  0  0  0  0
 25 14  1  0  0  0  0
 26 14  1  0  0  0  0
 28 15  1  0  0  0  0
 30 15  1  0  0  0  0
 31 16  1  0  0  0  0
 34 17  1  0  0  0  0
 36 18  1  0  0  0  0
 39 19  1  0  0  0  0
M  END
$$$$
