CSD_code = GIRXEM | q = 0 | S = 0 | Stoichiometry = C16H39ClCoNP2 | MND = 6
 OpenBabel04212202043D

 60 61  0  0  0  0  0  0  0  0999 V2000
   10.8594   10.8051    0.8716 Co  0  0  0  0  0  0  0  0  0  0  0  0
   12.7526   10.7667    1.9692 P   0  0  0  0  0  4  0  0  0  0  0  0
   10.4718    8.6973    1.6281 Cl  0  0  0  0  0  0  0  0  0  0  0  0
    9.1356   10.5666   -0.4561 P   0  0  0  0  0  4  0  0  0  0  0  0
   11.9239    9.8249   -0.6354 N   0  0  0  0  0  4  0  0  0  0  0  0
   11.7363    8.8804   -0.2781 H   0  0  0  0  0  0  0  0  0  0  0  0
   11.3448    9.9124   -1.9702 C   0  0  0  0  0  0  0  0  0  0  0  0
   11.8371    9.2064   -2.6600 H   0  0  0  0  0  0  0  0  0  0  0  0
   11.5110   10.9255   -2.3483 H   0  0  0  0  0  0  0  0  0  0  0  0
    9.8531    9.6097   -1.8833 C   0  0  0  0  0  0  0  0  0  0  0  0
    9.7111    8.5482   -1.6577 H   0  0  0  0  0  0  0  0  0  0  0  0
    9.3466    9.8405   -2.8225 H   0  0  0  0  0  0  0  0  0  0  0  0
   13.8719    9.8308    0.8124 C   0  0  0  0  0  0  0  0  0  0  0  0
   14.9128   10.1450    0.9108 H   0  0  0  0  0  0  0  0  0  0  0  0
   13.7959    8.7732    1.0837 H   0  0  0  0  0  0  0  0  0  0  0  0
    8.3376   12.0205   -1.3157 C   0  0  0  0  0  0  0  0  0  0  0  0
    7.5416   11.6352   -1.9630 H   0  0  0  0  0  0  0  0  0  0  0  0
    7.7192    9.4382    0.0021 C   0  0  0  0  0  0  0  0  0  0  0  0
    8.2240    8.4711    0.1268 H   0  0  0  0  0  0  0  0  0  0  0  0
   13.3678   10.0238   -0.6134 C   0  0  0  0  0  0  0  0  0  0  0  0
   13.5776   11.0394   -0.9619 H   0  0  0  0  0  0  0  0  0  0  0  0
   13.8728    9.3187   -1.2948 H   0  0  0  0  0  0  0  0  0  0  0  0
   12.9509    9.7294    3.5101 C   0  0  0  0  0  0  0  0  0  0  0  0
   12.7200    8.7210    3.1420 H   0  0  0  0  0  0  0  0  0  0  0  0
   11.9021   10.0724    4.5627 C   0  0  0  0  0  0  0  0  0  0  0  0
   11.8631    9.2878    5.3168 H   0  0  0  0  0  0  0  0  0  0  0  0
   10.9223   10.1508    4.0967 H   0  0  0  0  0  0  0  0  0  0  0  0
   12.1241   11.0124    5.0619 H   0  0  0  0  0  0  0  0  0  0  0  0
   13.7347   12.3205    2.3018 C   0  0  0  0  0  0  0  0  0  0  0  0
   14.6587   12.0329    2.8161 H   0  0  0  0  0  0  0  0  0  0  0  0
    6.6429    9.2994   -1.0688 C   0  0  0  0  0  0  0  0  0  0  0  0
    5.9870    8.4688   -0.8113 H   0  0  0  0  0  0  0  0  0  0  0  0
    7.0724    9.0983   -2.0486 H   0  0  0  0  0  0  0  0  0  0  0  0
    6.0314   10.1973   -1.1287 H   0  0  0  0  0  0  0  0  0  0  0  0
   12.9055   13.2436    3.1876 C   0  0  0  0  0  0  0  0  0  0  0  0
   13.4049   14.2034    3.3142 H   0  0  0  0  0  0  0  0  0  0  0  0
   12.7459   12.8104    4.1710 H   0  0  0  0  0  0  0  0  0  0  0  0
   11.9337   13.4102    2.7258 H   0  0  0  0  0  0  0  0  0  0  0  0
   14.3560    9.7300    4.1021 C   0  0  0  0  0  0  0  0  0  0  0  0
   14.5716   10.6736    4.5990 H   0  0  0  0  0  0  0  0  0  0  0  0
   15.1141    9.5495    3.3421 H   0  0  0  0  0  0  0  0  0  0  0  0
   14.4304    8.9390    4.8472 H   0  0  0  0  0  0  0  0  0  0  0  0
    7.1168    9.8058    1.3540 C   0  0  0  0  0  0  0  0  0  0  0  0
    6.4982   10.6977    1.2909 H   0  0  0  0  0  0  0  0  0  0  0  0
    7.9103    9.9853    2.0760 H   0  0  0  0  0  0  0  0  0  0  0  0
    6.4976    8.9878    1.7192 H   0  0  0  0  0  0  0  0  0  0  0  0
   14.0954   13.0348    1.0042 C   0  0  0  0  0  0  0  0  0  0  0  0
   13.1962   13.2129    0.4178 H   0  0  0  0  0  0  0  0  0  0  0  0
   14.8024   12.4602    0.4094 H   0  0  0  0  0  0  0  0  0  0  0  0
   14.5522   13.9981    1.2276 H   0  0  0  0  0  0  0  0  0  0  0  0
    9.3468   12.7759   -2.1729 C   0  0  0  0  0  0  0  0  0  0  0  0
    8.8932   13.6869   -2.5611 H   0  0  0  0  0  0  0  0  0  0  0  0
    9.6815   12.1823   -3.0209 H   0  0  0  0  0  0  0  0  0  0  0  0
   10.2084   13.0552   -1.5697 H   0  0  0  0  0  0  0  0  0  0  0  0
    7.7528   12.9535   -0.2612 C   0  0  0  0  0  0  0  0  0  0  0  0
    8.5260   13.2134    0.4600 H   0  0  0  0  0  0  0  0  0  0  0  0
    6.9322   12.4824    0.2729 H   0  0  0  0  0  0  0  0  0  0  0  0
    7.3798   13.8669   -0.7227 H   0  0  0  0  0  0  0  0  0  0  0  0
   10.1205   11.4429    1.9218 H   0  0  0  0  0  0  0  0  0  0  0  0
   11.1481   12.0968    0.3325 H   0  0  0  0  0  0  0  0  0  0  0  0
  1  3  1  0  0  0  0
  1 59  1  0  0  0  0
  1  2  1  0  0  0  0
  2 29  1  0  0  0  0
  2 23  1  0  0  0  0
  4 18  1  0  0  0  0
  4  1  1  0  0  0  0
  5 20  1  0  0  0  0
  5  6  1  0  0  0  0
  5  1  1  0  0  0  0
  7 10  1  0  0  0  0
  7  5  1  0  0  0  0
  8  7  1  0  0  0  0
  9  7  1  0  0  0  0
 10 11  1  0  0  0  0
 10  4  1  0  0  0  0
 12 10  1  0  0  0  0
 13 14  1  0  0  0  0
 13 15  1  0  0  0  0
 13  2  1  0  0  0  0
 16  4  1  0  0  0  0
 16 55  1  0  0  0  0
 17 16  1  0  0  0  0
 18 19  1  0  0  0  0
 18 43  1  0  0  0  0
 20 13  1  0  0  0  0
 21 20  1  0  0  0  0
 22 20  1  0  0  0  0
 23 39  1  0  0  0  0
 23 25  1  0  0  0  0
 24 23  1  0  0  0  0
 25 28  1  0  0  0  0
 25 26  1  0  0  0  0
 27 25  1  0  0  0  0
 29 30  1  0  0  0  0
 29 35  1  0  0  0  0
 31 32  1  0  0  0  0
 31 18  1  0  0  0  0
 33 31  1  0  0  0  0
 34 31  1  0  0  0  0
 35 36  1  0  0  0  0
 35 37  1  0  0  0  0
 38 35  1  0  0  0  0
 39 40  1  0  0  0  0
 39 42  1  0  0  0  0
 41 39  1  0  0  0  0
 43 46  1  0  0  0  0
 43 45  1  0  0  0  0
 44 43  1  0  0  0  0
 47 50  1  0  0  0  0
 47 29  1  0  0  0  0
 48 47  1  0  0  0  0
 49 47  1  0  0  0  0
 51 54  1  0  0  0  0
 51 16  1  0  0  0  0
 52 51  1  0  0  0  0
 53 51  1  0  0  0  0
 55 57  1  0  0  0  0
 55 56  1  0  0  0  0
 58 55  1  0  0  0  0
 60  1  1  0  0  0  0
M  END
$$$$
