CSD_code = GISLOJ | q = 0 | S = 0 | Stoichiometry = C12H14ITa | MND = 12
 OpenBabel04212202043D

 28 28  0  0  1  0  0  0  0  0999 V2000
    2.2164    4.2837    5.1650 Ta  0  0  0  0  0  0  0  0  0  0  0  0
    0.8783    6.6535    4.7212 I   0  0  0  0  0 15  0  0  0  0  0  0
    3.1503    3.2389    3.2697 C   0  0  1  0  0  0  0  0  0  0  0  0
    1.9827    3.3351    2.4011 C   0  0  0  0  0  0  0  0  0  0  0  0
    2.1070    4.4513    1.6270 C   0  0  0  0  0  0  0  0  0  0  0  0
    3.3693    5.0640    1.9025 C   0  0  0  0  0  0  0  0  0  0  0  0
    4.0200    4.3252    2.8451 C   0  0  0  0  0  0  0  0  0  0  0  0
    3.8530    3.7670    6.8709 C   0  0  2  0  0  0  0  0  0  0  0  0
    3.2993    4.9815    7.4108 C   0  0  0  0  0  0  0  0  0  0  0  0
    4.0612    6.0468    6.9258 C   0  0  0  0  0  0  0  0  0  0  0  0
    5.0855    5.5321    6.1155 C   0  0  0  0  0  0  0  0  0  0  0  0
    4.9853    4.1487    6.0972 C   0  0  0  0  0  0  0  0  0  0  0  0
    0.7951    2.9674    5.7679 C   0  0  0  0  0  3  0  0  0  0  0  0
   -0.4807    3.2582    6.4760 C   0  0  0  0  0  0  0  0  0  0  0  0
    3.5687    2.2644    3.5164 H   0  0  0  0  0  0  0  0  0  0  0  0
    1.1789    2.6155    2.3808 H   0  0  0  0  0  0  0  0  0  0  0  0
    1.3901    4.8221    0.9161 H   0  0  0  0  0  0  0  0  0  0  0  0
    3.7325    5.9574    1.4254 H   0  0  0  0  0  0  0  0  0  0  0  0
    5.0225    4.4855    3.2095 H   0  0  0  0  0  0  0  0  0  0  0  0
    3.7264    2.7933    7.3241 H   0  0  0  0  0  0  0  0  0  0  0  0
    2.5655    5.0302    8.2043 H   0  0  0  0  0  0  0  0  0  0  0  0
    3.8981    7.0894    7.1450 H   0  0  0  0  0  0  0  0  0  0  0  0
    5.8261    6.1203    5.6009 H   0  0  0  0  0  0  0  0  0  0  0  0
    5.6625    3.4625    5.6133 H   0  0  0  0  0  0  0  0  0  0  0  0
    0.8889    1.9009    5.5513 H   0  0  0  0  0  0  0  0  0  0  0  0
   -1.3357    3.0089    5.8410 H   0  0  0  0  0  0  0  0  0  0  0  0
   -0.5616    4.3094    6.7591 H   0  0  0  0  0  0  0  0  0  0  0  0
   -0.5711    2.6475    7.3777 H   0  0  0  0  0  0  0  0  0  0  0  0
  1 13  1  0  0  0  0
  1  8  1  0  0  0  0
  3 15  1  1  0  0  0
  3  1  1  0  0  0  0
  4  3  1  0  0  0  0
  5  6  1  0  0  0  0
  5  4  2  0  0  0  0
  6  7  2  0  0  0  0
  7 19  1  0  0  0  0
  7  3  1  0  0  0  0
  8 20  1  1  0  0  0
  8  9  1  0  0  0  0
  9 21  1  0  0  0  0
 10 22  1  0  0  0  0
 10  9  2  0  0  0  0
 11 10  1  0  0  0  0
 12 11  2  0  0  0  0
 12  8  1  0  0  0  0
 13 14  1  0  0  0  0
 14 27  1  0  0  0  0
 14 28  1  0  0  0  0
 16  4  1  0  0  0  0
 17  5  1  0  0  0  0
 18  6  1  0  0  0  0
 23 11  1  0  0  0  0
 24 12  1  0  0  0  0
 25 13  1  0  0  0  0
 26 14  1  0  0  0  0
M  END
$$$$
