CSD_code = GISRAD | q = 0 | S = 0 | Stoichiometry = C19H20Cl2N2O3PtS | MND = 4
 OpenBabel04212202043D

 48 50  0  0  1  0  0  0  0  0999 V2000
    1.6991    2.8849    3.4417 Pt  0  0  0  0  0  0  0  0  0  0  0  0
    0.9190    1.1578    2.1178 Cl  0  0  0  0  0  0  0  0  0  0  0  0
    2.4647    4.5924    4.7869 Cl  0  0  0  0  0  0  0  0  0  0  0  0
    0.1887    2.4132    5.0068 S   0  0  0  0  0  0  0  0  0  0  0  0
    3.9741    6.1899   -1.2739 C   0  0  0  0  0  0  0  0  0  0  0  0
    4.1378    6.2173   -2.6560 C   0  0  0  0  0  0  0  0  0  0  0  0
    4.8945    5.5933   -3.1073 H   0  0  0  0  0  0  0  0  0  0  0  0
    3.3271    7.0241   -3.4322 C   0  0  0  0  0  0  0  0  0  0  0  0
    3.4443    7.0312   -4.5054 H   0  0  0  0  0  0  0  0  0  0  0  0
    2.3731    7.8303   -2.8322 C   0  0  0  0  0  0  0  0  0  0  0  0
    1.7441    8.4643   -3.4390 H   0  0  0  0  0  0  0  0  0  0  0  0
    2.2328    7.8335   -1.4533 C   0  0  0  0  0  0  0  0  0  0  0  0
    1.5035    8.4774   -0.9855 H   0  0  0  0  0  0  0  0  0  0  0  0
    3.0249    7.0125   -0.6726 C   0  0  0  0  0  0  0  0  0  0  0  0
    2.9346    7.0279    0.4027 H   0  0  0  0  0  0  0  0  0  0  0  0
    4.8682    5.3495   -0.4518 C   0  0  0  0  0  0  0  0  0  0  0  0
    4.3109    4.5631    0.6335 C   0  0  0  0  0  0  0  0  0  0  0  0
    1.6742    4.4371    0.4766 C   0  0  0  0  0  0  0  0  0  0  0  0
    1.0394    3.5670    0.6515 H   0  0  0  0  0  0  0  0  0  0  0  0
    1.7349    4.6424   -0.5882 H   0  0  0  0  0  0  0  0  0  0  0  0
    1.2142    5.2910    0.9737 H   0  0  0  0  0  0  0  0  0  0  0  0
    3.0161    4.1707    1.0497 C   0  0  1  0  0  3  0  0  0  0  0  0
   -0.8837    3.3674    5.1688 O   0  0  0  0  0  1  0  0  0  0  0  0
    4.8493    2.5722    3.5938 C   0  0  0  0  0  0  0  0  0  0  0  0
    4.2396    1.3544    3.8873 C   0  0  0  0  0  0  0  0  0  0  0  0
    3.5435    0.9076    3.1877 H   0  0  0  0  0  0  0  0  0  0  0  0
    4.5949    0.6893    5.0488 C   0  0  0  0  0  0  0  0  0  0  0  0
    4.1327   -0.2583    5.2819 H   0  0  0  0  0  0  0  0  0  0  0  0
    5.5485    1.2257    5.8988 C   0  0  0  0  0  0  0  0  0  0  0  0
    5.8158    0.7053    6.8061 H   0  0  0  0  0  0  0  0  0  0  0  0
    6.1669    2.4234    5.5815 C   0  0  0  0  0  0  0  0  0  0  0  0
    6.9141    2.8377    6.2405 H   0  0  0  0  0  0  0  0  0  0  0  0
    5.8199    3.1054    4.4289 C   0  0  0  0  0  0  0  0  0  0  0  0
    6.2814    4.0482    4.1849 H   0  0  0  0  0  0  0  0  0  0  0  0
    5.1847    3.9559    1.5546 C   0  0  0  0  0  0  0  0  0  0  0  0
    6.5001    3.9901    1.5603 O   0  0  0  0  0  0  0  0  0  0  0  0
    6.7511    4.4871    0.7292 H   0  0  0  0  0  0  0  0  0  0  0  0
    6.0839    5.3174   -0.6499 O   0  0  0  0  0  0  0  0  0  0  0  0
    1.0254    2.2234    6.6092 C   0  0  0  0  0  0  0  0  0  0  0  0
    1.4812    3.1764    6.8572 H   0  0  0  0  0  0  0  0  0  0  0  0
    1.7904    1.4622    6.4996 H   0  0  0  0  0  0  0  0  0  0  0  0
    0.2920    1.9496    7.3587 H   0  0  0  0  0  0  0  0  0  0  0  0
   -0.5736    0.7643    4.9230 C   0  0  0  0  0  0  0  0  0  0  0  0
   -1.2236    0.6521    5.7831 H   0  0  0  0  0  0  0  0  0  0  0  0
    0.2131    0.0193    4.9113 H   0  0  0  0  0  0  0  0  0  0  0  0
   -1.1501    0.7055    4.0063 H   0  0  0  0  0  0  0  0  0  0  0  0
    4.4438    3.2810    2.4429 N   0  0  0  0  0  0  0  0  0  0  0  0
    3.1296    3.4047    2.1204 N   0  0  0  0  0  0  0  0  0  0  0  0
  1  3  1  0  0  0  0
  1  4  1  0  0  0  0
  2  1  1  0  0  0  0
  4 23  1  0  0  0  0
  4 39  1  0  0  0  0
  5 14  1  0  0  0  0
  5 16  1  0  0  0  0
  6  5  2  0  0  0  0
  7  6  1  0  0  0  0
  8 10  2  0  0  0  0
  8  6  1  0  0  0  0
  9  8  1  0  0  0  0
 10 12  1  0  0  0  0
 11 10  1  0  0  0  0
 12 13  1  0  0  0  0
 12 14  2  0  0  0  0
 14 15  1  0  0  0  0
 16 17  1  0  0  0  0
 17 22  1  0  0  0  0
 17 35  2  0  0  0  0
 18 19  1  0  0  0  0
 18 21  1  0  0  0  0
 20 18  1  0  0  0  0
 22 18  1  6  0  0  0
 22 48  1  0  0  0  0
 24 25  2  0  0  0  0
 24 33  1  0  0  0  0
 25 27  1  0  0  0  0
 26 25  1  0  0  0  0
 27 28  1  0  0  0  0
 27 29  2  0  0  0  0
 29 30  1  0  0  0  0
 31 29  1  0  0  0  0
 31 32  1  0  0  0  0
 33 31  2  0  0  0  0
 34 33  1  0  0  0  0
 35 36  1  0  0  0  0
 35 47  1  0  0  0  0
 37 36  1  0  0  0  0
 38 16  2  0  0  0  0
 39 40  1  0  0  0  0
 39 42  1  0  0  0  0
 41 39  1  0  0  0  0
 43  4  1  0  0  0  0
 43 44  1  0  0  0  0
 45 43  1  0  0  0  0
 46 43  1  0  0  0  0
 47 24  1  0  0  0  0
 48 47  1  0  0  0  0
 48  1  1  0  0  0  0
M  END
$$$$
