CSD_code = GISROR | q = 0 | S = 0 | Stoichiometry = C19H20Cl2N2O3PtS | MND = 4
 OpenBabel04212202043D

 48 50  0  0  1  0  0  0  0  0999 V2000
   13.1242    8.7026    9.1269 Pt  0  0  0  0  0  0  0  0  0  0  0  0
   11.1752    9.8132    8.7665 Cl  0  0  0  0  0  0  0  0  0  0  0  0
   13.6135    8.5831    6.9320 Cl  0  0  0  0  0  0  0  0  0  0  0  0
   15.1088    7.6214    9.4480 S   0  0  0  0  0  0  0  0  0  0  0  0
   12.7579    8.7549   11.1366 N   0  0  0  0  0  0  0  0  0  0  0  0
   12.6266    7.6085   11.8494 N   0  0  0  0  0  0  0  0  0  0  0  0
   12.6625    7.8909   13.1584 C   0  0  1  0  0  3  0  0  0  0  0  0
   12.7610    9.2877   13.2948 C   0  0  0  0  0  0  0  0  0  0  0  0
   12.8447    9.7736   11.9672 C   0  0  0  0  0  0  0  0  0  0  0  0
   15.4339    7.3296   10.8408 O   0  0  0  0  0  1  0  0  0  0  0  0
   12.5837    6.9933   14.1172 O   0  0  0  0  0  0  0  0  0  0  0  0
   12.8995    9.1229   15.5999 O   0  0  0  0  0  0  0  0  0  0  0  0
   13.0533   11.1429   11.4387 C   0  0  0  0  0  0  0  0  0  0  0  0
   13.5482   11.0741   10.4665 H   0  0  0  0  0  0  0  0  0  0  0  0
   13.6488   11.7407   12.1228 H   0  0  0  0  0  0  0  0  0  0  0  0
   12.0961   11.6364   11.2788 H   0  0  0  0  0  0  0  0  0  0  0  0
   12.8007    9.8672   14.6225 C   0  0  0  0  0  0  0  0  0  0  0  0
   12.6941   11.3337   14.7766 C   0  0  0  0  0  0  0  0  0  0  0  0
   13.5466   11.9949   15.6559 C   0  0  0  0  0  0  0  0  0  0  0  0
   14.2975   11.4281   16.1858 H   0  0  0  0  0  0  0  0  0  0  0  0
   13.4355   13.3617   15.8306 C   0  0  0  0  0  0  0  0  0  0  0  0
   14.1081   13.8744   16.5017 H   0  0  0  0  0  0  0  0  0  0  0  0
   12.4551   14.0698   15.1543 C   0  0  0  0  0  0  0  0  0  0  0  0
   12.3648   15.1363   15.2966 H   0  0  0  0  0  0  0  0  0  0  0  0
   11.5817   13.4090   14.3051 C   0  0  0  0  0  0  0  0  0  0  0  0
   10.8051   13.9578   13.7940 H   0  0  0  0  0  0  0  0  0  0  0  0
   11.7008   12.0457   14.1095 C   0  0  0  0  0  0  0  0  0  0  0  0
   11.0077   11.5240   13.4672 H   0  0  0  0  0  0  0  0  0  0  0  0
   12.5185    6.3606   11.2052 C   0  0  0  0  0  0  0  0  0  0  0  0
   11.7182    6.2552   10.0688 C   0  0  0  0  0  0  0  0  0  0  0  0
   11.1063    7.0893    9.7443 H   0  0  0  0  0  0  0  0  0  0  0  0
   11.6520    5.0426    9.4018 C   0  0  0  0  0  0  0  0  0  0  0  0
   11.0371    4.9556    8.5200 H   0  0  0  0  0  0  0  0  0  0  0  0
   12.3632    3.9489    9.8694 C   0  0  0  0  0  0  0  0  0  0  0  0
   12.3104    3.0072    9.3442 H   0  0  0  0  0  0  0  0  0  0  0  0
   13.1319    4.0583   11.0180 C   0  0  0  0  0  0  0  0  0  0  0  0
   13.6760    3.2028   11.3881 H   0  0  0  0  0  0  0  0  0  0  0  0
   13.2177    5.2644   11.6909 C   0  0  0  0  0  0  0  0  0  0  0  0
   13.8289    5.3653   12.5721 H   0  0  0  0  0  0  0  0  0  0  0  0
   15.2934    6.0797    8.5034 C   0  0  0  0  0  0  0  0  0  0  0  0
   14.5670    5.3673    8.8794 H   0  0  0  0  0  0  0  0  0  0  0  0
   16.2987    5.7011    8.6437 H   0  0  0  0  0  0  0  0  0  0  0  0
   15.0908    6.3177    7.4656 H   0  0  0  0  0  0  0  0  0  0  0  0
   16.5165    8.5273    8.7380 C   0  0  0  0  0  0  0  0  0  0  0  0
   16.6121    9.4663    9.2731 H   0  0  0  0  0  0  0  0  0  0  0  0
   16.2865    8.7072    7.6939 H   0  0  0  0  0  0  0  0  0  0  0  0
   17.4165    7.9360    8.8581 H   0  0  0  0  0  0  0  0  0  0  0  0
   12.6785    7.5125   14.9668 H   0  0  0  0  0  0  0  0  0  0  0  0
  1  4  1  0  0  0  0
  1  5  1  0  0  0  0
  2  1  1  0  0  0  0
  3  1  1  0  0  0  0
  4 10  1  0  0  0  0
  5  6  1  0  0  0  0
  5  9  1  0  0  0  0
  6  7  1  0  0  0  0
  7  8  1  0  0  0  0
  7 11  1  1  0  0  0
  8 17  1  0  0  0  0
  9  8  2  0  0  0  0
 11 48  1  0  0  0  0
 13  9  1  0  0  0  0
 13 15  1  0  0  0  0
 14 13  1  0  0  0  0
 16 13  1  0  0  0  0
 17 18  1  0  0  0  0
 17 12  2  0  0  0  0
 18 19  1  0  0  0  0
 19 21  2  0  0  0  0
 19 20  1  0  0  0  0
 21 22  1  0  0  0  0
 23 24  1  0  0  0  0
 23 21  1  0  0  0  0
 25 23  2  0  0  0  0
 26 25  1  0  0  0  0
 27 25  1  0  0  0  0
 27 18  2  0  0  0  0
 28 27  1  0  0  0  0
 29 38  1  0  0  0  0
 29  6  1  0  0  0  0
 30 29  2  0  0  0  0
 31 30  1  0  0  0  0
 32 34  2  0  0  0  0
 32 30  1  0  0  0  0
 33 32  1  0  0  0  0
 34 36  1  0  0  0  0
 35 34  1  0  0  0  0
 36 37  1  0  0  0  0
 36 38  2  0  0  0  0
 38 39  1  0  0  0  0
 40 42  1  0  0  0  0
 40 41  1  0  0  0  0
 40  4  1  0  0  0  0
 43 40  1  0  0  0  0
 44 47  1  0  0  0  0
 44 45  1  0  0  0  0
 44  4  1  0  0  0  0
 46 44  1  0  0  0  0
M  END
$$$$
