CSD_code = GITMIF | q = 0 | S = 0 | Stoichiometry = C29H36ClOsP | MND = 8
 OpenBabel04212202043D

 68 68  0  0  1  0  0  0  0  0999 V2000
    2.3327    2.9374    5.0122 Os  0  0  0  0  0  0  0  0  0  0  0  0
    3.6668    1.0644    5.3666 Cl  0  0  0  0  0 15  0  0  0  0  0  0
    4.2665    4.2482    4.9246 P   0  0  0  0  0  0  0  0  0  0  0  0
    0.6557    1.5762    4.2540 C   0  0  0  0  0  3  0  0  0  0  0  0
    1.4353    1.8031    3.0831 C   0  0  0  0  0  0  0  0  0  0  0  0
    1.4013    3.1629    2.7907 C   0  0  0  0  0  0  0  0  0  0  0  0
    0.6112    3.8152    3.7916 C   0  0  0  0  0  3  0  0  0  0  0  0
    0.0968    2.8063    4.6530 C   0  0  2  0  0  0  0  0  0  0  0  0
    5.1314    4.4537    6.5776 C   0  0  0  0  0  0  0  0  0  0  0  0
    5.4687    3.0949    7.1844 C   0  0  0  0  0  0  0  0  0  0  0  0
    6.3730    5.3424    6.5961 C   0  0  0  0  0  0  0  0  0  0  0  0
    3.9807    6.0362    4.4475 C   0  0  0  0  0  0  0  0  0  0  0  0
    3.1051    6.7098    5.5007 C   0  0  0  0  0  0  0  0  0  0  0  0
    3.3190    6.1487    3.0782 C   0  0  0  0  0  0  0  0  0  0  0  0
    5.6287    3.6363    3.7857 C   0  0  0  0  0  0  0  0  0  0  0  0
    5.0549    2.7847    2.6556 C   0  0  0  0  0  0  0  0  0  0  0  0
    6.5576    4.7055    3.2134 C   0  0  0  0  0  0  0  0  0  0  0  0
    2.0961    3.5572    6.8088 C   0  0  0  0  0  0  0  0  0  0  0  0
    1.7206    3.9863    7.9125 C   0  0  0  0  0  0  0  0  0  0  0  0
    1.3431    4.5126    9.1065 C   0  0  0  0  0  3  0  0  0  0  0  0
    2.3607    5.0731    9.9852 C   0  0  0  0  0  0  0  0  0  0  0  0
    2.1032    6.1970   10.7750 C   0  0  0  0  0  0  0  0  0  0  0  0
    3.0965    6.7353   11.5696 C   0  0  0  0  0  0  0  0  0  0  0  0
    4.3600    6.1660   11.5948 C   0  0  0  0  0  0  0  0  0  0  0  0
    4.6277    5.0542   10.8108 C   0  0  0  0  0  0  0  0  0  0  0  0
    3.6416    4.5141   10.0108 C   0  0  0  0  0  0  0  0  0  0  0  0
   -0.0633    4.5274    9.4714 C   0  0  0  0  0  0  0  0  0  0  0  0
   -1.0456    4.5289    8.4748 C   0  0  0  0  0  0  0  0  0  0  0  0
   -2.3847    4.5271    8.8046 C   0  0  0  0  0  0  0  0  0  0  0  0
   -2.7753    4.5150   10.1353 C   0  0  0  0  0  0  0  0  0  0  0  0
   -1.8131    4.4972   11.1326 C   0  0  0  0  0  0  0  0  0  0  0  0
   -0.4707    4.5034   10.8090 C   0  0  0  0  0  0  0  0  0  0  0  0
    0.3990    0.6056    4.6527 H   0  0  0  0  0  0  0  0  0  0  0  0
    1.9005    1.0343    2.4856 H   0  0  0  0  0  0  0  0  0  0  0  0
    1.8126    3.6341    1.9112 H   0  0  0  0  0  0  0  0  0  0  0  0
    0.2363    4.8284    3.7334 H   0  0  0  0  0  0  0  0  0  0  0  0
   -0.6531    2.9456    5.4178 H   0  0  0  0  0  0  0  0  0  0  0  0
    4.3572    4.9116    7.2049 H   0  0  0  0  0  0  0  0  0  0  0  0
    5.9213    3.2337    8.1644 H   0  0  0  0  0  0  0  0  0  0  0  0
    6.1703    2.5421    6.5646 H   0  0  0  0  0  0  0  0  0  0  0  0
    4.5668    2.4968    7.2916 H   0  0  0  0  0  0  0  0  0  0  0  0
    6.6626    5.5118    7.6322 H   0  0  0  0  0  0  0  0  0  0  0  0
    6.1973    6.3142    6.1430 H   0  0  0  0  0  0  0  0  0  0  0  0
    7.2070    4.8564    6.0967 H   0  0  0  0  0  0  0  0  0  0  0  0
    4.9549    6.5310    4.4047 H   0  0  0  0  0  0  0  0  0  0  0  0
    2.7496    7.6707    5.1324 H   0  0  0  0  0  0  0  0  0  0  0  0
    3.6485    6.8821    6.4253 H   0  0  0  0  0  0  0  0  0  0  0  0
    2.2432    6.0788    5.7245 H   0  0  0  0  0  0  0  0  0  0  0  0
    3.2764    7.1924    2.7683 H   0  0  0  0  0  0  0  0  0  0  0  0
    2.3034    5.7678    3.1249 H   0  0  0  0  0  0  0  0  0  0  0  0
    3.8643    5.5930    2.3196 H   0  0  0  0  0  0  0  0  0  0  0  0
    6.2101    2.9680    4.4324 H   0  0  0  0  0  0  0  0  0  0  0  0
    5.8642    2.3593    2.0640 H   0  0  0  0  0  0  0  0  0  0  0  0
    4.4256    3.3742    1.9920 H   0  0  0  0  0  0  0  0  0  0  0  0
    4.4725    1.9636    3.0663 H   0  0  0  0  0  0  0  0  0  0  0  0
    7.3889    4.2139    2.7091 H   0  0  0  0  0  0  0  0  0  0  0  0
    6.9686    5.3521    3.9812 H   0  0  0  0  0  0  0  0  0  0  0  0
    6.0462    5.3228    2.4793 H   0  0  0  0  0  0  0  0  0  0  0  0
    1.1282    6.6618   10.7411 H   0  0  0  0  0  0  0  0  0  0  0  0
    2.8863    7.6074   12.1721 H   0  0  0  0  0  0  0  0  0  0  0  0
    5.1318    6.5880   12.2214 H   0  0  0  0  0  0  0  0  0  0  0  0
    5.6104    4.6051   10.8303 H   0  0  0  0  0  0  0  0  0  0  0  0
    3.8350    3.6393    9.4098 H   0  0  0  0  0  0  0  0  0  0  0  0
   -0.7308    4.5481    7.4414 H   0  0  0  0  0  0  0  0  0  0  0  0
   -3.1322    4.5369    8.0243 H   0  0  0  0  0  0  0  0  0  0  0  0
   -3.8240    4.5140   10.3931 H   0  0  0  0  0  0  0  0  0  0  0  0
   -2.1135    4.4732   12.1703 H   0  0  0  0  0  0  0  0  0  0  0  0
    0.2725    4.4610   11.5921 H   0  0  0  0  0  0  0  0  0  0  0  0
  1 18  1  0  0  0  0
  3  9  1  0  0  0  0
  4 33  1  0  0  0  0
  4  8  1  0  0  0  0
  5  4  1  0  0  0  0
  6  5  2  0  0  0  0
  6  7  1  0  0  0  0
  7  8  1  0  0  0  0
  8  1  1  0  0  0  0
  8 37  1  1  0  0  0
  9 11  1  0  0  0  0
  9 10  1  0  0  0  0
  9 38  1  0  0  0  0
 10 41  1  0  0  0  0
 10 39  1  0  0  0  0
 11 42  1  0  0  0  0
 12  3  1  0  0  0  0
 12 13  1  0  0  0  0
 13 48  1  0  0  0  0
 13 47  1  0  0  0  0
 14 50  1  0  0  0  0
 14 12  1  0  0  0  0
 15 52  1  0  0  0  0
 15  3  1  0  0  0  0
 16 55  1  0  0  0  0
 16 15  1  0  0  0  0
 17 15  1  0  0  0  0
 17 57  1  0  0  0  0
 18 19  3  0  0  0  0
 19 20  1  0  0  0  0
 20 27  1  0  0  0  0
 20 21  1  0  0  0  0
 21 26  2  0  0  0  0
 21 22  1  0  0  0  0
 22 23  2  0  0  0  0
 23 24  1  0  0  0  0
 23 60  1  0  0  0  0
 24 61  1  0  0  0  0
 25 62  1  0  0  0  0
 25 24  2  0  0  0  0
 26 25  1  0  0  0  0
 27 32  1  0  0  0  0
 28 29  1  0  0  0  0
 28 27  2  0  0  0  0
 29 30  2  0  0  0  0
 30 66  1  0  0  0  0
 30 31  1  0  0  0  0
 31 67  1  0  0  0  0
 32 31  2  0  0  0  0
 32 68  1  0  0  0  0
 34  5  1  0  0  0  0
 35  6  1  0  0  0  0
 36  7  1  0  0  0  0
 40 10  1  0  0  0  0
 43 11  1  0  0  0  0
 44 11  1  0  0  0  0
 45 12  1  0  0  0  0
 46 13  1  0  0  0  0
 49 14  1  0  0  0  0
 51 14  1  0  0  0  0
 53 16  1  0  0  0  0
 54 16  1  0  0  0  0
 56 17  1  0  0  0  0
 58 17  1  0  0  0  0
 59 22  1  0  0  0  0
 63 26  1  0  0  0  0
 64 28  1  0  0  0  0
 65 29  1  0  0  0  0
M  END
$$$$
