CSD_code = GITZUH | q = 0 | S = 0 | Stoichiometry = C22H14Br2F4HgN6O2 | MND = 4
 OpenBabel04212202043D

 51 52  0  0  0  0  0  0  0  0999 V2000
    9.5563    3.6387    2.7046 C   0  0  0  0  0  0  0  0  0  0  0  0
   10.0234    3.7724    1.7397 H   0  0  0  0  0  0  0  0  0  0  0  0
    9.4664    2.3863    3.3055 C   0  0  0  0  0  0  0  0  0  0  0  0
    9.9154    1.5095    2.8608 H   0  0  0  0  0  0  0  0  0  0  0  0
    8.3119    3.3062    5.0272 C   0  0  0  0  0  0  0  0  0  0  0  0
    7.7315    3.1859    5.9323 H   0  0  0  0  0  0  0  0  0  0  0  0
    8.5131    4.5709    4.4780 C   0  0  0  0  0  0  0  0  0  0  0  0
    8.1299    5.7877    5.2589 C   0  0  0  0  0  0  0  0  0  0  0  0
    7.9206    8.2120    4.9336 C   0  0  0  0  0  0  0  0  0  0  0  0
    6.8636    8.5318    5.7901 C   0  0  0  0  0  0  0  0  0  0  0  0
    6.6089    9.8356    6.1785 C   0  0  0  0  0  0  0  0  0  0  0  0
    5.7862   10.0213    6.8497 H   0  0  0  0  0  0  0  0  0  0  0  0
    7.3860   10.8667    5.6848 C   0  0  0  0  0  0  0  0  0  0  0  0
    7.1783   11.8838    5.9745 H   0  0  0  0  0  0  0  0  0  0  0  0
    8.4186   10.5959    4.8021 C   0  0  0  0  0  0  0  0  0  0  0  0
    9.0284   11.3798    4.3844 H   0  0  0  0  0  0  0  0  0  0  0  0
    8.6724    9.2867    4.4520 C   0  0  0  0  0  0  0  0  0  0  0  0
    9.1034    4.7255    3.2983 N   0  0  0  0  0  0  0  0  0  0  0  0
    8.8205    2.2191    4.4567 N   0  0  0  0  0  0  0  0  0  0  0  0
    8.2096    6.9175    4.5109 N   0  0  0  0  0  0  0  0  0  0  0  0
    8.7260    6.8141    3.6415 H   0  0  0  0  0  0  0  0  0  0  0  0
    7.8429    5.7257    6.4348 O   0  0  0  0  0  0  0  0  0  0  0  0
    9.3286    0.2443    6.0872 Hg  0  0  0  0  0  0  0  0  0  0  0  0
    7.1016   -0.0077    7.0495 Br  0  0  0  0  0  0  0  0  0  0  0  0
    6.0284    7.5732    6.2065 F   0  0  0  0  0  0  0  0  0  0  0  0
    9.6800    9.0160    3.5964 F   0  0  0  0  0  0  0  0  0  0  0  0
    9.1360    3.6273    9.4791 C   0  0  0  0  0  0  0  0  0  0  0  0
    8.6698    3.7628   10.4442 H   0  0  0  0  0  0  0  0  0  0  0  0
    9.2212    2.3746    8.8783 C   0  0  0  0  0  0  0  0  0  0  0  0
    8.7691    1.4996    9.3233 H   0  0  0  0  0  0  0  0  0  0  0  0
   10.3790    3.2901    7.1565 C   0  0  0  0  0  0  0  0  0  0  0  0
   10.9592    3.1675    6.2516 H   0  0  0  0  0  0  0  0  0  0  0  0
   10.1816    4.5558    7.7050 C   0  0  0  0  0  0  0  0  0  0  0  0
   10.5663    5.7713    6.9228 C   0  0  0  0  0  0  0  0  0  0  0  0
   10.7644    8.1971    7.2403 C   0  0  0  0  0  0  0  0  0  0  0  0
   11.8225    8.5192    6.3861 C   0  0  0  0  0  0  0  0  0  0  0  0
   12.0709    9.8226    5.9925 C   0  0  0  0  0  0  0  0  0  0  0  0
   12.8950   10.0101    5.3235 H   0  0  0  0  0  0  0  0  0  0  0  0
   11.2859   10.8513    6.4785 C   0  0  0  0  0  0  0  0  0  0  0  0
   11.4886   11.8683    6.1847 H   0  0  0  0  0  0  0  0  0  0  0  0
   10.2518   10.5786    7.3589 C   0  0  0  0  0  0  0  0  0  0  0  0
    9.6359   11.3608    7.7706 H   0  0  0  0  0  0  0  0  0  0  0  0
   10.0045    9.2696    7.7142 C   0  0  0  0  0  0  0  0  0  0  0  0
    9.5914    4.7126    8.8845 N   0  0  0  0  0  0  0  0  0  0  0  0
    9.8659    2.2050    7.7268 N   0  0  0  0  0  0  0  0  0  0  0  0
   10.4812    6.9028    7.6674 N   0  0  0  0  0  0  0  0  0  0  0  0
    9.9610    6.8003    8.5347 H   0  0  0  0  0  0  0  0  0  0  0  0
   10.8586    5.7066    5.7482 O   0  0  0  0  0  0  0  0  0  0  0  0
   11.5489   -0.0451    5.1214 Br  0  0  0  0  0  0  0  0  0  0  0  0
   12.6649    7.5635    5.9773 F   0  0  0  0  0  0  0  0  0  0  0  0
    8.9957    8.9973    8.5679 F   0  0  0  0  0  0  0  0  0  0  0  0
  1 18  2  0  0  0  0
  1  3  1  0  0  0  0
  2  1  1  0  0  0  0
  3 19  2  0  0  0  0
  4  3  1  0  0  0  0
  5  6  1  0  0  0  0
  7  5  2  0  0  0  0
  7  8  1  0  0  0  0
  8 22  2  0  0  0  0
  9 10  1  0  0  0  0
 10 11  2  0  0  0  0
 10 25  1  0  0  0  0
 11 12  1  0  0  0  0
 13 14  1  0  0  0  0
 13 11  1  0  0  0  0
 15 13  2  0  0  0  0
 16 15  1  0  0  0  0
 17 15  1  0  0  0  0
 17  9  2  0  0  0  0
 18  7  1  0  0  0  0
 19  5  1  0  0  0  0
 20  9  1  0  0  0  0
 20  8  1  0  0  0  0
 21 20  1  0  0  0  0
 23 24  1  0  0  0  0
 26 17  1  0  0  0  0
 27 28  1  0  0  0  0
 29 30  1  0  0  0  0
 29 27  2  0  0  0  0
 31 33  1  0  0  0  0
 31 45  2  0  0  0  0
 32 31  1  0  0  0  0
 33 44  2  0  0  0  0
 34 46  1  0  0  0  0
 34 33  1  0  0  0  0
 35 46  1  0  0  0  0
 35 43  1  0  0  0  0
 36 35  2  0  0  0  0
 37 36  1  0  0  0  0
 37 39  2  0  0  0  0
 38 37  1  0  0  0  0
 39 41  1  0  0  0  0
 40 39  1  0  0  0  0
 41 43  2  0  0  0  0
 41 42  1  0  0  0  0
 43 51  1  0  0  0  0
 44 27  1  0  0  0  0
 45 29  1  0  0  0  0
 46 47  1  0  0  0  0
 48 34  2  0  0  0  0
 49 23  1  0  0  0  0
 50 36  1  0  0  0  0
M  END
$$$$
