CSD_code = GIVCEV | q = 0 | S = 0 | Stoichiometry = C24H30BClO2Zr | MND = 12
 OpenBabel04212202043D

 59 61  0  0  1  0  0  0  0  0999 V2000
    9.1571    4.2926    3.8762 Zr  0  0  0  0  0  0  0  0  0  0  0  0
   10.0921    4.0258    1.7010 Cl  0  0  0  0  0  0  0  0  0  0  0  0
    7.7114    6.6944    4.4332 B   0  0  0  0  0  0  0  0  0  0  0  0
    7.4174    5.6884    5.3623 O   0  0  0  0  0  0  0  0  0  0  0  0
    7.3974    7.9173    4.9146 O   0  0  0  0  0  0  0  0  0  0  0  0
    8.3725    6.2172    3.1010 C   0  0  2  0  0  0  0  0  0  0  0  0
    9.1004    6.9469    2.7103 H   0  0  0  0  0  0  0  0  0  0  0  0
    7.3455    5.9460    1.9691 C   0  0  0  0  0  0  0  0  0  0  0  0
    7.8731    5.5773    1.0815 H   0  0  0  0  0  0  0  0  0  0  0  0
    6.6047    5.2001    2.2838 H   0  0  0  0  0  0  0  0  0  0  0  0
    6.6283    7.2307    1.6427 C   0  0  0  0  0  0  0  0  0  0  0  0
    5.4145    7.5353    2.2461 C   0  0  0  0  0  0  0  0  0  0  0  0
    4.9498    6.8067    2.8979 H   0  0  0  0  0  0  0  0  0  0  0  0
    4.7927    8.7490    2.0170 C   0  0  0  0  0  0  0  0  0  0  0  0
    3.8471    8.9710    2.4919 H   0  0  0  0  0  0  0  0  0  0  0  0
    5.3784    9.6790    1.1754 C   0  0  0  0  0  0  0  0  0  0  0  0
    4.8944   10.6277    0.9951 H   0  0  0  0  0  0  0  0  0  0  0  0
    6.5850    9.3845    0.5636 C   0  0  0  0  0  0  0  0  0  0  0  0
    7.0437   10.1048   -0.0983 H   0  0  0  0  0  0  0  0  0  0  0  0
    7.2049    8.1705    0.7972 C   0  0  0  0  0  0  0  0  0  0  0  0
    8.1468    7.9429    0.3189 H   0  0  0  0  0  0  0  0  0  0  0  0
    6.6599    6.2672    6.4441 C   0  0  0  0  0  0  0  0  0  0  0  0
    6.8470    7.8213    6.2301 C   0  0  0  0  0  0  0  0  0  0  0  0
    7.1905    5.7446    7.7780 C   0  0  0  0  0  0  0  0  0  0  0  0
    7.0201    4.6718    7.8339 H   0  0  0  0  0  0  0  0  0  0  0  0
    6.6648    6.2190    8.6018 H   0  0  0  0  0  0  0  0  0  0  0  0
    8.2554    5.9266    7.8808 H   0  0  0  0  0  0  0  0  0  0  0  0
    5.2090    5.8016    6.2712 C   0  0  0  0  0  0  0  0  0  0  0  0
    4.8277    6.1021    5.2990 H   0  0  0  0  0  0  0  0  0  0  0  0
    4.5707    6.2053    7.0506 H   0  0  0  0  0  0  0  0  0  0  0  0
    5.1807    4.7153    6.3249 H   0  0  0  0  0  0  0  0  0  0  0  0
    7.8500    8.4649    7.1937 C   0  0  0  0  0  0  0  0  0  0  0  0
    8.8057    7.9493    7.1700 H   0  0  0  0  0  0  0  0  0  0  0  0
    7.4670    8.4697    8.2095 H   0  0  0  0  0  0  0  0  0  0  0  0
    8.0180    9.4907    6.8754 H   0  0  0  0  0  0  0  0  0  0  0  0
    5.5511    8.6319    6.2626 C   0  0  0  0  0  0  0  0  0  0  0  0
    5.7934    9.6771    6.0897 H   0  0  0  0  0  0  0  0  0  0  0  0
    5.0642    8.5384    7.2291 H   0  0  0  0  0  0  0  0  0  0  0  0
    4.8728    8.3171    5.4767 H   0  0  0  0  0  0  0  0  0  0  0  0
   11.3008    5.5831    4.3327 C   0  0  0  0  0  0  0  0  0  0  0  0
   11.6460    6.3926    3.7011 H   0  0  0  0  0  0  0  0  0  0  0  0
   10.4646    5.7116    5.4647 C   0  0  0  0  0  3  0  0  0  0  0  0
   10.0994    6.6504    5.8613 H   0  0  0  0  0  0  0  0  0  0  0  0
   10.3514    4.4401    6.0714 C   0  0  0  0  0  0  0  0  0  0  0  0
    9.8849    4.2243    7.0252 H   0  0  0  0  0  0  0  0  0  0  0  0
   11.1336    3.5334    5.3177 C   0  0  0  0  0  0  0  0  0  0  0  0
   11.3792    2.5172    5.6010 H   0  0  0  0  0  0  0  0  0  0  0  0
   11.7210    4.2417    4.2541 C   0  0  0  0  0  0  0  0  0  0  0  0
   12.4331    3.8438    3.5432 H   0  0  0  0  0  0  0  0  0  0  0  0
    6.9416    3.1517    4.0144 C   0  0  0  0  0  3  0  0  0  0  0  0
    5.9939    3.6760    3.9885 H   0  0  0  0  0  0  0  0  0  0  0  0
    7.6019    2.7088    5.1826 C   0  0  0  0  0  0  0  0  0  0  0  0
    7.2596    2.8562    6.1983 H   0  0  0  0  0  0  0  0  0  0  0  0
    8.6691    1.8775    4.7925 C   0  0  0  0  0  0  0  0  0  0  0  0
    9.2725    1.2765    5.4606 H   0  0  0  0  0  0  0  0  0  0  0  0
    8.6850    1.8143    3.3875 C   0  0  0  0  0  3  0  0  0  0  0  0
    9.3400    1.1994    2.7825 H   0  0  0  0  0  0  0  0  0  0  0  0
    7.6144    2.5961    2.9010 C   0  0  2  0  0  0  0  0  0  0  0  0
    7.3037    2.6603    1.8643 H   0  0  0  0  0  0  0  0  0  0  0  0
  2  1  1  0  0  0  0
  3  5  1  0  0  0  0
  3  4  1  0  0  0  0
  4 22  1  0  0  0  0
  5 23  1  0  0  0  0
  6  7  1  6  0  0  0
  6  1  1  0  0  0  0
  6  3  1  0  0  0  0
  8 10  1  0  0  0  0
  8  6  1  0  0  0  0
  9  8  1  0  0  0  0
 11  8  1  0  0  0  0
 11 12  1  0  0  0  0
 12 13  1  0  0  0  0
 14 12  2  0  0  0  0
 14 15  1  0  0  0  0
 16 14  1  0  0  0  0
 17 16  1  0  0  0  0
 18 20  1  0  0  0  0
 18 16  2  0  0  0  0
 19 18  1  0  0  0  0
 20 11  2  0  0  0  0
 21 20  1  0  0  0  0
 22 24  1  0  0  0  0
 23 36  1  0  0  0  0
 23 22  1  0  0  0  0
 23 32  1  0  0  0  0
 24 25  1  0  0  0  0
 24 27  1  0  0  0  0
 24 26  1  0  0  0  0
 28 31  1  0  0  0  0
 28 22  1  0  0  0  0
 28 30  1  0  0  0  0
 29 28  1  0  0  0  0
 32 34  1  0  0  0  0
 33 32  1  0  0  0  0
 35 32  1  0  0  0  0
 36 38  1  0  0  0  0
 37 36  1  0  0  0  0
 39 36  1  0  0  0  0
 40 42  1  0  0  0  0
 41 40  1  0  0  0  0
 42 43  1  0  0  0  0
 42 44  1  0  0  0  0
 44 45  1  0  0  0  0
 46 47  1  0  0  0  0
 46 44  2  0  0  0  0
 48 40  2  0  0  0  0
 48 46  1  0  0  0  0
 49 48  1  0  0  0  0
 50 52  1  0  0  0  0
 51 50  1  0  0  0  0
 52 53  1  0  0  0  0
 54 52  2  0  0  0  0
 54 55  1  0  0  0  0
 56 54  1  0  0  0  0
 57 56  1  0  0  0  0
 58 59  1  6  0  0  0
 58 56  1  0  0  0  0
 58  1  1  0  0  0  0
 58 50  1  0  0  0  0
M  END
$$$$
