CSD_code = GIVQAD | q = 0 | S = 0 | Stoichiometry = C15H10I2N2O3S2W | MND = 7
 OpenBabel04212202043D

 35 36  0  0  0  0  0  0  0  0999 V2000
    3.8845    8.4740    3.7610 W   0  0  0  0  0  0  0  0  0  0  0  0
    1.0880    8.7973    3.4004 I   0  0  0  0  0 15  0  0  0  0  0  0
    6.3741    8.6176    5.1058 I   0  0  0  0  0  0  0  0  0  0  0  0
    3.2252    7.3885    5.4252 N   0  0  0  0  0  2  0  0  0  0  0  0
    2.9110    6.7539    6.3357 C   0  0  0  0  0  2  0  0  0  0  0  0
    2.4801    5.9603    7.4410 C   0  0  0  0  0  0  0  0  0  0  0  0
    0.9747    5.9042    7.5399 C   0  0  0  0  0  0  0  0  0  0  0  0
    0.3099    5.5674    8.7469 C   0  0  0  0  0  0  0  0  0  0  0  0
   -1.0389    5.5643    8.6075 C   0  0  0  0  0  0  0  0  0  0  0  0
   -1.5279    5.9713    7.0102 S   0  0  0  0  0  0  0  0  0  0  0  0
    0.1058    6.1466    6.5209 C   0  0  0  0  0  0  0  0  0  0  0  0
    3.5203   10.1021    5.0141 N   0  0  0  0  0  2  0  0  0  0  0  0
    3.2153   10.8232    5.8595 C   0  0  0  0  0  2  0  0  0  0  0  0
    2.7170   11.5544    6.9806 C   0  0  0  0  0  0  0  0  0  0  0  0
    1.8987   10.5495    7.7577 C   0  0  0  0  0  0  0  0  0  0  0  0
    2.3274    9.9188    8.8851 C   0  0  0  0  0  0  0  0  0  0  0  0
    1.1645    8.8019    9.4751 S   0  0  0  0  0  0  0  0  0  0  0  0
    0.1007    9.1700    8.1753 C   0  0  0  0  0  0  0  0  0  0  0  0
    0.6162   10.1043    7.3413 C   0  0  0  0  0  0  0  0  0  0  0  0
    4.4892    6.6708    3.1538 C   0  0  0  0  0  0  0  0  0  0  0  0
    4.7654    5.5362    3.0187 O   0  0  0  0  0  0  0  0  0  0  0  0
    3.7248    7.5928    1.9766 C   0  0  0  0  0  0  0  0  0  0  0  0
    3.6353    7.2535    0.8531 O   0  0  0  0  0  0  0  0  0  0  0  0
    4.6214    9.6256    2.2995 C   0  0  0  0  0  2  0  0  0  0  0  0
    5.0187   10.2014    1.3852 O   0  0  0  0  0  1  0  0  0  0  0  0
    2.8955    6.3841    8.3618 H   0  0  0  0  0  0  0  0  0  0  0  0
    2.8901    4.9495    7.3213 H   0  0  0  0  0  0  0  0  0  0  0  0
    0.8209    5.3418    9.6652 H   0  0  0  0  0  0  0  0  0  0  0  0
   -1.7797    5.3452    9.3497 H   0  0  0  0  0  0  0  0  0  0  0  0
    0.3183    6.4280    5.5088 H   0  0  0  0  0  0  0  0  0  0  0  0
    2.0957   12.3844    6.6334 H   0  0  0  0  0  0  0  0  0  0  0  0
    3.5462   11.9436    7.5761 H   0  0  0  0  0  0  0  0  0  0  0  0
    3.2528   10.0543    9.4096 H   0  0  0  0  0  0  0  0  0  0  0  0
   -0.8457    8.6734    8.1099 H   0  0  0  0  0  0  0  0  0  0  0  0
    0.1131   10.4602    6.4605 H   0  0  0  0  0  0  0  0  0  0  0  0
  1 12  1  0  0  0  0
  1  3  1  0  0  0  0
  1  4  1  0  0  0  0
  4  5  1  0  0  0  0
  5  6  1  0  0  0  0
  6  7  1  0  0  0  0
  6 26  1  0  0  0  0
  7  8  1  0  0  0  0
  8 28  1  0  0  0  0
  9  8  2  0  0  0  0
  9 29  1  0  0  0  0
 10  9  1  0  0  0  0
 11 10  1  0  0  0  0
 11  7  2  0  0  0  0
 12 13  1  0  0  0  0
 13 14  1  0  0  0  0
 14 32  1  0  0  0  0
 14 15  1  0  0  0  0
 15 16  2  0  0  0  0
 16 33  1  0  0  0  0
 16 17  1  0  0  0  0
 18 17  1  0  0  0  0
 19 15  1  0  0  0  0
 19 18  2  0  0  0  0
 20  1  1  0  0  0  0
 21 20  2  0  0  0  0
 22 20  1  0  0  0  0
 22  1  1  0  0  0  0
 23 22  2  0  0  0  0
 24  1  1  0  0  0  0
 25 24  1  0  0  0  0
 27  6  1  0  0  0  0
 30 11  1  0  0  0  0
 31 14  1  0  0  0  0
 34 18  1  0  0  0  0
 35 19  1  0  0  0  0
M  END
$$$$
