CSD_code = GIVWEP | q = 0 | S = 0 | Stoichiometry = C17H20ClN4O4RhS | MND = 6
 OpenBabel04212202043D

 48 49  0  0  1  0  0  0  0  0999 V2000
    6.2118    9.6501    8.7128 Rh  0  0  0  0  0  0  0  0  0  0  0  0
    4.0478    9.6146    7.9795 Cl  0  0  0  0  0 15  0  0  0  0  0  0
    6.7077    5.2727    6.6621 O   0  0  0  0  0  0  0  0  0  0  0  0
    8.4222    6.9128    7.2537 O   0  0  0  0  0  0  0  0  0  0  0  0
    4.3025    6.3505    7.5287 O   0  0  0  0  0  0  0  0  0  0  0  0
    2.9155    6.5879    5.9026 O   0  0  0  0  0  0  0  0  0  0  0  0
    6.4726    6.6557    8.8225 N   0  0  0  0  0  0  0  0  0  0  0  0
    6.1281    5.5686    9.5470 N   0  0  0  0  0  0  0  0  0  0  0  0
    5.2933    7.3879   10.4374 N   0  0  0  0  0  0  0  0  0  0  0  0
    3.9566    6.8277    6.4666 N   0  0  0  0  0  0  0  0  0  0  0  0
    5.9616    7.7912    9.3342 C   0  0  1  0  0  3  0  0  0  0  0  0
    5.4218    6.0307   10.5195 C   0  0  0  0  0  0  0  0  0  0  0  0
    4.9944    5.4291   11.2951 H   0  0  0  0  0  0  0  0  0  0  0  0
    6.1949    7.8356    6.2514 C   0  0  0  0  0  0  0  0  0  0  0  0
    4.8638    7.7471    5.8459 C   0  0  0  0  0  0  0  0  0  0  0  0
    4.3653    8.6074    4.8730 C   0  0  0  0  0  0  0  0  0  0  0  0
    3.3222    8.5280    4.6073 H   0  0  0  0  0  0  0  0  0  0  0  0
    5.1950    9.5473    4.2946 C   0  0  0  0  0  0  0  0  0  0  0  0
    4.8060   10.2171    3.5438 H   0  0  0  0  0  0  0  0  0  0  0  0
    6.5247    9.6306    4.6844 C   0  0  0  0  0  0  0  0  0  0  0  0
    7.1748   10.3590    4.2239 H   0  0  0  0  0  0  0  0  0  0  0  0
    7.0258    8.7680    5.6478 C   0  0  0  0  0  0  0  0  0  0  0  0
    8.0669    8.7724    5.9314 H   0  0  0  0  0  0  0  0  0  0  0  0
    4.5402    8.2386   11.3169 C   0  0  0  0  0  0  0  0  0  0  0  0
    5.0113    8.2867   12.3006 H   0  0  0  0  0  0  0  0  0  0  0  0
    3.5239    7.8586   11.4203 H   0  0  0  0  0  0  0  0  0  0  0  0
    4.5045    9.2381   10.8720 H   0  0  0  0  0  0  0  0  0  0  0  0
    8.3486    9.7213    8.9230 C   0  0  0  0  0  3  0  0  0  0  0  0
    8.7422    8.7420    8.6605 H   0  0  0  0  0  0  0  0  0  0  0  0
    7.7473    9.8537   10.1720 C   0  0  1  0  0  0  0  0  0  0  0  0
    7.7769    8.9900   10.8376 H   0  0  0  0  0  0  0  0  0  0  0  0
    7.5788   11.1602   10.9170 C   0  0  0  0  0  0  0  0  0  0  0  0
    8.5421   11.4539   11.3481 H   0  0  0  0  0  0  0  0  0  0  0  0
    6.8940   10.9871   11.7515 H   0  0  0  0  0  0  0  0  0  0  0  0
    7.0238   12.3022   10.0441 C   0  0  0  0  0  0  0  0  0  0  0  0
    6.4574   12.9853   10.6798 H   0  0  0  0  0  0  0  0  0  0  0  0
    7.8432   12.8729    9.6052 H   0  0  0  0  0  0  0  0  0  0  0  0
    6.1255   11.8037    8.9329 C   0  0  0  0  0  3  0  0  0  0  0  0
    5.0669   12.0350    9.0483 H   0  0  0  0  0  0  0  0  0  0  0  0
    6.5964   11.5103    7.6692 C   0  0  0  0  0  3  0  0  0  0  0  0
    5.8939   11.5566    6.8369 H   0  0  0  0  0  0  0  0  0  0  0  0
    8.0490   11.6560    7.2777 C   0  0  0  0  0  0  0  0  0  0  0  0
    8.3091   12.7206    7.2860 H   0  0  0  0  0  0  0  0  0  0  0  0
    8.1711   11.3062    6.2531 H   0  0  0  0  0  0  0  0  0  0  0  0
    9.0089   10.8771    8.2006 C   0  0  0  0  0  0  0  0  0  0  0  0
    9.8340   10.4870    7.6030 H   0  0  0  0  0  0  0  0  0  0  0  0
    9.4408   11.5483    8.9458 H   0  0  0  0  0  0  0  0  0  0  0  0
    7.0400    6.5479    7.1917 S   0  0  0  0  0  0  0  0  0  0  0  0
  1 30  1  0  0  0  0
  3 48  2  0  0  0  0
  6 10  2  0  0  0  0
  7 11  1  0  0  0  0
  7  8  1  0  0  0  0
  8 12  2  0  0  0  0
  9 12  1  0  0  0  0
  9 24  1  0  0  0  0
 10  5  2  0  0  0  0
 11  1  1  1  0  0  0
 11  9  1  0  0  0  0
 12 13  1  0  0  0  0
 14 48  1  0  0  0  0
 15 14  1  0  0  0  0
 15 10  1  0  0  0  0
 16 15  2  0  0  0  0
 17 16  1  0  0  0  0
 18 20  2  0  0  0  0
 18 16  1  0  0  0  0
 19 18  1  0  0  0  0
 20 22  1  0  0  0  0
 21 20  1  0  0  0  0
 22 23  1  0  0  0  0
 22 14  2  0  0  0  0
 24 26  1  0  0  0  0
 24 25  1  0  0  0  0
 27 24  1  0  0  0  0
 28 30  1  0  0  0  0
 29 28  1  0  0  0  0
 30 31  1  1  0  0  0
 30 32  1  0  0  0  0
 32 33  1  0  0  0  0
 32 34  1  0  0  0  0
 35 36  1  0  0  0  0
 35 32  1  0  0  0  0
 37 35  1  0  0  0  0
 38 39  1  0  0  0  0
 38 35  1  0  0  0  0
 40 38  1  0  0  0  0
 41 40  1  0  0  0  0
 42 43  1  0  0  0  0
 42 40  1  0  0  0  0
 42 45  1  0  0  0  0
 44 42  1  0  0  0  0
 45 28  1  0  0  0  0
 45 47  1  0  0  0  0
 46 45  1  0  0  0  0
 48  4  2  0  0  0  0
 48  7  1  0  0  0  0
M  END
$$$$
