CSD_code = GIVYAN | q = 0 | S = 0 | Stoichiometry = C27H28Cl2N2OTi | MND = 10
 OpenBabel04212202043D

 61 63  0  0  1  0  0  0  0  0999 V2000
   -2.0273    9.9292    6.2667 Ti  0  0  0  0  0  0  0  0  0  0  0  0
   -0.3304   10.5427    4.7530 Cl  0  0  0  0  0 15  0  0  0  0  0  0
   -3.8730    8.5189    6.6694 Cl  0  0  0  0  0 15  0  0  0  0  0  0
   -3.1764   11.0332    5.3172 O   0  0  0  0  0  0  0  0  0  0  0  0
   -2.3192    8.8235    4.5611 N   0  0  0  0  0  0  0  0  0  0  0  0
   -0.8051    7.9327    6.4248 N   0  0  0  0  0  0  0  0  0  0  0  0
   -3.6009   10.6655    4.1482 C   0  0  0  0  0  0  0  0  0  0  0  0
   -4.4583   11.3537    3.3037 C   0  0  0  0  0  0  0  0  0  0  0  0
   -4.8544   12.3138    3.5968 H   0  0  0  0  0  0  0  0  0  0  0  0
   -4.8023   10.7951    2.0746 C   0  0  0  0  0  0  0  0  0  0  0  0
   -5.4713   11.3825    1.4688 H   0  0  0  0  0  0  0  0  0  0  0  0
   -4.3563    9.5721    1.5909 C   0  0  2  0  0  3  0  0  0  0  0  0
   -3.4783    8.8276    2.4206 C   0  0  0  0  0  0  0  0  0  0  0  0
   -3.1281    9.4001    3.6775 C   0  0  0  0  0  0  0  0  0  0  0  0
   -2.8769    7.5615    2.1840 C   0  0  0  0  0  0  0  0  0  0  0  0
   -3.0627    7.0267    1.2681 H   0  0  0  0  0  0  0  0  0  0  0  0
   -2.0466    6.9814    3.1058 C   0  0  0  0  0  0  0  0  0  0  0  0
   -1.5965    6.0193    2.9137 H   0  0  0  0  0  0  0  0  0  0  0  0
   -1.7733    7.6441    4.3194 C   0  0  0  0  0  0  0  0  0  0  0  0
   -4.8062    9.0755    0.2190 C   0  0  0  0  0  0  0  0  0  0  0  0
   -5.5882    7.7603    0.3661 C   0  0  0  0  0  0  0  0  0  0  0  0
   -5.0156    6.9751    0.8453 H   0  0  0  0  0  0  0  0  0  0  0  0
   -5.8999    7.4053   -0.6141 H   0  0  0  0  0  0  0  0  0  0  0  0
   -6.4790    7.9326    0.9666 H   0  0  0  0  0  0  0  0  0  0  0  0
   -3.5881    8.9168   -0.7052 C   0  0  0  0  0  0  0  0  0  0  0  0
   -3.1034    9.8821   -0.8359 H   0  0  0  0  0  0  0  0  0  0  0  0
   -3.9099    8.5606   -1.6816 H   0  0  0  0  0  0  0  0  0  0  0  0
   -2.8473    8.2265   -0.3192 H   0  0  0  0  0  0  0  0  0  0  0  0
   -5.7522   10.0591   -0.4853 C   0  0  0  0  0  0  0  0  0  0  0  0
   -6.6655   10.2111    0.0844 H   0  0  0  0  0  0  0  0  0  0  0  0
   -6.0309    9.6465   -1.4528 H   0  0  0  0  0  0  0  0  0  0  0  0
   -5.2712   11.0180   -0.6615 H   0  0  0  0  0  0  0  0  0  0  0  0
   -0.9321    7.1859    5.3939 C   0  0  0  0  0  0  0  0  0  0  0  0
   -0.4267    6.2200    5.3076 H   0  0  0  0  0  0  0  0  0  0  0  0
    0.0290    7.4712    7.4754 C   0  0  0  0  0  0  0  0  0  0  0  0
   -0.5173    6.7028    8.5105 C   0  0  0  0  0  0  0  0  0  0  0  0
    0.3026    6.3322    9.5682 C   0  0  0  0  0  0  0  0  0  0  0  0
   -0.1185    5.7530   10.3767 H   0  0  0  0  0  0  0  0  0  0  0  0
    1.6379    6.6863    9.5948 C   0  0  0  0  0  0  0  0  0  0  0  0
    2.2592    6.3989   10.4293 H   0  0  0  0  0  0  0  0  0  0  0  0
    2.1793    7.3900    8.5355 C   0  0  0  0  0  0  0  0  0  0  0  0
    3.2299    7.6403    8.5348 H   0  0  0  0  0  0  0  0  0  0  0  0
    1.3952    7.7805    7.4586 C   0  0  0  0  0  0  0  0  0  0  0  0
    2.0169    8.4796    6.2884 C   0  0  0  0  0  0  0  0  0  0  0  0
    2.1771    7.7705    5.4749 H   0  0  0  0  0  0  0  0  0  0  0  0
    2.9826    8.8959    6.5637 H   0  0  0  0  0  0  0  0  0  0  0  0
    1.3800    9.2755    5.9038 H   0  0  0  0  0  0  0  0  0  0  0  0
   -1.9418    6.2396    8.4682 C   0  0  0  0  0  0  0  0  0  0  0  0
   -2.6038    6.9912    8.0406 H   0  0  0  0  0  0  0  0  0  0  0  0
   -2.2882    5.9843    9.4667 H   0  0  0  0  0  0  0  0  0  0  0  0
   -2.0199    5.3446    7.8489 H   0  0  0  0  0  0  0  0  0  0  0  0
   -2.3700   11.9277    7.6711 C   0  0  0  0  0  0  0  0  0  0  0  0
   -2.9754   12.7852    7.4093 H   0  0  0  0  0  0  0  0  0  0  0  0
   -0.9952   11.7820    7.4203 C   0  0  0  0  0  0  0  0  0  0  0  0
   -0.3524   12.5194    6.9591 H   0  0  0  0  0  0  0  0  0  0  0  0
   -0.5725   10.5572    7.9832 C   0  0  0  0  0  0  0  0  0  0  0  0
    0.4550   10.2332    8.0803 H   0  0  0  0  0  0  0  0  0  0  0  0
   -1.6979    9.9419    8.5728 C   0  0  1  0  0  0  0  0  0  0  0  0
   -1.6871    9.0616    9.2014 H   0  0  0  0  0  0  0  0  0  0  0  0
   -2.8095   10.7906    8.3701 C   0  0  0  0  0  0  0  0  0  0  0  0
   -3.8036   10.6336    8.7665 H   0  0  0  0  0  0  0  0  0  0  0  0
  1 58  1  0  0  0  0
  4  1  1  0  0  0  0
  5  1  1  0  0  0  0
  6 35  1  0  0  0  0
  7  4  1  0  0  0  0
  8  9  1  0  0  0  0
  8  7  1  0  0  0  0
 10  8  2  0  0  0  0
 11 10  1  0  0  0  0
 12 20  1  6  0  0  0
 12 10  1  0  0  0  0
 12 13  1  0  0  0  0
 13 14  1  0  0  0  0
 14  7  2  0  0  0  0
 14  5  1  0  0  0  0
 15 13  2  0  0  0  0
 15 17  1  0  0  0  0
 16 15  1  0  0  0  0
 17 19  2  0  0  0  0
 18 17  1  0  0  0  0
 19  5  1  0  0  0  0
 19 33  1  0  0  0  0
 20 21  1  0  0  0  0
 21 22  1  0  0  0  0
 21 24  1  0  0  0  0
 23 21  1  0  0  0  0
 25 28  1  0  0  0  0
 25 20  1  0  0  0  0
 26 25  1  0  0  0  0
 27 25  1  0  0  0  0
 29 30  1  0  0  0  0
 29 20  1  0  0  0  0
 31 29  1  0  0  0  0
 32 29  1  0  0  0  0
 33  6  2  0  0  0  0
 34 33  1  0  0  0  0
 35 36  1  0  0  0  0
 36 37  2  0  0  0  0
 37 39  1  0  0  0  0
 37 38  1  0  0  0  0
 39 40  1  0  0  0  0
 41 39  2  0  0  0  0
 42 41  1  0  0  0  0
 43 35  2  0  0  0  0
 43 41  1  0  0  0  0
 44 46  1  0  0  0  0
 44 43  1  0  0  0  0
 45 44  1  0  0  0  0
 47 44  1  0  0  0  0
 48 36  1  0  0  0  0
 48 50  1  0  0  0  0
 49 48  1  0  0  0  0
 51 48  1  0  0  0  0
 52 60  2  0  0  0  0
 53 52  1  0  0  0  0
 54 52  1  0  0  0  0
 54 56  2  0  0  0  0
 55 54  1  0  0  0  0
 56 57  1  0  0  0  0
 56 58  1  0  0  0  0
 58 59  1  1  0  0  0
 60 58  1  0  0  0  0
 60 61  1  0  0  0  0
M  END
$$$$
