CSD_code = GIWDEV | q = 0 | S = 0 | Stoichiometry = C26H28Cl2Zr | MND = 12
 OpenBabel04212202043D

 57 61  0  0  1  0  0  0  0  0999 V2000
   13.8691    6.0131    9.2456 Zr  0  0  0  0  0  0  0  0  0  0  0  0
   12.6810    4.0056    9.4220 Cl  0  0  0  0  0  0  0  0  0  0  0  0
   15.8642    4.8265    9.5434 Cl  0  0  0  0  0  0  0  0  0  0  0  0
   13.2752    8.1162   10.4669 C   0  0  0  0  0  0  0  0  0  0  0  0
   12.2435    7.1608   10.7304 C   0  0  0  0  0  0  0  0  0  0  0  0
   12.8064    6.1366   11.5245 C   0  0  0  0  0  0  0  0  0  0  0  0
   14.1909    6.3460   11.6607 C   0  0  0  0  0  0  0  0  0  0  0  0
   14.5136    7.5800   11.0034 C   0  0  1  0  0  0  0  0  0  0  0  0
   15.7236    8.3043   10.8599 C   0  0  0  0  0  0  0  0  0  0  0  0
   15.6432    9.5693   10.3199 C   0  0  0  0  0  0  0  0  0  0  0  0
   14.4297   10.1261    9.8903 C   0  0  0  0  0  0  0  0  0  0  0  0
   13.2475    9.4222    9.9255 C   0  0  0  0  0  0  0  0  0  0  0  0
   11.9836   10.0024    9.3645 C   0  0  0  0  0  0  0  0  0  0  0  0
   11.8762    9.6974    7.8571 C   0  0  0  0  0  0  0  0  0  0  0  0
   11.7866    8.2232    7.5773 C   0  0  0  0  0  0  0  0  0  0  0  0
   10.5678    7.6058    7.4175 C   0  0  0  0  0  0  0  0  0  0  0  0
   10.4450    6.2507    7.0700 C   0  0  0  0  0  0  0  0  0  0  0  0
   11.5392    5.4488    6.8438 C   0  0  0  0  0  0  0  0  0  0  0  0
   12.8189    6.0362    7.0227 C   0  0  1  0  0  0  0  0  0  0  0  0
   12.9479    7.4234    7.4258 C   0  0  0  0  0  0  0  0  0  0  0  0
   14.3481    7.7165    7.5079 C   0  0  0  0  0  0  0  0  0  0  0  0
   15.0532    6.5595    7.1139 C   0  0  0  0  0  0  0  0  0  0  0  0
   14.1418    5.5150    6.8523 C   0  0  0  0  0  0  0  0  0  0  0  0
   17.0456    7.7107   11.2882 C   0  0  0  0  0  0  0  0  0  0  0  0
   17.9791    7.6089   10.0783 C   0  0  0  0  0  0  0  0  0  0  0  0
   17.6828    8.5287   12.4133 C   0  0  0  0  0  0  0  0  0  0  0  0
   11.4320    4.0327    6.3269 C   0  0  0  0  0  0  0  0  0  0  0  0
   11.4230    4.0669    4.7943 C   0  0  0  0  0  0  0  0  0  0  0  0
   10.2084    3.2917    6.8611 C   0  0  0  0  0  0  0  0  0  0  0  0
   11.1829    7.2950   10.5542 H   0  0  0  0  0  0  0  0  0  0  0  0
   12.2473    5.3375   11.9986 H   0  0  0  0  0  0  0  0  0  0  0  0
   14.8535    5.7510   12.2776 H   0  0  0  0  0  0  0  0  0  0  0  0
   16.5361   10.1691   10.2292 H   0  0  0  0  0  0  0  0  0  0  0  0
   14.4301   11.1378    9.5100 H   0  0  0  0  0  0  0  0  0  0  0  0
   11.9830   11.0854    9.5010 H   0  0  0  0  0  0  0  0  0  0  0  0
   11.1128    9.5915    9.8776 H   0  0  0  0  0  0  0  0  0  0  0  0
   10.9849   10.1911    7.4652 H   0  0  0  0  0  0  0  0  0  0  0  0
   12.7483   10.1158    7.3502 H   0  0  0  0  0  0  0  0  0  0  0  0
    9.6649    8.1908    7.5247 H   0  0  0  0  0  0  0  0  0  0  0  0
    9.4510    5.8525    6.9432 H   0  0  0  0  0  0  0  0  0  0  0  0
   14.7915    8.6941    7.6458 H   0  0  0  0  0  0  0  0  0  0  0  0
   16.1261    6.5007    6.9634 H   0  0  0  0  0  0  0  0  0  0  0  0
   14.4066    4.5365    6.4687 H   0  0  0  0  0  0  0  0  0  0  0  0
   16.8712    6.6942   11.6541 H   0  0  0  0  0  0  0  0  0  0  0  0
   17.5123    6.9973    9.3060 H   0  0  0  0  0  0  0  0  0  0  0  0
   18.9156    7.1392   10.3686 H   0  0  0  0  0  0  0  0  0  0  0  0
   18.1991    8.5918    9.6685 H   0  0  0  0  0  0  0  0  0  0  0  0
   17.0047    8.5988   13.2609 H   0  0  0  0  0  0  0  0  0  0  0  0
   17.9158    9.5358   12.0767 H   0  0  0  0  0  0  0  0  0  0  0  0
   18.6043    8.0559   12.7446 H   0  0  0  0  0  0  0  0  0  0  0  0
   12.3195    3.4827    6.6581 H   0  0  0  0  0  0  0  0  0  0  0  0
   12.3115    4.5690    4.4177 H   0  0  0  0  0  0  0  0  0  0  0  0
   10.5478    4.6046    4.4357 H   0  0  0  0  0  0  0  0  0  0  0  0
   11.3975    3.0560    4.3944 H   0  0  0  0  0  0  0  0  0  0  0  0
   10.1890    3.3440    7.9468 H   0  0  0  0  0  0  0  0  0  0  0  0
   10.2579    2.2456    6.5679 H   0  0  0  0  0  0  0  0  0  0  0  0
    9.2853    3.7079    6.4654 H   0  0  0  0  0  0  0  0  0  0  0  0
  1  2  1  0  0  0  0
  1  3  1  0  0  0  0
  1  8  1  0  0  0  0
  4  5  2  0  0  0  0
  5  6  1  0  0  0  0
  6  7  2  0  0  0  0
  6 31  1  0  0  0  0
  7 32  1  0  0  0  0
  8  4  1  1  0  0  0
  8  7  1  0  0  0  0
  9  8  1  0  0  0  0
  9 24  1  0  0  0  0
 10  9  2  0  0  0  0
 11 12  2  0  0  0  0
 11 10  1  0  0  0  0
 12  4  1  0  0  0  0
 13 35  1  0  0  0  0
 13 36  1  0  0  0  0
 13 12  1  0  0  0  0
 14 13  1  0  0  0  0
 15 14  1  0  0  0  0
 16 39  1  0  0  0  0
 16 15  2  0  0  0  0
 17 16  1  0  0  0  0
 18 17  2  0  0  0  0
 19 18  1  6  0  0  0
 19 20  1  0  0  0  0
 19  1  1  0  0  0  0
 20 21  2  0  0  0  0
 20 15  1  0  0  0  0
 21 41  1  0  0  0  0
 22 21  1  0  0  0  0
 23 19  1  0  0  0  0
 23 22  2  0  0  0  0
 24 44  1  0  0  0  0
 24 26  1  0  0  0  0
 25 46  1  0  0  0  0
 25 24  1  0  0  0  0
 26 50  1  0  0  0  0
 26 48  1  0  0  0  0
 27 51  1  0  0  0  0
 27 18  1  0  0  0  0
 27 29  1  0  0  0  0
 28 27  1  0  0  0  0
 29 55  1  0  0  0  0
 30  5  1  0  0  0  0
 33 10  1  0  0  0  0
 34 11  1  0  0  0  0
 37 14  1  0  0  0  0
 38 14  1  0  0  0  0
 40 17  1  0  0  0  0
 42 22  1  0  0  0  0
 43 23  1  0  0  0  0
 45 25  1  0  0  0  0
 47 25  1  0  0  0  0
 49 26  1  0  0  0  0
 52 28  1  0  0  0  0
 53 28  1  0  0  0  0
 54 28  1  0  0  0  0
 56 29  1  0  0  0  0
 57 29  1  0  0  0  0
M  END
$$$$
