CSD_code = GIWDIZ | q = 0 | S = 0 | Stoichiometry = C26H28Cl2Ti | MND = 12
 OpenBabel04212202043D

 57 63  0  0  1  0  0  0  0  0999 V2000
    4.4479    7.1161    7.7384 Ti  0  0  0  0  0  0  0  0  0  0  0  0
    3.6969    9.1676    7.2964 Cl  0  0  0  0  0  0  0  0  0  0  0  0
    6.4367    7.9755    8.2911 Cl  0  0  0  0  0  0  0  0  0  0  0  0
    2.7724    5.7369    8.8753 C   0  0  0  0  0  0  0  0  0  0  0  0
    4.0971    5.4353    9.3349 C   0  0  2  0  0  0  0  0  0  0  0  0
    4.5838    6.5638   10.0175 C   0  0  0  0  0  3  0  0  0  0  0  0
    3.6716    7.6250    9.8664 C   0  0  2  0  0  0  0  0  0  0  0  0
    2.5128    7.1187    9.1881 C   0  0  0  0  0  0  0  0  0  0  0  0
    1.2603    7.7042    8.8944 C   0  0  0  0  0  0  0  0  0  0  0  0
    0.3083    6.8876    8.3230 C   0  0  0  0  0  0  0  0  0  0  0  0
    0.5431    5.5320    8.0622 C   0  0  0  0  0  0  0  0  0  0  0  0
    1.7492    4.9262    8.3381 C   0  0  0  0  0  0  0  0  0  0  0  0
    1.9494    3.4575    8.1033 C   0  0  0  0  0  0  0  0  0  0  0  0
    2.6493    3.1827    6.7578 C   0  0  0  0  0  0  0  0  0  0  0  0
    4.0428    3.7347    6.7620 C   0  0  0  0  0  0  0  0  0  0  0  0
    5.1166    2.9589    7.1419 C   0  0  0  0  0  0  0  0  0  0  0  0
    6.4212    3.4646    7.1898 C   0  0  0  0  0  0  0  0  0  0  0  0
    6.7276    4.7551    6.8106 C   0  0  0  0  0  0  0  0  0  0  0  0
    5.6584    5.5645    6.3660 C   0  0  0  0  0  0  0  0  0  0  0  0
    4.3044    5.0712    6.3984 C   0  0  0  0  0  0  0  0  0  0  0  0
    3.4583    6.1092    5.8891 C   0  0  2  0  0  0  0  0  0  0  0  0
    4.2929    7.1248    5.3773 C   0  0  0  0  0  3  0  0  0  0  0  0
    5.6221    6.8538    5.7327 C   0  0  1  0  0  0  0  0  0  0  0  0
    0.9579    9.1314    9.2841 C   0  0  0  0  0  0  0  0  0  0  0  0
    0.2718    9.9015    8.1561 C   0  0  0  0  0  0  0  0  0  0  0  0
    0.1018    9.1399   10.5545 C   0  0  0  0  0  0  0  0  0  0  0  0
    8.1478    5.2663    6.8386 C   0  0  0  0  0  0  0  0  0  0  0  0
    9.0307    4.4741    5.8718 C   0  0  0  0  0  0  0  0  0  0  0  0
    8.7013    5.2098    8.2644 C   0  0  0  0  0  0  0  0  0  0  0  0
    4.5509    4.4533    9.3703 H   0  0  0  0  0  0  0  0  0  0  0  0
    5.4986    6.6010   10.5983 H   0  0  0  0  0  0  0  0  0  0  0  0
    3.7652    8.5945   10.3400 H   0  0  0  0  0  0  0  0  0  0  0  0
   -0.6703    7.2834    8.0992 H   0  0  0  0  0  0  0  0  0  0  0  0
   -0.2648    4.9365    7.6598 H   0  0  0  0  0  0  0  0  0  0  0  0
    0.9788    2.9577    8.1007 H   0  0  0  0  0  0  0  0  0  0  0  0
    2.5520    3.0300    8.9079 H   0  0  0  0  0  0  0  0  0  0  0  0
    2.6843    2.1035    6.5966 H   0  0  0  0  0  0  0  0  0  0  0  0
    2.0641    3.6312    5.9527 H   0  0  0  0  0  0  0  0  0  0  0  0
    4.9518    1.9232    7.4048 H   0  0  0  0  0  0  0  0  0  0  0  0
    7.2109    2.8015    7.5096 H   0  0  0  0  0  0  0  0  0  0  0  0
    2.3980    6.0238    5.6848 H   0  0  0  0  0  0  0  0  0  0  0  0
    3.9623    7.9686    4.7825 H   0  0  0  0  0  0  0  0  0  0  0  0
    6.4785    7.4372    5.4199 H   0  0  0  0  0  0  0  0  0  0  0  0
    1.9031    9.6378    9.4986 H   0  0  0  0  0  0  0  0  0  0  0  0
    0.1583   10.9453    8.4393 H   0  0  0  0  0  0  0  0  0  0  0  0
   -0.7151    9.4999    7.9410 H   0  0  0  0  0  0  0  0  0  0  0  0
    0.8782    9.8525    7.2549 H   0  0  0  0  0  0  0  0  0  0  0  0
    0.6090    8.6106   11.3585 H   0  0  0  0  0  0  0  0  0  0  0  0
   -0.8536    8.6525   10.3728 H   0  0  0  0  0  0  0  0  0  0  0  0
   -0.0860   10.1619   10.8752 H   0  0  0  0  0  0  0  0  0  0  0  0
    8.1470    6.3148    6.5280 H   0  0  0  0  0  0  0  0  0  0  0  0
    8.6217    4.5143    4.8644 H   0  0  0  0  0  0  0  0  0  0  0  0
    9.0978    3.4316    6.1731 H   0  0  0  0  0  0  0  0  0  0  0  0
   10.0348    4.8914    5.8550 H   0  0  0  0  0  0  0  0  0  0  0  0
    8.0742    5.8062    8.9246 H   0  0  0  0  0  0  0  0  0  0  0  0
    9.7098    5.6155    8.2883 H   0  0  0  0  0  0  0  0  0  0  0  0
    8.7324    4.1878    8.6344 H   0  0  0  0  0  0  0  0  0  0  0  0
  1  3  1  0  0  0  0
  1  5  1  0  0  0  0
  1  7  1  0  0  0  0
  2  1  1  0  0  0  0
  4  8  1  0  0  0  0
  4  5  1  0  0  0  0
  5 30  1  6  0  0  0
  5  6  1  0  0  0  0
  6 31  1  0  0  0  0
  7  6  1  0  0  0  0
  7 32  1  1  0  0  0
  8  7  1  0  0  0  0
  9  8  2  0  0  0  0
  9 24  1  0  0  0  0
 10  9  1  0  0  0  0
 11 10  2  0  0  0  0
 11 12  1  0  0  0  0
 12  4  2  0  0  0  0
 13 12  1  0  0  0  0
 13 36  1  0  0  0  0
 14 15  1  0  0  0  0
 14 13  1  0  0  0  0
 15 16  1  0  0  0  0
 16 17  2  0  0  0  0
 16 39  1  0  0  0  0
 17 40  1  0  0  0  0
 18 27  1  0  0  0  0
 18 17  1  0  0  0  0
 19 20  1  0  0  0  0
 19 18  2  0  0  0  0
 20 15  2  0  0  0  0
 21 41  1  6  0  0  0
 21 20  1  0  0  0  0
 21  1  1  0  0  0  0
 22 23  1  0  0  0  0
 22 21  1  0  0  0  0
 23 43  1  6  0  0  0
 23 19  1  0  0  0  0
 23  1  1  0  0  0  0
 24 44  1  0  0  0  0
 24 26  1  0  0  0  0
 25 45  1  0  0  0  0
 25 24  1  0  0  0  0
 26 50  1  0  0  0  0
 26 48  1  0  0  0  0
 27 29  1  0  0  0  0
 28 53  1  0  0  0  0
 28 27  1  0  0  0  0
 29 56  1  0  0  0  0
 29 57  1  0  0  0  0
 29 55  1  0  0  0  0
 33 10  1  0  0  0  0
 34 11  1  0  0  0  0
 35 13  1  0  0  0  0
 37 14  1  0  0  0  0
 38 14  1  0  0  0  0
 42 22  1  0  0  0  0
 46 25  1  0  0  0  0
 47 25  1  0  0  0  0
 49 26  1  0  0  0  0
 51 27  1  0  0  0  0
 52 28  1  0  0  0  0
 54 28  1  0  0  0  0
M  END
$$$$
