CSD_code = GIWMOQ | q = -1 | S = 0 | Stoichiometry = C15H10Cl2NO2Zn(1-) | MND = 4
 OpenBabel04212202043D

 31 34  0  0  0  0  0  0  0  0999 V2000
    4.2917   10.0879   13.4335 C   0  0  0  0  0  0  0  0  0  0  0  0
    3.9381   10.1072   12.0117 C   0  0  0  0  0  0  0  0  0  0  0  0
    2.6258   10.5575   11.6365 C   0  0  0  0  0  0  0  0  0  0  0  0
    2.2212   10.6015   10.2927 C   0  0  0  0  0  3  0  0  0  0  0  0
    2.9383   10.2929    9.5475 H   0  0  0  0  0  0  0  0  0  0  0  0
    0.9618   11.0204    9.9519 C   0  0  0  0  0  0  0  0  0  0  0  0
    0.6563   11.0520    8.9164 H   0  0  0  0  0  0  0  0  0  0  0  0
    0.0592   11.4094   10.9497 C   0  0  0  0  0  0  0  0  0  0  0  0
   -0.9338   11.7361   10.6741 H   0  0  0  0  0  0  0  0  0  0  0  0
    0.4244   11.3788   12.2702 C   0  0  0  0  0  0  0  0  0  0  0  0
   -0.2696   11.6787   13.0448 H   0  0  0  0  0  0  0  0  0  0  0  0
    1.7137   10.9570   12.6360 C   0  0  0  0  0  0  0  0  0  0  0  0
    3.3401   10.5166   14.3654 C   0  0  0  0  0  0  0  0  0  0  0  0
    3.5794   10.5776   15.8010 C   0  0  0  0  0  0  0  0  0  0  0  0
    2.8867   11.4829   16.6156 C   0  0  0  0  0  0  0  0  0  0  0  0
    2.1965   12.1964   16.1834 H   0  0  0  0  0  0  0  0  0  0  0  0
    3.1048   11.5238   17.9787 C   0  0  0  0  0  0  0  0  0  0  0  0
    2.5628   12.2374   18.5854 H   0  0  0  0  0  0  0  0  0  0  0  0
    4.0179   10.6659   18.5680 C   0  0  0  0  0  0  0  0  0  0  0  0
    4.1867   10.7012   19.6351 H   0  0  0  0  0  0  0  0  0  0  0  0
    4.7212    9.7744   17.7729 C   0  0  0  0  0  0  0  0  0  0  0  0
    5.4428    9.1069   18.2219 H   0  0  0  0  0  0  0  0  0  0  0  0
    4.5095    9.7284   16.4099 C   0  0  0  0  0  0  0  0  0  0  0  0
    5.0643    9.0394   15.7956 H   0  0  0  0  0  0  0  0  0  0  0  0
    2.0995   10.9276   13.9286 N   0  0  0  0  0  0  0  0  0  0  0  0
    1.4199   11.1723   14.6359 H   0  0  0  0  0  0  0  0  0  0  0  0
    5.4682    9.6993   13.7548 O   0  0  0  0  0  0  0  0  0  0  0  0
    4.7748    9.7295   11.1571 O   0  0  0  0  0  0  0  0  0  0  0  0
    6.5124    9.1484   12.1382 Zn  0  0  0  0  0  0  0  0  0  0  0  0
    6.7326    6.9282   12.0628 Cl  0  0  0  0  0  0  0  0  0  0  0  0
    8.2055   10.5037   11.6305 Cl  0  0  0  0  0  0  0  0  0  0  0  0
  1 27  1  0  0  0  0
  1 13  2  0  0  0  0
  2  1  1  0  0  0  0
  3  2  2  0  0  0  0
  3 12  1  0  0  0  0
  4  3  1  0  0  0  0
  5  4  1  0  0  0  0
  6  4  1  0  0  0  0
  6  8  2  0  0  0  0
  7  6  1  0  0  0  0
  8 10  1  0  0  0  0
  9  8  1  0  0  0  0
 10 12  2  0  0  0  0
 10 11  1  0  0  0  0
 12 25  1  0  0  0  0
 13 14  1  0  0  0  0
 14 23  2  0  0  0  0
 14 15  1  0  0  0  0
 15 17  2  0  0  0  0
 16 15  1  0  0  0  0
 17 19  1  0  0  0  0
 17 18  1  0  0  0  0
 19 20  1  0  0  0  0
 21 22  1  0  0  0  0
 21 19  2  0  0  0  0
 23 21  1  0  0  0  0
 24 23  1  0  0  0  0
 25 13  1  0  0  0  0
 25 26  1  0  0  0  0
 28  2  1  0  0  0  0
 28 29  1  0  0  0  0
 29 27  1  0  0  0  0
 30 29  1  0  0  0  0
 31 29  1  0  0  0  0
M  END
$$$$
