CSD_code = GIWSUC | q = 0 | S = 0 | Stoichiometry = C7H14AuCl2NO2S2 | MND = 4
 OpenBabel04212202043D

 29 29  0  0  0  0  0  0  0  0999 V2000
    6.8321    8.6139    5.5373 Au  0  0  0  0  0  0  0  0  0  0  0  0
    4.5553    6.9115    5.6606 C   0  0  0  0  0  3  0  0  0  0  0  0
    2.1869    6.6566    6.0022 C   0  0  0  0  0  0  0  0  0  0  0  0
    2.2878    7.5500    6.6217 H   0  0  0  0  0  0  0  0  0  0  0  0
    1.6392    5.8836    6.5432 H   0  0  0  0  0  0  0  0  0  0  0  0
    1.4417    7.0184    4.7168 C   0  0  0  0  0  0  0  0  0  0  0  0
    0.5029    7.5285    4.9785 H   0  0  0  0  0  0  0  0  0  0  0  0
    2.0500    7.7077    4.1115 H   0  0  0  0  0  0  0  0  0  0  0  0
    0.4637    6.0641    2.8053 C   0  0  0  0  0  0  0  0  0  0  0  0
   -0.5120    6.5204    3.0077 H   0  0  0  0  0  0  0  0  0  0  0  0
    0.3217    5.0911    2.3407 H   0  0  0  0  0  0  0  0  0  0  0  0
    1.0258    6.7163    2.1272 H   0  0  0  0  0  0  0  0  0  0  0  0
    3.6101    4.7035    5.4834 C   0  0  0  0  0  0  0  0  0  0  0  0
    4.4707    4.5113    4.8397 H   0  0  0  0  0  0  0  0  0  0  0  0
    2.6909    4.3875    4.9875 H   0  0  0  0  0  0  0  0  0  0  0  0
    3.7812    3.9344    6.7942 C   0  0  0  0  0  0  0  0  0  0  0  0
    3.9954    2.8801    6.5649 H   0  0  0  0  0  0  0  0  0  0  0  0
    4.6321    4.3422    7.3609 H   0  0  0  0  0  0  0  0  0  0  0  0
    2.6442    3.3436    8.7645 C   0  0  0  0  0  0  0  0  0  0  0  0
    2.8038    2.2718    8.6006 H   0  0  0  0  0  0  0  0  0  0  0  0
    1.6828    3.4986    9.2487 H   0  0  0  0  0  0  0  0  0  0  0  0
    3.4449    3.7271    9.4072 H   0  0  0  0  0  0  0  0  0  0  0  0
    7.1767   10.8447    5.7710 Cl  0  0  0  0  0  0  0  0  0  0  0  0
    9.0484    8.3049    5.1579 Cl  0  0  0  0  0  0  0  0  0  0  0  0
    3.5045    6.1286    5.7161 N   0  0  0  0  0  0  0  0  0  0  0  0
    1.1746    5.8373    3.9981 O   0  0  0  0  0  0  0  0  0  0  0  0
    2.5938    4.0415    7.5439 O   0  0  0  0  0  0  0  0  0  0  0  0
    4.4835    8.6089    5.8872 S   0  0  0  0  0  0  0  0  0  0  0  0
    6.1444    6.3476    5.3553 S   0  0  0  0  0  0  0  0  0  0  0  0
  1 23  1  0  0  0  0
  1 28  1  0  0  0  0
  2 25  1  0  0  0  0
  2 28  1  0  0  0  0
  3  5  1  0  0  0  0
  3  4  1  0  0  0  0
  6  7  1  0  0  0  0
  6  3  1  0  0  0  0
  8  6  1  0  0  0  0
  9 10  1  0  0  0  0
  9 26  1  0  0  0  0
 11  9  1  0  0  0  0
 12  9  1  0  0  0  0
 13 25  1  0  0  0  0
 13 16  1  0  0  0  0
 14 13  1  0  0  0  0
 15 13  1  0  0  0  0
 16 18  1  0  0  0  0
 16 27  1  0  0  0  0
 17 16  1  0  0  0  0
 19 21  1  0  0  0  0
 19 22  1  0  0  0  0
 20 19  1  0  0  0  0
 24  1  1  0  0  0  0
 25  3  1  0  0  0  0
 26  6  1  0  0  0  0
 27 19  1  0  0  0  0
 29  1  1  0  0  0  0
 29  2  1  0  0  0  0
M  END
$$$$
