CSD_code = GIXPUA | q = 0 | S = 0 | Stoichiometry = C18H24FeI2N2Si2 | MND = 4
 OpenBabel04212202043D

 49 52  0  0  0  0  0  0  0  0999 V2000
   -2.6335    6.3317    4.8916 Fe  0  0  0  0  0  0  0  0  0  0  0  0
   -3.5195    4.1711    5.7217 I   0  0  0  0  0  0  0  0  0  0  0  0
   -1.3741    8.4625    4.9048 I   0  0  0  0  0  0  0  0  0  0  0  0
   -5.3679    7.7719    5.1827 Si  0  0  0  0  0  0  0  0  0  0  0  0
   -0.6222    4.9753    2.9576 Si  0  0  0  0  0  0  0  0  0  0  0  0
   -4.2063    6.9693    4.1242 N   0  0  0  0  0  0  0  0  0  0  0  0
   -2.1810    5.7734    3.1727 N   0  0  0  0  0  0  0  0  0  0  0  0
   -4.2628    6.7377    2.8408 C   0  0  0  0  0  0  0  0  0  0  0  0
   -3.1089    6.0544    2.2985 C   0  0  0  0  0  0  0  0  0  0  0  0
   -3.3144    5.8667    0.8739 C   0  0  0  0  0  0  0  0  0  0  0  0
   -4.5826    6.4441    0.6014 C   0  0  0  0  0  0  0  0  0  0  0  0
   -5.1991    6.9863    1.7598 C   0  0  0  0  0  0  0  0  0  0  0  0
   -6.4342    7.5741    1.6275 C   0  0  0  0  0  0  0  0  0  0  0  0
   -6.9553    8.0033    2.4687 H   0  0  0  0  0  0  0  0  0  0  0  0
   -7.0305    7.6133    0.3539 C   0  0  0  0  0  0  0  0  0  0  0  0
   -8.0013    8.0786    0.2621 H   0  0  0  0  0  0  0  0  0  0  0  0
   -6.4317    7.0877   -0.7644 C   0  0  0  0  0  0  0  0  0  0  0  0
   -6.9261    7.1393   -1.7232 H   0  0  0  0  0  0  0  0  0  0  0  0
   -5.1621    6.4737   -0.6686 C   0  0  0  0  0  0  0  0  0  0  0  0
   -4.4135    5.8855   -1.7133 C   0  0  0  0  0  0  0  0  0  0  0  0
   -4.8138    5.8806   -2.7164 H   0  0  0  0  0  0  0  0  0  0  0  0
   -3.1878    5.3243   -1.4529 C   0  0  0  0  0  0  0  0  0  0  0  0
   -2.6301    4.8779   -2.2635 H   0  0  0  0  0  0  0  0  0  0  0  0
   -2.6172    5.3022   -0.1671 C   0  0  0  0  0  0  0  0  0  0  0  0
   -1.6508    4.8448   -0.0254 H   0  0  0  0  0  0  0  0  0  0  0  0
   -6.9677    6.7387    5.2126 C   0  0  0  0  0  0  0  0  0  0  0  0
   -6.7981    5.7820    5.6986 H   0  0  0  0  0  0  0  0  0  0  0  0
   -7.3485    6.5320    4.2179 H   0  0  0  0  0  0  0  0  0  0  0  0
   -7.7415    7.2593    5.7669 H   0  0  0  0  0  0  0  0  0  0  0  0
   -5.5631    9.5774    4.6083 C   0  0  0  0  0  0  0  0  0  0  0  0
   -4.6735   10.1541    4.8450 H   0  0  0  0  0  0  0  0  0  0  0  0
   -6.4040   10.0448    5.1099 H   0  0  0  0  0  0  0  0  0  0  0  0
   -5.7234    9.6574    3.5381 H   0  0  0  0  0  0  0  0  0  0  0  0
   -4.5144    7.7111    6.8897 C   0  0  0  0  0  0  0  0  0  0  0  0
   -4.2669    8.7052    7.2477 H   0  0  0  0  0  0  0  0  0  0  0  0
   -3.5774    7.1399    6.8603 H   0  0  0  0  0  0  0  0  0  0  0  0
   -5.1473    7.2389    7.6339 H   0  0  0  0  0  0  0  0  0  0  0  0
   -0.9362    3.1833    2.3939 C   0  0  0  0  0  0  0  0  0  0  0  0
   -1.3851    2.6022    3.1944 H   0  0  0  0  0  0  0  0  0  0  0  0
   -0.0014    2.7048    2.1211 H   0  0  0  0  0  0  0  0  0  0  0  0
   -1.6040    3.1270    1.5407 H   0  0  0  0  0  0  0  0  0  0  0  0
    0.1213    4.9936    4.7164 C   0  0  0  0  0  0  0  0  0  0  0  0
    0.4115    3.9979    5.0358 H   0  0  0  0  0  0  0  0  0  0  0  0
   -0.5919    5.3708    5.4607 H   0  0  0  0  0  0  0  0  0  0  0  0
    1.0000    5.6282    4.7710 H   0  0  0  0  0  0  0  0  0  0  0  0
    0.4465    6.0336    1.7894 C   0  0  0  0  0  0  0  0  0  0  0  0
    0.7065    6.9783    2.2582 H   0  0  0  0  0  0  0  0  0  0  0  0
   -0.0577    6.2636    0.8570 H   0  0  0  0  0  0  0  0  0  0  0  0
    1.3701    5.5159    1.5528 H   0  0  0  0  0  0  0  0  0  0  0  0
  1  3  1  0  0  0  0
  1  2  1  0  0  0  0
  4 26  1  0  0  0  0
  4 34  1  0  0  0  0
  5  7  1  0  0  0  0
  5 42  1  0  0  0  0
  6  1  1  0  0  0  0
  6  4  1  0  0  0  0
  7  1  1  0  0  0  0
  8  6  1  0  0  0  0
  9  8  2  0  0  0  0
  9  7  1  0  0  0  0
 10  9  1  0  0  0  0
 11 10  1  0  0  0  0
 11 12  2  0  0  0  0
 12  8  1  0  0  0  0
 13 12  1  0  0  0  0
 13 14  1  0  0  0  0
 15 13  2  0  0  0  0
 16 15  1  0  0  0  0
 17 19  2  0  0  0  0
 17 15  1  0  0  0  0
 18 17  1  0  0  0  0
 19 11  1  0  0  0  0
 20 22  2  0  0  0  0
 20 19  1  0  0  0  0
 21 20  1  0  0  0  0
 22 24  1  0  0  0  0
 23 22  1  0  0  0  0
 24 25  1  0  0  0  0
 24 10  2  0  0  0  0
 26 27  1  0  0  0  0
 26 29  1  0  0  0  0
 28 26  1  0  0  0  0
 30 31  1  0  0  0  0
 30 32  1  0  0  0  0
 30  4  1  0  0  0  0
 33 30  1  0  0  0  0
 34 35  1  0  0  0  0
 34 37  1  0  0  0  0
 36 34  1  0  0  0  0
 38  5  1  0  0  0  0
 38 39  1  0  0  0  0
 40 38  1  0  0  0  0
 41 38  1  0  0  0  0
 42 45  1  0  0  0  0
 42 43  1  0  0  0  0
 42 44  1  0  0  0  0
 46 47  1  0  0  0  0
 46  5  1  0  0  0  0
 48 46  1  0  0  0  0
 49 46  1  0  0  0  0
M  END
$$$$
