CSD_code = GIXQOT | q = 0 | S = 0 | Stoichiometry = C32H27ClPRhS4 | MND = 6
 OpenBabel04212202043D

 66 73  0  0  0  0  0  0  0  0999 V2000
   -1.0745    0.2992   14.9980 Rh  0  0  0  0  0  0  0  0  0  0  0  0
    0.5992    1.8695   14.9061 Cl  0  0  0  0  0  0  0  0  0  0  0  0
   -1.1877    0.3023   12.6105 S   0  0  0  0  0  0  0  0  0  0  0  0
    0.6185   -1.3028   14.8408 S   0  0  2  0  0  3  0  0  0  0  0  0
   -2.6463   -1.4287   14.9381 S   0  0  2  0  0  3  0  0  0  0  0  0
   -1.0923    0.0793   17.4014 S   0  0  0  0  0  0  0  0  0  0  0  0
    0.8341   -1.5230   13.0846 C   0  0  0  0  0  0  0  0  0  0  0  0
    1.8285   -2.3953   12.6689 C   0  0  0  0  0  0  0  0  0  0  0  0
    2.0499   -2.6008   11.3222 C   0  0  0  0  0  0  0  0  0  0  0  0
    1.2814   -1.9087   10.3918 C   0  0  0  0  0  0  0  0  0  0  0  0
    0.3081   -1.0276   10.8024 C   0  0  0  0  0  0  0  0  0  0  0  0
    0.0619   -0.8102   12.1648 C   0  0  0  0  0  0  0  0  0  0  0  0
   -3.0271   -1.7455   16.6502 C   0  0  0  0  0  0  0  0  0  0  0  0
   -4.0504   -2.6388   16.9246 C   0  0  0  0  0  0  0  0  0  0  0  0
   -4.4002   -2.9086   18.2319 C   0  0  0  0  0  0  0  0  0  0  0  0
   -3.7268   -2.2639   19.2641 C   0  0  0  0  0  0  0  0  0  0  0  0
   -2.7238   -1.3628   18.9924 C   0  0  0  0  0  0  0  0  0  0  0  0
   -2.3534   -1.0745   17.6723 C   0  0  0  0  0  0  0  0  0  0  0  0
   -0.2751   -2.8548   15.2412 C   0  0  0  0  0  0  0  0  0  0  0  0
   -1.6203   -2.9064   14.5606 C   0  0  0  0  0  0  0  0  0  0  0  0
   -2.5964    1.9703   15.3222 P   0  0  0  0  0  4  0  0  0  0  0  0
   -3.2901    4.2644   16.6609 C   0  0  0  0  0  0  0  0  0  0  0  0
   -3.1305    5.3068   17.5522 C   0  0  0  0  0  0  0  0  0  0  0  0
   -1.9681    5.4070   18.3020 C   0  0  0  0  0  0  0  0  0  0  0  0
   -0.9683    4.4618   18.1563 C   0  0  0  0  0  0  0  0  0  0  0  0
   -1.1221    3.4117   17.2663 C   0  0  0  0  0  0  0  0  0  0  0  0
   -2.2851    3.3084   16.5172 C   0  0  0  0  0  0  0  0  0  0  0  0
   -4.9346    0.5140   15.0225 C   0  0  0  0  0  0  0  0  0  0  0  0
   -6.0540   -0.1604   15.4723 C   0  0  0  0  0  0  0  0  0  0  0  0
   -6.3857   -0.1336   16.8179 C   0  0  0  0  0  0  0  0  0  0  0  0
   -5.6002    0.5742   17.7119 C   0  0  0  0  0  0  0  0  0  0  0  0
   -4.4849    1.2609   17.2665 C   0  0  0  0  0  0  0  0  0  0  0  0
   -4.1523    1.2437   15.9167 C   0  0  0  0  0  0  0  0  0  0  0  0
   -1.9858    3.4464   13.0961 C   0  0  0  0  0  0  0  0  0  0  0  0
   -2.2386    4.2366   11.9908 C   0  0  0  0  0  0  0  0  0  0  0  0
   -3.5438    4.5363   11.6358 C   0  0  0  0  0  0  0  0  0  0  0  0
   -4.5958    4.0505   12.3940 C   0  0  0  0  0  0  0  0  0  0  0  0
   -4.3517    3.2584   13.5021 C   0  0  0  0  0  0  0  0  0  0  0  0
   -3.0427    2.9456   13.8518 C   0  0  0  0  0  0  0  0  0  0  0  0
    2.4238   -2.9064   13.4118 H   0  0  0  0  0  0  0  0  0  0  0  0
    2.8191   -3.2839   10.9977 H   0  0  0  0  0  0  0  0  0  0  0  0
    1.4543   -2.0574    9.3363 H   0  0  0  0  0  0  0  0  0  0  0  0
   -0.2851   -0.4802   10.0862 H   0  0  0  0  0  0  0  0  0  0  0  0
   -4.5639   -3.1168   16.1029 H   0  0  0  0  0  0  0  0  0  0  0  0
   -5.1919   -3.6088   18.4477 H   0  0  0  0  0  0  0  0  0  0  0  0
   -3.9968   -2.4671   20.2897 H   0  0  0  0  0  0  0  0  0  0  0  0
   -2.2026   -0.8535   19.7882 H   0  0  0  0  0  0  0  0  0  0  0  0
   -0.3761   -2.8571   16.3282 H   0  0  0  0  0  0  0  0  0  0  0  0
    0.3588   -3.6855   14.9289 H   0  0  0  0  0  0  0  0  0  0  0  0
   -1.5135   -2.9085   13.4739 H   0  0  0  0  0  0  0  0  0  0  0  0
   -2.1965   -3.7771   14.8757 H   0  0  0  0  0  0  0  0  0  0  0  0
   -4.1952    4.1850   16.0740 H   0  0  0  0  0  0  0  0  0  0  0  0
   -3.9125    6.0441   17.6624 H   0  0  0  0  0  0  0  0  0  0  0  0
   -1.8448    6.2246   18.9971 H   0  0  0  0  0  0  0  0  0  0  0  0
   -0.0609    4.5388   18.7364 H   0  0  0  0  0  0  0  0  0  0  0  0
   -0.3374    2.6803   17.1510 H   0  0  0  0  0  0  0  0  0  0  0  0
   -4.6524    0.4801   13.9778 H   0  0  0  0  0  0  0  0  0  0  0  0
   -6.6627   -0.7172   14.7750 H   0  0  0  0  0  0  0  0  0  0  0  0
   -7.2535   -0.6710   17.1704 H   0  0  0  0  0  0  0  0  0  0  0  0
   -5.8512    0.5843   18.7621 H   0  0  0  0  0  0  0  0  0  0  0  0
   -3.8634    1.8040   17.9645 H   0  0  0  0  0  0  0  0  0  0  0  0
   -0.9708    3.2056   13.3805 H   0  0  0  0  0  0  0  0  0  0  0  0
   -1.4160    4.6170   11.4039 H   0  0  0  0  0  0  0  0  0  0  0  0
   -3.7429    5.1497   10.7692 H   0  0  0  0  0  0  0  0  0  0  0  0
   -5.6144    4.2884   12.1224 H   0  0  0  0  0  0  0  0  0  0  0  0
   -5.1809    2.8854   14.0871 H   0  0  0  0  0  0  0  0  0  0  0  0
  1 21  1  0  0  0  0
  1  6  1  0  0  0  0
  2  1  1  0  0  0  0
  3  1  1  0  0  0  0
  4  7  1  6  0  0  0
  4  1  1  0  0  0  0
  4 19  1  0  0  0  0
  5  1  1  0  0  0  0
  5 13  1  1  0  0  0
  6 18  1  0  0  0  0
  8  7  1  0  0  0  0
  8 40  1  0  0  0  0
  9  8  2  0  0  0  0
 10 11  2  0  0  0  0
 10  9  1  0  0  0  0
 11 12  1  0  0  0  0
 12  3  1  0  0  0  0
 12  7  2  0  0  0  0
 13 14  2  0  0  0  0
 13 18  1  0  0  0  0
 14 15  1  0  0  0  0
 15 45  1  0  0  0  0
 15 16  2  0  0  0  0
 16 46  1  0  0  0  0
 17 16  1  0  0  0  0
 17 47  1  0  0  0  0
 18 17  2  0  0  0  0
 19 48  1  0  0  0  0
 20 51  1  0  0  0  0
 20  5  1  0  0  0  0
 20 19  1  0  0  0  0
 21 33  1  0  0  0  0
 21 27  1  0  0  0  0
 22 23  1  0  0  0  0
 23 53  1  0  0  0  0
 23 24  2  0  0  0  0
 24 54  1  0  0  0  0
 25 24  1  0  0  0  0
 25 55  1  0  0  0  0
 26 25  2  0  0  0  0
 27 22  2  0  0  0  0
 27 26  1  0  0  0  0
 28 29  2  0  0  0  0
 28 33  1  0  0  0  0
 29 30  1  0  0  0  0
 30 59  1  0  0  0  0
 30 31  2  0  0  0  0
 31 60  1  0  0  0  0
 32 31  1  0  0  0  0
 32 61  1  0  0  0  0
 33 32  2  0  0  0  0
 34 62  1  0  0  0  0
 34 39  1  0  0  0  0
 35 34  2  0  0  0  0
 36 35  1  0  0  0  0
 36 37  2  0  0  0  0
 37 38  1  0  0  0  0
 38 39  2  0  0  0  0
 38 66  1  0  0  0  0
 39 21  1  0  0  0  0
 41  9  1  0  0  0  0
 42 10  1  0  0  0  0
 43 11  1  0  0  0  0
 44 14  1  0  0  0  0
 49 19  1  0  0  0  0
 50 20  1  0  0  0  0
 52 22  1  0  0  0  0
 56 26  1  0  0  0  0
 57 28  1  0  0  0  0
 58 29  1  0  0  0  0
 63 35  1  0  0  0  0
 64 36  1  0  0  0  0
 65 37  1  0  0  0  0
M  END
$$$$
