CSD_code = GIXXUG | q = -1 | S = 0 | Stoichiometry = C2H4Cl4NO2Pt(1-) | MND = 6
 OpenBabel04212202043D

 14 14  0  0  0  0  0  0  0  0999 V2000
    5.5739    2.0269    4.1549 Pt  0  0  0  0  0  0  0  0  0  0  0  0
    5.9803    3.4955    2.4525 Cl  0  0  0  0  0  0  0  0  0  0  0  0
    5.7114    0.1373    2.7448 Cl  0  0  0  0  0  0  0  0  0  0  0  0
    7.8364    1.8996    4.5927 Cl  0  0  0  0  0  0  0  0  0  0  0  0
    5.3476    3.7738    5.7171 Cl  0  0  0  0  0  0  0  0  0  0  0  0
    5.0678    0.6203    5.6900 N   0  0  0  0  0  4  0  0  0  0  0  0
    3.4942    1.9845    3.9138 O   0  0  0  0  0  0  0  0  0  0  0  0
    1.6499    1.2052    4.8444 O   0  0  0  0  0  0  0  0  0  0  0  0
    2.8486    1.3964    4.8340 C   0  0  0  0  0  0  0  0  0  0  0  0
    3.6881    0.9164    6.0714 C   0  0  0  0  0  0  0  0  0  0  0  0
    5.7124    0.6500    6.4793 H   0  0  0  0  0  0  0  0  0  0  0  0
    5.1416   -0.2856    5.2191 H   0  0  0  0  0  0  0  0  0  0  0  0
    3.6847    1.7531    6.7761 H   0  0  0  0  0  0  0  0  0  0  0  0
    3.1858    0.0558    6.5251 H   0  0  0  0  0  0  0  0  0  0  0  0
  1  4  1  0  0  0  0
  1  6  1  0  0  0  0
  1  5  1  0  0  0  0
  2  1  1  0  0  0  0
  3  1  1  0  0  0  0
  6 10  1  0  0  0  0
  6 11  1  0  0  0  0
  7  1  1  0  0  0  0
  7  9  1  0  0  0  0
  9  8  2  0  0  0  0
  9 10  1  0  0  0  0
 10 14  1  0  0  0  0
 10 13  1  0  0  0  0
 12  6  1  0  0  0  0
M  END
$$$$
