CSD_code = GIZWUH | q = -1 | S = 0 | Stoichiometry = C9H12Br2N3O3PRe(1-) | MND = 6
 OpenBabel04212202043D

 31 33  0  0  1  0  0  0  0  0999 V2000
    5.1660    3.5404    2.5312 Re  0  0  0  0  0  0  0  0  0  0  0  0
    5.1079    3.6843   -0.0756 Br  0  0  0  0  0  0  0  0  0  0  0  0
    7.6456    2.7176    2.5584 Br  0  0  0  0  0  0  0  0  0  0  0  0
    6.3644    5.6074    2.2479 P   0  0  1  0  0  4  0  0  0  0  0  0
    4.1991    0.6067    2.3324 O   0  0  0  0  0  1  0  0  0  0  0  0
    5.2472    3.6040    5.6185 O   0  0  0  0  0  1  0  0  0  0  0  0
    2.3398    4.7864    2.5114 O   0  0  0  0  0  1  0  0  0  0  0  0
    8.0347    7.5216    3.3401 N   0  0  1  0  0  0  0  0  0  0  0  0
    8.2491    7.1336    0.9482 N   0  0  2  0  0  0  0  0  0  0  0  0
    6.3198    8.3423    1.8071 N   0  0  1  0  0  0  0  0  0  0  0  0
    7.3954    6.2548    3.6501 C   0  0  0  0  0  0  0  0  0  0  0  0
    7.6436    5.8158    0.9185 C   0  0  0  0  0  0  0  0  0  0  0  0
    5.4450    7.1860    1.9045 C   0  0  0  0  0  0  0  0  0  0  0  0
    8.9329    7.3866    2.2029 C   0  0  0  0  0  0  0  0  0  0  0  0
    7.0552    8.5534    3.0436 C   0  0  0  0  0  0  0  0  0  0  0  0
    7.2732    8.1821    0.7188 C   0  0  0  0  0  0  0  0  0  0  0  0
    4.5267    1.7030    2.4372 C   0  0  0  0  0  2  0  0  0  0  0  0
    5.2291    3.5677    4.4649 C   0  0  0  0  0  2  0  0  0  0  0  0
    3.3911    4.3109    2.5132 C   0  0  0  0  0  2  0  0  0  0  0  0
    8.1692    5.5150    3.8919 H   0  0  0  0  0  0  0  0  0  0  0  0
    6.7563    6.3838    4.5341 H   0  0  0  0  0  0  0  0  0  0  0  0
    7.1725    5.6598   -0.0596 H   0  0  0  0  0  0  0  0  0  0  0  0
    8.4256    5.0580    1.0510 H   0  0  0  0  0  0  0  0  0  0  0  0
    4.7153    7.3563    2.7076 H   0  0  0  0  0  0  0  0  0  0  0  0
    4.8931    7.0764    0.9619 H   0  0  0  0  0  0  0  0  0  0  0  0
    9.6320    6.5691    2.3989 H   0  0  0  0  0  0  0  0  0  0  0  0
    9.4926    8.3243    2.1029 H   0  0  0  0  0  0  0  0  0  0  0  0
    7.5881    9.5080    2.9579 H   0  0  0  0  0  0  0  0  0  0  0  0
    6.3438    8.6160    3.8729 H   0  0  0  0  0  0  0  0  0  0  0  0
    7.8119    9.1302    0.6021 H   0  0  0  0  0  0  0  0  0  0  0  0
    6.7257    7.9645   -0.2025 H   0  0  0  0  0  0  0  0  0  0  0  0
  1  3  1  0  0  0  0
  1 18  1  0  0  0  0
  2  1  1  0  0  0  0
  4  1  1  1  0  0  0
  4 11  1  0  0  0  0
  5 17  1  0  0  0  0
  7 19  1  0  0  0  0
  8 14  1  6  0  0  0
  8 11  1  0  0  0  0
  9 16  1  1  0  0  0
  9 14  1  0  0  0  0
 10 16  1  6  0  0  0
 10 13  1  0  0  0  0
 10 15  1  0  0  0  0
 11 20  1  0  0  0  0
 11 21  1  0  0  0  0
 12  9  1  0  0  0  0
 12 23  1  0  0  0  0
 12  4  1  0  0  0  0
 13  4  1  0  0  0  0
 13 24  1  0  0  0  0
 14 26  1  0  0  0  0
 15  8  1  0  0  0  0
 15 29  1  0  0  0  0
 17  1  1  0  0  0  0
 18  6  1  0  0  0  0
 19  1  1  0  0  0  0
 22 12  1  0  0  0  0
 25 13  1  0  0  0  0
 27 14  1  0  0  0  0
 28 15  1  0  0  0  0
 30 16  1  0  0  0  0
 31 16  1  0  0  0  0
M  END
$$$$
