CSD_code = GIZXAO | q = 0 | S = 0 | Stoichiometry = C15H24BrN6O3P2Re | MND = 6
 OpenBabel04212202043D

 52 57  0  0  1  0  0  0  0  0999 V2000
    2.3221    8.9859   11.2531 Re  0  0  0  0  0  0  0  0  0  0  0  0
    3.9268    9.3468    9.2848 Br  0  0  0  0  0  0  0  0  0  0  0  0
    1.3252   10.9885   10.2697 P   0  0  2  0  0  4  0  0  0  0  0  0
    1.4043    7.3805    9.6532 P   0  0  2  0  0  4  0  0  0  0  0  0
   -0.0173    8.5965   13.2333 O   0  0  0  0  0  1  0  0  0  0  0  0
    3.9664   10.8356   13.1147 O   0  0  0  0  0  1  0  0  0  0  0  0
    4.0644    6.7115   12.4286 O   0  0  0  0  0  1  0  0  0  0  0  0
    0.3733   12.5445    8.2138 N   0  0  2  0  0  0  0  0  0  0  0  0
    1.8071   13.6614    9.8145 N   0  0  1  0  0  0  0  0  0  0  0  0
   -0.4688   13.0772   10.4290 N   0  0  2  0  0  0  0  0  0  0  0  0
    1.9847    4.9888    8.4140 N   0  0  2  0  0  0  0  0  0  0  0  0
    0.5805    6.5233    7.1749 N   0  0  1  0  0  0  0  0  0  0  0  0
   -0.3299    5.3149    9.0748 N   0  0  2  0  0  0  0  0  0  0  0  0
    0.7971   11.1926    8.4979 C   0  0  0  0  0  0  0  0  0  0  0  0
    2.4438   12.4733   10.3346 C   0  0  0  0  0  0  0  0  0  0  0  0
   -0.1613   11.8010   11.0394 C   0  0  0  0  0  0  0  0  0  0  0  0
    1.4453   13.5065    8.4166 C   0  0  0  0  0  0  0  0  0  0  0  0
   -0.7745   12.9362    9.0149 C   0  0  0  0  0  0  0  0  0  0  0  0
    0.6264   14.0237   10.5790 C   0  0  0  0  0  0  0  0  0  0  0  0
    2.5638    5.9682    9.3045 C   0  0  0  0  0  0  0  0  0  0  0  0
    0.9528    7.7273    7.8812 C   0  0  0  0  0  0  0  0  0  0  0  0
   -0.0852    6.3434   10.0638 C   0  0  0  0  0  0  0  0  0  0  0  0
    1.6716    5.5636    7.1175 C   0  0  0  0  0  0  0  0  0  0  0  0
    0.7871    4.3874    8.9744 C   0  0  0  0  0  0  0  0  0  0  0  0
   -0.5851    5.8833    7.7614 C   0  0  0  0  0  0  0  0  0  0  0  0
    0.8651    8.7389   12.5146 C   0  0  0  0  0  2  0  0  0  0  0  0
    3.3338   10.1764   12.4261 C   0  0  0  0  0  2  0  0  0  0  0  0
    3.3950    7.5249   11.9822 C   0  0  0  0  0  2  0  0  0  0  0  0
    1.6356   10.9295    7.8411 H   0  0  0  0  0  0  0  0  0  0  0  0
   -0.0430   10.5174    8.2928 H   0  0  0  0  0  0  0  0  0  0  0  0
    2.7335   12.6514   11.3785 H   0  0  0  0  0  0  0  0  0  0  0  0
    3.3501   12.2631    9.7524 H   0  0  0  0  0  0  0  0  0  0  0  0
   -1.0294   11.1367   10.9412 H   0  0  0  0  0  0  0  0  0  0  0  0
    0.0333   11.9480   12.1096 H   0  0  0  0  0  0  0  0  0  0  0  0
    2.3246   13.1873    7.8515 H   0  0  0  0  0  0  0  0  0  0  0  0
    1.1067   14.4763    8.0399 H   0  0  0  0  0  0  0  0  0  0  0  0
   -1.5691   12.1943    8.8925 H   0  0  0  0  0  0  0  0  0  0  0  0
   -1.1308   13.9030    8.6467 H   0  0  0  0  0  0  0  0  0  0  0  0
    0.2791   15.0003   10.2283 H   0  0  0  0  0  0  0  0  0  0  0  0
    0.8922   14.0978   11.6369 H   0  0  0  0  0  0  0  0  0  0  0  0
    3.4841    6.3655    8.8574 H   0  0  0  0  0  0  0  0  0  0  0  0
    2.8195    5.4796   10.2538 H   0  0  0  0  0  0  0  0  0  0  0  0
    0.1035    8.4206    7.8520 H   0  0  0  0  0  0  0  0  0  0  0  0
    1.8098    8.1924    7.3783 H   0  0  0  0  0  0  0  0  0  0  0  0
    0.0724    5.8744   11.0436 H   0  0  0  0  0  0  0  0  0  0  0  0
   -0.9691    6.9900   10.1362 H   0  0  0  0  0  0  0  0  0  0  0  0
    1.3762    4.7529    6.4447 H   0  0  0  0  0  0  0  0  0  0  0  0
    2.5617    6.0567    6.7189 H   0  0  0  0  0  0  0  0  0  0  0  0
    0.4831    3.5620    8.3235 H   0  0  0  0  0  0  0  0  0  0  0  0
    1.0145    3.9934    9.9686 H   0  0  0  0  0  0  0  0  0  0  0  0
   -1.3963    6.6133    7.8385 H   0  0  0  0  0  0  0  0  0  0  0  0
   -0.8981    5.0730    7.0961 H   0  0  0  0  0  0  0  0  0  0  0  0
  1 28  1  0  0  0  0
  1 27  1  0  0  0  0
  1 26  1  0  0  0  0
  2  1  1  0  0  0  0
  3 15  1  0  0  0  0
  3 16  1  0  0  0  0
  3  1  1  1  0  0  0
  4 22  1  0  0  0  0
  4  1  1  1  0  0  0
  8 17  1  1  0  0  0
  8 14  1  0  0  0  0
  8 18  1  0  0  0  0
  9 17  1  6  0  0  0
  9 15  1  0  0  0  0
  9 19  1  0  0  0  0
 10 18  1  6  0  0  0
 10 19  1  0  0  0  0
 10 16  1  0  0  0  0
 11 23  1  6  0  0  0
 11 24  1  0  0  0  0
 11 20  1  0  0  0  0
 12 23  1  1  0  0  0
 12 25  1  0  0  0  0
 12 21  1  0  0  0  0
 13 25  1  6  0  0  0
 13 22  1  0  0  0  0
 14  3  1  0  0  0  0
 15 31  1  0  0  0  0
 16 34  1  0  0  0  0
 19 40  1  0  0  0  0
 20  4  1  0  0  0  0
 20 42  1  0  0  0  0
 21  4  1  0  0  0  0
 22 46  1  0  0  0  0
 22 45  1  0  0  0  0
 24 13  1  0  0  0  0
 24 50  1  0  0  0  0
 25 51  1  0  0  0  0
 26  5  1  0  0  0  0
 27  6  1  0  0  0  0
 28  7  1  0  0  0  0
 29 14  1  0  0  0  0
 30 14  1  0  0  0  0
 32 15  1  0  0  0  0
 33 16  1  0  0  0  0
 35 17  1  0  0  0  0
 36 17  1  0  0  0  0
 37 18  1  0  0  0  0
 38 18  1  0  0  0  0
 39 19  1  0  0  0  0
 41 20  1  0  0  0  0
 43 21  1  0  0  0  0
 44 21  1  0  0  0  0
 47 23  1  0  0  0  0
 48 23  1  0  0  0  0
 49 24  1  0  0  0  0
 52 25  1  0  0  0  0
M  END
$$$$
