CSD_code = GOCJIU | q = 0 | S = 0 | Stoichiometry = C22H28Cl2HfSi | MND = 12
 OpenBabel04212202043D

 54 57  0  0  1  0  0  0  0  0999 V2000
    0.6659   10.7673    3.1911 C   0  0  2  0  0  3  0  0  0  0  0  0
    0.2144    9.6027    3.9027 C   0  0  2  0  0  0  0  0  0  0  0  0
    0.4552    8.4324    3.1472 C   0  0  2  0  0  3  0  0  0  0  0  0
    1.5672    8.1002    0.8073 C   0  0  0  0  0  0  0  0  0  0  0  0
    1.9664    8.7909   -0.3230 C   0  0  0  0  0  0  0  0  0  0  0  0
    1.9391   10.2071   -0.3618 C   0  0  0  0  0  0  0  0  0  0  0  0
    1.5148   10.9542    0.7240 C   0  0  0  0  0  0  0  0  0  0  0  0
    1.1579   10.2863    1.9170 C   0  0  0  0  0  0  0  0  0  0  0  0
    1.0896    8.8419    1.9145 C   0  0  0  0  0  0  0  0  0  0  0  0
   -0.6098    9.5872    5.1604 C   0  0  0  0  0  0  0  0  0  0  0  0
   -1.6611    9.4414    4.9012 H   0  0  0  0  0  0  0  0  0  0  0  0
   -0.5352   10.5214    5.7045 H   0  0  0  0  0  0  0  0  0  0  0  0
   -0.3136    8.7667    5.8151 H   0  0  0  0  0  0  0  0  0  0  0  0
   -0.1508    7.0903    3.4622 C   0  0  0  0  0  0  0  0  0  0  0  0
   -1.0256    7.2204    4.0970 H   0  0  0  0  0  0  0  0  0  0  0  0
    0.5478    6.4328    3.9824 H   0  0  0  0  0  0  0  0  0  0  0  0
   -0.4714    6.5973    2.5480 H   0  0  0  0  0  0  0  0  0  0  0  0
    1.6920    6.6033    0.9020 C   0  0  0  0  0  0  0  0  0  0  0  0
    0.8255    6.0983    0.4729 H   0  0  0  0  0  0  0  0  0  0  0  0
    1.8001    6.2992    1.9392 H   0  0  0  0  0  0  0  0  0  0  0  0
    2.5798    6.2688    0.3715 H   0  0  0  0  0  0  0  0  0  0  0  0
    2.4103    8.0381   -1.5466 C   0  0  0  0  0  0  0  0  0  0  0  0
    3.4980    7.9649   -1.5723 H   0  0  0  0  0  0  0  0  0  0  0  0
    2.0807    8.5420   -2.4509 H   0  0  0  0  0  0  0  0  0  0  0  0
    1.9989    7.0341   -1.5600 H   0  0  0  0  0  0  0  0  0  0  0  0
    2.4012   10.9037   -1.6117 C   0  0  0  0  0  0  0  0  0  0  0  0
    1.6256   10.8850   -2.3785 H   0  0  0  0  0  0  0  0  0  0  0  0
    3.2860   10.4133   -2.0086 H   0  0  0  0  0  0  0  0  0  0  0  0
    2.6592   11.9383   -1.4134 H   0  0  0  0  0  0  0  0  0  0  0  0
    1.3068   12.4366    0.6019 C   0  0  0  0  0  0  0  0  0  0  0  0
    2.2470   12.9844    0.6326 H   0  0  0  0  0  0  0  0  0  0  0  0
    0.6672   12.7863    1.4056 H   0  0  0  0  0  0  0  0  0  0  0  0
    0.8155   12.6634   -0.3424 H   0  0  0  0  0  0  0  0  0  0  0  0
    2.0672   13.8020    3.4198 C   0  0  0  0  0  0  0  0  0  0  0  0
    1.3616   14.4417    2.9029 H   0  0  0  0  0  0  0  0  0  0  0  0
    2.8563   13.5391    2.7262 H   0  0  0  0  0  0  0  0  0  0  0  0
    2.5132   14.3895    4.2169 H   0  0  0  0  0  0  0  0  0  0  0  0
   -0.1444   12.9894    5.3393 C   0  0  0  0  0  0  0  0  0  0  0  0
   -0.0697   14.0706    5.3652 H   0  0  0  0  0  0  0  0  0  0  0  0
   -0.0531   12.6406    6.3625 H   0  0  0  0  0  0  0  0  0  0  0  0
   -1.1393   12.7421    4.9857 H   0  0  0  0  0  0  0  0  0  0  0  0
    2.6063   11.3485    5.0945 C   0  0  2  0  0  0  0  0  0  0  0  0
    3.9421   11.2786    4.6031 C   0  0  0  0  0  0  0  0  0  0  0  0
    4.4029   11.9944    3.9360 H   0  0  0  0  0  0  0  0  0  0  0  0
    4.6176   10.2339    5.2654 C   0  0  0  0  0  0  0  0  0  0  0  0
    5.6676    9.9998    5.1700 H   0  0  0  0  0  0  0  0  0  0  0  0
    3.7146    9.6243    6.1513 C   0  0  0  0  0  0  0  0  0  0  0  0
    3.9554    8.8507    6.8657 H   0  0  0  0  0  0  0  0  0  0  0  0
    2.4669   10.2716    6.0261 C   0  0  0  0  0  0  0  0  0  0  0  0
    1.6331   10.1282    6.6992 H   0  0  0  0  0  0  0  0  0  0  0  0
    4.2456    9.4154    2.1160 Cl  0  0  0  0  0  0  0  0  0  0  0  0
    3.1067    7.1882    4.3010 Cl  0  0  0  0  0  0  0  0  0  0  0  0
    2.6251    9.3994    3.7659 Hf  0  0  0  0  0  0  0  0  0  0  0  0
    1.2191   12.2842    4.1993 Si  0  0  0  0  0  0  0  0  0  0  0  0
  1  8  1  1  0  0  0
  1  2  1  0  0  0  0
  1 54  1  0  0  0  0
  2 10  1  1  0  0  0
  3 14  1  6  0  0  0
  3  2  1  0  0  0  0
  4 18  1  0  0  0  0
  4  9  1  0  0  0  0
  5  4  2  0  0  0  0
  6  5  1  0  0  0  0
  6  7  2  0  0  0  0
  7  8  1  0  0  0  0
  9  8  2  0  0  0  0
  9  3  1  0  0  0  0
 10 12  1  0  0  0  0
 10 13  1  0  0  0  0
 11 10  1  0  0  0  0
 14 16  1  0  0  0  0
 14 15  1  0  0  0  0
 17 14  1  0  0  0  0
 18 20  1  0  0  0  0
 19 18  1  0  0  0  0
 21 18  1  0  0  0  0
 22  5  1  0  0  0  0
 23 22  1  0  0  0  0
 24 22  1  0  0  0  0
 25 22  1  0  0  0  0
 26 29  1  0  0  0  0
 26  6  1  0  0  0  0
 27 26  1  0  0  0  0
 28 26  1  0  0  0  0
 30 31  1  0  0  0  0
 30  7  1  0  0  0  0
 30 32  1  0  0  0  0
 33 30  1  0  0  0  0
 34 54  1  0  0  0  0
 34 37  1  0  0  0  0
 35 34  1  0  0  0  0
 36 34  1  0  0  0  0
 38 39  1  0  0  0  0
 38 40  1  0  0  0  0
 41 38  1  0  0  0  0
 42 43  1  1  0  0  0
 42 49  1  0  0  0  0
 43 45  2  0  0  0  0
 44 43  1  0  0  0  0
 45 47  1  0  0  0  0
 46 45  1  0  0  0  0
 47 48  1  0  0  0  0
 49 47  2  0  0  0  0
 49 50  1  0  0  0  0
 51 53  1  0  0  0  0
 53  2  1  0  0  0  0
 53 52  1  0  0  0  0
 53 42  1  0  0  0  0
 54 42  1  0  0  0  0
 54 38  1  0  0  0  0
M  END
$$$$
