CSD_code = GOCLUF | q = 0 | S = 0 | Stoichiometry = C15H32BrNiOP3 | MND = 5
 OpenBabel04212202043D

 53 53  0  0  0  0  0  0  0  0999 V2000
    0.4444    2.8435    2.9479 Ni  0  0  0  0  0  0  0  0  0  0  0  0
    0.8736    4.6030    4.4713 Br  0  0  0  0  0  0  0  0  0  0  0  0
   -1.5596    2.6830    3.7856 P   0  0  0  0  0  4  0  0  0  0  0  0
    2.5954    2.5493    2.7703 P   0  0  0  0  0  4  0  0  0  0  0  0
   -0.0063    4.1714    0.9274 P   0  0  0  0  0  4  0  0  0  0  0  0
    0.2797    0.9817    2.5166 C   0  0  0  0  0  0  0  0  0  0  0  0
   -0.0462    0.5783    1.2331 C   0  0  0  0  0  0  0  0  0  0  0  0
   -0.2115    1.3214    0.4602 H   0  0  0  0  0  0  0  0  0  0  0  0
   -0.1663   -0.7661    0.9142 C   0  0  0  0  0  0  0  0  0  0  0  0
   -0.4216   -1.0586   -0.0945 H   0  0  0  0  0  0  0  0  0  0  0  0
    0.0414   -1.7250    1.8889 C   0  0  0  0  0  0  0  0  0  0  0  0
   -0.0500   -2.7742    1.6487 H   0  0  0  0  0  0  0  0  0  0  0  0
    0.3675   -1.3435    3.1771 C   0  0  0  0  0  0  0  0  0  0  0  0
    0.5346   -2.0722    3.9561 H   0  0  0  0  0  0  0  0  0  0  0  0
    0.4870    0.0042    3.4939 C   0  0  0  0  0  0  0  0  0  0  0  0
    0.8108    0.3381    4.7797 O   0  0  0  0  0  0  0  0  0  0  0  0
    0.8565    1.3115    4.8413 H   0  0  0  0  0  0  0  0  0  0  0  0
   -2.4997    4.2544    3.9137 C   0  0  0  0  0  0  0  0  0  0  0  0
   -2.5407    4.7537    2.9478 H   0  0  0  0  0  0  0  0  0  0  0  0
   -1.9968    4.9108    4.6216 H   0  0  0  0  0  0  0  0  0  0  0  0
   -3.5123    4.0458    4.2578 H   0  0  0  0  0  0  0  0  0  0  0  0
   -2.8009    1.6116    2.9624 C   0  0  0  0  0  0  0  0  0  0  0  0
   -2.9006    1.8997    1.9177 H   0  0  0  0  0  0  0  0  0  0  0  0
   -3.7652    1.7063    3.4598 H   0  0  0  0  0  0  0  0  0  0  0  0
   -2.4706    0.5754    3.0024 H   0  0  0  0  0  0  0  0  0  0  0  0
   -1.7124    2.1090    5.5189 C   0  0  0  0  0  0  0  0  0  0  0  0
   -1.0785    2.7229    6.1589 H   0  0  0  0  0  0  0  0  0  0  0  0
   -1.4110    1.0667    5.6047 H   0  0  0  0  0  0  0  0  0  0  0  0
   -2.7503    2.2124    5.8345 H   0  0  0  0  0  0  0  0  0  0  0  0
    3.4935    1.9430    4.2477 C   0  0  0  0  0  0  0  0  0  0  0  0
    3.2664    2.5880    5.0967 H   0  0  0  0  0  0  0  0  0  0  0  0
    4.5643    1.9743    4.0480 H   0  0  0  0  0  0  0  0  0  0  0  0
    3.1997    0.9214    4.4815 H   0  0  0  0  0  0  0  0  0  0  0  0
    3.2516    1.4156    1.4855 C   0  0  0  0  0  0  0  0  0  0  0  0
    2.8762    1.7111    0.5078 H   0  0  0  0  0  0  0  0  0  0  0  0
    2.9152    0.4009    1.6897 H   0  0  0  0  0  0  0  0  0  0  0  0
    4.3404    1.4448    1.4813 H   0  0  0  0  0  0  0  0  0  0  0  0
    3.5839    4.0573    2.4265 C   0  0  0  0  0  0  0  0  0  0  0  0
    3.2121    4.5617    1.5370 H   0  0  0  0  0  0  0  0  0  0  0  0
    4.6279    3.7826    2.2781 H   0  0  0  0  0  0  0  0  0  0  0  0
    3.4976    4.7376    3.2719 H   0  0  0  0  0  0  0  0  0  0  0  0
   -1.6422    4.1302    0.0746 C   0  0  0  0  0  0  0  0  0  0  0  0
   -1.8080    3.1394   -0.3452 H   0  0  0  0  0  0  0  0  0  0  0  0
   -1.6686    4.8674   -0.7267 H   0  0  0  0  0  0  0  0  0  0  0  0
   -2.4432    4.3416    0.7797 H   0  0  0  0  0  0  0  0  0  0  0  0
    1.0462    4.0419   -0.5829 C   0  0  0  0  0  0  0  0  0  0  0  0
    0.7460    4.7884   -1.3170 H   0  0  0  0  0  0  0  0  0  0  0  0
    0.9379    3.0494   -1.0171 H   0  0  0  0  0  0  0  0  0  0  0  0
    2.0933    4.1924   -0.3296 H   0  0  0  0  0  0  0  0  0  0  0  0
    0.1289    5.9768    1.2366 C   0  0  0  0  0  0  0  0  0  0  0  0
   -0.0747    6.5452    0.3299 H   0  0  0  0  0  0  0  0  0  0  0  0
    1.1294    6.2039    1.6010 H   0  0  0  0  0  0  0  0  0  0  0  0
   -0.5736    6.2602    2.0188 H   0  0  0  0  0  0  0  0  0  0  0  0
  1  3  1  0  0  0  0
  1  2  1  0  0  0  0
  3 18  1  0  0  0  0
  3 26  1  0  0  0  0
  4  1  1  0  0  0  0
  4 30  1  0  0  0  0
  5 50  1  0  0  0  0
  5  1  1  0  0  0  0
  6  1  1  0  0  0  0
  6 15  1  0  0  0  0
  7  6  2  0  0  0  0
  8  7  1  0  0  0  0
  9  7  1  0  0  0  0
  9 11  2  0  0  0  0
 10  9  1  0  0  0  0
 11 13  1  0  0  0  0
 12 11  1  0  0  0  0
 13 15  2  0  0  0  0
 13 14  1  0  0  0  0
 15 16  1  0  0  0  0
 16 17  1  0  0  0  0
 18 21  1  0  0  0  0
 18 20  1  0  0  0  0
 19 18  1  0  0  0  0
 22 25  1  0  0  0  0
 22 24  1  0  0  0  0
 22  3  1  0  0  0  0
 23 22  1  0  0  0  0
 26 28  1  0  0  0  0
 26 29  1  0  0  0  0
 26 27  1  0  0  0  0
 30 33  1  0  0  0  0
 30 31  1  0  0  0  0
 32 30  1  0  0  0  0
 34 36  1  0  0  0  0
 34  4  1  0  0  0  0
 35 34  1  0  0  0  0
 37 34  1  0  0  0  0
 38  4  1  0  0  0  0
 38 41  1  0  0  0  0
 39 38  1  0  0  0  0
 40 38  1  0  0  0  0
 42 45  1  0  0  0  0
 42  5  1  0  0  0  0
 43 42  1  0  0  0  0
 44 42  1  0  0  0  0
 46 49  1  0  0  0  0
 46  5  1  0  0  0  0
 47 46  1  0  0  0  0
 48 46  1  0  0  0  0
 50 52  1  0  0  0  0
 50 53  1  0  0  0  0
 51 50  1  0  0  0  0
M  END
$$$$
