CSD_code = GOCQUL | q = 0 | S = 0 | Stoichiometry = C9H10Cl2N2Zn | MND = 4
 OpenBabel04212202043D

 24 26  0  0  0  0  0  0  0  0999 V2000
    6.1533    1.7998    1.2725 Zn  0  0  0  0  0  0  0  0  0  0  0  0
    6.1162   -0.3076    1.8801 Cl  0  0  0  0  0  0  0  0  0  0  0  0
    5.3637    3.6592    2.1484 Cl  0  0  0  0  0  0  0  0  0  0  0  0
    8.1429    2.2883    0.5991 N   0  0  0  0  0  0  0  0  0  0  0  0
    5.8318    2.0404   -0.8310 N   0  0  0  0  0  0  0  0  0  0  0  0
    6.9347    2.4966   -1.4327 C   0  0  0  0  0  0  0  0  0  0  0  0
    4.7101    1.9354   -1.5197 C   0  0  0  0  0  0  0  0  0  0  0  0
    3.8526    1.5611   -0.9781 H   0  0  0  0  0  0  0  0  0  0  0  0
    4.6205    2.2799   -2.8612 C   0  0  0  0  0  0  0  0  0  0  0  0
    3.6843    2.1789   -3.3858 H   0  0  0  0  0  0  0  0  0  0  0  0
    5.7552    2.7547   -3.5010 C   0  0  0  0  0  0  0  0  0  0  0  0
    5.7248    3.0350   -4.5430 H   0  0  0  0  0  0  0  0  0  0  0  0
    6.9306    2.8641   -2.7787 C   0  0  0  0  0  0  0  0  0  0  0  0
    7.8350    3.2305   -3.2392 H   0  0  0  0  0  0  0  0  0  0  0  0
    8.1429    2.5968   -0.6339 C   0  0  0  0  0  0  0  0  0  0  0  0
    9.0440    2.9484   -1.1422 H   0  0  0  0  0  0  0  0  0  0  0  0
    9.2855    2.3699    1.3822 C   0  0  0  0  0  0  0  0  0  0  0  0
   10.1837    2.7253    0.8773 H   0  0  0  0  0  0  0  0  0  0  0  0
    9.4451    1.3340    2.4780 C   0  0  0  0  0  0  0  0  0  0  0  0
    8.6748    0.5808    2.5467 H   0  0  0  0  0  0  0  0  0  0  0  0
   10.4468    0.9741    2.6564 H   0  0  0  0  0  0  0  0  0  0  0  0
    9.0998    2.7274    2.8429 C   0  0  0  0  0  0  0  0  0  0  0  0
    8.0899    2.9387    3.1626 H   0  0  0  0  0  0  0  0  0  0  0  0
    9.8526    3.3637    3.2823 H   0  0  0  0  0  0  0  0  0  0  0  0
  1  2  1  0  0  0  0
  1  3  1  0  0  0  0
  4  1  1  0  0  0  0
  4 17  1  0  0  0  0
  5  1  1  0  0  0  0
  6  5  1  0  0  0  0
  6 15  2  0  0  0  0
  7  8  1  0  0  0  0
  7  5  1  0  0  0  0
  9  7  2  0  0  0  0
 10  9  1  0  0  0  0
 11  9  1  0  0  0  0
 11 13  2  0  0  0  0
 12 11  1  0  0  0  0
 13  6  1  0  0  0  0
 14 13  1  0  0  0  0
 15  4  1  0  0  0  0
 16 15  1  0  0  0  0
 17 19  1  0  0  0  0
 17 22  1  0  0  0  0
 18 17  1  0  0  0  0
 19 20  1  0  0  0  0
 19 21  1  0  0  0  0
 19 22  1  0  0  0  0
 22 23  1  0  0  0  0
 22 24  1  0  0  0  0
M  END
$$$$
