CSD_code = GOCVAX | q = 1 | S = 0 | Stoichiometry = C15H14ClN4Pd(1+) | MND = 4
 OpenBabel04212202043D

 35 38  0  0  1  0  0  0  0  0999 V2000
    3.7496    7.5996    3.7339 Pd  0  0  1  0  0  0  0  0  0  0  0  0
    3.8032    5.3833    3.7616 Cl  0  0  0  0  0  0  0  0  0  0  0  0
    2.2685    7.0151    6.4432 N   0  0  0  0  0  0  0  0  0  0  0  0
    2.9738    9.0139    6.0186 N   0  0  0  0  0  0  0  0  0  0  0  0
    3.7035    9.7128    3.9525 N   0  0  0  0  0  0  0  0  0  0  0  0
    2.8463    7.7648    5.4831 C   0  0  0  0  0  0  0  0  0  0  0  0
    2.0339    7.7917    7.5801 C   0  0  0  0  0  0  0  0  0  0  0  0
    3.4542   10.0590    5.2267 C   0  0  1  0  0  3  0  0  0  0  0  0
    1.4286    7.2048    8.7167 C   0  0  0  0  0  0  0  0  0  0  0  0
    1.2624    7.8195    9.5855 H   0  0  0  0  0  0  0  0  0  0  0  0
    4.0369   10.6590    3.0699 C   0  0  0  0  0  0  0  0  0  0  0  0
    1.8940    5.6971    6.4054 C   0  0  0  0  0  0  0  0  0  0  0  0
    2.1006    5.1694    5.4858 H   0  0  0  0  0  0  0  0  0  0  0  0
    4.8561    7.3886    2.0618 N   0  0  0  0  0  2  0  0  0  0  0  0
    4.1741   10.2614    1.6400 C   0  0  0  0  0  0  0  0  0  0  0  0
    5.1946    9.9329    1.4372 H   0  0  0  0  0  0  0  0  0  0  0  0
    3.9553   11.1032    0.9884 H   0  0  0  0  0  0  0  0  0  0  0  0
    3.4868    9.4403    1.4154 H   0  0  0  0  0  0  0  0  0  0  0  0
    4.0244   12.3264    4.7983 C   0  0  0  0  0  0  0  0  0  0  0  0
    4.1707   13.3423    5.1283 H   0  0  0  0  0  0  0  0  0  0  0  0
    4.2142   11.9806    3.4727 C   0  0  0  0  0  0  0  0  0  0  0  0
    4.4938   12.7248    2.7451 H   0  0  0  0  0  0  0  0  0  0  0  0
    1.3139    5.1354    7.4908 C   0  0  0  0  0  0  0  0  0  0  0  0
    1.0229    4.0989    7.4594 H   0  0  0  0  0  0  0  0  0  0  0  0
    1.0789    5.8937    8.6704 C   0  0  0  0  0  0  0  0  0  0  0  0
    0.6175    5.4162    9.5191 H   0  0  0  0  0  0  0  0  0  0  0  0
    3.6120   11.3538    5.6964 C   0  0  0  0  0  0  0  0  0  0  0  0
    3.4226   11.5987    6.7272 H   0  0  0  0  0  0  0  0  0  0  0  0
    2.4837    9.0566    7.2947 C   0  0  0  0  0  0  0  0  0  0  0  0
    2.4750    9.9330    7.9059 H   0  0  0  0  0  0  0  0  0  0  0  0
    5.3999    6.7237    1.2966 C   0  0  0  0  0  2  0  0  0  0  0  0
    6.0761    5.9393    0.3253 C   0  0  0  0  0  0  0  0  0  0  0  0
    5.4928    5.9112   -0.5955 H   0  0  0  0  0  0  0  0  0  0  0  0
    6.1907    4.9234    0.7058 H   0  0  0  0  0  0  0  0  0  0  0  0
    7.0605    6.3595    0.1190 H   0  0  0  0  0  0  0  0  0  0  0  0
  1  2  1  6  0  0  0
  1  5  1  0  0  0  0
  1  6  2  0  0  0  0
  3  7  1  0  0  0  0
  4 29  1  0  0  0  0
  5  8  1  0  0  0  0
  6  4  1  0  0  0  0
  6  3  1  0  0  0  0
  7  9  1  0  0  0  0
  8 27  1  6  0  0  0
  8  4  1  0  0  0  0
  9 10  1  0  0  0  0
 11 21  2  0  0  0  0
 11  5  1  0  0  0  0
 12  3  1  0  0  0  0
 12 23  2  0  0  0  0
 13 12  1  0  0  0  0
 14  1  1  0  0  0  0
 15 11  1  0  0  0  0
 16 15  1  0  0  0  0
 17 15  1  0  0  0  0
 18 15  1  0  0  0  0
 19 20  1  0  0  0  0
 19 27  2  0  0  0  0
 21 19  1  0  0  0  0
 22 21  1  0  0  0  0
 23 25  1  0  0  0  0
 24 23  1  0  0  0  0
 25  9  2  0  0  0  0
 25 26  1  0  0  0  0
 27 28  1  0  0  0  0
 29  7  2  0  0  0  0
 29 30  1  0  0  0  0
 31 14  1  0  0  0  0
 32 34  1  0  0  0  0
 32 31  1  0  0  0  0
 33 32  1  0  0  0  0
 35 32  1  0  0  0  0
M  END
$$$$
