CSD_code = GODCOU | q = 0 | S = 0 | Stoichiometry = C21H12Br2Cl2N2S2Zn | MND = 4
 OpenBabel04212202043D

 42 47  0  0  0  0  0  0  0  0999 V2000
    3.2882    1.2603    8.1758 S   0  0  0  0  0  0  0  0  0  0  0  0
    3.2556   -1.7818    7.4473 Br  0  0  0  0  0  0  0  0  0  0  0  0
    6.1987    2.9507   10.2861 Cl  0  0  0  0  0  0  0  0  0  0  0  0
    5.4548    5.0072   10.1292 Zn  0  0  0  0  0  0  0  0  0  0  0  0
    4.0852    0.4905    5.8434 C   0  0  0  0  0  0  0  0  0  0  0  0
    4.3444   -0.1307    5.0059 H   0  0  0  0  0  0  0  0  0  0  0  0
    1.5337    6.4355    2.8282 Br  0  0  0  0  0  0  0  0  0  0  0  0
    2.2371    4.4858    5.1720 S   0  0  0  0  0  0  0  0  0  0  0  0
    6.1410    6.6689    8.8572 Cl  0  0  0  0  0  0  0  0  0  0  0  0
    4.2041    1.8966    5.8604 C   0  0  0  0  0  0  0  0  0  0  0  0
    4.5786    2.4645    5.0280 H   0  0  0  0  0  0  0  0  0  0  0  0
    3.8042    2.4580    7.0340 C   0  0  0  0  0  0  0  0  0  0  0  0
    3.8450    3.9052    7.4215 C   0  0  0  0  0  0  0  0  0  0  0  0
    4.8615    4.1494    7.7688 H   0  0  0  0  0  0  0  0  0  0  0  0
    3.5366    4.8234    6.2774 C   0  0  0  0  0  0  0  0  0  0  0  0
    4.1542    5.9981    5.9827 C   0  0  0  0  0  0  0  0  0  0  0  0
    4.9752    6.3901    6.5578 H   0  0  0  0  0  0  0  0  0  0  0  0
    3.6052    6.6520    4.8577 C   0  0  0  0  0  0  0  0  0  0  0  0
    3.9623    7.5868    4.4668 H   0  0  0  0  0  0  0  0  0  0  0  0
    2.8970    4.1888    8.5589 C   0  0  0  0  0  0  0  0  0  0  0  0
    1.5213    3.9247    8.4333 C   0  0  0  0  0  0  0  0  0  0  0  0
    1.1417    3.5101    7.5123 H   0  0  0  0  0  0  0  0  0  0  0  0
    0.6874    4.1952    9.4857 C   0  0  0  0  0  0  0  0  0  0  0  0
   -0.3732    4.0031    9.4175 H   0  0  0  0  0  0  0  0  0  0  0  0
    1.2214    4.7251   10.6751 C   0  0  0  0  0  0  0  0  0  0  0  0
    0.4257    5.0255   11.8159 C   0  0  0  0  0  0  0  0  0  0  0  0
   -0.6366    4.8411   11.7587 H   0  0  0  0  0  0  0  0  0  0  0  0
    0.9862    5.5278   12.9425 C   0  0  0  0  0  0  0  0  0  0  0  0
    0.3832    5.7564   13.8085 H   0  0  0  0  0  0  0  0  0  0  0  0
    2.3879    5.7650   13.0206 C   0  0  0  0  0  0  0  0  0  0  0  0
    3.0092    6.2778   14.1724 C   0  0  0  0  0  0  0  0  0  0  0  0
    2.4098    6.5081   15.0411 H   0  0  0  0  0  0  0  0  0  0  0  0
    4.3681    6.4755   14.1723 C   0  0  0  0  0  0  0  0  0  0  0  0
    4.8779    6.8687   15.0372 H   0  0  0  0  0  0  0  0  0  0  0  0
    5.0982    6.1540   13.0242 C   0  0  0  0  0  0  0  0  0  0  0  0
    6.1698    6.2936   12.9912 H   0  0  0  0  0  0  0  0  0  0  0  0
    3.2106    5.4773   11.9076 C   0  0  0  0  0  0  0  0  0  0  0  0
    2.6128    4.9546   10.7124 C   0  0  0  0  0  0  0  0  0  0  0  0
    3.4047    4.6909    9.6625 N   0  0  0  0  0  0  0  0  0  0  0  0
    4.5383    5.6734   11.9373 N   0  0  0  0  0  0  0  0  0  0  0  0
    2.5687    5.9576    4.3207 C   0  0  0  0  0  0  0  0  0  0  0  0
    3.6032    0.0110    7.0195 C   0  0  0  0  0  0  0  0  0  0  0  0
  4  3  1  0  0  0  0
  4 40  1  0  0  0  0
  5 10  1  0  0  0  0
  5 42  2  0  0  0  0
  6  5  1  0  0  0  0
  7 41  1  0  0  0  0
  8 15  1  0  0  0  0
  9  4  1  0  0  0  0
 10 12  2  0  0  0  0
 11 10  1  0  0  0  0
 12 13  1  0  0  0  0
 12  1  1  0  0  0  0
 13 14  1  0  0  0  0
 13 20  1  0  0  0  0
 15 13  1  0  0  0  0
 16 15  2  0  0  0  0
 16 17  1  0  0  0  0
 18 16  1  0  0  0  0
 19 18  1  0  0  0  0
 20 39  1  0  0  0  0
 21 20  2  0  0  0  0
 21 23  1  0  0  0  0
 22 21  1  0  0  0  0
 23 25  2  0  0  0  0
 24 23  1  0  0  0  0
 25 38  1  0  0  0  0
 25 26  1  0  0  0  0
 26 28  2  0  0  0  0
 27 26  1  0  0  0  0
 28 30  1  0  0  0  0
 28 29  1  0  0  0  0
 30 31  2  0  0  0  0
 31 32  1  0  0  0  0
 33 31  1  0  0  0  0
 33 34  1  0  0  0  0
 35 33  2  0  0  0  0
 36 35  1  0  0  0  0
 37 40  1  0  0  0  0
 37 30  1  0  0  0  0
 38 37  2  0  0  0  0
 39  4  1  0  0  0  0
 39 38  1  0  0  0  0
 40 35  1  0  0  0  0
 41 18  2  0  0  0  0
 41  8  1  0  0  0  0
 42  2  1  0  0  0  0
 42  1  1  0  0  0  0
M  END
$$$$
