CSD_code = GODGEL | q = 0 | S = 0 | Stoichiometry = C14H16Cl2N2NiS2 | MND = 6
 OpenBabel04212202043D

 37 41  0  0  1  0  0  0  0  0999 V2000
    7.2649    2.1038    3.5920 Ni  0  0  0  0  0  0  0  0  0  0  0  0
    6.2060    0.6417    4.6555 Cl  0  0  0  0  0  0  0  0  0  0  0  0
    6.0329    3.7631    4.7068 S   0  0  1  0  0  3  0  0  0  0  0  0
    5.5241    2.4652    2.1000 N   0  0  0  0  0  0  0  0  0  0  0  0
    6.5140    5.2179    3.6913 C   0  0  0  0  0  0  0  0  0  0  0  0
    6.0001    5.1477    2.7331 H   0  0  0  0  0  0  0  0  0  0  0  0
    6.1925    6.1182    4.2189 H   0  0  0  0  0  0  0  0  0  0  0  0
    4.3871    3.3939    4.0371 C   0  0  0  0  0  0  0  0  0  0  0  0
    4.0181    2.6057    4.6996 H   0  0  0  0  0  0  0  0  0  0  0  0
    3.7621    4.2815    4.1488 H   0  0  0  0  0  0  0  0  0  0  0  0
    4.3759    2.8798    2.6250 C   0  0  2  0  0  3  0  0  0  0  0  0
    3.1751    2.8133    1.9266 C   0  0  0  0  0  0  0  0  0  0  0  0
    2.2622    3.1636    2.3839 H   0  0  0  0  0  0  0  0  0  0  0  0
    3.1773    2.2800    0.6501 C   0  0  0  0  0  0  0  0  0  0  0  0
    2.2585    2.2095    0.0868 H   0  0  0  0  0  0  0  0  0  0  0  0
    4.3761    1.8366    0.1123 C   0  0  0  0  0  0  0  0  0  0  0  0
    4.4194    1.4101   -0.8768 H   0  0  0  0  0  0  0  0  0  0  0  0
    5.5253    1.9542    0.8737 C   0  0  0  0  0  0  0  0  0  0  0  0
    6.4892    1.6270    0.5058 H   0  0  0  0  0  0  0  0  0  0  0  0
    8.3237    0.6418    2.5283 Cl  0  0  0  0  0  0  0  0  0  0  0  0
    8.0159    5.2179    3.4930 C   0  0  0  0  0  0  0  0  0  0  0  0
    8.4969    3.7631    2.4774 S   0  0  1  0  0  3  0  0  0  0  0  0
    9.0056    2.4650    5.0840 N   0  0  0  0  0  0  0  0  0  0  0  0
   10.1538    2.8797    4.5592 C   0  0  2  0  0  3  0  0  0  0  0  0
   10.1426    3.3938    3.1470 C   0  0  0  0  0  0  0  0  0  0  0  0
   10.5116    2.6055    2.4846 H   0  0  0  0  0  0  0  0  0  0  0  0
   10.7678    4.2813    3.0353 H   0  0  0  0  0  0  0  0  0  0  0  0
   11.3545    2.8135    5.2578 C   0  0  0  0  0  0  0  0  0  0  0  0
   12.2675    3.1639    4.8005 H   0  0  0  0  0  0  0  0  0  0  0  0
   11.3522    2.2802    6.5343 C   0  0  0  0  0  0  0  0  0  0  0  0
   12.2710    2.2100    7.0977 H   0  0  0  0  0  0  0  0  0  0  0  0
   10.1534    1.8367    7.0719 C   0  0  0  0  0  0  0  0  0  0  0  0
   10.1102    1.4102    8.0611 H   0  0  0  0  0  0  0  0  0  0  0  0
    9.0043    1.9541    6.3104 C   0  0  0  0  0  0  0  0  0  0  0  0
    8.0404    1.6267    6.6782 H   0  0  0  0  0  0  0  0  0  0  0  0
    8.5298    5.1475    4.4512 H   0  0  0  0  0  0  0  0  0  0  0  0
    8.3374    6.1182    2.9655 H   0  0  0  0  0  0  0  0  0  0  0  0
  1  2  1  0  0  0  0
  1  3  1  0  0  0  0
  1 23  1  0  0  0  0
  3  5  1  6  0  0  0
  4 11  1  0  0  0  0
  4  1  1  0  0  0  0
  5  7  1  0  0  0  0
  6  5  1  0  0  0  0
  8 10  1  0  0  0  0
  8  9  1  0  0  0  0
  8  3  1  0  0  0  0
 11 12  1  1  0  0  0
 11  8  1  0  0  0  0
 12 13  1  0  0  0  0
 14 12  2  0  0  0  0
 15 14  1  0  0  0  0
 16 14  1  0  0  0  0
 16 18  2  0  0  0  0
 17 16  1  0  0  0  0
 18  4  1  0  0  0  0
 19 18  1  0  0  0  0
 20  1  1  0  0  0  0
 21  5  1  0  0  0  0
 21 36  1  0  0  0  0
 22 25  1  1  0  0  0
 22 21  1  0  0  0  0
 22  1  1  0  0  0  0
 23 34  1  0  0  0  0
 24 23  1  0  0  0  0
 24 28  1  6  0  0  0
 25 24  1  0  0  0  0
 26 25  1  0  0  0  0
 27 25  1  0  0  0  0
 28 30  2  0  0  0  0
 29 28  1  0  0  0  0
 30 32  1  0  0  0  0
 30 31  1  0  0  0  0
 32 33  1  0  0  0  0
 34 35  1  0  0  0  0
 34 32  2  0  0  0  0
 37 21  1  0  0  0  0
M  END
$$$$
