CSD_code = GODNUK | q = 0 | S = 0 | Stoichiometry = C26H30AuClN2Si | MND = 2
 OpenBabel04212202043D

 61 65  0  0  1  0  0  0  0  0999 V2000
    0.2422    6.5217   12.9929 Au  0  0  0  0  0  0  0  0  0  0  0  0
    4.2792    1.4488   15.8232 C   0  0  0  0  0  0  0  0  0  0  0  0
    4.6864    0.2731   16.4384 C   0  0  0  0  0  0  0  0  0  0  0  0
    5.0185   -0.5744   15.8572 H   0  0  0  0  0  0  0  0  0  0  0  0
    4.6521    0.2296   17.8157 C   0  0  0  0  0  0  0  0  0  0  0  0
    4.9633   -0.6690   18.3268 H   0  0  0  0  0  0  0  0  0  0  0  0
    4.2220    1.3261   18.5681 C   0  0  0  0  0  0  0  0  0  0  0  0
    4.2106    1.2475   19.6449 H   0  0  0  0  0  0  0  0  0  0  0  0
    3.8159    2.4949   17.9654 C   0  0  0  0  0  0  0  0  0  0  0  0
    3.4827    3.3383   18.5510 H   0  0  0  0  0  0  0  0  0  0  0  0
    3.8425    2.5689   16.5732 C   0  0  0  0  0  0  0  0  0  0  0  0
    3.5117    3.5850   15.6276 C   0  0  0  0  0  0  0  0  0  0  0  0
    2.9877    4.9680   15.8428 C   0  0  0  0  0  0  0  0  0  0  0  0
    3.5370    5.4701   16.6409 H   0  0  0  0  0  0  0  0  0  0  0  0
    1.9350    4.9265   16.1380 H   0  0  0  0  0  0  0  0  0  0  0  0
    3.1225    5.7660   14.5371 C   0  0  0  0  0  0  0  0  0  0  0  0
    2.5150    6.6722   14.5704 H   0  0  0  0  0  0  0  0  0  0  0  0
    4.1708    6.0371   14.3762 H   0  0  0  0  0  0  0  0  0  0  0  0
    3.7424    3.0605   14.3868 C   0  0  0  0  0  0  0  0  0  0  0  0
    3.5298    3.8040   13.1102 C   0  0  1  0  0  0  0  0  0  0  0  0
    4.4969    4.1720   12.7318 H   0  0  0  0  0  0  0  0  0  0  0  0
    2.7436    3.0784   12.0130 C   0  0  0  0  0  0  0  0  0  0  0  0
    2.5652    2.0387   12.2807 H   0  0  0  0  0  0  0  0  0  0  0  0
    3.3061    3.1034   11.0823 H   0  0  0  0  0  0  0  0  0  0  0  0
    1.4200    3.8713   11.8793 C   0  0  1  0  0  0  0  0  0  0  0  0
    1.5698    5.0414   12.7787 C   0  0  2  0  0  3  0  0  0  0  0  0
    1.1100    4.3656   10.4431 C   0  0  1  0  0  0  0  0  0  0  0  0
    0.3639    5.1577   10.5668 H   0  0  0  0  0  0  0  0  0  0  0  0
    2.3387    4.9855    9.8210 C   0  0  0  0  0  0  0  0  0  0  0  0
    2.8868    4.3575    9.1292 H   0  0  0  0  0  0  0  0  0  0  0  0
    2.7483    6.2162   10.0626 C   0  0  0  0  0  0  0  0  0  0  0  0
    2.2113    6.8704   10.7313 H   0  0  0  0  0  0  0  0  0  0  0  0
    3.6305    6.6246    9.5990 H   0  0  0  0  0  0  0  0  0  0  0  0
    0.5373    3.3367    9.5027 C   0  0  0  0  0  0  0  0  0  0  0  0
   -0.6697    3.6018    8.8652 C   0  0  0  0  0  0  0  0  0  0  0  0
   -1.1883    4.5261    9.0754 H   0  0  0  0  0  0  0  0  0  0  0  0
   -1.2094    2.7075    7.9582 C   0  0  0  0  0  0  0  0  0  0  0  0
   -2.1497    2.9324    7.4771 H   0  0  0  0  0  0  0  0  0  0  0  0
   -0.5431    1.5310    7.6627 C   0  0  0  0  0  0  0  0  0  0  0  0
   -0.9605    0.8309    6.9546 H   0  0  0  0  0  0  0  0  0  0  0  0
    0.6693    1.2644    8.2738 C   0  0  0  0  0  0  0  0  0  0  0  0
    1.2035    0.3543    8.0409 H   0  0  0  0  0  0  0  0  0  0  0  0
    1.2060    2.1609    9.1820 C   0  0  0  0  0  0  0  0  0  0  0  0
    2.1559    1.9319    9.6397 H   0  0  0  0  0  0  0  0  0  0  0  0
   -1.7664    3.5679   12.1131 C   0  0  0  0  0  0  0  0  0  0  0  0
   -2.5469    3.1742   12.7564 H   0  0  0  0  0  0  0  0  0  0  0  0
   -2.0123    3.2907   11.0936 H   0  0  0  0  0  0  0  0  0  0  0  0
   -1.8019    4.6505   12.1884 H   0  0  0  0  0  0  0  0  0  0  0  0
    0.0268    1.0237   12.1366 C   0  0  0  0  0  0  0  0  0  0  0  0
   -0.8972    0.5269   12.4143 H   0  0  0  0  0  0  0  0  0  0  0  0
    0.8321    0.5009   12.6443 H   0  0  0  0  0  0  0  0  0  0  0  0
    0.1572    0.8926   11.0680 H   0  0  0  0  0  0  0  0  0  0  0  0
    0.0774    2.9278   14.5466 C   0  0  0  0  0  0  0  0  0  0  0  0
   -0.1274    3.9252   14.9232 H   0  0  0  0  0  0  0  0  0  0  0  0
    1.0649    2.6361   14.8920 H   0  0  0  0  0  0  0  0  0  0  0  0
   -0.6377    2.2539   15.0077 H   0  0  0  0  0  0  0  0  0  0  0  0
   -1.2696    8.1718   13.2330 Cl  0  0  0  0  0  0  0  0  0  0  0  0
    4.2060    1.7745   14.4952 N   0  0  0  0  0  0  0  0  0  0  0  0
    4.4800    1.1824   13.7302 H   0  0  0  0  0  0  0  0  0  0  0  0
    2.6908    4.9575   13.4268 N   0  0  1  0  0  0  0  0  0  0  0  0
   -0.0884    2.8606   12.6481 Si  0  0  0  0  0  0  0  0  0  0  0  0
  1 57  1  0  0  0  0
  2  3  2  0  0  0  0
  2 11  1  0  0  0  0
  3  5  1  0  0  0  0
  4  3  1  0  0  0  0
  5  6  1  0  0  0  0
  5  7  2  0  0  0  0
  7  8  1  0  0  0  0
  9 10  1  0  0  0  0
  9  7  1  0  0  0  0
 11  9  2  0  0  0  0
 12 13  1  0  0  0  0
 12 11  1  0  0  0  0
 13 15  1  0  0  0  0
 13 14  1  0  0  0  0
 16 17  1  0  0  0  0
 16 13  1  0  0  0  0
 18 16  1  0  0  0  0
 19 58  1  0  0  0  0
 19 12  2  0  0  0  0
 20 21  1  6  0  0  0
 20 60  1  0  0  0  0
 20 19  1  0  0  0  0
 22 23  1  0  0  0  0
 22 20  1  0  0  0  0
 24 22  1  0  0  0  0
 25 22  1  0  0  0  0
 25 61  1  1  0  0  0
 25 26  1  0  0  0  0
 26  1  1  1  0  0  0
 26 60  1  0  0  0  0
 27 28  1  1  0  0  0
 27 25  1  0  0  0  0
 29 31  2  0  0  0  0
 29 27  1  0  0  0  0
 30 29  1  0  0  0  0
 31 32  1  0  0  0  0
 33 31  1  0  0  0  0
 34 27  1  0  0  0  0
 35 36  1  0  0  0  0
 35 34  2  0  0  0  0
 37 35  1  0  0  0  0
 38 37  1  0  0  0  0
 39 37  2  0  0  0  0
 39 41  1  0  0  0  0
 40 39  1  0  0  0  0
 41 43  2  0  0  0  0
 42 41  1  0  0  0  0
 43 34  1  0  0  0  0
 43 44  1  0  0  0  0
 45 48  1  0  0  0  0
 45 61  1  0  0  0  0
 45 46  1  0  0  0  0
 47 45  1  0  0  0  0
 49 50  1  0  0  0  0
 49 51  1  0  0  0  0
 49 61  1  0  0  0  0
 52 49  1  0  0  0  0
 53 55  1  0  0  0  0
 53 54  1  0  0  0  0
 53 56  1  0  0  0  0
 58  2  1  0  0  0  0
 59 58  1  0  0  0  0
 60 16  1  1  0  0  0
 61 53  1  0  0  0  0
M  END
$$$$
