CSD_code = GOFTOK | q = 0 | S = 0 | Stoichiometry = C23H26ClNOPRh | MND = 4
 OpenBabel04212202043D

 54 56  0  0  0  0  0  0  0  0999 V2000
    3.2788   11.2828    0.6424 Rh  0  0  1  0  0  0  0  0  0  0  0  0
    2.1310    9.3589    0.7721 P   0  0  0  0  0  4  0  0  0  0  0  0
    3.6975   10.6875   -1.4840 Cl  0  0  0  0  0  0  0  0  0  0  0  0
    2.7204   12.1454    3.4360 O   0  0  0  0  0  1  0  0  0  0  0  0
    4.4575   13.1064    0.1712 N   0  0  0  0  0  4  0  0  0  0  0  0
    2.9409   11.8018    2.3557 C   0  0  0  0  0  2  0  0  0  0  0  0
    3.7004   14.3572    0.1207 C   0  0  0  0  0  0  0  0  0  0  0  0
    2.3877   14.1419   -0.6194 C   0  0  0  0  0  0  0  0  0  0  0  0
    5.7430   13.2477    0.8543 C   0  0  0  0  0  0  0  0  0  0  0  0
    6.4688   11.9101    0.8799 C   0  0  0  0  0  0  0  0  0  0  0  0
    3.1256    7.8357    0.8281 C   0  0  0  0  0  0  0  0  0  0  0  0
    4.4933    7.9211    0.6011 C   0  0  0  0  0  0  0  0  0  0  0  0
    5.2771    6.7816    0.6409 C   0  0  0  0  0  0  0  0  0  0  0  0
    4.6967    5.5538    0.9124 C   0  0  0  0  0  0  0  0  0  0  0  0
    3.3330    5.4653    1.1488 C   0  0  0  0  0  0  0  0  0  0  0  0
    2.5463    6.6012    1.1109 C   0  0  0  0  0  0  0  0  0  0  0  0
    1.0242    9.1341   -0.6550 C   0  0  0  0  0  0  0  0  0  0  0  0
    0.9889    8.0066   -1.4627 C   0  0  0  0  0  0  0  0  0  0  0  0
    0.1412    7.9735   -2.5577 C   0  0  0  0  0  0  0  0  0  0  0  0
   -0.6667    9.0583   -2.8516 C   0  0  0  0  0  0  0  0  0  0  0  0
   -0.6249   10.1919   -2.0536 C   0  0  0  0  0  0  0  0  0  0  0  0
    0.2218   10.2308   -0.9640 C   0  0  0  0  0  0  0  0  0  0  0  0
    1.0249    9.0535    2.1924 C   0  0  0  0  0  0  0  0  0  0  0  0
   -0.3567    8.9519    2.1026 C   0  0  0  0  0  0  0  0  0  0  0  0
   -1.1102    8.7453    3.2462 C   0  0  0  0  0  0  0  0  0  0  0  0
   -0.4923    8.6399    4.4801 C   0  0  0  0  0  0  0  0  0  0  0  0
    0.8875    8.7422    4.5751 C   0  0  0  0  0  0  0  0  0  0  0  0
    1.6406    8.9515    3.4373 C   0  0  0  0  0  0  0  0  0  0  0  0
    4.6481   12.8181   -0.7966 H   0  0  0  0  0  0  0  0  0  0  0  0
    4.2884   15.1450   -0.3751 H   0  0  0  0  0  0  0  0  0  0  0  0
    3.5006   14.6793    1.1483 H   0  0  0  0  0  0  0  0  0  0  0  0
    2.5711   13.9087   -1.6665 H   0  0  0  0  0  0  0  0  0  0  0  0
    1.7610   15.0278   -0.5596 H   0  0  0  0  0  0  0  0  0  0  0  0
    1.8553   13.2961   -0.1630 H   0  0  0  0  0  0  0  0  0  0  0  0
    6.3653   14.0054    0.3535 H   0  0  0  0  0  0  0  0  0  0  0  0
    5.5530   13.5877    1.8780 H   0  0  0  0  0  0  0  0  0  0  0  0
    5.8158   11.1578    1.3423 H   0  0  0  0  0  0  0  0  0  0  0  0
    7.3874   11.9807    1.4562 H   0  0  0  0  0  0  0  0  0  0  0  0
    6.7107   11.5885   -0.1315 H   0  0  0  0  0  0  0  0  0  0  0  0
    4.9293    8.8904    0.3840 H   0  0  0  0  0  0  0  0  0  0  0  0
    6.3400    6.8497    0.4607 H   0  0  0  0  0  0  0  0  0  0  0  0
    5.3063    4.6626    0.9433 H   0  0  0  0  0  0  0  0  0  0  0  0
    2.8834    4.5068    1.3649 H   0  0  0  0  0  0  0  0  0  0  0  0
    1.4836    6.5383    1.3050 H   0  0  0  0  0  0  0  0  0  0  0  0
    1.6310    7.1639   -1.2498 H   0  0  0  0  0  0  0  0  0  0  0  0
    0.1197    7.0974   -3.1899 H   0  0  0  0  0  0  0  0  0  0  0  0
   -1.3205    9.0274   -3.7110 H   0  0  0  0  0  0  0  0  0  0  0  0
   -1.2441   11.0450   -2.2908 H   0  0  0  0  0  0  0  0  0  0  0  0
    0.2869   11.1169   -0.3387 H   0  0  0  0  0  0  0  0  0  0  0  0
   -0.8445    9.0311    1.1411 H   0  0  0  0  0  0  0  0  0  0  0  0
   -2.1853    8.6666    3.1715 H   0  0  0  0  0  0  0  0  0  0  0  0
   -1.0846    8.4804    5.3691 H   0  0  0  0  0  0  0  0  0  0  0  0
    1.3713    8.6625    5.5375 H   0  0  0  0  0  0  0  0  0  0  0  0
    2.7187    9.0389    3.4964 H   0  0  0  0  0  0  0  0  0  0  0  0
  1  3  1  1  0  0  0
  1  2  1  0  0  0  0
  1  6  1  0  0  0  0
  2 11  1  0  0  0  0
  2 23  1  0  0  0  0
  5  1  1  0  0  0  0
  5  9  1  0  0  0  0
  6  4  1  0  0  0  0
  7  5  1  0  0  0  0
  7 31  1  0  0  0  0
  8 33  1  0  0  0  0
  8 34  1  0  0  0  0
  8  7  1  0  0  0  0
  9 10  1  0  0  0  0
  9 36  1  0  0  0  0
 10 37  1  0  0  0  0
 10 38  1  0  0  0  0
 11 16  1  0  0  0  0
 12 13  1  0  0  0  0
 12 11  2  0  0  0  0
 13 14  2  0  0  0  0
 14 42  1  0  0  0  0
 14 15  1  0  0  0  0
 15 43  1  0  0  0  0
 16 15  2  0  0  0  0
 16 44  1  0  0  0  0
 17  2  1  0  0  0  0
 18 45  1  0  0  0  0
 18 17  2  0  0  0  0
 19 18  1  0  0  0  0
 20 19  2  0  0  0  0
 20 21  1  0  0  0  0
 21 22  2  0  0  0  0
 22 17  1  0  0  0  0
 22 49  1  0  0  0  0
 23 28  1  0  0  0  0
 24 23  2  0  0  0  0
 24 25  1  0  0  0  0
 25 26  2  0  0  0  0
 26 27  1  0  0  0  0
 26 52  1  0  0  0  0
 27 53  1  0  0  0  0
 28 54  1  0  0  0  0
 28 27  2  0  0  0  0
 29  5  1  0  0  0  0
 30  7  1  0  0  0  0
 32  8  1  0  0  0  0
 35  9  1  0  0  0  0
 39 10  1  0  0  0  0
 40 12  1  0  0  0  0
 41 13  1  0  0  0  0
 46 19  1  0  0  0  0
 47 20  1  0  0  0  0
 48 21  1  0  0  0  0
 50 24  1  0  0  0  0
 51 25  1  0  0  0  0
M  END
$$$$
