CSD_code = GOFYUV | q = 0 | S = 0 | Stoichiometry = C11H13Cl2N2O2Re | MND = 6
 OpenBabel04212202043D

 31 32  0  0  0  0  0  0  0  0999 V2000
    5.8829    2.0054    3.2061 Re  0  0  0  0  0  0  0  0  0  0  0  0
    7.2526    1.9919    1.2520 Cl  0  0  0  0  0  0  0  0  0  0  0  0
    4.3056    2.0057    5.0245 Cl  0  0  0  0  0  0  0  0  0  0  0  0
    7.1692    2.0250    4.2435 O   0  0  0  0  0  1  0  0  0  0  0  0
    4.4820    1.9848    2.1391 O   0  0  0  0  0  0  0  0  0  0  0  0
    3.2678    1.9528    1.5265 C   0  0  0  0  0  0  0  0  0  0  0  0
    5.8937   -0.1662    3.2337 N   0  0  0  0  0  0  0  0  0  0  0  0
    6.0290   -0.8181    4.3879 C   0  0  0  0  0  3  0  0  0  0  0  0
    6.0437   -2.1995    4.4566 C   0  0  0  0  0  0  0  0  0  0  0  0
    5.9155   -2.9339    3.2879 C   0  0  0  0  0  0  0  0  0  0  0  0
    5.7821   -2.2487    2.0905 C   0  0  0  0  0  0  0  0  0  0  0  0
    5.7767   -0.8655    2.1069 C   0  0  0  0  0  0  0  0  0  0  0  0
    5.8603    4.1760    3.1829 N   0  0  0  0  0  0  0  0  0  0  0  0
    5.7349    4.8449    2.0385 C   0  0  0  0  0  3  0  0  0  0  0  0
    5.7116    6.2272    1.9887 C   0  0  0  0  0  0  0  0  0  0  0  0
    5.8241    6.9438    3.1698 C   0  0  0  0  0  0  0  0  0  0  0  0
    5.9627    6.2409    4.3565 C   0  0  0  0  0  0  0  0  0  0  0  0
    5.9772    4.8583    4.3214 C   0  0  0  0  0  0  0  0  0  0  0  0
    2.9111    2.9741    1.3302 H   0  0  0  0  0  0  0  0  0  0  0  0
    2.5339    1.4497    2.1734 H   0  0  0  0  0  0  0  0  0  0  0  0
    3.3300    1.4157    0.5685 H   0  0  0  0  0  0  0  0  0  0  0  0
    6.1189   -0.2058    5.2751 H   0  0  0  0  0  0  0  0  0  0  0  0
    6.1537   -2.6854    5.4126 H   0  0  0  0  0  0  0  0  0  0  0  0
    5.9238   -4.0131    3.3086 H   0  0  0  0  0  0  0  0  0  0  0  0
    5.6877   -2.7734    1.1532 H   0  0  0  0  0  0  0  0  0  0  0  0
    5.7052   -0.2972    1.1889 H   0  0  0  0  0  0  0  0  0  0  0  0
    5.6808    4.2528    1.1343 H   0  0  0  0  0  0  0  0  0  0  0  0
    5.6116    6.7268    1.0383 H   0  0  0  0  0  0  0  0  0  0  0  0
    5.8091    8.0232    3.1642 H   0  0  0  0  0  0  0  0  0  0  0  0
    6.0587    6.7524    5.3007 H   0  0  0  0  0  0  0  0  0  0  0  0
    6.0759    4.2695    5.2234 H   0  0  0  0  0  0  0  0  0  0  0  0
  1  7  1  0  0  0  0
  1  4  1  0  0  0  0
  1  3  1  0  0  0  0
  2  1  1  0  0  0  0
  5  1  1  0  0  0  0
  6  5  1  0  0  0  0
  6 20  1  0  0  0  0
  7  8  1  0  0  0  0
  8  9  1  0  0  0  0
  8 22  1  0  0  0  0
  9 23  1  0  0  0  0
 10 24  1  0  0  0  0
 10  9  2  0  0  0  0
 11 12  2  0  0  0  0
 11 10  1  0  0  0  0
 12  7  1  0  0  0  0
 13  1  1  0  0  0  0
 13 18  1  0  0  0  0
 14 13  1  0  0  0  0
 15 14  1  0  0  0  0
 15 16  2  0  0  0  0
 16 17  1  0  0  0  0
 17 30  1  0  0  0  0
 18 17  2  0  0  0  0
 18 31  1  0  0  0  0
 19  6  1  0  0  0  0
 21  6  1  0  0  0  0
 25 11  1  0  0  0  0
 26 12  1  0  0  0  0
 27 14  1  0  0  0  0
 28 15  1  0  0  0  0
 29 16  1  0  0  0  0
M  END
$$$$
