CSD_code = GOFZAC | q = 0 | S = 0 | Stoichiometry = C23H20Cl2N4OPTc | MND = 6
 OpenBabel04212202043D

 52 56  0  0  0  0  0  0  0  0999 V2000
    9.2442    5.4380    0.6302 Tc  0  0  0  0  0  0  0  0  0  0  0  0
   11.4108    4.5769    0.3519 Cl  0  0  0  0  0  0  0  0  0  0  0  0
    8.5715    3.4577    1.6174 Cl  0  0  0  0  0  0  0  0  0  0  0  0
   10.5892    7.3871   -0.0581 P   0  0  0  0  0  4  0  0  0  0  0  0
    8.5806    5.1054   -0.9363 N   0  0  0  0  0  2  0  0  0  0  0  0
    7.7081    6.4826    1.1922 N   0  0  0  0  0  0  0  0  0  0  0  0
    7.6320    7.0363    2.3600 N   0  0  0  0  0  0  0  0  0  0  0  0
    9.6808    6.0006    2.5993 N   0  0  0  0  0  0  0  0  0  0  0  0
    8.0368    4.9577   -1.9635 O   0  0  0  0  0  1  0  0  0  0  0  0
    8.6843    6.7390    3.1485 C   0  0  0  0  0  0  0  0  0  0  0  0
    8.7384    7.1837    4.4798 C   0  0  0  0  0  0  0  0  0  0  0  0
    9.8189    6.8323    5.2485 C   0  0  0  0  0  0  0  0  0  0  0  0
   10.8251    6.0461    4.6833 C   0  0  0  0  0  0  0  0  0  0  0  0
   10.7111    5.6582    3.3664 C   0  0  0  0  0  0  0  0  0  0  0  0
   11.7139    7.2341   -1.4792 C   0  0  0  0  0  0  0  0  0  0  0  0
   11.4814    6.2694   -2.4517 C   0  0  0  0  0  0  0  0  0  0  0  0
   12.3026    6.1971   -3.5628 C   0  0  0  0  0  0  0  0  0  0  0  0
   13.3518    7.0885   -3.7115 C   0  0  0  0  0  0  0  0  0  0  0  0
   13.5781    8.0593   -2.7490 C   0  0  0  0  0  0  0  0  0  0  0  0
   12.7602    8.1388   -1.6375 C   0  0  0  0  0  0  0  0  0  0  0  0
    9.7018    8.9018   -0.5699 C   0  0  0  0  0  0  0  0  0  0  0  0
   10.2136   10.1829   -0.3922 C   0  0  0  0  0  0  0  0  0  0  0  0
    9.5148   11.2785   -0.8662 C   0  0  0  0  0  0  0  0  0  0  0  0
    8.3103   11.1062   -1.5285 C   0  0  0  0  0  0  0  0  0  0  0  0
    7.8046    9.8314   -1.7237 C   0  0  0  0  0  0  0  0  0  0  0  0
    8.4979    8.7338   -1.2475 C   0  0  0  0  0  0  0  0  0  0  0  0
   11.6369    7.9310    1.3157 C   0  0  0  0  0  0  0  0  0  0  0  0
   12.9095    7.3944    1.4871 C   0  0  0  0  0  0  0  0  0  0  0  0
   13.6462    7.7175    2.6128 C   0  0  0  0  0  0  0  0  0  0  0  0
   13.1162    8.5617    3.5750 C   0  0  0  0  0  0  0  0  0  0  0  0
   11.8413    9.0822    3.4165 C   0  0  0  0  0  0  0  0  0  0  0  0
   11.0990    8.7651    2.2947 C   0  0  0  0  0  0  0  0  0  0  0  0
    6.8721    6.7261    0.6555 H   0  0  0  0  0  0  0  0  0  0  0  0
    7.9196    7.7744    4.8547 H   0  0  0  0  0  0  0  0  0  0  0  0
    9.8889    7.1495    6.2780 H   0  0  0  0  0  0  0  0  0  0  0  0
   11.6810    5.7380    5.2606 H   0  0  0  0  0  0  0  0  0  0  0  0
   11.4720    5.0508    2.8948 H   0  0  0  0  0  0  0  0  0  0  0  0
   10.6730    5.5638   -2.3278 H   0  0  0  0  0  0  0  0  0  0  0  0
   12.1240    5.4402   -4.3113 H   0  0  0  0  0  0  0  0  0  0  0  0
   13.9953    7.0273   -4.5765 H   0  0  0  0  0  0  0  0  0  0  0  0
   14.3952    8.7564   -2.8639 H   0  0  0  0  0  0  0  0  0  0  0  0
   12.9404    8.8966   -0.8877 H   0  0  0  0  0  0  0  0  0  0  0  0
   11.1527   10.3275    0.1228 H   0  0  0  0  0  0  0  0  0  0  0  0
    9.9139   12.2713   -0.7193 H   0  0  0  0  0  0  0  0  0  0  0  0
    7.7683   11.9652   -1.8943 H   0  0  0  0  0  0  0  0  0  0  0  0
    6.8704    9.6929   -2.2467 H   0  0  0  0  0  0  0  0  0  0  0  0
    8.1134    7.7338   -1.4023 H   0  0  0  0  0  0  0  0  0  0  0  0
   13.3048    6.7147    0.7460 H   0  0  0  0  0  0  0  0  0  0  0  0
   14.6343    7.3021    2.7428 H   0  0  0  0  0  0  0  0  0  0  0  0
   13.6928    8.8093    4.4538 H   0  0  0  0  0  0  0  0  0  0  0  0
   11.4215    9.7303    4.1717 H   0  0  0  0  0  0  0  0  0  0  0  0
   10.0964    9.1567    2.1767 H   0  0  0  0  0  0  0  0  0  0  0  0
  1  6  1  0  0  0  0
  1  3  1  0  0  0  0
  1  8  1  0  0  0  0
  2  1  1  0  0  0  0
  4  1  1  0  0  0  0
  4 27  1  0  0  0  0
  5  1  1  0  0  0  0
  6  7  1  0  0  0  0
  7 10  2  0  0  0  0
  8 10  1  0  0  0  0
  8 14  1  0  0  0  0
  9  5  1  0  0  0  0
 10 11  1  0  0  0  0
 11 34  1  0  0  0  0
 11 12  2  0  0  0  0
 12 35  1  0  0  0  0
 13 12  1  0  0  0  0
 13 36  1  0  0  0  0
 14 13  2  0  0  0  0
 15  4  1  0  0  0  0
 16 38  1  0  0  0  0
 16 15  2  0  0  0  0
 17 16  1  0  0  0  0
 18 17  2  0  0  0  0
 18 19  1  0  0  0  0
 19 20  2  0  0  0  0
 20 15  1  0  0  0  0
 20 42  1  0  0  0  0
 21 22  1  0  0  0  0
 21  4  1  0  0  0  0
 22 43  1  0  0  0  0
 23 44  1  0  0  0  0
 23 22  2  0  0  0  0
 24 23  1  0  0  0  0
 25 24  2  0  0  0  0
 25 26  1  0  0  0  0
 26 21  2  0  0  0  0
 27 28  2  0  0  0  0
 27 32  1  0  0  0  0
 28 29  1  0  0  0  0
 29 49  1  0  0  0  0
 29 30  2  0  0  0  0
 30 50  1  0  0  0  0
 31 30  1  0  0  0  0
 31 51  1  0  0  0  0
 32 31  2  0  0  0  0
 33  6  1  0  0  0  0
 37 14  1  0  0  0  0
 39 17  1  0  0  0  0
 40 18  1  0  0  0  0
 41 19  1  0  0  0  0
 45 24  1  0  0  0  0
 46 25  1  0  0  0  0
 47 26  1  0  0  0  0
 48 28  1  0  0  0  0
 52 32  1  0  0  0  0
M  END
$$$$
