CSD_code = GOGFUE | q = 0 | S = 0 | Stoichiometry = C8H12CdCl2N4S2 | MND = 4
 OpenBabel04212202043D

 29 30  0  0  1  0  0  0  0  0999 V2000
    5.8961   11.8815    9.8639 Cd  0  0  0  0  0  0  0  0  0  0  0  0
    4.7206    9.3530    8.2644 C   0  0  0  0  0  0  0  0  0  0  0  0
    6.8313    9.7797    7.6669 C   0  0  2  0  0  3  0  0  0  0  0  0
    3.4318   13.8643    9.5280 C   0  0  2  0  0  3  0  0  0  0  0  0
    4.8978    8.3157    7.4176 C   0  0  0  0  0  0  0  0  0  0  0  0
    4.2078    7.5453    7.1440 H   0  0  0  0  0  0  0  0  0  0  0  0
    4.9337   14.2531    7.9195 C   0  0  0  0  0  0  0  0  0  0  0  0
    4.0581   15.2340    7.6108 C   0  0  0  0  0  0  0  0  0  0  0  0
    4.1078   15.9570    6.8239 H   0  0  0  0  0  0  0  0  0  0  0  0
    6.2023   13.9380    7.2051 C   0  0  0  0  0  0  0  0  0  0  0  0
    6.3707   14.6498    6.4022 H   0  0  0  0  0  0  0  0  0  0  0  0
    6.1540   12.9302    6.7892 H   0  0  0  0  0  0  0  0  0  0  0  0
    7.0418   13.9738    7.9016 H   0  0  0  0  0  0  0  0  0  0  0  0
    3.4813    9.6766    9.0248 C   0  0  0  0  0  0  0  0  0  0  0  0
    2.7219    8.9201    8.8491 H   0  0  0  0  0  0  0  0  0  0  0  0
    3.0986   10.6503    8.7144 H   0  0  0  0  0  0  0  0  0  0  0  0
    3.7008    9.7270   10.0926 H   0  0  0  0  0  0  0  0  0  0  0  0
    8.2043   12.3866    9.9113 Cl  0  0  0  0  0  0  0  0  0  0  0  0
    4.8755   11.4674   11.9549 Cl  0  0  0  0  0  0  0  0  0  0  0  0
    4.5712   13.4888    9.0048 N   0  0  0  0  0  0  0  0  0  0  0  0
    5.8194   10.1703    8.3993 N   0  0  0  0  0  0  0  0  0  0  0  0
    2.8211   13.2429   10.5387 N   0  0  0  0  0  0  0  0  0  0  0  0
    3.3811   12.5868   11.1079 H   0  0  0  0  0  0  0  0  0  0  0  0
    2.0342   13.6924   10.9748 H   0  0  0  0  0  0  0  0  0  0  0  0
    7.9865   10.4389    7.5579 N   0  0  0  0  0  0  0  0  0  0  0  0
    8.2005   11.1542    8.2724 H   0  0  0  0  0  0  0  0  0  0  0  0
    8.7582    9.9841    7.1005 H   0  0  0  0  0  0  0  0  0  0  0  0
    2.7088   15.2329    8.7044 S   0  0  0  0  0  0  0  0  0  0  0  0
    6.4972    8.3288    6.7409 S   0  0  0  0  0  0  0  0  0  0  0  0
  1 18  1  0  0  0  0
  1 19  1  0  0  0  0
  2 21  1  0  0  0  0
  2 14  1  0  0  0  0
  3 25  1  6  0  0  0
  3 21  1  0  0  0  0
  4 22  1  6  0  0  0
  5  2  2  0  0  0  0
  6  5  1  0  0  0  0
  7 20  1  0  0  0  0
  8  7  2  0  0  0  0
  8 28  1  0  0  0  0
  9  8  1  0  0  0  0
 10 13  1  0  0  0  0
 10  7  1  0  0  0  0
 11 10  1  0  0  0  0
 12 10  1  0  0  0  0
 14 17  1  0  0  0  0
 15 14  1  0  0  0  0
 16 14  1  0  0  0  0
 20  4  1  0  0  0  0
 20  1  1  0  0  0  0
 21  1  1  0  0  0  0
 22 24  1  0  0  0  0
 22 23  1  0  0  0  0
 25 26  1  0  0  0  0
 27 25  1  0  0  0  0
 28  4  1  0  0  0  0
 29  5  1  0  0  0  0
 29  3  1  0  0  0  0
M  END
$$$$
