CSD_code = GOGHEQ | q = 0 | S = 0 | Stoichiometry = C24H16HgI2N2 | MND = 4
 OpenBabel04212202043D

 45 50  0  0  0  0  0  0  0  0999 V2000
    5.3491    2.6578    1.6426 Hg  0  0  0  0  0  0  0  0  0  0  0  0
    5.0946    5.2408    1.3482 I   0  0  0  0  0  0  0  0  0  0  0  0
    4.8928    0.1647    1.0066 I   0  0  0  0  0  0  0  0  0  0  0  0
    7.6835    2.4947    2.4610 N   0  0  0  0  0  0  0  0  0  0  0  0
    5.5125    2.4604    4.1078 N   0  0  0  0  0  0  0  0  0  0  0  0
    8.7274    2.5016    1.6594 C   0  0  0  0  0  0  0  0  0  0  0  0
    8.5215    2.6082    0.6016 H   0  0  0  0  0  0  0  0  0  0  0  0
   10.0396    2.3967    2.1082 C   0  0  0  0  0  0  0  0  0  0  0  0
   10.8540    2.4364    1.4019 H   0  0  0  0  0  0  0  0  0  0  0  0
   10.2886    2.2746    3.4619 C   0  0  0  0  0  0  0  0  0  0  0  0
   11.6738    2.2149    3.9498 C   0  0  0  0  0  0  0  0  0  0  0  0
   12.5610    1.2881    3.4087 C   0  0  0  0  0  0  0  0  0  0  0  0
   12.2119    0.5936    2.6584 H   0  0  0  0  0  0  0  0  0  0  0  0
   13.8707    1.2374    3.8486 C   0  0  0  0  0  0  0  0  0  0  0  0
   14.5482    0.5079    3.4309 H   0  0  0  0  0  0  0  0  0  0  0  0
   14.3136    2.1214    4.8187 C   0  0  0  0  0  0  0  0  0  0  0  0
   15.3377    2.0837    5.1578 H   0  0  0  0  0  0  0  0  0  0  0  0
   13.4413    3.0578    5.3488 C   0  0  0  0  0  0  0  0  0  0  0  0
   13.7857    3.7560    6.0970 H   0  0  0  0  0  0  0  0  0  0  0  0
   12.1270    3.1040    4.9219 C   0  0  0  0  0  0  0  0  0  0  0  0
   11.4525    3.8485    5.3204 H   0  0  0  0  0  0  0  0  0  0  0  0
    9.1773    2.2221    4.3384 C   0  0  0  0  0  0  0  0  0  0  0  0
    9.3142    1.9866    5.7347 C   0  0  0  0  0  0  0  0  0  0  0  0
   10.3014    1.7991    6.1285 H   0  0  0  0  0  0  0  0  0  0  0  0
    8.2356    1.9669    6.5524 C   0  0  0  0  0  0  0  0  0  0  0  0
    8.3527    1.7636    7.6058 H   0  0  0  0  0  0  0  0  0  0  0  0
    6.9231    2.1817    6.0476 C   0  0  0  0  0  0  0  0  0  0  0  0
    5.7784    2.1929    6.8815 C   0  0  0  0  0  0  0  0  0  0  0  0
    5.8761    2.1041    8.3455 C   0  0  0  0  0  0  0  0  0  0  0  0
    6.6661    2.9987    9.0639 C   0  0  0  0  0  0  0  0  0  0  0  0
    7.2113    3.7701    8.5389 H   0  0  0  0  0  0  0  0  0  0  0  0
    6.7247    2.9227   10.4433 C   0  0  0  0  0  0  0  0  0  0  0  0
    7.3335    3.6254   10.9925 H   0  0  0  0  0  0  0  0  0  0  0  0
    6.0052    1.9507   11.1187 C   0  0  0  0  0  0  0  0  0  0  0  0
    6.0575    1.8897   12.1952 H   0  0  0  0  0  0  0  0  0  0  0  0
    5.2142    1.0609   10.4108 C   0  0  0  0  0  0  0  0  0  0  0  0
    4.6498    0.3036   10.9337 H   0  0  0  0  0  0  0  0  0  0  0  0
    5.1415    1.1412    9.0325 C   0  0  0  0  0  0  0  0  0  0  0  0
    4.5318    0.4426    8.4781 H   0  0  0  0  0  0  0  0  0  0  0  0
    4.5397    2.3006    6.2788 C   0  0  0  0  0  0  0  0  0  0  0  0
    3.6393    2.3090    6.8729 H   0  0  0  0  0  0  0  0  0  0  0  0
    4.4593    2.4310    4.8965 C   0  0  0  0  0  0  0  0  0  0  0  0
    3.4942    2.5273    4.4146 H   0  0  0  0  0  0  0  0  0  0  0  0
    6.7352    2.3348    4.6553 C   0  0  0  0  0  0  0  0  0  0  0  0
    7.8840    2.3542    3.7840 C   0  0  0  0  0  0  0  0  0  0  0  0
  1  4  1  0  0  0  0
  1  5  1  0  0  0  0
  2  1  1  0  0  0  0
  3  1  1  0  0  0  0
  4 45  1  0  0  0  0
  5 44  1  0  0  0  0
  5 42  1  0  0  0  0
  6  8  2  0  0  0  0
  6  4  1  0  0  0  0
  7  6  1  0  0  0  0
  8 10  1  0  0  0  0
  9  8  1  0  0  0  0
 10 11  1  0  0  0  0
 10 22  2  0  0  0  0
 11 20  1  0  0  0  0
 12 14  1  0  0  0  0
 12 11  2  0  0  0  0
 13 12  1  0  0  0  0
 14 16  2  0  0  0  0
 15 14  1  0  0  0  0
 16 17  1  0  0  0  0
 16 18  1  0  0  0  0
 18 19  1  0  0  0  0
 20 21  1  0  0  0  0
 20 18  2  0  0  0  0
 22 23  1  0  0  0  0
 23 24  1  0  0  0  0
 23 25  2  0  0  0  0
 25 26  1  0  0  0  0
 27 25  1  0  0  0  0
 27 28  2  0  0  0  0
 28 29  1  0  0  0  0
 29 38  2  0  0  0  0
 29 30  1  0  0  0  0
 30 32  2  0  0  0  0
 31 30  1  0  0  0  0
 32 33  1  0  0  0  0
 32 34  1  0  0  0  0
 34 35  1  0  0  0  0
 36 37  1  0  0  0  0
 36 34  2  0  0  0  0
 38 36  1  0  0  0  0
 39 38  1  0  0  0  0
 40 41  1  0  0  0  0
 40 28  1  0  0  0  0
 42 40  2  0  0  0  0
 43 42  1  0  0  0  0
 44 27  1  0  0  0  0
 45 22  1  0  0  0  0
 45 44  2  0  0  0  0
M  END
$$$$
