CSD_code = GOHQID | q = 1 | S = 0 | Stoichiometry = C28H29ClNP2Pd(1+) | MND = 4
 OpenBabel04212202043D

 62 67  0  0  1  0  0  0  0  0999 V2000
    9.3345    4.3305    4.6450 Pd  0  0  1  0  0  0  0  0  0  0  0  0
    7.1770    3.7583    4.7840 Cl  0  0  0  0  0  0  0  0  0  0  0  0
    9.5214    3.7006    2.4875 P   0  0  0  0  0  4  0  0  0  0  0  0
    9.4549    5.1678    6.7591 P   0  0  0  0  0  4  0  0  0  0  0  0
   11.4101    4.8350    4.5199 N   0  0  1  0  0  4  0  0  0  0  0  0
   11.8958    3.9764    4.8024 H   0  0  0  0  0  0  0  0  0  0  0  0
   11.3488    3.9841    2.2168 C   0  0  0  0  0  0  0  0  0  0  0  0
   11.8838    3.0657    2.4808 H   0  0  0  0  0  0  0  0  0  0  0  0
   11.5673    4.2241    1.1753 H   0  0  0  0  0  0  0  0  0  0  0  0
   11.7776    5.1328    3.1296 C   0  0  0  0  0  0  0  0  0  0  0  0
   12.8596    5.3057    3.0423 H   0  0  0  0  0  0  0  0  0  0  0  0
   11.2581    6.0525    2.8322 H   0  0  0  0  0  0  0  0  0  0  0  0
   11.7607    5.8952    5.4739 C   0  0  0  0  0  0  0  0  0  0  0  0
   11.2696    6.8205    5.1477 H   0  0  0  0  0  0  0  0  0  0  0  0
   12.8465    6.0668    5.4791 H   0  0  0  0  0  0  0  0  0  0  0  0
   11.2768    5.5285    6.8770 C   0  0  0  0  0  0  0  0  0  0  0  0
   11.4715    6.3473    7.5735 H   0  0  0  0  0  0  0  0  0  0  0  0
   11.7913    4.6297    7.2331 H   0  0  0  0  0  0  0  0  0  0  0  0
    9.3237    1.9057    2.3581 C   0  0  0  0  0  0  0  0  0  0  0  0
    8.9797    1.2257    1.1966 C   0  0  0  0  0  0  0  0  0  0  0  0
    8.7954    1.7697    0.2820 H   0  0  0  0  0  0  0  0  0  0  0  0
    8.8556   -0.1529    1.2276 C   0  0  0  0  0  0  0  0  0  0  0  0
    8.5867   -0.6854    0.3283 H   0  0  0  0  0  0  0  0  0  0  0  0
    9.0654   -0.8477    2.4075 C   0  0  0  0  0  0  0  0  0  0  0  0
    8.9619   -1.9216    2.4243 H   0  0  0  0  0  0  0  0  0  0  0  0
    9.3898   -0.1685    3.5730 C   0  0  0  0  0  0  0  0  0  0  0  0
    9.5312   -0.7124    4.4945 H   0  0  0  0  0  0  0  0  0  0  0  0
    9.5146    1.2069    3.5521 C   0  0  0  0  0  0  0  0  0  0  0  0
    9.7354    1.7577    4.4788 H   0  0  0  0  0  0  0  0  0  0  0  0
    8.6654    4.5045    1.1167 C   0  0  0  0  0  0  0  0  0  0  0  0
    7.5365    5.2595    1.4276 C   0  0  0  0  0  0  0  0  0  0  0  0
    7.2196    5.3396    2.4626 H   0  0  0  0  0  0  0  0  0  0  0  0
    6.8261    5.8815    0.4168 C   0  0  0  0  0  0  0  0  0  0  0  0
    5.9493    6.4640    0.6543 H   0  0  0  0  0  0  0  0  0  0  0  0
    7.2396    5.7517   -0.8994 C   0  0  0  0  0  0  0  0  0  0  0  0
    6.6839    6.2336   -1.6889 H   0  0  0  0  0  0  0  0  0  0  0  0
    8.3658    5.0037   -1.2090 C   0  0  0  0  0  0  0  0  0  0  0  0
    8.6837    4.9056   -2.2358 H   0  0  0  0  0  0  0  0  0  0  0  0
    9.0843    4.3796   -0.2060 C   0  0  0  0  0  0  0  0  0  0  0  0
    9.9635    3.7993   -0.4507 H   0  0  0  0  0  0  0  0  0  0  0  0
    8.8995    4.5906    8.3756 C   0  0  0  0  0  0  0  0  0  0  0  0
    9.7188    4.5054    9.4966 C   0  0  0  0  0  0  0  0  0  0  0  0
   10.7625    4.7785    9.4410 H   0  0  0  0  0  0  0  0  0  0  0  0
    9.1845    4.0682   10.6964 C   0  0  0  0  0  0  0  0  0  0  0  0
    9.8159    4.0043   11.5696 H   0  0  0  0  0  0  0  0  0  0  0  0
    7.8475    3.7135   10.7794 C   0  0  0  0  0  0  0  0  0  0  0  0
    7.4401    3.3746   11.7194 H   0  0  0  0  0  0  0  0  0  0  0  0
    7.0334    3.7896    9.6592 C   0  0  0  0  0  0  0  0  0  0  0  0
    5.9937    3.5090    9.7243 H   0  0  0  0  0  0  0  0  0  0  0  0
    7.5560    4.2236    8.4562 C   0  0  0  0  0  0  0  0  0  0  0  0
    6.9387    4.2776    7.5686 H   0  0  0  0  0  0  0  0  0  0  0  0
    8.7597    6.8412    6.5986 C   0  0  0  0  0  0  0  0  0  0  0  0
    8.5832    7.6695    7.7023 C   0  0  0  0  0  0  0  0  0  0  0  0
    8.8308    7.3081    8.6907 H   0  0  0  0  0  0  0  0  0  0  0  0
    8.0791    8.9457    7.5283 C   0  0  0  0  0  0  0  0  0  0  0  0
    7.9378    9.5881    8.3838 H   0  0  0  0  0  0  0  0  0  0  0  0
    7.7506    9.3979    6.2599 C   0  0  0  0  0  0  0  0  0  0  0  0
    7.3530   10.3925    6.1301 H   0  0  0  0  0  0  0  0  0  0  0  0
    7.9206    8.5740    5.1580 C   0  0  0  0  0  0  0  0  0  0  0  0
    7.6545    8.9270    4.1731 H   0  0  0  0  0  0  0  0  0  0  0  0
    8.4226    7.2957    5.3235 C   0  0  0  0  0  0  0  0  0  0  0  0
    8.5358    6.6308    4.4526 H   0  0  0  0  0  0  0  0  0  0  0  0
  1  2  1  1  0  0  0
  1  4  1  0  0  0  0
  3  1  1  0  0  0  0
  4 16  1  0  0  0  0
  4 41  1  0  0  0  0
  5  1  1  0  0  0  0
  5  6  1  1  0  0  0
  5 13  1  0  0  0  0
  7  8  1  0  0  0  0
  7  3  1  0  0  0  0
  7 10  1  0  0  0  0
  9  7  1  0  0  0  0
 10  5  1  0  0  0  0
 11 10  1  0  0  0  0
 12 10  1  0  0  0  0
 13 15  1  0  0  0  0
 13 16  1  0  0  0  0
 14 13  1  0  0  0  0
 16 18  1  0  0  0  0
 16 17  1  0  0  0  0
 19  3  1  0  0  0  0
 19 28  1  0  0  0  0
 20 22  1  0  0  0  0
 20 19  2  0  0  0  0
 21 20  1  0  0  0  0
 22 24  2  0  0  0  0
 23 22  1  0  0  0  0
 24 25  1  0  0  0  0
 24 26  1  0  0  0  0
 26 27  1  0  0  0  0
 28 26  2  0  0  0  0
 28 29  1  0  0  0  0
 30 31  1  0  0  0  0
 30  3  1  0  0  0  0
 31 32  1  0  0  0  0
 33 34  1  0  0  0  0
 33 31  2  0  0  0  0
 35 33  1  0  0  0  0
 36 35  1  0  0  0  0
 37 35  2  0  0  0  0
 37 39  1  0  0  0  0
 38 37  1  0  0  0  0
 39 30  2  0  0  0  0
 40 39  1  0  0  0  0
 41 50  2  0  0  0  0
 41 42  1  0  0  0  0
 42 44  2  0  0  0  0
 43 42  1  0  0  0  0
 44 46  1  0  0  0  0
 44 45  1  0  0  0  0
 46 47  1  0  0  0  0
 48 49  1  0  0  0  0
 48 46  2  0  0  0  0
 50 48  1  0  0  0  0
 51 50  1  0  0  0  0
 52  4  1  0  0  0  0
 52 53  1  0  0  0  0
 53 54  1  0  0  0  0
 55 53  2  0  0  0  0
 55 56  1  0  0  0  0
 57 55  1  0  0  0  0
 58 57  1  0  0  0  0
 59 61  1  0  0  0  0
 59 57  2  0  0  0  0
 60 59  1  0  0  0  0
 61 52  2  0  0  0  0
 62 61  1  0  0  0  0
M  END
$$$$
