CSD_code = GOHWOQ | q = -1 | S = 0 | Stoichiometry = C19H27B9ClZr(1-) | MND = 12
 OpenBabel04212202043D

 57 60  0  0  1  0  0  0  0  0999 V2000
    8.6331   10.9400    9.0229 Zr  0  0  0  0  0  0  0  0  0  0  0  0
    9.4896   10.5414    6.7217 Cl  0  0  0  0  0 15  0  0  0  0  0  0
    7.3402    8.9113    9.6639 C   0  0  1  0  0  0  0  0  0  0  0  0
    7.0325    9.2280    8.1737 C   0  0  2  0  0  0  0  0  0  0  0  0
    7.6305    8.7269    7.4098 H   0  0  0  0  0  0  0  0  0  0  0  0
    8.6111    8.0855    9.9790 C   0  0  0  0  0  0  0  0  0  0  0  0
    8.8540    6.9289    8.9842 C   0  0  0  0  0  0  0  0  0  0  0  0
    8.0455    6.2027    9.0456 H   0  0  0  0  0  0  0  0  0  0  0  0
    9.7847    6.4240    9.2418 H   0  0  0  0  0  0  0  0  0  0  0  0
    8.9300    7.2626    7.9521 H   0  0  0  0  0  0  0  0  0  0  0  0
    8.5026    7.4030   11.3563 C   0  0  0  0  0  0  0  0  0  0  0  0
    7.8112    6.5632   11.3013 H   0  0  0  0  0  0  0  0  0  0  0  0
    8.1323    8.0829   12.1137 H   0  0  0  0  0  0  0  0  0  0  0  0
    9.4785    7.0317   11.6663 H   0  0  0  0  0  0  0  0  0  0  0  0
    9.8308    9.0356    9.9473 C   0  0  0  0  0  0  0  0  0  0  0  0
   10.8186    8.9823    8.9062 C   0  0  0  0  0  0  0  0  0  0  0  0
   10.7072    8.4888    7.9516 H   0  0  0  0  0  0  0  0  0  0  0  0
   11.9955    9.5738    9.3150 C   0  0  0  0  0  0  0  0  0  0  0  0
   12.8903    9.6817    8.7244 H   0  0  0  0  0  0  0  0  0  0  0  0
   11.8394    9.9865   10.6544 C   0  0  0  0  0  0  0  0  0  0  0  0
   12.7417   10.5928   11.5312 C   0  0  0  0  0  0  0  0  0  0  0  0
   13.7327   10.8576   11.1838 H   0  0  0  0  0  0  0  0  0  0  0  0
   12.3637   10.8350   12.8294 C   0  0  0  0  0  0  0  0  0  0  0  0
   13.0528   11.2970   13.5250 H   0  0  0  0  0  0  0  0  0  0  0  0
   11.0827   10.4778   13.2649 C   0  0  0  0  0  0  0  0  0  0  0  0
   10.8073   10.6636   14.2953 H   0  0  0  0  0  0  0  0  0  0  0  0
   10.1662    9.8949   12.4177 C   0  0  0  0  0  0  0  0  0  0  0  0
    9.1961    9.6456   12.8211 H   0  0  0  0  0  0  0  0  0  0  0  0
   10.5033    9.6385   11.0781 C   0  0  2  0  0  3  0  0  0  0  0  0
    8.6204   13.6483    8.9036 C   0  0  0  0  0  0  0  0  0  0  0  0
    7.8067   14.2565    8.5311 H   0  0  0  0  0  0  0  0  0  0  0  0
    8.8456   13.2965   10.2478 C   0  0  0  0  0  3  0  0  0  0  0  0
    8.2420   13.5962   11.0936 H   0  0  0  0  0  0  0  0  0  0  0  0
   10.0570   12.5849   10.3203 C   0  0  0  0  0  0  0  0  0  0  0  0
   10.5785   12.3351   11.2340 H   0  0  0  0  0  0  0  0  0  0  0  0
   10.5900   12.5069    9.0103 C   0  0  0  0  0  0  0  0  0  0  0  0
   11.5717   12.1348    8.7404 H   0  0  0  0  0  0  0  0  0  0  0  0
    9.6987   13.1730    8.1440 C   0  0  0  0  0  0  0  0  0  0  0  0
    9.8617   13.3590    7.0898 H   0  0  0  0  0  0  0  0  0  0  0  0
    6.4823   10.7734    7.9488 B   0  0  0  0  0  0  0  0  0  0  0  0
    6.6827   11.3233    6.9002 H   0  0  0  0  0  0  0  0  0  0  0  0
    6.3411   11.4706    9.5335 B   0  0  0  0  0  0  0  0  0  0  0  0
    6.2640   12.6381    9.7759 H   0  0  0  0  0  0  0  0  0  0  0  0
    6.9768   10.2496   10.5941 B   0  0  0  0  0  0  0  0  0  0  0  0
    7.5666   10.4297   11.6204 H   0  0  0  0  0  0  0  0  0  0  0  0
    5.9349    8.1556    8.9790 B   0  0  1  0  0  0  0  0  0  0  0  0
    5.9672    7.0050    8.7195 H   0  0  0  0  0  0  0  0  0  0  0  0
    5.3488    9.3791    7.8440 B   0  0  2  0  0  0  0  0  0  0  0  0
    4.9506    9.0138    6.7920 H   0  0  0  0  0  0  0  0  0  0  0  0
    4.8733   10.7932    8.7572 B   0  0  0  0  0  0  0  0  0  0  0  0
    3.9913   11.4976    8.3963 H   0  0  0  0  0  0  0  0  0  0  0  0
    5.1987   10.4580   10.4706 B   0  0  0  0  0  0  0  0  0  0  0  0
    4.5590   10.9229   11.3535 H   0  0  0  0  0  0  0  0  0  0  0  0
    5.8608    8.8399   10.5942 B   0  0  1  0  0  0  0  0  0  0  0  0
    5.7803    8.1159   11.5234 H   0  0  0  0  0  0  0  0  0  0  0  0
    4.5720    9.1524    9.4194 B   0  0  2  0  0  0  0  0  0  0  0  0
    3.4851    8.7006    9.5364 H   0  0  0  0  0  0  0  0  0  0  0  0
  3  6  1  1  0  0  0
  3 44  1  0  0  0  0
  4  5  1  6  0  0  0
  4  3  1  0  0  0  0
  6 11  1  0  0  0  0
  7  8  1  0  0  0  0
  7  9  1  0  0  0  0
  7  6  1  0  0  0  0
 10  7  1  0  0  0  0
 11 14  1  0  0  0  0
 11 13  1  0  0  0  0
 12 11  1  0  0  0  0
 15  6  1  0  0  0  0
 16 18  1  0  0  0  0
 16 15  2  0  0  0  0
 17 16  1  0  0  0  0
 18 20  2  0  0  0  0
 19 18  1  0  0  0  0
 20 29  1  0  0  0  0
 20 21  1  0  0  0  0
 21 23  2  0  0  0  0
 22 21  1  0  0  0  0
 23 25  1  0  0  0  0
 23 24  1  0  0  0  0
 25 26  1  0  0  0  0
 27 28  1  0  0  0  0
 27 25  2  0  0  0  0
 29 15  1  1  0  0  0
 29 27  1  0  0  0  0
 30 32  1  0  0  0  0
 31 30  1  0  0  0  0
 32 34  1  0  0  0  0
 32 33  1  0  0  0  0
 34 35  1  0  0  0  0
 36 34  2  0  0  0  0
 37 36  1  0  0  0  0
 38 30  2  0  0  0  0
 38 36  1  0  0  0  0
 39 38  1  0  0  0  0
 40  4  1  0  0  0  0
 40 42  1  0  0  0  0
 41 40  1  0  0  0  0
 42 43  1  0  0  0  0
 42 44  1  0  0  0  0
 44 45  1  0  0  0  0
 46 47  1  6  0  0  0
 46 56  1  0  0  0  0
 46  3  1  0  0  0  0
 46 54  1  0  0  0  0
 48 49  1  6  0  0  0
 48  4  1  0  0  0  0
 48 50  1  0  0  0  0
 48 56  1  0  0  0  0
 50 52  1  0  0  0  0
 51 50  1  0  0  0  0
 52 54  1  0  0  0  0
 52 53  1  0  0  0  0
 54 55  1  1  0  0  0
 56 57  1  1  0  0  0
 56 54  1  0  0  0  0
M  END
$$$$
