CSD_code = GOHWIK | q = -1 | S = 0 | Stoichiometry = C21H29B9ClZr(1-) | MND = 12
 OpenBabel04212202043D

 61 66  0  0  1  0  0  0  0  0999 V2000
    8.9501   18.8770   17.3321 Zr  0  0  0  0  0  0  0  0  0  0  0  0
    8.8611   16.4649   17.6938 Cl  0  0  0  0  0 15  0  0  0  0  0  0
   10.3336   20.6198   18.5463 C   0  0  1  0  0  0  0  0  0  0  0  0
    9.9740   20.9824   16.9596 B   0  0  2  0  0  0  0  0  0  0  0  0
    8.9879   21.6274   16.7135 H   0  0  0  0  0  0  0  0  0  0  0  0
    9.2823   20.8908   19.6501 C   0  0  0  0  0  0  0  0  0  0  0  0
    9.7723   20.5996   21.0872 C   0  0  0  0  0  0  0  0  0  0  0  0
    8.9283   20.6700   21.7737 H   0  0  0  0  0  0  0  0  0  0  0  0
   10.5192   21.3312   21.3893 H   0  0  0  0  0  0  0  0  0  0  0  0
   10.2122   19.6122   21.2011 H   0  0  0  0  0  0  0  0  0  0  0  0
    8.8552   22.3689   19.6662 C   0  0  0  0  0  0  0  0  0  0  0  0
    7.9416   22.4882   20.2474 H   0  0  0  0  0  0  0  0  0  0  0  0
    8.6918   22.7489   18.6642 H   0  0  0  0  0  0  0  0  0  0  0  0
    9.6361   22.9757   20.1218 H   0  0  0  0  0  0  0  0  0  0  0  0
    8.0992   19.9705   19.3425 C   0  0  0  0  0  0  0  0  0  0  0  0
    6.8803   20.2309   18.6376 C   0  0  0  0  0  0  0  0  0  0  0  0
    6.3109   21.3547   18.0029 C   0  0  0  0  0  0  0  0  0  0  0  0
    6.8421   22.2919   17.9257 H   0  0  0  0  0  0  0  0  0  0  0  0
    5.0410   21.2818   17.4829 C   0  0  0  0  0  0  0  0  0  0  0  0
    4.6135   22.1527   17.0029 H   0  0  0  0  0  0  0  0  0  0  0  0
    4.2759   20.1077   17.5621 C   0  0  0  0  0  0  0  0  0  0  0  0
    3.2782   20.0984   17.1434 H   0  0  0  0  0  0  0  0  0  0  0  0
    4.7852   18.9881   18.1670 C   0  0  0  0  0  0  0  0  0  0  0  0
    4.2001   18.0801   18.2389 H   0  0  0  0  0  0  0  0  0  0  0  0
    6.0780   19.0223   18.7091 C   0  0  0  0  0  0  0  0  0  0  0  0
    6.8062   18.0543   19.4217 C   0  0  0  0  0  0  0  0  0  0  0  0
    6.4698   17.0595   19.6658 H   0  0  0  0  0  0  0  0  0  0  0  0
    8.0228   18.6213   19.7957 C   0  0  0  0  0  3  0  0  0  0  0  0
    8.7356   18.1198   20.4442 H   0  0  0  0  0  0  0  0  0  0  0  0
    7.2421   18.6848   15.8668 C   0  0  0  0  0  0  0  0  0  0  0  0
    6.7140   17.7855   16.2220 H   0  0  0  0  0  0  0  0  0  0  0  0
    6.5539   19.5412   15.8424 H   0  0  0  0  0  0  0  0  0  0  0  0
    7.8439   18.4595   14.5596 C   0  0  0  0  0  0  0  0  0  0  0  0
    7.8737   19.4664   13.5787 C   0  0  0  0  0  0  0  0  0  0  0  0
    7.4229   20.4260   13.8023 H   0  0  0  0  0  0  0  0  0  0  0  0
    8.4718   19.2589   12.3533 C   0  0  0  0  0  0  0  0  0  0  0  0
    8.4811   20.0542   11.6193 H   0  0  0  0  0  0  0  0  0  0  0  0
    9.0572   18.0387   12.0532 C   0  0  0  0  0  0  0  0  0  0  0  0
    9.5241   17.8774   11.0917 H   0  0  0  0  0  0  0  0  0  0  0  0
    9.0404   17.0288   13.0051 C   0  0  0  0  0  0  0  0  0  0  0  0
    9.4978   16.0743   12.7803 H   0  0  0  0  0  0  0  0  0  0  0  0
    8.4458   17.2283   14.2330 C   0  0  0  0  0  0  0  0  0  0  0  0
    8.4401   16.4283   14.9661 H   0  0  0  0  0  0  0  0  0  0  0  0
   10.6714   19.7043   15.9684 B   0  0  0  0  0  0  0  0  0  0  0  0
   10.3436   19.4164   14.8522 H   0  0  0  0  0  0  0  0  0  0  0  0
   11.3524   18.5896   17.1341 B   0  0  0  0  0  0  0  0  0  0  0  0
   11.4797   17.4014   17.0570 H   0  0  0  0  0  0  0  0  0  0  0  0
   11.1016   19.2696   18.6087 C   0  0  1  0  0  0  0  0  0  0  0  0
   10.9801   18.6503   19.5063 H   0  0  0  0  0  0  0  0  0  0  0  0
   11.2990   21.8653   17.7845 B   0  0  1  0  0  0  0  0  0  0  0  0
   11.1711   22.9914   18.1183 H   0  0  0  0  0  0  0  0  0  0  0  0
   11.5417   21.2575   16.1514 B   0  0  1  0  0  0  0  0  0  0  0  0
   11.6584   22.0042   15.2393 H   0  0  0  0  0  0  0  0  0  0  0  0
   12.4381   19.7236   16.2695 B   0  0  2  0  0  0  0  0  0  0  0  0
   13.2040   19.3615   15.4421 H   0  0  0  0  0  0  0  0  0  0  0  0
   12.7117   19.3992   17.9734 B   0  0  0  0  0  0  0  0  0  0  0  0
   13.5673   18.7535   18.4752 H   0  0  0  0  0  0  0  0  0  0  0  0
   12.0233   20.7225   18.9075 B   0  0  2  0  0  0  0  0  0  0  0  0
   12.3599   20.9667   20.0120 H   0  0  0  0  0  0  0  0  0  0  0  0
   12.8258   21.0682   17.3932 B   0  0  2  0  0  0  0  0  0  0  0  0
   13.8524   21.6552   17.3566 H   0  0  0  0  0  0  0  0  0  0  0  0
  3 48  1  0  0  0  0
  3 58  1  0  0  0  0
  3  6  1  1  0  0  0
  4  5  1  6  0  0  0
  4  3  1  0  0  0  0
  6 11  1  0  0  0  0
  6  7  1  0  0  0  0
  7 10  1  0  0  0  0
  7  9  1  0  0  0  0
  7  8  1  0  0  0  0
 11 14  1  0  0  0  0
 11 12  1  0  0  0  0
 13 11  1  0  0  0  0
 15  6  1  0  0  0  0
 15 28  1  0  0  0  0
 16 25  1  0  0  0  0
 16 15  2  0  0  0  0
 17 16  1  0  0  0  0
 18 17  1  0  0  0  0
 19 21  1  0  0  0  0
 19 17  2  0  0  0  0
 20 19  1  0  0  0  0
 21 23  2  0  0  0  0
 22 21  1  0  0  0  0
 23 24  1  0  0  0  0
 23 25  1  0  0  0  0
 25 26  2  0  0  0  0
 26 27  1  0  0  0  0
 26 28  1  0  0  0  0
 28 29  1  0  0  0  0
 30 31  1  0  0  0  0
 30  1  1  0  0  0  0
 32 30  1  0  0  0  0
 33 30  1  0  0  0  0
 34 35  1  0  0  0  0
 34 33  2  0  0  0  0
 36 34  1  0  0  0  0
 37 36  1  0  0  0  0
 38 36  2  0  0  0  0
 38 40  1  0  0  0  0
 39 38  1  0  0  0  0
 40 42  2  0  0  0  0
 41 40  1  0  0  0  0
 42 33  1  0  0  0  0
 42 43  1  0  0  0  0
 44  4  1  0  0  0  0
 44 46  1  0  0  0  0
 45 44  1  0  0  0  0
 46 48  1  0  0  0  0
 47 46  1  0  0  0  0
 48 49  1  1  0  0  0
 50 51  1  1  0  0  0
 50 58  1  0  0  0  0
 52 53  1  6  0  0  0
 52 54  1  0  0  0  0
 52  4  1  0  0  0  0
 52 50  1  0  0  0  0
 54 55  1  6  0  0  0
 54 60  1  0  0  0  0
 54 56  1  0  0  0  0
 56 57  1  0  0  0  0
 56 48  1  0  0  0  0
 58 59  1  1  0  0  0
 60 61  1  6  0  0  0
 60 50  1  0  0  0  0
 60 58  1  0  0  0  0
M  END
$$$$
