CSD_code = GOJLUN | q = 0 | S = 0 | Stoichiometry = C17H19ClN6PdS | MND = 4
 OpenBabel04212202043D

 45 49  0  0  0  0  0  0  0  0999 V2000
    5.2924    1.3212    3.2594 Pd  0  0  2  0  0  0  0  0  0  0  0  0
    4.6242    1.9484    1.2480 Cl  0  0  0  0  0  0  0  0  0  0  0  0
    6.3376    3.2675    3.8643 S   0  0  0  0  0  0  0  0  0  0  0  0
    4.5000   -0.5803    3.1633 N   0  0  0  0  0  0  0  0  0  0  0  0
    3.8441   -1.1686    2.1740 C   0  0  0  0  0  0  0  0  0  0  0  0
    3.6913   -0.5674    1.2844 H   0  0  0  0  0  0  0  0  0  0  0  0
    3.3799   -2.4710    2.2664 C   0  0  0  0  0  0  0  0  0  0  0  0
    2.8515   -2.9174    1.4404 H   0  0  0  0  0  0  0  0  0  0  0  0
    3.6119   -3.1782    3.4403 C   0  0  0  0  0  0  0  0  0  0  0  0
    3.2631   -4.1947    3.5448 H   0  0  0  0  0  0  0  0  0  0  0  0
    4.2947   -2.5686    4.4734 C   0  0  0  0  0  0  0  0  0  0  0  0
    4.4876   -3.0960    5.3931 H   0  0  0  0  0  0  0  0  0  0  0  0
    4.7421   -1.2499    4.3197 C   0  0  0  0  0  0  0  0  0  0  0  0
    9.1840    5.1644    9.8447 N   0  0  0  0  0  0  0  0  0  0  0  0
    8.6197    5.9117    8.8921 C   0  0  0  0  0  0  0  0  0  0  0  0
    9.0822    7.2101    8.6188 C   0  0  0  0  0  0  0  0  0  0  0  0
    8.6192    7.8268    7.8660 H   0  0  0  0  0  0  0  0  0  0  0  0
   10.1416    7.7032    9.3487 C   0  0  0  0  0  0  0  0  0  0  0  0
   10.5124    8.6993    9.1536 H   0  0  0  0  0  0  0  0  0  0  0  0
   10.7251    6.9160   10.3350 C   0  0  0  0  0  0  0  0  0  0  0  0
   11.5567    7.2729   10.9203 H   0  0  0  0  0  0  0  0  0  0  0  0
   10.1938    5.6570   10.5387 C   0  0  0  0  0  0  0  0  0  0  0  0
   10.5953    4.9911   11.2924 H   0  0  0  0  0  0  0  0  0  0  0  0
    7.5928    3.4332    6.2092 N   0  0  0  0  0  0  0  0  0  0  0  0
    5.8323    0.6960    5.0026 N   0  0  0  0  0  0  0  0  0  0  0  0
    7.5277    5.3619    8.2635 N   0  0  0  0  0  0  0  0  0  0  0  0
    6.5269    1.4452    5.8510 N   0  0  0  0  0  0  0  0  0  0  0  0
    5.8119   -1.1311    6.6571 C   0  0  0  0  0  0  0  0  0  0  0  0
    6.4330   -2.0165    6.5282 H   0  0  0  0  0  0  0  0  0  0  0  0
    4.9058   -1.4184    7.1886 H   0  0  0  0  0  0  0  0  0  0  0  0
    6.3551   -0.4000    7.2490 H   0  0  0  0  0  0  0  0  0  0  0  0
    7.1556    5.7177    6.9146 C   0  0  0  0  0  0  0  0  0  0  0  0
    7.3792    6.7607    6.7044 H   0  0  0  0  0  0  0  0  0  0  0  0
    6.0770    5.5667    6.8060 H   0  0  0  0  0  0  0  0  0  0  0  0
    5.4746   -0.5243    5.3292 C   0  0  0  0  0  0  0  0  0  0  0  0
    7.2032    3.9805    8.5478 C   0  0  0  0  0  0  0  0  0  0  0  0
    6.1218    3.8538    8.4431 H   0  0  0  0  0  0  0  0  0  0  0  0
    7.5107    3.7575    9.5680 H   0  0  0  0  0  0  0  0  0  0  0  0
    6.8380    2.6559    5.4208 C   0  0  0  0  0  0  0  0  0  0  0  0
    7.8929    4.8116    5.9122 C   0  0  0  0  0  0  0  0  0  0  0  0
    7.5919    5.0395    4.8904 H   0  0  0  0  0  0  0  0  0  0  0  0
    8.9732    4.9638    6.0171 H   0  0  0  0  0  0  0  0  0  0  0  0
    7.9282    3.0509    7.5640 C   0  0  0  0  0  0  0  0  0  0  0  0
    9.0083    3.1598    7.7049 H   0  0  0  0  0  0  0  0  0  0  0  0
    7.6387    2.0135    7.7168 H   0  0  0  0  0  0  0  0  0  0  0  0
  1  2  1  1  0  0  0
  1  3  1  0  0  0  0
  1 25  1  0  0  0  0
  3 39  1  0  0  0  0
  4  1  1  0  0  0  0
  4 13  1  0  0  0  0
  5  7  2  0  0  0  0
  5  4  1  0  0  0  0
  6  5  1  0  0  0  0
  7  9  1  0  0  0  0
  8  7  1  0  0  0  0
  9 10  1  0  0  0  0
  9 11  2  0  0  0  0
 11 12  1  0  0  0  0
 13 11  1  0  0  0  0
 13 35  2  0  0  0  0
 14 22  1  0  0  0  0
 15 14  2  0  0  0  0
 16 15  1  0  0  0  0
 16 18  2  0  0  0  0
 17 16  1  0  0  0  0
 18 20  1  0  0  0  0
 19 18  1  0  0  0  0
 20 22  2  0  0  0  0
 20 21  1  0  0  0  0
 22 23  1  0  0  0  0
 24 43  1  0  0  0  0
 25 35  1  0  0  0  0
 25 27  1  0  0  0  0
 26 36  1  0  0  0  0
 26 15  1  0  0  0  0
 28 30  1  0  0  0  0
 28 31  1  0  0  0  0
 29 28  1  0  0  0  0
 32 26  1  0  0  0  0
 33 32  1  0  0  0  0
 34 32  1  0  0  0  0
 35 28  1  0  0  0  0
 36 38  1  0  0  0  0
 37 36  1  0  0  0  0
 39 27  2  0  0  0  0
 39 24  1  0  0  0  0
 40 42  1  0  0  0  0
 40 24  1  0  0  0  0
 40 32  1  0  0  0  0
 41 40  1  0  0  0  0
 43 44  1  0  0  0  0
 43 45  1  0  0  0  0
 43 36  1  0  0  0  0
M  END
$$$$
