CSD_code = GOJQAZ | q = 0 | S = 0 | Stoichiometry = C32H29ClN3OPPdS | MND = 4
 OpenBabel04212202043D

 69 74  0  0  0  0  0  0  0  0999 V2000
    4.9604    1.1145    3.3714 Pd  0  0  2  0  0  0  0  0  0  0  0  0
    3.5604    2.0524    1.9121 P   0  0  0  0  0  4  0  0  0  0  0  0
    6.4819    2.8473    3.4977 S   0  0  0  0  0  0  0  0  0  0  0  0
    3.5008   -0.6449    3.1472 Cl  0  0  0  0  0  0  0  0  0  0  0  0
    8.6784   -1.1580    6.0020 O   0  0  0  0  0  0  0  0  0  0  0  0
    8.3123   -0.3773    5.5053 H   0  0  0  0  0  0  0  0  0  0  0  0
    8.6697    2.6722    4.9275 N   0  0  0  0  0  0  0  0  0  0  0  0
    8.8459    3.5519    4.4699 H   0  0  0  0  0  0  0  0  0  0  0  0
    5.4376   -2.0635    7.5364 C   0  0  0  0  0  0  0  0  0  0  0  0
    7.3055    0.8553    5.1260 N   0  0  0  0  0  0  0  0  0  0  0  0
    6.3557   -1.4673    6.6065 C   0  0  0  0  0  0  0  0  0  0  0  0
    6.1513    0.2225    4.7717 N   0  0  0  0  0  0  0  0  0  0  0  0
    7.7252   -1.6479    6.8068 C   0  0  0  0  0  0  0  0  0  0  0  0
    7.5440    2.0222    4.5970 C   0  0  0  0  0  0  0  0  0  0  0  0
    3.6969    1.2509    0.2911 C   0  0  0  0  0  0  0  0  0  0  0  0
    5.9288   -2.8702    8.5945 C   0  0  0  0  0  0  0  0  0  0  0  0
    3.1938   -2.4215    8.3775 C   0  0  0  0  0  0  0  0  0  0  0  0
    2.1319   -2.2372    8.3055 H   0  0  0  0  0  0  0  0  0  0  0  0
    2.9301    1.6273   -0.8070 C   0  0  0  0  0  0  0  0  0  0  0  0
    2.1976    2.4169   -0.7086 H   0  0  0  0  0  0  0  0  0  0  0  0
    4.0462   -1.8412    7.4756 C   0  0  0  0  0  0  0  0  0  0  0  0
    3.6331   -1.1921    6.7190 H   0  0  0  0  0  0  0  0  0  0  0  0
    4.6940    0.2891    0.1479 C   0  0  0  0  0  0  0  0  0  0  0  0
    5.3155    0.0265    1.0129 H   0  0  0  0  0  0  0  0  0  0  0  0
    9.6650    2.1506    5.8376 C   0  0  0  0  0  0  0  0  0  0  0  0
   10.2368    1.3508    5.3491 H   0  0  0  0  0  0  0  0  0  0  0  0
    9.1455    1.7121    6.6949 H   0  0  0  0  0  0  0  0  0  0  0  0
    7.3224   -3.0623    8.7249 C   0  0  0  0  0  0  0  0  0  0  0  0
    7.6898   -3.6899    9.5238 H   0  0  0  0  0  0  0  0  0  0  0  0
    8.1873   -2.4560    7.8701 C   0  0  0  0  0  0  0  0  0  0  0  0
    9.2556   -2.5814    7.9573 H   0  0  0  0  0  0  0  0  0  0  0  0
    5.7705   -0.8097    5.4512 C   0  0  0  0  0  3  0  0  0  0  0  0
    4.8508   -1.2587    5.0872 H   0  0  0  0  0  0  0  0  0  0  0  0
   10.5973    3.2622    6.2892 C   0  0  0  0  0  0  0  0  0  0  0  0
   11.1247    3.6887    5.4383 H   0  0  0  0  0  0  0  0  0  0  0  0
   11.3312    2.8673    6.9858 H   0  0  0  0  0  0  0  0  0  0  0  0
   10.0374    4.0515    6.7855 H   0  0  0  0  0  0  0  0  0  0  0  0
    3.6828   -3.2438    9.3987 C   0  0  0  0  0  0  0  0  0  0  0  0
    2.9970   -3.6953   10.1002 H   0  0  0  0  0  0  0  0  0  0  0  0
    1.8894    1.9229    2.6061 C   0  0  0  0  0  0  0  0  0  0  0  0
    4.8893   -0.3268   -1.0748 C   0  0  0  0  0  0  0  0  0  0  0  0
    5.6573   -1.0777   -1.1860 H   0  0  0  0  0  0  0  0  0  0  0  0
    0.7233    1.6581    1.9042 C   0  0  0  0  0  0  0  0  0  0  0  0
    0.7548    1.4930    0.8376 H   0  0  0  0  0  0  0  0  0  0  0  0
    5.0293   -3.4559    9.5056 C   0  0  0  0  0  0  0  0  0  0  0  0
    5.4290   -4.0724   10.2984 H   0  0  0  0  0  0  0  0  0  0  0  0
    3.1265    1.0028   -2.0252 C   0  0  0  0  0  0  0  0  0  0  0  0
    2.5260    1.2856   -2.8775 H   0  0  0  0  0  0  0  0  0  0  0  0
    3.6903    3.8065    1.4372 C   0  0  0  0  0  0  0  0  0  0  0  0
   -0.4793    1.5763    2.5874 C   0  0  0  0  0  0  0  0  0  0  0  0
   -1.3882    1.3601    2.0453 H   0  0  0  0  0  0  0  0  0  0  0  0
    4.8483    4.1880    0.7637 C   0  0  0  0  0  0  0  0  0  0  0  0
    5.6027    3.4403    0.5492 H   0  0  0  0  0  0  0  0  0  0  0  0
    1.8501    2.0902    3.9912 C   0  0  0  0  0  0  0  0  0  0  0  0
    2.7909    2.2575    4.5329 H   0  0  0  0  0  0  0  0  0  0  0  0
   -0.5196    1.7596    3.9589 C   0  0  0  0  0  0  0  0  0  0  0  0
   -1.4606    1.6891    4.4840 H   0  0  0  0  0  0  0  0  0  0  0  0
    2.7243    4.7559    1.7444 C   0  0  0  0  0  0  0  0  0  0  0  0
    1.8290    4.4645    2.2763 H   0  0  0  0  0  0  0  0  0  0  0  0
    0.6477    2.0138    4.6647 C   0  0  0  0  0  0  0  0  0  0  0  0
    0.6160    2.1381    5.7371 H   0  0  0  0  0  0  0  0  0  0  0  0
    4.0975    0.0222   -2.1571 C   0  0  0  0  0  0  0  0  0  0  0  0
    4.2446   -0.4629   -3.1107 H   0  0  0  0  0  0  0  0  0  0  0  0
    5.0316    5.5044    0.3907 C   0  0  0  0  0  0  0  0  0  0  0  0
    5.9310    5.7987   -0.1298 H   0  0  0  0  0  0  0  0  0  0  0  0
    4.0619    6.4493    0.6913 C   0  0  0  0  0  0  0  0  0  0  0  0
    4.2057    7.4801    0.4029 H   0  0  0  0  0  0  0  0  0  0  0  0
    2.9132    6.0746    1.3671 C   0  0  0  0  0  0  0  0  0  0  0  0
    2.1609    6.8124    1.6052 H   0  0  0  0  0  0  0  0  0  0  0  0
  1  4  1  6  0  0  0
  1  3  1  0  0  0  0
  1 12  1  0  0  0  0
  2 40  1  0  0  0  0
  2  1  1  0  0  0  0
  3 14  1  0  0  0  0
  5 13  1  0  0  0  0
  6  5  1  0  0  0  0
  7 25  1  0  0  0  0
  8  7  1  0  0  0  0
  9 16  1  0  0  0  0
 11 13  2  0  0  0  0
 11  9  1  0  0  0  0
 12 10  1  0  0  0  0
 12 32  1  0  0  0  0
 13 30  1  0  0  0  0
 14  7  1  0  0  0  0
 14 10  2  0  0  0  0
 15  2  1  0  0  0  0
 16 28  1  0  0  0  0
 16 45  2  0  0  0  0
 17 38  2  0  0  0  0
 18 17  1  0  0  0  0
 19 20  1  0  0  0  0
 19 15  2  0  0  0  0
 21  9  2  0  0  0  0
 21 17  1  0  0  0  0
 22 21  1  0  0  0  0
 23 15  1  0  0  0  0
 23 24  1  0  0  0  0
 25 34  1  0  0  0  0
 25 27  1  0  0  0  0
 26 25  1  0  0  0  0
 28 29  1  0  0  0  0
 30 31  1  0  0  0  0
 30 28  2  0  0  0  0
 32 11  1  0  0  0  0
 33 32  1  0  0  0  0
 34 37  1  0  0  0  0
 34 36  1  0  0  0  0
 35 34  1  0  0  0  0
 38 45  1  0  0  0  0
 38 39  1  0  0  0  0
 40 54  1  0  0  0  0
 41 23  2  0  0  0  0
 42 41  1  0  0  0  0
 43 50  1  0  0  0  0
 43 40  2  0  0  0  0
 44 43  1  0  0  0  0
 45 46  1  0  0  0  0
 47 19  1  0  0  0  0
 48 47  1  0  0  0  0
 49 58  1  0  0  0  0
 49  2  1  0  0  0  0
 50 56  2  0  0  0  0
 51 50  1  0  0  0  0
 52 49  2  0  0  0  0
 53 52  1  0  0  0  0
 54 55  1  0  0  0  0
 54 60  2  0  0  0  0
 56 57  1  0  0  0  0
 56 60  1  0  0  0  0
 58 59  1  0  0  0  0
 60 61  1  0  0  0  0
 62 47  2  0  0  0  0
 62 41  1  0  0  0  0
 63 62  1  0  0  0  0
 64 66  2  0  0  0  0
 64 52  1  0  0  0  0
 65 64  1  0  0  0  0
 66 68  1  0  0  0  0
 67 66  1  0  0  0  0
 68 69  1  0  0  0  0
 68 58  2  0  0  0  0
M  END
$$$$
