CSD_code = GOJSON | q = -1 | S = 0 | Stoichiometry = C7H9Cl3NPt(1-) | MND = 4
 OpenBabel04212202043D

 21 21  0  0  1  0  0  0  0  0999 V2000
    8.3160    1.8047    3.4535 Pt  0  0  0  0  0  0  0  0  0  0  0  0
    6.5109    2.7268    4.5894 Cl  0  0  0  0  0  0  0  0  0  0  0  0
    7.2026    1.8103    1.4888 Cl  0  0  0  0  0  0  0  0  0  0  0  0
   10.2230    0.8909    2.4766 Cl  0  0  0  0  0  0  0  0  0  0  0  0
    9.2735    1.7832    5.1578 N   0  0  0  0  0  0  0  0  0  0  0  0
   10.1376    2.7534    5.5037 C   0  0  1  0  0  3  0  0  0  0  0  0
   10.8099    2.7027    6.7140 C   0  0  0  0  0  0  0  0  0  0  0  0
   11.5016    3.4855    6.9799 H   0  0  0  0  0  0  0  0  0  0  0  0
   10.5945    1.6457    7.5862 C   0  0  0  0  0  0  0  0  0  0  0  0
   11.1140    1.5987    8.5322 H   0  0  0  0  0  0  0  0  0  0  0  0
    9.6979    0.6557    7.2138 C   0  0  0  0  0  0  0  0  0  0  0  0
    9.4931   -0.1859    7.8573 H   0  0  0  0  0  0  0  0  0  0  0  0
    9.0626    0.7653    5.9943 C   0  0  0  0  0  0  0  0  0  0  0  0
    8.3514    0.0175    5.6637 H   0  0  0  0  0  0  0  0  0  0  0  0
   10.3091    3.8519    4.4984 C   0  0  0  0  0  0  0  0  0  0  0  0
   10.7605    3.4062    3.6041 H   0  0  0  0  0  0  0  0  0  0  0  0
    9.3047    4.1929    4.2123 H   0  0  0  0  0  0  0  0  0  0  0  0
   11.1409    5.0436    4.9523 C   0  0  0  0  0  0  0  0  0  0  0  0
   11.1561    5.7929    4.1644 H   0  0  0  0  0  0  0  0  0  0  0  0
   12.1683    4.7497    5.1583 H   0  0  0  0  0  0  0  0  0  0  0  0
   10.7151    5.4968    5.8457 H   0  0  0  0  0  0  0  0  0  0  0  0
  1  2  1  0  0  0  0
  1  5  1  0  0  0  0
  3  1  1  0  0  0  0
  4  1  1  0  0  0  0
  5  6  1  0  0  0  0
  5 13  1  0  0  0  0
  6 15  1  6  0  0  0
  6  7  1  0  0  0  0
  7  8  1  0  0  0  0
  7  9  2  0  0  0  0
  9 10  1  0  0  0  0
 11  9  1  0  0  0  0
 11 12  1  0  0  0  0
 13 11  2  0  0  0  0
 14 13  1  0  0  0  0
 15 18  1  0  0  0  0
 16 15  1  0  0  0  0
 17 15  1  0  0  0  0
 18 20  1  0  0  0  0
 18 21  1  0  0  0  0
 19 18  1  0  0  0  0
M  END
$$$$
