CSD_code = GOJTAA | q = 0 | S = 0 | Stoichiometry = C12H14Cl2N2Pd | MND = 4
 OpenBabel04212202043D

 31 32  0  0  1  0  0  0  0  0999 V2000
    1.6931    2.4204    0.9731 Pd  0  0  0  0  0  0  0  0  0  0  0  0
    2.6699    1.3809   -0.8221 Cl  0  0  0  0  0  0  0  0  0  0  0  0
    0.7307    3.4962    2.7547 Cl  0  0  0  0  0  0  0  0  0  0  0  0
    0.0414    2.6174   -0.0364 N   0  0  0  0  0  0  0  0  0  0  0  0
   -0.1947    3.6768   -0.8142 C   0  0  2  0  0  3  0  0  0  0  0  0
   -1.3854    3.7872   -1.5211 C   0  0  0  0  0  0  0  0  0  0  0  0
   -1.5591    4.6500   -2.1448 H   0  0  0  0  0  0  0  0  0  0  0  0
   -2.3364    2.7866   -1.4157 C   0  0  0  0  0  0  0  0  0  0  0  0
   -3.2673    2.8561   -1.9572 H   0  0  0  0  0  0  0  0  0  0  0  0
   -2.0717    1.6943   -0.6025 C   0  0  0  0  0  0  0  0  0  0  0  0
   -2.7853    0.8938   -0.4927 H   0  0  0  0  0  0  0  0  0  0  0  0
   -0.8653    1.6495    0.0716 C   0  0  0  0  0  0  0  0  0  0  0  0
   -0.6100    0.8126    0.7235 H   0  0  0  0  0  0  0  0  0  0  0  0
    0.8896    4.7046   -0.8650 C   0  0  0  0  0  0  0  0  0  0  0  0
    1.0744    5.0779    0.1509 H   0  0  0  0  0  0  0  0  0  0  0  0
    0.6206    5.5356   -1.5110 H   0  0  0  0  0  0  0  0  0  0  0  0
    1.8072    4.2341   -1.2411 H   0  0  0  0  0  0  0  0  0  0  0  0
    3.2924    2.0913    2.0314 N   0  0  0  0  0  0  0  0  0  0  0  0
    4.3008    2.9647    2.0879 C   0  0  2  0  0  3  0  0  0  0  0  0
    5.4297    2.6970    2.8517 C   0  0  0  0  0  0  0  0  0  0  0  0
    6.2350    3.4141    2.8857 H   0  0  0  0  0  0  0  0  0  0  0  0
    5.5079    1.5105    3.5607 C   0  0  0  0  0  0  0  0  0  0  0  0
    6.3778    1.2856    4.1585 H   0  0  0  0  0  0  0  0  0  0  0  0
    4.4495    0.6167    3.4889 C   0  0  0  0  0  0  0  0  0  0  0  0
    4.4705   -0.3182    4.0253 H   0  0  0  0  0  0  0  0  0  0  0  0
    3.3566    0.9482    2.7096 C   0  0  0  0  0  0  0  0  0  0  0  0
    2.4993    0.2792    2.6197 H   0  0  0  0  0  0  0  0  0  0  0  0
    4.1262    4.2166    1.2899 C   0  0  0  0  0  0  0  0  0  0  0  0
    3.9807    3.9493    0.2349 H   0  0  0  0  0  0  0  0  0  0  0  0
    4.9893    4.8702    1.3803 H   0  0  0  0  0  0  0  0  0  0  0  0
    3.2322    4.7436    1.6474 H   0  0  0  0  0  0  0  0  0  0  0  0
  1 18  1  0  0  0  0
  1  3  1  0  0  0  0
  2  1  1  0  0  0  0
  4 12  1  0  0  0  0
  4  1  1  0  0  0  0
  5 14  1  6  0  0  0
  5  4  1  0  0  0  0
  6  8  2  0  0  0  0
  6  5  1  0  0  0  0
  7  6  1  0  0  0  0
  8 10  1  0  0  0  0
  9  8  1  0  0  0  0
 10 11  1  0  0  0  0
 10 12  2  0  0  0  0
 12 13  1  0  0  0  0
 14 15  1  0  0  0  0
 16 14  1  0  0  0  0
 17 14  1  0  0  0  0
 18 19  1  0  0  0  0
 18 26  1  0  0  0  0
 19 28  1  1  0  0  0
 19 20  1  0  0  0  0
 20 21  1  0  0  0  0
 20 22  2  0  0  0  0
 22 23  1  0  0  0  0
 24 22  1  0  0  0  0
 24 25  1  0  0  0  0
 26 24  2  0  0  0  0
 27 26  1  0  0  0  0
 28 30  1  0  0  0  0
 28 31  1  0  0  0  0
 29 28  1  0  0  0  0
M  END
$$$$
