CSD_code = GOJTEE | q = 0 | S = 0 | Stoichiometry = C14H18I2N2Pt | MND = 4
 OpenBabel04212202043D

 37 38  0  0  1  0  0  0  0  0999 V2000
    5.4442    7.3659    2.7175 Pt  0  0  0  0  0  0  0  0  0  0  0  0
    5.1460    9.4913    1.2401 I   0  0  0  0  0  0  0  0  0  0  0  0
    7.6068    8.1763    3.9162 I   0  0  0  0  0  0  0  0  0  0  0  0
    3.6196    6.7076    1.9747 N   0  0  0  0  0  0  0  0  0  0  0  0
    2.4816    7.2350    2.4362 C   0  0  2  0  0  3  0  0  0  0  0  0
    1.2693    6.9639    1.8110 C   0  0  0  0  0  0  0  0  0  0  0  0
    0.3675    7.4183    2.1890 H   0  0  0  0  0  0  0  0  0  0  0  0
    1.2335    6.1397    0.7024 C   0  0  0  0  0  0  0  0  0  0  0  0
    0.3013    5.9323    0.2004 H   0  0  0  0  0  0  0  0  0  0  0  0
    2.4243    5.5962    0.2420 C   0  0  0  0  0  0  0  0  0  0  0  0
    2.4523    4.9535   -0.6226 H   0  0  0  0  0  0  0  0  0  0  0  0
    3.5910    5.9122    0.9070 C   0  0  0  0  0  0  0  0  0  0  0  0
    4.5417    5.5258    0.5616 H   0  0  0  0  0  0  0  0  0  0  0  0
    2.5404    8.1298    3.6382 C   0  0  0  0  0  0  0  0  0  0  0  0
    2.1753    9.1202    3.3551 H   0  0  0  0  0  0  0  0  0  0  0  0
    3.5902    8.2470    3.9528 H   0  0  0  0  0  0  0  0  0  0  0  0
    1.7103    7.5926    4.8034 C   0  0  0  0  0  0  0  0  0  0  0  0
    1.8495    8.2257    5.6759 H   0  0  0  0  0  0  0  0  0  0  0  0
    2.0113    6.5779    5.0596 H   0  0  0  0  0  0  0  0  0  0  0  0
    0.6511    7.5800    4.5587 H   0  0  0  0  0  0  0  0  0  0  0  0
    5.6293    5.5793    3.6739 N   0  0  0  0  0  0  0  0  0  0  0  0
    6.3028    4.5672    3.1189 C   0  0  2  0  0  3  0  0  0  0  0  0
    6.3184    3.3135    3.7207 C   0  0  0  0  0  0  0  0  0  0  0  0
    6.8536    2.5075    3.2438 H   0  0  0  0  0  0  0  0  0  0  0  0
    5.6587    3.1136    4.9188 C   0  0  0  0  0  0  0  0  0  0  0  0
    5.6660    2.1463    5.3965 H   0  0  0  0  0  0  0  0  0  0  0  0
    5.0018    4.1890    5.5003 C   0  0  0  0  0  0  0  0  0  0  0  0
    4.4939    4.0925    6.4462 H   0  0  0  0  0  0  0  0  0  0  0  0
    5.0138    5.4011    4.8421 C   0  0  0  0  0  0  0  0  0  0  0  0
    4.5304    6.2691    5.2737 H   0  0  0  0  0  0  0  0  0  0  0  0
    7.0795    4.8189    1.8602 C   0  0  0  0  0  0  0  0  0  0  0  0
    6.7876    4.0921    1.0971 H   0  0  0  0  0  0  0  0  0  0  0  0
    6.8602    5.8323    1.4867 H   0  0  0  0  0  0  0  0  0  0  0  0
    8.5846    4.7133    2.1159 C   0  0  0  0  0  0  0  0  0  0  0  0
    9.1269    4.9077    1.1946 H   0  0  0  0  0  0  0  0  0  0  0  0
    8.8530    3.7230    2.4760 H   0  0  0  0  0  0  0  0  0  0  0  0
    8.8937    5.4476    2.8554 H   0  0  0  0  0  0  0  0  0  0  0  0
  1 21  1  0  0  0  0
  1  3  1  0  0  0  0
  2  1  1  0  0  0  0
  4  5  1  0  0  0  0
  4  1  1  0  0  0  0
  5 14  1  6  0  0  0
  6  7  1  0  0  0  0
  6  5  1  0  0  0  0
  8  6  2  0  0  0  0
  9  8  1  0  0  0  0
 10  8  1  0  0  0  0
 10 12  2  0  0  0  0
 11 10  1  0  0  0  0
 12  4  1  0  0  0  0
 13 12  1  0  0  0  0
 14 16  1  0  0  0  0
 14 17  1  0  0  0  0
 15 14  1  0  0  0  0
 17 19  1  0  0  0  0
 17 18  1  0  0  0  0
 20 17  1  0  0  0  0
 21 29  1  0  0  0  0
 22 31  1  1  0  0  0
 22 21  1  0  0  0  0
 22 23  1  0  0  0  0
 23 25  2  0  0  0  0
 24 23  1  0  0  0  0
 25 26  1  0  0  0  0
 25 27  1  0  0  0  0
 27 28  1  0  0  0  0
 29 30  1  0  0  0  0
 29 27  2  0  0  0  0
 31 34  1  0  0  0  0
 32 31  1  0  0  0  0
 33 31  1  0  0  0  0
 34 36  1  0  0  0  0
 34 37  1  0  0  0  0
 35 34  1  0  0  0  0
M  END
$$$$
