CSD_code = GOJVAC | q = 0 | S = 0 | Stoichiometry = C9H8ClMnO3P2 | MND = 6
 OpenBabel04212202043D

 24 25  0  0  0  0  0  0  0  0999 V2000
    2.4538    1.8236    1.7679 Mn  0  0  0  0  0  0  0  0  0  0  0  0
    4.4363    0.8071    2.3203 Cl  0  0  0  0  0  0  0  0  0  0  0  0
    3.8261    1.8363   -0.0197 P   0  0  0  0  0  4  0  0  0  0  0  0
    3.8896    3.3644    2.5696 P   0  0  0  0  0  4  0  0  0  0  0  0
    0.3036    3.5650    0.7941 O   0  0  0  0  0  1  0  0  0  0  0  0
    1.2799    1.4586    4.4322 O   0  0  0  0  0  1  0  0  0  0  0  0
    1.1924   -0.6592    0.8437 O   0  0  0  0  0  1  0  0  0  0  0  0
    1.1425    2.8820    1.1763 C   0  0  0  0  0  2  0  0  0  0  0  0
    1.7256    1.6125    3.3895 C   0  0  0  0  0  2  0  0  0  0  0  0
    1.6722    0.3181    1.1960 C   0  0  0  0  0  2  0  0  0  0  0  0
    5.2744    2.8904    0.2583 C   0  0  0  0  0  0  0  0  0  0  0  0
    6.3069    3.0246   -0.6585 C   0  0  0  0  0  0  0  0  0  0  0  0
    7.3707    3.8602   -0.3602 C   0  0  0  0  0  0  0  0  0  0  0  0
    7.4008    4.5638    0.8348 C   0  0  0  0  0  0  0  0  0  0  0  0
    6.3675    4.4425    1.7494 C   0  0  0  0  0  0  0  0  0  0  0  0
    5.3045    3.5990    1.4611 C   0  0  0  0  0  0  0  0  0  0  0  0
    4.4157    0.6579   -0.4488 H   0  0  0  0  0  0  0  0  0  0  0  0
    3.5301    2.2742   -1.3276 H   0  0  0  0  0  0  0  0  0  0  0  0
    4.5194    3.1574    3.7865 H   0  0  0  0  0  0  0  0  0  0  0  0
    3.6333    4.7271    2.8292 H   0  0  0  0  0  0  0  0  0  0  0  0
    6.3829    4.9933    2.6800 H   0  0  0  0  0  0  0  0  0  0  0  0
    8.2358    5.2118    1.0551 H   0  0  0  0  0  0  0  0  0  0  0  0
    8.1824    3.9637   -1.0644 H   0  0  0  0  0  0  0  0  0  0  0  0
    6.2759    2.4774   -1.5908 H   0  0  0  0  0  0  0  0  0  0  0  0
  1  2  1  0  0  0  0
  1  4  1  0  0  0  0
  1  9  1  0  0  0  0
  3 11  1  0  0  0  0
  3  1  1  0  0  0  0
  4 20  1  0  0  0  0
  4 19  1  0  0  0  0
  5  8  1  0  0  0  0
  7 10  1  0  0  0  0
  8  1  1  0  0  0  0
  9  6  1  0  0  0  0
 10  1  1  0  0  0  0
 11 16  1  0  0  0  0
 12 13  1  0  0  0  0
 12 11  2  0  0  0  0
 13 14  2  0  0  0  0
 14 22  1  0  0  0  0
 14 15  1  0  0  0  0
 15 21  1  0  0  0  0
 16 15  2  0  0  0  0
 16  4  1  0  0  0  0
 17  3  1  0  0  0  0
 18  3  1  0  0  0  0
 23 13  1  0  0  0  0
 24 12  1  0  0  0  0
M  END
$$$$
