CSD_code = GOJZIO | q = 0 | S = 0 | Stoichiometry = C10H14Cl2PdS4 | MND = 4
 OpenBabel04212202043D

 31 32  0  0  1  0  0  0  0  0999 V2000
    5.6788    5.7139    5.2148 Pd  0  0  0  0  0  0  0  0  0  0  0  0
    4.0527    6.0494    3.7120 Cl  0  0  0  0  0  0  0  0  0  0  0  0
    7.2099    5.7235    3.5830 Cl  0  0  0  0  0  0  0  0  0  0  0  0
    7.3759    5.3956    6.7974 S   0  0  1  0  0  3  0  0  0  0  0  0
    4.0973    5.7407    6.9163 S   0  0  1  0  0  3  0  0  0  0  0  0
    4.3228    6.4443    9.8329 S   0  0  0  0  0  0  0  0  0  0  0  0
    7.3739    5.4512    9.8093 S   0  0  0  0  0  0  0  0  0  0  0  0
    7.9667    7.0551    6.5890 C   0  0  0  0  0  0  0  0  0  0  0  0
    8.7478    7.6966    7.4644 C   0  0  0  0  0  0  0  0  0  0  0  0
    9.2713    7.2621    8.7295 C   0  0  0  0  0  0  0  0  0  0  0  0
    8.8407    6.3616    9.6255 C   0  0  0  0  0  0  0  0  0  0  0  0
    6.4593    5.6785    8.3286 C   0  0  2  0  0  3  0  0  0  0  0  0
    5.1423    5.9279    8.3518 C   0  0  1  0  0  3  0  0  0  0  0  0
    3.4861    7.4583    6.7526 C   0  0  0  0  0  0  0  0  0  0  0  0
    4.6069    8.4261    6.4208 C   0  0  0  0  0  0  0  0  0  0  0  0
    2.9364    5.2495    9.8794 C   0  0  0  0  0  0  0  0  0  0  0  0
    3.4351    3.8267   10.0180 C   0  0  0  0  0  0  0  0  0  0  0  0
    7.7364    7.4765    5.6147 H   0  0  0  0  0  0  0  0  0  0  0  0
    9.0970    8.6761    7.1578 H   0  0  0  0  0  0  0  0  0  0  0  0
   10.1935    7.7634    8.9998 H   0  0  0  0  0  0  0  0  0  0  0  0
    9.4381    6.1799   10.5078 H   0  0  0  0  0  0  0  0  0  0  0  0
    2.9857    7.7187    7.6857 H   0  0  0  0  0  0  0  0  0  0  0  0
    2.7675    7.3971    5.9346 H   0  0  0  0  0  0  0  0  0  0  0  0
    5.0945    8.1323    5.4719 H   0  0  0  0  0  0  0  0  0  0  0  0
    5.3430    8.4631    7.2266 H   0  0  0  0  0  0  0  0  0  0  0  0
    4.1935    9.4242    6.2897 H   0  0  0  0  0  0  0  0  0  0  0  0
    2.3378    5.3831    8.9791 H   0  0  0  0  0  0  0  0  0  0  0  0
    2.3582    5.5578   10.7495 H   0  0  0  0  0  0  0  0  0  0  0  0
    4.0774    3.7292   10.8904 H   0  0  0  0  0  0  0  0  0  0  0  0
    2.5891    3.1523   10.1291 H   0  0  0  0  0  0  0  0  0  0  0  0
    3.9993    3.5283    9.1361 H   0  0  0  0  0  0  0  0  0  0  0  0
  1  4  1  0  0  0  0
  1  5  1  0  0  0  0
  2  1  1  0  0  0  0
  3  1  1  0  0  0  0
  4  8  1  6  0  0  0
  4 12  1  0  0  0  0
  5 14  1  6  0  0  0
  5 13  1  0  0  0  0
  6 16  1  0  0  0  0
  8  9  2  0  0  0  0
  9 10  1  0  0  0  0
 10 20  1  0  0  0  0
 10 11  2  0  0  0  0
 11  7  1  0  0  0  0
 11 21  1  0  0  0  0
 12 13  1  0  0  0  0
 12  7  1  1  0  0  0
 13  6  1  1  0  0  0
 14 22  1  0  0  0  0
 15 14  1  0  0  0  0
 15 25  1  0  0  0  0
 16 17  1  0  0  0  0
 16 28  1  0  0  0  0
 17 30  1  0  0  0  0
 17 29  1  0  0  0  0
 18  8  1  0  0  0  0
 19  9  1  0  0  0  0
 23 14  1  0  0  0  0
 24 15  1  0  0  0  0
 26 15  1  0  0  0  0
 27 16  1  0  0  0  0
 31 17  1  0  0  0  0
M  END
$$$$
