CSD_code = GOLHOE | q = 1 | S = 0 | Stoichiometry = C24H16Cl2N4Rh(1+) | MND = 6
 OpenBabel04212202043D

 47 54  0  0  0  0  0  0  0  0999 V2000
    8.9275    1.7359    2.0926 Rh  0  0  0  0  0  0  0  0  0  0  0  0
    7.0349    2.8941    1.6096 Cl  0  0  0  0  0  0  0  0  0  0  0  0
    7.7631   -0.1642    2.5349 Cl  0  0  0  0  0  0  0  0  0  0  0  0
    9.9201    3.4660    1.5614 N   0  0  0  0  0  0  0  0  0  0  0  0
    9.0214    1.4170    0.1240 N   0  0  0  0  0  0  0  0  0  0  0  0
    8.8139    2.0490    4.0611 N   0  0  0  0  0  0  0  0  0  0  0  0
   10.5880    0.6484    2.6602 N   0  0  0  0  0  0  0  0  0  0  0  0
   10.3271    4.4766    2.3054 C   0  0  0  0  0  0  0  0  0  0  0  0
   10.7860    5.6756    1.7559 C   0  0  0  0  0  0  0  0  0  0  0  0
   10.8213    5.8306    0.3894 C   0  0  0  0  0  0  0  0  0  0  0  0
   10.3925    4.7712   -0.4270 C   0  0  0  0  0  0  0  0  0  0  0  0
   10.3712    4.8201   -1.8516 C   0  0  0  0  0  0  0  0  0  0  0  0
    9.9215    3.7716   -2.5847 C   0  0  0  0  0  0  0  0  0  0  0  0
    9.4491    2.5795   -1.9608 C   0  0  0  0  0  0  0  0  0  0  0  0
    8.9435    1.4724   -2.6635 C   0  0  0  0  0  0  0  0  0  0  0  0
    8.4982    0.3814   -1.9546 C   0  0  0  0  0  0  0  0  0  0  0  0
    8.5489    0.3893   -0.5580 C   0  0  0  0  0  0  0  0  0  0  0  0
    9.9430    3.6006    0.2178 C   0  0  0  0  0  0  0  0  0  0  0  0
    9.4654    2.5002   -0.5541 C   0  0  0  0  0  0  0  0  0  0  0  0
    7.9056    2.7418    4.7241 C   0  0  0  0  0  0  0  0  0  0  0  0
    7.8198    2.7156    6.1188 C   0  0  0  0  0  0  0  0  0  0  0  0
    8.6961    1.9445    6.8457 C   0  0  0  0  0  0  0  0  0  0  0  0
    9.6714    1.1972    6.1634 C   0  0  0  0  0  0  0  0  0  0  0  0
   10.6212    0.3502    6.8069 C   0  0  0  0  0  0  0  0  0  0  0  0
   11.5212   -0.3698    6.0923 C   0  0  0  0  0  0  0  0  0  0  0  0
   11.5550   -0.3071    4.6685 C   0  0  0  0  0  0  0  0  0  0  0  0
   12.4433   -1.0463    3.8702 C   0  0  0  0  0  0  0  0  0  0  0  0
   12.3760   -0.9165    2.5022 C   0  0  0  0  0  0  0  0  0  0  0  0
   11.4322   -0.0585    1.9335 C   0  0  0  0  0  0  0  0  0  0  0  0
    9.6866    1.2849    4.7572 C   0  0  0  0  0  0  0  0  0  0  0  0
   10.6355    0.5309    4.0048 C   0  0  0  0  0  0  0  0  0  0  0  0
   10.2915    4.3468    3.3792 H   0  0  0  0  0  0  0  0  0  0  0  0
   11.1013    6.4702    2.4128 H   0  0  0  0  0  0  0  0  0  0  0  0
   11.1636    6.7504   -0.0596 H   0  0  0  0  0  0  0  0  0  0  0  0
   10.7164    5.7219   -2.3335 H   0  0  0  0  0  0  0  0  0  0  0  0
    9.9021    3.8211   -3.6625 H   0  0  0  0  0  0  0  0  0  0  0  0
    8.9014    1.4947   -3.7417 H   0  0  0  0  0  0  0  0  0  0  0  0
    8.0950   -0.4821   -2.4585 H   0  0  0  0  0  0  0  0  0  0  0  0
    8.1814   -0.4515    0.0177 H   0  0  0  0  0  0  0  0  0  0  0  0
    7.2100    3.3259    4.1339 H   0  0  0  0  0  0  0  0  0  0  0  0
    7.0526    3.2949    6.6066 H   0  0  0  0  0  0  0  0  0  0  0  0
    8.6397    1.8969    7.9224 H   0  0  0  0  0  0  0  0  0  0  0  0
   10.5984    0.2902    7.8841 H   0  0  0  0  0  0  0  0  0  0  0  0
   12.2292   -1.0156    6.5886 H   0  0  0  0  0  0  0  0  0  0  0  0
   13.1579   -1.7090    4.3337 H   0  0  0  0  0  0  0  0  0  0  0  0
   13.0374   -1.4738    1.8588 H   0  0  0  0  0  0  0  0  0  0  0  0
   11.3687    0.0470    0.8583 H   0  0  0  0  0  0  0  0  0  0  0  0
  1  3  1  0  0  0  0
  1  7  1  0  0  0  0
  1  6  1  0  0  0  0
  2  1  1  0  0  0  0
  4  1  1  0  0  0  0
  4  8  1  0  0  0  0
  5  1  1  0  0  0  0
  6 20  1  0  0  0  0
  6 30  1  0  0  0  0
  7 31  1  0  0  0  0
  8 32  1  0  0  0  0
  9  8  2  0  0  0  0
  9 33  1  0  0  0  0
 10  9  1  0  0  0  0
 11 18  1  0  0  0  0
 11 10  2  0  0  0  0
 12 11  1  0  0  0  0
 13 14  1  0  0  0  0
 13 12  2  0  0  0  0
 14 19  1  0  0  0  0
 15 14  2  0  0  0  0
 15 16  1  0  0  0  0
 16 17  2  0  0  0  0
 17 39  1  0  0  0  0
 17  5  1  0  0  0  0
 18  4  1  0  0  0  0
 19  5  1  0  0  0  0
 19 18  2  0  0  0  0
 20 21  2  0  0  0  0
 21 41  1  0  0  0  0
 21 22  1  0  0  0  0
 22 42  1  0  0  0  0
 23 24  1  0  0  0  0
 23 22  2  0  0  0  0
 24 43  1  0  0  0  0
 25 44  1  0  0  0  0
 25 24  2  0  0  0  0
 26 25  1  0  0  0  0
 27 45  1  0  0  0  0
 27 26  2  0  0  0  0
 28 27  1  0  0  0  0
 29 28  2  0  0  0  0
 29  7  1  0  0  0  0
 30 23  1  0  0  0  0
 31 26  1  0  0  0  0
 31 30  2  0  0  0  0
 34 10  1  0  0  0  0
 35 12  1  0  0  0  0
 36 13  1  0  0  0  0
 37 15  1  0  0  0  0
 38 16  1  0  0  0  0
 40 20  1  0  0  0  0
 46 28  1  0  0  0  0
 47 29  1  0  0  0  0
M  END
$$$$
