CSD_code = GOMBOB | q = 0 | S = 0 | Stoichiometry = C17H29Cl2NSiTi | MND = 8
 OpenBabel04212202043D

 51 53  0  0  1  0  0  0  0  0999 V2000
    6.0100    9.7405    3.9229 Ti  0  0  0  0  0  0  0  0  0  0  0  0
    7.5283   10.5220    2.5742 Cl  0  0  0  0  0  0  0  0  0  0  0  0
    7.2952    8.8359    5.4226 Cl  0  0  0  0  0  0  0  0  0  0  0  0
    3.6205    8.3770    2.9740 Si  0  0  0  0  0  0  0  0  0  0  0  0
    5.3526    8.3010    2.9794 N   0  0  2  0  0  0  0  0  0  0  0  0
    3.7766   10.0229    3.9394 C   0  0  2  0  0  0  0  0  0  0  0  0
    4.3728   11.1593    3.3078 C   0  0  1  0  0  3  0  0  0  0  0  0
    4.1480   11.6166    1.8954 C   0  0  0  0  0  0  0  0  0  0  0  0
    4.9673   11.2962    1.2448 H   0  0  0  0  0  0  0  0  0  0  0  0
    4.0924   12.7051    1.8573 H   0  0  0  0  0  0  0  0  0  0  0  0
    3.2167   11.2097    1.5107 H   0  0  0  0  0  0  0  0  0  0  0  0
    5.1587   11.8595    4.2594 C   0  0  0  0  0  0  0  0  0  0  0  0
    5.8483   13.1693    4.0119 C   0  0  0  0  0  0  0  0  0  0  0  0
    5.1197   13.9840    4.0104 H   0  0  0  0  0  0  0  0  0  0  0  0
    6.3548   13.1615    3.0456 H   0  0  0  0  0  0  0  0  0  0  0  0
    6.5870   13.3783    4.7844 H   0  0  0  0  0  0  0  0  0  0  0  0
    5.0776   11.1534    5.4932 C   0  0  0  0  0  0  0  0  0  0  0  0
    5.6690   11.5666    6.8094 C   0  0  0  0  0  0  0  0  0  0  0  0
    6.5213   12.2303    6.6678 H   0  0  0  0  0  0  0  0  0  0  0  0
    6.0047   10.6936    7.3705 H   0  0  0  0  0  0  0  0  0  0  0  0
    4.9236   12.0952    7.4092 H   0  0  0  0  0  0  0  0  0  0  0  0
    4.2396   10.0253    5.2928 C   0  0  1  0  0  3  0  0  0  0  0  0
    3.8346    9.0695    6.3780 C   0  0  0  0  0  0  0  0  0  0  0  0
    3.6828    9.6078    7.3139 H   0  0  0  0  0  0  0  0  0  0  0  0
    4.6070    8.3130    6.5440 H   0  0  0  0  0  0  0  0  0  0  0  0
    2.9061    8.5708    6.1131 H   0  0  0  0  0  0  0  0  0  0  0  0
    2.6941    6.9749    3.8977 C   0  0  0  0  0  0  0  0  0  0  0  0
    2.5379    6.1320    3.2321 H   0  0  0  0  0  0  0  0  0  0  0  0
    1.7147    7.3053    4.2274 H   0  0  0  0  0  0  0  0  0  0  0  0
    3.2414    6.6164    4.7628 H   0  0  0  0  0  0  0  0  0  0  0  0
    2.7815    8.5181    1.2560 C   0  0  0  0  0  0  0  0  0  0  0  0
    3.4209    8.9990    0.5240 H   0  0  0  0  0  0  0  0  0  0  0  0
    1.8547    9.0786    1.3184 H   0  0  0  0  0  0  0  0  0  0  0  0
    2.5325    7.5322    0.8778 H   0  0  0  0  0  0  0  0  0  0  0  0
    6.2541    7.2816    2.5031 C   0  0  0  0  0  0  0  0  0  0  0  0
    7.2874    7.6736    2.5793 H   0  0  0  0  0  0  0  0  0  0  0  0
    6.9258    4.6319    1.4137 C   0  0  0  0  0  0  0  0  0  0  0  0
    7.6657    3.9057    1.0715 H   0  0  0  0  0  0  0  0  0  0  0  0
    5.9378    4.1768    1.3116 H   0  0  0  0  0  0  0  0  0  0  0  0
    6.1662    6.0127    3.3622 C   0  0  0  0  0  0  0  0  0  0  0  0
    7.1742    4.9744    2.8805 C   0  0  0  0  0  0  0  0  0  0  0  0
    8.1849    5.3725    2.9957 H   0  0  0  0  0  0  0  0  0  0  0  0
    7.0982    4.0727    3.4918 H   0  0  0  0  0  0  0  0  0  0  0  0
    5.9901    6.9276    1.0358 C   0  0  0  0  0  0  0  0  0  0  0  0
    6.9946    5.8880    0.5494 C   0  0  0  0  0  0  0  0  0  0  0  0
    6.7896    5.6350   -0.4930 H   0  0  0  0  0  0  0  0  0  0  0  0
    8.0013    6.3087    0.6001 H   0  0  0  0  0  0  0  0  0  0  0  0
    6.0580    7.8387    0.4360 H   0  0  0  0  0  0  0  0  0  0  0  0
    6.3557    6.2805    4.4065 H   0  0  0  0  0  0  0  0  0  0  0  0
    4.9743    6.5354    0.9522 H   0  0  0  0  0  0  0  0  0  0  0  0
    5.1530    5.6125    3.2850 H   0  0  0  0  0  0  0  0  0  0  0  0
  1  6  1  0  0  0  0
  1  3  1  0  0  0  0
  2  1  1  0  0  0  0
  4  5  1  0  0  0  0
  4 27  1  0  0  0  0
  5 35  1  1  0  0  0
  5  1  1  0  0  0  0
  6  4  1  6  0  0  0
  6 22  1  0  0  0  0
  7  8  1  1  0  0  0
  7  6  1  0  0  0  0
  7 12  1  0  0  0  0
  9  8  1  0  0  0  0
 10  8  1  0  0  0  0
 11  8  1  0  0  0  0
 12 17  2  0  0  0  0
 13 12  1  0  0  0  0
 13 16  1  0  0  0  0
 14 13  1  0  0  0  0
 15 13  1  0  0  0  0
 17 18  1  0  0  0  0
 18 20  1  0  0  0  0
 18 21  1  0  0  0  0
 19 18  1  0  0  0  0
 22 17  1  0  0  0  0
 22 23  1  1  0  0  0
 23 25  1  0  0  0  0
 23 24  1  0  0  0  0
 26 23  1  0  0  0  0
 27 29  1  0  0  0  0
 27 30  1  0  0  0  0
 28 27  1  0  0  0  0
 31 33  1  0  0  0  0
 31  4  1  0  0  0  0
 32 31  1  0  0  0  0
 34 31  1  0  0  0  0
 35 36  1  0  0  0  0
 35 40  1  0  0  0  0
 37 41  1  0  0  0  0
 38 37  1  0  0  0  0
 39 37  1  0  0  0  0
 40 49  1  0  0  0  0
 41 42  1  0  0  0  0
 41 40  1  0  0  0  0
 41 43  1  0  0  0  0
 44 35  1  0  0  0  0
 45 47  1  0  0  0  0
 45 44  1  0  0  0  0
 45 37  1  0  0  0  0
 46 45  1  0  0  0  0
 48 44  1  0  0  0  0
 50 44  1  0  0  0  0
 51 40  1  0  0  0  0
M  END
$$$$
