CSD_code = GOMLUP | q = 0 | S = 0 | Stoichiometry = C13H15Cl4NO3Ti | MND = 6
 OpenBabel04212202043D

 37 39  0  0  1  0  0  0  0  0999 V2000
    6.8321    5.1958    2.1438 Ti  0  0  0  0  0  0  0  0  0  0  0  0
    7.1729    7.1088    1.2613 Cl  0  0  0  0  0  0  0  0  0  0  0  0
    8.2088    4.0061    0.7746 Cl  0  0  0  0  0  0  0  0  0  0  0  0
    8.1587    5.3333    3.8316 Cl  0  0  0  0  0  0  0  0  0  0  0  0
    4.9384    5.6917    3.2001 Cl  0  0  0  0  0  0  0  0  0  0  0  0
    4.5200    3.2745   -1.0059 O   0  0  0  0  0  0  0  0  0  0  0  0
    5.0932    3.5379    0.1540 C   0  0  2  0  0  3  0  0  0  0  0  0
    5.2282    2.3606    0.8904 N   0  0  2  0  0  0  0  0  0  0  0  0
    4.3831    1.3385    0.2866 C   0  0  2  0  0  0  0  0  0  0  0  0
    4.8483    0.3544    0.3495 H   0  0  0  0  0  0  0  0  0  0  0  0
    4.3107    1.8714   -1.1493 C   0  0  0  0  0  0  0  0  0  0  0  0
    5.1021    1.4679   -1.7897 H   0  0  0  0  0  0  0  0  0  0  0  0
    3.3401    1.7192   -1.6227 H   0  0  0  0  0  0  0  0  0  0  0  0
    5.4317    4.6439    0.4947 O   0  0  0  0  0  0  0  0  0  0  0  0
    5.9373    2.2761    2.0724 C   0  0  2  0  0  3  0  0  0  0  0  0
    6.3209    3.2866    2.6382 O   0  0  0  0  0  0  0  0  0  0  0  0
    6.3424    0.9117    2.5559 C   0  0  0  0  0  0  0  0  0  0  0  0
    6.9134    0.4414    1.7494 H   0  0  0  0  0  0  0  0  0  0  0  0
    5.4670    0.2956    2.7658 H   0  0  0  0  0  0  0  0  0  0  0  0
    7.2106    1.0491    3.8026 C   0  0  0  0  0  0  0  0  0  0  0  0
    8.0726    1.6792    3.5904 H   0  0  0  0  0  0  0  0  0  0  0  0
    7.5541    0.0722    4.1293 H   0  0  0  0  0  0  0  0  0  0  0  0
    6.6415    1.5125    4.6046 H   0  0  0  0  0  0  0  0  0  0  0  0
    2.9913    1.3543    0.9622 C   0  0  0  0  0  0  0  0  0  0  0  0
    2.4288    0.4882    0.6115 H   0  0  0  0  0  0  0  0  0  0  0  0
    2.4689    2.2616    0.6505 H   0  0  0  0  0  0  0  0  0  0  0  0
    3.1089    1.3451    2.4628 C   0  0  0  0  0  0  0  0  0  0  0  0
    3.3492    2.5331    3.1454 C   0  0  0  0  0  0  0  0  0  0  0  0
    3.3616    3.4813    2.6242 H   0  0  0  0  0  0  0  0  0  0  0  0
    3.5601    2.5267    4.5148 C   0  0  0  0  0  0  0  0  0  0  0  0
    3.7629    3.4611    5.0145 H   0  0  0  0  0  0  0  0  0  0  0  0
    3.5146    1.3340    5.2157 C   0  0  0  0  0  0  0  0  0  0  0  0
    3.6778    1.3247    6.2824 H   0  0  0  0  0  0  0  0  0  0  0  0
    3.2443    0.1498    4.5476 C   0  0  0  0  0  0  0  0  0  0  0  0
    3.1887   -0.7800    5.0936 H   0  0  0  0  0  0  0  0  0  0  0  0
    3.0508    0.1534    3.1765 C   0  0  0  0  0  0  0  0  0  0  0  0
    2.8475   -0.7731    2.6575 H   0  0  0  0  0  0  0  0  0  0  0  0
  1 16  1  0  0  0  0
  1  5  1  0  0  0  0
  1  4  1  0  0  0  0
  2  1  1  0  0  0  0
  3  1  1  0  0  0  0
  7  6  1  1  0  0  0
  7 14  1  0  0  0  0
  7  8  1  0  0  0  0
  8 15  1  0  0  0  0
  9 10  1  0  0  0  0
  9  8  1  0  0  0  0
  9 24  1  0  0  0  0
 11  6  1  0  0  0  0
 11  9  1  0  0  0  0
 12 11  1  0  0  0  0
 13 11  1  0  0  0  0
 14  1  1  0  0  0  0
 15 17  1  0  0  0  0
 15 16  1  0  0  0  0
 17 19  1  0  0  0  0
 17 20  1  0  0  0  0
 18 17  1  0  0  0  0
 20 22  1  0  0  0  0
 20 23  1  0  0  0  0
 21 20  1  0  0  0  0
 24 27  1  0  0  0  0
 25 24  1  0  0  0  0
 26 24  1  0  0  0  0
 27 28  2  0  0  0  0
 27 36  1  0  0  0  0
 28 30  1  0  0  0  0
 29 28  1  0  0  0  0
 30 31  1  0  0  0  0
 30 32  2  0  0  0  0
 32 33  1  0  0  0  0
 34 35  1  0  0  0  0
 34 32  1  0  0  0  0
 36 34  2  0  0  0  0
 37 36  1  0  0  0  0
M  END
$$$$
