CSD_code = GOMXUB | q = 0 | S = 0 | Stoichiometry = C16H6Cl2I2N4Pd | MND = 4
 OpenBabel04212202043D

 31 32  0  0  0  0  0  0  0  0999 V2000
    9.0291    2.8490    8.9801 I   0  0  0  0  0  0  0  0  0  0  0  0
    9.5866    0.2963    8.8829 Pd  0  0  0  0  0  0  0  0  0  0  0  0
   13.8493   -1.5098   10.6746 Cl  0  0  0  0  0  0  0  0  0  0  0  0
   12.2063    0.9114   10.3464 N   0  0  0  0  0  2  0  0  0  0  0  0
   17.9673    2.0582   13.5116 N   0  0  0  0  0  0  0  0  0  0  0  0
   16.9792    1.8563   12.9694 C   0  0  0  0  0  0  0  0  0  0  0  0
   15.4521    0.3211   11.8711 C   0  0  0  0  0  0  0  0  0  0  0  0
   15.7564    1.6143   12.2963 C   0  0  0  0  0  0  0  0  0  0  0  0
   14.2595    0.0770   11.2146 C   0  0  0  0  0  0  0  0  0  0  0  0
   13.3726    1.1415   10.9866 C   0  0  0  0  0  0  0  0  0  0  0  0
   13.6818    2.4339   11.4134 C   0  0  0  0  0  0  0  0  0  0  0  0
   14.8711    2.6710   12.0674 C   0  0  0  0  0  0  0  0  0  0  0  0
   11.2174    0.6430    9.7885 C   0  0  0  0  0  2  0  0  0  0  0  0
   16.1427   -0.4873   12.0527 H   0  0  0  0  0  0  0  0  0  0  0  0
   12.9815    3.2336   11.2243 H   0  0  0  0  0  0  0  0  0  0  0  0
   15.1221    3.6651   12.4030 H   0  0  0  0  0  0  0  0  0  0  0  0
   10.1440   -2.2561    8.7859 I   0  0  0  0  0  0  0  0  0  0  0  0
    7.9559   -0.0506    7.9774 C   0  0  0  0  0  2  0  0  0  0  0  0
    6.9668   -0.3192    7.4198 N   0  0  0  0  0  2  0  0  0  0  0  0
    5.8006   -0.5491    6.7794 C   0  0  0  0  0  0  0  0  0  0  0  0
    4.9138    0.5154    6.5513 C   0  0  0  0  0  0  0  0  0  0  0  0
    5.3239    2.1022    7.0915 Cl  0  0  0  0  0  0  0  0  0  0  0  0
    3.7213    0.2714    5.8946 C   0  0  0  0  0  0  0  0  0  0  0  0
    3.4170   -1.0218    5.4694 C   0  0  0  0  0  0  0  0  0  0  0  0
    2.1938   -1.2640    4.7970 C   0  0  0  0  0  0  0  0  0  0  0  0
    1.2066   -1.4654    4.2529 N   0  0  0  0  0  0  0  0  0  0  0  0
    4.3022   -2.0785    5.6984 C   0  0  0  0  0  0  0  0  0  0  0  0
    5.4914   -1.8415    6.3525 C   0  0  0  0  0  0  0  0  0  0  0  0
    6.1916   -2.6412    6.5418 H   0  0  0  0  0  0  0  0  0  0  0  0
    4.0510   -3.0726    5.3629 H   0  0  0  0  0  0  0  0  0  0  0  0
    3.0306    1.0798    5.7130 H   0  0  0  0  0  0  0  0  0  0  0  0
  2  1  1  0  0  0  0
  2 13  1  0  0  0  0
  3  9  1  0  0  0  0
  4 10  1  0  0  0  0
  6  5  3  0  0  0  0
  7 14  1  0  0  0  0
  7  8  1  0  0  0  0
  8  6  1  0  0  0  0
  9  7  2  0  0  0  0
 10  9  1  0  0  0  0
 10 11  2  0  0  0  0
 11 12  1  0  0  0  0
 12  8  2  0  0  0  0
 12 16  1  0  0  0  0
 13  4  1  0  0  0  0
 15 11  1  0  0  0  0
 17  2  1  0  0  0  0
 18  2  1  0  0  0  0
 19 18  1  0  0  0  0
 20 19  1  0  0  0  0
 21 20  1  0  0  0  0
 21 22  1  0  0  0  0
 23 21  2  0  0  0  0
 24 27  2  0  0  0  0
 24 23  1  0  0  0  0
 25 24  1  0  0  0  0
 26 25  3  0  0  0  0
 27 28  1  0  0  0  0
 28 29  1  0  0  0  0
 28 20  2  0  0  0  0
 30 27  1  0  0  0  0
 31 23  1  0  0  0  0
M  END
$$$$
