CSD_code = GOMXOV | q = 0 | S = 0 | Stoichiometry = C20H16I2N4Pd | MND = 4
 OpenBabel04212202043D

 43 44  0  0  0  0  0  0  0  0999 V2000
    2.6820   -1.3856   12.8216 I   0  0  0  0  0  0  0  0  0  0  0  0
    2.5580   -3.5798   14.2474 Pd  0  0  0  0  0  0  0  0  0  0  0  0
    0.6245   -2.2326   16.2117 N   0  0  0  0  0  2  0  0  0  0  0  0
   -3.6051    0.2738   20.6999 N   0  0  0  0  0  0  0  0  0  0  0  0
    1.3611   -2.7366   15.4613 C   0  0  0  0  0  2  0  0  0  0  0  0
   -0.2328   -1.7264   17.1298 C   0  0  0  0  0  0  0  0  0  0  0  0
   -0.6406   -2.5445   18.1996 C   0  0  0  0  0  0  0  0  0  0  0  0
   -1.5199   -1.9921   19.1141 C   0  0  0  0  0  0  0  0  0  0  0  0
   -1.9745   -0.6798   18.9704 C   0  0  0  0  0  0  0  0  0  0  0  0
   -1.5541    0.1128   17.9015 C   0  0  0  0  0  0  0  0  0  0  0  0
   -0.6788   -0.4148   16.9775 C   0  0  0  0  0  0  0  0  0  0  0  0
   -2.8754   -0.1512   19.9257 C   0  0  0  0  0  0  0  0  0  0  0  0
   -0.1103   -3.9458   18.2890 C   0  0  0  0  0  0  0  0  0  0  0  0
   -0.5967   -4.7544   19.4826 C   0  0  0  0  0  0  0  0  0  0  0  0
   -1.8671   -2.5727   19.9536 H   0  0  0  0  0  0  0  0  0  0  0  0
   -1.9132    1.1254   17.8039 H   0  0  0  0  0  0  0  0  0  0  0  0
   -0.3342    0.1709   16.1386 H   0  0  0  0  0  0  0  0  0  0  0  0
   -0.3772   -4.4772   17.3688 H   0  0  0  0  0  0  0  0  0  0  0  0
    0.9841   -3.9017   18.3134 H   0  0  0  0  0  0  0  0  0  0  0  0
   -0.3050   -4.2847   20.4192 H   0  0  0  0  0  0  0  0  0  0  0  0
   -1.6779   -4.8704   19.4632 H   0  0  0  0  0  0  0  0  0  0  0  0
   -0.1489   -5.7439   19.4453 H   0  0  0  0  0  0  0  0  0  0  0  0
    2.4326   -5.7750   15.6721 I   0  0  0  0  0  0  0  0  0  0  0  0
    3.7544   -4.4216   13.0319 C   0  0  0  0  0  2  0  0  0  0  0  0
    4.4896   -4.9263   12.2805 N   0  0  0  0  0  2  0  0  0  0  0  0
    5.3480   -5.4324   11.3636 C   0  0  0  0  0  0  0  0  0  0  0  0
    5.7560   -4.6145   10.2937 C   0  0  0  0  0  0  0  0  0  0  0  0
    6.6355   -5.1670    9.3795 C   0  0  0  0  0  0  0  0  0  0  0  0
    7.0900   -6.4793    9.5233 C   0  0  0  0  0  0  0  0  0  0  0  0
    6.6697   -7.2717   10.5924 C   0  0  0  0  0  0  0  0  0  0  0  0
    5.7942   -6.7440   11.5162 C   0  0  0  0  0  0  0  0  0  0  0  0
    5.4494   -7.3296   12.3551 H   0  0  0  0  0  0  0  0  0  0  0  0
    7.0288   -8.2844   10.6901 H   0  0  0  0  0  0  0  0  0  0  0  0
    7.9906   -7.0083    8.5680 C   0  0  0  0  0  0  0  0  0  0  0  0
    8.7201   -7.4338    7.7938 N   0  0  0  0  0  0  0  0  0  0  0  0
    6.9826   -4.5865    8.5399 H   0  0  0  0  0  0  0  0  0  0  0  0
    5.2255   -3.2133   10.2041 C   0  0  0  0  0  0  0  0  0  0  0  0
    5.7123   -2.4046    9.0108 C   0  0  0  0  0  0  0  0  0  0  0  0
    5.4210   -2.8743    8.0741 H   0  0  0  0  0  0  0  0  0  0  0  0
    6.7935   -2.2886    9.0307 H   0  0  0  0  0  0  0  0  0  0  0  0
    5.2644   -1.4152    9.0480 H   0  0  0  0  0  0  0  0  0  0  0  0
    5.4919   -2.6820   11.1245 H   0  0  0  0  0  0  0  0  0  0  0  0
    4.1311   -3.2576   10.1793 H   0  0  0  0  0  0  0  0  0  0  0  0
  1  2  1  0  0  0  0
  2  5  1  0  0  0  0
  2 23  1  0  0  0  0
  3  6  1  0  0  0  0
  5  3  1  0  0  0  0
  6  7  1  0  0  0  0
  7 13  1  0  0  0  0
  7  8  2  0  0  0  0
  8 15  1  0  0  0  0
  9  8  1  0  0  0  0
  9 12  1  0  0  0  0
 10  9  2  0  0  0  0
 11  6  2  0  0  0  0
 11 10  1  0  0  0  0
 12  4  3  0  0  0  0
 13 19  1  0  0  0  0
 13 14  1  0  0  0  0
 14 20  1  0  0  0  0
 16 10  1  0  0  0  0
 17 11  1  0  0  0  0
 18 13  1  0  0  0  0
 21 14  1  0  0  0  0
 22 14  1  0  0  0  0
 24  2  1  0  0  0  0
 25 24  1  0  0  0  0
 26 31  1  0  0  0  0
 26 25  1  0  0  0  0
 27 26  2  0  0  0  0
 28 29  2  0  0  0  0
 28 27  1  0  0  0  0
 29 30  1  0  0  0  0
 30 33  1  0  0  0  0
 30 31  2  0  0  0  0
 31 32  1  0  0  0  0
 34 29  1  0  0  0  0
 35 34  3  0  0  0  0
 36 28  1  0  0  0  0
 37 27  1  0  0  0  0
 37 42  1  0  0  0  0
 38 40  1  0  0  0  0
 38 41  1  0  0  0  0
 38 37  1  0  0  0  0
 39 38  1  0  0  0  0
 43 37  1  0  0  0  0
M  END
$$$$
