CSD_code = GOMYOZ | q = 0 | S = 0 | Stoichiometry = C18H23Cl2NO3RuS3 | MND = 6
 OpenBabel04212202043D

 51 54  0  0  0  0  0  0  0  0999 V2000
    0.0738    6.5660    6.2837 Ru  0  0  0  0  0  0  0  0  0  0  0  0
   -0.2663    4.2211    5.9329 S   0  0  1  0  0  3  0  0  0  0  0  0
    1.9464    6.1471    7.4740 S   0  0  0  0  0  0  0  0  0  0  0  0
    1.1845    6.9427    4.3685 S   0  0  0  0  0  0  0  0  0  0  0  0
   -1.8631    7.1877    5.1065 Cl  0  0  0  0  0  0  0  0  0  0  0  0
   -3.4669   11.9143    9.6188 Cl  0  0  0  0  0  0  0  0  0  0  0  0
    0.3248    8.5948    6.6930 O   0  0  0  0  0  0  0  0  0  0  0  0
    1.6867    5.8443    8.8758 O   0  0  0  0  0  1  0  0  0  0  0  0
    2.6199    6.6581    4.3916 O   0  0  0  0  0  1  0  0  0  0  0  0
   -1.0257    6.3041    7.9456 N   0  0  0  0  0  0  0  0  0  0  0  0
   -0.5384    9.2468    7.3728 C   0  0  0  0  0  0  0  0  0  0  0  0
   -0.4900   10.6685    7.2980 C   0  0  0  0  0  0  0  0  0  0  0  0
    0.2720   11.0967    6.6641 H   0  0  0  0  0  0  0  0  0  0  0  0
   -1.3679   11.4710    7.9670 C   0  0  0  0  0  0  0  0  0  0  0  0
   -1.3132   12.5448    7.8749 H   0  0  0  0  0  0  0  0  0  0  0  0
   -2.3526   10.8913    8.7756 C   0  0  0  0  0  0  0  0  0  0  0  0
   -2.4297    9.5329    8.9073 C   0  0  0  0  0  0  0  0  0  0  0  0
   -3.1891    9.0992    9.5409 H   0  0  0  0  0  0  0  0  0  0  0  0
   -1.5373    8.6732    8.2299 C   0  0  0  0  0  0  0  0  0  0  0  0
   -1.6693    7.2867    8.5010 C   0  0  0  0  0  3  0  0  0  0  0  0
   -2.4086    7.0483    9.2660 H   0  0  0  0  0  0  0  0  0  0  0  0
   -1.1375    5.0114    8.4415 C   0  0  0  0  0  0  0  0  0  0  0  0
   -1.4938    4.7210    9.7641 C   0  0  0  0  0  0  0  0  0  0  0  0
   -1.6564    5.5263   10.4625 H   0  0  0  0  0  0  0  0  0  0  0  0
   -1.5865    3.4160   10.2042 C   0  0  0  0  0  0  0  0  0  0  0  0
   -1.8548    3.2230   11.2318 H   0  0  0  0  0  0  0  0  0  0  0  0
   -1.3244    2.3575    9.3487 C   0  0  0  0  0  0  0  0  0  0  0  0
   -1.3951    1.3395    9.6981 H   0  0  0  0  0  0  0  0  0  0  0  0
   -0.9361    2.6202    8.0474 C   0  0  0  0  0  0  0  0  0  0  0  0
   -0.6919    1.8166    7.3689 H   0  0  0  0  0  0  0  0  0  0  0  0
   -0.8387    3.9272    7.6061 C   0  0  0  0  0  0  0  0  0  0  0  0
   -1.8373    3.9225    5.0451 C   0  0  0  0  0  0  0  0  0  0  0  0
   -2.3160    3.0547    5.4869 H   0  0  0  0  0  0  0  0  0  0  0  0
   -1.5814    3.7293    4.0085 H   0  0  0  0  0  0  0  0  0  0  0  0
   -2.4590    4.8124    5.1183 H   0  0  0  0  0  0  0  0  0  0  0  0
    3.1496    7.5038    7.4241 C   0  0  0  0  0  0  0  0  0  0  0  0
    2.6236    8.4091    7.7107 H   0  0  0  0  0  0  0  0  0  0  0  0
    3.5053    7.5743    6.4027 H   0  0  0  0  0  0  0  0  0  0  0  0
    3.9494    7.2878    8.1224 H   0  0  0  0  0  0  0  0  0  0  0  0
    3.0407    4.8267    6.8610 C   0  0  0  0  0  0  0  0  0  0  0  0
    3.9158    4.7807    7.4977 H   0  0  0  0  0  0  0  0  0  0  0  0
    3.2989    5.0743    5.8378 H   0  0  0  0  0  0  0  0  0  0  0  0
    2.4923    3.8916    6.9084 H   0  0  0  0  0  0  0  0  0  0  0  0
    0.9879    8.6297    3.7376 C   0  0  0  0  0  0  0  0  0  0  0  0
    1.5608    8.7380    2.8245 H   0  0  0  0  0  0  0  0  0  0  0  0
    1.3538    9.2995    4.5088 H   0  0  0  0  0  0  0  0  0  0  0  0
   -0.0732    8.7880    3.5786 H   0  0  0  0  0  0  0  0  0  0  0  0
    0.5085    6.0685    2.9205 C   0  0  0  0  0  0  0  0  0  0  0  0
    0.9946    6.4294    2.0220 H   0  0  0  0  0  0  0  0  0  0  0  0
   -0.5591    6.2642    2.9096 H   0  0  0  0  0  0  0  0  0  0  0  0
    0.7077    5.0103    3.0571 H   0  0  0  0  0  0  0  0  0  0  0  0
  1  7  1  0  0  0  0
  1  3  1  0  0  0  0
  1 10  1  0  0  0  0
  2 32  1  6  0  0  0
  2  1  1  0  0  0  0
  2 31  1  0  0  0  0
  3  8  1  0  0  0  0
  4  9  1  0  0  0  0
  4  1  1  0  0  0  0
  5  1  1  0  0  0  0
  7 11  1  0  0  0  0
 10 22  1  0  0  0  0
 10 20  1  0  0  0  0
 11 19  1  0  0  0  0
 12 11  2  0  0  0  0
 12 14  1  0  0  0  0
 13 12  1  0  0  0  0
 14 16  2  0  0  0  0
 15 14  1  0  0  0  0
 16 17  1  0  0  0  0
 16  6  1  0  0  0  0
 17 18  1  0  0  0  0
 19 20  1  0  0  0  0
 19 17  2  0  0  0  0
 20 21  1  0  0  0  0
 22 23  1  0  0  0  0
 23 25  2  0  0  0  0
 23 24  1  0  0  0  0
 25 26  1  0  0  0  0
 27 28  1  0  0  0  0
 27 25  1  0  0  0  0
 29 27  2  0  0  0  0
 30 29  1  0  0  0  0
 31 29  1  0  0  0  0
 31 22  2  0  0  0  0
 32 35  1  0  0  0  0
 32 33  1  0  0  0  0
 34 32  1  0  0  0  0
 36  3  1  0  0  0  0
 36 37  1  0  0  0  0
 36 39  1  0  0  0  0
 38 36  1  0  0  0  0
 40 43  1  0  0  0  0
 40  3  1  0  0  0  0
 40 41  1  0  0  0  0
 42 40  1  0  0  0  0
 44  4  1  0  0  0  0
 44 46  1  0  0  0  0
 45 44  1  0  0  0  0
 47 44  1  0  0  0  0
 48 51  1  0  0  0  0
 48  4  1  0  0  0  0
 49 48  1  0  0  0  0
 50 48  1  0  0  0  0
M  END
$$$$
