CSD_code = GOMYIT | q = 0 | S = 0 | Stoichiometry = C33H26Cl2NO2PRuS | MND = 6
 OpenBabel04212202043D

 67 73  0  0  0  0  0  0  0  0999 V2000
    4.1959    2.2306   12.7319 Ru  0  0  0  0  0  0  0  0  0  0  0  0
    2.6806    1.7800   10.9253 S   0  0  1  0  0  3  0  0  0  0  0  0
    3.2105    4.2418   13.3821 P   0  0  0  0  0  4  0  0  0  0  0  0
    5.3699    3.5020   11.1501 Cl  0  0  0  0  0  0  0  0  0  0  0  0
   11.3323    1.1031   13.6467 Cl  0  0  0  0  0  0  0  0  0  0  0  0
    2.9278    0.3051   14.6210 O   0  0  0  0  0  1  0  0  0  0  0  0
    5.7288    2.6148   14.1266 O   0  0  0  0  0  0  0  0  0  0  0  0
    5.2383    0.6475   11.9510 N   0  0  0  0  0  0  0  0  0  0  0  0
    3.3777    1.1054   13.9272 C   0  0  0  0  0  2  0  0  0  0  0  0
    6.9183    2.1873   13.9759 C   0  0  0  0  0  0  0  0  0  0  0  0
    7.9023    2.6895   14.8815 C   0  0  0  0  0  0  0  0  0  0  0  0
    7.5520    3.3637   15.6491 H   0  0  0  0  0  0  0  0  0  0  0  0
    9.2231    2.3687   14.7835 C   0  0  0  0  0  0  0  0  0  0  0  0
    9.9440    2.7805   15.4728 H   0  0  0  0  0  0  0  0  0  0  0  0
    9.6501    1.4995   13.7696 C   0  0  0  0  0  0  0  0  0  0  0  0
    8.7498    0.9607   12.8959 C   0  0  0  0  0  0  0  0  0  0  0  0
    9.0905    0.2835   12.1265 H   0  0  0  0  0  0  0  0  0  0  0  0
    7.3702    1.2612   12.9754 C   0  0  0  0  0  0  0  0  0  0  0  0
    6.5307    0.5768   12.0637 C   0  0  0  0  0  3  0  0  0  0  0  0
    7.0621   -0.0968   11.3888 H   0  0  0  0  0  0  0  0  0  0  0  0
    4.5748   -0.2144   11.0849 C   0  0  0  0  0  0  0  0  0  0  0  0
    5.0467   -1.4991   10.7850 C   0  0  0  0  0  0  0  0  0  0  0  0
    5.9421   -1.8648   11.2641 H   0  0  0  0  0  0  0  0  0  0  0  0
    4.3586   -2.3232    9.9177 C   0  0  0  0  0  0  0  0  0  0  0  0
    4.7416   -3.3107    9.7094 H   0  0  0  0  0  0  0  0  0  0  0  0
    3.1851   -1.8940    9.3174 C   0  0  0  0  0  0  0  0  0  0  0  0
    2.6580   -2.5338    8.6275 H   0  0  0  0  0  0  0  0  0  0  0  0
    2.6859   -0.6404    9.6201 C   0  0  0  0  0  0  0  0  0  0  0  0
    1.7725   -0.2910    9.1644 H   0  0  0  0  0  0  0  0  0  0  0  0
    3.3536    0.1740   10.5182 C   0  0  0  0  0  0  0  0  0  0  0  0
    1.0639    1.2508   11.5905 C   0  0  0  0  0  0  0  0  0  0  0  0
    0.4358    0.9127   10.7721 H   0  0  0  0  0  0  0  0  0  0  0  0
    0.6225    2.1288   12.0534 H   0  0  0  0  0  0  0  0  0  0  0  0
    1.2040    0.4601   12.3206 H   0  0  0  0  0  0  0  0  0  0  0  0
    4.2014    5.7628   13.2796 C   0  0  0  0  0  0  0  0  0  0  0  0
    5.5425    5.7020   13.6452 C   0  0  0  0  0  0  0  0  0  0  0  0
    5.9594    4.7544   13.9531 H   0  0  0  0  0  0  0  0  0  0  0  0
    6.3278    6.8386   13.5977 C   0  0  0  0  0  0  0  0  0  0  0  0
    7.3716    6.7829   13.8706 H   0  0  0  0  0  0  0  0  0  0  0  0
    5.7783    8.0439   13.1917 C   0  0  0  0  0  0  0  0  0  0  0  0
    6.3927    8.9312   13.1467 H   0  0  0  0  0  0  0  0  0  0  0  0
    4.4404    8.1106   12.8392 C   0  0  0  0  0  0  0  0  0  0  0  0
    4.0101    9.0505   12.5246 H   0  0  0  0  0  0  0  0  0  0  0  0
    3.6491    6.9764   12.8813 C   0  0  0  0  0  0  0  0  0  0  0  0
    2.6067    7.0357   12.6018 H   0  0  0  0  0  0  0  0  0  0  0  0
    2.5452    4.3114   15.0750 C   0  0  0  0  0  0  0  0  0  0  0  0
    2.9256    5.2776   15.9979 C   0  0  0  0  0  0  0  0  0  0  0  0
    3.6366    6.0415   15.7177 H   0  0  0  0  0  0  0  0  0  0  0  0
    2.3961    5.2586   17.2774 C   0  0  0  0  0  0  0  0  0  0  0  0
    2.6973    6.0108   17.9918 H   0  0  0  0  0  0  0  0  0  0  0  0
    1.4856    4.2824   17.6433 C   0  0  0  0  0  0  0  0  0  0  0  0
    1.0756    4.2716   18.6423 H   0  0  0  0  0  0  0  0  0  0  0  0
    1.1042    3.3139   16.7273 C   0  0  0  0  0  0  0  0  0  0  0  0
    0.3972    2.5479   17.0108 H   0  0  0  0  0  0  0  0  0  0  0  0
    1.6357    3.3255   15.4526 C   0  0  0  0  0  0  0  0  0  0  0  0
    1.3501    2.5682   14.7328 H   0  0  0  0  0  0  0  0  0  0  0  0
    1.7771    4.6736   12.3392 C   0  0  0  0  0  0  0  0  0  0  0  0
    2.0361    4.8089   10.9744 C   0  0  0  0  0  0  0  0  0  0  0  0
    3.0499    4.6825   10.6145 H   0  0  0  0  0  0  0  0  0  0  0  0
    1.0113    5.1102   10.0984 C   0  0  0  0  0  0  0  0  0  0  0  0
    1.2189    5.2164    9.0441 H   0  0  0  0  0  0  0  0  0  0  0  0
   -0.2809    5.2762   10.5736 C   0  0  0  0  0  0  0  0  0  0  0  0
   -1.0839    5.5086    9.8898 H   0  0  0  0  0  0  0  0  0  0  0  0
   -0.5407    5.1510   11.9278 C   0  0  0  0  0  0  0  0  0  0  0  0
   -1.5451    5.2895   12.3012 H   0  0  0  0  0  0  0  0  0  0  0  0
    0.4828    4.8525   12.8129 C   0  0  0  0  0  0  0  0  0  0  0  0
    0.2740    4.7671   13.8698 H   0  0  0  0  0  0  0  0  0  0  0  0
  1  3  1  0  0  0  0
  1  9  1  0  0  0  0
  1  7  1  0  0  0  0
  2 31  1  1  0  0  0
  2  1  1  0  0  0  0
  3 46  1  0  0  0  0
  4  1  1  0  0  0  0
  5 15  1  0  0  0  0
  8 19  1  0  0  0  0
  8  1  1  0  0  0  0
  9  6  1  0  0  0  0
 10  7  1  0  0  0  0
 10 11  1  0  0  0  0
 11 12  1  0  0  0  0
 13 11  2  0  0  0  0
 13 14  1  0  0  0  0
 15 13  1  0  0  0  0
 16 18  1  0  0  0  0
 16 15  2  0  0  0  0
 17 16  1  0  0  0  0
 18 10  2  0  0  0  0
 19 18  1  0  0  0  0
 20 19  1  0  0  0  0
 21  8  1  0  0  0  0
 22 21  1  0  0  0  0
 22 23  1  0  0  0  0
 24 22  2  0  0  0  0
 25 24  1  0  0  0  0
 26 28  2  0  0  0  0
 26 24  1  0  0  0  0
 27 26  1  0  0  0  0
 28 30  1  0  0  0  0
 29 28  1  0  0  0  0
 30  2  1  0  0  0  0
 30 21  2  0  0  0  0
 31 33  1  0  0  0  0
 31 34  1  0  0  0  0
 32 31  1  0  0  0  0
 35  3  1  0  0  0  0
 35 36  1  0  0  0  0
 36 37  1  0  0  0  0
 38 36  2  0  0  0  0
 38 39  1  0  0  0  0
 40 38  1  0  0  0  0
 41 40  1  0  0  0  0
 42 44  1  0  0  0  0
 42 40  2  0  0  0  0
 43 42  1  0  0  0  0
 44 35  2  0  0  0  0
 45 44  1  0  0  0  0
 46 55  2  0  0  0  0
 46 47  1  0  0  0  0
 47 49  2  0  0  0  0
 48 47  1  0  0  0  0
 49 51  1  0  0  0  0
 49 50  1  0  0  0  0
 51 52  1  0  0  0  0
 53 54  1  0  0  0  0
 53 51  2  0  0  0  0
 55 53  1  0  0  0  0
 56 55  1  0  0  0  0
 57 66  1  0  0  0  0
 57  3  1  0  0  0  0
 58 57  2  0  0  0  0
 59 58  1  0  0  0  0
 60 62  2  0  0  0  0
 60 58  1  0  0  0  0
 61 60  1  0  0  0  0
 62 64  1  0  0  0  0
 63 62  1  0  0  0  0
 64 65  1  0  0  0  0
 64 66  2  0  0  0  0
 66 67  1  0  0  0  0
M  END
$$$$
