CSD_code = GONPOO | q = 0 | S = 0 | Stoichiometry = C25H19ClNNiOP | MND = 4
 OpenBabel04212202043D

 49 54  0  0  1  0  0  0  0  0999 V2000
    7.1819    5.3045    1.9889 Ni  0  0  2  0  0  0  0  0  0  0  0  0
    6.9637    3.4977    0.9745 P   0  0  0  0  0  4  0  0  0  0  0  0
    9.1361    4.6131    2.1275 Cl  0  0  0  0  0  0  0  0  0  0  0  0
    5.3101    5.6737    1.7393 N   0  0  0  0  0  0  0  0  0  0  0  0
    4.7028    6.6463    2.3740 C   0  0  0  0  0  0  0  0  0  0  0  0
    5.2908    7.6842    3.1210 C   0  0  0  0  0  0  0  0  0  0  0  0
    7.5408    6.9099    2.9060 O   0  0  0  0  0  0  0  0  0  0  0  0
    6.7126    7.7823    3.3137 C   0  0  2  0  0  3  0  0  0  0  0  0
    7.1960    8.9204    4.0221 C   0  0  0  0  0  0  0  0  0  0  0  0
    6.3478    9.8590    4.5290 C   0  0  0  0  0  0  0  0  0  0  0  0
    4.9568    9.7404    4.3630 C   0  0  0  0  0  0  0  0  0  0  0  0
    4.4497    8.6768    3.6768 C   0  0  0  0  0  0  0  0  0  0  0  0
    4.5710    4.7889    0.9383 C   0  0  0  0  0  0  0  0  0  0  0  0
    5.1973    3.6012    0.5195 C   0  0  0  0  0  0  0  0  0  0  0  0
    4.5317    2.6695   -0.2598 C   0  0  0  0  0  0  0  0  0  0  0  0
    3.2252    2.9018   -0.6498 C   0  0  0  0  0  0  0  0  0  0  0  0
    2.6081    4.0863   -0.2799 C   0  0  0  0  0  0  0  0  0  0  0  0
    3.2654    5.0226    0.4954 C   0  0  0  0  0  0  0  0  0  0  0  0
    7.7409    3.4667   -0.6650 C   0  0  0  0  0  0  0  0  0  0  0  0
    7.8839    2.3064   -1.4160 C   0  0  0  0  0  0  0  0  0  0  0  0
    8.4268    2.3790   -2.6866 C   0  0  0  0  0  0  0  0  0  0  0  0
    8.8197    3.6003   -3.2101 C   0  0  0  0  0  0  0  0  0  0  0  0
    8.6750    4.7587   -2.4629 C   0  0  0  0  0  0  0  0  0  0  0  0
    8.1356    4.6918   -1.1927 C   0  0  0  0  0  0  0  0  0  0  0  0
    7.2176    1.8461    1.6586 C   0  0  0  0  0  0  0  0  0  0  0  0
    8.5022    1.3073    1.6488 C   0  0  0  0  0  0  0  0  0  0  0  0
    8.7248    0.0581    2.1968 C   0  0  0  0  0  0  0  0  0  0  0  0
    7.6764   -0.6512    2.7626 C   0  0  0  0  0  0  0  0  0  0  0  0
    6.4028   -0.1063    2.7911 C   0  0  0  0  0  0  0  0  0  0  0  0
    6.1705    1.1439    2.2462 C   0  0  0  0  0  0  0  0  0  0  0  0
    3.6145    6.6878    2.3323 H   0  0  0  0  0  0  0  0  0  0  0  0
    8.2650    8.9955    4.1513 H   0  0  0  0  0  0  0  0  0  0  0  0
    6.7441   10.7068    5.0696 H   0  0  0  0  0  0  0  0  0  0  0  0
    4.3014   10.4919    4.7759 H   0  0  0  0  0  0  0  0  0  0  0  0
    3.3813    8.5802    3.5358 H   0  0  0  0  0  0  0  0  0  0  0  0
    5.0444    1.7674   -0.5615 H   0  0  0  0  0  0  0  0  0  0  0  0
    2.6995    2.1789   -1.2546 H   0  0  0  0  0  0  0  0  0  0  0  0
    1.5993    4.2905   -0.6071 H   0  0  0  0  0  0  0  0  0  0  0  0
    2.7548    5.9450    0.7267 H   0  0  0  0  0  0  0  0  0  0  0  0
    7.5873    1.3522   -1.0036 H   0  0  0  0  0  0  0  0  0  0  0  0
    8.5463    1.4781   -3.2706 H   0  0  0  0  0  0  0  0  0  0  0  0
    9.2451    3.6482   -4.2015 H   0  0  0  0  0  0  0  0  0  0  0  0
    8.9871    5.7088   -2.8699 H   0  0  0  0  0  0  0  0  0  0  0  0
    8.0304    5.5851   -0.5803 H   0  0  0  0  0  0  0  0  0  0  0  0
    9.3128    1.8840    1.2266 H   0  0  0  0  0  0  0  0  0  0  0  0
    9.7193   -0.3625    2.1886 H   0  0  0  0  0  0  0  0  0  0  0  0
    7.8533   -1.6270    3.1903 H   0  0  0  0  0  0  0  0  0  0  0  0
    5.5893   -0.6549    3.2428 H   0  0  0  0  0  0  0  0  0  0  0  0
    5.1800    1.5773    2.2749 H   0  0  0  0  0  0  0  0  0  0  0  0
  1  3  1  1  0  0  0
  1  7  1  0  0  0  0
  2 25  1  0  0  0  0
  2  1  1  0  0  0  0
  4  1  1  0  0  0  0
  4  5  1  0  0  0  0
  5  6  2  0  0  0  0
  6  8  1  0  0  0  0
  6 12  1  0  0  0  0
  8  7  1  1  0  0  0
  8  9  1  0  0  0  0
  9 32  1  0  0  0  0
  9 10  2  0  0  0  0
 10 33  1  0  0  0  0
 11 10  1  0  0  0  0
 11 34  1  0  0  0  0
 12 11  2  0  0  0  0
 13  4  1  0  0  0  0
 14 13  1  0  0  0  0
 14  2  1  0  0  0  0
 15 14  2  0  0  0  0
 16 17  2  0  0  0  0
 16 15  1  0  0  0  0
 17 18  1  0  0  0  0
 18 39  1  0  0  0  0
 18 13  2  0  0  0  0
 19  2  1  0  0  0  0
 20 40  1  0  0  0  0
 20 19  2  0  0  0  0
 21 20  1  0  0  0  0
 22 21  2  0  0  0  0
 22 23  1  0  0  0  0
 23 24  2  0  0  0  0
 24 19  1  0  0  0  0
 24 44  1  0  0  0  0
 25 30  1  0  0  0  0
 26 25  2  0  0  0  0
 26 27  1  0  0  0  0
 27 28  2  0  0  0  0
 28 29  1  0  0  0  0
 28 47  1  0  0  0  0
 29 48  1  0  0  0  0
 30 49  1  0  0  0  0
 30 29  2  0  0  0  0
 31  5  1  0  0  0  0
 35 12  1  0  0  0  0
 36 15  1  0  0  0  0
 37 16  1  0  0  0  0
 38 17  1  0  0  0  0
 41 21  1  0  0  0  0
 42 22  1  0  0  0  0
 43 23  1  0  0  0  0
 45 26  1  0  0  0  0
 46 27  1  0  0  0  0
M  END
$$$$
