CSD_code = GONPAA | q = 1 | S = 0 | Stoichiometry = C28H26ClNNiOP(1+) | MND = 4
 OpenBabel04212202043D

 59 63  0  0  1  0  0  0  0  0999 V2000
   14.7176   22.7178   18.9177 Ni  0  0  0  0  0  0  0  0  0  0  0  0
   15.9640   21.5306   19.9531 Cl  0  0  0  0  0  0  0  0  0  0  0  0
   13.3480   21.1407   19.1136 P   0  0  0  0  0  4  0  0  0  0  0  0
   13.3731   19.9813   20.4997 C   0  0  0  0  0  0  0  0  0  0  0  0
   13.6108   18.6243   20.3166 C   0  0  0  0  0  0  0  0  0  0  0  0
   13.6502   17.7869   21.4186 C   0  0  0  0  0  0  0  0  0  0  0  0
   13.4662   18.2992   22.6922 C   0  0  0  0  0  0  0  0  0  0  0  0
   13.2427   19.6565   22.8749 C   0  0  0  0  0  0  0  0  0  0  0  0
   13.1999   20.4998   21.7825 C   0  0  0  0  0  0  0  0  0  0  0  0
   13.4139   20.1619   17.5878 C   0  0  0  0  0  0  0  0  0  0  0  0
   12.3183   19.4238   17.1492 C   0  0  0  0  0  0  0  0  0  0  0  0
   12.4226   18.6754   15.9904 C   0  0  0  0  0  0  0  0  0  0  0  0
   13.6076   18.6627   15.2701 C   0  0  0  0  0  0  0  0  0  0  0  0
   14.6977   19.3999   15.7055 C   0  0  0  0  0  0  0  0  0  0  0  0
   14.6020   20.1509   16.8628 C   0  0  0  0  0  0  0  0  0  0  0  0
   11.6514   21.8172   19.1284 C   0  0  0  0  0  0  0  0  0  0  0  0
   11.3280   23.0231   18.4799 C   0  0  0  0  0  0  0  0  0  0  0  0
    9.9916   23.4388   18.4581 C   0  0  0  0  0  0  0  0  0  0  0  0
    9.0026   22.7014   19.0783 C   0  0  0  0  0  0  0  0  0  0  0  0
    9.3296   21.5198   19.7251 C   0  0  0  0  0  0  0  0  0  0  0  0
   10.6442   21.0837   19.7450 C   0  0  0  0  0  0  0  0  0  0  0  0
   12.2921   23.8804   17.8212 C   0  0  0  0  0  3  0  0  0  0  0  0
   13.5628   23.8252   17.9220 N   0  0  0  0  0  0  0  0  0  0  0  0
   14.3789   24.7399   17.1400 C   0  0  1  0  0  0  0  0  0  0  0  0
   15.4071   25.4015   18.0934 C   0  0  1  0  0  0  0  0  0  0  0  0
   16.0189   24.3237   18.7917 O   0  0  0  0  0  0  0  0  0  0  0  0
   16.3999   26.2577   17.3441 C   0  0  0  0  0  0  0  0  0  0  0  0
   16.0593   27.5622   17.0084 C   0  0  0  0  0  0  0  0  0  0  0  0
   16.9523   28.3570   16.3133 C   0  0  0  0  0  0  0  0  0  0  0  0
   18.1931   27.8567   15.9533 C   0  0  0  0  0  0  0  0  0  0  0  0
   18.5374   26.5586   16.2884 C   0  0  0  0  0  0  0  0  0  0  0  0
   17.6438   25.7584   16.9790 C   0  0  0  0  0  0  0  0  0  0  0  0
   15.0768   23.9243   16.0484 C   0  0  0  0  0  0  0  0  0  0  0  0
   13.7657   18.2291   19.3231 H   0  0  0  0  0  0  0  0  0  0  0  0
   13.8325   16.7322   21.2809 H   0  0  0  0  0  0  0  0  0  0  0  0
   13.5049   17.6419   23.5470 H   0  0  0  0  0  0  0  0  0  0  0  0
   13.1095   20.0543   23.8691 H   0  0  0  0  0  0  0  0  0  0  0  0
   13.0400   21.5633   21.9089 H   0  0  0  0  0  0  0  0  0  0  0  0
   11.3952   19.4347   17.7111 H   0  0  0  0  0  0  0  0  0  0  0  0
   11.5766   18.0992   15.6484 H   0  0  0  0  0  0  0  0  0  0  0  0
   13.6805   18.0759   14.3676 H   0  0  0  0  0  0  0  0  0  0  0  0
   15.6196   19.3868   15.1449 H   0  0  0  0  0  0  0  0  0  0  0  0
   15.4492   20.7250   17.2271 H   0  0  0  0  0  0  0  0  0  0  0  0
    9.7352   24.3610   17.9575 H   0  0  0  0  0  0  0  0  0  0  0  0
    7.9805   23.0450   19.0579 H   0  0  0  0  0  0  0  0  0  0  0  0
    8.5636   20.9351   20.2103 H   0  0  0  0  0  0  0  0  0  0  0  0
   10.8927   20.1600   20.2480 H   0  0  0  0  0  0  0  0  0  0  0  0
   11.8472   24.6590   17.1961 H   0  0  0  0  0  0  0  0  0  0  0  0
   13.7607   25.5241   16.6832 H   0  0  0  0  0  0  0  0  0  0  0  0
   14.8510   26.0335   18.8068 H   0  0  0  0  0  0  0  0  0  0  0  0
   16.7290   24.6447   19.3602 H   0  0  0  0  0  0  0  0  0  0  0  0
   15.0955   27.9561   17.2975 H   0  0  0  0  0  0  0  0  0  0  0  0
   16.6811   29.3693   16.0570 H   0  0  0  0  0  0  0  0  0  0  0  0
   18.8905   28.4791   15.4150 H   0  0  0  0  0  0  0  0  0  0  0  0
   19.5032   26.1648   16.0121 H   0  0  0  0  0  0  0  0  0  0  0  0
   17.9168   24.7439   17.2312 H   0  0  0  0  0  0  0  0  0  0  0  0
   14.3382   23.4414   15.4127 H   0  0  0  0  0  0  0  0  0  0  0  0
   15.7056   23.1549   16.5042 H   0  0  0  0  0  0  0  0  0  0  0  0
   15.7000   24.5737   15.4404 H   0  0  0  0  0  0  0  0  0  0  0  0
  1  3  1  0  0  0  0
  1  2  1  0  0  0  0
  3 16  1  0  0  0  0
  3  4  1  0  0  0  0
  4  9  1  0  0  0  0
  5  4  2  0  0  0  0
  5  6  1  0  0  0  0
  6  7  2  0  0  0  0
  7  8  1  0  0  0  0
  7 36  1  0  0  0  0
  8 37  1  0  0  0  0
  9 38  1  0  0  0  0
  9  8  2  0  0  0  0
 10  3  1  0  0  0  0
 11 10  1  0  0  0  0
 11 39  1  0  0  0  0
 12 11  2  0  0  0  0
 13 14  2  0  0  0  0
 13 12  1  0  0  0  0
 14 15  1  0  0  0  0
 15 43  1  0  0  0  0
 15 10  2  0  0  0  0
 16 21  1  0  0  0  0
 17 16  2  0  0  0  0
 18 17  1  0  0  0  0
 18 19  2  0  0  0  0
 19 20  1  0  0  0  0
 20 21  2  0  0  0  0
 20 46  1  0  0  0  0
 21 47  1  0  0  0  0
 22 23  1  0  0  0  0
 22 17  1  0  0  0  0
 23  1  1  0  0  0  0
 24 49  1  6  0  0  0
 24 23  1  0  0  0  0
 24 25  1  0  0  0  0
 25 26  1  0  0  0  0
 25 50  1  1  0  0  0
 26 51  1  0  0  0  0
 27 25  1  0  0  0  0
 28 52  1  0  0  0  0
 28 27  1  0  0  0  0
 29 28  2  0  0  0  0
 30 31  2  0  0  0  0
 30 29  1  0  0  0  0
 31 32  1  0  0  0  0
 32 56  1  0  0  0  0
 32 27  2  0  0  0  0
 33 58  1  0  0  0  0
 33 24  1  0  0  0  0
 34  5  1  0  0  0  0
 35  6  1  0  0  0  0
 40 12  1  0  0  0  0
 41 13  1  0  0  0  0
 42 14  1  0  0  0  0
 44 18  1  0  0  0  0
 45 19  1  0  0  0  0
 48 22  1  0  0  0  0
 53 29  1  0  0  0  0
 54 30  1  0  0  0  0
 55 31  1  0  0  0  0
 57 33  1  0  0  0  0
 59 33  1  0  0  0  0
M  END
$$$$
