CSD_code = GONQAB | q = 0 | S = 0 | Stoichiometry = C25H19ClNNiOP | MND = 4
 OpenBabel04212202043D

 49 54  0  0  0  0  0  0  0  0999 V2000
   12.8413    4.2218    3.5517 Ni  0  0  1  0  0  0  0  0  0  0  0  0
   11.5747    2.6998    3.0704 Cl  0  0  0  0  0  0  0  0  0  0  0  0
   11.4209    5.3145    4.1581 O   0  0  0  0  0  0  0  0  0  0  0  0
   11.8482    6.4738    4.5117 C   0  0  0  0  0  0  0  0  0  0  0  0
   13.2451    6.7572    4.4426 C   0  0  0  0  0  0  0  0  0  0  0  0
   14.0136    5.6646    4.0572 N   0  0  0  0  0  0  0  0  0  0  0  0
   13.7169    8.0416    4.7390 C   0  0  0  0  0  0  0  0  0  0  0  0
   12.8375    9.0152    5.1469 C   0  0  0  0  0  0  0  0  0  0  0  0
   11.4750    8.7282    5.2789 C   0  0  0  0  0  0  0  0  0  0  0  0
   10.9803    7.4874    4.9749 C   0  0  0  0  0  0  0  0  0  0  0  0
   15.2966    5.6662    4.2501 C   0  0  0  0  0  3  0  0  0  0  0  0
   16.2809    4.6888    3.8562 C   0  0  0  0  0  0  0  0  0  0  0  0
   16.0264    3.5060    3.1374 C   0  0  0  0  0  0  0  0  0  0  0  0
   17.0758    2.6558    2.8094 C   0  0  0  0  0  0  0  0  0  0  0  0
   18.3770    2.9517    3.1700 C   0  0  0  0  0  0  0  0  0  0  0  0
   18.6416    4.1153    3.8789 C   0  0  0  0  0  0  0  0  0  0  0  0
   17.6111    4.9658    4.2135 C   0  0  0  0  0  0  0  0  0  0  0  0
   14.3303    3.0390    2.6533 P   0  0  0  0  0  4  0  0  0  0  0  0
   14.3716    1.2386    2.8978 C   0  0  0  0  0  0  0  0  0  0  0  0
   14.6809    0.3350    1.8888 C   0  0  0  0  0  0  0  0  0  0  0  0
   14.7317   -1.0188    2.1732 C   0  0  0  0  0  0  0  0  0  0  0  0
   14.4807   -1.4732    3.4568 C   0  0  0  0  0  0  0  0  0  0  0  0
   14.1724   -0.5730    4.4648 C   0  0  0  0  0  0  0  0  0  0  0  0
   14.1171    0.7786    4.1861 C   0  0  0  0  0  0  0  0  0  0  0  0
   14.3394    3.2714    0.8516 C   0  0  0  0  0  0  0  0  0  0  0  0
   15.2967    4.0536    0.2148 C   0  0  0  0  0  0  0  0  0  0  0  0
   15.2329    4.2388   -1.1553 C   0  0  0  0  0  0  0  0  0  0  0  0
   14.2150    3.6553   -1.8911 C   0  0  0  0  0  0  0  0  0  0  0  0
   13.2505    2.8882   -1.2552 C   0  0  0  0  0  0  0  0  0  0  0  0
   13.3052    2.6990    0.1126 C   0  0  0  0  0  0  0  0  0  0  0  0
   14.7596    8.2939    4.6101 H   0  0  0  0  0  0  0  0  0  0  0  0
   13.1980   10.0104    5.3578 H   0  0  0  0  0  0  0  0  0  0  0  0
   10.8019    9.5063    5.6090 H   0  0  0  0  0  0  0  0  0  0  0  0
    9.9277    7.2620    5.0457 H   0  0  0  0  0  0  0  0  0  0  0  0
   15.7295    6.5150    4.7783 H   0  0  0  0  0  0  0  0  0  0  0  0
   16.8633    1.7498    2.2599 H   0  0  0  0  0  0  0  0  0  0  0  0
   19.1790    2.2808    2.9026 H   0  0  0  0  0  0  0  0  0  0  0  0
   19.6535    4.3551    4.1690 H   0  0  0  0  0  0  0  0  0  0  0  0
   17.8264    5.8700    4.7653 H   0  0  0  0  0  0  0  0  0  0  0  0
   14.8720    0.6848    0.8839 H   0  0  0  0  0  0  0  0  0  0  0  0
   14.9668   -1.7214    1.3871 H   0  0  0  0  0  0  0  0  0  0  0  0
   14.5196   -2.5309    3.6709 H   0  0  0  0  0  0  0  0  0  0  0  0
   13.9698   -0.9281    5.4642 H   0  0  0  0  0  0  0  0  0  0  0  0
   13.8570    1.4938    4.9573 H   0  0  0  0  0  0  0  0  0  0  0  0
   16.0902    4.5137    0.7874 H   0  0  0  0  0  0  0  0  0  0  0  0
   15.9785    4.8451   -1.6485 H   0  0  0  0  0  0  0  0  0  0  0  0
   14.1687    3.8051   -2.9596 H   0  0  0  0  0  0  0  0  0  0  0  0
   12.4505    2.4421   -1.8269 H   0  0  0  0  0  0  0  0  0  0  0  0
   12.5469    2.1232    0.6260 H   0  0  0  0  0  0  0  0  0  0  0  0
  1  2  1  1  0  0  0
  1  6  1  0  0  0  0
  1  3  1  0  0  0  0
  3  4  1  0  0  0  0
  4 10  1  0  0  0  0
  5  4  2  0  0  0  0
  5  7  1  0  0  0  0
  6 11  1  0  0  0  0
  6  5  1  0  0  0  0
  7  8  2  0  0  0  0
  8  9  1  0  0  0  0
  8 32  1  0  0  0  0
  9 33  1  0  0  0  0
 10 34  1  0  0  0  0
 10  9  2  0  0  0  0
 11 35  1  0  0  0  0
 12 17  1  0  0  0  0
 12 11  1  0  0  0  0
 13 12  2  0  0  0  0
 14 13  1  0  0  0  0
 14 15  2  0  0  0  0
 15 16  1  0  0  0  0
 16 38  1  0  0  0  0
 16 17  2  0  0  0  0
 17 39  1  0  0  0  0
 18 19  1  0  0  0  0
 18 13  1  0  0  0  0
 18  1  1  0  0  0  0
 19 24  1  0  0  0  0
 20 21  1  0  0  0  0
 20 19  2  0  0  0  0
 21 22  2  0  0  0  0
 22 42  1  0  0  0  0
 22 23  1  0  0  0  0
 23 43  1  0  0  0  0
 24 23  2  0  0  0  0
 24 44  1  0  0  0  0
 25 18  1  0  0  0  0
 26 45  1  0  0  0  0
 26 25  1  0  0  0  0
 27 26  2  0  0  0  0
 28 29  2  0  0  0  0
 28 27  1  0  0  0  0
 29 30  1  0  0  0  0
 30 49  1  0  0  0  0
 30 25  2  0  0  0  0
 31  7  1  0  0  0  0
 36 14  1  0  0  0  0
 37 15  1  0  0  0  0
 40 20  1  0  0  0  0
 41 21  1  0  0  0  0
 46 27  1  0  0  0  0
 47 28  1  0  0  0  0
 48 29  1  0  0  0  0
M  END
$$$$
