CSD_code = GOPBOF | q = 0 | S = 0 | Stoichiometry = C35H28I2N4Zn | MND = 5
 OpenBabel04212202043D

 70 77  0  0  1  0  0  0  0  0999 V2000
    4.4555    5.3448    7.9824 I   0  0  0  0  0  0  0  0  0  0  0  0
    2.3591    6.3448    3.9159 I   0  0  0  0  0  0  0  0  0  0  0  0
    2.5408    5.9532    6.4151 Zn  0  0  0  0  0  0  0  0  0  0  0  0
    0.8738    6.1058    7.7393 N   0  0  0  0  0  0  0  0  0  0  0  0
    1.5204    3.9403    6.4033 N   0  0  0  0  0  0  0  0  0  0  0  0
    2.3723    8.1284    6.9946 N   0  0  0  0  0  0  0  0  0  0  0  0
   -3.6370    6.0213   14.8617 N   0  0  0  0  0  0  0  0  0  0  0  0
    0.5296    3.8077    7.2858 C   0  0  1  0  0  3  0  0  0  0  0  0
    1.4538    8.3942    7.9240 C   0  0  2  0  0  3  0  0  0  0  0  0
    0.7343    7.2232    8.4489 C   0  0  2  0  0  3  0  0  0  0  0  0
    0.2864    4.9805    8.1402 C   0  0  0  0  0  0  0  0  0  0  0  0
   -0.6339    6.0854   10.0709 C   0  0  0  0  0  0  0  0  0  0  0  0
   -1.4096    6.0706   11.3064 C   0  0  0  0  0  0  0  0  0  0  0  0
   -1.0574    6.8827   12.3879 C   0  0  0  0  0  0  0  0  0  0  0  0
   -0.1742    7.5012   12.3285 H   0  0  0  0  0  0  0  0  0  0  0  0
   -3.7363    7.1705   15.6642 C   0  0  0  0  0  0  0  0  0  0  0  0
   -0.4709    4.9304    9.3026 C   0  0  0  0  0  0  0  0  0  0  0  0
   -0.8904    3.9984    9.6428 H   0  0  0  0  0  0  0  0  0  0  0  0
   -2.9036    6.0386   13.6903 C   0  0  0  0  0  0  0  0  0  0  0  0
   -0.0168    7.2529    9.6160 C   0  0  0  0  0  0  0  0  0  0  0  0
   -0.1193    8.1657   10.1784 H   0  0  0  0  0  0  0  0  0  0  0  0
   -1.7823    6.8661   13.5562 C   0  0  0  0  0  0  0  0  0  0  0  0
   -1.4774    7.4828   14.3882 H   0  0  0  0  0  0  0  0  0  0  0  0
   -4.2939    4.8504   15.2781 C   0  0  0  0  0  0  0  0  0  0  0  0
   -2.5268    5.2426   11.4452 C   0  0  0  0  0  0  0  0  0  0  0  0
   -2.8485    4.6327   10.6138 H   0  0  0  0  0  0  0  0  0  0  0  0
    1.8158    2.9384    5.5960 C   0  0  0  0  0  0  0  0  0  0  0  0
    2.6275    3.1080    4.9013 H   0  0  0  0  0  0  0  0  0  0  0  0
   -3.2626    5.2281   12.6066 C   0  0  0  0  0  0  0  0  0  0  0  0
   -4.1356    4.5974   12.6842 H   0  0  0  0  0  0  0  0  0  0  0  0
   -4.3295    2.4636   15.5721 C   0  0  0  0  0  0  0  0  0  0  0  0
   -3.8368    1.5078   15.4664 H   0  0  0  0  0  0  0  0  0  0  0  0
   -0.2194    2.6361    7.3642 C   0  0  0  0  0  0  0  0  0  0  0  0
   -1.0384    2.5489    8.0597 H   0  0  0  0  0  0  0  0  0  0  0  0
    1.2084    9.6979    8.3485 C   0  0  0  0  0  0  0  0  0  0  0  0
    0.4419    9.9077    9.0769 H   0  0  0  0  0  0  0  0  0  0  0  0
   -3.6965    7.0664   17.0516 C   0  0  0  0  0  0  0  0  0  0  0  0
   -3.5702    6.0961   17.5089 H   0  0  0  0  0  0  0  0  0  0  0  0
   -3.6803    3.6075   15.1489 C   0  0  0  0  0  0  0  0  0  0  0  0
   -2.6899    3.5435   14.7219 H   0  0  0  0  0  0  0  0  0  0  0  0
    3.0816    9.1132    6.4750 C   0  0  0  0  0  0  0  0  0  0  0  0
    3.8090    8.8338    5.7247 H   0  0  0  0  0  0  0  0  0  0  0  0
   -5.5946    2.5251   16.1413 C   0  0  0  0  0  0  0  0  0  0  0  0
    1.1333    1.7325    5.6172 C   0  0  0  0  0  0  0  0  0  0  0  0
    1.4087    0.9389    4.9420 H   0  0  0  0  0  0  0  0  0  0  0  0
   -3.8996    8.4282   15.0861 C   0  0  0  0  0  0  0  0  0  0  0  0
   -3.9453    8.5181   14.0104 H   0  0  0  0  0  0  0  0  0  0  0  0
   -3.9753    9.4531   17.2701 C   0  0  0  0  0  0  0  0  0  0  0  0
    1.9525   10.7302    7.8035 C   0  0  0  0  0  0  0  0  0  0  0  0
    1.7794   11.7490    8.1169 H   0  0  0  0  0  0  0  0  0  0  0  0
   -5.5642    4.9207   15.8465 C   0  0  0  0  0  0  0  0  0  0  0  0
   -6.0474    5.8811   15.9509 H   0  0  0  0  0  0  0  0  0  0  0  0
    0.0907    1.5858    6.5174 C   0  0  0  0  0  0  0  0  0  0  0  0
   -0.4772    0.6683    6.5591 H   0  0  0  0  0  0  0  0  0  0  0  0
    2.9155   10.4364    6.8520 C   0  0  0  0  0  0  0  0  0  0  0  0
    3.5189   11.2098    6.4055 H   0  0  0  0  0  0  0  0  0  0  0  0
   -3.8186    8.1958   17.8381 C   0  0  0  0  0  0  0  0  0  0  0  0
   -3.7850    8.0958   18.9133 H   0  0  0  0  0  0  0  0  0  0  0  0
   -4.0116    9.5492   15.8827 C   0  0  0  0  0  0  0  0  0  0  0  0
   -4.1406   10.5177   15.4212 H   0  0  0  0  0  0  0  0  0  0  0  0
   -6.1981    3.7718   16.2728 C   0  0  0  0  0  0  0  0  0  0  0  0
   -7.1832    3.8405   16.7111 H   0  0  0  0  0  0  0  0  0  0  0  0
   -6.3000    1.2902   16.6113 C   0  0  0  0  0  0  0  0  0  0  0  0
   -5.7074    0.4018   16.4094 H   0  0  0  0  0  0  0  0  0  0  0  0
   -7.2627    1.1884   16.1120 H   0  0  0  0  0  0  0  0  0  0  0  0
   -6.4874    1.3461   17.6831 H   0  0  0  0  0  0  0  0  0  0  0  0
   -4.1036   10.6823   18.1164 C   0  0  0  0  0  0  0  0  0  0  0  0
   -4.1080   10.4290   19.1732 H   0  0  0  0  0  0  0  0  0  0  0  0
   -5.0257   11.2121   17.8807 H   0  0  0  0  0  0  0  0  0  0  0  0
   -3.2734   11.3619   17.9262 H   0  0  0  0  0  0  0  0  0  0  0  0
  2  3  1  0  0  0  0
  3  6  1  0  0  0  0
  3  4  1  0  0  0  0
  3  1  1  0  0  0  0
  4 11  1  0  0  0  0
  4 10  1  0  0  0  0
  5  3  1  0  0  0  0
  5  8  1  0  0  0  0
  6  9  1  0  0  0  0
  7 24  1  0  0  0  0
  7 16  1  0  0  0  0
  8 33  1  6  0  0  0
  8 11  1  0  0  0  0
  9 35  1  6  0  0  0
  9 10  1  0  0  0  0
 10 20  1  1  0  0  0
 11 17  2  0  0  0  0
 12 13  1  0  0  0  0
 13 25  2  0  0  0  0
 13 14  1  0  0  0  0
 14 22  2  0  0  0  0
 15 14  1  0  0  0  0
 16 37  1  0  0  0  0
 17 18  1  0  0  0  0
 17 12  1  0  0  0  0
 19  7  1  0  0  0  0
 20 12  2  0  0  0  0
 20 21  1  0  0  0  0
 22 19  1  0  0  0  0
 22 23  1  0  0  0  0
 24 51  1  0  0  0  0
 25 29  1  0  0  0  0
 26 25  1  0  0  0  0
 27 44  2  0  0  0  0
 27  5  1  0  0  0  0
 28 27  1  0  0  0  0
 29 30  1  0  0  0  0
 29 19  2  0  0  0  0
 31 43  2  0  0  0  0
 32 31  1  0  0  0  0
 33 34  1  0  0  0  0
 35 36  1  0  0  0  0
 37 38  1  0  0  0  0
 37 57  2  0  0  0  0
 39 24  2  0  0  0  0
 39 31  1  0  0  0  0
 40 39  1  0  0  0  0
 41 55  2  0  0  0  0
 41  6  1  0  0  0  0
 42 41  1  0  0  0  0
 43 61  1  0  0  0  0
 43 63  1  0  0  0  0
 44 53  1  0  0  0  0
 45 44  1  0  0  0  0
 46 16  2  0  0  0  0
 46 59  1  0  0  0  0
 47 46  1  0  0  0  0
 48 57  1  0  0  0  0
 48 67  1  0  0  0  0
 49 50  1  0  0  0  0
 49 35  2  0  0  0  0
 51 52  1  0  0  0  0
 51 61  2  0  0  0  0
 53 54  1  0  0  0  0
 53 33  2  0  0  0  0
 55 49  1  0  0  0  0
 56 55  1  0  0  0  0
 57 58  1  0  0  0  0
 59 48  2  0  0  0  0
 60 59  1  0  0  0  0
 61 62  1  0  0  0  0
 63 66  1  0  0  0  0
 64 63  1  0  0  0  0
 65 63  1  0  0  0  0
 67 68  1  0  0  0  0
 69 67  1  0  0  0  0
 70 67  1  0  0  0  0
M  END
$$$$
