CSD_code = GOPDIB | q = 0 | S = 0 | Stoichiometry = C21H14FI2N3Zn | MND = 5
 OpenBabel04212202043D

 42 47  0  0  1  0  0  0  0  0999 V2000
   13.0842    2.4777    6.7686 Zn  0  0  0  0  0  0  0  0  0  0  0  0
   11.5045    3.2083    8.6090 I   0  0  0  0  0  0  0  0  0  0  0  0
   15.6084    2.4672    6.4294 I   0  0  0  0  0  0  0  0  0  0  0  0
   12.2251   -1.8389   -2.6572 F   0  0  0  0  0  0  0  0  0  0  0  0
   12.8380    0.2648    7.1322 N   0  0  0  0  0  0  0  0  0  0  0  0
   12.3870    1.6202    4.9261 N   0  0  0  0  0  0  0  0  0  0  0  0
   12.6223    4.1922    5.3788 N   0  0  0  0  0  0  0  0  0  0  0  0
   12.9628   -0.3284    8.3049 C   0  0  0  0  0  3  0  0  0  0  0  0
   13.2176    0.3110    9.1392 H   0  0  0  0  0  0  0  0  0  0  0  0
   12.7776   -1.6911    8.4791 C   0  0  0  0  0  0  0  0  0  0  0  0
   12.8923   -2.1359    9.4539 H   0  0  0  0  0  0  0  0  0  0  0  0
   12.4335   -2.4521    7.3741 C   0  0  0  0  0  0  0  0  0  0  0  0
   12.2665   -3.5148    7.4656 H   0  0  0  0  0  0  0  0  0  0  0  0
   12.3025   -1.8304    6.1438 C   0  0  0  0  0  0  0  0  0  0  0  0
   12.0177   -2.4023    5.2756 H   0  0  0  0  0  0  0  0  0  0  0  0
   12.5236   -0.4581    6.0566 C   0  0  0  0  0  0  0  0  0  0  0  0
   12.4250    0.2973    4.7981 C   0  0  2  0  0  3  0  0  0  0  0  0
   12.4023   -0.3089    3.5468 C   0  0  0  0  0  0  0  0  0  0  0  0
   12.4438   -1.3808    3.4496 H   0  0  0  0  0  0  0  0  0  0  0  0
   12.3324    0.4858    2.4051 C   0  0  0  0  0  0  0  0  0  0  0  0
   12.2878    1.8683    2.5692 C   0  0  0  0  0  0  0  0  0  0  0  0
   12.2743    2.5076    1.7023 H   0  0  0  0  0  0  0  0  0  0  0  0
   12.3211    2.4030    3.8530 C   0  0  0  0  0  0  0  0  0  0  0  0
   12.3178    3.8488    4.1264 C   0  0  1  0  0  3  0  0  0  0  0  0
   12.0151    4.8099    3.1649 C   0  0  0  0  0  0  0  0  0  0  0  0
   11.7465    4.5253    2.1607 H   0  0  0  0  0  0  0  0  0  0  0  0
   12.0485    6.1475    3.5218 C   0  0  0  0  0  0  0  0  0  0  0  0
   11.8177    6.9096    2.7927 H   0  0  0  0  0  0  0  0  0  0  0  0
   12.3781    6.4889    4.8230 C   0  0  0  0  0  0  0  0  0  0  0  0
   12.4166    7.5175    5.1420 H   0  0  0  0  0  0  0  0  0  0  0  0
   12.6528    5.4673    5.7187 C   0  0  0  0  0  0  0  0  0  0  0  0
   12.9033    5.6811    6.7491 H   0  0  0  0  0  0  0  0  0  0  0  0
   12.3117   -0.1206    1.0678 C   0  0  0  0  0  0  0  0  0  0  0  0
   11.4622    0.3770    0.0814 C   0  0  0  0  0  0  0  0  0  0  0  0
   10.8049    1.2037    0.3054 H   0  0  0  0  0  0  0  0  0  0  0  0
   11.4247   -0.1999   -1.1731 C   0  0  0  0  0  0  0  0  0  0  0  0
   10.7643    0.1687   -1.9418 H   0  0  0  0  0  0  0  0  0  0  0  0
   12.2560   -1.2744   -1.4376 C   0  0  0  0  0  0  0  0  0  0  0  0
   13.1168   -1.7842   -0.4812 C   0  0  0  0  0  0  0  0  0  0  0  0
   13.7561   -2.6178   -0.7241 H   0  0  0  0  0  0  0  0  0  0  0  0
   13.1357   -1.2055    0.7728 C   0  0  0  0  0  0  0  0  0  0  0  0
   13.8173   -1.5803    1.5211 H   0  0  0  0  0  0  0  0  0  0  0  0
  1  5  1  0  0  0  0
  1  2  1  0  0  0  0
  3  1  1  0  0  0  0
  4 38  1  0  0  0  0
  5  8  1  0  0  0  0
  6  1  1  0  0  0  0
  7 31  1  0  0  0  0
  7  1  1  0  0  0  0
  8 10  1  0  0  0  0
  8  9  1  0  0  0  0
 10 11  1  0  0  0  0
 12 13  1  0  0  0  0
 12 10  2  0  0  0  0
 14 12  1  0  0  0  0
 15 14  1  0  0  0  0
 16 14  2  0  0  0  0
 16  5  1  0  0  0  0
 17 18  1  6  0  0  0
 17  6  1  0  0  0  0
 17 16  1  0  0  0  0
 19 18  1  0  0  0  0
 20 21  1  0  0  0  0
 20 18  2  0  0  0  0
 21 23  2  0  0  0  0
 22 21  1  0  0  0  0
 23 24  1  0  0  0  0
 23  6  1  0  0  0  0
 24 25  1  1  0  0  0
 24  7  1  0  0  0  0
 25 27  2  0  0  0  0
 26 25  1  0  0  0  0
 27 29  1  0  0  0  0
 28 27  1  0  0  0  0
 29 30  1  0  0  0  0
 29 31  2  0  0  0  0
 31 32  1  0  0  0  0
 33 20  1  0  0  0  0
 34 35  1  0  0  0  0
 34 33  2  0  0  0  0
 36 34  1  0  0  0  0
 37 36  1  0  0  0  0
 38 36  2  0  0  0  0
 38 39  1  0  0  0  0
 39 41  2  0  0  0  0
 40 39  1  0  0  0  0
 41 33  1  0  0  0  0
 41 42  1  0  0  0  0
M  END
$$$$
