CSD_code = GOPFEZ | q = 0 | S = 0 | Stoichiometry = C21H14Br2IN3Zn | MND = 5
 OpenBabel04212202043D

 42 47  0  0  1  0  0  0  0  0999 V2000
    6.7309    2.6461    1.5989 Zn  0  0  0  0  0  0  0  0  0  0  0  0
   -0.4334   -2.4715    8.2805 I   0  0  0  0  0  0  0  0  0  0  0  0
    7.7657    2.0596    3.6944 Br  0  0  0  0  0  0  0  0  0  0  0  0
    7.4052    3.7120   -0.3977 Br  0  0  0  0  0  0  0  0  0  0  0  0
    5.4594    4.3409    2.3368 N   0  0  0  0  0  0  0  0  0  0  0  0
    4.8512    1.7976    2.2049 N   0  0  0  0  0  0  0  0  0  0  0  0
    6.6422    0.5795    0.7318 N   0  0  0  0  0  0  0  0  0  0  0  0
    5.7486    5.6242    2.2226 C   0  0  0  0  0  3  0  0  0  0  0  0
    6.6435    5.8640    1.6640 H   0  0  0  0  0  0  0  0  0  0  0  0
    4.9561    6.6203    2.7727 C   0  0  0  0  0  0  0  0  0  0  0  0
    5.2301    7.6565    2.6601 H   0  0  0  0  0  0  0  0  0  0  0  0
    3.8121    6.2469    3.4584 C   0  0  0  0  0  0  0  0  0  0  0  0
    3.1631    6.9909    3.8955 H   0  0  0  0  0  0  0  0  0  0  0  0
    3.5061    4.9009    3.5731 C   0  0  0  0  0  0  0  0  0  0  0  0
    2.6108    4.5873    4.0852 H   0  0  0  0  0  0  0  0  0  0  0  0
    4.3631    3.9659    3.0000 C   0  0  0  0  0  0  0  0  0  0  0  0
    4.1410    2.5136    3.0697 C   0  0  2  0  0  3  0  0  0  0  0  0
    3.3031    1.9035    3.9963 C   0  0  0  0  0  0  0  0  0  0  0  0
    2.7637    2.4876    4.7237 H   0  0  0  0  0  0  0  0  0  0  0  0
    3.2268    0.5127    4.0274 C   0  0  0  0  0  0  0  0  0  0  0  0
    3.9883   -0.2131    3.1138 C   0  0  0  0  0  0  0  0  0  0  0  0
    3.9609   -1.2902    3.1266 H   0  0  0  0  0  0  0  0  0  0  0  0
    4.7940    0.4704    2.2107 C   0  0  0  0  0  0  0  0  0  0  0  0
    5.6797   -0.1925    1.2415 C   0  0  1  0  0  3  0  0  0  0  0  0
    5.5413   -1.5250    0.8639 C   0  0  0  0  0  0  0  0  0  0  0  0
    4.7441   -2.1314    1.2626 H   0  0  0  0  0  0  0  0  0  0  0  0
    6.4345   -2.0563   -0.0518 C   0  0  0  0  0  0  0  0  0  0  0  0
    6.3481   -3.0877   -0.3594 H   0  0  0  0  0  0  0  0  0  0  0  0
    7.4318   -1.2450   -0.5670 C   0  0  0  0  0  0  0  0  0  0  0  0
    8.1464   -1.6189   -1.2819 H   0  0  0  0  0  0  0  0  0  0  0  0
    7.4907    0.0748   -0.1451 C   0  0  0  0  0  0  0  0  0  0  0  0
    8.2402    0.7536   -0.5292 H   0  0  0  0  0  0  0  0  0  0  0  0
    2.3822   -0.1735    5.0132 C   0  0  0  0  0  0  0  0  0  0  0  0
    2.8506   -1.3040    5.6791 C   0  0  0  0  0  0  0  0  0  0  0  0
    3.8517   -1.6618    5.4918 H   0  0  0  0  0  0  0  0  0  0  0  0
    2.0604   -1.9513    6.6096 C   0  0  0  0  0  0  0  0  0  0  0  0
    2.4370   -2.8197    7.1276 H   0  0  0  0  0  0  0  0  0  0  0  0
    0.7870   -1.4751    6.8701 C   0  0  0  0  0  0  0  0  0  0  0  0
    0.3013   -0.3548    6.2181 C   0  0  0  0  0  0  0  0  0  0  0  0
   -0.6931    0.0102    6.4237 H   0  0  0  0  0  0  0  0  0  0  0  0
    1.1017    0.2953    5.2982 C   0  0  0  0  0  0  0  0  0  0  0  0
    0.7165    1.1597    4.7778 H   0  0  0  0  0  0  0  0  0  0  0  0
  1  6  1  0  0  0  0
  1  5  1  0  0  0  0
  1  3  1  0  0  0  0
  4  1  1  0  0  0  0
  5 16  1  0  0  0  0
  6 23  1  0  0  0  0
  6 17  1  0  0  0  0
  7 24  1  0  0  0  0
  7  1  1  0  0  0  0
  8  5  1  0  0  0  0
  8 10  1  0  0  0  0
  9  8  1  0  0  0  0
 10 12  2  0  0  0  0
 11 10  1  0  0  0  0
 12 14  1  0  0  0  0
 12 13  1  0  0  0  0
 14 15  1  0  0  0  0
 16 14  2  0  0  0  0
 17 16  1  1  0  0  0
 17 18  1  0  0  0  0
 18 20  2  0  0  0  0
 18 19  1  0  0  0  0
 20 33  1  0  0  0  0
 21 22  1  0  0  0  0
 21 20  1  0  0  0  0
 23 21  2  0  0  0  0
 24 25  1  6  0  0  0
 24 23  1  0  0  0  0
 25 26  1  0  0  0  0
 27 25  2  0  0  0  0
 28 27  1  0  0  0  0
 29 31  2  0  0  0  0
 29 27  1  0  0  0  0
 30 29  1  0  0  0  0
 31  7  1  0  0  0  0
 32 31  1  0  0  0  0
 33 41  2  0  0  0  0
 33 34  1  0  0  0  0
 34 36  2  0  0  0  0
 35 34  1  0  0  0  0
 36 38  1  0  0  0  0
 36 37  1  0  0  0  0
 38  2  1  0  0  0  0
 39 40  1  0  0  0  0
 39 38  2  0  0  0  0
 41 39  1  0  0  0  0
 42 41  1  0  0  0  0
M  END
$$$$
