CSD_code = GOPFAV | q = 0 | S = 0 | Stoichiometry = C21H14BrI2N3Zn | MND = 5
 OpenBabel04212202043D

 42 47  0  0  1  0  0  0  0  0999 V2000
    1.9312    2.5566    1.6379 Zn  0  0  0  0  0  0  0  0  0  0  0  0
   -4.9430   -2.2770    8.6171 Br  0  0  0  0  0  0  0  0  0  0  0  0
    2.1043    3.5445   -0.6864 I   0  0  0  0  0  0  0  0  0  0  0  0
    3.5184    2.2158    3.6045 I   0  0  0  0  0  0  0  0  0  0  0  0
    1.8505    0.3981    0.9610 N   0  0  0  0  0  0  0  0  0  0  0  0
    0.1453    1.6972    2.4839 N   0  0  0  0  0  0  0  0  0  0  0  0
    0.7255    4.2595    2.5154 N   0  0  0  0  0  0  0  0  0  0  0  0
    2.6572   -0.1563    0.0752 C   0  0  0  0  0  3  0  0  0  0  0  0
    3.4046    0.4915   -0.3627 H   0  0  0  0  0  0  0  0  0  0  0  0
    2.5650   -1.4903   -0.2909 C   0  0  0  0  0  0  0  0  0  0  0  0
    3.2477   -1.9041   -1.0148 H   0  0  0  0  0  0  0  0  0  0  0  0
    1.5726   -2.2628    0.2894 C   0  0  0  0  0  0  0  0  0  0  0  0
    1.4554   -3.3025    0.0230 H   0  0  0  0  0  0  0  0  0  0  0  0
    0.7251   -1.6817    1.2176 C   0  0  0  0  0  0  0  0  0  0  0  0
   -0.0670   -2.2592    1.6662 H   0  0  0  0  0  0  0  0  0  0  0  0
    0.9016   -0.3387    1.5402 C   0  0  0  0  0  0  0  0  0  0  0  0
    0.0677    0.3706    2.5223 C   0  0  1  0  0  3  0  0  0  0  0  0
   -0.7232   -0.2817    3.4616 C   0  0  0  0  0  0  0  0  0  0  0  0
   -0.7644   -1.3577    3.4985 H   0  0  0  0  0  0  0  0  0  0  0  0
   -1.4572    0.4720    4.3742 C   0  0  0  0  0  0  0  0  0  0  0  0
   -1.3698    1.8602    4.3026 C   0  0  0  0  0  0  0  0  0  0  0  0
   -1.8935    2.4680    5.0218 H   0  0  0  0  0  0  0  0  0  0  0  0
   -0.5469    2.4396    3.3427 C   0  0  0  0  0  0  0  0  0  0  0  0
   -0.3403    3.8914    3.2280 C   0  0  2  0  0  3  0  0  0  0  0  0
   -1.1867    4.8321    3.8088 C   0  0  0  0  0  0  0  0  0  0  0  0
   -2.0624    4.5248    4.3574 H   0  0  0  0  0  0  0  0  0  0  0  0
   -0.8975    6.1775    3.6538 C   0  0  0  0  0  0  0  0  0  0  0  0
   -1.5395    6.9256    4.0941 H   0  0  0  0  0  0  0  0  0  0  0  0
    0.2218    6.5448    2.9253 C   0  0  0  0  0  0  0  0  0  0  0  0
    0.4848    7.5802    2.7832 H   0  0  0  0  0  0  0  0  0  0  0  0
    1.0007    5.5423    2.3684 C   0  0  0  0  0  0  0  0  0  0  0  0
    1.8759    5.7793    1.7787 H   0  0  0  0  0  0  0  0  0  0  0  0
   -2.2889   -0.1817    5.3924 C   0  0  0  0  0  0  0  0  0  0  0  0
   -3.5583    0.3095    5.6910 C   0  0  0  0  0  0  0  0  0  0  0  0
   -3.9429    1.1663    5.1580 H   0  0  0  0  0  0  0  0  0  0  0  0
   -4.3485   -0.3096    6.6397 C   0  0  0  0  0  0  0  0  0  0  0  0
   -5.3354    0.0659    6.8611 H   0  0  0  0  0  0  0  0  0  0  0  0
   -3.8603   -1.4221    7.3063 C   0  0  0  0  0  0  0  0  0  0  0  0
   -2.5972   -1.9219    7.0326 C   0  0  0  0  0  0  0  0  0  0  0  0
   -2.2270   -2.7839    7.5652 H   0  0  0  0  0  0  0  0  0  0  0  0
   -1.8196   -1.3038    6.0728 C   0  0  0  0  0  0  0  0  0  0  0  0
   -0.8274   -1.6789    5.8718 H   0  0  0  0  0  0  0  0  0  0  0  0
  1  6  1  0  0  0  0
  1  7  1  0  0  0  0
  1  4  1  0  0  0  0
  3  1  1  0  0  0  0
  5 16  1  0  0  0  0
  5  1  1  0  0  0  0
  6 17  1  0  0  0  0
  6 23  1  0  0  0  0
  7 24  1  0  0  0  0
  8  5  1  0  0  0  0
  9  8  1  0  0  0  0
 10  8  1  0  0  0  0
 10 12  2  0  0  0  0
 11 10  1  0  0  0  0
 12 14  1  0  0  0  0
 13 12  1  0  0  0  0
 14 16  2  0  0  0  0
 14 15  1  0  0  0  0
 17 16  1  1  0  0  0
 17 18  1  0  0  0  0
 18 19  1  0  0  0  0
 18 20  2  0  0  0  0
 20 33  1  0  0  0  0
 21 20  1  0  0  0  0
 21 22  1  0  0  0  0
 23 21  2  0  0  0  0
 24 23  1  6  0  0  0
 24 25  1  0  0  0  0
 25 26  1  0  0  0  0
 27 25  2  0  0  0  0
 27 28  1  0  0  0  0
 29 27  1  0  0  0  0
 30 29  1  0  0  0  0
 31  7  1  0  0  0  0
 31 29  2  0  0  0  0
 32 31  1  0  0  0  0
 33 34  2  0  0  0  0
 33 41  1  0  0  0  0
 34 36  1  0  0  0  0
 35 34  1  0  0  0  0
 36 37  1  0  0  0  0
 36 38  2  0  0  0  0
 38  2  1  0  0  0  0
 39 38  1  0  0  0  0
 39 40  1  0  0  0  0
 41 39  2  0  0  0  0
 42 41  1  0  0  0  0
M  END
$$$$
