CSD_code = GOPJEA | q = 0 | S = 0 | Stoichiometry = C8H18Cl2N2Pt | MND = 4
 OpenBabel04212202043D

 31 32  0  0  1  0  0  0  0  0999 V2000
    6.3281    1.6394   13.9266 Pt  0  0  0  0  0  0  0  0  0  0  0  0
    4.9259    2.4199   12.3479 Cl  0  0  0  0  0  0  0  0  0  0  0  0
    4.7039    1.1579   15.4105 Cl  0  0  0  0  0  0  0  0  0  0  0  0
    8.0979    1.9721   12.8015 N   0  0  2  0  0  4  0  0  0  0  0  0
    7.8755    1.0225   15.2022 N   0  0  1  0  0  4  0  0  0  0  0  0
    8.6602    0.6969   12.3121 C   0  0  0  0  0  0  0  0  0  0  0  0
    9.2854   -0.0892   13.4802 C   0  0  0  0  0  0  0  0  0  0  0  0
    8.4179   -0.2648   14.7332 C   0  0  1  0  0  0  0  0  0  0  0  0
    8.8260    2.1367   15.1753 C   0  0  0  0  0  0  0  0  0  0  0  0
    8.9402    2.7201   13.7397 C   0  0  0  0  0  0  0  0  0  0  0  0
    9.7452    0.9659   11.2598 C   0  0  0  0  0  0  0  0  0  0  0  0
    7.5270   -0.0933   11.6525 C   0  0  0  0  0  0  0  0  0  0  0  0
    9.2236   -0.9604   15.8334 C   0  0  0  0  0  0  0  0  0  0  0  0
   10.2274    0.3841   13.7648 H   0  0  0  0  0  0  0  0  0  0  0  0
    9.5354   -1.0853   13.1117 H   0  0  0  0  0  0  0  0  0  0  0  0
    7.5554   -0.8997   14.4974 H   0  0  0  0  0  0  0  0  0  0  0  0
    7.4920    0.8960   16.1387 H   0  0  0  0  0  0  0  0  0  0  0  0
    9.8108    1.8276   15.5466 H   0  0  0  0  0  0  0  0  0  0  0  0
    8.4467    2.9110   15.8454 H   0  0  0  0  0  0  0  0  0  0  0  0
    9.9880    2.7336   13.4150 H   0  0  0  0  0  0  0  0  0  0  0  0
    8.5823    3.7521   13.7461 H   0  0  0  0  0  0  0  0  0  0  0  0
    7.8573    2.5505   11.9972 H   0  0  0  0  0  0  0  0  0  0  0  0
   10.1530    0.0276   10.8942 H   0  0  0  0  0  0  0  0  0  0  0  0
   10.5676    1.5519   11.6652 H   0  0  0  0  0  0  0  0  0  0  0  0
    9.3235    1.5039   10.4137 H   0  0  0  0  0  0  0  0  0  0  0  0
    7.8881   -1.0551   11.2982 H   0  0  0  0  0  0  0  0  0  0  0  0
    6.7033   -0.2601   12.3522 H   0  0  0  0  0  0  0  0  0  0  0  0
    7.1268    0.4610   10.8069 H   0  0  0  0  0  0  0  0  0  0  0  0
    8.6007   -1.1228   16.7101 H   0  0  0  0  0  0  0  0  0  0  0  0
    9.5755   -1.9276   15.4856 H   0  0  0  0  0  0  0  0  0  0  0  0
   10.0901   -0.3712   16.1273 H   0  0  0  0  0  0  0  0  0  0  0  0
  1  5  1  0  0  0  0
  1  3  1  0  0  0  0
  2  1  1  0  0  0  0
  4 22  1  6  0  0  0
  4 10  1  0  0  0  0
  4  1  1  0  0  0  0
  5 17  1  1  0  0  0
  6  4  1  0  0  0  0
  6  7  1  0  0  0  0
  7 14  1  0  0  0  0
  7  8  1  0  0  0  0
  8 16  1  6  0  0  0
  8  5  1  0  0  0  0
  8 13  1  0  0  0  0
  9  5  1  0  0  0  0
  9 18  1  0  0  0  0
  9 19  1  0  0  0  0
 10 21  1  0  0  0  0
 10  9  1  0  0  0  0
 11 24  1  0  0  0  0
 11  6  1  0  0  0  0
 12  6  1  0  0  0  0
 12 27  1  0  0  0  0
 13 31  1  0  0  0  0
 13 29  1  0  0  0  0
 15  7  1  0  0  0  0
 20 10  1  0  0  0  0
 23 11  1  0  0  0  0
 25 11  1  0  0  0  0
 26 12  1  0  0  0  0
 28 12  1  0  0  0  0
 30 13  1  0  0  0  0
M  END
$$$$
