CSD_code = GOQHIF | q = 0 | S = 0 | Stoichiometry = C11H24Cl2N4NiO2 | MND = 6
 OpenBabel04212202043D

 44 47  0  0  1  0  0  0  0  0999 V2000
    3.8868    6.4601    3.3525 Ni  0  0  0  0  0  0  0  0  0  0  0  0
    5.5662    5.2933    4.2837 Cl  0  0  0  0  0  0  0  0  0  0  0  0
    2.2072    7.6450    2.4602 Cl  0  0  0  0  0  0  0  0  0  0  0  0
    2.5845    5.2509    4.0617 N   0  0  2  0  0  4  0  0  0  0  0  0
    1.7144    5.7336    3.8097 H   0  0  0  0  0  0  0  0  0  0  0  0
    2.5851    5.0298    5.5090 C   0  0  0  0  0  0  0  0  0  0  0  0
    3.5345    4.5659    5.7896 H   0  0  0  0  0  0  0  0  0  0  0  0
    1.7771    4.3333    5.7768 H   0  0  0  0  0  0  0  0  0  0  0  0
    2.3875    6.3167    6.3260 C   0  0  2  0  0  0  0  0  0  0  0  0
    1.5816    6.9110    5.8749 H   0  0  0  0  0  0  0  0  0  0  0  0
    3.6375    7.2223    6.4034 C   0  0  0  0  0  0  0  0  0  0  0  0
    3.5278    7.9177    7.2495 H   0  0  0  0  0  0  0  0  0  0  0  0
    4.5214    6.6008    6.5696 H   0  0  0  0  0  0  0  0  0  0  0  0
    3.8041    7.9159    5.1383 N   0  0  1  0  0  4  0  0  0  0  0  0
    3.0373    8.5741    5.0041 H   0  0  0  0  0  0  0  0  0  0  0  0
    5.0694    8.6033    4.9153 C   0  0  0  0  0  0  0  0  0  0  0  0
    5.8781    7.9348    5.2244 H   0  0  0  0  0  0  0  0  0  0  0  0
    5.1540    9.5430    5.4833 H   0  0  0  0  0  0  0  0  0  0  0  0
    5.2010    8.9023    3.4137 C   0  0  0  0  0  0  0  0  0  0  0  0
    4.3472    9.5061    3.0912 H   0  0  0  0  0  0  0  0  0  0  0  0
    6.1234    9.4702    3.2280 H   0  0  0  0  0  0  0  0  0  0  0  0
    5.1965    7.6583    2.6329 N   0  0  2  0  0  4  0  0  0  0  0  0
    6.0558    7.1454    2.8623 H   0  0  0  0  0  0  0  0  0  0  0  0
    5.1837    7.9010    1.1865 C   0  0  0  0  0  0  0  0  0  0  0  0
    5.9984    8.5984    0.9368 H   0  0  0  0  0  0  0  0  0  0  0  0
    4.2341    8.3773    0.9277 H   0  0  0  0  0  0  0  0  0  0  0  0
    5.3654    6.6324    0.3435 C   0  0  0  0  0  0  0  0  0  0  0  0
    6.2275    6.0717    0.7150 H   0  0  0  0  0  0  0  0  0  0  0  0
    5.5858    6.9492   -0.6776 H   0  0  0  0  0  0  0  0  0  0  0  0
    4.1446    5.7032    0.3025 C   0  0  0  0  0  0  0  0  0  0  0  0
    3.2426    6.2981    0.1374 H   0  0  0  0  0  0  0  0  0  0  0  0
    4.2557    5.0010   -0.5411 H   0  0  0  0  0  0  0  0  0  0  0  0
    4.0008    5.0120    1.5731 N   0  0  2  0  0  4  0  0  0  0  0  0
    4.7917    4.3834    1.7114 H   0  0  0  0  0  0  0  0  0  0  0  0
    2.7610    4.2794    1.7974 C   0  0  0  0  0  0  0  0  0  0  0  0
    2.7155    3.3300    1.2409 H   0  0  0  0  0  0  0  0  0  0  0  0
    1.9301    4.9127    1.4717 H   0  0  0  0  0  0  0  0  0  0  0  0
    2.6256    3.9945    3.3014 C   0  0  0  0  0  0  0  0  0  0  0  0
    1.7202    3.4014    3.4890 H   0  0  0  0  0  0  0  0  0  0  0  0
    3.4948    3.4228    3.6399 H   0  0  0  0  0  0  0  0  0  0  0  0
    1.9131    5.9492    7.7189 C   0  0  0  0  0  0  0  0  0  0  0  0
    1.6789    4.8373    8.1072 O   0  0  0  0  0  0  0  0  0  0  0  0
    1.7448    7.0257    8.4959 O   0  0  0  0  0  0  0  0  0  0  0  0
    1.4327    6.7586    9.3752 H   0  0  0  0  0  0  0  0  0  0  0  0
  1  4  1  0  0  0  0
  1  2  1  0  0  0  0
  1 14  1  0  0  0  0
  3  1  1  0  0  0  0
  4  5  1  6  0  0  0
  4  6  1  0  0  0  0
  6  8  1  0  0  0  0
  6  7  1  0  0  0  0
  6  9  1  0  0  0  0
  9 10  1  6  0  0  0
  9 11  1  0  0  0  0
  9 41  1  0  0  0  0
 11 13  1  0  0  0  0
 11 12  1  0  0  0  0
 14 15  1  6  0  0  0
 14 11  1  0  0  0  0
 16 14  1  0  0  0  0
 16 17  1  0  0  0  0
 16 18  1  0  0  0  0
 19 16  1  0  0  0  0
 20 19  1  0  0  0  0
 21 19  1  0  0  0  0
 22 23  1  1  0  0  0
 22  1  1  0  0  0  0
 22 19  1  0  0  0  0
 24 22  1  0  0  0  0
 25 24  1  0  0  0  0
 26 24  1  0  0  0  0
 27 28  1  0  0  0  0
 27 24  1  0  0  0  0
 29 27  1  0  0  0  0
 30 27  1  0  0  0  0
 30 33  1  0  0  0  0
 31 30  1  0  0  0  0
 32 30  1  0  0  0  0
 33 34  1  1  0  0  0
 33 35  1  0  0  0  0
 33  1  1  0  0  0  0
 35 38  1  0  0  0  0
 36 35  1  0  0  0  0
 37 35  1  0  0  0  0
 38 39  1  0  0  0  0
 38 40  1  0  0  0  0
 38  4  1  0  0  0  0
 41 42  2  0  0  0  0
 41 43  1  0  0  0  0
 43 44  1  0  0  0  0
M  END
$$$$
