CSD_code = GOSGIG | q = 0 | S = 0 | Stoichiometry = C29H30BrCuN6 | MND = 3
 OpenBabel04212202043D

 67 73  0  0  1  0  0  0  0  0999 V2000
   11.2294    0.6989    6.2936 C   0  0  0  0  0  0  0  0  0  0  0  0
   12.0793    0.6560    6.9722 H   0  0  0  0  0  0  0  0  0  0  0  0
   10.8378   -0.3040    6.1361 H   0  0  0  0  0  0  0  0  0  0  0  0
   10.4454    1.3038    6.7498 H   0  0  0  0  0  0  0  0  0  0  0  0
   11.6627    1.2903    5.0024 C   0  0  2  0  0  3  0  0  0  0  0  0
   11.0408    1.2291    3.7499 C   0  0  0  0  0  0  0  0  0  0  0  0
   10.1150    0.7467    3.5127 H   0  0  0  0  0  0  0  0  0  0  0  0
   11.8643    1.9189    2.8840 C   0  0  0  0  0  0  0  0  0  0  0  0
   11.6810    2.2063    1.4391 C   0  0  0  0  0  0  0  0  0  0  0  0
   11.7212    3.2785    1.2494 H   0  0  0  0  0  0  0  0  0  0  0  0
   10.7109    1.8337    1.1223 H   0  0  0  0  0  0  0  0  0  0  0  0
   12.4473    1.7182    0.8382 H   0  0  0  0  0  0  0  0  0  0  0  0
   14.1348    2.9915    3.1622 C   0  0  0  0  0  0  0  0  0  0  0  0
   14.0484    3.1329    2.0805 H   0  0  0  0  0  0  0  0  0  0  0  0
   14.2447    3.9718    3.6403 H   0  0  0  0  0  0  0  0  0  0  0  0
   15.2086    0.8163    3.2356 C   0  0  0  0  0  0  0  0  0  0  0  0
   14.8131    0.3291    2.0102 C   0  0  0  0  0  0  0  0  0  0  0  0
   14.5989    1.0127    1.2034 H   0  0  0  0  0  0  0  0  0  0  0  0
   14.7127   -1.0475    1.7949 C   0  0  0  0  0  0  0  0  0  0  0  0
   14.4077   -1.4057    0.8223 H   0  0  0  0  0  0  0  0  0  0  0  0
   14.9945   -1.9320    2.7989 C   0  0  0  0  0  0  0  0  0  0  0  0
   14.9053   -2.9961    2.6375 H   0  0  0  0  0  0  0  0  0  0  0  0
   15.3952   -1.4719    4.0694 C   0  0  0  0  0  0  0  0  0  0  0  0
   15.5145   -0.0782    4.2892 C   0  0  0  0  0  0  0  0  0  0  0  0
   15.8893    0.4078    5.5743 C   0  0  0  0  0  0  0  0  0  0  0  0
   16.1013   -0.4966    6.5950 C   0  0  0  0  0  0  0  0  0  0  0  0
   16.3628   -0.1694    7.5876 H   0  0  0  0  0  0  0  0  0  0  0  0
   15.9851   -1.8720    6.3666 C   0  0  0  0  0  0  0  0  0  0  0  0
   16.1708   -2.5483    7.1889 H   0  0  0  0  0  0  0  0  0  0  0  0
   15.6531   -2.3593    5.1346 C   0  0  0  0  0  0  0  0  0  0  0  0
   15.5729   -3.4220    4.9617 H   0  0  0  0  0  0  0  0  0  0  0  0
   16.1890    2.5771    4.5379 C   0  0  1  0  0  0  0  0  0  0  0  0
   15.9792    3.6230    4.7906 H   0  0  0  0  0  0  0  0  0  0  0  0
   16.5846    2.3173    6.9401 C   0  0  0  0  0  0  0  0  0  0  0  0
   16.7081    3.3993    6.7953 H   0  0  0  0  0  0  0  0  0  0  0  0
   17.5720    1.8765    7.1457 H   0  0  0  0  0  0  0  0  0  0  0  0
   17.5893    1.7229    9.7688 C   0  0  0  0  0  0  0  0  0  0  0  0
   18.0702    0.8947    9.2466 H   0  0  0  0  0  0  0  0  0  0  0  0
   17.6510    1.5378   10.8375 H   0  0  0  0  0  0  0  0  0  0  0  0
   18.1395    2.6356    9.5408 H   0  0  0  0  0  0  0  0  0  0  0  0
   16.1638    1.8563    9.3756 C   0  0  1  0  0  3  0  0  0  0  0  0
   15.0205    1.7941   10.1444 C   0  0  0  0  0  0  0  0  0  0  0  0
   14.9607    1.6189   11.1987 H   0  0  0  0  0  0  0  0  0  0  0  0
   13.9523    2.0207    9.2660 C   0  0  0  0  0  0  0  0  0  0  0  0
   12.4995    2.0777    9.5711 C   0  0  0  0  0  0  0  0  0  0  0  0
   11.9790    2.6221    8.7863 H   0  0  0  0  0  0  0  0  0  0  0  0
   12.3375    2.5792   10.5226 H   0  0  0  0  0  0  0  0  0  0  0  0
   12.0803    1.0732    9.6389 H   0  0  0  0  0  0  0  0  0  0  0  0
   17.6064    2.5089    3.9884 C   0  0  0  0  0  0  0  0  0  0  0  0
   18.0204    3.5439    3.1564 C   0  0  0  0  0  0  0  0  0  0  0  0
   17.3454    4.3635    2.9585 H   0  0  0  0  0  0  0  0  0  0  0  0
   19.2809    3.5309    2.5904 C   0  0  0  0  0  0  0  0  0  0  0  0
   19.5894    4.3414    1.9470 H   0  0  0  0  0  0  0  0  0  0  0  0
   20.1475    2.4820    2.8514 C   0  0  0  0  0  0  0  0  0  0  0  0
   21.1335    2.4694    2.4113 H   0  0  0  0  0  0  0  0  0  0  0  0
   19.7438    1.4510    3.6801 C   0  0  0  0  0  0  0  0  0  0  0  0
   20.4128    0.6290    3.8888 H   0  0  0  0  0  0  0  0  0  0  0  0
   18.4793    1.4620    4.2457 C   0  0  0  0  0  0  0  0  0  0  0  0
   18.1836    0.6421    4.8834 H   0  0  0  0  0  0  0  0  0  0  0  0
   12.7894    1.9838    4.8986 N   0  0  1  0  0  0  0  0  0  0  0  0
   12.9098    2.3653    3.6164 N   0  0  0  0  0  0  0  0  0  0  0  0
   15.2881    2.1896    3.4792 N   0  0  0  0  0  0  0  0  0  0  0  0
   15.9879    1.7826    5.7455 N   0  0  0  0  0  0  0  0  0  0  0  0
   15.7586    2.0955    8.1062 N   0  0  1  0  0  0  0  0  0  0  0  0
   14.4259    2.1985    8.0400 N   0  0  0  0  0  0  0  0  0  0  0  0
   13.6538    2.9515    6.3900 Cu  0  0  0  0  0  0  0  0  0  0  0  0
   14.1916    5.1744    6.0311 Br  0  0  0  0  0  0  0  0  0  0  0  0
  1  4  1  0  0  0  0
  1  2  1  0  0  0  0
  3  1  1  0  0  0  0
  5  1  1  6  0  0  0
  6  5  1  0  0  0  0
  7  6  1  0  0  0  0
  8 61  1  0  0  0  0
  8  6  2  0  0  0  0
  9  8  1  0  0  0  0
 10  9  1  0  0  0  0
 11  9  1  0  0  0  0
 12  9  1  0  0  0  0
 13 62  1  0  0  0  0
 13 61  1  0  0  0  0
 13 15  1  0  0  0  0
 14 13  1  0  0  0  0
 16 62  1  0  0  0  0
 16 24  1  0  0  0  0
 17 16  2  0  0  0  0
 18 17  1  0  0  0  0
 19 17  1  0  0  0  0
 19 21  2  0  0  0  0
 20 19  1  0  0  0  0
 21 23  1  0  0  0  0
 22 21  1  0  0  0  0
 23 24  2  0  0  0  0
 23 30  1  0  0  0  0
 24 25  1  0  0  0  0
 25 63  1  0  0  0  0
 25 26  2  0  0  0  0
 26 27  1  0  0  0  0
 28 26  1  0  0  0  0
 28 29  1  0  0  0  0
 30 28  2  0  0  0  0
 31 30  1  0  0  0  0
 32 33  1  1  0  0  0
 32 63  1  0  0  0  0
 34 36  1  0  0  0  0
 35 34  1  0  0  0  0
 37 39  1  0  0  0  0
 38 37  1  0  0  0  0
 40 37  1  0  0  0  0
 41 37  1  1  0  0  0
 41 42  1  0  0  0  0
 42 43  1  0  0  0  0
 44 45  1  0  0  0  0
 44 42  2  0  0  0  0
 45 48  1  0  0  0  0
 45 47  1  0  0  0  0
 46 45  1  0  0  0  0
 49 58  1  0  0  0  0
 49 32  1  0  0  0  0
 50 49  2  0  0  0  0
 51 50  1  0  0  0  0
 52 54  2  0  0  0  0
 52 50  1  0  0  0  0
 53 52  1  0  0  0  0
 54 56  1  0  0  0  0
 55 54  1  0  0  0  0
 56 57  1  0  0  0  0
 56 58  2  0  0  0  0
 58 59  1  0  0  0  0
 60 61  1  6  0  0  0
 60  5  1  0  0  0  0
 60 66  1  0  0  0  0
 62 32  1  0  0  0  0
 63 34  1  0  0  0  0
 64 34  1  1  0  0  0
 64 41  1  0  0  0  0
 65 64  1  0  0  0  0
 65 44  1  0  0  0  0
 66 65  1  0  0  0  0
 67 66  1  0  0  0  0
M  END
$$$$
