CSD_code = GOSJIH | q = 0 | S = 0 | Stoichiometry = C11H22Cl2N2S2Zn | MND = 4
 OpenBabel04212202043D

 40 42  0  0  0  0  0  0  0  0999 V2000
    1.6516    6.9027    3.1531 Zn  0  0  0  0  0  0  0  0  0  0  0  0
    0.2429    7.9733    1.8114 Cl  0  0  0  0  0  0  0  0  0  0  0  0
    2.7806    7.9551    4.7536 Cl  0  0  0  0  0  0  0  0  0  0  0  0
    0.3576    5.2490    3.8169 N   0  0  0  0  0  4  0  0  0  0  0  0
    2.8683    5.8428    1.6547 N   0  0  0  0  0  4  0  0  0  0  0  0
   -0.1257    5.6126    6.9801 S   0  0  0  0  0  0  0  0  0  0  0  0
    5.8577    7.0273    1.8269 S   0  0  0  0  0  0  0  0  0  0  0  0
   -0.6550    6.6721    5.6054 C   0  0  0  0  0  0  0  0  0  0  0  0
   -1.5860    7.1449    5.9124 H   0  0  0  0  0  0  0  0  0  0  0  0
    0.1050    7.4401    5.4507 H   0  0  0  0  0  0  0  0  0  0  0  0
   -0.8797    5.8494    4.3512 C   0  0  0  0  0  0  0  0  0  0  0  0
   -1.6078    5.0542    4.5686 H   0  0  0  0  0  0  0  0  0  0  0  0
   -1.2936    6.5030    3.5791 H   0  0  0  0  0  0  0  0  0  0  0  0
    1.3235    4.9656    6.0993 C   0  0  0  0  0  0  0  0  0  0  0  0
    2.0126    5.7919    5.9215 H   0  0  0  0  0  0  0  0  0  0  0  0
    1.7914    4.2367    6.7583 H   0  0  0  0  0  0  0  0  0  0  0  0
    0.9029    4.3017    4.7997 C   0  0  0  0  0  0  0  0  0  0  0  0
    1.7822    3.8181    4.3693 H   0  0  0  0  0  0  0  0  0  0  0  0
    0.1513    3.5276    5.0180 H   0  0  0  0  0  0  0  0  0  0  0  0
   -0.0130    4.5408    2.5790 C   0  0  0  0  0  0  0  0  0  0  0  0
   -0.5562    5.2529    1.9541 H   0  0  0  0  0  0  0  0  0  0  0  0
   -0.6970    3.7183    2.8364 H   0  0  0  0  0  0  0  0  0  0  0  0
    1.1362    3.9703    1.7495 C   0  0  0  0  0  0  0  0  0  0  0  0
    1.8067    3.3701    2.3633 H   0  0  0  0  0  0  0  0  0  0  0  0
    0.6790    3.2861    1.0306 H   0  0  0  0  0  0  0  0  0  0  0  0
    1.9102    4.9957    0.9227 C   0  0  0  0  0  0  0  0  0  0  0  0
    2.4503    4.4628    0.1259 H   0  0  0  0  0  0  0  0  0  0  0  0
    1.1852    5.6648    0.4544 H   0  0  0  0  0  0  0  0  0  0  0  0
    3.3617    6.8525    0.6986 C   0  0  0  0  0  0  0  0  0  0  0  0
    2.4966    7.3995    0.3153 H   0  0  0  0  0  0  0  0  0  0  0  0
    3.8610    6.3475   -0.1413 H   0  0  0  0  0  0  0  0  0  0  0  0
    4.3217    7.8493    1.3192 C   0  0  0  0  0  0  0  0  0  0  0  0
    3.8860    8.3345    2.1945 H   0  0  0  0  0  0  0  0  0  0  0  0
    4.5963    8.6071    0.5878 H   0  0  0  0  0  0  0  0  0  0  0  0
    5.0211    5.8400    2.9154 C   0  0  0  0  0  0  0  0  0  0  0  0
    5.7914    5.1827    3.3143 H   0  0  0  0  0  0  0  0  0  0  0  0
    4.5555    6.3938    3.7313 H   0  0  0  0  0  0  0  0  0  0  0  0
    3.9979    5.0338    2.1344 C   0  0  0  0  0  0  0  0  0  0  0  0
    4.4955    4.5552    1.2770 H   0  0  0  0  0  0  0  0  0  0  0  0
    3.6138    4.2514    2.7921 H   0  0  0  0  0  0  0  0  0  0  0  0
  1  4  1  0  0  0  0
  1  3  1  0  0  0  0
  2  1  1  0  0  0  0
  4 11  1  0  0  0  0
  4 17  1  0  0  0  0
  5 38  1  0  0  0  0
  5  1  1  0  0  0  0
  7 35  1  0  0  0  0
  8  9  1  0  0  0  0
  8  6  1  0  0  0  0
 10  8  1  0  0  0  0
 11 12  1  0  0  0  0
 11  8  1  0  0  0  0
 13 11  1  0  0  0  0
 14 16  1  0  0  0  0
 14  6  1  0  0  0  0
 15 14  1  0  0  0  0
 17 19  1  0  0  0  0
 17 14  1  0  0  0  0
 18 17  1  0  0  0  0
 20 22  1  0  0  0  0
 20  4  1  0  0  0  0
 21 20  1  0  0  0  0
 23 24  1  0  0  0  0
 23 20  1  0  0  0  0
 25 23  1  0  0  0  0
 26  5  1  0  0  0  0
 26 23  1  0  0  0  0
 27 26  1  0  0  0  0
 28 26  1  0  0  0  0
 29 32  1  0  0  0  0
 29  5  1  0  0  0  0
 30 29  1  0  0  0  0
 31 29  1  0  0  0  0
 32  7  1  0  0  0  0
 32 33  1  0  0  0  0
 34 32  1  0  0  0  0
 35 36  1  0  0  0  0
 35 37  1  0  0  0  0
 38 40  1  0  0  0  0
 38 35  1  0  0  0  0
 39 38  1  0  0  0  0
M  END
$$$$
