CSD_code = GOSPEJ | q = 0 | S = 0 | Stoichiometry = C24H26ClNO2Ru | MND = 9
 OpenBabel04212202043D

 55 57  0  0  1  0  0  0  0  0999 V2000
    1.7702    0.3580   15.3631 Ru  0  0  0  0  0  0  0  0  0  0  0  0
    3.5450   -0.4256   14.0878 Cl  0  0  0  0  0 15  0  0  0  0  0  0
    0.9925   -1.5391   15.2546 O   0  0  0  0  0  0  0  0  0  0  0  0
    3.3664    6.3755   13.9042 O   0  0  0  0  0  0  0  0  0  0  0  0
    0.6996    0.5448   13.6812 N   0  0  0  0  0  0  0  0  0  0  0  0
    0.3301   -1.7354   14.1673 C   0  0  0  0  0  0  0  0  0  0  0  0
   -0.2308   -2.9894   13.8504 C   0  0  0  0  0  0  0  0  0  0  0  0
   -0.0685   -3.8075   14.5345 H   0  0  0  0  0  0  0  0  0  0  0  0
   -0.9434   -3.1514   12.6885 C   0  0  0  0  0  0  0  0  0  0  0  0
   -1.3593   -4.1195   12.4507 H   0  0  0  0  0  0  0  0  0  0  0  0
   -1.1241   -2.0905   11.8017 C   0  0  0  0  0  0  0  0  0  0  0  0
   -1.6659   -2.2451   10.8815 H   0  0  0  0  0  0  0  0  0  0  0  0
   -0.5995   -0.8502   12.0882 C   0  0  0  0  0  0  0  0  0  0  0  0
   -0.7169   -0.0448   11.3787 H   0  0  0  0  0  0  0  0  0  0  0  0
    0.1143   -0.6500   13.2723 C   0  0  0  0  0  0  0  0  0  0  0  0
    0.4065    1.6777   13.1264 C   0  0  0  0  0  3  0  0  0  0  0  0
   -0.4249    1.7403   12.4285 H   0  0  0  0  0  0  0  0  0  0  0  0
    1.1481    2.8984   13.3592 C   0  0  0  0  0  0  0  0  0  0  0  0
    2.5419    2.8773   13.5248 C   0  0  0  0  0  0  0  0  0  0  0  0
    3.0768    1.9363   13.4606 H   0  0  0  0  0  0  0  0  0  0  0  0
    3.2410    4.0511   13.6848 C   0  0  0  0  0  0  0  0  0  0  0  0
    4.3150    4.0473   13.7812 H   0  0  0  0  0  0  0  0  0  0  0  0
    2.5792    5.2831   13.7088 C   0  0  0  0  0  0  0  0  0  0  0  0
    1.1988    5.3138   13.5282 C   0  0  0  0  0  0  0  0  0  0  0  0
    0.6602    6.2487   13.5218 H   0  0  0  0  0  0  0  0  0  0  0  0
    0.5020    4.1353   13.3397 C   0  0  0  0  0  0  0  0  0  0  0  0
   -0.5678    4.1731   13.1908 H   0  0  0  0  0  0  0  0  0  0  0  0
    2.7783    7.6527   13.8530 C   0  0  0  0  0  0  0  0  0  0  0  0
    3.5952    8.3587   13.9936 H   0  0  0  0  0  0  0  0  0  0  0  0
    2.0417    7.7905   14.6516 H   0  0  0  0  0  0  0  0  0  0  0  0
    2.3036    7.8376   12.8844 H   0  0  0  0  0  0  0  0  0  0  0  0
    0.6224    0.6771   17.2802 C   0  0  0  0  0  0  0  0  0  0  0  0
    1.8446    0.0241   17.5908 C   0  0  2  0  0  0  0  0  0  0  0  0
    1.8203   -0.9443   18.0799 H   0  0  0  0  0  0  0  0  0  0  0  0
    3.0703    0.6164   17.2805 C   0  0  0  0  0  3  0  0  0  0  0  0
    3.9933    0.1010   17.5246 H   0  0  0  0  0  0  0  0  0  0  0  0
    3.1408    1.9749   16.8393 C   0  0  0  0  0  0  0  0  0  0  0  0
    1.9507    2.6298   16.5631 C   0  0  0  0  0  0  0  0  0  0  0  0
    1.9559    3.6695   16.2617 H   0  0  0  0  0  0  0  0  0  0  0  0
    0.7090    1.9421   16.6646 C   0  0  0  0  0  0  0  0  0  0  0  0
   -0.1979    2.4960   16.4493 H   0  0  0  0  0  0  0  0  0  0  0  0
   -0.6965    0.0619   17.6850 C   0  0  0  0  0  0  0  0  0  0  0  0
   -0.5301   -1.0079   17.8519 H   0  0  0  0  0  0  0  0  0  0  0  0
   -1.1614    0.6963   19.0005 C   0  0  0  0  0  0  0  0  0  0  0  0
   -0.4116    0.5629   19.7775 H   0  0  0  0  0  0  0  0  0  0  0  0
   -2.0882    0.2339   19.3310 H   0  0  0  0  0  0  0  0  0  0  0  0
   -1.3343    1.7627   18.8686 H   0  0  0  0  0  0  0  0  0  0  0  0
   -1.7665    0.2057   16.6023 C   0  0  0  0  0  0  0  0  0  0  0  0
   -2.6423   -0.3807   16.8694 H   0  0  0  0  0  0  0  0  0  0  0  0
   -1.3881   -0.1602   15.6485 H   0  0  0  0  0  0  0  0  0  0  0  0
   -2.0769    1.2415   16.4840 H   0  0  0  0  0  0  0  0  0  0  0  0
    4.4738    2.6449   16.7208 C   0  0  0  0  0  0  0  0  0  0  0  0
    5.0019    2.6036   17.6735 H   0  0  0  0  0  0  0  0  0  0  0  0
    4.3626    3.6834   16.4197 H   0  0  0  0  0  0  0  0  0  0  0  0
    5.0810    2.1260   15.9792 H   0  0  0  0  0  0  0  0  0  0  0  0
  1 33  1  0  0  0  0
  3  1  1  0  0  0  0
  5  1  1  0  0  0  0
  6  3  1  0  0  0  0
  7  6  1  0  0  0  0
  7  8  1  0  0  0  0
  9  7  2  0  0  0  0
 10  9  1  0  0  0  0
 11 13  2  0  0  0  0
 11  9  1  0  0  0  0
 12 11  1  0  0  0  0
 13 15  1  0  0  0  0
 14 13  1  0  0  0  0
 15  5  1  0  0  0  0
 15  6  2  0  0  0  0
 16 18  1  0  0  0  0
 16  5  1  0  0  0  0
 17 16  1  0  0  0  0
 18 19  1  0  0  0  0
 19 21  2  0  0  0  0
 20 19  1  0  0  0  0
 21 23  1  0  0  0  0
 21 22  1  0  0  0  0
 23  4  1  0  0  0  0
 24 23  2  0  0  0  0
 25 24  1  0  0  0  0
 26 18  2  0  0  0  0
 26 24  1  0  0  0  0
 27 26  1  0  0  0  0
 28  4  1  0  0  0  0
 28 29  1  0  0  0  0
 28 30  1  0  0  0  0
 31 28  1  0  0  0  0
 32 33  1  0  0  0  0
 32 42  1  0  0  0  0
 33 34  1  1  0  0  0
 35 36  1  0  0  0  0
 35 33  1  0  0  0  0
 37 35  1  0  0  0  0
 38 40  1  0  0  0  0
 38 37  2  0  0  0  0
 39 38  1  0  0  0  0
 40 32  2  0  0  0  0
 41 40  1  0  0  0  0
 42 43  1  0  0  0  0
 42 44  1  0  0  0  0
 44 46  1  0  0  0  0
 44 45  1  0  0  0  0
 47 44  1  0  0  0  0
 48 49  1  0  0  0  0
 48 42  1  0  0  0  0
 50 48  1  0  0  0  0
 51 48  1  0  0  0  0
 52 37  1  0  0  0  0
 52 53  1  0  0  0  0
 54 52  1  0  0  0  0
 55 52  1  0  0  0  0
M  END
$$$$
