CSD_code = GOSQEM | q = 0 | S = 0 | Stoichiometry = C22H20Br2N4NiP2 | MND = 4
 OpenBabel04212202043D

 51 55  0  0  0  0  0  0  0  0999 V2000
    0.7340   -0.6405  -11.0406 C   0  0  0  0  0  0  0  0  0  0  0  0
    0.2304    0.2039  -10.5672 H   0  0  0  0  0  0  0  0  0  0  0  0
    1.8047   -0.5942  -10.8184 H   0  0  0  0  0  0  0  0  0  0  0  0
    0.4948   -0.6931  -12.5408 C   0  0  0  0  0  0  0  0  0  0  0  0
    1.0417    0.0833  -13.0782 H   0  0  0  0  0  0  0  0  0  0  0  0
   -0.5722   -0.6063  -12.7686 H   0  0  0  0  0  0  0  0  0  0  0  0
   -1.6926   -1.9261  -10.2067 C   0  0  0  0  0  0  0  0  0  0  0  0
   -2.6116   -2.8894   -9.8040 C   0  0  0  0  0  0  0  0  0  0  0  0
   -2.2947   -3.8894   -9.5463 H   0  0  0  0  0  0  0  0  0  0  0  0
   -3.9500   -2.5344   -9.7722 C   0  0  0  0  0  0  0  0  0  0  0  0
   -4.6945   -3.2549   -9.4670 H   0  0  0  0  0  0  0  0  0  0  0  0
   -4.3171   -1.2508  -10.1466 C   0  0  0  0  0  0  0  0  0  0  0  0
   -5.3501   -0.9404  -10.1385 H   0  0  0  0  0  0  0  0  0  0  0  0
   -3.3207   -0.3734  -10.5479 C   0  0  0  0  0  0  0  0  0  0  0  0
   -3.5504    0.6366  -10.8633 H   0  0  0  0  0  0  0  0  0  0  0  0
    0.6397   -2.1057   -8.5899 C   0  0  0  0  0  0  0  0  0  0  0  0
    0.0749   -2.8259   -7.5436 C   0  0  0  0  0  0  0  0  0  0  0  0
   -0.7454   -3.5044   -7.7153 H   0  0  0  0  0  0  0  0  0  0  0  0
    0.6205   -2.6613   -6.2816 C   0  0  0  0  0  0  0  0  0  0  0  0
    0.2169   -3.2062   -5.4412 H   0  0  0  0  0  0  0  0  0  0  0  0
    1.6917   -1.7963   -6.1162 C   0  0  0  0  0  0  0  0  0  0  0  0
    2.1444   -1.6477   -5.1485 H   0  0  0  0  0  0  0  0  0  0  0  0
    2.1763   -1.1271   -7.2304 C   0  0  0  0  0  0  0  0  0  0  0  0
    3.0108   -0.4411   -7.1591 H   0  0  0  0  0  0  0  0  0  0  0  0
    0.5154   -2.3439  -14.8730 C   0  0  0  0  0  0  0  0  0  0  0  0
    1.0214   -3.1918  -15.8517 C   0  0  0  0  0  0  0  0  0  0  0  0
    1.7800   -3.9211  -15.6172 H   0  0  0  0  0  0  0  0  0  0  0  0
    0.4966   -3.0857  -17.1286 C   0  0  0  0  0  0  0  0  0  0  0  0
    0.8560   -3.7297  -17.9174 H   0  0  0  0  0  0  0  0  0  0  0  0
   -0.4963   -2.1496  -17.3756 C   0  0  0  0  0  0  0  0  0  0  0  0
   -0.9304   -2.0427  -18.3572 H   0  0  0  0  0  0  0  0  0  0  0  0
   -0.9268   -1.3534  -16.3246 C   0  0  0  0  0  0  0  0  0  0  0  0
   -1.6998   -0.6076  -16.4603 H   0  0  0  0  0  0  0  0  0  0  0  0
    2.8474   -2.1708  -13.2586 C   0  0  0  0  0  0  0  0  0  0  0  0
    3.7094   -3.2053  -13.6070 C   0  0  0  0  0  0  0  0  0  0  0  0
    3.3363   -4.1989  -13.8071 H   0  0  0  0  0  0  0  0  0  0  0  0
    5.0654   -2.9283  -13.6593 C   0  0  0  0  0  0  0  0  0  0  0  0
    5.7671   -3.7047  -13.9263 H   0  0  0  0  0  0  0  0  0  0  0  0
    5.5055   -1.6490  -13.3548 C   0  0  0  0  0  0  0  0  0  0  0  0
    6.5542   -1.3980  -13.3815 H   0  0  0  0  0  0  0  0  0  0  0  0
    4.5618   -0.6973  -12.9988 C   0  0  0  0  0  0  0  0  0  0  0  0
    4.8494    0.3127  -12.7354 H   0  0  0  0  0  0  0  0  0  0  0  0
   -2.0429   -0.7013  -10.5785 N   0  0  0  0  0  0  0  0  0  0  0  0
    1.6655   -1.2794   -8.4375 N   0  0  0  0  0  0  0  0  0  0  0  0
   -0.4363   -1.4496  -15.1033 N   0  0  0  0  0  0  0  0  0  0  0  0
    3.2674   -0.9499  -12.9522 N   0  0  0  0  0  0  0  0  0  0  0  0
    0.1088   -2.2108  -10.3271 P   0  0  0  0  0  4  0  0  0  0  0  0
    1.0328   -2.3461  -13.1280 P   0  0  0  0  0  4  0  0  0  0  0  0
    0.5299   -3.8520  -11.6645 Ni  0  0  0  0  0  0  0  0  0  0  0  0
    0.9114   -5.4292  -13.1951 Br  0  0  0  0  0  0  0  0  0  0  0  0
    0.0721   -5.2749  -10.0074 Br  0  0  0  0  0  0  0  0  0  0  0  0
  1  3  1  0  0  0  0
  1  2  1  0  0  0  0
  1 47  1  0  0  0  0
  4  1  1  0  0  0  0
  5  4  1  0  0  0  0
  6  4  1  0  0  0  0
  7  8  1  0  0  0  0
  8 10  2  0  0  0  0
  8  9  1  0  0  0  0
 10 11  1  0  0  0  0
 12 13  1  0  0  0  0
 12 10  1  0  0  0  0
 14 12  2  0  0  0  0
 15 14  1  0  0  0  0
 16 44  2  0  0  0  0
 16 17  1  0  0  0  0
 17 19  2  0  0  0  0
 18 17  1  0  0  0  0
 19 21  1  0  0  0  0
 19 20  1  0  0  0  0
 21 22  1  0  0  0  0
 23 24  1  0  0  0  0
 23 21  2  0  0  0  0
 25 48  1  0  0  0  0
 26 27  1  0  0  0  0
 26 25  2  0  0  0  0
 28 26  1  0  0  0  0
 29 28  1  0  0  0  0
 30 28  2  0  0  0  0
 30 32  1  0  0  0  0
 31 30  1  0  0  0  0
 32 45  2  0  0  0  0
 33 32  1  0  0  0  0
 34 48  1  0  0  0  0
 34 46  1  0  0  0  0
 35 34  2  0  0  0  0
 36 35  1  0  0  0  0
 37 35  1  0  0  0  0
 37 39  2  0  0  0  0
 38 37  1  0  0  0  0
 39 41  1  0  0  0  0
 40 39  1  0  0  0  0
 41 46  2  0  0  0  0
 41 42  1  0  0  0  0
 43 14  1  0  0  0  0
 43  7  2  0  0  0  0
 44 23  1  0  0  0  0
 45 25  1  0  0  0  0
 47  7  1  0  0  0  0
 47 16  1  0  0  0  0
 48  4  1  0  0  0  0
 48 49  1  0  0  0  0
 49 47  1  0  0  0  0
 49 51  1  0  0  0  0
 50 49  1  0  0  0  0
M  END
$$$$
