CSD_code = GOSVAN | q = 0 | S = 0 | Stoichiometry = C32H27I2OP2Rh | MND = 5
 OpenBabel04212202043D

 65 70  0  0  0  0  0  0  0  0999 V2000
    3.0303    7.6712    2.4043 I   0  0  0  0  0  0  0  0  0  0  0  0
    3.6380    5.1596    1.8138 Rh  0  0  0  0  0  0  0  0  0  0  0  0
    3.2857    4.6988    3.9806 P   0  0  0  0  0  4  0  0  0  0  0  0
    5.5930    5.1444    2.1545 C   0  0  0  0  0  0  0  0  0  0  0  0
    3.6967    5.3829   -0.8063 I   0  0  0  0  0  0  0  0  0  0  0  0
    3.5380    2.9071    1.6323 P   0  0  0  0  0  4  0  0  0  0  0  0
    6.3153    6.4133    1.8031 C   0  0  0  0  0  0  0  0  0  0  0  0
    6.1733    7.1325    2.6126 H   0  0  0  0  0  0  0  0  0  0  0  0
    5.9498    6.8695    0.8834 H   0  0  0  0  0  0  0  0  0  0  0  0
    7.3786    6.1902    1.7082 H   0  0  0  0  0  0  0  0  0  0  0  0
    3.9499    3.0360    4.3302 C   0  0  0  0  0  0  0  0  0  0  0  0
    4.0711    2.1964    3.2200 C   0  0  0  0  0  0  0  0  0  0  0  0
    4.5512    0.9045    3.3706 C   0  0  0  0  0  0  0  0  0  0  0  0
    4.6453    0.2595    2.5076 H   0  0  0  0  0  0  0  0  0  0  0  0
    4.9169    0.4555    4.6292 C   0  0  0  0  0  0  0  0  0  0  0  0
    5.3026   -0.5460    4.7490 H   0  0  0  0  0  0  0  0  0  0  0  0
    4.7991    1.2877    5.7308 C   0  0  0  0  0  0  0  0  0  0  0  0
    5.0946    0.9341    6.7076 H   0  0  0  0  0  0  0  0  0  0  0  0
    6.1159    4.1677    2.6140 O   0  0  0  0  0  0  0  0  0  0  0  0
    4.3141    2.5776    5.5874 C   0  0  0  0  0  0  0  0  0  0  0  0
    4.2413    3.2299    6.4473 H   0  0  0  0  0  0  0  0  0  0  0  0
    3.8928    5.7163    5.3438 C   0  0  0  0  0  0  0  0  0  0  0  0
    3.0514    6.5974    6.0147 C   0  0  0  0  0  0  0  0  0  0  0  0
    2.0005    6.6372    5.7632 H   0  0  0  0  0  0  0  0  0  0  0  0
    3.5709    7.4290    6.9896 C   0  0  0  0  0  0  0  0  0  0  0  0
    2.9196    8.1150    7.5096 H   0  0  0  0  0  0  0  0  0  0  0  0
    4.9234    7.3924    7.2877 C   0  0  0  0  0  0  0  0  0  0  0  0
    5.3255    8.0482    8.0453 H   0  0  0  0  0  0  0  0  0  0  0  0
    5.7656    6.5261    6.6077 C   0  0  0  0  0  0  0  0  0  0  0  0
    6.8216    6.5069    6.8334 H   0  0  0  0  0  0  0  0  0  0  0  0
    5.2563    5.6918    5.6310 C   0  0  0  0  0  0  0  0  0  0  0  0
    5.9071    5.0188    5.0867 H   0  0  0  0  0  0  0  0  0  0  0  0
    1.5138    4.4503    4.2978 C   0  0  0  0  0  0  0  0  0  0  0  0
    1.0735    3.8703    5.4837 C   0  0  0  0  0  0  0  0  0  0  0  0
    1.7872    3.6140    6.2548 H   0  0  0  0  0  0  0  0  0  0  0  0
   -0.2741    3.6270    5.6668 C   0  0  0  0  0  0  0  0  0  0  0  0
   -0.6174    3.1764    6.5865 H   0  0  0  0  0  0  0  0  0  0  0  0
   -1.1842    3.9588    4.6745 C   0  0  0  0  0  0  0  0  0  0  0  0
   -2.2358    3.7646    4.8235 H   0  0  0  0  0  0  0  0  0  0  0  0
   -0.7497    4.5402    3.4957 C   0  0  0  0  0  0  0  0  0  0  0  0
   -1.4572    4.8044    2.7244 H   0  0  0  0  0  0  0  0  0  0  0  0
    0.5979    4.7823    3.3058 C   0  0  0  0  0  0  0  0  0  0  0  0
    0.9364    5.2401    2.3776 H   0  0  0  0  0  0  0  0  0  0  0  0
    1.7928    2.3791    1.5501 C   0  0  0  0  0  0  0  0  0  0  0  0
    0.9862    2.9048    0.5413 C   0  0  0  0  0  0  0  0  0  0  0  0
    1.4097    3.5633   -0.2061 H   0  0  0  0  0  0  0  0  0  0  0  0
   -0.3593    2.5925    0.4907 C   0  0  0  0  0  0  0  0  0  0  0  0
   -0.9739    3.0038   -0.2962 H   0  0  0  0  0  0  0  0  0  0  0  0
   -0.9157    1.7654    1.4526 C   0  0  0  0  0  0  0  0  0  0  0  0
   -1.9690    1.5301    1.4205 H   0  0  0  0  0  0  0  0  0  0  0  0
   -0.1199    1.2429    2.4581 C   0  0  0  0  0  0  0  0  0  0  0  0
   -0.5502    0.5991    3.2111 H   0  0  0  0  0  0  0  0  0  0  0  0
    1.2288    1.5446    2.5103 C   0  0  0  0  0  0  0  0  0  0  0  0
    1.8386    1.1325    3.3023 H   0  0  0  0  0  0  0  0  0  0  0  0
    4.3906    1.9248    0.3725 C   0  0  0  0  0  0  0  0  0  0  0  0
    5.7814    1.8512    0.4357 C   0  0  0  0  0  0  0  0  0  0  0  0
    6.3068    2.3294    1.2508 H   0  0  0  0  0  0  0  0  0  0  0  0
    6.4788    1.1700   -0.5429 C   0  0  0  0  0  0  0  0  0  0  0  0
    7.5561    1.1136   -0.4926 H   0  0  0  0  0  0  0  0  0  0  0  0
    5.7985    0.5699   -1.5910 C   0  0  0  0  0  0  0  0  0  0  0  0
    6.3465    0.0457   -2.3595 H   0  0  0  0  0  0  0  0  0  0  0  0
    4.4177    0.6484   -1.6580 C   0  0  0  0  0  0  0  0  0  0  0  0
    3.8875    0.1866   -2.4775 H   0  0  0  0  0  0  0  0  0  0  0  0
    3.7094    1.3263   -0.6820 C   0  0  0  0  0  0  0  0  0  0  0  0
    2.6321    1.3892   -0.7419 H   0  0  0  0  0  0  0  0  0  0  0  0
  2  4  1  0  0  0  0
  2  1  1  0  0  0  0
  2  3  1  0  0  0  0
  3 33  1  0  0  0  0
  3 11  1  0  0  0  0
  3 22  1  0  0  0  0
  4 19  2  0  0  0  0
  5  2  1  0  0  0  0
  6  2  1  0  0  0  0
  6 12  1  0  0  0  0
  7  4  1  0  0  0  0
  7  8  1  0  0  0  0
  9  7  1  0  0  0  0
 10  7  1  0  0  0  0
 11 20  1  0  0  0  0
 12 13  1  0  0  0  0
 12 11  2  0  0  0  0
 13 15  2  0  0  0  0
 14 13  1  0  0  0  0
 15 16  1  0  0  0  0
 15 17  1  0  0  0  0
 17 18  1  0  0  0  0
 20 17  2  0  0  0  0
 20 21  1  0  0  0  0
 22 31  2  0  0  0  0
 22 23  1  0  0  0  0
 23 25  2  0  0  0  0
 24 23  1  0  0  0  0
 25 27  1  0  0  0  0
 25 26  1  0  0  0  0
 27 28  1  0  0  0  0
 29 30  1  0  0  0  0
 29 27  2  0  0  0  0
 31 29  1  0  0  0  0
 32 31  1  0  0  0  0
 33 34  1  0  0  0  0
 34 36  2  0  0  0  0
 34 35  1  0  0  0  0
 36 37  1  0  0  0  0
 38 39  1  0  0  0  0
 38 36  1  0  0  0  0
 40 38  2  0  0  0  0
 41 40  1  0  0  0  0
 42 40  1  0  0  0  0
 42 33  2  0  0  0  0
 43 42  1  0  0  0  0
 44  6  1  0  0  0  0
 44 53  1  0  0  0  0
 45 44  2  0  0  0  0
 46 45  1  0  0  0  0
 47 45  1  0  0  0  0
 47 49  2  0  0  0  0
 48 47  1  0  0  0  0
 49 51  1  0  0  0  0
 50 49  1  0  0  0  0
 51 53  2  0  0  0  0
 51 52  1  0  0  0  0
 53 54  1  0  0  0  0
 55 56  1  0  0  0  0
 55  6  1  0  0  0  0
 56 57  1  0  0  0  0
 58 59  1  0  0  0  0
 58 56  2  0  0  0  0
 60 58  1  0  0  0  0
 61 60  1  0  0  0  0
 62 60  2  0  0  0  0
 62 64  1  0  0  0  0
 63 62  1  0  0  0  0
 64 55  2  0  0  0  0
 65 64  1  0  0  0  0
M  END
$$$$
