CSD_code = GOTJII | q = 0 | S = 0 | Stoichiometry = C35H25Cl3Zr | MND = 8
 OpenBabel04212202043D

 64 69  0  0  1  0  0  0  0  0999 V2000
    7.9788    1.8838    6.0073 Zr  0  0  0  0  0  0  0  0  0  0  0  0
    8.2757   -0.3530    6.4396 Cl  0  0  0  0  0  0  0  0  0  0  0  0
    9.3704    1.9564    4.1756 Cl  0  0  0  0  0  0  0  0  0  0  0  0
    9.6600    2.5669    7.4310 Cl  0  0  0  0  0  0  0  0  0  0  0  0
    5.8576    2.2952    7.0977 C   0  0  2  0  0  3  0  0  0  0  0  0
    4.2082    1.0897   10.2582 C   0  0  0  0  0  0  0  0  0  0  0  0
    4.3759    1.5550    8.9663 C   0  0  0  0  0  0  0  0  0  0  0  0
    4.8562    0.2747    5.8348 C   0  0  0  0  0  0  0  0  0  0  0  0
    5.0770   -0.7302    6.7790 C   0  0  0  0  0  0  0  0  0  0  0  0
    4.3893   -1.9265    6.6987 C   0  0  0  0  0  0  0  0  0  0  0  0
    3.4717   -2.1433    5.6840 C   0  0  0  0  0  0  0  0  0  0  0  0
    3.2382   -1.1491    4.7489 C   0  0  0  0  0  0  0  0  0  0  0  0
    3.9192    0.0509    4.8239 C   0  0  0  0  0  0  0  0  0  0  0  0
    5.9597    1.9107    3.3958 C   0  0  0  0  0  0  0  0  0  0  0  0
    6.5782    0.6869    3.1161 C   0  0  0  0  0  0  0  0  0  0  0  0
    5.5585    1.5632    5.9095 C   0  0  0  0  0  0  0  0  0  0  0  0
    6.6417    0.2283    1.8137 C   0  0  0  0  0  0  0  0  0  0  0  0
    6.0969    0.9778    0.7817 C   0  0  0  0  0  0  0  0  0  0  0  0
    5.4824    2.1878    1.0546 C   0  0  0  0  0  0  0  0  0  0  0  0
    5.4114    2.6552    2.3551 C   0  0  0  0  0  0  0  0  0  0  0  0
    6.7775    4.8049    4.4876 C   0  0  0  0  0  0  0  0  0  0  0  0
    7.5805    4.7276    3.3490 C   0  0  0  0  0  0  0  0  0  0  0  0
    7.8468    5.8649    2.6083 C   0  0  0  0  0  0  0  0  0  0  0  0
    7.3204    7.0891    2.9868 C   0  0  0  0  0  0  0  0  0  0  0  0
    6.5189    7.1730    4.1132 C   0  0  0  0  0  0  0  0  0  0  0  0
    6.2453    6.0413    4.8575 C   0  0  0  0  0  0  0  0  0  0  0  0
    5.9423    2.3727    4.7929 C   0  0  0  0  0  0  0  0  0  0  0  0
    6.9328    4.5900    7.6229 C   0  0  0  0  0  0  0  0  0  0  0  0
    8.1062    5.2711    7.2793 C   0  0  0  0  0  0  0  0  0  0  0  0
    8.6197    6.2376    8.1218 C   0  0  0  0  0  0  0  0  0  0  0  0
    7.9808    6.5367    9.3155 C   0  0  0  0  0  0  0  0  0  0  0  0
    6.8206    5.8668    9.6624 C   0  0  0  0  0  0  0  0  0  0  0  0
    6.2955    4.9012    8.8227 C   0  0  0  0  0  0  0  0  0  0  0  0
    6.4508    3.6117    5.2862 C   0  0  2  0  0  3  0  0  0  0  0  0
    6.4121    3.5555    6.7197 C   0  0  1  0  0  0  0  0  0  0  0  0
    5.6536    1.8147    8.4774 C   0  0  0  0  0  0  0  0  0  0  0  0
    6.7624    1.5946    9.2963 C   0  0  0  0  0  0  0  0  0  0  0  0
    6.5846    1.1312   10.5879 C   0  0  0  0  0  0  0  0  0  0  0  0
    5.3098    0.8793   11.0705 C   0  0  0  0  0  0  0  0  0  0  0  0
    3.2146    0.8902   10.6308 H   0  0  0  0  0  0  0  0  0  0  0  0
    3.5205    1.7181    8.3271 H   0  0  0  0  0  0  0  0  0  0  0  0
    5.8034   -0.5844    7.5666 H   0  0  0  0  0  0  0  0  0  0  0  0
    4.5760   -2.6969    7.4317 H   0  0  0  0  0  0  0  0  0  0  0  0
    2.9402   -3.0811    5.6234 H   0  0  0  0  0  0  0  0  0  0  0  0
    2.5195   -1.3063    3.9583 H   0  0  0  0  0  0  0  0  0  0  0  0
    3.7187    0.8278    4.1011 H   0  0  0  0  0  0  0  0  0  0  0  0
    7.0104    0.0983    3.9290 H   0  0  0  0  0  0  0  0  0  0  0  0
    7.1241   -0.7136    1.6005 H   0  0  0  0  0  0  0  0  0  0  0  0
    6.1538    0.6178   -0.2344 H   0  0  0  0  0  0  0  0  0  0  0  0
    5.0567    2.7721    0.2526 H   0  0  0  0  0  0  0  0  0  0  0  0
    4.9300    3.5979    2.5713 H   0  0  0  0  0  0  0  0  0  0  0  0
    8.0084    3.7789    3.0532 H   0  0  0  0  0  0  0  0  0  0  0  0
    8.4735    5.7937    1.7321 H   0  0  0  0  0  0  0  0  0  0  0  0
    7.5337    7.9742    2.4064 H   0  0  0  0  0  0  0  0  0  0  0  0
    6.1019    8.1232    4.4123 H   0  0  0  0  0  0  0  0  0  0  0  0
    5.6114    6.1069    5.7299 H   0  0  0  0  0  0  0  0  0  0  0  0
    8.6222    5.0282    6.3519 H   0  0  0  0  0  0  0  0  0  0  0  0
    9.5284    6.7540    7.8518 H   0  0  0  0  0  0  0  0  0  0  0  0
    8.3897    7.2883    9.9737 H   0  0  0  0  0  0  0  0  0  0  0  0
    6.3194    6.0962   10.5911 H   0  0  0  0  0  0  0  0  0  0  0  0
    5.3838    4.3877    9.0912 H   0  0  0  0  0  0  0  0  0  0  0  0
    7.7646    1.7817    8.9109 H   0  0  0  0  0  0  0  0  0  0  0  0
    7.4445    0.9603   11.2177 H   0  0  0  0  0  0  0  0  0  0  0  0
    5.1762    0.5152   12.0779 H   0  0  0  0  0  0  0  0  0  0  0  0
  1  2  1  0  0  0  0
  1  4  1  0  0  0  0
  3  1  1  0  0  0  0
  5 36  1  1  0  0  0
  6 40  1  0  0  0  0
  6 39  1  0  0  0  0
  7  6  2  0  0  0  0
  8 16  1  0  0  0  0
  8  9  1  0  0  0  0
  9 42  1  0  0  0  0
 10  9  2  0  0  0  0
 10 43  1  0  0  0  0
 11 10  1  0  0  0  0
 12 13  1  0  0  0  0
 12 11  2  0  0  0  0
 13  8  2  0  0  0  0
 14 27  1  0  0  0  0
 15 14  1  0  0  0  0
 15 47  1  0  0  0  0
 16  5  1  0  0  0  0
 17 15  2  0  0  0  0
 18 19  2  0  0  0  0
 18 17  1  0  0  0  0
 19 20  1  0  0  0  0
 20 51  1  0  0  0  0
 20 14  2  0  0  0  0
 21 26  1  0  0  0  0
 22 21  2  0  0  0  0
 23 24  2  0  0  0  0
 23 22  1  0  0  0  0
 24 25  1  0  0  0  0
 25 55  1  0  0  0  0
 25 26  2  0  0  0  0
 26 56  1  0  0  0  0
 27 34  1  0  0  0  0
 27 16  2  0  0  0  0
 28 33  1  0  0  0  0
 29 28  2  0  0  0  0
 29 30  1  0  0  0  0
 30 31  2  0  0  0  0
 31 32  1  0  0  0  0
 31 59  1  0  0  0  0
 32 60  1  0  0  0  0
 33 61  1  0  0  0  0
 33 32  2  0  0  0  0
 34 21  1  6  0  0  0
 34 35  1  0  0  0  0
 35  1  1  6  0  0  0
 35  5  1  0  0  0  0
 35 28  1  0  0  0  0
 36  7  1  0  0  0  0
 36 37  2  0  0  0  0
 37 38  1  0  0  0  0
 38 39  2  0  0  0  0
 38 63  1  0  0  0  0
 39 64  1  0  0  0  0
 41  7  1  0  0  0  0
 44 11  1  0  0  0  0
 45 12  1  0  0  0  0
 46 13  1  0  0  0  0
 48 17  1  0  0  0  0
 49 18  1  0  0  0  0
 50 19  1  0  0  0  0
 52 22  1  0  0  0  0
 53 23  1  0  0  0  0
 54 24  1  0  0  0  0
 57 29  1  0  0  0  0
 58 30  1  0  0  0  0
 62 37  1  0  0  0  0
M  END
$$$$
