CSD_code = GOVGUT | q = 0 | S = 0 | Stoichiometry = C13H17Cl3N3Nb | MND = 6
 OpenBabel04212202043D

 37 38  0  0  0  0  0  0  0  0999 V2000
    0.3440    2.2666    2.9069 Nb  0  0  0  0  0  0  0  0  0  0  0  0
    1.1945    1.1764    0.9749 Cl  0  0  0  0  0  0  0  0  0  0  0  0
    2.2000    1.9310    4.2447 Cl  0  0  0  0  0  0  0  0  0  0  0  0
   -1.2715    2.4913    4.6360 Cl  0  0  0  0  0  0  0  0  0  0  0  0
    0.5777    3.9633    2.4797 N   0  0  0  0  0  2  0  0  0  0  0  0
   -0.1684   -0.0826    3.4484 N   0  0  0  0  0  0  0  0  0  0  0  0
   -1.7182    2.1085    1.5265 N   0  0  0  0  0  0  0  0  0  0  0  0
    0.7492    5.3180    2.1781 C   0  0  0  0  0  0  0  0  0  0  0  0
   -0.4886    6.1030    2.6414 C   0  0  0  0  0  0  0  0  0  0  0  0
    0.9995    5.5009    0.6719 C   0  0  0  0  0  0  0  0  0  0  0  0
    0.0417   -0.4850    4.6962 C   0  0  0  0  0  3  0  0  0  0  0  0
   -0.1506   -1.7948    5.1062 C   0  0  0  0  0  0  0  0  0  0  0  0
   -0.5852   -2.7270    4.1788 C   0  0  0  0  0  0  0  0  0  0  0  0
   -0.8109   -2.3062    2.8777 C   0  0  0  0  0  0  0  0  0  0  0  0
   -0.5871   -0.9770    2.5603 C   0  0  0  0  0  0  0  0  0  0  0  0
   -2.8594    1.6068    1.9873 C   0  0  0  0  0  3  0  0  0  0  0  0
   -3.9876    1.4570    1.1957 C   0  0  0  0  0  0  0  0  0  0  0  0
   -3.9302    1.8518   -0.1309 C   0  0  0  0  0  0  0  0  0  0  0  0
   -2.7412    2.3806   -0.6087 C   0  0  0  0  0  0  0  0  0  0  0  0
   -1.6608    2.4877    0.2521 C   0  0  0  0  0  0  0  0  0  0  0  0
    1.6339    5.6818    2.7322 H   0  0  0  0  0  0  0  0  0  0  0  0
   -0.6416    5.9364    3.7055 H   0  0  0  0  0  0  0  0  0  0  0  0
   -0.3609    7.1655    2.4546 H   0  0  0  0  0  0  0  0  0  0  0  0
   -1.3644    5.7406    2.1055 H   0  0  0  0  0  0  0  0  0  0  0  0
    1.7869    4.8195    0.3550 H   0  0  0  0  0  0  0  0  0  0  0  0
    0.0901    5.2723    0.1202 H   0  0  0  0  0  0  0  0  0  0  0  0
    1.2990    6.5229    0.4572 H   0  0  0  0  0  0  0  0  0  0  0  0
    0.3776    0.2688    5.3984 H   0  0  0  0  0  0  0  0  0  0  0  0
    0.0404   -2.0725    6.1307 H   0  0  0  0  0  0  0  0  0  0  0  0
   -0.7428   -3.7575    4.4614 H   0  0  0  0  0  0  0  0  0  0  0  0
   -1.1484   -2.9939    2.1181 H   0  0  0  0  0  0  0  0  0  0  0  0
   -0.7349   -0.6177    1.5478 H   0  0  0  0  0  0  0  0  0  0  0  0
   -2.8736    1.3305    3.0352 H   0  0  0  0  0  0  0  0  0  0  0  0
   -4.8898    1.0419    1.6163 H   0  0  0  0  0  0  0  0  0  0  0  0
   -4.7905    1.7511   -0.7757 H   0  0  0  0  0  0  0  0  0  0  0  0
   -2.6482    2.7037   -1.6334 H   0  0  0  0  0  0  0  0  0  0  0  0
   -0.7081    2.8790   -0.0818 H   0  0  0  0  0  0  0  0  0  0  0  0
  1  6  1  0  0  0  0
  1  3  1  0  0  0  0
  1  4  1  0  0  0  0
  2  1  1  0  0  0  0
  5  1  1  0  0  0  0
  6 11  1  0  0  0  0
  7 16  1  0  0  0  0
  7  1  1  0  0  0  0
  8  5  1  0  0  0  0
  8  9  1  0  0  0  0
  8 21  1  0  0  0  0
  9 22  1  0  0  0  0
 10  8  1  0  0  0  0
 11 12  1  0  0  0  0
 11 28  1  0  0  0  0
 12 29  1  0  0  0  0
 13 30  1  0  0  0  0
 13 12  2  0  0  0  0
 14 13  1  0  0  0  0
 15 14  2  0  0  0  0
 15  6  1  0  0  0  0
 16 33  1  0  0  0  0
 17 34  1  0  0  0  0
 17 16  1  0  0  0  0
 18 17  2  0  0  0  0
 19 18  1  0  0  0  0
 19 20  2  0  0  0  0
 20  7  1  0  0  0  0
 23  9  1  0  0  0  0
 24  9  1  0  0  0  0
 25 10  1  0  0  0  0
 26 10  1  0  0  0  0
 27 10  1  0  0  0  0
 31 14  1  0  0  0  0
 32 15  1  0  0  0  0
 35 18  1  0  0  0  0
 36 19  1  0  0  0  0
 37 20  1  0  0  0  0
M  END
$$$$
