CSD_code = GOWROZ | q = 0 | S = 0 | Stoichiometry = C15H13Cl2N5Zn | MND = 5
 OpenBabel04212202043D

 36 40  0  0  1  0  0  0  0  0999 V2000
   -0.7761    1.4795    3.1222 Zn  0  0  0  0  0  0  0  0  0  0  0  0
    0.5961    2.4043    1.5973 Cl  0  0  0  0  0  0  0  0  0  0  0  0
   -0.7761   -0.6383    3.1222 N   0  0  0  0  0  0  0  0  0  0  0  0
    0.6882    1.3046    4.6719 N   0  0  0  0  0  0  0  0  0  0  0  0
   -0.3348   -0.6546    5.4367 N   0  0  0  0  0  0  0  0  0  0  0  0
   -0.7761   -3.4133    3.1222 C   0  0  0  0  0  0  0  0  0  0  0  0
   -0.6158   -2.7137    4.3012 C   0  0  0  0  0  0  0  0  0  0  0  0
   -0.5754   -1.3147    4.2571 C   0  0  1  0  0  3  0  0  0  0  0  0
    0.2991    0.5435    5.6886 C   0  0  1  0  0  3  0  0  0  0  0  0
    0.5644    0.8897    7.0185 C   0  0  0  0  0  0  0  0  0  0  0  0
    1.2581    2.0527    7.2743 C   0  0  0  0  0  0  0  0  0  0  0  0
    1.6975    2.8240    6.2047 C   0  0  0  0  0  0  0  0  0  0  0  0
    1.3807    2.4111    4.9271 C   0  0  0  0  0  0  0  0  0  0  0  0
   -0.4732   -1.2219    6.2623 H   0  0  0  0  0  0  0  0  0  0  0  0
   -0.7761   -4.4924    3.1222 H   0  0  0  0  0  0  0  0  0  0  0  0
   -0.4901   -3.2289    5.2401 H   0  0  0  0  0  0  0  0  0  0  0  0
    0.2121    0.2613    7.8225 H   0  0  0  0  0  0  0  0  0  0  0  0
    1.4564    2.3557    8.2914 H   0  0  0  0  0  0  0  0  0  0  0  0
    2.2523    3.7339    6.3632 H   0  0  0  0  0  0  0  0  0  0  0  0
    1.6796    2.9751    4.0546 H   0  0  0  0  0  0  0  0  0  0  0  0
   -2.1482    2.4048    4.6470 Cl  0  0  0  0  0  0  0  0  0  0  0  0
   -2.2404    1.3047    1.5726 N   0  0  0  0  0  0  0  0  0  0  0  0
   -1.8513    0.5435    0.5558 C   0  0  1  0  0  3  0  0  0  0  0  0
   -1.2175   -0.6546    0.8078 N   0  0  0  0  0  0  0  0  0  0  0  0
   -0.9768   -1.3147    1.9874 C   0  0  0  0  0  0  0  0  0  0  0  0
   -0.9365   -2.7137    1.9432 C   0  0  0  0  0  0  0  0  0  0  0  0
   -1.0621   -3.2289    1.0044 H   0  0  0  0  0  0  0  0  0  0  0  0
   -1.0790   -1.2219   -0.0178 H   0  0  0  0  0  0  0  0  0  0  0  0
   -2.1167    0.8897   -0.7740 C   0  0  0  0  0  0  0  0  0  0  0  0
   -2.8105    2.0527   -1.0298 C   0  0  0  0  0  0  0  0  0  0  0  0
   -3.2498    2.8240    0.0398 C   0  0  0  0  0  0  0  0  0  0  0  0
   -2.9329    2.4111    1.3174 C   0  0  0  0  0  0  0  0  0  0  0  0
   -3.2318    2.9751    2.1899 H   0  0  0  0  0  0  0  0  0  0  0  0
   -3.8046    3.7339   -0.1187 H   0  0  0  0  0  0  0  0  0  0  0  0
   -3.0087    2.3557   -2.0469 H   0  0  0  0  0  0  0  0  0  0  0  0
   -1.7644    0.2613   -1.5781 H   0  0  0  0  0  0  0  0  0  0  0  0
  1  3  1  0  0  0  0
  1 21  1  0  0  0  0
  1  4  1  0  0  0  0
  2  1  1  0  0  0  0
  3  8  1  0  0  0  0
  4 13  1  0  0  0  0
  4  9  1  0  0  0  0
  5  9  1  0  0  0  0
  5 14  1  0  0  0  0
  6  7  2  0  0  0  0
  7 16  1  0  0  0  0
  8  7  1  1  0  0  0
  8  5  1  0  0  0  0
  9 10  1  6  0  0  0
 10 11  2  0  0  0  0
 10 17  1  0  0  0  0
 11 18  1  0  0  0  0
 12 19  1  0  0  0  0
 12 11  1  0  0  0  0
 13 12  2  0  0  0  0
 15  6  1  0  0  0  0
 20 13  1  0  0  0  0
 22  1  1  0  0  0  0
 23 29  1  1  0  0  0
 23 24  1  0  0  0  0
 23 22  1  0  0  0  0
 24 25  1  0  0  0  0
 25  3  1  0  0  0  0
 26 25  2  0  0  0  0
 26  6  1  0  0  0  0
 27 26  1  0  0  0  0
 28 24  1  0  0  0  0
 30 29  2  0  0  0  0
 30 31  1  0  0  0  0
 31 32  2  0  0  0  0
 32 22  1  0  0  0  0
 32 33  1  0  0  0  0
 34 31  1  0  0  0  0
 35 30  1  0  0  0  0
 36 29  1  0  0  0  0
M  END
$$$$
