CSD_code = GOXKIP | q = 0 | S = 0 | Stoichiometry = C10H8IN2O4Re | MND = 6
 OpenBabel04212202043D

 26 27  0  0  1  0  0  0  0  0999 V2000
    2.4521    2.5613    5.9233 C   0  0  0  0  0  0  0  0  0  0  0  0
    2.3372    2.7515    4.8547 H   0  0  0  0  0  0  0  0  0  0  0  0
    2.8516    1.5578    6.0713 H   0  0  0  0  0  0  0  0  0  0  0  0
    3.1412    3.2920    6.3422 H   0  0  0  0  0  0  0  0  0  0  0  0
    1.1820    2.6899    6.5998 N   0  0  0  0  0  0  0  0  0  0  0  0
    0.9944    6.3961    8.6967 Re  0  0  0  0  0  0  0  0  0  0  0  0
    0.0414    6.9936    6.2106 I   0  0  0  0  0  0  0  0  0  0  0  0
    2.0881    5.4114   11.4077 O   0  0  0  0  0  1  0  0  0  0  0  0
    3.5029    8.0634    7.9904 O   0  0  0  0  0  1  0  0  0  0  0  0
   -0.6173    4.9410    8.7568 N   0  0  0  0  0  0  0  0  0  0  0  0
    0.0669    7.9055    9.4982 C   0  0  0  0  0  2  0  0  0  0  0  0
    1.6869    5.7911   10.4054 C   0  0  0  0  0  2  0  0  0  0  0  0
   -0.5408    8.7686    9.9509 O   0  0  0  0  0  1  0  0  0  0  0  0
    0.9131    3.7093    7.4262 C   0  0  2  0  0  3  0  0  0  0  0  0
   -2.8513    4.2534    9.2316 C   0  0  0  0  0  0  0  0  0  0  0  0
   -3.7882    4.4715    9.7173 H   0  0  0  0  0  0  0  0  0  0  0  0
    1.7736    4.5449    7.7153 O   0  0  0  0  0  0  0  0  0  0  0  0
    2.5737    7.4872    8.3183 C   0  0  0  0  0  2  0  0  0  0  0  0
   -1.7971    5.1403    9.3416 C   0  0  0  0  0  3  0  0  0  0  0  0
   -1.9009    6.0529    9.9149 H   0  0  0  0  0  0  0  0  0  0  0  0
   -0.4455    3.8190    8.0276 C   0  0  0  0  0  0  0  0  0  0  0  0
   -2.6790    3.0943    8.4883 C   0  0  0  0  0  0  0  0  0  0  0  0
   -3.4797    2.3797    8.3803 H   0  0  0  0  0  0  0  0  0  0  0  0
   -1.4549    2.8743    7.8828 C   0  0  0  0  0  0  0  0  0  0  0  0
   -1.2960    1.9761    7.3067 H   0  0  0  0  0  0  0  0  0  0  0  0
    0.4448    2.0690    6.3096 H   0  0  0  0  0  0  0  0  0  0  0  0
  1  3  1  0  0  0  0
  1  4  1  0  0  0  0
  1  5  1  0  0  0  0
  2  1  1  0  0  0  0
  6 10  1  0  0  0  0
  6 11  1  0  0  0  0
  6 12  1  0  0  0  0
  7  6  1  0  0  0  0
  9 18  1  0  0  0  0
 10 19  1  0  0  0  0
 11 13  1  0  0  0  0
 12  8  1  0  0  0  0
 14  5  1  1  0  0  0
 14 17  1  0  0  0  0
 14 21  1  0  0  0  0
 15 19  1  0  0  0  0
 15 16  1  0  0  0  0
 17  6  1  0  0  0  0
 18  6  1  0  0  0  0
 19 20  1  0  0  0  0
 21 10  1  0  0  0  0
 22 15  2  0  0  0  0
 23 22  1  0  0  0  0
 24 21  2  0  0  0  0
 24 22  1  0  0  0  0
 25 24  1  0  0  0  0
 26  5  1  0  0  0  0
M  END
$$$$
