CSD_code = GOXKEL | q = 0 | S = 0 | Stoichiometry = C10H8BrN2O4Re | MND = 6
 OpenBabel04212202043D

 26 27  0  0  1  0  0  0  0  0999 V2000
    8.5267    6.8358    9.0121 C   0  0  0  0  0  0  0  0  0  0  0  0
    8.3075    7.7654    9.5112 H   0  0  0  0  0  0  0  0  0  0  0  0
    6.5626    2.8905    8.5554 Re  0  0  0  0  0  0  0  0  0  0  0  0
    6.2830    3.6183    6.1199 Br  0  0  0  0  0  0  0  0  0  0  0  0
    7.2928    2.0043   11.4179 O   0  0  0  0  0  1  0  0  0  0  0  0
    5.5706    1.2558    8.1496 C   0  0  0  0  0  2  0  0  0  0  0  0
    9.1225    3.0750    7.2176 C   0  0  2  0  0  3  0  0  0  0  0  0
    7.9094    4.5715    8.6049 N   0  0  0  0  0  0  0  0  0  0  0  0
    4.0203    4.4110    9.4285 O   0  0  0  0  0  1  0  0  0  0  0  0
    7.0094    2.3290   10.3578 C   0  0  0  0  0  2  0  0  0  0  0  0
    5.0594    0.2991    7.7949 O   0  0  0  0  0  1  0  0  0  0  0  0
    8.5041    2.1362    7.7296 O   0  0  0  0  0  0  0  0  0  0  0  0
    4.9482    3.8061    9.1267 C   0  0  0  0  0  2  0  0  0  0  0  0
    9.6234    6.7120    8.1716 C   0  0  0  0  0  0  0  0  0  0  0  0
   10.2875    7.5448    8.0007 H   0  0  0  0  0  0  0  0  0  0  0  0
    9.9967    2.8848    6.2211 N   0  0  0  0  0  0  0  0  0  0  0  0
    8.9676    4.4466    7.7816 C   0  0  1  0  0  3  0  0  0  0  0  0
    7.7043    5.7400    9.2040 C   0  0  0  0  0  0  0  0  0  0  0  0
    6.8421    5.7986    9.8556 H   0  0  0  0  0  0  0  0  0  0  0  0
    9.8524    5.4942    7.5553 C   0  0  0  0  0  0  0  0  0  0  0  0
   10.7105    5.3638    6.9147 H   0  0  0  0  0  0  0  0  0  0  0  0
   10.1207    1.6071    5.5571 C   0  0  0  0  0  0  0  0  0  0  0  0
    9.7102    0.8393    6.2101 H   0  0  0  0  0  0  0  0  0  0  0  0
   11.1715    1.3979    5.3604 H   0  0  0  0  0  0  0  0  0  0  0  0
    9.5659    1.6066    4.6162 H   0  0  0  0  0  0  0  0  0  0  0  0
   10.3664    3.6851    5.7336 H   0  0  0  0  0  0  0  0  0  0  0  0
  1 18  2  0  0  0  0
  1  2  1  0  0  0  0
  3  8  1  0  0  0  0
  3 13  1  0  0  0  0
  3 10  1  0  0  0  0
  4  3  1  0  0  0  0
  6  3  1  0  0  0  0
  7 16  1  1  0  0  0
  7 12  1  0  0  0  0
  7 17  1  0  0  0  0
  8 18  1  0  0  0  0
 10  5  1  0  0  0  0
 11  6  1  0  0  0  0
 12  3  1  0  0  0  0
 13  9  1  0  0  0  0
 14  1  1  0  0  0  0
 15 14  1  0  0  0  0
 17 20  1  1  0  0  0
 17  8  1  0  0  0  0
 18 19  1  0  0  0  0
 20 14  2  0  0  0  0
 21 20  1  0  0  0  0
 22 23  1  0  0  0  0
 22 16  1  0  0  0  0
 24 22  1  0  0  0  0
 25 22  1  0  0  0  0
 26 16  1  0  0  0  0
M  END
$$$$
