CSD_code = GOXNEO | q = 0 | S = 0 | Stoichiometry = C24H23ClN3PPd | MND = 4
 OpenBabel04212202043D

 53 58  0  0  1  0  0  0  0  0999 V2000
   11.3578    4.7284   15.8775 Pd  0  0  2  0  0  0  0  0  0  0  0  0
   12.0571    3.3058   14.1756 Cl  0  0  0  0  0  0  0  0  0  0  0  0
    9.9725    3.2385   16.6752 P   0  0  0  0  0  4  0  0  0  0  0  0
   10.4594    1.7181   17.5382 C   0  0  0  0  0  0  0  0  0  0  0  0
    9.5601    0.9112   18.2269 C   0  0  0  0  0  0  0  0  0  0  0  0
    8.5089    1.1689   18.2496 H   0  0  0  0  0  0  0  0  0  0  0  0
   11.3662   -0.5429   18.8447 C   0  0  0  0  0  0  0  0  0  0  0  0
   11.7162   -1.4303   19.3514 H   0  0  0  0  0  0  0  0  0  0  0  0
   12.2649    0.2672   18.1689 C   0  0  0  0  0  0  0  0  0  0  0  0
   13.3141    0.0126   18.1503 H   0  0  0  0  0  0  0  0  0  0  0  0
   11.8132    1.4011   17.5185 C   0  0  0  0  0  0  0  0  0  0  0  0
   12.4930    2.0532   16.9753 H   0  0  0  0  0  0  0  0  0  0  0  0
    8.7822    2.7867   15.3848 C   0  0  0  0  0  0  0  0  0  0  0  0
    8.2963    1.5165   15.1149 C   0  0  0  0  0  0  0  0  0  0  0  0
    8.5902    0.6790   15.7316 H   0  0  0  0  0  0  0  0  0  0  0  0
    7.4480    1.3271   14.0357 C   0  0  0  0  0  0  0  0  0  0  0  0
    7.0680    0.3391   13.8199 H   0  0  0  0  0  0  0  0  0  0  0  0
    7.0991    2.3940   13.2259 C   0  0  0  0  0  0  0  0  0  0  0  0
    6.4446    2.2361   12.3813 H   0  0  0  0  0  0  0  0  0  0  0  0
    8.4468    3.8574   14.5557 C   0  0  0  0  0  0  0  0  0  0  0  0
    8.8790    4.8411   14.7708 H   0  0  0  0  0  0  0  0  0  0  0  0
    9.7074    5.2918   18.2547 C   0  0  0  0  0  0  0  0  0  0  0  0
   11.1947    7.4160   19.2247 C   0  0  0  0  0  0  0  0  0  0  0  0
   11.7916    8.2253   19.6217 H   0  0  0  0  0  0  0  0  0  0  0  0
    9.3016    5.9456   19.4077 C   0  0  0  0  0  0  0  0  0  0  0  0
    8.4242    5.6123   19.9447 H   0  0  0  0  0  0  0  0  0  0  0  0
   12.9099    7.0838   17.3807 C   0  0  0  0  0  0  0  0  0  0  0  0
   13.4222    7.9086   17.8767 H   0  0  0  0  0  0  0  0  0  0  0  0
   13.5567    6.1902   17.4022 H   0  0  0  0  0  0  0  0  0  0  0  0
   11.3638    6.3957   12.8381 C   0  0  0  0  0  0  0  0  0  0  0  0
   12.1088    6.2542   12.0553 H   0  0  0  0  0  0  0  0  0  0  0  0
   10.5356    6.9702   12.4248 H   0  0  0  0  0  0  0  0  0  0  0  0
   11.0098    5.4101   13.1565 H   0  0  0  0  0  0  0  0  0  0  0  0
   11.9603    7.1096   13.9973 C   0  0  2  0  0  3  0  0  0  0  0  0
   13.3375    9.8373   16.0599 C   0  0  0  0  0  0  0  0  0  0  0  0
   12.7143   10.1080   16.9122 H   0  0  0  0  0  0  0  0  0  0  0  0
   13.3437   10.6663   15.3580 H   0  0  0  0  0  0  0  0  0  0  0  0
   14.3559    9.6759   16.4139 H   0  0  0  0  0  0  0  0  0  0  0  0
   12.1766    6.5142   15.1647 N   0  0  1  0  0  0  0  0  0  0  0  0
   12.6815    7.4298   15.9991 N   0  0  0  0  0  0  0  0  0  0  0  0
    9.0360    4.1670   17.7381 N   0  0  0  0  0  0  0  0  0  0  0  0
    8.3239    3.7507   18.3271 H   0  0  0  0  0  0  0  0  0  0  0  0
   10.8342    5.7201   17.5423 C   0  0  0  0  0  0  0  0  0  0  0  0
   10.0386    7.0242   19.8738 C   0  0  0  0  0  0  0  0  0  0  0  0
    9.7197    7.5418   20.7662 H   0  0  0  0  0  0  0  0  0  0  0  0
   12.8094    8.6240   15.3853 C   0  0  0  0  0  0  0  0  0  0  0  0
   11.5990    6.7502   18.0718 C   0  0  0  0  0  0  0  0  0  0  0  0
    7.6022    3.6621   13.4817 C   0  0  0  0  0  0  0  0  0  0  0  0
    7.3435    4.4866   12.8337 H   0  0  0  0  0  0  0  0  0  0  0  0
   12.3635    8.4489   14.0903 C   0  0  0  0  0  0  0  0  0  0  0  0
   12.3242    9.1879   13.3166 H   0  0  0  0  0  0  0  0  0  0  0  0
   10.0180   -0.2202   18.8773 C   0  0  0  0  0  0  0  0  0  0  0  0
    9.3238   -0.8544   19.4097 H   0  0  0  0  0  0  0  0  0  0  0  0
  1  2  1  1  0  0  0
  1  3  1  0  0  0  0
  1 43  1  0  0  0  0
  3  4  1  0  0  0  0
  3 41  1  0  0  0  0
  4  5  1  0  0  0  0
  5  6  1  0  0  0  0
  5 52  2  0  0  0  0
  7 52  1  0  0  0  0
  7  8  1  0  0  0  0
  9  7  2  0  0  0  0
 10  9  1  0  0  0  0
 11  4  2  0  0  0  0
 11  9  1  0  0  0  0
 12 11  1  0  0  0  0
 13  3  1  0  0  0  0
 14 13  1  0  0  0  0
 14 15  1  0  0  0  0
 16 14  2  0  0  0  0
 17 16  1  0  0  0  0
 18 48  2  0  0  0  0
 18 16  1  0  0  0  0
 19 18  1  0  0  0  0
 20 21  1  0  0  0  0
 20 13  2  0  0  0  0
 22 25  1  0  0  0  0
 23 24  1  0  0  0  0
 23 44  1  0  0  0  0
 25 44  2  0  0  0  0
 25 26  1  0  0  0  0
 27 29  1  0  0  0  0
 27 28  1  0  0  0  0
 27 47  1  0  0  0  0
 30 33  1  0  0  0  0
 31 30  1  0  0  0  0
 32 30  1  0  0  0  0
 34 30  1  1  0  0  0
 34 50  1  0  0  0  0
 34 39  1  0  0  0  0
 35 38  1  0  0  0  0
 35 36  1  0  0  0  0
 37 35  1  0  0  0  0
 39  1  1  0  0  0  0
 39 40  1  1  0  0  0
 40 27  1  0  0  0  0
 41 22  1  0  0  0  0
 41 42  1  0  0  0  0
 43 47  1  0  0  0  0
 43 22  2  0  0  0  0
 44 45  1  0  0  0  0
 46 40  1  0  0  0  0
 46 35  1  0  0  0  0
 47 23  2  0  0  0  0
 48 20  1  0  0  0  0
 49 48  1  0  0  0  0
 50 46  2  0  0  0  0
 51 50  1  0  0  0  0
 52 53  1  0  0  0  0
M  END
$$$$
