CSD_code = GOXYAT | q = 0 | S = 0 | Stoichiometry = C18H26ClS2Y | MND = 13
 OpenBabel04212202043D

 48 48  0  0  1  0  0  0  0  0999 V2000
    2.2328    5.0317    7.2924 Y   0  0  0  0  0  0  0  0  0  0  0  0
    2.5849    4.1723    9.5769 Cl  0  0  0  0  0  0  0  0  0  0  0  0
    4.8426    3.6188    6.9390 S   0  0  0  0  0  0  0  0  0  0  0  0
   -0.0412    6.0553    8.9059 S   0  0  0  0  0  0  0  0  0  0  0  0
    3.6968    7.4245    8.4811 C   0  0  0  0  0  0  0  0  0  0  0  0
    4.0616    7.5862    9.4821 H   0  0  0  0  0  0  0  0  0  0  0  0
    2.4846    7.9039    7.9668 C   0  0  0  0  0  0  0  0  0  0  0  0
    1.7771    8.5146    8.5054 H   0  0  0  0  0  0  0  0  0  0  0  0
    2.3777    7.5031    6.6226 C   0  0  0  0  0  3  0  0  0  0  0  0
    1.6543    7.8707    5.9043 H   0  0  0  0  0  0  0  0  0  0  0  0
    3.5628    6.7640    6.2937 C   0  0  1  0  0  0  0  0  0  0  0  0
    3.9197    6.5699    5.2866 H   0  0  0  0  0  0  0  0  0  0  0  0
    4.3809    6.7433    7.4650 C   0  0  1  0  0  3  0  0  0  0  0  0
    5.7556    6.1462    7.5584 C   0  0  0  0  0  0  0  0  0  0  0  0
    6.3681    6.7510    8.2328 H   0  0  0  0  0  0  0  0  0  0  0  0
    6.2282    6.1470    6.5716 H   0  0  0  0  0  0  0  0  0  0  0  0
    5.7456    4.7151    8.0984 C   0  0  0  0  0  0  0  0  0  0  0  0
    5.2304    4.6594    9.0594 H   0  0  0  0  0  0  0  0  0  0  0  0
    6.7625    4.3313    8.1880 H   0  0  0  0  0  0  0  0  0  0  0  0
    4.6771    2.1037    7.9552 C   0  0  0  0  0  0  0  0  0  0  0  0
    4.2547    2.4023    8.9148 H   0  0  0  0  0  0  0  0  0  0  0  0
    3.9531    1.4903    7.4184 H   0  0  0  0  0  0  0  0  0  0  0  0
    5.9951    1.3707    8.1104 C   0  0  0  0  0  0  0  0  0  0  0  0
    6.4257    1.1481    7.1367 H   0  0  0  0  0  0  0  0  0  0  0  0
    5.8289    0.4356    8.6407 H   0  0  0  0  0  0  0  0  0  0  0  0
    6.7070    1.9626    8.6801 H   0  0  0  0  0  0  0  0  0  0  0  0
    0.2347    4.6448    5.6788 C   0  0  0  0  0  0  0  0  0  0  0  0
   -0.3966    5.4444    5.3125 H   0  0  0  0  0  0  0  0  0  0  0  0
    1.3924    4.1557    5.0237 C   0  0  0  0  0  0  0  0  0  0  0  0
    1.7870    4.5196    4.0851 H   0  0  0  0  0  0  0  0  0  0  0  0
    1.7983    2.9759    5.6892 C   0  0  0  0  0  0  0  0  0  0  0  0
    2.5764    2.3051    5.3521 H   0  0  0  0  0  0  0  0  0  0  0  0
    0.9034    2.7426    6.7533 C   0  0  0  0  0  0  0  0  0  0  0  0
    0.8955    1.8746    7.3982 H   0  0  0  0  0  0  0  0  0  0  0  0
   -0.0782    3.7589    6.7382 C   0  0  2  0  0  3  0  0  0  0  0  0
   -1.2671    3.8529    7.6505 C   0  0  0  0  0  0  0  0  0  0  0  0
   -1.6717    2.8528    7.8334 H   0  0  0  0  0  0  0  0  0  0  0  0
   -2.0534    4.4437    7.1722 H   0  0  0  0  0  0  0  0  0  0  0  0
   -0.9232    4.4594    9.0132 C   0  0  0  0  0  0  0  0  0  0  0  0
   -0.2206    3.8224    9.5546 H   0  0  0  0  0  0  0  0  0  0  0  0
   -1.8136    4.6066    9.6249 H   0  0  0  0  0  0  0  0  0  0  0  0
   -1.2515    7.1214    8.0312 C   0  0  0  0  0  0  0  0  0  0  0  0
   -0.6897    8.0280    7.8082 H   0  0  0  0  0  0  0  0  0  0  0  0
   -1.5281    6.6356    7.0972 H   0  0  0  0  0  0  0  0  0  0  0  0
   -2.4667    7.4349    8.8820 C   0  0  0  0  0  0  0  0  0  0  0  0
   -3.0567    6.5407    9.0676 H   0  0  0  0  0  0  0  0  0  0  0  0
   -3.0973    8.1591    8.3703 H   0  0  0  0  0  0  0  0  0  0  0  0
   -2.1598    7.8533    9.8373 H   0  0  0  0  0  0  0  0  0  0  0  0
  1  2  1  0  0  0  0
  3 20  1  0  0  0  0
  3 17  1  0  0  0  0
  4 39  1  0  0  0  0
  5  6  1  0  0  0  0
  7  5  2  0  0  0  0
  7  8  1  0  0  0  0
  9  7  1  0  0  0  0
 10  9  1  0  0  0  0
 11 12  1  6  0  0  0
 11  9  1  0  0  0  0
 11  1  1  0  0  0  0
 11 13  1  0  0  0  0
 13 14  1  6  0  0  0
 13  5  1  0  0  0  0
 14 17  1  0  0  0  0
 14 15  1  0  0  0  0
 16 14  1  0  0  0  0
 17 19  1  0  0  0  0
 17 18  1  0  0  0  0
 20 23  1  0  0  0  0
 20 21  1  0  0  0  0
 22 20  1  0  0  0  0
 23 25  1  0  0  0  0
 23 26  1  0  0  0  0
 24 23  1  0  0  0  0
 27 35  1  0  0  0  0
 28 27  1  0  0  0  0
 29 27  2  0  0  0  0
 29 31  1  0  0  0  0
 30 29  1  0  0  0  0
 31 33  2  0  0  0  0
 32 31  1  0  0  0  0
 33 34  1  0  0  0  0
 35 33  1  0  0  0  0
 35 36  1  6  0  0  0
 36 37  1  0  0  0  0
 36 39  1  0  0  0  0
 38 36  1  0  0  0  0
 39 40  1  0  0  0  0
 39 41  1  0  0  0  0
 42 45  1  0  0  0  0
 42  4  1  0  0  0  0
 43 42  1  0  0  0  0
 44 42  1  0  0  0  0
 45 46  1  0  0  0  0
 45 48  1  0  0  0  0
 47 45  1  0  0  0  0
M  END
$$$$
