CSD_code = GUBRAX | q = 0 | S = 0 | Stoichiometry = C30H26Br2N2NiP2 | MND = 4
 OpenBabel04212202043D

 63 68  0  0  0  0  0  0  0  0999 V2000
    9.8367    5.6121   20.3594 Ni  0  0  0  0  0  0  0  0  0  0  0  0
    9.2623    7.4938   21.4023 Br  0  0  0  0  0  0  0  0  0  0  0  0
   12.0363    5.6874   20.7290 Br  0  0  0  0  0  0  0  0  0  0  0  0
    9.9980    3.7893   19.2430 P   0  0  0  0  0  4  0  0  0  0  0  0
    7.7925    5.1257   19.9088 P   0  0  0  0  0  4  0  0  0  0  0  0
    8.2965    3.6952   19.0981 N   0  0  0  0  0  0  0  0  0  0  0  0
    5.3899    2.4546   19.5308 N   0  0  0  0  0  0  0  0  0  0  0  0
    7.4924    2.7017   18.3988 C   0  0  0  0  0  0  0  0  0  0  0  0
    8.1757    2.0130   17.8936 H   0  0  0  0  0  0  0  0  0  0  0  0
    6.8604    3.1970   17.6528 H   0  0  0  0  0  0  0  0  0  0  0  0
    6.6106    1.9605   19.3657 C   0  0  0  0  0  0  0  0  0  0  0  0
    7.0714    0.8617   20.0825 C   0  0  0  0  0  0  0  0  0  0  0  0
    8.0694    0.4826   19.9210 H   0  0  0  0  0  0  0  0  0  0  0  0
    6.2256    0.2718   21.0062 C   0  0  0  0  0  0  0  0  0  0  0  0
    6.5551   -0.5819   21.5801 H   0  0  0  0  0  0  0  0  0  0  0  0
    4.9548    0.7960   21.1824 C   0  0  0  0  0  0  0  0  0  0  0  0
    4.2668    0.3682   21.8939 H   0  0  0  0  0  0  0  0  0  0  0  0
    4.5875    1.8881   20.4140 C   0  0  0  0  0  0  0  0  0  0  0  0
    3.6067    2.3358   20.5044 H   0  0  0  0  0  0  0  0  0  0  0  0
   10.4917    2.1957   19.9681 C   0  0  0  0  0  0  0  0  0  0  0  0
   10.6654    2.1451   21.3467 C   0  0  0  0  0  0  0  0  0  0  0  0
   10.6063    3.0595   21.9277 H   0  0  0  0  0  0  0  0  0  0  0  0
   10.9417    0.9403   21.9672 C   0  0  0  0  0  0  0  0  0  0  0  0
   11.0820    0.9043   23.0368 H   0  0  0  0  0  0  0  0  0  0  0  0
   11.0459   -0.2149   21.2098 C   0  0  0  0  0  0  0  0  0  0  0  0
   11.2622   -1.1574   21.6904 H   0  0  0  0  0  0  0  0  0  0  0  0
   10.8869   -0.1649   19.8331 C   0  0  0  0  0  0  0  0  0  0  0  0
   10.9792   -1.0664   19.2449 H   0  0  0  0  0  0  0  0  0  0  0  0
   10.6111    1.0376   19.2074 C   0  0  0  0  0  0  0  0  0  0  0  0
   10.5003    1.0799   18.1318 H   0  0  0  0  0  0  0  0  0  0  0  0
   10.6722    3.7375   17.5652 C   0  0  0  0  0  0  0  0  0  0  0  0
   12.0209    3.4211   17.4162 C   0  0  0  0  0  0  0  0  0  0  0  0
   12.6054    3.1544   18.2869 H   0  0  0  0  0  0  0  0  0  0  0  0
   12.6002    3.4680   16.1628 C   0  0  0  0  0  0  0  0  0  0  0  0
   13.6448    3.2229   16.0450 H   0  0  0  0  0  0  0  0  0  0  0  0
   11.8436    3.8409   15.0622 C   0  0  0  0  0  0  0  0  0  0  0  0
   12.2984    3.8781   14.0837 H   0  0  0  0  0  0  0  0  0  0  0  0
   10.5097    4.1842   15.2153 C   0  0  0  0  0  0  0  0  0  0  0  0
    9.9273    4.4922   14.3594 H   0  0  0  0  0  0  0  0  0  0  0  0
    9.9236    4.1464   16.4673 C   0  0  0  0  0  0  0  0  0  0  0  0
    8.8891    4.4388   16.5952 H   0  0  0  0  0  0  0  0  0  0  0  0
    6.7458    5.9902   18.7076 C   0  0  0  0  0  0  0  0  0  0  0  0
    7.2488    7.1439   18.1160 C   0  0  0  0  0  0  0  0  0  0  0  0
    8.2077    7.5378   18.4330 H   0  0  0  0  0  0  0  0  0  0  0  0
    6.5149    7.7939   17.1401 C   0  0  0  0  0  0  0  0  0  0  0  0
    6.9001    8.6948   16.6869 H   0  0  0  0  0  0  0  0  0  0  0  0
    5.2864    7.2859   16.7508 C   0  0  0  0  0  0  0  0  0  0  0  0
    4.7117    7.7918   15.9890 H   0  0  0  0  0  0  0  0  0  0  0  0
    4.7884    6.1319   17.3375 C   0  0  0  0  0  0  0  0  0  0  0  0
    3.8299    5.7401   17.0297 H   0  0  0  0  0  0  0  0  0  0  0  0
    5.5105    5.4779   18.3195 C   0  0  0  0  0  0  0  0  0  0  0  0
    5.1282    4.5786   18.7835 H   0  0  0  0  0  0  0  0  0  0  0  0
    6.6971    4.5939   21.2507 C   0  0  0  0  0  0  0  0  0  0  0  0
    7.0991    3.5266   22.0476 C   0  0  0  0  0  0  0  0  0  0  0  0
    8.0127    2.9931   21.8121 H   0  0  0  0  0  0  0  0  0  0  0  0
    6.3285    3.1406   23.1259 C   0  0  0  0  0  0  0  0  0  0  0  0
    6.6367    2.3044   23.7364 H   0  0  0  0  0  0  0  0  0  0  0  0
    5.1686    3.8364   23.4291 C   0  0  0  0  0  0  0  0  0  0  0  0
    4.5678    3.5364   24.2746 H   0  0  0  0  0  0  0  0  0  0  0  0
    4.7900    4.9257   22.6623 C   0  0  0  0  0  0  0  0  0  0  0  0
    3.8983    5.4799   22.9139 H   0  0  0  0  0  0  0  0  0  0  0  0
    5.5556    5.3150   21.5782 C   0  0  0  0  0  0  0  0  0  0  0  0
    5.2742    6.1758   20.9888 H   0  0  0  0  0  0  0  0  0  0  0  0
  1  3  1  0  0  0  0
  1  2  1  0  0  0  0
  4 20  1  0  0  0  0
  4  1  1  0  0  0  0
  5  1  1  0  0  0  0
  5 53  1  0  0  0  0
  6  4  1  0  0  0  0
  6  5  1  0  0  0  0
  7 18  1  0  0  0  0
  8  6  1  0  0  0  0
  8 11  1  0  0  0  0
  9  8  1  0  0  0  0
 10  8  1  0  0  0  0
 11  7  2  0  0  0  0
 11 12  1  0  0  0  0
 12 14  2  0  0  0  0
 13 12  1  0  0  0  0
 14 16  1  0  0  0  0
 14 15  1  0  0  0  0
 16 17  1  0  0  0  0
 18 19  1  0  0  0  0
 18 16  2  0  0  0  0
 20 21  1  0  0  0  0
 21 22  1  0  0  0  0
 21 23  2  0  0  0  0
 23 24  1  0  0  0  0
 25 26  1  0  0  0  0
 25 23  1  0  0  0  0
 27 25  2  0  0  0  0
 28 27  1  0  0  0  0
 29 27  1  0  0  0  0
 29 20  2  0  0  0  0
 30 29  1  0  0  0  0
 31  4  1  0  0  0  0
 32 31  1  0  0  0  0
 32 33  1  0  0  0  0
 34 32  2  0  0  0  0
 35 34  1  0  0  0  0
 36 38  2  0  0  0  0
 36 34  1  0  0  0  0
 37 36  1  0  0  0  0
 38 40  1  0  0  0  0
 39 38  1  0  0  0  0
 40 41  1  0  0  0  0
 40 31  2  0  0  0  0
 42  5  1  0  0  0  0
 43 44  1  0  0  0  0
 43 42  2  0  0  0  0
 45 43  1  0  0  0  0
 46 45  1  0  0  0  0
 47 45  2  0  0  0  0
 47 49  1  0  0  0  0
 48 47  1  0  0  0  0
 49 51  2  0  0  0  0
 50 49  1  0  0  0  0
 51 42  1  0  0  0  0
 51 52  1  0  0  0  0
 53 62  2  0  0  0  0
 53 54  1  0  0  0  0
 54 56  2  0  0  0  0
 55 54  1  0  0  0  0
 56 58  1  0  0  0  0
 56 57  1  0  0  0  0
 58 59  1  0  0  0  0
 60 61  1  0  0  0  0
 60 58  2  0  0  0  0
 62 60  1  0  0  0  0
 63 62  1  0  0  0  0
M  END
$$$$
