CSD_code = GUBTUT | q = 0 | S = 0 | Stoichiometry = C22H32AuClN2O4P2 | MND = 2
 OpenBabel04212202043D

 64 66  0  0  0  0  0  0  0  0999 V2000
    4.3250    2.1244   19.6556 Au  0  0  0  0  0  0  0  0  0  0  0  0
    3.2973    1.1256   17.8985 Cl  0  0  0  0  0  0  0  0  0  0  0  0
    5.3271    3.2641   21.2974 P   0  0  1  0  0  4  0  0  0  0  0  0
    6.5131    2.0865   23.2206 P   0  0  1  0  0  0  0  0  0  0  0  0
    5.2688    4.8632   21.2616 O   0  0  0  0  0  0  0  0  0  0  0  0
    7.1113    3.1172   24.3262 O   0  0  0  0  0  0  0  0  0  0  0  0
    5.0614    4.5376   18.5707 O   0  0  0  0  0  0  0  0  0  0  0  0
    9.0838    4.7285   24.9813 O   0  0  0  0  0  0  0  0  0  0  0  0
    5.0032    2.8939   22.9234 N   0  0  0  0  0  0  0  0  0  0  0  0
    6.9150    3.0007   21.7897 N   0  0  0  0  0  0  0  0  0  0  0  0
    3.7181    2.4819   23.4571 C   0  0  0  0  0  0  0  0  0  0  0  0
    2.6738    3.4584   22.9183 C   0  0  0  0  0  0  0  0  0  0  0  0
    2.9106    4.4715   23.2352 H   0  0  0  0  0  0  0  0  0  0  0  0
    1.6817    3.1974   23.2778 H   0  0  0  0  0  0  0  0  0  0  0  0
    2.6669    3.4285   21.8259 H   0  0  0  0  0  0  0  0  0  0  0  0
    3.8106    2.5738   24.9808 C   0  0  0  0  0  0  0  0  0  0  0  0
    4.5629    1.8753   25.3452 H   0  0  0  0  0  0  0  0  0  0  0  0
    2.8551    2.3308   25.4383 H   0  0  0  0  0  0  0  0  0  0  0  0
    4.1050    3.5775   25.2773 H   0  0  0  0  0  0  0  0  0  0  0  0
    3.3759    1.0507   23.0403 C   0  0  0  0  0  0  0  0  0  0  0  0
    3.3141    0.9768   21.9540 H   0  0  0  0  0  0  0  0  0  0  0  0
    2.4225    0.7459   23.4645 H   0  0  0  0  0  0  0  0  0  0  0  0
    4.1506    0.3688   23.3888 H   0  0  0  0  0  0  0  0  0  0  0  0
    8.0576    2.7229   20.9407 C   0  0  0  0  0  0  0  0  0  0  0  0
    7.9158    1.3643   20.2531 C   0  0  0  0  0  0  0  0  0  0  0  0
    7.8084    0.5792   21.0011 H   0  0  0  0  0  0  0  0  0  0  0  0
    8.7896    1.1497   19.6425 H   0  0  0  0  0  0  0  0  0  0  0  0
    7.0317    1.3555   19.6144 H   0  0  0  0  0  0  0  0  0  0  0  0
    8.1314    3.8399   19.9036 C   0  0  0  0  0  0  0  0  0  0  0  0
    7.2057    3.8601   19.3291 H   0  0  0  0  0  0  0  0  0  0  0  0
    8.9668    3.6824   19.2258 H   0  0  0  0  0  0  0  0  0  0  0  0
    8.2498    4.8001   20.4009 H   0  0  0  0  0  0  0  0  0  0  0  0
    9.2893    2.7289   21.8465 C   0  0  0  0  0  0  0  0  0  0  0  0
    9.3396    3.6662   22.3957 H   0  0  0  0  0  0  0  0  0  0  0  0
   10.1968    2.6036   21.2613 H   0  0  0  0  0  0  0  0  0  0  0  0
    9.2201    1.9121   22.5669 H   0  0  0  0  0  0  0  0  0  0  0  0
    4.4070    5.6524   20.5296 C   0  0  0  0  0  0  0  0  0  0  0  0
    3.6882    6.6298   21.1932 C   0  0  0  0  0  0  0  0  0  0  0  0
    3.8158    6.7266   22.2600 H   0  0  0  0  0  0  0  0  0  0  0  0
    2.8311    7.4636   20.4940 C   0  0  0  0  0  0  0  0  0  0  0  0
    2.2742    8.2236   21.0185 H   0  0  0  0  0  0  0  0  0  0  0  0
    2.6916    7.3081   19.1287 C   0  0  0  0  0  0  0  0  0  0  0  0
    2.0180    7.9438   18.5752 H   0  0  0  0  0  0  0  0  0  0  0  0
    3.4147    6.3387   18.4523 C   0  0  0  0  0  0  0  0  0  0  0  0
    3.2905    6.2319   17.3872 H   0  0  0  0  0  0  0  0  0  0  0  0
    4.2856    5.5052   19.1400 C   0  0  0  0  0  0  0  0  0  0  0  0
    5.0064    4.3663   17.1672 C   0  0  0  0  0  0  0  0  0  0  0  0
    4.0183    4.0250   16.8504 H   0  0  0  0  0  0  0  0  0  0  0  0
    5.7323    3.5885   16.9377 H   0  0  0  0  0  0  0  0  0  0  0  0
    5.2777    5.2892   16.6485 H   0  0  0  0  0  0  0  0  0  0  0  0
    7.8939    2.7501   25.3878 C   0  0  0  0  0  0  0  0  0  0  0  0
    7.6834    1.5840   26.0972 C   0  0  0  0  0  0  0  0  0  0  0  0
    6.8872    0.9260   25.7777 H   0  0  0  0  0  0  0  0  0  0  0  0
    8.4789    1.2670   27.1868 C   0  0  0  0  0  0  0  0  0  0  0  0
    8.3042    0.3531   27.7321 H   0  0  0  0  0  0  0  0  0  0  0  0
    9.4883    2.1289   27.5649 C   0  0  0  0  0  0  0  0  0  0  0  0
   10.1118    1.8956   28.4142 H   0  0  0  0  0  0  0  0  0  0  0  0
    9.7167    3.2994   26.8575 C   0  0  0  0  0  0  0  0  0  0  0  0
   10.5170    3.9520   27.1675 H   0  0  0  0  0  0  0  0  0  0  0  0
    8.9324    3.6238   25.7590 C   0  0  0  0  0  0  0  0  0  0  0  0
   10.0878    5.6532   25.3187 C   0  0  0  0  0  0  0  0  0  0  0  0
    9.9323    6.0699   26.3190 H   0  0  0  0  0  0  0  0  0  0  0  0
   10.0112    6.4513   24.5820 H   0  0  0  0  0  0  0  0  0  0  0  0
   11.0849    5.2037   25.2628 H   0  0  0  0  0  0  0  0  0  0  0  0
  2  1  1  0  0  0  0
  3  1  1  6  0  0  0
  3 10  1  0  0  0  0
  3  9  1  0  0  0  0
  4  6  1  1  0  0  0
  5  3  1  0  0  0  0
  6 51  1  0  0  0  0
  7 46  1  0  0  0  0
  8 61  1  0  0  0  0
  8 60  1  0  0  0  0
  9  4  1  0  0  0  0
  9 11  1  0  0  0  0
 10  4  1  0  0  0  0
 11 16  1  0  0  0  0
 12 13  1  0  0  0  0
 12 14  1  0  0  0  0
 12 11  1  0  0  0  0
 15 12  1  0  0  0  0
 16 19  1  0  0  0  0
 16 17  1  0  0  0  0
 16 18  1  0  0  0  0
 20 23  1  0  0  0  0
 20 11  1  0  0  0  0
 20 22  1  0  0  0  0
 21 20  1  0  0  0  0
 24 10  1  0  0  0  0
 24 33  1  0  0  0  0
 25 24  1  0  0  0  0
 25 26  1  0  0  0  0
 27 25  1  0  0  0  0
 28 25  1  0  0  0  0
 29 32  1  0  0  0  0
 29 24  1  0  0  0  0
 30 29  1  0  0  0  0
 31 29  1  0  0  0  0
 33 34  1  0  0  0  0
 33 36  1  0  0  0  0
 35 33  1  0  0  0  0
 37 38  1  0  0  0  0
 37  5  1  0  0  0  0
 38 39  1  0  0  0  0
 40 41  1  0  0  0  0
 40 38  2  0  0  0  0
 42 40  1  0  0  0  0
 43 42  1  0  0  0  0
 44 42  2  0  0  0  0
 44 46  1  0  0  0  0
 45 44  1  0  0  0  0
 46 37  2  0  0  0  0
 47  7  1  0  0  0  0
 48 47  1  0  0  0  0
 49 47  1  0  0  0  0
 50 47  1  0  0  0  0
 51 60  2  0  0  0  0
 51 52  1  0  0  0  0
 52 54  2  0  0  0  0
 53 52  1  0  0  0  0
 54 56  1  0  0  0  0
 54 55  1  0  0  0  0
 56 57  1  0  0  0  0
 58 59  1  0  0  0  0
 58 56  2  0  0  0  0
 60 58  1  0  0  0  0
 61 62  1  0  0  0  0
 63 61  1  0  0  0  0
 64 61  1  0  0  0  0
M  END
$$$$
