CSD_code = GUCBAJ | q = 0 | S = 0 | Stoichiometry = C20H16BrFeN5 | MND = 4
 OpenBabel04212202043D

 43 48  0  0  1  0  0  0  0  0999 V2000
    4.7069   -0.8401    1.1551 Br  0  0  0  0  0  0  0  0  0  0  0  0
    4.7112    1.4526    1.1943 Fe  0  0  1  0  0  0  0  0  0  0  0  0
    5.5674    1.6161   -0.6178 N   0  0  0  0  0  0  0  0  0  0  0  0
    3.5492    1.7600   -1.8987 N   0  0  0  0  0  2  0  0  0  0  0  0
    2.9803    1.6780    0.4251 N   0  0  0  0  0  0  0  0  0  0  0  0
    1.6127    1.5754    2.3878 N   0  0  0  0  0  0  0  0  0  0  0  0
    3.9152    1.5315    3.0363 N   0  0  0  0  0  0  0  0  0  0  0  0
    6.9132    1.5718   -0.6812 C   0  0  1  0  0  3  0  0  0  0  0  0
    7.6160    1.6553   -1.8642 C   0  0  0  0  0  0  0  0  0  0  0  0
    8.6934    1.6144   -1.8465 H   0  0  0  0  0  0  0  0  0  0  0  0
    6.9283    1.7805   -3.0705 C   0  0  0  0  0  0  0  0  0  0  0  0
    7.4636    1.8382   -4.0057 H   0  0  0  0  0  0  0  0  0  0  0  0
    5.5629    1.8188   -3.0259 C   0  0  0  0  0  0  0  0  0  0  0  0
    4.9508    1.9032   -3.9076 H   0  0  0  0  0  0  0  0  0  0  0  0
    4.8887    1.7273   -1.7891 C   0  0  0  0  0  0  0  0  0  0  0  0
    2.7149    1.7183   -0.9101 C   0  0  0  0  0  0  0  0  0  0  0  0
    1.2675    1.7364   -1.1151 C   0  0  0  0  0  0  0  0  0  0  0  0
    0.4860    1.7852   -2.2525 C   0  0  0  0  0  0  0  0  0  0  0  0
    0.9392    1.8239   -3.2300 H   0  0  0  0  0  0  0  0  0  0  0  0
   -0.8918    1.7765   -2.0830 C   0  0  0  0  0  0  0  0  0  0  0  0
   -1.5341    1.8099   -2.9509 H   0  0  0  0  0  0  0  0  0  0  0  0
   -1.4636    1.7221   -0.8174 C   0  0  0  0  0  0  0  0  0  0  0  0
   -2.5398    1.7142   -0.7248 H   0  0  0  0  0  0  0  0  0  0  0  0
   -0.6794    1.6745    0.3272 C   0  0  0  0  0  0  0  0  0  0  0  0
   -1.1133    1.6287    1.3131 H   0  0  0  0  0  0  0  0  0  0  0  0
    0.6913    1.6817    0.1603 C   0  0  0  0  0  0  0  0  0  0  0  0
    1.8028    1.6331    1.1086 C   0  0  0  0  0  0  0  0  0  0  0  0
    2.5863    1.5327    3.3140 C   0  0  0  0  0  0  0  0  0  0  0  0
    2.1124    1.5004    4.6431 C   0  0  0  0  0  0  0  0  0  0  0  0
    1.0443    1.4956    4.7785 H   0  0  0  0  0  0  0  0  0  0  0  0
    2.9935    1.4643    5.6874 C   0  0  0  0  0  0  0  0  0  0  0  0
    2.6530    1.4289    6.7108 H   0  0  0  0  0  0  0  0  0  0  0  0
    4.3563    1.4736    5.3923 C   0  0  0  0  0  0  0  0  0  0  0  0
    5.0914    1.4506    6.1809 H   0  0  0  0  0  0  0  0  0  0  0  0
    4.7693    1.5019    4.0778 C   0  0  0  0  0  0  0  0  0  0  0  0
    7.6572    1.4310    0.6110 C   0  0  0  0  0  0  0  0  0  0  0  0
    7.4558    2.2877    1.2568 H   0  0  0  0  0  0  0  0  0  0  0  0
    8.7272    1.3852    0.4301 H   0  0  0  0  0  0  0  0  0  0  0  0
    7.3551    0.5106    1.1133 H   0  0  0  0  0  0  0  0  0  0  0  0
    6.2319    1.5068    3.7553 C   0  0  0  0  0  0  0  0  0  0  0  0
    6.4918    0.5969    3.2114 H   0  0  0  0  0  0  0  0  0  0  0  0
    6.8240    1.5408    4.6651 H   0  0  0  0  0  0  0  0  0  0  0  0
    6.4782    2.3828    3.1501 H   0  0  0  0  0  0  0  0  0  0  0  0
  2  1  1  6  0  0  0
  2  7  1  0  0  0  0
  3  2  1  0  0  0  0
  4 15  1  0  0  0  0
  4 16  1  0  0  0  0
  5 27  1  0  0  0  0
  5  2  1  0  0  0  0
  6 28  2  0  0  0  0
  7 28  1  0  0  0  0
  7 35  1  0  0  0  0
  8  3  1  0  0  0  0
  8 36  1  1  0  0  0
  9 10  1  0  0  0  0
  9  8  1  0  0  0  0
 11 13  1  0  0  0  0
 11  9  2  0  0  0  0
 12 11  1  0  0  0  0
 13 15  2  0  0  0  0
 14 13  1  0  0  0  0
 15  3  1  0  0  0  0
 16  5  1  0  0  0  0
 17 16  2  0  0  0  0
 17 26  1  0  0  0  0
 18 20  2  0  0  0  0
 18 17  1  0  0  0  0
 19 18  1  0  0  0  0
 20 22  1  0  0  0  0
 21 20  1  0  0  0  0
 22 23  1  0  0  0  0
 22 24  2  0  0  0  0
 24 25  1  0  0  0  0
 26 24  1  0  0  0  0
 26 27  2  0  0  0  0
 27  6  1  0  0  0  0
 28 29  1  0  0  0  0
 29 30  1  0  0  0  0
 29 31  2  0  0  0  0
 31 32  1  0  0  0  0
 33 31  1  0  0  0  0
 33 34  1  0  0  0  0
 35 33  2  0  0  0  0
 36 39  1  0  0  0  0
 36 37  1  0  0  0  0
 38 36  1  0  0  0  0
 40 35  1  0  0  0  0
 40 42  1  0  0  0  0
 41 40  1  0  0  0  0
 43 40  1  0  0  0  0
M  END
$$$$
