CSD_code = GUCJOF | q = 0 | S = 0 | Stoichiometry = C15H8BrMnN2O3S | MND = 6
 OpenBabel04212202043D

 31 34  0  0  1  0  0  0  0  0999 V2000
    5.0574    5.3726    0.6578 Br  0  0  0  0  0  0  0  0  0  0  0  0
    2.7749    4.9847    1.5057 Mn  0  0  0  0  0  0  0  0  0  0  0  0
    3.6767    8.9120    3.4909 S   0  0  0  0  0  0  0  0  0  0  0  0
    3.6603    4.9238    3.3578 N   0  0  0  0  0  0  0  0  0  0  0  0
    2.3229    8.1620    1.4154 C   0  0  0  0  0  0  0  0  0  0  0  0
    2.7549    7.0037    1.9998 N   0  0  0  0  0  0  0  0  0  0  0  0
    0.0566    4.5588    2.5020 O   0  0  0  0  0  1  0  0  0  0  0  0
    4.0995    3.8565    4.0215 C   0  0  0  0  0  3  0  0  0  0  0  0
    3.8373    2.8883    3.6144 H   0  0  0  0  0  0  0  0  0  0  0  0
    2.7390    9.3303    2.0873 C   0  0  0  0  0  0  0  0  0  0  0  0
    3.0704    2.1286    0.9164 O   0  0  0  0  0  1  0  0  0  0  0  0
    4.7387    6.3120    5.0064 C   0  0  0  0  0  0  0  0  0  0  0  0
    4.9658    7.3105    5.3464 H   0  0  0  0  0  0  0  0  0  0  0  0
    1.5333    8.2811    0.2710 C   0  0  0  0  0  0  0  0  0  0  0  0
    1.1948    7.3931   -0.2395 H   0  0  0  0  0  0  0  0  0  0  0  0
    1.1991    9.5385   -0.1792 C   0  0  0  0  0  0  0  0  0  0  0  0
    0.5927    9.6399   -1.0657 H   0  0  0  0  0  0  0  0  0  0  0  0
    2.2318    5.1164   -0.1936 C   0  0  0  0  0  2  0  0  0  0  0  0
    1.9499    5.0949   -1.3066 O   0  0  0  0  0  1  0  0  0  0  0  0
    1.6308   10.6847    0.4887 C   0  0  0  0  0  0  0  0  0  0  0  0
    1.3571   11.6570    0.1096 H   0  0  0  0  0  0  0  0  0  0  0  0
    3.4566    7.2367    3.0796 C   0  0  2  0  0  3  0  0  0  0  0  0
    1.1272    4.7398    2.1228 C   0  0  0  0  0  2  0  0  0  0  0  0
    3.9754    6.1390    3.8524 C   0  0  0  0  0  0  0  0  0  0  0  0
    2.9602    3.2407    1.1802 C   0  0  0  0  0  2  0  0  0  0  0  0
    2.4007   10.5933    1.6302 C   0  0  0  0  0  0  0  0  0  0  0  0
    2.7346   11.4728    2.1571 H   0  0  0  0  0  0  0  0  0  0  0  0
    4.8632    3.9433    5.1718 C   0  0  0  0  0  0  0  0  0  0  0  0
    5.1971    3.0418    5.6591 H   0  0  0  0  0  0  0  0  0  0  0  0
    5.1952    5.1951    5.6752 C   0  0  0  0  0  0  0  0  0  0  0  0
    5.7971    5.2930    6.5649 H   0  0  0  0  0  0  0  0  0  0  0  0
  1  2  1  0  0  0  0
  2  6  1  0  0  0  0
  2 23  1  0  0  0  0
  2  4  1  0  0  0  0
  4 24  1  0  0  0  0
  4  8  1  0  0  0  0
  5  6  1  0  0  0  0
  5 10  1  0  0  0  0
  6 22  1  0  0  0  0
  8 28  1  0  0  0  0
  9  8  1  0  0  0  0
 10  3  1  0  0  0  0
 11 25  1  0  0  0  0
 12 13  1  0  0  0  0
 12 30  1  0  0  0  0
 14  5  2  0  0  0  0
 15 14  1  0  0  0  0
 16 14  1  0  0  0  0
 16 20  2  0  0  0  0
 17 16  1  0  0  0  0
 18  2  1  0  0  0  0
 19 18  1  0  0  0  0
 20 26  1  0  0  0  0
 21 20  1  0  0  0  0
 22  3  1  1  0  0  0
 22 24  1  0  0  0  0
 23  7  1  0  0  0  0
 24 12  2  0  0  0  0
 25  2  1  0  0  0  0
 26 10  2  0  0  0  0
 26 27  1  0  0  0  0
 28 29  1  0  0  0  0
 28 30  2  0  0  0  0
 30 31  1  0  0  0  0
M  END
$$$$
