CSD_code = GUCXOR | q = 0 | S = 0 | Stoichiometry = C27H31Br2FeN3 | MND = 5
 OpenBabel04212202043D

 64 68  0  0  1  0  0  0  0  0999 V2000
    3.3302    3.6437    3.3461 Fe  0  0  0  0  0  0  0  0  0  0  0  0
    3.5405    4.7405    1.3689 Br  0  0  0  0  0  0  0  0  0  0  0  0
    2.7137    1.4939    3.5311 Br  0  0  0  0  0  0  0  0  0  0  0  0
    3.7978    5.0573    4.3264 N   0  0  0  0  0  0  0  0  0  0  0  0
    2.8589    5.9791    4.6723 C   0  0  0  0  0  0  0  0  0  0  0  0
    3.2197    7.1814    5.2724 C   0  0  0  0  0  0  0  0  0  0  0  0
    2.4607    7.9006    5.5329 H   0  0  0  0  0  0  0  0  0  0  0  0
    4.5600    7.4430    5.5138 C   0  0  0  0  0  0  0  0  0  0  0  0
    4.8567    8.3715    5.9752 H   0  0  0  0  0  0  0  0  0  0  0  0
    5.5179    6.5111    5.1436 C   0  0  0  0  0  0  0  0  0  0  0  0
    6.5663    6.7032    5.3030 H   0  0  0  0  0  0  0  0  0  0  0  0
    5.1141    5.3214    4.5458 C   0  0  0  0  0  0  0  0  0  0  0  0
    1.5367    5.5121    4.3687 C   0  0  0  0  0  0  0  0  0  0  0  0
    1.5010    4.3494    3.7817 N   0  0  0  0  0  0  0  0  0  0  0  0
    0.3282    6.3099    4.7436 C   0  0  0  0  0  0  0  0  0  0  0  0
    0.3448    7.2622    4.2139 H   0  0  0  0  0  0  0  0  0  0  0  0
    0.3233    6.5180    5.8127 H   0  0  0  0  0  0  0  0  0  0  0  0
   -0.5806    5.7753    4.4790 H   0  0  0  0  0  0  0  0  0  0  0  0
    5.9408    4.2283    4.1214 C   0  0  2  0  0  3  0  0  0  0  0  0
    5.2875    3.2450    3.5702 N   0  0  0  0  0  0  0  0  0  0  0  0
    7.4202    4.2444    4.3425 C   0  0  0  0  0  0  0  0  0  0  0  0
    7.6486    4.3947    5.3967 H   0  0  0  0  0  0  0  0  0  0  0  0
    7.8605    5.0677    3.7805 H   0  0  0  0  0  0  0  0  0  0  0  0
    7.8672    3.3113    4.0087 H   0  0  0  0  0  0  0  0  0  0  0  0
    0.2776    3.6562    3.6694 C   0  0  0  0  0  0  0  0  0  0  0  0
   -0.1952    2.9815    4.8041 C   0  0  0  0  0  0  0  0  0  0  0  0
   -1.3619    2.2442    4.7059 C   0  0  0  0  0  0  0  0  0  0  0  0
   -1.7204    1.7158    5.5776 H   0  0  0  0  0  0  0  0  0  0  0  0
   -2.0757    2.1655    3.5184 C   0  0  0  0  0  0  0  0  0  0  0  0
   -1.5959    2.8520    2.4145 C   0  0  0  0  0  0  0  0  0  0  0  0
   -2.1413    2.8083    1.4825 H   0  0  0  0  0  0  0  0  0  0  0  0
   -0.4271    3.5968    2.4655 C   0  0  0  0  0  0  0  0  0  0  0  0
    0.5476    3.0529    6.1053 C   0  0  0  0  0  0  0  0  0  0  0  0
    0.2600    2.2246    6.7470 H   0  0  0  0  0  0  0  0  0  0  0  0
    0.3246    3.9847    6.6273 H   0  0  0  0  0  0  0  0  0  0  0  0
    1.6248    3.0090    5.9421 H   0  0  0  0  0  0  0  0  0  0  0  0
   -3.3213    1.3380    3.4306 C   0  0  0  0  0  0  0  0  0  0  0  0
   -3.8701    1.3613    4.3696 H   0  0  0  0  0  0  0  0  0  0  0  0
   -3.0597    0.3007    3.2200 H   0  0  0  0  0  0  0  0  0  0  0  0
   -3.9687    1.6922    2.6321 H   0  0  0  0  0  0  0  0  0  0  0  0
    0.0594    4.3150    1.2473 C   0  0  0  0  0  0  0  0  0  0  0  0
   -0.7569    4.4797    0.5483 H   0  0  0  0  0  0  0  0  0  0  0  0
    0.8189    3.7179    0.7431 H   0  0  0  0  0  0  0  0  0  0  0  0
    0.5085    5.2730    1.4993 H   0  0  0  0  0  0  0  0  0  0  0  0
    5.9295    2.0080    3.3527 C   0  0  0  0  0  0  0  0  0  0  0  0
    6.3631    1.6160    2.0848 C   0  0  0  0  0  0  0  0  0  0  0  0
    6.9354    0.3614    1.9356 C   0  0  0  0  0  0  0  0  0  0  0  0
    7.2717    0.0598    0.9538 H   0  0  0  0  0  0  0  0  0  0  0  0
    7.0820   -0.5085    3.0040 C   0  0  0  0  0  0  0  0  0  0  0  0
    6.6508   -0.0942    4.2563 C   0  0  0  0  0  0  0  0  0  0  0  0
    6.7578   -0.7585    5.1018 H   0  0  0  0  0  0  0  0  0  0  0  0
    6.0808    1.1512    4.4525 C   0  0  0  0  0  0  0  0  0  0  0  0
    6.2170    2.5198    0.9023 C   0  0  0  0  0  0  0  0  0  0  0  0
    6.3719    3.5619    1.1726 H   0  0  0  0  0  0  0  0  0  0  0  0
    5.2119    2.4325    0.4903 H   0  0  0  0  0  0  0  0  0  0  0  0
    6.9243    2.2474    0.1227 H   0  0  0  0  0  0  0  0  0  0  0  0
    7.6697   -1.8731    2.8130 C   0  0  0  0  0  0  0  0  0  0  0  0
    8.2456   -2.1735    3.6857 H   0  0  0  0  0  0  0  0  0  0  0  0
    8.3125   -1.9013    1.9365 H   0  0  0  0  0  0  0  0  0  0  0  0
    6.8706   -2.6011    2.6712 H   0  0  0  0  0  0  0  0  0  0  0  0
    5.6324    1.5723    5.8204 C   0  0  0  0  0  0  0  0  0  0  0  0
    4.6795    2.1003    5.7720 H   0  0  0  0  0  0  0  0  0  0  0  0
    6.3631    2.2401    6.2789 H   0  0  0  0  0  0  0  0  0  0  0  0
    5.5148    0.7026    6.4610 H   0  0  0  0  0  0  0  0  0  0  0  0
  1  3  1  0  0  0  0
  1 20  1  0  0  0  0
  1 14  1  0  0  0  0
  1  4  1  0  0  0  0
  2  1  1  0  0  0  0
  4 12  1  0  0  0  0
  4  5  1  0  0  0  0
  5  6  1  0  0  0  0
  6  8  2  0  0  0  0
  6  7  1  0  0  0  0
  8  9  1  0  0  0  0
 10 11  1  0  0  0  0
 10  8  1  0  0  0  0
 12 10  2  0  0  0  0
 13  5  2  0  0  0  0
 13 15  1  0  0  0  0
 14 13  1  0  0  0  0
 15 17  1  0  0  0  0
 16 15  1  0  0  0  0
 18 15  1  0  0  0  0
 19 21  1  1  0  0  0
 19 12  1  0  0  0  0
 20 19  1  0  0  0  0
 21 22  1  0  0  0  0
 23 21  1  0  0  0  0
 24 21  1  0  0  0  0
 25 14  1  0  0  0  0
 25 26  1  0  0  0  0
 26 33  1  0  0  0  0
 27 26  2  0  0  0  0
 27 28  1  0  0  0  0
 29 27  1  0  0  0  0
 30 32  1  0  0  0  0
 30 29  2  0  0  0  0
 31 30  1  0  0  0  0
 32 25  2  0  0  0  0
 33 35  1  0  0  0  0
 33 34  1  0  0  0  0
 36 33  1  0  0  0  0
 37 29  1  0  0  0  0
 37 38  1  0  0  0  0
 39 37  1  0  0  0  0
 40 37  1  0  0  0  0
 41 44  1  0  0  0  0
 41 32  1  0  0  0  0
 42 41  1  0  0  0  0
 43 41  1  0  0  0  0
 45 20  1  0  0  0  0
 45 52  1  0  0  0  0
 46 45  2  0  0  0  0
 47 46  1  0  0  0  0
 47 49  2  0  0  0  0
 48 47  1  0  0  0  0
 49 50  1  0  0  0  0
 50 52  2  0  0  0  0
 50 51  1  0  0  0  0
 52 61  1  0  0  0  0
 53 54  1  0  0  0  0
 53 46  1  0  0  0  0
 55 53  1  0  0  0  0
 56 53  1  0  0  0  0
 57 49  1  0  0  0  0
 57 58  1  0  0  0  0
 59 57  1  0  0  0  0
 60 57  1  0  0  0  0
 61 63  1  0  0  0  0
 61 64  1  0  0  0  0
 62 61  1  0  0  0  0
M  END
$$$$
