CSD_code = GUDCEN | q = 0 | S = 0 | Stoichiometry = C16H11ClN2Pt | MND = 4
 OpenBabel04212202043D

 31 35  0  0  0  0  0  0  0  0999 V2000
    5.0752    7.7495    6.9110 Pt  0  0  2  0  0  0  0  0  0  0  0  0
    7.0153    6.4965    7.0862 Cl  0  0  0  0  0  0  0  0  0  0  0  0
    5.7144    9.1601    5.6230 N   0  0  0  0  0  0  0  0  0  0  0  0
    3.8915    6.6909    8.1502 N   0  0  0  0  0  0  0  0  0  0  0  0
    3.4667    8.7877    6.7652 C   0  0  0  0  0  0  0  0  0  0  0  0
    3.4740    9.9099    5.9359 C   0  0  0  0  0  0  0  0  0  0  0  0
    2.3029   10.6573    5.8350 C   0  0  0  0  0  0  0  0  0  0  0  0
    2.2459   11.5368    5.2102 H   0  0  0  0  0  0  0  0  0  0  0  0
    1.1835   10.2593    6.5559 C   0  0  0  0  0  0  0  0  0  0  0  0
    0.2781   10.8426    6.4730 H   0  0  0  0  0  0  0  0  0  0  0  0
    1.1834    9.1398    7.3794 C   0  0  0  0  0  0  0  0  0  0  0  0
    0.2834    8.8766    7.9160 H   0  0  0  0  0  0  0  0  0  0  0  0
    2.3469    8.3825    7.4925 C   0  0  0  0  0  0  0  0  0  0  0  0
    4.7738   10.0981    5.2967 C   0  0  0  0  0  0  0  0  0  0  0  0
    5.0888   11.1292    4.4167 C   0  0  0  0  0  0  0  0  0  0  0  0
    4.3353   11.8604    4.1706 H   0  0  0  0  0  0  0  0  0  0  0  0
    6.3554   11.2091    3.8677 C   0  0  0  0  0  0  0  0  0  0  0  0
    6.6072   12.0061    3.1846 H   0  0  0  0  0  0  0  0  0  0  0  0
    7.2952   10.2471    4.2105 C   0  0  0  0  0  0  0  0  0  0  0  0
    8.2938   10.2709    3.8059 H   0  0  0  0  0  0  0  0  0  0  0  0
    6.9297    9.2437    5.0901 C   0  0  0  0  0  3  0  0  0  0  0  0
    7.6305    8.4721    5.3857 H   0  0  0  0  0  0  0  0  0  0  0  0
    2.6202    7.1799    8.2753 C   0  0  0  0  0  0  0  0  0  0  0  0
    1.7014    6.5392    9.1010 C   0  0  0  0  0  0  0  0  0  0  0  0
    0.7033    6.9383    9.1882 H   0  0  0  0  0  0  0  0  0  0  0  0
    2.0708    5.4042    9.7994 C   0  0  0  0  0  0  0  0  0  0  0  0
    1.3635    4.9018   10.4417 H   0  0  0  0  0  0  0  0  0  0  0  0
    3.3655    4.9243    9.6595 C   0  0  0  0  0  0  0  0  0  0  0  0
    3.6958    4.0433   10.1852 H   0  0  0  0  0  0  0  0  0  0  0  0
    4.2388    5.5995    8.8255 C   0  0  0  0  0  0  0  0  0  0  0  0
    5.2585    5.2608    8.6863 H   0  0  0  0  0  0  0  0  0  0  0  0
  1  2  1  6  0  0  0
  1  4  1  0  0  0  0
  3  1  1  0  0  0  0
  4 23  1  0  0  0  0
  4 30  1  0  0  0  0
  5  1  2  0  0  0  0
  5 13  1  0  0  0  0
  6  5  1  0  0  0  0
  7  6  2  0  0  0  0
  7  9  1  0  0  0  0
  8  7  1  0  0  0  0
  9 11  2  0  0  0  0
 10  9  1  0  0  0  0
 11 13  1  0  0  0  0
 11 12  1  0  0  0  0
 13 23  2  0  0  0  0
 14  3  1  0  0  0  0
 14  6  1  0  0  0  0
 15 14  2  0  0  0  0
 16 15  1  0  0  0  0
 17 19  2  0  0  0  0
 17 15  1  0  0  0  0
 18 17  1  0  0  0  0
 19 21  1  0  0  0  0
 20 19  1  0  0  0  0
 21 22  1  0  0  0  0
 21  3  1  0  0  0  0
 23 24  1  0  0  0  0
 24 25  1  0  0  0  0
 24 26  2  0  0  0  0
 26 27  1  0  0  0  0
 28 26  1  0  0  0  0
 28 29  1  0  0  0  0
 30 28  2  0  0  0  0
 31 30  1  0  0  0  0
M  END
$$$$
