CSD_code = GUDTEE | q = 0 | S = 0 | Stoichiometry = C30H28Cl2N2Zr | MND = 6
 OpenBabel04212202043D

 63 66  0  0  1  0  0  0  0  0999 V2000
   -8.1342    2.8029   -2.0410 Zr  0  0  0  0  0  0  0  0  0  0  0  0
   -8.9740    2.8504   -4.2430 Cl  0  0  0  0  0 15  0  0  0  0  0  0
   -9.9164    1.3181   -1.6148 Cl  0  0  0  0  0 15  0  0  0  0  0  0
   -8.8087    4.3422   -0.4541 N   0  0  0  0  0  4  0  0  0  0  0  0
   -6.9537    1.0351   -2.6017 N   0  0  0  0  0  4  0  0  0  0  0  0
   -9.0235    4.9358   -1.7705 C   0  0  0  0  0  0  0  0  0  0  0  0
   -7.8908    5.1830   -2.6175 C   0  0  0  0  0  0  0  0  0  0  0  0
   -6.5230    4.8273   -2.4909 C   0  0  0  0  0  0  0  0  0  0  0  0
   -6.0801    4.5479   -1.5330 H   0  0  0  0  0  0  0  0  0  0  0  0
   -5.6844    5.0551   -3.5735 C   0  0  0  0  0  0  0  0  0  0  0  0
   -4.6333    4.8179   -3.4830 H   0  0  0  0  0  0  0  0  0  0  0  0
   -6.1586    5.6143   -4.7593 C   0  0  0  0  0  0  0  0  0  0  0  0
   -5.4742    5.7647   -5.5800 H   0  0  0  0  0  0  0  0  0  0  0  0
   -7.4815    6.0019   -4.8854 C   0  0  0  0  0  0  0  0  0  0  0  0
   -7.8336    6.4519   -5.8011 H   0  0  0  0  0  0  0  0  0  0  0  0
   -8.3558    5.7890   -3.8313 C   0  0  0  0  0  0  0  0  0  0  0  0
   -9.7655    5.9992   -3.6884 C   0  0  0  0  0  0  0  0  0  0  0  0
  -10.6818    6.5642   -4.5668 C   0  0  0  0  0  3  0  0  0  0  0  0
  -10.3515    6.9337   -5.5262 H   0  0  0  0  0  0  0  0  0  0  0  0
  -12.0060    6.6459   -4.1967 C   0  0  0  0  0  0  0  0  0  0  0  0
  -12.7316    7.0845   -4.8652 H   0  0  0  0  0  0  0  0  0  0  0  0
  -12.4195    6.1615   -2.9557 C   0  0  0  0  0  0  0  0  0  0  0  0
  -13.4623    6.2370   -2.6823 H   0  0  0  0  0  0  0  0  0  0  0  0
  -11.5354    5.5847   -2.0709 C   0  0  0  0  0  0  0  0  0  0  0  0
  -11.9113    5.2219   -1.1267 H   0  0  0  0  0  0  0  0  0  0  0  0
  -10.1801    5.4861   -2.4162 C   0  0  0  0  0  0  0  0  0  0  0  0
   -8.0803    5.2660    0.4328 C   0  0  0  0  0  0  0  0  0  0  0  0
   -8.7101    6.1292    0.6839 H   0  0  0  0  0  0  0  0  0  0  0  0
   -7.1775    5.6396   -0.0486 H   0  0  0  0  0  0  0  0  0  0  0  0
   -7.8015    4.7513    1.3536 H   0  0  0  0  0  0  0  0  0  0  0  0
  -10.0395    3.9334    0.2320 C   0  0  0  0  0  0  0  0  0  0  0  0
  -10.5829    4.8043    0.6202 H   0  0  0  0  0  0  0  0  0  0  0  0
   -9.7780    3.2902    1.0770 H   0  0  0  0  0  0  0  0  0  0  0  0
  -10.6886    3.3754   -0.4481 H   0  0  0  0  0  0  0  0  0  0  0  0
   -6.0001    1.7826   -1.7886 C   0  0  0  0  0  0  0  0  0  0  0  0
   -4.6658    2.2189   -2.0685 C   0  0  0  0  0  0  0  0  0  0  0  0
   -3.8236    2.1481   -3.1907 C   0  0  0  0  0  0  0  0  0  0  0  0
   -4.1262    1.6617   -4.1037 H   0  0  0  0  0  0  0  0  0  0  0  0
   -2.5681    2.7092   -3.1371 C   0  0  0  0  0  0  0  0  0  0  0  0
   -1.9276    2.6453   -4.0052 H   0  0  0  0  0  0  0  0  0  0  0  0
   -2.0994    3.3622   -1.9952 C   0  0  0  0  0  0  0  0  0  0  0  0
   -1.1109    3.7962   -1.9971 H   0  0  0  0  0  0  0  0  0  0  0  0
   -2.8928    3.4434   -0.8743 C   0  0  0  0  0  0  0  0  0  0  0  0
   -2.5401    3.9391    0.0182 H   0  0  0  0  0  0  0  0  0  0  0  0
   -4.1610    2.8719   -0.8961 C   0  0  0  0  0  0  0  0  0  0  0  0
   -5.1518    2.7917    0.1297 C   0  0  0  0  0  0  0  0  0  0  0  0
   -5.1315    3.2014    1.4571 C   0  0  0  0  0  0  0  0  0  0  0  0
   -4.2708    3.7226    1.8488 H   0  0  0  0  0  0  0  0  0  0  0  0
   -6.2044    2.9082    2.2734 C   0  0  0  0  0  0  0  0  0  0  0  0
   -6.1918    3.2021    3.3120 H   0  0  0  0  0  0  0  0  0  0  0  0
   -7.2993    2.1968    1.7728 C   0  0  0  0  0  0  0  0  0  0  0  0
   -8.1021    1.9328    2.4481 H   0  0  0  0  0  0  0  0  0  0  0  0
   -7.3703    1.7919    0.4528 C   0  0  0  0  0  0  0  0  0  0  0  0
   -8.2145    1.1779    0.1435 H   0  0  0  0  0  0  0  0  0  0  0  0
   -6.2859    2.0935   -0.4128 C   0  0  2  0  0  3  0  0  0  0  0  0
   -6.6275    0.9868   -4.0290 C   0  0  0  0  0  0  0  0  0  0  0  0
   -5.7883    0.3042   -4.2159 H   0  0  0  0  0  0  0  0  0  0  0  0
   -6.3869    1.9902   -4.3984 H   0  0  0  0  0  0  0  0  0  0  0  0
   -7.5011    0.6187   -4.5753 H   0  0  0  0  0  0  0  0  0  0  0  0
   -7.1642   -0.3413   -2.1258 C   0  0  0  0  0  0  0  0  0  0  0  0
   -6.3026   -0.9715   -2.3817 H   0  0  0  0  0  0  0  0  0  0  0  0
   -8.0611   -0.7524   -2.5952 H   0  0  0  0  0  0  0  0  0  0  0  0
   -7.2911   -0.3626   -1.0438 H   0  0  0  0  0  0  0  0  0  0  0  0
  1  4  1  0  0  0  0
  4 31  1  0  0  0  0
  4 27  1  0  0  0  0
  5 60  1  0  0  0  0
  5  1  1  0  0  0  0
  5 35  1  0  0  0  0
  6  4  1  0  0  0  0
  7  8  1  0  0  0  0
  7  6  2  0  0  0  0
  8  9  1  0  0  0  0
 10 11  1  0  0  0  0
 10  8  2  0  0  0  0
 12 10  1  0  0  0  0
 13 12  1  0  0  0  0
 14 12  2  0  0  0  0
 14 16  1  0  0  0  0
 15 14  1  0  0  0  0
 16 17  2  0  0  0  0
 16  7  1  0  0  0  0
 17 26  1  0  0  0  0
 18 20  1  0  0  0  0
 18 17  1  0  0  0  0
 19 18  1  0  0  0  0
 20 22  2  0  0  0  0
 21 20  1  0  0  0  0
 22 23  1  0  0  0  0
 22 24  1  0  0  0  0
 24 25  1  0  0  0  0
 26 24  2  0  0  0  0
 26  6  1  0  0  0  0
 27 28  1  0  0  0  0
 27 30  1  0  0  0  0
 29 27  1  0  0  0  0
 31 32  1  0  0  0  0
 31 33  1  0  0  0  0
 34 31  1  0  0  0  0
 36 35  2  0  0  0  0
 36 45  1  0  0  0  0
 37 39  2  0  0  0  0
 37 36  1  0  0  0  0
 38 37  1  0  0  0  0
 39 41  1  0  0  0  0
 40 39  1  0  0  0  0
 41 43  2  0  0  0  0
 42 41  1  0  0  0  0
 43 44  1  0  0  0  0
 45 43  1  0  0  0  0
 45 46  2  0  0  0  0
 46 47  1  0  0  0  0
 47 48  1  0  0  0  0
 47 49  2  0  0  0  0
 49 50  1  0  0  0  0
 51 49  1  0  0  0  0
 51 52  1  0  0  0  0
 53 51  2  0  0  0  0
 54 53  1  0  0  0  0
 55 35  1  1  0  0  0
 55 46  1  0  0  0  0
 55 53  1  0  0  0  0
 56  5  1  0  0  0  0
 57 56  1  0  0  0  0
 58 56  1  0  0  0  0
 59 56  1  0  0  0  0
 60 63  1  0  0  0  0
 61 60  1  0  0  0  0
 62 60  1  0  0  0  0
M  END
$$$$
