CSD_code = GUFBEP | q = 0 | S = 0 | Stoichiometry = C32H29ClCuN2P | MND = 4
 OpenBabel04212202043D

 66 71  0  0  1  0  0  0  0  0999 V2000
    4.5789    9.4105    9.3549 Cu  0  0  1  0  0  0  0  0  0  0  0  0
    5.2688    8.0678   10.9484 Cl  0  0  0  0  0  0  0  0  0  0  0  0
    2.7982   10.2225    9.8845 N   0  0  0  0  0  0  0  0  0  0  0  0
    1.7382    9.5817   10.3689 C   0  0  2  0  0  3  0  0  0  0  0  0
    0.7019   10.2793   10.9771 C   0  0  0  0  0  0  0  0  0  0  0  0
   -0.1575    9.7479   11.3545 H   0  0  0  0  0  0  0  0  0  0  0  0
    0.7816   11.6642   11.0860 C   0  0  0  0  0  0  0  0  0  0  0  0
   -0.0190   12.2189   11.5527 H   0  0  0  0  0  0  0  0  0  0  0  0
    1.8954   12.3177   10.6007 C   0  0  0  0  0  0  0  0  0  0  0  0
    2.0032   13.3879   10.6862 H   0  0  0  0  0  0  0  0  0  0  0  0
    2.9080   11.5591   10.0059 C   0  0  0  0  0  0  0  0  0  0  0  0
    1.7411    8.0997   10.2181 C   0  0  0  0  0  0  0  0  0  0  0  0
    2.6155    7.6978   10.7329 H   0  0  0  0  0  0  0  0  0  0  0  0
    1.8438    7.8299    9.1664 H   0  0  0  0  0  0  0  0  0  0  0  0
    0.8390    7.6530   10.6249 H   0  0  0  0  0  0  0  0  0  0  0  0
    4.1333   12.1237    9.5149 C   0  0  0  0  0  3  0  0  0  0  0  0
    4.2226   13.2074    9.4528 H   0  0  0  0  0  0  0  0  0  0  0  0
    5.1011   11.3200    9.2261 N   0  0  0  0  0  0  0  0  0  0  0  0
    6.3226   11.7152    8.7148 C   0  0  0  0  0  0  0  0  0  0  0  0
    6.4932   12.8284    7.8891 C   0  0  0  0  0  0  0  0  0  0  0  0
    5.6404   13.4345    7.6175 H   0  0  0  0  0  0  0  0  0  0  0  0
    7.7414   13.1247    7.3799 C   0  0  0  0  0  0  0  0  0  0  0  0
    7.8596   13.9801    6.7293 H   0  0  0  0  0  0  0  0  0  0  0  0
    8.8488   12.3406    7.6859 C   0  0  0  0  0  0  0  0  0  0  0  0
    8.6717   11.2300    8.5056 C   0  0  0  0  0  0  0  0  0  0  0  0
    9.5179   10.6024    8.7439 H   0  0  0  0  0  0  0  0  0  0  0  0
    7.4277   10.9095    9.0029 C   0  0  0  0  0  0  0  0  0  0  0  0
    7.2831   10.0405    9.6292 H   0  0  0  0  0  0  0  0  0  0  0  0
   10.2028   12.6903    7.1506 C   0  0  0  0  0  0  0  0  0  0  0  0
   10.8344   11.8073    7.0893 H   0  0  0  0  0  0  0  0  0  0  0  0
   10.6900   13.4073    7.8127 H   0  0  0  0  0  0  0  0  0  0  0  0
   10.1276   13.1448    6.1649 H   0  0  0  0  0  0  0  0  0  0  0  0
    4.8514    8.3539    7.3797 P   0  0  0  0  0  4  0  0  0  0  0  0
    4.2048    6.6534    7.2856 C   0  0  0  0  0  0  0  0  0  0  0  0
    4.3283    5.8785    8.4377 C   0  0  0  0  0  0  0  0  0  0  0  0
    4.7765    6.3114    9.3242 H   0  0  0  0  0  0  0  0  0  0  0  0
    3.8592    4.5775    8.4463 C   0  0  0  0  0  0  0  0  0  0  0  0
    3.9562    3.9797    9.3404 H   0  0  0  0  0  0  0  0  0  0  0  0
    3.2560    4.0489    7.3164 C   0  0  0  0  0  0  0  0  0  0  0  0
    2.8835    3.0349    7.3248 H   0  0  0  0  0  0  0  0  0  0  0  0
    3.1173    4.8250    6.1773 C   0  0  0  0  0  0  0  0  0  0  0  0
    2.6390    4.4155    5.2990 H   0  0  0  0  0  0  0  0  0  0  0  0
    3.5876    6.1260    6.1564 C   0  0  0  0  0  0  0  0  0  0  0  0
    3.4721    6.7273    5.2657 H   0  0  0  0  0  0  0  0  0  0  0  0
    4.0468    9.1807    5.9694 C   0  0  0  0  0  0  0  0  0  0  0  0
    2.9523    9.9882    6.2621 C   0  0  0  0  0  0  0  0  0  0  0  0
    2.6496   10.1013    7.2962 H   0  0  0  0  0  0  0  0  0  0  0  0
    2.2713   10.6377    5.2487 C   0  0  0  0  0  0  0  0  0  0  0  0
    1.4226   11.2644    5.4819 H   0  0  0  0  0  0  0  0  0  0  0  0
    2.6831   10.4867    3.9346 C   0  0  0  0  0  0  0  0  0  0  0  0
    2.1563   10.9958    3.1410 H   0  0  0  0  0  0  0  0  0  0  0  0
    3.7748    9.6858    3.6374 C   0  0  0  0  0  0  0  0  0  0  0  0
    4.0942    9.5685    2.6119 H   0  0  0  0  0  0  0  0  0  0  0  0
    4.4570    9.0327    4.6476 C   0  0  0  0  0  0  0  0  0  0  0  0
    5.3096    8.4098    4.4145 H   0  0  0  0  0  0  0  0  0  0  0  0
    6.5699    8.1789    6.8184 C   0  0  0  0  0  0  0  0  0  0  0  0
    7.1989    9.2784    6.2363 C   0  0  0  0  0  0  0  0  0  0  0  0
    6.6364   10.1853    6.0570 H   0  0  0  0  0  0  0  0  0  0  0  0
    8.5334    9.2087    5.8871 C   0  0  0  0  0  0  0  0  0  0  0  0
    9.0112   10.0605    5.4253 H   0  0  0  0  0  0  0  0  0  0  0  0
    9.2574    8.0539    6.1373 C   0  0  0  0  0  0  0  0  0  0  0  0
   10.3021    8.0018    5.8672 H   0  0  0  0  0  0  0  0  0  0  0  0
    8.6429    6.9694    6.7420 C   0  0  0  0  0  0  0  0  0  0  0  0
    9.2099    6.0735    6.9489 H   0  0  0  0  0  0  0  0  0  0  0  0
    7.3049    7.0285    7.0868 C   0  0  0  0  0  0  0  0  0  0  0  0
    6.8269    6.1860    7.5658 H   0  0  0  0  0  0  0  0  0  0  0  0
  1  3  1  0  0  0  0
  1  2  1  1  0  0  0
  3 11  1  0  0  0  0
  3  4  1  0  0  0  0
  4 12  1  1  0  0  0
  4  5  1  0  0  0  0
  5  7  2  0  0  0  0
  5  6  1  0  0  0  0
  7  8  1  0  0  0  0
  9 10  1  0  0  0  0
  9  7  1  0  0  0  0
 11  9  2  0  0  0  0
 12 15  1  0  0  0  0
 12 13  1  0  0  0  0
 14 12  1  0  0  0  0
 16 11  1  0  0  0  0
 17 16  1  0  0  0  0
 18  1  1  0  0  0  0
 18 16  1  0  0  0  0
 19 27  1  0  0  0  0
 19 18  1  0  0  0  0
 20 19  2  0  0  0  0
 21 20  1  0  0  0  0
 22 24  2  0  0  0  0
 22 20  1  0  0  0  0
 23 22  1  0  0  0  0
 24 25  1  0  0  0  0
 25 26  1  0  0  0  0
 25 27  2  0  0  0  0
 27 28  1  0  0  0  0
 29 24  1  0  0  0  0
 29 31  1  0  0  0  0
 30 29  1  0  0  0  0
 32 29  1  0  0  0  0
 33  1  1  0  0  0  0
 34 33  1  0  0  0  0
 34 35  1  0  0  0  0
 35 37  2  0  0  0  0
 35 36  1  0  0  0  0
 37 38  1  0  0  0  0
 39 40  1  0  0  0  0
 39 37  1  0  0  0  0
 41 39  2  0  0  0  0
 42 41  1  0  0  0  0
 43 41  1  0  0  0  0
 43 34  2  0  0  0  0
 44 43  1  0  0  0  0
 45 46  1  0  0  0  0
 45 33  1  0  0  0  0
 46 47  1  0  0  0  0
 48 49  1  0  0  0  0
 48 46  2  0  0  0  0
 50 48  1  0  0  0  0
 51 50  1  0  0  0  0
 52 50  2  0  0  0  0
 52 54  1  0  0  0  0
 53 52  1  0  0  0  0
 54 45  2  0  0  0  0
 55 54  1  0  0  0  0
 56 65  1  0  0  0  0
 56 33  1  0  0  0  0
 57 56  2  0  0  0  0
 58 57  1  0  0  0  0
 59 61  2  0  0  0  0
 59 57  1  0  0  0  0
 60 59  1  0  0  0  0
 61 63  1  0  0  0  0
 62 61  1  0  0  0  0
 63 64  1  0  0  0  0
 63 65  2  0  0  0  0
 65 66  1  0  0  0  0
M  END
$$$$
