CSD_code = GUFQUT | q = -1 | S = 0 | Stoichiometry = C18H15Cl3PPd(1-) | MND = 4
 OpenBabel04212202043D

 38 40  0  0  0  0  0  0  0  0999 V2000
    1.0677    4.2327    3.7013 Pd  0  0  0  0  0  0  0  0  0  0  0  0
   -0.1457    2.3450    3.1195 Cl  0  0  0  0  0  0  0  0  0  0  0  0
    2.2195    6.0592    4.4443 Cl  0  0  0  0  0  0  0  0  0  0  0  0
    1.6076    4.6541    1.5515 Cl  0  0  0  0  0  0  0  0  0  0  0  0
    0.4074    3.6891    5.7532 P   0  0  0  0  0  4  0  0  0  0  0  0
   -1.3707    4.0031    5.9969 C   0  0  0  0  0  0  0  0  0  0  0  0
   -2.0829    4.5068    4.9129 C   0  0  0  0  0  0  0  0  0  0  0  0
   -3.4293    4.7979    5.0409 C   0  0  0  0  0  0  0  0  0  0  0  0
   -4.0677    4.5975    6.2540 C   0  0  0  0  0  0  0  0  0  0  0  0
   -3.3554    4.1240    7.3448 C   0  0  0  0  0  0  0  0  0  0  0  0
   -2.0088    3.8341    7.2224 C   0  0  0  0  0  0  0  0  0  0  0  0
    1.0536    4.4474    7.2821 C   0  0  0  0  0  0  0  0  0  0  0  0
    0.8257    5.8122    7.4417 C   0  0  0  0  0  0  0  0  0  0  0  0
    1.3213    6.4760    8.5462 C   0  0  0  0  0  0  0  0  0  0  0  0
    2.0541    5.7852    9.4991 C   0  0  0  0  0  0  0  0  0  0  0  0
    2.2937    4.4312    9.3389 C   0  0  0  0  0  0  0  0  0  0  0  0
    1.8004    3.7619    8.2321 C   0  0  0  0  0  0  0  0  0  0  0  0
    0.6956    1.9179    6.0613 C   0  0  0  0  0  0  0  0  0  0  0  0
   -0.1790    1.0351    6.6762 C   0  0  0  0  0  0  0  0  0  0  0  0
    0.1800   -0.2945    6.8251 C   0  0  0  0  0  0  0  0  0  0  0  0
    1.4059   -0.7447    6.3672 C   0  0  0  0  0  0  0  0  0  0  0  0
    2.2786    0.1325    5.7401 C   0  0  0  0  0  0  0  0  0  0  0  0
    1.9217    1.4566    5.5831 C   0  0  0  0  0  0  0  0  0  0  0  0
   -1.5617    4.6677    3.9646 H   0  0  0  0  0  0  0  0  0  0  0  0
   -3.9818    5.1837    4.1964 H   0  0  0  0  0  0  0  0  0  0  0  0
   -5.1210    4.8205    6.3547 H   0  0  0  0  0  0  0  0  0  0  0  0
   -3.8519    3.9861    8.2959 H   0  0  0  0  0  0  0  0  0  0  0  0
   -1.4438    3.4921    8.0797 H   0  0  0  0  0  0  0  0  0  0  0  0
    0.2738    6.3435    6.6779 H   0  0  0  0  0  0  0  0  0  0  0  0
    1.1461    7.5360    8.6631 H   0  0  0  0  0  0  0  0  0  0  0  0
    2.4465    6.3046   10.3627 H   0  0  0  0  0  0  0  0  0  0  0  0
    2.8723    3.8927   10.0775 H   0  0  0  0  0  0  0  0  0  0  0  0
    1.9961    2.7054    8.1062 H   0  0  0  0  0  0  0  0  0  0  0  0
   -1.1462    1.3762    7.0151 H   0  0  0  0  0  0  0  0  0  0  0  0
   -0.5069   -0.9853    7.2952 H   0  0  0  0  0  0  0  0  0  0  0  0
    1.6769   -1.7850    6.4834 H   0  0  0  0  0  0  0  0  0  0  0  0
    3.2267   -0.2237    5.3631 H   0  0  0  0  0  0  0  0  0  0  0  0
    2.5755    2.1574    5.0573 H   0  0  0  0  0  0  0  0  0  0  0  0
  1  3  1  0  0  0  0
  1  5  1  0  0  0  0
  2  1  1  0  0  0  0
  4  1  1  0  0  0  0
  5  6  1  0  0  0  0
  5 18  1  0  0  0  0
  5 12  1  0  0  0  0
  6 11  1  0  0  0  0
  7  8  1  0  0  0  0
  7  6  2  0  0  0  0
  8  9  2  0  0  0  0
  9 26  1  0  0  0  0
  9 10  1  0  0  0  0
 10 27  1  0  0  0  0
 11 10  2  0  0  0  0
 11 28  1  0  0  0  0
 12 13  2  0  0  0  0
 12 17  1  0  0  0  0
 13 14  1  0  0  0  0
 14 30  1  0  0  0  0
 14 15  2  0  0  0  0
 15 31  1  0  0  0  0
 16 15  1  0  0  0  0
 16 32  1  0  0  0  0
 17 16  2  0  0  0  0
 18 19  1  0  0  0  0
 19 20  2  0  0  0  0
 19 34  1  0  0  0  0
 20 35  1  0  0  0  0
 21 36  1  0  0  0  0
 21 20  1  0  0  0  0
 22 21  2  0  0  0  0
 23 22  1  0  0  0  0
 23 18  2  0  0  0  0
 24  7  1  0  0  0  0
 25  8  1  0  0  0  0
 29 13  1  0  0  0  0
 33 17  1  0  0  0  0
 37 22  1  0  0  0  0
 38 23  1  0  0  0  0
M  END
$$$$
