CSD_code = GUFVAE | q = 1 | S = 0 | Stoichiometry = C17H17BClN9OReS(1+) | MND = 6
 OpenBabel04212202043D

 48 54  0  0  1  0  0  0  0  0999 V2000
    0.9095    1.5552    3.5590 Re  0  0  0  0  0  0  0  0  0  0  0  0
    0.4549    1.2630    6.0268 S   0  0  0  0  0  0  0  0  0  0  0  0
    1.4255   -0.6494    3.5065 Cl  0  0  0  0  0  0  0  0  0  0  0  0
    2.3243    2.3594    3.8460 O   0  0  0  0  0  1  0  0  0  0  0  0
    0.9130    1.5311    1.4556 N   0  0  0  0  0  0  0  0  0  0  0  0
   -0.1165    3.4109    3.4583 N   0  0  0  0  0  0  0  0  0  0  0  0
   -1.1028    0.9378    3.2174 N   0  0  0  0  0  0  0  0  0  0  0  0
   -3.5373    2.7339    0.1837 N   0  0  0  0  0  0  0  0  0  0  0  0
    1.6195   -0.1182    7.9039 N   0  0  0  0  0  0  0  0  0  0  0  0
   -0.0615    2.0997    0.7341 N   0  0  1  0  0  0  0  0  0  0  0  0
   -0.9288    3.7263    2.4427 N   0  0  2  0  0  0  0  0  0  0  0  0
   -1.8939    1.4797    2.2650 N   0  0  1  0  0  0  0  0  0  0  0  0
   -2.2939    3.1925    0.4066 N   0  0  0  0  0  0  0  0  0  0  0  0
    1.8095    0.4653    6.6961 C   0  0  2  0  0  3  0  0  0  0  0  0
    3.0962    0.3982    6.1351 C   0  0  0  0  0  0  0  0  0  0  0  0
    3.2769    0.8859    5.1875 H   0  0  0  0  0  0  0  0  0  0  0  0
    4.0989   -0.2613    6.8007 C   0  0  0  0  0  0  0  0  0  0  0  0
    5.0873   -0.3120    6.3720 H   0  0  0  0  0  0  0  0  0  0  0  0
    3.8454   -0.8641    8.0438 C   0  0  0  0  0  0  0  0  0  0  0  0
    4.6233   -1.3874    8.5732 H   0  0  0  0  0  0  0  0  0  0  0  0
    2.5903   -0.7635    8.5761 C   0  0  0  0  0  0  0  0  0  0  0  0
    2.3250   -1.1859    9.5330 H   0  0  0  0  0  0  0  0  0  0  0  0
    0.2254    1.9642   -0.5658 C   0  0  0  0  0  3  0  0  0  0  0  0
   -0.4339    2.3275   -1.3278 H   0  0  0  0  0  0  0  0  0  0  0  0
    1.4360    1.3045   -0.6823 C   0  0  0  0  0  0  0  0  0  0  0  0
    1.9525    1.0454   -1.5822 H   0  0  0  0  0  0  0  0  0  0  0  0
    1.8309    1.0487    0.6234 C   0  0  0  0  0  0  0  0  0  0  0  0
    2.7095    0.5565    0.9932 H   0  0  0  0  0  0  0  0  0  0  0  0
   -1.3772    4.9776    2.6102 C   0  0  0  0  0  3  0  0  0  0  0  0
   -2.0611    5.4266    1.9192 H   0  0  0  0  0  0  0  0  0  0  0  0
   -0.8173    5.4901    3.7641 C   0  0  0  0  0  0  0  0  0  0  0  0
   -0.9593    6.4649    4.1800 H   0  0  0  0  0  0  0  0  0  0  0  0
   -0.0307    4.4606    4.2667 C   0  0  0  0  0  0  0  0  0  0  0  0
    0.5859    4.4296    5.1435 H   0  0  0  0  0  0  0  0  0  0  0  0
   -3.0776    0.8605    2.2509 C   0  0  0  0  0  3  0  0  0  0  0  0
   -3.8271    1.1666    1.5463 H   0  0  0  0  0  0  0  0  0  0  0  0
   -3.0657   -0.1185    3.2285 C   0  0  0  0  0  0  0  0  0  0  0  0
   -3.8524   -0.7973    3.4812 H   0  0  0  0  0  0  0  0  0  0  0  0
   -1.8090   -0.0317    3.8063 C   0  0  0  0  0  0  0  0  0  0  0  0
   -1.3861   -0.6197    4.5992 H   0  0  0  0  0  0  0  0  0  0  0  0
   -2.0269    4.2303   -0.4357 C   0  0  0  0  0  0  0  0  0  0  0  0
   -1.0809    4.7341   -0.4145 H   0  0  0  0  0  0  0  0  0  0  0  0
   -3.1340    4.4364   -1.2152 C   0  0  0  0  0  0  0  0  0  0  0  0
   -3.2723    5.1688   -1.9823 H   0  0  0  0  0  0  0  0  0  0  0  0
   -4.0503    3.4651   -0.7792 C   0  0  0  0  0  0  0  0  0  0  0  0
   -5.0457    3.2787   -1.1282 H   0  0  0  0  0  0  0  0  0  0  0  0
   -1.3498    2.6404    1.4199 B   0  0  2  0  0  0  0  0  0  0  0  0
    0.6901   -0.0422    8.3073 H   0  0  0  0  0  0  0  0  0  0  0  0
  1  4  1  0  0  0  0
  1  2  1  0  0  0  0
  3  1  1  0  0  0  0
  5  1  1  0  0  0  0
  6  1  1  0  0  0  0
  6 33  1  0  0  0  0
  7  1  1  0  0  0  0
  7 39  1  0  0  0  0
  8 13  1  0  0  0  0
  9 48  1  0  0  0  0
  9 21  1  0  0  0  0
 10 23  1  6  0  0  0
 10 47  1  0  0  0  0
 10  5  1  0  0  0  0
 11 29  1  1  0  0  0
 11  6  1  0  0  0  0
 12 35  1  1  0  0  0
 12  7  1  0  0  0  0
 14  2  1  1  0  0  0
 14  9  1  0  0  0  0
 15 14  1  0  0  0  0
 15 17  2  0  0  0  0
 16 15  1  0  0  0  0
 17 19  1  0  0  0  0
 18 17  1  0  0  0  0
 19 20  1  0  0  0  0
 19 21  2  0  0  0  0
 21 22  1  0  0  0  0
 24 23  1  0  0  0  0
 25 23  1  0  0  0  0
 25 27  2  0  0  0  0
 26 25  1  0  0  0  0
 27 28  1  0  0  0  0
 27  5  1  0  0  0  0
 29 31  1  0  0  0  0
 30 29  1  0  0  0  0
 31 32  1  0  0  0  0
 31 33  2  0  0  0  0
 33 34  1  0  0  0  0
 35 37  1  0  0  0  0
 36 35  1  0  0  0  0
 37 38  1  0  0  0  0
 37 39  2  0  0  0  0
 39 40  1  0  0  0  0
 41 42  1  0  0  0  0
 41 13  1  0  0  0  0
 43 45  1  0  0  0  0
 43 41  2  0  0  0  0
 44 43  1  0  0  0  0
 45  8  2  0  0  0  0
 46 45  1  0  0  0  0
 47 13  1  6  0  0  0
 47 12  1  0  0  0  0
 47 11  1  0  0  0  0
M  END
$$$$
