CSD_code = GUHRUW | q = 0 | S = 0 | Stoichiometry = C27H20Cl2N2O4PRe | MND = 6
 OpenBabel04212202043D

 57 62  0  0  1  0  0  0  0  0999 V2000
    1.4759   12.4025    2.5524 Re  0  0  0  0  0  0  0  0  0  0  0  0
    2.7190   12.8932    4.6099 P   0  0  0  0  0  4  0  0  0  0  0  0
    0.8625   10.4584    3.5440 Cl  0  0  0  0  0  0  0  0  0  0  0  0
    1.1292   11.4005    0.5400 Cl  0  0  0  0  0  0  0  0  0  0  0  0
    0.1831   13.3831    2.9046 O   0  0  0  0  0  1  0  0  0  0  0  0
    3.5013   11.7747    2.2361 O   0  0  0  0  0  0  0  0  0  0  0  0
    7.8453   14.8972   -0.7887 O   0  0  0  0  0  0  0  0  0  0  0  0
    6.4302   16.4961   -0.5799 O   0  0  0  0  0  0  0  0  0  0  0  0
    2.4146   13.9824    1.4059 N   0  0  0  0  0  0  0  0  0  0  0  0
    6.7556   15.3263   -0.4534 N   0  0  0  0  0  0  0  0  0  0  0  0
    4.2577   12.5383    1.5392 C   0  0  0  0  0  0  0  0  0  0  0  0
    5.5896   12.2524    1.2196 C   0  0  0  0  0  0  0  0  0  0  0  0
    6.3451   13.1814    0.5410 C   0  0  0  0  0  0  0  0  0  0  0  0
    5.8427   14.4181    0.1461 C   0  0  1  0  0  3  0  0  0  0  0  0
    4.4781   14.7434    0.3809 C   0  0  0  0  0  0  0  0  0  0  0  0
    3.7959   15.9040   -0.0402 C   0  0  0  0  0  0  0  0  0  0  0  0
    2.4668   16.0566    0.2703 C   0  0  0  0  0  0  0  0  0  0  0  0
    1.8033   15.0799    1.0132 C   0  0  0  0  0  0  0  0  0  0  0  0
    3.7061   13.7871    1.0817 C   0  0  0  0  0  0  0  0  0  0  0  0
    3.9735   14.1411    4.2255 C   0  0  0  0  0  0  0  0  0  0  0  0
    5.3249   13.8268    4.1405 C   0  0  0  0  0  0  0  0  0  0  0  0
    6.2245   14.7766    3.6863 C   0  0  0  0  0  0  0  0  0  0  0  0
    5.7815   16.0343    3.3126 C   0  0  0  0  0  0  0  0  0  0  0  0
    4.4343   16.3539    3.4044 C   0  0  0  0  0  0  0  0  0  0  0  0
    3.5307   15.4108    3.8535 C   0  0  0  0  0  0  0  0  0  0  0  0
    3.5951   11.5616    5.4803 C   0  0  0  0  0  0  0  0  0  0  0  0
    3.8901   10.3460    4.8735 C   0  0  0  0  0  0  0  0  0  0  0  0
    4.5844    9.3774    5.5775 C   0  0  0  0  0  0  0  0  0  0  0  0
    4.9869    9.6141    6.8810 C   0  0  0  0  0  0  0  0  0  0  0  0
    4.6937   10.8258    7.4870 C   0  0  0  0  0  0  0  0  0  0  0  0
    3.9981   11.7983    6.7937 C   0  0  0  0  0  0  0  0  0  0  0  0
    1.6596   13.6412    5.8803 C   0  0  0  0  0  0  0  0  0  0  0  0
    0.3791   13.1207    6.0447 C   0  0  0  0  0  0  0  0  0  0  0  0
   -0.4510   13.6333    7.0245 C   0  0  0  0  0  0  0  0  0  0  0  0
   -0.0107   14.6650    7.8387 C   0  0  0  0  0  0  0  0  0  0  0  0
    1.2615   15.1873    7.6723 C   0  0  0  0  0  0  0  0  0  0  0  0
    2.1003   14.6788    6.6964 C   0  0  0  0  0  0  0  0  0  0  0  0
    6.0117   11.3098    1.5282 H   0  0  0  0  0  0  0  0  0  0  0  0
    7.3802   12.9702    0.3142 H   0  0  0  0  0  0  0  0  0  0  0  0
    4.3213   16.6606   -0.6001 H   0  0  0  0  0  0  0  0  0  0  0  0
    1.9245   16.9311   -0.0513 H   0  0  0  0  0  0  0  0  0  0  0  0
    0.7650   15.1800    1.2972 H   0  0  0  0  0  0  0  0  0  0  0  0
    5.6656   12.8410    4.4244 H   0  0  0  0  0  0  0  0  0  0  0  0
    7.2730   14.5295    3.6146 H   0  0  0  0  0  0  0  0  0  0  0  0
    6.4828   16.7667    2.9432 H   0  0  0  0  0  0  0  0  0  0  0  0
    4.0914   17.3352    3.1132 H   0  0  0  0  0  0  0  0  0  0  0  0
    2.4734   15.6365    3.9121 H   0  0  0  0  0  0  0  0  0  0  0  0
    3.5743   10.1558    3.8599 H   0  0  0  0  0  0  0  0  0  0  0  0
    4.8074    8.4325    5.1054 H   0  0  0  0  0  0  0  0  0  0  0  0
    5.5257    8.8548    7.4276 H   0  0  0  0  0  0  0  0  0  0  0  0
    5.0039   11.0121    8.5044 H   0  0  0  0  0  0  0  0  0  0  0  0
    3.7629   12.7388    7.2713 H   0  0  0  0  0  0  0  0  0  0  0  0
    0.0411   12.3256    5.3931 H   0  0  0  0  0  0  0  0  0  0  0  0
   -1.4446   13.2313    7.1499 H   0  0  0  0  0  0  0  0  0  0  0  0
   -0.6613   15.0674    8.6006 H   0  0  0  0  0  0  0  0  0  0  0  0
    1.6027   15.9951    8.3028 H   0  0  0  0  0  0  0  0  0  0  0  0
    3.0904   15.0935    6.5628 H   0  0  0  0  0  0  0  0  0  0  0  0
  1  5  1  0  0  0  0
  1  3  1  0  0  0  0
  1  2  1  0  0  0  0
  2 26  1  0  0  0  0
  2 32  1  0  0  0  0
  4  1  1  0  0  0  0
  6  1  1  0  0  0  0
  7 10  2  0  0  0  0
  8 10  2  0  0  0  0
  9  1  1  0  0  0  0
 11  6  1  0  0  0  0
 12 38  1  0  0  0  0
 12 11  1  0  0  0  0
 13 12  2  0  0  0  0
 14 10  1  1  0  0  0
 14 15  1  0  0  0  0
 14 13  1  0  0  0  0
 15 19  1  0  0  0  0
 16 17  1  0  0  0  0
 16 15  2  0  0  0  0
 17 18  2  0  0  0  0
 18 42  1  0  0  0  0
 18  9  1  0  0  0  0
 19  9  1  0  0  0  0
 19 11  2  0  0  0  0
 20  2  1  0  0  0  0
 21 20  1  0  0  0  0
 21 43  1  0  0  0  0
 22 21  2  0  0  0  0
 23 24  2  0  0  0  0
 23 22  1  0  0  0  0
 24 25  1  0  0  0  0
 25 47  1  0  0  0  0
 25 20  2  0  0  0  0
 26 31  1  0  0  0  0
 27 26  2  0  0  0  0
 27 28  1  0  0  0  0
 28 29  2  0  0  0  0
 29 50  1  0  0  0  0
 29 30  1  0  0  0  0
 30 51  1  0  0  0  0
 31 52  1  0  0  0  0
 31 30  2  0  0  0  0
 32 33  2  0  0  0  0
 32 37  1  0  0  0  0
 33 34  1  0  0  0  0
 34 54  1  0  0  0  0
 34 35  2  0  0  0  0
 35 55  1  0  0  0  0
 36 35  1  0  0  0  0
 36 56  1  0  0  0  0
 37 36  2  0  0  0  0
 39 13  1  0  0  0  0
 40 16  1  0  0  0  0
 41 17  1  0  0  0  0
 44 22  1  0  0  0  0
 45 23  1  0  0  0  0
 46 24  1  0  0  0  0
 48 27  1  0  0  0  0
 49 28  1  0  0  0  0
 53 33  1  0  0  0  0
 57 37  1  0  0  0  0
M  END
$$$$
