CSD_code = GUJKEB | q = 0 | S = 0 | Stoichiometry = C15H20IN3Pt | MND = 6
 OpenBabel04212202043D

 40 42  0  0  0  0  0  0  0  0999 V2000
    9.3388    7.0677    1.4064 Pt  0  0  0  0  0  0  0  0  0  0  0  0
    9.6718    4.6883    0.1146 I   0  0  0  0  0  0  0  0  0  0  0  0
   10.9552    6.4278    2.8046 N   0  0  0  0  0  0  0  0  0  0  0  0
    8.2776    5.8925    2.9181 N   0  0  0  0  0  0  0  0  0  0  0  0
    6.6630    7.1507    4.7837 N   0  0  0  0  0  0  0  0  0  0  0  0
   12.2568    6.6607    2.7563 C   0  0  0  0  0  3  0  0  0  0  0  0
   13.1505    6.1451    3.6803 C   0  0  0  0  0  0  0  0  0  0  0  0
   12.6627    5.3513    4.7094 C   0  0  0  0  0  0  0  0  0  0  0  0
   11.3043    5.1091    4.7689 C   0  0  0  0  0  0  0  0  0  0  0  0
   10.4700    5.6645    3.7962 C   0  0  0  0  0  0  0  0  0  0  0  0
    9.0459    5.4005    3.8046 C   0  0  0  0  0  3  0  0  0  0  0  0
    6.8767    5.5946    2.9638 C   0  0  0  0  0  0  0  0  0  0  0  0
    6.1561    6.7496    3.6263 C   0  0  0  0  0  0  0  0  0  0  0  0
    5.0395    7.3431    3.0507 C   0  0  0  0  0  0  0  0  0  0  0  0
    4.4415    8.4015    3.7148 C   0  0  0  0  0  0  0  0  0  0  0  0
    4.9780    8.8275    4.9197 C   0  0  0  0  0  0  0  0  0  0  0  0
    6.0897    8.1615    5.4110 C   0  0  0  0  0  0  0  0  0  0  0  0
    7.6739    7.6464    0.3351 C   0  0  0  0  0  0  0  0  0  0  0  0
   10.4917    8.0411    0.0039 C   0  0  0  0  0  0  0  0  0  0  0  0
    9.1790    8.8318    2.4767 C   0  0  0  0  0  0  0  0  0  0  0  0
   12.6056    7.2831    1.9428 H   0  0  0  0  0  0  0  0  0  0  0  0
   14.2034    6.3589    3.5913 H   0  0  0  0  0  0  0  0  0  0  0  0
   13.3300    4.9293    5.4454 H   0  0  0  0  0  0  0  0  0  0  0  0
   10.8794    4.4965    5.5489 H   0  0  0  0  0  0  0  0  0  0  0  0
    8.6710    4.7259    4.5768 H   0  0  0  0  0  0  0  0  0  0  0  0
    6.6847    4.6818    3.5484 H   0  0  0  0  0  0  0  0  0  0  0  0
    6.5076    5.4569    1.9449 H   0  0  0  0  0  0  0  0  0  0  0  0
    4.6498    6.9847    2.1104 H   0  0  0  0  0  0  0  0  0  0  0  0
    3.5738    8.8887    3.2948 H   0  0  0  0  0  0  0  0  0  0  0  0
    4.5467    9.6530    5.4634 H   0  0  0  0  0  0  0  0  0  0  0  0
    6.5497    8.4467    6.3483 H   0  0  0  0  0  0  0  0  0  0  0  0
    6.8771    7.8954    1.0409 H   0  0  0  0  0  0  0  0  0  0  0  0
    7.3453    6.8168   -0.2951 H   0  0  0  0  0  0  0  0  0  0  0  0
    7.8368    8.5138   -0.3055 H   0  0  0  0  0  0  0  0  0  0  0  0
   11.4890    7.5911    0.0437 H   0  0  0  0  0  0  0  0  0  0  0  0
   10.5847    9.1161    0.1654 H   0  0  0  0  0  0  0  0  0  0  0  0
   10.1006    7.8773   -1.0028 H   0  0  0  0  0  0  0  0  0  0  0  0
    8.6881    9.6426    1.9424 H   0  0  0  0  0  0  0  0  0  0  0  0
   10.1756    9.1712    2.7668 H   0  0  0  0  0  0  0  0  0  0  0  0
    8.6104    8.6275    3.3864 H   0  0  0  0  0  0  0  0  0  0  0  0
  1 20  1  0  0  0  0
  1  3  1  0  0  0  0
  1  4  1  0  0  0  0
  2  1  1  0  0  0  0
  3 10  1  0  0  0  0
  4 12  1  0  0  0  0
  4 11  1  0  0  0  0
  5 17  1  0  0  0  0
  6  3  1  0  0  0  0
  6  7  1  0  0  0  0
  7  8  2  0  0  0  0
  8  9  1  0  0  0  0
  8 23  1  0  0  0  0
  9 24  1  0  0  0  0
 10 11  1  0  0  0  0
 10  9  2  0  0  0  0
 11 25  1  0  0  0  0
 12 26  1  0  0  0  0
 12 13  1  0  0  0  0
 13  5  2  0  0  0  0
 14 13  1  0  0  0  0
 14 15  2  0  0  0  0
 15 16  1  0  0  0  0
 16 17  2  0  0  0  0
 16 30  1  0  0  0  0
 17 31  1  0  0  0  0
 18 32  1  0  0  0  0
 18  1  1  0  0  0  0
 19 35  1  0  0  0  0
 19 36  1  0  0  0  0
 19  1  1  0  0  0  0
 20 39  1  0  0  0  0
 20 40  1  0  0  0  0
 21  6  1  0  0  0  0
 22  7  1  0  0  0  0
 27 12  1  0  0  0  0
 28 14  1  0  0  0  0
 29 15  1  0  0  0  0
 33 18  1  0  0  0  0
 34 18  1  0  0  0  0
 37 19  1  0  0  0  0
 38 20  1  0  0  0  0
M  END
$$$$
