CSD_code = GUKGAW | q = 0 | S = 0 | Stoichiometry = C29H25AgClN3 | MND = 2
 OpenBabel04212202043D

 59 64  0  0  1  0  0  0  0  0999 V2000
   12.3024   13.4776    9.7163 Ag  0  0  0  0  0  0  0  0  0  0  0  0
   10.0862   13.2340    9.1708 Cl  0  0  0  0  0  0  0  0  0  0  0  0
   15.1705   13.5107   11.0443 N   0  0  0  0  0  0  0  0  0  0  0  0
   15.4487   13.2677    8.9436 N   0  0  0  0  0  0  0  0  0  0  0  0
   15.2904   13.1429    7.5794 N   0  0  2  0  0  0  0  0  0  0  0  0
   14.4848   13.4190    9.8761 C   0  0  1  0  0  3  0  0  0  0  0  0
   16.7031   13.2512    9.4835 C   0  0  0  0  0  0  0  0  0  0  0  0
   17.5792   13.1298    8.8835 H   0  0  0  0  0  0  0  0  0  0  0  0
   16.5478   13.3947   10.8353 C   0  0  0  0  0  0  0  0  0  0  0  0
   17.4327   13.4090   11.9370 C   0  0  0  0  0  0  0  0  0  0  0  0
   18.4909   13.3265   11.7502 H   0  0  0  0  0  0  0  0  0  0  0  0
   16.9160   13.5114   13.1887 C   0  0  0  0  0  0  0  0  0  0  0  0
   17.5580   13.5094   14.0551 H   0  0  0  0  0  0  0  0  0  0  0  0
   15.5169   13.6513   13.3699 C   0  0  0  0  0  0  0  0  0  0  0  0
   15.1178   13.7756   14.3636 H   0  0  0  0  0  0  0  0  0  0  0  0
   14.6619   13.6755   12.3103 C   0  0  0  0  0  0  0  0  0  0  0  0
   13.2205   13.9218   12.4771 C   0  0  0  0  0  0  0  0  0  0  0  0
   12.6326   15.0437   11.8828 C   0  0  0  0  0  0  0  0  0  0  0  0
   13.2520   15.7442   11.3375 H   0  0  0  0  0  0  0  0  0  0  0  0
   11.2913   15.3213   12.0997 C   0  0  0  0  0  0  0  0  0  0  0  0
   10.8511   16.2061   11.6650 H   0  0  0  0  0  0  0  0  0  0  0  0
   10.5209   14.4675   12.8726 C   0  0  0  0  0  0  0  0  0  0  0  0
    9.4722   14.6738   13.0206 H   0  0  0  0  0  0  0  0  0  0  0  0
   11.0967   13.3499   13.4525 C   0  0  0  0  0  0  0  0  0  0  0  0
   10.4973   12.6830   14.0538 H   0  0  0  0  0  0  0  0  0  0  0  0
   12.4429   13.0823   13.2674 C   0  0  0  0  0  0  0  0  0  0  0  0
   12.8957   12.2140   13.7244 H   0  0  0  0  0  0  0  0  0  0  0  0
   15.2326   14.4138    6.8350 C   0  0  1  0  0  0  0  0  0  0  0  0
   16.2541   14.8124    6.7942 H   0  0  0  0  0  0  0  0  0  0  0  0
   14.7535   13.9714    5.4434 C   0  0  0  0  0  0  0  0  0  0  0  0
   15.5783   14.0006    4.7333 H   0  0  0  0  0  0  0  0  0  0  0  0
   13.9781   14.6409    5.0770 H   0  0  0  0  0  0  0  0  0  0  0  0
   14.2338   12.5325    5.6114 C   0  0  0  0  0  0  0  0  0  0  0  0
   13.2529   12.3902    5.1639 H   0  0  0  0  0  0  0  0  0  0  0  0
   14.9231   11.8216    5.1565 H   0  0  0  0  0  0  0  0  0  0  0  0
   14.1859   12.3050    7.1260 C   0  0  1  0  0  0  0  0  0  0  0  0
   13.2142   12.6556    7.5298 H   0  0  0  0  0  0  0  0  0  0  0  0
   14.3530   15.4287    7.5300 C   0  0  0  0  0  0  0  0  0  0  0  0
   14.9478   16.3452    8.3921 C   0  0  0  0  0  0  0  0  0  0  0  0
   16.0248   16.3549    8.4989 H   0  0  0  0  0  0  0  0  0  0  0  0
   14.1839   17.2502    9.1060 C   0  0  0  0  0  0  0  0  0  0  0  0
   14.6674   17.9601    9.7621 H   0  0  0  0  0  0  0  0  0  0  0  0
   12.8045   17.2467    8.9778 C   0  0  0  0  0  0  0  0  0  0  0  0
   12.2080   17.9586    9.5292 H   0  0  0  0  0  0  0  0  0  0  0  0
   12.1961   16.3340    8.1322 C   0  0  0  0  0  0  0  0  0  0  0  0
   11.1237   16.3342    8.0085 H   0  0  0  0  0  0  0  0  0  0  0  0
   12.9641   15.4266    7.4138 C   0  0  0  0  0  0  0  0  0  0  0  0
   12.4671   14.7620    6.7219 H   0  0  0  0  0  0  0  0  0  0  0  0
   14.4054   10.8857    7.5686 C   0  0  0  0  0  0  0  0  0  0  0  0
   15.6218   10.2569    7.3295 C   0  0  0  0  0  0  0  0  0  0  0  0
   16.4059   10.7961    6.8185 H   0  0  0  0  0  0  0  0  0  0  0  0
   15.8318    8.9574    7.7522 C   0  0  0  0  0  0  0  0  0  0  0  0
   16.7798    8.4753    7.5621 H   0  0  0  0  0  0  0  0  0  0  0  0
   14.8284    8.2742    8.4192 C   0  0  0  0  0  0  0  0  0  0  0  0
   14.9917    7.2581    8.7471 H   0  0  0  0  0  0  0  0  0  0  0  0
   13.6182    8.8984    8.6689 C   0  0  0  0  0  0  0  0  0  0  0  0
   12.8349    8.3723    9.1934 H   0  0  0  0  0  0  0  0  0  0  0  0
   13.4082   10.2007    8.2490 C   0  0  0  0  0  0  0  0  0  0  0  0
   12.4611   10.6914    8.4483 H   0  0  0  0  0  0  0  0  0  0  0  0
  2  1  1  0  0  0  0
  3 16  1  0  0  0  0
  4  7  1  0  0  0  0
  4  6  1  0  0  0  0
  5  4  1  1  0  0  0
  6  1  1  1  0  0  0
  6  3  1  0  0  0  0
  7  9  2  0  0  0  0
  8  7  1  0  0  0  0
  9  3  1  0  0  0  0
  9 10  1  0  0  0  0
 10 12  2  0  0  0  0
 11 10  1  0  0  0  0
 12 14  1  0  0  0  0
 12 13  1  0  0  0  0
 14 15  1  0  0  0  0
 16 17  1  0  0  0  0
 16 14  2  0  0  0  0
 17 26  1  0  0  0  0
 18 20  1  0  0  0  0
 18 17  2  0  0  0  0
 19 18  1  0  0  0  0
 20 22  2  0  0  0  0
 21 20  1  0  0  0  0
 22 23  1  0  0  0  0
 22 24  1  0  0  0  0
 24 25  1  0  0  0  0
 26 24  2  0  0  0  0
 26 27  1  0  0  0  0
 28 29  1  6  0  0  0
 28 38  1  0  0  0  0
 28  5  1  0  0  0  0
 30 33  1  0  0  0  0
 30 28  1  0  0  0  0
 31 30  1  0  0  0  0
 32 30  1  0  0  0  0
 33 36  1  0  0  0  0
 34 33  1  0  0  0  0
 35 33  1  0  0  0  0
 36 37  1  1  0  0  0
 36 49  1  0  0  0  0
 36  5  1  0  0  0  0
 38 39  1  0  0  0  0
 39 40  1  0  0  0  0
 39 41  2  0  0  0  0
 41 42  1  0  0  0  0
 43 41  1  0  0  0  0
 43 44  1  0  0  0  0
 45 43  2  0  0  0  0
 46 45  1  0  0  0  0
 47 38  2  0  0  0  0
 47 45  1  0  0  0  0
 48 47  1  0  0  0  0
 49 58  1  0  0  0  0
 50 49  2  0  0  0  0
 50 52  1  0  0  0  0
 51 50  1  0  0  0  0
 52 54  2  0  0  0  0
 53 52  1  0  0  0  0
 54 56  1  0  0  0  0
 54 55  1  0  0  0  0
 56 57  1  0  0  0  0
 58 59  1  0  0  0  0
 58 56  2  0  0  0  0
M  END
$$$$
