CSD_code = GUKRIN | q = 0 | S = 0 | Stoichiometry = C30H28Cl2FeN6 | MND = 5
 OpenBabel04212202043D

 67 73  0  0  1  0  0  0  0  0999 V2000
    2.1351    7.4454    5.0548 Fe  0  0  0  0  0  0  0  0  0  0  0  0
    2.8806    7.7044    7.0861 Cl  0  0  0  0  0  0  0  0  0  0  0  0
    2.4940    5.3176    4.9250 Cl  0  0  0  0  0  0  0  0  0  0  0  0
    1.6998    9.3741    4.8974 N   0  0  0  0  0  4  0  0  0  0  0  0
    2.9688   10.0883    5.0434 C   0  0  0  0  0  0  0  0  0  0  0  0
    2.9245   11.1200    4.6762 H   0  0  0  0  0  0  0  0  0  0  0  0
    3.2237   10.0821    6.1081 H   0  0  0  0  0  0  0  0  0  0  0  0
    4.0290    9.2934    4.3338 C   0  0  1  0  0  3  0  0  0  0  0  0
    5.1437    9.8703    3.7571 C   0  0  0  0  0  0  0  0  0  0  0  0
    5.2619   10.9429    3.7771 H   0  0  0  0  0  0  0  0  0  0  0  0
    6.1065    9.0570    3.1741 C   0  0  0  0  0  0  0  0  0  0  0  0
    6.9903    9.4852    2.7273 H   0  0  0  0  0  0  0  0  0  0  0  0
    5.9046    7.6857    3.1933 C   0  0  0  0  0  0  0  0  0  0  0  0
    6.6278    7.0091    2.7675 H   0  0  0  0  0  0  0  0  0  0  0  0
    4.7580    7.1843    3.7789 C   0  0  0  0  0  0  0  0  0  0  0  0
    4.5597    6.1234    3.8293 H   0  0  0  0  0  0  0  0  0  0  0  0
    3.8265    7.9617    4.3332 N   0  0  0  0  0  0  0  0  0  0  0  0
    0.7069    9.6519    5.9356 C   0  0  0  0  0  0  0  0  0  0  0  0
    0.1592   10.5861    5.7670 H   0  0  0  0  0  0  0  0  0  0  0  0
    1.2408    9.7002    6.8902 H   0  0  0  0  0  0  0  0  0  0  0  0
   -0.2218    8.4725    6.0122 C   0  0  2  0  0  3  0  0  0  0  0  0
   -1.5415    8.5784    6.4066 C   0  0  0  0  0  0  0  0  0  0  0  0
   -1.9531    9.5480    6.6421 H   0  0  0  0  0  0  0  0  0  0  0  0
   -2.3147    7.4298    6.5113 C   0  0  0  0  0  0  0  0  0  0  0  0
   -3.3443    7.4875    6.8288 H   0  0  0  0  0  0  0  0  0  0  0  0
   -1.7244    6.2129    6.2080 C   0  0  0  0  0  0  0  0  0  0  0  0
   -2.2766    5.2903    6.2857 H   0  0  0  0  0  0  0  0  0  0  0  0
   -0.4019    6.1893    5.8084 C   0  0  0  0  0  0  0  0  0  0  0  0
    0.1066    5.2659    5.5714 H   0  0  0  0  0  0  0  0  0  0  0  0
    0.3435    7.2903    5.7010 N   0  0  0  0  0  0  0  0  0  0  0  0
    1.1513    9.5194    3.5701 C   0  0  0  0  0  0  0  0  0  0  0  0
    1.0625    8.3999    2.7508 C   0  0  0  0  0  0  0  0  0  0  0  0
    1.3958    7.4238    3.1054 H   0  0  0  0  0  0  0  0  0  0  0  0
    0.5589    8.4953    1.4711 C   0  0  0  0  0  0  0  0  0  0  0  0
    0.5255    7.6036    0.8689 H   0  0  0  0  0  0  0  0  0  0  0  0
    0.1152    9.7243    0.9583 C   0  0  0  0  0  0  0  0  0  0  0  0
    0.1969   10.8437    1.8004 C   0  0  0  0  0  0  0  0  0  0  0  0
   -0.1507   11.8073    1.4672 H   0  0  0  0  0  0  0  0  0  0  0  0
    0.7096   10.7395    3.0763 C   0  0  0  0  0  0  0  0  0  0  0  0
    0.7594   11.6269    3.6914 H   0  0  0  0  0  0  0  0  0  0  0  0
   -0.3753    9.8266   -0.3171 N   0  0  0  0  0  0  0  0  0  0  0  0
   -0.5594    8.6465   -1.1269 C   0  0  0  0  0  0  0  0  0  0  0  0
   -1.1409    8.9190   -2.0123 H   0  0  0  0  0  0  0  0  0  0  0  0
   -1.1344    7.8832   -0.5894 H   0  0  0  0  0  0  0  0  0  0  0  0
    0.7376    8.0158   -1.5863 C   0  0  0  0  0  0  0  0  0  0  0  0
    1.8874    8.7683   -1.7959 C   0  0  0  0  0  0  0  0  0  0  0  0
    1.8832    9.8338   -1.6256 H   0  0  0  0  0  0  0  0  0  0  0  0
    3.0349    8.1177   -2.2168 C   0  0  0  0  0  0  0  0  0  0  0  0
    3.9470    8.6719   -2.3847 H   0  0  0  0  0  0  0  0  0  0  0  0
    2.9929    6.7474   -2.4195 C   0  0  0  0  0  0  0  0  0  0  0  0
    3.8652    6.2033   -2.7450 H   0  0  0  0  0  0  0  0  0  0  0  0
    1.7944    6.0904   -2.1871 C   0  0  0  0  0  0  0  0  0  0  0  0
    1.7022    5.0214   -2.3253 H   0  0  0  0  0  0  0  0  0  0  0  0
    0.6988    6.7045   -1.7791 N   0  0  0  0  0  0  0  0  0  0  0  0
   -0.7275   11.1132   -0.8655 C   0  0  0  0  0  0  0  0  0  0  0  0
   -0.8692   11.0050   -1.9448 H   0  0  0  0  0  0  0  0  0  0  0  0
    0.0816   11.8384   -0.7220 H   0  0  0  0  0  0  0  0  0  0  0  0
   -1.9944   11.6970   -0.2784 C   0  0  0  0  0  0  0  0  0  0  0  0
   -3.0348   10.8882    0.1654 C   0  0  0  0  0  0  0  0  0  0  0  0
   -2.9522    9.8139    0.1152 H   0  0  0  0  0  0  0  0  0  0  0  0
   -4.1704   11.4924    0.6769 C   0  0  0  0  0  0  0  0  0  0  0  0
   -4.9961   10.8926    1.0316 H   0  0  0  0  0  0  0  0  0  0  0  0
   -4.2304   12.8765    0.7232 C   0  0  0  0  0  0  0  0  0  0  0  0
   -5.0978   13.3859    1.1121 H   0  0  0  0  0  0  0  0  0  0  0  0
   -3.1384   13.5916    0.2573 C   0  0  0  0  0  0  0  0  0  0  0  0
   -3.1265   14.6736    0.2730 H   0  0  0  0  0  0  0  0  0  0  0  0
   -2.0492   13.0210   -0.2256 N   0  0  0  0  0  0  0  0  0  0  0  0
  1 30  1  0  0  0  0
  1  2  1  0  0  0  0
  3  1  1  0  0  0  0
  4  5  1  0  0  0  0
  4  1  1  0  0  0  0
  4 18  1  0  0  0  0
  5  7  1  0  0  0  0
  6  5  1  0  0  0  0
  8  9  1  1  0  0  0
  8  5  1  0  0  0  0
  9 10  1  0  0  0  0
 11 13  1  0  0  0  0
 11  9  2  0  0  0  0
 12 11  1  0  0  0  0
 13 15  2  0  0  0  0
 14 13  1  0  0  0  0
 15 16  1  0  0  0  0
 15 17  1  0  0  0  0
 17  8  1  0  0  0  0
 17  1  1  0  0  0  0
 18 21  1  0  0  0  0
 18 20  1  0  0  0  0
 19 18  1  0  0  0  0
 21 22  1  1  0  0  0
 22 24  2  0  0  0  0
 22 23  1  0  0  0  0
 24 25  1  0  0  0  0
 26 27  1  0  0  0  0
 26 24  1  0  0  0  0
 28 26  2  0  0  0  0
 29 28  1  0  0  0  0
 30 28  1  0  0  0  0
 30 21  1  0  0  0  0
 31  4  1  0  0  0  0
 32 33  1  0  0  0  0
 32 31  2  0  0  0  0
 34 32  1  0  0  0  0
 35 34  1  0  0  0  0
 36 34  2  0  0  0  0
 36 37  1  0  0  0  0
 37 39  2  0  0  0  0
 38 37  1  0  0  0  0
 39 31  1  0  0  0  0
 39 40  1  0  0  0  0
 41 36  1  0  0  0  0
 42 44  1  0  0  0  0
 42 41  1  0  0  0  0
 43 42  1  0  0  0  0
 45 42  1  0  0  0  0
 46 47  1  0  0  0  0
 46 45  2  0  0  0  0
 48 46  1  0  0  0  0
 49 48  1  0  0  0  0
 50 48  2  0  0  0  0
 50 52  1  0  0  0  0
 51 50  1  0  0  0  0
 52 54  2  0  0  0  0
 53 52  1  0  0  0  0
 54 45  1  0  0  0  0
 55 57  1  0  0  0  0
 55 41  1  0  0  0  0
 55 58  1  0  0  0  0
 56 55  1  0  0  0  0
 58 67  2  0  0  0  0
 58 59  1  0  0  0  0
 59 61  2  0  0  0  0
 60 59  1  0  0  0  0
 61 63  1  0  0  0  0
 61 62  1  0  0  0  0
 63 64  1  0  0  0  0
 65 66  1  0  0  0  0
 65 63  2  0  0  0  0
 67 65  1  0  0  0  0
M  END
$$$$
