CSD_code = GULJOM | q = 0 | S = 0 | Stoichiometry = C27H25I2OP2RhS | MND = 5
 OpenBabel04212202043D

 59 63  0  0  0  0  0  0  0  0999 V2000
    9.9960    1.1449    5.5107 Rh  0  0  0  0  0  0  0  0  0  0  0  0
   11.3871    2.7263    3.9417 I   0  0  0  0  0  0  0  0  0  0  0  0
    8.8745   -0.2391    3.5851 I   0  0  0  0  0  0  0  0  0  0  0  0
    8.5566    0.9613    8.6852 P   0  0  0  0  0  4  0  0  0  0  0  0
   10.4207    2.6420    7.1370 P   0  0  0  0  0  4  0  0  0  0  0  0
    8.4646    0.0042    6.9531 S   0  0  0  0  0  0  0  0  0  0  0  0
   11.8731    0.0915    7.2326 O   0  0  0  0  0  0  0  0  0  0  0  0
   10.0816    1.9663    8.8432 C   0  0  0  0  0  0  0  0  0  0  0  0
    7.1696    2.1037    8.9598 C   0  0  0  0  0  0  0  0  0  0  0  0
    6.1422    2.1665    8.0285 C   0  0  0  0  0  0  0  0  0  0  0  0
    5.0920    3.0456    8.2239 C   0  0  0  0  0  0  0  0  0  0  0  0
    5.0689    3.8558    9.3462 C   0  0  0  0  0  0  0  0  0  0  0  0
    6.0898    3.7844   10.2821 C   0  0  0  0  0  0  0  0  0  0  0  0
    7.1416    2.9089   10.0944 C   0  0  0  0  0  0  0  0  0  0  0  0
    8.5669   -0.2360   10.0451 C   0  0  0  0  0  0  0  0  0  0  0  0
    9.6455   -1.1147   10.1042 C   0  0  0  0  0  0  0  0  0  0  0  0
    9.6754   -2.0961   11.0757 C   0  0  0  0  0  0  0  0  0  0  0  0
    8.6273   -2.2094   11.9768 C   0  0  0  0  0  0  0  0  0  0  0  0
    7.5458   -1.3469   11.9030 C   0  0  0  0  0  0  0  0  0  0  0  0
    7.5075   -0.3594   10.9343 C   0  0  0  0  0  0  0  0  0  0  0  0
   11.9391    3.5838    7.4205 C   0  0  0  0  0  0  0  0  0  0  0  0
   12.0681    4.8576    6.8727 C   0  0  0  0  0  0  0  0  0  0  0  0
   13.2511    5.5554    7.0231 C   0  0  0  0  0  0  0  0  0  0  0  0
   14.3131    4.9845    7.7054 C   0  0  0  0  0  0  0  0  0  0  0  0
   14.1962    3.7070    8.2281 C   0  0  0  0  0  0  0  0  0  0  0  0
   13.0163    3.0012    8.0820 C   0  0  0  0  0  0  0  0  0  0  0  0
    9.1088    3.9005    7.0505 C   0  0  0  0  0  0  0  0  0  0  0  0
    8.1757    3.7978    6.0241 C   0  0  0  0  0  0  0  0  0  0  0  0
    7.1269    4.6948    5.9404 C   0  0  0  0  0  0  0  0  0  0  0  0
    7.0053    5.6964    6.8880 C   0  0  0  0  0  0  0  0  0  0  0  0
    7.9364    5.8089    7.9094 C   0  0  0  0  0  0  0  0  0  0  0  0
    8.9891    4.9185    7.9922 C   0  0  0  0  0  0  0  0  0  0  0  0
   11.5076    0.0100    6.0907 C   0  0  0  0  0  0  0  0  0  0  0  0
   12.0739   -0.9202    5.0644 C   0  0  0  0  0  0  0  0  0  0  0  0
   10.8981    1.2998    9.1353 H   0  0  0  0  0  0  0  0  0  0  0  0
    9.9653    2.7633    9.5817 H   0  0  0  0  0  0  0  0  0  0  0  0
    6.1722    1.5272    7.1557 H   0  0  0  0  0  0  0  0  0  0  0  0
    4.2939    3.0968    7.4993 H   0  0  0  0  0  0  0  0  0  0  0  0
    4.2511    4.5439    9.4973 H   0  0  0  0  0  0  0  0  0  0  0  0
    6.0645    4.4117   11.1606 H   0  0  0  0  0  0  0  0  0  0  0  0
    7.9336    2.8396   10.8285 H   0  0  0  0  0  0  0  0  0  0  0  0
   10.4464   -1.0337    9.3798 H   0  0  0  0  0  0  0  0  0  0  0  0
   10.5109   -2.7777   11.1261 H   0  0  0  0  0  0  0  0  0  0  0  0
    8.6493   -2.9799   12.7325 H   0  0  0  0  0  0  0  0  0  0  0  0
    6.7250   -1.4461   12.5972 H   0  0  0  0  0  0  0  0  0  0  0  0
    6.6615    0.3105   10.8660 H   0  0  0  0  0  0  0  0  0  0  0  0
   11.2475    5.2926    6.3190 H   0  0  0  0  0  0  0  0  0  0  0  0
   13.3474    6.5417    6.5953 H   0  0  0  0  0  0  0  0  0  0  0  0
   15.2385    5.5295    7.8166 H   0  0  0  0  0  0  0  0  0  0  0  0
   15.0307    3.2532    8.7421 H   0  0  0  0  0  0  0  0  0  0  0  0
   12.9430    1.9910    8.4583 H   0  0  0  0  0  0  0  0  0  0  0  0
    8.2708    3.0078    5.2728 H   0  0  0  0  0  0  0  0  0  0  0  0
    6.4100    4.6126    5.1376 H   0  0  0  0  0  0  0  0  0  0  0  0
    6.1869    6.3982    6.8283 H   0  0  0  0  0  0  0  0  0  0  0  0
    7.8430    6.5981    8.6410 H   0  0  0  0  0  0  0  0  0  0  0  0
    9.7291    5.0194    8.7760 H   0  0  0  0  0  0  0  0  0  0  0  0
   13.0130   -1.3281    5.4398 H   0  0  0  0  0  0  0  0  0  0  0  0
   11.3687   -1.7355    4.8916 H   0  0  0  0  0  0  0  0  0  0  0  0
   12.2406   -0.4186    4.1109 H   0  0  0  0  0  0  0  0  0  0  0  0
  1 33  1  0  0  0  0
  1  6  1  0  0  0  0
  1  5  1  0  0  0  0
  2  1  1  0  0  0  0
  3  1  1  0  0  0  0
  4  8  1  0  0  0  0
  4  9  1  0  0  0  0
  4 15  1  0  0  0  0
  5 21  1  0  0  0  0
  5  8  1  0  0  0  0
  6  4  1  0  0  0  0
  8 35  1  0  0  0  0
  8 36  1  0  0  0  0
  9 14  1  0  0  0  0
 10 11  1  0  0  0  0
 10  9  2  0  0  0  0
 11 12  2  0  0  0  0
 12 39  1  0  0  0  0
 12 13  1  0  0  0  0
 13 40  1  0  0  0  0
 14 13  2  0  0  0  0
 14 41  1  0  0  0  0
 15 16  2  0  0  0  0
 15 20  1  0  0  0  0
 16 17  1  0  0  0  0
 17 43  1  0  0  0  0
 17 18  2  0  0  0  0
 18 44  1  0  0  0  0
 19 18  1  0  0  0  0
 19 45  1  0  0  0  0
 20 19  2  0  0  0  0
 21 26  1  0  0  0  0
 22 23  1  0  0  0  0
 22 21  2  0  0  0  0
 23 24  2  0  0  0  0
 24 49  1  0  0  0  0
 24 25  1  0  0  0  0
 25 50  1  0  0  0  0
 26 25  2  0  0  0  0
 26 51  1  0  0  0  0
 27  5  1  0  0  0  0
 27 32  1  0  0  0  0
 28 27  2  0  0  0  0
 29 28  1  0  0  0  0
 29 30  2  0  0  0  0
 30 31  1  0  0  0  0
 31 32  2  0  0  0  0
 31 55  1  0  0  0  0
 32 56  1  0  0  0  0
 33  7  2  0  0  0  0
 34 57  1  0  0  0  0
 34 33  1  0  0  0  0
 37 10  1  0  0  0  0
 38 11  1  0  0  0  0
 42 16  1  0  0  0  0
 46 20  1  0  0  0  0
 47 22  1  0  0  0  0
 48 23  1  0  0  0  0
 52 28  1  0  0  0  0
 53 29  1  0  0  0  0
 54 30  1  0  0  0  0
 58 34  1  0  0  0  0
 59 34  1  0  0  0  0
M  END
$$$$
