CSD_code = GULVUG | q = 0 | S = 0 | Stoichiometry = C34H31ClNiP2 | MND = 4
 OpenBabel04212202043D

 69 75  0  0  0  0  0  0  0  0999 V2000
    1.8532   10.4035    2.1302 Ni  0  0  0  0  0  0  0  0  0  0  0  0
    3.9576   10.4913    2.1378 Cl  0  0  0  0  0  0  0  0  0  0  0  0
    1.7413    9.7473    4.1337 P   0  0  0  0  0  4  0  0  0  0  0  0
    1.6049   11.1027    0.1476 P   0  0  0  0  0  4  0  0  0  0  0  0
   -0.0031   10.0715    4.6410 C   0  0  0  0  0  0  0  0  0  0  0  0
   -0.3682    9.3232    5.3498 H   0  0  0  0  0  0  0  0  0  0  0  0
   -0.0341   11.0506    5.1341 H   0  0  0  0  0  0  0  0  0  0  0  0
   -0.7866   10.1074    3.3552 C   0  0  0  0  0  0  0  0  0  0  0  0
   -0.0861   10.2722    2.1487 C   0  0  0  0  0  0  0  0  0  0  0  0
   -0.8185   10.3216    0.9512 C   0  0  0  0  0  0  0  0  0  0  0  0
   -2.2076   10.1947    0.9549 C   0  0  0  0  0  0  0  0  0  0  0  0
   -2.8651   10.0374    2.1646 C   0  0  0  0  0  0  0  0  0  0  0  0
   -3.9426    9.9450    2.1707 H   0  0  0  0  0  0  0  0  0  0  0  0
   -2.1770    9.9978    3.3670 C   0  0  0  0  0  0  0  0  0  0  0  0
   -0.0697   10.5050   -0.3427 C   0  0  0  0  0  0  0  0  0  0  0  0
   -0.5635   11.1970   -1.0307 H   0  0  0  0  0  0  0  0  0  0  0  0
    0.0520    9.5436   -0.8560 H   0  0  0  0  0  0  0  0  0  0  0  0
   -2.9852   10.2313   -0.3281 C   0  0  0  0  0  0  0  0  0  0  0  0
   -2.9078   11.2114   -0.8007 H   0  0  0  0  0  0  0  0  0  0  0  0
   -4.0368   10.0264   -0.1422 H   0  0  0  0  0  0  0  0  0  0  0  0
   -2.6061    9.4904   -1.0311 H   0  0  0  0  0  0  0  0  0  0  0  0
   -2.9240    9.8364    4.6586 C   0  0  0  0  0  0  0  0  0  0  0  0
   -2.6742    8.8876    5.1353 H   0  0  0  0  0  0  0  0  0  0  0  0
   -3.9970    9.8556    4.4830 H   0  0  0  0  0  0  0  0  0  0  0  0
   -2.6717   10.6364    5.3537 H   0  0  0  0  0  0  0  0  0  0  0  0
    2.7050   10.3460    5.5530 C   0  0  0  0  0  0  0  0  0  0  0  0
    3.5188   11.4624    5.4145 C   0  0  0  0  0  0  0  0  0  0  0  0
    3.6154   11.9299    4.4439 H   0  0  0  0  0  0  0  0  0  0  0  0
    4.2141   11.9507    6.5073 C   0  0  0  0  0  0  0  0  0  0  0  0
    4.8533   12.8141    6.3965 H   0  0  0  0  0  0  0  0  0  0  0  0
    4.0927   11.3299    7.7387 C   0  0  0  0  0  0  0  0  0  0  0  0
    4.6378   11.7082    8.5912 H   0  0  0  0  0  0  0  0  0  0  0  0
    3.2741   10.2195    7.8812 C   0  0  0  0  0  0  0  0  0  0  0  0
    3.1806    9.7370    8.8435 H   0  0  0  0  0  0  0  0  0  0  0  0
    2.5794    9.7266    6.7932 C   0  0  0  0  0  0  0  0  0  0  0  0
    1.9459    8.8560    6.8977 H   0  0  0  0  0  0  0  0  0  0  0  0
    1.9140    7.9461    4.2651 C   0  0  0  0  0  0  0  0  0  0  0  0
    3.1600    7.4045    4.5690 C   0  0  0  0  0  0  0  0  0  0  0  0
    3.9945    8.0655    4.7588 H   0  0  0  0  0  0  0  0  0  0  0  0
    3.3240    6.0329    4.6194 C   0  0  0  0  0  0  0  0  0  0  0  0
    4.2905    5.6155    4.8612 H   0  0  0  0  0  0  0  0  0  0  0  0
    2.2527    5.1946    4.3553 C   0  0  0  0  0  0  0  0  0  0  0  0
    2.3816    4.1229    4.3975 H   0  0  0  0  0  0  0  0  0  0  0  0
    1.0191    5.7306    4.0224 C   0  0  0  0  0  0  0  0  0  0  0  0
    0.1882    5.0768    3.7991 H   0  0  0  0  0  0  0  0  0  0  0  0
    0.8487    7.1019    3.9677 C   0  0  0  0  0  0  0  0  0  0  0  0
   -0.1071    7.5193    3.6824 H   0  0  0  0  0  0  0  0  0  0  0  0
    1.4497   12.9118    0.1150 C   0  0  0  0  0  0  0  0  0  0  0  0
    0.2631   13.5379    0.4834 C   0  0  0  0  0  0  0  0  0  0  0  0
   -0.5962   12.9445    0.7634 H   0  0  0  0  0  0  0  0  0  0  0  0
    0.1892   14.9188    0.5055 C   0  0  0  0  0  0  0  0  0  0  0  0
   -0.7361   15.4023    0.7847 H   0  0  0  0  0  0  0  0  0  0  0  0
    1.2984   15.6817    0.1783 C   0  0  0  0  0  0  0  0  0  0  0  0
    1.2366   16.7600    0.1972 H   0  0  0  0  0  0  0  0  0  0  0  0
    2.4904   15.0611   -0.1596 C   0  0  0  0  0  0  0  0  0  0  0  0
    3.3605   15.6548   -0.3988 H   0  0  0  0  0  0  0  0  0  0  0  0
    2.5703   13.6814   -0.1860 C   0  0  0  0  0  0  0  0  0  0  0  0
    3.5006   13.1897   -0.4354 H   0  0  0  0  0  0  0  0  0  0  0  0
    2.6132   10.7767   -1.3293 C   0  0  0  0  0  0  0  0  0  0  0  0
    2.2972   11.3962   -2.5354 C   0  0  0  0  0  0  0  0  0  0  0  0
    1.4801   12.1039   -2.5782 H   0  0  0  0  0  0  0  0  0  0  0  0
    3.0361   11.1142   -3.6681 C   0  0  0  0  0  0  0  0  0  0  0  0
    2.7931   11.5968   -4.6039 H   0  0  0  0  0  0  0  0  0  0  0  0
    4.0908   10.2157   -3.6043 C   0  0  0  0  0  0  0  0  0  0  0  0
    4.6685   10.0020   -4.4918 H   0  0  0  0  0  0  0  0  0  0  0  0
    4.4051    9.5972   -2.4065 C   0  0  0  0  0  0  0  0  0  0  0  0
    5.2288    8.9004   -2.3565 H   0  0  0  0  0  0  0  0  0  0  0  0
    3.6663    9.8737   -1.2687 C   0  0  0  0  0  0  0  0  0  0  0  0
    3.9113    9.4082   -0.3240 H   0  0  0  0  0  0  0  0  0  0  0  0
  1  2  1  0  0  0  0
  1  9  1  0  0  0  0
  1  3  1  0  0  0  0
  3 37  1  0  0  0  0
  3  5  1  0  0  0  0
  3 26  1  0  0  0  0
  4  1  1  0  0  0  0
  5  7  1  0  0  0  0
  5  6  1  0  0  0  0
  8 14  1  0  0  0  0
  8  5  1  0  0  0  0
  9  8  2  0  0  0  0
 10 11  2  0  0  0  0
 10  9  1  0  0  0  0
 11 12  1  0  0  0  0
 12 13  1  0  0  0  0
 12 14  2  0  0  0  0
 14 22  1  0  0  0  0
 15  4  1  0  0  0  0
 15 10  1  0  0  0  0
 16 15  1  0  0  0  0
 17 15  1  0  0  0  0
 18 20  1  0  0  0  0
 18 11  1  0  0  0  0
 19 18  1  0  0  0  0
 21 18  1  0  0  0  0
 22 23  1  0  0  0  0
 22 25  1  0  0  0  0
 24 22  1  0  0  0  0
 26 35  1  0  0  0  0
 27 26  2  0  0  0  0
 27 29  1  0  0  0  0
 28 27  1  0  0  0  0
 29 31  2  0  0  0  0
 30 29  1  0  0  0  0
 31 33  1  0  0  0  0
 31 32  1  0  0  0  0
 33 34  1  0  0  0  0
 35 36  1  0  0  0  0
 35 33  2  0  0  0  0
 37 38  1  0  0  0  0
 38 40  2  0  0  0  0
 38 39  1  0  0  0  0
 40 41  1  0  0  0  0
 42 43  1  0  0  0  0
 42 40  1  0  0  0  0
 44 42  2  0  0  0  0
 45 44  1  0  0  0  0
 46 44  1  0  0  0  0
 46 37  2  0  0  0  0
 47 46  1  0  0  0  0
 48  4  1  0  0  0  0
 48 49  1  0  0  0  0
 49 51  2  0  0  0  0
 49 50  1  0  0  0  0
 51 52  1  0  0  0  0
 53 54  1  0  0  0  0
 53 51  1  0  0  0  0
 55 53  2  0  0  0  0
 56 55  1  0  0  0  0
 57 55  1  0  0  0  0
 57 48  2  0  0  0  0
 58 57  1  0  0  0  0
 59 68  1  0  0  0  0
 59  4  1  0  0  0  0
 60 59  2  0  0  0  0
 61 60  1  0  0  0  0
 62 64  2  0  0  0  0
 62 60  1  0  0  0  0
 63 62  1  0  0  0  0
 64 66  1  0  0  0  0
 65 64  1  0  0  0  0
 66 67  1  0  0  0  0
 66 68  2  0  0  0  0
 68 69  1  0  0  0  0
M  END
$$$$
