CSD_code = GULZAO | q = 0 | S = 0 | Stoichiometry = C20H43F3OP2Ru | MND = 6
 OpenBabel04212202043D

 70 69  0  0  0  0  0  0  0  0999 V2000
    3.6387    2.9351    7.3859 Ru  0  0  0  0  0  0  0  0  0  0  0  0
    4.0168    4.0260    5.9667 C   0  0  0  0  0  2  0  0  0  0  0  0
    4.1836    4.6929    5.0400 O   0  0  0  0  0  1  0  0  0  0  0  0
    3.1655    1.7081    8.9398 F   0  0  0  0  0  0  0  0  0  0  0  0
    5.2296    3.2294    8.3604 C   0  0  0  0  0  3  0  0  0  0  0  0
    6.2857    3.9996    8.0789 F   0  0  0  0  0  0  0  0  0  0  0  0
    5.5397    2.6825    9.5247 F   0  0  0  0  0  0  0  0  0  0  0  0
    2.4058    4.5583    8.6710 P   0  0  0  0  0  4  0  0  0  0  0  0
    2.7806    4.2524   10.4364 C   0  0  0  0  0  0  0  0  0  0  0  0
    2.8930    6.3875    8.4815 C   0  0  0  0  0  0  0  0  0  0  0  0
    2.2583    6.9562    7.2135 C   0  0  0  0  0  0  0  0  0  0  0  0
    2.5383    7.2556    9.6895 C   0  0  0  0  0  0  0  0  0  0  0  0
    4.4141    6.4273    8.3187 C   0  0  0  0  0  0  0  0  0  0  0  0
    0.5120    4.3777    8.6314 C   0  0  0  0  0  0  0  0  0  0  0  0
   -0.0065    4.4515    7.1946 C   0  0  0  0  0  0  0  0  0  0  0  0
    0.2460    2.9739    9.1846 C   0  0  0  0  0  0  0  0  0  0  0  0
   -0.2570    5.3917    9.4780 C   0  0  0  0  0  0  0  0  0  0  0  0
    4.4704    0.8973    6.4053 P   0  0  0  0  0  4  0  0  0  0  0  0
    5.2246   -0.0860    7.7525 C   0  0  0  0  0  0  0  0  0  0  0  0
    5.9123    1.0357    5.1719 C   0  0  0  0  0  0  0  0  0  0  0  0
    6.8240    2.1557    5.6778 C   0  0  0  0  0  0  0  0  0  0  0  0
    6.7608   -0.2318    5.0611 C   0  0  0  0  0  0  0  0  0  0  0  0
    5.3741    1.4364    3.7995 C   0  0  0  0  0  0  0  0  0  0  0  0
    3.1484   -0.2963    5.7362 C   0  0  0  0  0  0  0  0  0  0  0  0
    2.2767   -0.6276    6.9519 C   0  0  0  0  0  0  0  0  0  0  0  0
    2.2849    0.3939    4.6794 C   0  0  0  0  0  0  0  0  0  0  0  0
    3.6855   -1.6011    5.1483 C   0  0  0  0  0  0  0  0  0  0  0  0
    2.3004    2.5981    6.7108 H   0  0  0  0  0  0  0  0  0  0  0  0
    2.7406    3.1771   10.6029 H   0  0  0  0  0  0  0  0  0  0  0  0
    3.7941    4.5917   10.6483 H   0  0  0  0  0  0  0  0  0  0  0  0
    2.0803    4.7611   11.0957 H   0  0  0  0  0  0  0  0  0  0  0  0
    2.7635    7.8774    6.9251 H   0  0  0  0  0  0  0  0  0  0  0  0
    2.3501    6.2462    6.3920 H   0  0  0  0  0  0  0  0  0  0  0  0
    1.2075    7.1881    7.3665 H   0  0  0  0  0  0  0  0  0  0  0  0
    2.8302    8.2839    9.4760 H   0  0  0  0  0  0  0  0  0  0  0  0
    1.4771    7.2537    9.9083 H   0  0  0  0  0  0  0  0  0  0  0  0
    3.0787    6.9376   10.5772 H   0  0  0  0  0  0  0  0  0  0  0  0
    4.7230    5.9300    7.4016 H   0  0  0  0  0  0  0  0  0  0  0  0
    4.7530    7.4616    8.2697 H   0  0  0  0  0  0  0  0  0  0  0  0
    4.9181    5.9562    9.1612 H   0  0  0  0  0  0  0  0  0  0  0  0
    0.0304    5.4622    6.7998 H   0  0  0  0  0  0  0  0  0  0  0  0
    0.5788    3.8051    6.5445 H   0  0  0  0  0  0  0  0  0  0  0  0
   -1.0429    4.1176    7.1643 H   0  0  0  0  0  0  0  0  0  0  0  0
   -0.7714    2.6650    8.9498 H   0  0  0  0  0  0  0  0  0  0  0  0
    0.9296    2.2537    8.7408 H   0  0  0  0  0  0  0  0  0  0  0  0
    0.3672    2.9452   10.2648 H   0  0  0  0  0  0  0  0  0  0  0  0
   -0.2407    6.3835    9.0332 H   0  0  0  0  0  0  0  0  0  0  0  0
   -1.2987    5.0750    9.5293 H   0  0  0  0  0  0  0  0  0  0  0  0
    0.1168    5.4476   10.4976 H   0  0  0  0  0  0  0  0  0  0  0  0
    5.3930   -1.1196    7.4571 H   0  0  0  0  0  0  0  0  0  0  0  0
    6.1716    0.3710    8.0385 H   0  0  0  0  0  0  0  0  0  0  0  0
    4.5547   -0.0440    8.6097 H   0  0  0  0  0  0  0  0  0  0  0  0
    7.7031    2.2329    5.0389 H   0  0  0  0  0  0  0  0  0  0  0  0
    6.3120    3.1155    5.6603 H   0  0  0  0  0  0  0  0  0  0  0  0
    7.1708    1.9607    6.6915 H   0  0  0  0  0  0  0  0  0  0  0  0
    6.1840   -1.0949    4.7508 H   0  0  0  0  0  0  0  0  0  0  0  0
    7.5368   -0.0662    4.3137 H   0  0  0  0  0  0  0  0  0  0  0  0
    7.2539   -0.4610    6.0021 H   0  0  0  0  0  0  0  0  0  0  0  0
    6.1843    1.8171    3.1785 H   0  0  0  0  0  0  0  0  0  0  0  0
    4.9319    0.5876    3.2843 H   0  0  0  0  0  0  0  0  0  0  0  0
    4.6249    2.2212    3.9001 H   0  0  0  0  0  0  0  0  0  0  0  0
    2.0461    0.2753    7.5129 H   0  0  0  0  0  0  0  0  0  0  0  0
    1.3380   -1.0754    6.6294 H   0  0  0  0  0  0  0  0  0  0  0  0
    2.7753   -1.3293    7.6164 H   0  0  0  0  0  0  0  0  0  0  0  0
    2.8172    0.5276    3.7427 H   0  0  0  0  0  0  0  0  0  0  0  0
    1.4017   -0.2114    4.4794 H   0  0  0  0  0  0  0  0  0  0  0  0
    1.9570    1.3688    5.0326 H   0  0  0  0  0  0  0  0  0  0  0  0
    2.8435   -2.2721    4.9786 H   0  0  0  0  0  0  0  0  0  0  0  0
    4.1721   -1.4415    4.1894 H   0  0  0  0  0  0  0  0  0  0  0  0
    4.3735   -2.1062    5.8222 H   0  0  0  0  0  0  0  0  0  0  0  0
  1  5  1  0  0  0  0
  1  8  1  0  0  0  0
  1  4  1  0  0  0  0
  2  1  1  0  0  0  0
  3  2  1  0  0  0  0
  5  7  1  0  0  0  0
  6  5  1  0  0  0  0
  8  9  1  0  0  0  0
  9 29  1  0  0  0  0
  9 30  1  0  0  0  0
  9 31  1  0  0  0  0
 10  8  1  0  0  0  0
 10 12  1  0  0  0  0
 11 34  1  0  0  0  0
 11 10  1  0  0  0  0
 12 36  1  0  0  0  0
 12 37  1  0  0  0  0
 13 10  1  0  0  0  0
 13 40  1  0  0  0  0
 14  8  1  0  0  0  0
 14 16  1  0  0  0  0
 14 17  1  0  0  0  0
 15 14  1  0  0  0  0
 16 46  1  0  0  0  0
 17 48  1  0  0  0  0
 17 49  1  0  0  0  0
 18  1  1  0  0  0  0
 18 19  1  0  0  0  0
 19 51  1  0  0  0  0
 19 52  1  0  0  0  0
 20 21  1  0  0  0  0
 20 18  1  0  0  0  0
 21 55  1  0  0  0  0
 22 20  1  0  0  0  0
 22 58  1  0  0  0  0
 23 61  1  0  0  0  0
 23 20  1  0  0  0  0
 24 18  1  0  0  0  0
 24 25  1  0  0  0  0
 25 62  1  0  0  0  0
 25 64  1  0  0  0  0
 26 67  1  0  0  0  0
 26 24  1  0  0  0  0
 27 24  1  0  0  0  0
 27 70  1  0  0  0  0
 28  1  1  0  0  0  0
 32 11  1  0  0  0  0
 33 11  1  0  0  0  0
 35 12  1  0  0  0  0
 38 13  1  0  0  0  0
 39 13  1  0  0  0  0
 41 15  1  0  0  0  0
 42 15  1  0  0  0  0
 43 15  1  0  0  0  0
 44 16  1  0  0  0  0
 45 16  1  0  0  0  0
 47 17  1  0  0  0  0
 50 19  1  0  0  0  0
 53 21  1  0  0  0  0
 54 21  1  0  0  0  0
 56 22  1  0  0  0  0
 57 22  1  0  0  0  0
 59 23  1  0  0  0  0
 60 23  1  0  0  0  0
 63 25  1  0  0  0  0
 65 26  1  0  0  0  0
 66 26  1  0  0  0  0
 68 27  1  0  0  0  0
 69 27  1  0  0  0  0
M  END
$$$$
