CSD_code = GUMHOM | q = 0 | S = 0 | Stoichiometry = C30H34ClPPdSSi | MND = 4
 OpenBabel04212202043D

 69 73  0  0  1  0  0  0  0  0999 V2000
   10.5462    0.3341    4.5852 Pd  0  0  2  0  0  0  0  0  0  0  0  0
    8.9737    1.6506    4.4140 C   0  0  0  0  0  0  0  0  0  0  0  0
    7.9946    1.1856    4.2556 H   0  0  0  0  0  0  0  0  0  0  0  0
    9.1953    2.3288    3.5833 H   0  0  0  0  0  0  0  0  0  0  0  0
    8.9426    2.2376    5.3381 H   0  0  0  0  0  0  0  0  0  0  0  0
   11.8561    2.1664    4.8754 Cl  0  0  0  0  0  0  0  0  0  0  0  0
   12.6386   -0.9439    4.9007 S   0  0  1  0  0  3  0  0  0  0  0  0
   12.2071   -1.8724    6.3464 C   0  0  0  0  0  0  0  0  0  0  0  0
   12.7023   -3.1325    6.6402 C   0  0  0  0  0  0  0  0  0  0  0  0
   13.3680   -3.6332    5.9540 H   0  0  0  0  0  0  0  0  0  0  0  0
   12.3251   -3.7516    7.8185 C   0  0  0  0  0  0  0  0  0  0  0  0
   12.6977   -4.7407    8.0407 H   0  0  0  0  0  0  0  0  0  0  0  0
   11.4845   -3.1098    8.7120 C   0  0  0  0  0  0  0  0  0  0  0  0
   11.1914   -3.6030    9.6265 H   0  0  0  0  0  0  0  0  0  0  0  0
   11.0333   -1.8272    8.4398 C   0  0  0  0  0  0  0  0  0  0  0  0
   10.3973   -1.3147    9.1464 H   0  0  0  0  0  0  0  0  0  0  0  0
   11.3976   -1.2046    7.2625 C   0  0  0  0  0  0  0  0  0  0  0  0
   11.0860   -0.1773    7.0430 H   0  0  0  0  0  0  0  0  0  0  0  0
   12.8633   -2.0766    3.4949 C   0  0  2  0  0  0  0  0  0  0  0  0
   13.6153   -2.8070    3.7935 H   0  0  0  0  0  0  0  0  0  0  0  0
   13.5037   -0.8483    2.1296 Si  0  0  0  0  0  0  0  0  0  0  0  0
   14.1220   -1.9130    0.6760 C   0  0  0  0  0  0  0  0  0  0  0  0
   13.3305   -2.5022    0.2248 H   0  0  0  0  0  0  0  0  0  0  0  0
   14.9084   -2.5933    0.9847 H   0  0  0  0  0  0  0  0  0  0  0  0
   14.5305   -1.2729   -0.0965 H   0  0  0  0  0  0  0  0  0  0  0  0
   14.8893    0.2144    2.8801 C   0  0  0  0  0  0  0  0  0  0  0  0
   15.6027   -0.3779    3.4465 H   0  0  0  0  0  0  0  0  0  0  0  0
   14.4676    0.9561    3.5539 H   0  0  0  0  0  0  0  0  0  0  0  0
   15.4381    0.7435    2.1075 H   0  0  0  0  0  0  0  0  0  0  0  0
   12.0272    0.2308    1.5945 C   0  0  0  0  0  0  0  0  0  0  0  0
   12.3690    1.0987    1.0377 H   0  0  0  0  0  0  0  0  0  0  0  0
   11.4870    0.6177    2.4813 H   0  0  0  0  0  0  0  0  0  0  0  0
   11.3197   -0.3042    0.9632 H   0  0  0  0  0  0  0  0  0  0  0  0
   11.5842   -2.7725    3.0353 C   0  0  0  0  0  0  0  0  0  0  0  0
   10.8841   -2.0072    2.6855 H   0  0  0  0  0  0  0  0  0  0  0  0
   11.8444   -3.4043    2.1810 H   0  0  0  0  0  0  0  0  0  0  0  0
   10.9226   -3.6063    4.0912 C   0  0  0  0  0  0  0  0  0  0  0  0
    9.8444   -3.1056    4.8310 C   0  0  0  0  0  0  0  0  0  0  0  0
    9.3124   -3.8658    5.8675 C   0  0  0  0  0  0  0  0  0  0  0  0
    8.5029   -3.4684    6.4627 H   0  0  0  0  0  0  0  0  0  0  0  0
    9.8067   -5.1279    6.1398 C   0  0  0  0  0  0  0  0  0  0  0  0
    9.3798   -5.7086    6.9437 H   0  0  0  0  0  0  0  0  0  0  0  0
   10.8376   -5.6463    5.3756 C   0  0  0  0  0  0  0  0  0  0  0  0
   11.2142   -6.6391    5.5722 H   0  0  0  0  0  0  0  0  0  0  0  0
   11.3930   -4.8835    4.3644 C   0  0  0  0  0  0  0  0  0  0  0  0
   12.2087   -5.2801    3.7754 H   0  0  0  0  0  0  0  0  0  0  0  0
    9.1875   -1.4463    4.4260 P   0  0  0  0  0  4  0  0  0  0  0  0
    7.7355   -1.3221    5.5227 C   0  0  0  0  0  0  0  0  0  0  0  0
    7.8763   -0.5194    6.6518 C   0  0  0  0  0  0  0  0  0  0  0  0
    8.8088    0.0204    6.8036 H   0  0  0  0  0  0  0  0  0  0  0  0
    6.8327   -0.3854    7.5483 C   0  0  0  0  0  0  0  0  0  0  0  0
    6.9473    0.2385    8.4224 H   0  0  0  0  0  0  0  0  0  0  0  0
    5.6350   -1.0428    7.3171 C   0  0  0  0  0  0  0  0  0  0  0  0
    4.8159   -0.9365    8.0130 H   0  0  0  0  0  0  0  0  0  0  0  0
    5.4828   -1.8266    6.1850 C   0  0  0  0  0  0  0  0  0  0  0  0
    4.5445   -2.3284    5.9971 H   0  0  0  0  0  0  0  0  0  0  0  0
    6.5271   -1.9693    5.2884 C   0  0  0  0  0  0  0  0  0  0  0  0
    6.3974   -2.5762    4.4040 H   0  0  0  0  0  0  0  0  0  0  0  0
    8.4481   -1.7698    2.7886 C   0  0  0  0  0  0  0  0  0  0  0  0
    8.4316   -0.7292    1.8651 C   0  0  0  0  0  0  0  0  0  0  0  0
    8.8647    0.2271    2.1407 H   0  0  0  0  0  0  0  0  0  0  0  0
    7.8822   -0.9207    0.6103 C   0  0  0  0  0  0  0  0  0  0  0  0
    7.8691   -0.1089   -0.1018 H   0  0  0  0  0  0  0  0  0  0  0  0
    7.3551   -2.1549    0.2665 C   0  0  0  0  0  0  0  0  0  0  0  0
    6.9256   -2.3062   -0.7127 H   0  0  0  0  0  0  0  0  0  0  0  0
    7.3902   -3.2008    1.1747 C   0  0  0  0  0  0  0  0  0  0  0  0
    6.9925   -4.1676    0.9017 H   0  0  0  0  0  0  0  0  0  0  0  0
    7.9376   -3.0145    2.4313 C   0  0  0  0  0  0  0  0  0  0  0  0
    7.9845   -3.8393    3.1297 H   0  0  0  0  0  0  0  0  0  0  0  0
  1  6  1  1  0  0  0
  1  7  1  0  0  0  0
  2  1  1  0  0  0  0
  2  5  1  0  0  0  0
  3  2  1  0  0  0  0
  4  2  1  0  0  0  0
  7  8  1  1  0  0  0
  8  9  2  0  0  0  0
  8 17  1  0  0  0  0
  9 11  1  0  0  0  0
 10  9  1  0  0  0  0
 11 12  1  0  0  0  0
 11 13  2  0  0  0  0
 13 14  1  0  0  0  0
 15 13  1  0  0  0  0
 15 16  1  0  0  0  0
 17 15  2  0  0  0  0
 18 17  1  0  0  0  0
 19 20  1  1  0  0  0
 19  7  1  0  0  0  0
 21 26  1  0  0  0  0
 21 19  1  0  0  0  0
 22 24  1  0  0  0  0
 22 21  1  0  0  0  0
 23 22  1  0  0  0  0
 25 22  1  0  0  0  0
 26 27  1  0  0  0  0
 26 28  1  0  0  0  0
 29 26  1  0  0  0  0
 30 21  1  0  0  0  0
 30 32  1  0  0  0  0
 31 30  1  0  0  0  0
 33 30  1  0  0  0  0
 34 19  1  0  0  0  0
 34 37  1  0  0  0  0
 35 34  1  0  0  0  0
 36 34  1  0  0  0  0
 37 45  2  0  0  0  0
 37 38  1  0  0  0  0
 38 39  2  0  0  0  0
 39 41  1  0  0  0  0
 39 40  1  0  0  0  0
 41 42  1  0  0  0  0
 43 44  1  0  0  0  0
 43 41  2  0  0  0  0
 45 43  1  0  0  0  0
 46 45  1  0  0  0  0
 47  1  1  0  0  0  0
 47 38  1  0  0  0  0
 47 48  1  0  0  0  0
 48 49  1  0  0  0  0
 49 50  1  0  0  0  0
 49 51  2  0  0  0  0
 51 52  1  0  0  0  0
 53 51  1  0  0  0  0
 53 54  1  0  0  0  0
 55 53  2  0  0  0  0
 56 55  1  0  0  0  0
 57 48  2  0  0  0  0
 57 55  1  0  0  0  0
 58 57  1  0  0  0  0
 59 47  1  0  0  0  0
 60 61  1  0  0  0  0
 60 59  2  0  0  0  0
 62 60  1  0  0  0  0
 63 62  1  0  0  0  0
 64 62  2  0  0  0  0
 64 66  1  0  0  0  0
 65 64  1  0  0  0  0
 66 68  2  0  0  0  0
 67 66  1  0  0  0  0
 68 59  1  0  0  0  0
 68 69  1  0  0  0  0
M  END
$$$$
