CSD_code = GUNCUN | q = 0 | S = 0 | Stoichiometry = C22H17BrN2O3PRe | MND = 6
 OpenBabel04212202043D

 47 50  0  0  1  0  0  0  0  0999 V2000
   10.6705    3.2145    9.9627 Re  0  0  0  0  0  0  0  0  0  0  0  0
    9.4330    5.4611    9.7650 Br  0  0  0  0  0  0  0  0  0  0  0  0
    8.4892    2.4082    9.3097 P   0  0  0  0  0  4  0  0  0  0  0  0
   13.0403    4.6557   11.3315 O   0  0  0  0  0  1  0  0  0  0  0  0
   11.7787    0.3592   10.3503 O   0  0  0  0  0  1  0  0  0  0  0  0
   11.8859    3.5604    7.1371 O   0  0  0  0  0  1  0  0  0  0  0  0
    9.5648    3.1357   11.8920 N   0  0  0  0  0  0  0  0  0  0  0  0
    7.6325    2.6696   10.7681 N   0  0  0  0  0  0  0  0  0  0  0  0
   12.1926    4.0964   10.8066 C   0  0  0  0  0  2  0  0  0  0  0  0
   11.3870    1.4278   10.2068 C   0  0  0  0  0  2  0  0  0  0  0  0
   11.4665    3.4126    8.1943 C   0  0  0  0  0  2  0  0  0  0  0  0
    8.2833    3.0362   11.9039 C   0  0  1  0  0  3  0  0  0  0  0  0
    7.4626    3.3004   13.0998 C   0  0  0  0  0  0  0  0  0  0  0  0
    7.8904    2.8580   14.3493 C   0  0  0  0  0  0  0  0  0  0  0  0
    7.1310    3.1207   15.4738 C   0  0  0  0  0  0  0  0  0  0  0  0
    5.9509    3.8380   15.3629 C   0  0  0  0  0  0  0  0  0  0  0  0
    5.5285    4.2914   14.1240 C   0  0  0  0  0  0  0  0  0  0  0  0
    6.2750    4.0200   12.9923 C   0  0  0  0  0  0  0  0  0  0  0  0
    8.1544    0.6368    9.0381 C   0  0  0  0  0  0  0  0  0  0  0  0
    8.1673   -0.2479   10.1114 C   0  0  0  0  0  0  0  0  0  0  0  0
    8.0047   -1.6031    9.8943 C   0  0  0  0  0  0  0  0  0  0  0  0
    7.8473   -2.0838    8.6045 C   0  0  0  0  0  0  0  0  0  0  0  0
    7.8593   -1.2087    7.5303 C   0  0  0  0  0  0  0  0  0  0  0  0
    8.0188    0.1478    7.7434 C   0  0  0  0  0  0  0  0  0  0  0  0
    7.3909    3.1583    8.0756 C   0  0  0  0  0  0  0  0  0  0  0  0
    6.0271    2.8797    8.0988 C   0  0  0  0  0  0  0  0  0  0  0  0
    5.1960    3.4410    7.1484 C   0  0  0  0  0  0  0  0  0  0  0  0
    5.7213    4.2678    6.1673 C   0  0  0  0  0  0  0  0  0  0  0  0
    7.0810    4.5258    6.1287 C   0  0  0  0  0  0  0  0  0  0  0  0
    7.9179    3.9712    7.0804 C   0  0  0  0  0  0  0  0  0  0  0  0
    8.8070    2.2911   14.4353 H   0  0  0  0  0  0  0  0  0  0  0  0
    7.4635    2.7688   16.4385 H   0  0  0  0  0  0  0  0  0  0  0  0
    5.3635    4.0487   16.2436 H   0  0  0  0  0  0  0  0  0  0  0  0
    4.6163    4.8619   14.0379 H   0  0  0  0  0  0  0  0  0  0  0  0
    5.9602    4.4054   12.0328 H   0  0  0  0  0  0  0  0  0  0  0  0
    8.3072    0.1275   11.1175 H   0  0  0  0  0  0  0  0  0  0  0  0
    8.0079   -2.2863   10.7308 H   0  0  0  0  0  0  0  0  0  0  0  0
    7.7235   -3.1430    8.4360 H   0  0  0  0  0  0  0  0  0  0  0  0
    7.7486   -1.5850    6.5243 H   0  0  0  0  0  0  0  0  0  0  0  0
    8.0362    0.8355    6.9084 H   0  0  0  0  0  0  0  0  0  0  0  0
    5.6179    2.2107    8.8463 H   0  0  0  0  0  0  0  0  0  0  0  0
    4.1367    3.2302    7.1698 H   0  0  0  0  0  0  0  0  0  0  0  0
    5.0668    4.7068    5.4293 H   0  0  0  0  0  0  0  0  0  0  0  0
    7.4917    5.1636    5.3612 H   0  0  0  0  0  0  0  0  0  0  0  0
    8.9790    4.1769    7.0587 H   0  0  0  0  0  0  0  0  0  0  0  0
    9.9738    3.4462   12.7693 H   0  0  0  0  0  0  0  0  0  0  0  0
    6.6237    2.5918   10.8001 H   0  0  0  0  0  0  0  0  0  0  0  0
  1 10  1  0  0  0  0
  1  9  1  0  0  0  0
  1  7  1  0  0  0  0
  2  1  1  0  0  0  0
  3  1  1  0  0  0  0
  3  8  1  0  0  0  0
  6 11  1  0  0  0  0
  7 12  1  0  0  0  0
  7 46  1  0  0  0  0
  8 47  1  0  0  0  0
  8 12  1  0  0  0  0
  9  4  1  0  0  0  0
 10  5  1  0  0  0  0
 11  1  1  0  0  0  0
 12 13  1  1  0  0  0
 13 14  1  0  0  0  0
 14 31  1  0  0  0  0
 14 15  2  0  0  0  0
 15 32  1  0  0  0  0
 16 15  1  0  0  0  0
 16 33  1  0  0  0  0
 17 16  2  0  0  0  0
 18 13  2  0  0  0  0
 18 17  1  0  0  0  0
 19  3  1  0  0  0  0
 19 20  1  0  0  0  0
 20 36  1  0  0  0  0
 21 20  2  0  0  0  0
 21 37  1  0  0  0  0
 22 21  1  0  0  0  0
 23 24  1  0  0  0  0
 23 22  2  0  0  0  0
 24 19  2  0  0  0  0
 25 26  1  0  0  0  0
 25  3  1  0  0  0  0
 26 41  1  0  0  0  0
 27 42  1  0  0  0  0
 27 26  2  0  0  0  0
 28 27  1  0  0  0  0
 29 28  2  0  0  0  0
 29 30  1  0  0  0  0
 30 25  2  0  0  0  0
 34 17  1  0  0  0  0
 35 18  1  0  0  0  0
 38 22  1  0  0  0  0
 39 23  1  0  0  0  0
 40 24  1  0  0  0  0
 43 28  1  0  0  0  0
 44 29  1  0  0  0  0
 45 30  1  0  0  0  0
M  END
$$$$
