CSD_code = GUNVER | q = 0 | S = 0 | Stoichiometry = C20H29Cl2N2O3PPd | MND = 4
 OpenBabel04212202043D

 58 59  0  0  1  0  0  0  0  0999 V2000
    9.8422   12.9620   19.1444 Pd  0  0  0  0  0  0  0  0  0  0  0  0
    8.1232   14.2286   19.7473 Cl  0  0  0  0  0  0  0  0  0  0  0  0
    9.7487   13.7350   17.0492 Cl  0  0  0  0  0  0  0  0  0  0  0  0
   12.4498    8.3799   20.5429 P   0  0  1  0  0  0  0  0  0  0  0  0
   11.1213    8.9987   21.1974 O   0  0  0  0  0  0  0  0  0  0  0  0
   12.2595    8.6598   18.9475 O   0  0  0  0  0  0  0  0  0  0  0  0
   13.6400    8.9959   21.1114 O   0  0  0  0  0  0  0  0  0  0  0  0
    9.3954   11.0006   21.3205 N   0  0  0  0  0  2  0  0  0  0  0  0
   11.9060   11.1082   17.8993 N   0  0  0  0  0  2  0  0  0  0  0  0
    9.7510   11.9751   20.7871 C   0  0  0  0  0  3  0  0  0  0  0  0
    8.8593    9.7130   21.4463 C   0  0  2  0  0  0  0  0  0  0  0  0
    9.8142    8.7571   20.7066 C   0  0  0  0  0  0  0  0  0  0  0  0
    7.4012    9.7294   20.8930 C   0  0  0  0  0  0  0  0  0  0  0  0
    7.3611   10.0782   19.4021 C   0  0  0  0  0  0  0  0  0  0  0  0
    6.7692    8.3536   21.1220 C   0  0  0  0  0  0  0  0  0  0  0  0
    6.6117   10.7891   21.6690 C   0  0  0  0  0  0  0  0  0  0  0  0
   11.2295   11.8437   18.4911 C   0  0  0  0  0  2  0  0  0  0  0  0
   12.7853   10.2582   17.2289 C   0  0  2  0  0  0  0  0  0  0  0  0
   13.3427    9.2457   18.2430 C   0  0  0  0  0  0  0  0  0  0  0  0
   13.8512   11.1023   16.4721 C   0  0  0  0  0  0  0  0  0  0  0  0
   14.8633   10.1693   15.8047 C   0  0  0  0  0  0  0  0  0  0  0  0
   13.1191   11.9140   15.3977 C   0  0  0  0  0  0  0  0  0  0  0  0
   14.5703   12.0568   17.4263 C   0  0  0  0  0  0  0  0  0  0  0  0
   12.2808    6.5805   20.6900 C   0  0  0  0  0  0  0  0  0  0  0  0
   12.9552    5.9569   21.7275 C   0  0  0  0  0  0  0  0  0  0  0  0
   12.8416    4.5882   21.8968 C   0  0  0  0  0  0  0  0  0  0  0  0
   12.0521    3.8489   21.0301 C   0  0  0  0  0  0  0  0  0  0  0  0
   11.3792    4.4745   19.9926 C   0  0  0  0  0  0  0  0  0  0  0  0
   11.4921    5.8432   19.8198 C   0  0  0  0  0  0  0  0  0  0  0  0
    8.8476    9.4485   22.5097 H   0  0  0  0  0  0  0  0  0  0  0  0
    9.5307    7.7172   20.8957 H   0  0  0  0  0  0  0  0  0  0  0  0
    9.7923    8.9614   19.6322 H   0  0  0  0  0  0  0  0  0  0  0  0
    7.7728    9.2787   18.7906 H   0  0  0  0  0  0  0  0  0  0  0  0
    7.9067   11.0117   19.1818 H   0  0  0  0  0  0  0  0  0  0  0  0
    6.3280   10.2314   19.1010 H   0  0  0  0  0  0  0  0  0  0  0  0
    6.8220    8.0736   22.1714 H   0  0  0  0  0  0  0  0  0  0  0  0
    7.2610    7.5857   20.5306 H   0  0  0  0  0  0  0  0  0  0  0  0
    5.7224    8.3823   20.8313 H   0  0  0  0  0  0  0  0  0  0  0  0
    6.9774   11.7880   21.4398 H   0  0  0  0  0  0  0  0  0  0  0  0
    6.6874   10.6260   22.7417 H   0  0  0  0  0  0  0  0  0  0  0  0
    5.5620   10.7455   21.3913 H   0  0  0  0  0  0  0  0  0  0  0  0
   12.1865    9.7061   16.4914 H   0  0  0  0  0  0  0  0  0  0  0  0
   13.8837    8.4568   17.7134 H   0  0  0  0  0  0  0  0  0  0  0  0
   14.0107    9.7292   18.9614 H   0  0  0  0  0  0  0  0  0  0  0  0
   14.3609    9.4110   15.2081 H   0  0  0  0  0  0  0  0  0  0  0  0
   15.4934    9.6778   16.5411 H   0  0  0  0  0  0  0  0  0  0  0  0
   15.5054   10.7473   15.1448 H   0  0  0  0  0  0  0  0  0  0  0  0
   12.3467   12.5428   15.8360 H   0  0  0  0  0  0  0  0  0  0  0  0
   12.6520   11.2567   14.6673 H   0  0  0  0  0  0  0  0  0  0  0  0
   13.8221   12.5569   14.8750 H   0  0  0  0  0  0  0  0  0  0  0  0
   15.0899   11.5177   18.2143 H   0  0  0  0  0  0  0  0  0  0  0  0
   13.8674   12.7500   17.8833 H   0  0  0  0  0  0  0  0  0  0  0  0
   15.3042   12.6369   16.8728 H   0  0  0  0  0  0  0  0  0  0  0  0
   13.5672    6.5595   22.3812 H   0  0  0  0  0  0  0  0  0  0  0  0
   13.3685    4.0972   22.7010 H   0  0  0  0  0  0  0  0  0  0  0  0
   11.9636    2.7807   21.1602 H   0  0  0  0  0  0  0  0  0  0  0  0
   10.7683    3.8946   19.3166 H   0  0  0  0  0  0  0  0  0  0  0  0
   10.9847    6.3417   19.0067 H   0  0  0  0  0  0  0  0  0  0  0  0
  1  2  1  0  0  0  0
  1 10  2  0  0  0  0
  3  1  1  0  0  0  0
  4 24  1  0  0  0  0
  4  7  2  1  0  0  0
  4  5  1  0  0  0  0
  6  4  1  0  0  0  0
  8 11  1  0  0  0  0
  9 17  1  0  0  0  0
 10  8  1  0  0  0  0
 11 30  1  1  0  0  0
 12 31  1  0  0  0  0
 12  5  1  0  0  0  0
 12 11  1  0  0  0  0
 13 15  1  0  0  0  0
 13 11  1  0  0  0  0
 13 16  1  0  0  0  0
 14 13  1  0  0  0  0
 15 36  1  0  0  0  0
 16 40  1  0  0  0  0
 17  1  1  0  0  0  0
 18 42  1  6  0  0  0
 18  9  1  0  0  0  0
 18 19  1  0  0  0  0
 19  6  1  0  0  0  0
 19 44  1  0  0  0  0
 20 18  1  0  0  0  0
 20 23  1  0  0  0  0
 21 20  1  0  0  0  0
 21 46  1  0  0  0  0
 22 48  1  0  0  0  0
 22 20  1  0  0  0  0
 23 52  1  0  0  0  0
 23 51  1  0  0  0  0
 24 25  1  0  0  0  0
 25 26  2  0  0  0  0
 25 54  1  0  0  0  0
 26 55  1  0  0  0  0
 27 56  1  0  0  0  0
 27 26  1  0  0  0  0
 28 27  2  0  0  0  0
 29 28  1  0  0  0  0
 29 24  2  0  0  0  0
 32 12  1  0  0  0  0
 33 14  1  0  0  0  0
 34 14  1  0  0  0  0
 35 14  1  0  0  0  0
 37 15  1  0  0  0  0
 38 15  1  0  0  0  0
 39 16  1  0  0  0  0
 41 16  1  0  0  0  0
 43 19  1  0  0  0  0
 45 21  1  0  0  0  0
 47 21  1  0  0  0  0
 49 22  1  0  0  0  0
 50 22  1  0  0  0  0
 53 23  1  0  0  0  0
 57 28  1  0  0  0  0
 58 29  1  0  0  0  0
M  END
$$$$
