CSD_code = GUNVIU | q = 0 | S = 0 | Stoichiometry = C30H22Cl2Zr | MND = 12
 OpenBabel04212202043D

 55 60  0  0  1  0  0  0  0  0999 V2000
   -1.1639    7.7797    3.3447 Zr  0  0  0  0  0  0  0  0  0  0  0  0
   -2.7821    6.1275    3.0190 Cl  0  0  0  0  0  0  0  0  0  0  0  0
   -1.7176    9.3241    1.5476 C   0  0  1  0  0  0  0  0  0  0  0  0
   -0.4287    9.7355    1.9899 C   0  0  0  0  0  0  0  0  0  0  0  0
   -0.1871   10.7122    2.3942 H   0  0  0  0  0  0  0  0  0  0  0  0
    0.5082    8.7182    1.7351 C   0  0  0  0  0  0  0  0  0  0  0  0
    1.5783    8.7854    1.8842 H   0  0  0  0  0  0  0  0  0  0  0  0
   -0.1651    7.6716    1.0297 C   0  0  0  0  0  0  0  0  0  0  0  0
    0.2884    6.4596    0.4743 C   0  0  0  0  0  0  0  0  0  0  0  0
    1.3258    6.1717    0.5792 H   0  0  0  0  0  0  0  0  0  0  0  0
   -0.6013    5.6748   -0.2146 C   0  0  0  0  0  0  0  0  0  0  0  0
   -0.2708    4.7429   -0.6480 H   0  0  0  0  0  0  0  0  0  0  0  0
   -1.9388    6.0696   -0.3940 C   0  0  0  0  0  0  0  0  0  0  0  0
   -2.5949    5.4368   -0.9722 H   0  0  0  0  0  0  0  0  0  0  0  0
   -2.4220    7.2354    0.1440 C   0  0  0  0  0  0  0  0  0  0  0  0
   -3.4468    7.5369   -0.0236 H   0  0  0  0  0  0  0  0  0  0  0  0
   -1.5523    8.0486    0.8977 C   0  0  0  0  0  0  0  0  0  0  0  0
   -2.9700   10.0658    1.6962 C   0  0  0  0  0  0  0  0  0  0  0  0
   -3.0144   11.4551    1.5649 C   0  0  0  0  0  0  0  0  0  0  0  0
   -2.1114   11.9936    1.3151 H   0  0  0  0  0  0  0  0  0  0  0  0
   -4.2042   12.1386    1.7343 C   0  0  0  0  0  0  0  0  0  0  0  0
   -4.2245   13.2133    1.6279 H   0  0  0  0  0  0  0  0  0  0  0  0
   -5.3684   11.4506    2.0332 C   0  0  0  0  0  0  0  0  0  0  0  0
   -6.2964   11.9864    2.1624 H   0  0  0  0  0  0  0  0  0  0  0  0
   -5.3360   10.0710    2.1691 C   0  0  0  0  0  0  0  0  0  0  0  0
   -6.2412    9.5330    2.4097 H   0  0  0  0  0  0  0  0  0  0  0  0
   -4.1498    9.3795    2.0094 C   0  0  0  0  0  0  0  0  0  0  0  0
   -4.1234    8.3019    2.1437 H   0  0  0  0  0  0  0  0  0  0  0  0
    0.4538    6.1282    3.6712 Cl  0  0  0  0  0  0  0  0  0  0  0  0
   -0.6103    9.3241    5.1419 C   0  0  1  0  0  0  0  0  0  0  0  0
   -1.8992    9.7354    4.6995 C   0  0  0  0  0  0  0  0  0  0  0  0
   -2.8361    8.7181    4.9543 C   0  0  0  0  0  0  0  0  0  0  0  0
   -2.1408   10.7121    4.2952 H   0  0  0  0  0  0  0  0  0  0  0  0
   -3.9063    8.7854    4.8053 H   0  0  0  0  0  0  0  0  0  0  0  0
   -2.1628    7.6715    5.6596 C   0  0  0  0  0  0  0  0  0  0  0  0
   -0.7756    8.0485    5.7916 C   0  0  0  0  0  0  0  0  0  0  0  0
    0.6420   10.0658    4.9932 C   0  0  0  0  0  0  0  0  0  0  0  0
    0.6865   11.4551    5.1246 C   0  0  0  0  0  0  0  0  0  0  0  0
   -0.2165   11.9936    5.3743 H   0  0  0  0  0  0  0  0  0  0  0  0
    1.8763   12.1386    4.9551 C   0  0  0  0  0  0  0  0  0  0  0  0
    1.8966   13.2133    5.0614 H   0  0  0  0  0  0  0  0  0  0  0  0
    3.0404   11.4505    4.6561 C   0  0  0  0  0  0  0  0  0  0  0  0
    3.9685   11.9864    4.5269 H   0  0  0  0  0  0  0  0  0  0  0  0
    3.0081   10.0710    4.5203 C   0  0  0  0  0  0  0  0  0  0  0  0
    3.9132    9.5329    4.2797 H   0  0  0  0  0  0  0  0  0  0  0  0
    1.8219    9.3795    4.6801 C   0  0  0  0  0  0  0  0  0  0  0  0
    1.7955    8.3019    4.5457 H   0  0  0  0  0  0  0  0  0  0  0  0
   -2.6163    6.4596    6.2151 C   0  0  0  0  0  0  0  0  0  0  0  0
   -3.6537    6.1716    6.1102 H   0  0  0  0  0  0  0  0  0  0  0  0
   -1.7267    5.6747    6.9040 C   0  0  0  0  0  0  0  0  0  0  0  0
   -2.0571    4.7428    7.3374 H   0  0  0  0  0  0  0  0  0  0  0  0
   -0.3891    6.0695    7.0834 C   0  0  0  0  0  0  0  0  0  0  0  0
    0.2669    5.4368    7.6616 H   0  0  0  0  0  0  0  0  0  0  0  0
    0.0941    7.2353    6.5453 C   0  0  0  0  0  0  0  0  0  0  0  0
    1.1189    7.5368    6.7130 H   0  0  0  0  0  0  0  0  0  0  0  0
  1 29  1  0  0  0  0
  2  1  1  0  0  0  0
  3 18  1  0  0  0  0
  3  4  1  0  0  0  0
  3  1  1  1  0  0  0
  4  5  1  0  0  0  0
  6  7  1  0  0  0  0
  6  4  2  0  0  0  0
  8  6  1  0  0  0  0
  9 10  1  0  0  0  0
  9  8  2  0  0  0  0
 11  9  1  0  0  0  0
 12 11  1  0  0  0  0
 13 11  2  0  0  0  0
 13 15  1  0  0  0  0
 14 13  1  0  0  0  0
 15 17  2  0  0  0  0
 16 15  1  0  0  0  0
 17  8  1  0  0  0  0
 17  3  1  0  0  0  0
 18 27  1  0  0  0  0
 19 18  2  0  0  0  0
 19 21  1  0  0  0  0
 20 19  1  0  0  0  0
 21 23  2  0  0  0  0
 22 21  1  0  0  0  0
 23 24  1  0  0  0  0
 23 25  1  0  0  0  0
 25 26  1  0  0  0  0
 27 28  1  0  0  0  0
 27 25  2  0  0  0  0
 30  1  1  6  0  0  0
 30 36  1  0  0  0  0
 31 32  2  0  0  0  0
 31 30  1  0  0  0  0
 32 35  1  0  0  0  0
 33 31  1  0  0  0  0
 34 32  1  0  0  0  0
 35 36  2  0  0  0  0
 35 48  1  0  0  0  0
 36 54  1  0  0  0  0
 37 38  1  0  0  0  0
 37 30  1  0  0  0  0
 38 39  1  0  0  0  0
 40 41  1  0  0  0  0
 40 38  2  0  0  0  0
 42 40  1  0  0  0  0
 43 42  1  0  0  0  0
 44 42  2  0  0  0  0
 44 46  1  0  0  0  0
 45 44  1  0  0  0  0
 46 37  2  0  0  0  0
 47 46  1  0  0  0  0
 48 50  2  0  0  0  0
 49 48  1  0  0  0  0
 50 52  1  0  0  0  0
 50 51  1  0  0  0  0
 52 53  1  0  0  0  0
 54 55  1  0  0  0  0
 54 52  2  0  0  0  0
M  END
$$$$
