CSD_code = GUQDIG | q = 0 | S = 0 | Stoichiometry = C25H29ClN2OPd | MND = 4
 OpenBabel04212202043D

 59 62  0  0  0  0  0  0  0  0999 V2000
    8.5215   10.7195   13.2072 Pd  0  0  2  0  0  0  0  0  0  0  0  0
    6.7640    9.4215   12.6325 Cl  0  0  0  0  0  0  0  0  0  0  0  0
    7.4918   10.2974    9.8562 O   0  0  0  0  0  0  0  0  0  0  0  0
    7.1600    9.9335   10.7088 H   0  0  0  0  0  0  0  0  0  0  0  0
   10.1549   11.7493   13.7151 N   0  0  0  0  0  0  0  0  0  0  0  0
    7.6223   10.3856   15.3390 N   0  0  0  0  0  4  0  0  0  0  0  0
    6.6915   10.2660   14.9267 H   0  0  0  0  0  0  0  0  0  0  0  0
    7.9050    9.5047   15.7632 H   0  0  0  0  0  0  0  0  0  0  0  0
    8.5488   11.0965   10.0851 C   0  0  0  0  0  0  0  0  0  0  0  0
    9.1021   11.3239   11.3506 C   0  0  0  0  0  0  0  0  0  0  0  0
   10.2099   12.1942   11.4349 C   0  0  0  0  0  0  0  0  0  0  0  0
   10.7605   12.8126   10.3080 C   0  0  0  0  0  0  0  0  0  0  0  0
   11.6102   13.4703   10.4170 H   0  0  0  0  0  0  0  0  0  0  0  0
   10.1998   12.5672    9.0727 C   0  0  0  0  0  0  0  0  0  0  0  0
   10.6060   13.0314    8.1865 H   0  0  0  0  0  0  0  0  0  0  0  0
    9.1118   11.7210    8.9645 C   0  0  0  0  0  0  0  0  0  0  0  0
    8.6607   11.5159    8.0057 H   0  0  0  0  0  0  0  0  0  0  0  0
   10.7539   12.3491   12.7510 C   0  0  0  0  0  0  0  0  0  0  0  0
   11.6737   12.9095   12.9201 H   0  0  0  0  0  0  0  0  0  0  0  0
   10.6577   11.7358   15.0200 C   0  0  0  0  0  0  0  0  0  0  0  0
   10.7169   12.8944   15.7986 C   0  0  0  0  0  0  0  0  0  0  0  0
   11.2072   12.7989   17.0928 C   0  0  0  0  0  0  0  0  0  0  0  0
   11.2396   13.6910   17.7012 H   0  0  0  0  0  0  0  0  0  0  0  0
   11.6595   11.5988   17.6157 C   0  0  0  0  0  0  0  0  0  0  0  0
   11.6047   10.4615   16.8183 C   0  0  0  0  0  0  0  0  0  0  0  0
   11.9668    9.5217   17.2126 H   0  0  0  0  0  0  0  0  0  0  0  0
   11.0985   10.5052   15.5312 C   0  0  0  0  0  0  0  0  0  0  0  0
   10.2582   14.2173   15.2628 C   0  0  0  0  0  0  0  0  0  0  0  0
    9.8635   14.8287   16.0700 H   0  0  0  0  0  0  0  0  0  0  0  0
    9.4854   14.0896   14.5076 H   0  0  0  0  0  0  0  0  0  0  0  0
   11.0921   14.7545   14.8093 H   0  0  0  0  0  0  0  0  0  0  0  0
   12.1928   11.5098   19.0127 C   0  0  0  0  0  0  0  0  0  0  0  0
   12.2008   12.4865   19.4890 H   0  0  0  0  0  0  0  0  0  0  0  0
   13.2079   11.1149   19.0092 H   0  0  0  0  0  0  0  0  0  0  0  0
   11.5783   10.8369   19.6096 H   0  0  0  0  0  0  0  0  0  0  0  0
   11.0528    9.2760   14.6692 C   0  0  0  0  0  0  0  0  0  0  0  0
   10.0781    9.1861   14.1442 H   0  0  0  0  0  0  0  0  0  0  0  0
   11.2192    8.3802   15.2634 H   0  0  0  0  0  0  0  0  0  0  0  0
   11.8265    9.3261   13.9007 H   0  0  0  0  0  0  0  0  0  0  0  0
    7.6457   11.4459   16.2815 C   0  0  0  0  0  0  0  0  0  0  0  0
    7.1757   12.7062   15.8933 C   0  0  0  0  0  0  0  0  0  0  0  0
    7.2657   13.7602   16.7880 C   0  0  0  0  0  0  0  0  0  0  0  0
    6.9089   14.7352   16.4868 H   0  0  0  0  0  0  0  0  0  0  0  0
    7.8053   13.5943   18.0548 C   0  0  0  0  0  0  0  0  0  0  0  0
    8.2222   12.3277   18.4342 C   0  0  0  0  0  0  0  0  0  0  0  0
    8.6162   12.1771   19.4291 H   0  0  0  0  0  0  0  0  0  0  0  0
    8.1367   11.2447   17.5742 C   0  0  0  0  0  0  0  0  0  0  0  0
    6.5755   12.9092   14.5328 C   0  0  0  0  0  0  0  0  0  0  0  0
    6.3732   13.9632   14.3588 H   0  0  0  0  0  0  0  0  0  0  0  0
    5.6326   12.3643   14.4429 H   0  0  0  0  0  0  0  0  0  0  0  0
    7.2517   12.5429   13.7278 H   0  0  0  0  0  0  0  0  0  0  0  0
    7.9005   14.7485   19.0068 C   0  0  0  0  0  0  0  0  0  0  0  0
    7.9899   15.6900   18.4695 H   0  0  0  0  0  0  0  0  0  0  0  0
    8.7571   14.6353   19.6675 H   0  0  0  0  0  0  0  0  0  0  0  0
    7.0041   14.7995   19.6259 H   0  0  0  0  0  0  0  0  0  0  0  0
    8.5337    9.8745   18.0453 C   0  0  0  0  0  0  0  0  0  0  0  0
    8.8623    9.9182   19.0800 H   0  0  0  0  0  0  0  0  0  0  0  0
    9.3512    9.4706   17.4500 H   0  0  0  0  0  0  0  0  0  0  0  0
    7.6873    9.1870   17.9925 H   0  0  0  0  0  0  0  0  0  0  0  0
  1  2  1  6  0  0  0
  1  5  1  0  0  0  0
  1  6  1  0  0  0  0
  3  9  1  0  0  0  0
  3  4  1  0  0  0  0
  5 20  1  0  0  0  0
  6  8  1  0  0  0  0
  6 40  1  0  0  0  0
  7  6  1  0  0  0  0
  9 10  1  0  0  0  0
 10 11  1  0  0  0  0
 10  1  2  0  0  0  0
 11 18  2  0  0  0  0
 12 13  1  0  0  0  0
 12 11  1  0  0  0  0
 14 12  2  0  0  0  0
 15 14  1  0  0  0  0
 16 14  1  0  0  0  0
 16  9  2  0  0  0  0
 17 16  1  0  0  0  0
 18 19  1  0  0  0  0
 18  5  1  0  0  0  0
 20 27  2  0  0  0  0
 20 21  1  0  0  0  0
 21 22  2  0  0  0  0
 22 24  1  0  0  0  0
 22 23  1  0  0  0  0
 24 32  1  0  0  0  0
 25 26  1  0  0  0  0
 25 24  2  0  0  0  0
 27 25  1  0  0  0  0
 28 21  1  0  0  0  0
 28 29  1  0  0  0  0
 30 28  1  0  0  0  0
 31 28  1  0  0  0  0
 32 33  1  0  0  0  0
 32 35  1  0  0  0  0
 34 32  1  0  0  0  0
 36 38  1  0  0  0  0
 36 27  1  0  0  0  0
 37 36  1  0  0  0  0
 39 36  1  0  0  0  0
 40 47  1  0  0  0  0
 41 40  2  0  0  0  0
 41 42  1  0  0  0  0
 42 44  2  0  0  0  0
 43 42  1  0  0  0  0
 44 45  1  0  0  0  0
 44 52  1  0  0  0  0
 45 46  1  0  0  0  0
 47 56  1  0  0  0  0
 47 45  2  0  0  0  0
 48 41  1  0  0  0  0
 49 48  1  0  0  0  0
 50 48  1  0  0  0  0
 51 48  1  0  0  0  0
 52 55  1  0  0  0  0
 52 54  1  0  0  0  0
 53 52  1  0  0  0  0
 56 57  1  0  0  0  0
 58 56  1  0  0  0  0
 59 56  1  0  0  0  0
M  END
$$$$
