CSD_code = GUQLUB | q = 1 | S = 0 | Stoichiometry = C17H32ClN2Ru(1+) | MND = 9
 OpenBabel04212202043D

 53 53  0  0  1  0  0  0  0  0999 V2000
    1.0765    6.9143    9.7077 Ru  0  0  0  0  0  0  0  0  0  0  0  0
    2.0771    6.6294    7.6083 Cl  0  0  0  0  0 15  0  0  0  0  0  0
   -0.8122    8.2339    9.2347 C   0  0  0  0  0  0  0  0  0  0  0  0
   -0.9345    9.2062    8.7702 H   0  0  0  0  0  0  0  0  0  0  0  0
   -0.8379    5.8223    9.1041 C   0  0  0  0  0  3  0  0  0  0  0  0
   -0.9698    4.9077    8.5401 H   0  0  0  0  0  0  0  0  0  0  0  0
   -0.6842    8.1550   10.6403 C   0  0  0  0  0  0  0  0  0  0  0  0
   -0.7254    9.0689   11.2239 H   0  0  0  0  0  0  0  0  0  0  0  0
   -0.9489    7.0721    8.4490 C   0  0  0  0  0  0  0  0  0  0  0  0
   -0.8304    6.8433   12.8019 C   0  0  0  0  0  0  0  0  0  0  0  0
   -0.3488    7.6882   13.2903 H   0  0  0  0  0  0  0  0  0  0  0  0
   -0.4196    5.9186   13.2005 H   0  0  0  0  0  0  0  0  0  0  0  0
   -1.8894    6.8738   13.0639 H   0  0  0  0  0  0  0  0  0  0  0  0
   -0.6989    6.9174   11.3106 C   0  0  0  0  0  0  0  0  0  0  0  0
   -2.8079    7.5737    6.9298 C   0  0  0  0  0  0  0  0  0  0  0  0
   -3.1045    7.7026    5.8929 H   0  0  0  0  0  0  0  0  0  0  0  0
   -3.0127    8.4984    7.4642 H   0  0  0  0  0  0  0  0  0  0  0  0
   -3.4133    6.7809    7.3645 H   0  0  0  0  0  0  0  0  0  0  0  0
   -1.3179    7.2042    6.9933 C   0  0  0  0  0  0  0  0  0  0  0  0
   -0.7392    8.0325    6.5679 H   0  0  0  0  0  0  0  0  0  0  0  0
   -1.0513    5.9547    6.1577 C   0  0  0  0  0  0  0  0  0  0  0  0
   -0.0209    5.6261    6.2668 H   0  0  0  0  0  0  0  0  0  0  0  0
   -1.2214    6.1835    5.1093 H   0  0  0  0  0  0  0  0  0  0  0  0
   -1.7207    5.1430    6.4338 H   0  0  0  0  0  0  0  0  0  0  0  0
    2.4971    5.4536   10.4014 N   0  0  0  0  0  4  0  0  0  0  0  0
    2.7361    8.2867   10.2626 N   0  0  0  0  0  4  0  0  0  0  0  0
    2.2786    5.1268   11.8154 C   0  0  0  0  0  0  0  0  0  0  0  0
    3.1314    4.5695   12.2166 H   0  0  0  0  0  0  0  0  0  0  0  0
    1.3943    4.5020   11.9195 H   0  0  0  0  0  0  0  0  0  0  0  0
    2.1394    6.0279   12.4114 H   0  0  0  0  0  0  0  0  0  0  0  0
    2.4446    4.2029    9.6347 C   0  0  0  0  0  0  0  0  0  0  0  0
    2.5989    4.4142    8.5770 H   0  0  0  0  0  0  0  0  0  0  0  0
    1.4721    3.7291    9.7599 H   0  0  0  0  0  0  0  0  0  0  0  0
    3.2192    3.5107    9.9767 H   0  0  0  0  0  0  0  0  0  0  0  0
    3.8389    7.4658   10.8239 C   0  0  0  0  0  0  0  0  0  0  0  0
    4.8057    7.9404   10.6269 H   0  0  0  0  0  0  0  0  0  0  0  0
    3.7202    7.4025   11.9078 H   0  0  0  0  0  0  0  0  0  0  0  0
    2.2796    9.2135   11.3062 C   0  0  0  0  0  0  0  0  0  0  0  0
    3.1168    9.8141   11.6778 H   0  0  0  0  0  0  0  0  0  0  0  0
    1.8508    8.6615   12.1434 H   0  0  0  0  0  0  0  0  0  0  0  0
    1.5301    9.8908   10.9057 H   0  0  0  0  0  0  0  0  0  0  0  0
    3.2805    9.0823    9.1347 C   0  0  0  0  0  0  0  0  0  0  0  0
    4.0363    9.7725    9.5299 H   0  0  0  0  0  0  0  0  0  0  0  0
    3.7626    8.3882    8.4440 H   0  0  0  0  0  0  0  0  0  0  0  0
    3.8278    6.0647   10.2231 C   0  0  0  0  0  0  0  0  0  0  0  0
    4.6017    5.4478   10.6971 H   0  0  0  0  0  0  0  0  0  0  0  0
    4.0271    6.1210    9.1484 H   0  0  0  0  0  0  0  0  0  0  0  0
    2.2345    9.8690    8.3602 C   0  0  0  0  0  0  0  0  0  0  0  0
    1.4502    9.2011    8.0083 H   0  0  0  0  0  0  0  0  0  0  0  0
    2.7113   10.3082    7.4884 H   0  0  0  0  0  0  0  0  0  0  0  0
    1.7982   10.6754    8.9432 H   0  0  0  0  0  0  0  0  0  0  0  0
   -0.7162    5.7531   10.5071 C   0  0  2  0  0  0  0  0  0  0  0  0
   -0.7872    4.7829   10.9900 H   0  0  0  0  0  0  0  0  0  0  0  0
  1 26  1  0  0  0  0
  1 25  1  0  0  0  0
  1 52  1  0  0  0  0
  3  7  1  0  0  0  0
  4  3  1  0  0  0  0
  5 52  1  0  0  0  0
  6  5  1  0  0  0  0
  7  8  1  0  0  0  0
  7 14  2  0  0  0  0
  9  5  1  0  0  0  0
  9  3  2  0  0  0  0
 10 13  1  0  0  0  0
 10 12  1  0  0  0  0
 10 11  1  0  0  0  0
 14 10  1  0  0  0  0
 15 19  1  0  0  0  0
 15 18  1  0  0  0  0
 15 17  1  0  0  0  0
 16 15  1  0  0  0  0
 19  9  1  0  0  0  0
 20 19  1  0  0  0  0
 21 22  1  0  0  0  0
 21 24  1  0  0  0  0
 21 19  1  0  0  0  0
 23 21  1  0  0  0  0
 25 27  1  0  0  0  0
 26 35  1  0  0  0  0
 26 38  1  0  0  0  0
 27 29  1  0  0  0  0
 27 28  1  0  0  0  0
 27 30  1  0  0  0  0
 31 33  1  0  0  0  0
 31 34  1  0  0  0  0
 31 25  1  0  0  0  0
 32 31  1  0  0  0  0
 35 37  1  0  0  0  0
 36 35  1  0  0  0  0
 38 39  1  0  0  0  0
 38 40  1  0  0  0  0
 41 38  1  0  0  0  0
 42 43  1  0  0  0  0
 42 26  1  0  0  0  0
 44 42  1  0  0  0  0
 45 25  1  0  0  0  0
 45 46  1  0  0  0  0
 45 35  1  0  0  0  0
 47 45  1  0  0  0  0
 48 51  1  0  0  0  0
 48 42  1  0  0  0  0
 49 48  1  0  0  0  0
 50 48  1  0  0  0  0
 52 53  1  1  0  0  0
 52 14  1  0  0  0  0
M  END
$$$$
