CSD_code = GUSDUU | q = 0 | S = 0 | Stoichiometry = C25H19ClHgNOP | MND = 3
 OpenBabel04212202043D

 49 52  0  0  0  0  0  0  0  0999 V2000
    2.4005    2.0082   -0.0382 Hg  0  0  0  0  0  0  0  0  0  0  0  0
    2.4468    5.4042    3.3426 P   0  0  0  0  0  4  0  0  0  0  0  0
    2.0939    6.1159    1.7151 C   0  0  0  0  0  0  0  0  0  0  0  0
    0.8265    6.6609    1.5432 C   0  0  0  0  0  0  0  0  0  0  0  0
    0.1449    6.6944    2.3844 H   0  0  0  0  0  0  0  0  0  0  0  0
    2.9797    6.0358    0.6485 C   0  0  0  0  0  0  0  0  0  0  0  0
    3.9486    5.5783    0.7856 H   0  0  0  0  0  0  0  0  0  0  0  0
    1.3356    7.0690   -0.7629 C   0  0  0  0  0  0  0  0  0  0  0  0
    1.0377    7.4346   -1.7344 H   0  0  0  0  0  0  0  0  0  0  0  0
    0.4510    7.1408    0.3018 C   0  0  0  0  0  0  0  0  0  0  0  0
   -0.5338    7.5627    0.1625 H   0  0  0  0  0  0  0  0  0  0  0  0
    2.5955    6.5178   -0.5901 C   0  0  0  0  0  0  0  0  0  0  0  0
    3.2745    6.4439   -1.4257 H   0  0  0  0  0  0  0  0  0  0  0  0
    2.1448    7.9789    4.3593 C   0  0  0  0  0  0  0  0  0  0  0  0
    2.6215    8.3117    3.4473 H   0  0  0  0  0  0  0  0  0  0  0  0
    1.9021    6.6252    4.5580 C   0  0  0  0  0  0  0  0  0  0  0  0
    1.1320    8.4604    6.4790 C   0  0  0  0  0  0  0  0  0  0  0  0
    0.8292    9.1783    7.2269 H   0  0  0  0  0  0  0  0  0  0  0  0
    1.2797    6.1908    5.7200 C   0  0  0  0  0  0  0  0  0  0  0  0
    1.0960    5.1345    5.8450 H   0  0  0  0  0  0  0  0  0  0  0  0
    1.7563    8.8943    5.3198 C   0  0  0  0  0  0  0  0  0  0  0  0
    1.9379    9.9478    5.1655 H   0  0  0  0  0  0  0  0  0  0  0  0
    0.8926    7.1104    6.6783 C   0  0  0  0  0  0  0  0  0  0  0  0
    0.4035    6.7763    7.5814 H   0  0  0  0  0  0  0  0  0  0  0  0
    3.3522    3.2593   -1.7889 Cl  0  0  0  0  0  0  0  0  0  0  0  0
    4.2334    5.2636    3.6129 C   0  0  0  0  0  0  0  0  0  0  0  0
    1.8981    3.1657    2.7688 C   0  0  0  0  0  0  0  0  0  0  0  0
    4.7198    4.1538    4.2911 C   0  0  0  0  0  0  0  0  0  0  0  0
    4.0309    3.3823    4.6064 H   0  0  0  0  0  0  0  0  0  0  0  0
    1.2387    1.0730    1.5936 C   0  0  0  0  0  0  0  0  0  0  0  0
    1.1903    1.8696    2.7460 C   0  0  0  0  0  0  0  0  0  0  0  0
    5.0993    6.2713    3.2056 C   0  0  0  0  0  0  0  0  0  0  0  0
    4.7163    7.1379    2.6861 H   0  0  0  0  0  0  0  0  0  0  0  0
    0.5682   -0.1454    1.6077 C   0  0  0  0  0  0  0  0  0  0  0  0
    0.5837   -0.7895    0.7379 H   0  0  0  0  0  0  0  0  0  0  0  0
    6.9418    5.0372    4.1229 C   0  0  0  0  0  0  0  0  0  0  0  0
    8.0008    4.9456    4.3135 H   0  0  0  0  0  0  0  0  0  0  0  0
    6.0753    4.0402    4.5406 C   0  0  0  0  0  0  0  0  0  0  0  0
    6.4569    3.1726    5.0583 H   0  0  0  0  0  0  0  0  0  0  0  0
    6.4534    6.1518    3.4600 C   0  0  0  0  0  0  0  0  0  0  0  0
    7.1308    6.9289    3.1375 H   0  0  0  0  0  0  0  0  0  0  0  0
    0.4765    1.4595    3.8695 C   0  0  0  0  0  0  0  0  0  0  0  0
    0.4566    2.1015    4.7368 H   0  0  0  0  0  0  0  0  0  0  0  0
   -0.1834    0.2460    3.8617 C   0  0  0  0  0  0  0  0  0  0  0  0
   -0.7341   -0.0768    4.7331 H   0  0  0  0  0  0  0  0  0  0  0  0
   -0.1346   -0.5546    2.7332 C   0  0  0  0  0  0  0  0  0  0  0  0
   -0.6485   -1.5051    2.7219 H   0  0  0  0  0  0  0  0  0  0  0  0
    2.7954    3.4541    1.9318 O   0  0  0  0  0  0  0  0  0  0  0  0
    1.5705    4.0714    3.6938 N   0  0  0  0  0  2  0  0  0  0  0  0
  1 30  1  0  0  0  0
  2 26  1  0  0  0  0
  2 49  1  0  0  0  0
  2 16  1  0  0  0  0
  3  2  1  0  0  0  0
  4  3  1  0  0  0  0
  4  5  1  0  0  0  0
  6  7  1  0  0  0  0
  6  3  2  0  0  0  0
  8 12  2  0  0  0  0
  8 10  1  0  0  0  0
  9  8  1  0  0  0  0
 10  4  2  0  0  0  0
 11 10  1  0  0  0  0
 12  6  1  0  0  0  0
 13 12  1  0  0  0  0
 14 16  2  0  0  0  0
 14 21  1  0  0  0  0
 15 14  1  0  0  0  0
 16 19  1  0  0  0  0
 17 23  1  0  0  0  0
 17 18  1  0  0  0  0
 19 20  1  0  0  0  0
 19 23  2  0  0  0  0
 21 17  2  0  0  0  0
 22 21  1  0  0  0  0
 23 24  1  0  0  0  0
 25  1  1  0  0  0  0
 26 28  1  0  0  0  0
 27 49  1  0  0  0  0
 28 38  2  0  0  0  0
 28 29  1  0  0  0  0
 30 34  2  0  0  0  0
 30 31  1  0  0  0  0
 31 27  1  0  0  0  0
 31 42  2  0  0  0  0
 32 40  1  0  0  0  0
 32 26  2  0  0  0  0
 33 32  1  0  0  0  0
 34 46  1  0  0  0  0
 35 34  1  0  0  0  0
 36 37  1  0  0  0  0
 36 38  1  0  0  0  0
 38 39  1  0  0  0  0
 40 36  2  0  0  0  0
 41 40  1  0  0  0  0
 42 43  1  0  0  0  0
 44 42  1  0  0  0  0
 44 45  1  0  0  0  0
 46 44  2  0  0  0  0
 47 46  1  0  0  0  0
 48 27  2  0  0  0  0
M  END
$$$$
