CSD_code = GUSDII | q = 0 | S = 0 | Stoichiometry = C25H19AuCl2NOP | MND = 4
 OpenBabel04212202043D

 50 54  0  0  0  0  0  0  0  0999 V2000
    4.5105   13.4748    7.3204 Au  0  0  0  0  0  0  0  0  0  0  0  0
    2.9973   15.0675    8.1305 Cl  0  0  0  0  0  0  0  0  0  0  0  0
    5.6630   14.8018    5.9724 Cl  0  0  0  0  0  0  0  0  0  0  0  0
    2.5250   12.6308    9.6756 P   0  0  0  0  0  4  0  0  0  0  0  0
    3.5585   12.1643    8.4883 N   0  0  0  0  0  0  0  0  0  0  0  0
    2.9326    9.9727    8.5146 O   0  0  0  0  0  0  0  0  0  0  0  0
    4.8175   10.6683    7.1978 C   0  0  0  0  0  0  0  0  0  0  0  0
    5.4509   11.8180    6.7239 C   0  0  0  0  0  0  0  0  0  0  0  0
    6.5439   11.7037    5.8918 C   0  0  0  0  0  0  0  0  0  0  0  0
    7.0319   12.5884    5.5139 H   0  0  0  0  0  0  0  0  0  0  0  0
    7.0081   10.4409    5.5418 C   0  0  0  0  0  0  0  0  0  0  0  0
    7.8712   10.3581    4.8979 H   0  0  0  0  0  0  0  0  0  0  0  0
    6.3746    9.2984    6.0033 C   0  0  0  0  0  0  0  0  0  0  0  0
    6.7398    8.3240    5.7150 H   0  0  0  0  0  0  0  0  0  0  0  0
    5.2737    9.4067    6.8321 C   0  0  0  0  0  0  0  0  0  0  0  0
    4.7520    8.5399    7.2103 H   0  0  0  0  0  0  0  0  0  0  0  0
    3.6756   10.8415    8.1144 C   0  0  0  0  0  0  0  0  0  0  0  0
    3.3765   13.8585   10.6941 C   0  0  0  0  0  0  0  0  0  0  0  0
    2.6782   14.8373   11.3877 C   0  0  0  0  0  0  0  0  0  0  0  0
    1.6074   14.9158   11.2815 H   0  0  0  0  0  0  0  0  0  0  0  0
    3.3689   15.7456   12.1683 C   0  0  0  0  0  0  0  0  0  0  0  0
    2.8280   16.5176   12.6950 H   0  0  0  0  0  0  0  0  0  0  0  0
    4.7494   15.6778   12.2636 C   0  0  0  0  0  0  0  0  0  0  0  0
    5.2849   16.3950   12.8672 H   0  0  0  0  0  0  0  0  0  0  0  0
    5.4453   14.7017   11.5701 C   0  0  0  0  0  0  0  0  0  0  0  0
    6.5226   14.6548   11.6306 H   0  0  0  0  0  0  0  0  0  0  0  0
    4.7629   13.7893   10.7863 C   0  0  0  0  0  0  0  0  0  0  0  0
    5.3082   13.0405   10.2243 H   0  0  0  0  0  0  0  0  0  0  0  0
    2.2800   11.2383   10.8229 C   0  0  0  0  0  0  0  0  0  0  0  0
    1.0935   10.5143   10.8370 C   0  0  0  0  0  0  0  0  0  0  0  0
    0.3023   10.7582   10.1433 H   0  0  0  0  0  0  0  0  0  0  0  0
    0.9414    9.4628   11.7210 C   0  0  0  0  0  0  0  0  0  0  0  0
    0.0206    8.8987   11.7272 H   0  0  0  0  0  0  0  0  0  0  0  0
    1.9679    9.1254   12.5881 C   0  0  0  0  0  0  0  0  0  0  0  0
    1.8468    8.3005   13.2742 H   0  0  0  0  0  0  0  0  0  0  0  0
    3.1531    9.8415   12.5695 C   0  0  0  0  0  0  0  0  0  0  0  0
    3.9581    9.5764   13.2390 H   0  0  0  0  0  0  0  0  0  0  0  0
    3.3106   10.8986   11.6918 C   0  0  0  0  0  0  0  0  0  0  0  0
    4.2359   11.4578   11.6795 H   0  0  0  0  0  0  0  0  0  0  0  0
    0.8748   13.0544    9.0810 C   0  0  0  0  0  0  0  0  0  0  0  0
    0.6094   13.0163    7.7177 C   0  0  0  0  0  0  0  0  0  0  0  0
    1.3977   12.7559    7.0247 H   0  0  0  0  0  0  0  0  0  0  0  0
   -0.6566   13.3277    7.2579 C   0  0  0  0  0  0  0  0  0  0  0  0
   -0.8627   13.3060    6.1984 H   0  0  0  0  0  0  0  0  0  0  0  0
   -1.6547   13.6749    8.1544 C   0  0  0  0  0  0  0  0  0  0  0  0
   -2.6394   13.9289    7.7919 H   0  0  0  0  0  0  0  0  0  0  0  0
   -1.3962   13.6883    9.5160 C   0  0  0  0  0  0  0  0  0  0  0  0
   -2.1796   13.9444   10.2140 H   0  0  0  0  0  0  0  0  0  0  0  0
   -0.1352   13.3692    9.9856 C   0  0  0  0  0  0  0  0  0  0  0  0
    0.0632   13.3459   11.0489 H   0  0  0  0  0  0  0  0  0  0  0  0
  1  2  1  0  0  0  0
  1  5  1  0  0  0  0
  3  1  1  0  0  0  0
  4 18  1  0  0  0  0
  4 29  1  0  0  0  0
  5  4  1  0  0  0  0
  7 17  1  0  0  0  0
  8  7  2  0  0  0  0
  8  1  1  0  0  0  0
  9  8  1  0  0  0  0
 10  9  1  0  0  0  0
 11  9  2  0  0  0  0
 11 13  1  0  0  0  0
 12 11  1  0  0  0  0
 13 15  2  0  0  0  0
 14 13  1  0  0  0  0
 15  7  1  0  0  0  0
 15 16  1  0  0  0  0
 17  5  1  0  0  0  0
 17  6  2  0  0  0  0
 18 27  2  0  0  0  0
 18 19  1  0  0  0  0
 19 21  2  0  0  0  0
 20 19  1  0  0  0  0
 21 23  1  0  0  0  0
 21 22  1  0  0  0  0
 23 24  1  0  0  0  0
 25 26  1  0  0  0  0
 25 23  2  0  0  0  0
 27 25  1  0  0  0  0
 28 27  1  0  0  0  0
 29 30  2  0  0  0  0
 29 38  1  0  0  0  0
 30 32  1  0  0  0  0
 31 30  1  0  0  0  0
 32 33  1  0  0  0  0
 32 34  2  0  0  0  0
 34 35  1  0  0  0  0
 36 34  1  0  0  0  0
 36 37  1  0  0  0  0
 38 36  2  0  0  0  0
 39 38  1  0  0  0  0
 40  4  1  0  0  0  0
 40 49  1  0  0  0  0
 41 40  2  0  0  0  0
 42 41  1  0  0  0  0
 43 41  1  0  0  0  0
 43 45  2  0  0  0  0
 44 43  1  0  0  0  0
 45 47  1  0  0  0  0
 46 45  1  0  0  0  0
 47 49  2  0  0  0  0
 47 48  1  0  0  0  0
 49 50  1  0  0  0  0
M  END
$$$$
