CSD_code = GUSRUI | q = 0 | S = 0 | Stoichiometry = C15H14Cl2N4Pd | MND = 4
 OpenBabel04212202043D

 36 39  0  0  1  0  0  0  0  0999 V2000
    8.7440   10.8917    1.1705 C   0  0  2  0  0  3  0  0  0  0  0  0
    9.2323   12.5190   -0.1960 C   0  0  0  0  0  0  0  0  0  0  0  0
    9.4912   13.5082   -0.5128 H   0  0  0  0  0  0  0  0  0  0  0  0
    9.0206   11.3778   -0.9212 C   0  0  0  0  0  0  0  0  0  0  0  0
    9.0648   11.2172   -1.9805 H   0  0  0  0  0  0  0  0  0  0  0  0
    8.2267    8.0460    3.0759 C   0  0  0  0  0  0  0  0  0  0  0  0
    8.5833    6.7217    2.8868 C   0  0  0  0  0  0  0  0  0  0  0  0
    8.9743    6.4011    1.9250 H   0  0  0  0  0  0  0  0  0  0  0  0
    8.8274    4.4416    3.7758 C   0  0  0  0  0  0  0  0  0  0  0  0
    9.1531    4.1080    2.8022 H   0  0  0  0  0  0  0  0  0  0  0  0
    8.7183    3.5642    4.8184 C   0  0  0  0  0  0  0  0  0  0  0  0
    8.9673    2.5224    4.6824 H   0  0  0  0  0  0  0  0  0  0  0  0
    8.2802    4.0074    6.0758 C   0  0  0  0  0  0  0  0  0  0  0  0
    8.2021    3.3007    6.8888 H   0  0  0  0  0  0  0  0  0  0  0  0
    7.9524    5.3220    6.2723 C   0  0  0  0  0  0  0  0  0  0  0  0
    7.6121    5.6645    7.2391 H   0  0  0  0  0  0  0  0  0  0  0  0
    7.7243    7.6175    5.3900 C   0  0  0  0  0  0  0  0  0  0  0  0
    7.3934    7.9530    6.3622 H   0  0  0  0  0  0  0  0  0  0  0  0
    7.8153    8.4964    4.3553 C   0  0  0  0  0  0  0  0  0  0  0  0
    7.5556    9.5377    4.4689 H   0  0  0  0  0  0  0  0  0  0  0  0
    8.4947    5.8031    3.9458 C   0  0  0  0  0  0  0  0  0  0  0  0
    8.0495    6.2511    5.2198 C   0  0  0  0  0  0  0  0  0  0  0  0
    9.1246   13.0911    2.2579 C   0  0  0  0  0  0  0  0  0  0  0  0
    9.5636   12.5356    3.0903 H   0  0  0  0  0  0  0  0  0  0  0  0
    9.7713   13.9336    2.0024 H   0  0  0  0  0  0  0  0  0  0  0  0
    7.7306   13.5813    2.6392 C   0  0  0  0  0  0  0  0  0  0  0  0
    7.2782   14.1292    1.8158 H   0  0  0  0  0  0  0  0  0  0  0  0
    7.7930   14.2364    3.5031 H   0  0  0  0  0  0  0  0  0  0  0  0
    7.0947   12.7351    2.8869 H   0  0  0  0  0  0  0  0  0  0  0  0
    7.7091    8.1739   -2.0218 Cl  0  0  0  0  0  0  0  0  0  0  0  0
    6.7316    6.6649    0.5443 Cl  0  0  0  0  0  0  0  0  0  0  0  0
    8.2862    8.9130    2.0019 N   0  0  0  0  0  0  0  0  0  0  0  0
    8.5701   10.1549    2.2765 N   0  0  0  0  0  2  0  0  0  0  0  0
    8.7193   10.3704   -0.0677 N   0  0  0  0  0  0  0  0  0  0  0  0
    9.0686   12.2060    1.1231 N   0  0  0  0  0  0  0  0  0  0  0  0
    7.9406    8.4851    0.1477 Pd  0  0  0  0  0  0  0  0  0  0  0  0
  1 33  1  1  0  0  0
  2 35  1  0  0  0  0
  3  2  1  0  0  0  0
  4  2  2  0  0  0  0
  4 34  1  0  0  0  0
  5  4  1  0  0  0  0
  6 19  1  0  0  0  0
  7  6  2  0  0  0  0
  7 21  1  0  0  0  0
  8  7  1  0  0  0  0
  9 21  2  0  0  0  0
  9 11  1  0  0  0  0
 10  9  1  0  0  0  0
 11 13  2  0  0  0  0
 12 11  1  0  0  0  0
 13 15  1  0  0  0  0
 13 14  1  0  0  0  0
 15 16  1  0  0  0  0
 17 18  1  0  0  0  0
 19 20  1  0  0  0  0
 19 17  2  0  0  0  0
 21 22  1  0  0  0  0
 22 17  1  0  0  0  0
 22 15  2  0  0  0  0
 23 26  1  0  0  0  0
 23 24  1  0  0  0  0
 25 23  1  0  0  0  0
 26 29  1  0  0  0  0
 26 28  1  0  0  0  0
 27 26  1  0  0  0  0
 30 36  1  0  0  0  0
 32 33  1  0  0  0  0
 32  6  1  0  0  0  0
 34 36  1  0  0  0  0
 34  1  1  0  0  0  0
 35  1  1  0  0  0  0
 35 23  1  0  0  0  0
 36 31  1  0  0  0  0
 36 32  1  0  0  0  0
M  END
$$$$
