CSD_code = GUSWAT | q = 0 | S = 0 | Stoichiometry = C11H21Cl2N3Pd | MND = 4
 OpenBabel04212202043D

 38 39  0  0  1  0  0  0  0  0999 V2000
    1.7322    3.4784    0.5108 Pd  0  0  0  0  0  0  0  0  0  0  0  0
   -0.1027    2.2263    0.3418 Cl  0  0  0  0  0  0  0  0  0  0  0  0
    2.9216    1.6435    0.9967 Cl  0  0  0  0  0  0  0  0  0  0  0  0
    3.3478    4.6528    0.8934 N   0  0  1  0  0  0  0  0  0  0  0  0
    3.8137    5.5279   -0.0025 N   0  0  0  0  0  0  0  0  0  0  0  0
    0.7103    5.2541   -0.5399 N   0  0  0  0  0  4  0  0  0  0  0  0
    4.0904    4.7508    1.9850 C   0  0  1  0  0  3  0  0  0  0  0  0
    5.0743    5.7299    1.7735 C   0  0  0  0  0  0  0  0  0  0  0  0
    5.8330    6.0376    2.4629 H   0  0  0  0  0  0  0  0  0  0  0  0
    4.8668    6.2147    0.4988 C   0  0  0  0  0  0  0  0  0  0  0  0
    3.8154    3.9358    3.1953 C   0  0  0  0  0  0  0  0  0  0  0  0
    2.8086    3.5087    3.1265 H   0  0  0  0  0  0  0  0  0  0  0  0
    3.9035    4.5432    4.0937 H   0  0  0  0  0  0  0  0  0  0  0  0
    4.5237    3.1111    3.2595 H   0  0  0  0  0  0  0  0  0  0  0  0
    5.5952    7.2605   -0.2637 C   0  0  0  0  0  0  0  0  0  0  0  0
    6.0175    6.8483   -1.1799 H   0  0  0  0  0  0  0  0  0  0  0  0
    6.4067    7.6491    0.3443 H   0  0  0  0  0  0  0  0  0  0  0  0
    4.9355    8.0866   -0.5297 H   0  0  0  0  0  0  0  0  0  0  0  0
    3.0717    5.7209   -1.2171 C   0  0  0  0  0  0  0  0  0  0  0  0
    2.9674    4.7439   -1.7144 H   0  0  0  0  0  0  0  0  0  0  0  0
    3.6268    6.3975   -1.8675 H   0  0  0  0  0  0  0  0  0  0  0  0
    1.6779    6.2975   -0.8948 C   0  0  0  0  0  0  0  0  0  0  0  0
    1.7853    6.9892   -0.0544 H   0  0  0  0  0  0  0  0  0  0  0  0
    1.3249    6.8750   -1.7577 H   0  0  0  0  0  0  0  0  0  0  0  0
    0.1079    4.6605   -1.7517 C   0  0  0  0  0  0  0  0  0  0  0  0
   -0.4653    3.7863   -1.4270 H   0  0  0  0  0  0  0  0  0  0  0  0
    0.9200    4.3036   -2.3961 H   0  0  0  0  0  0  0  0  0  0  0  0
   -0.8108    5.5765   -2.5618 C   0  0  0  0  0  0  0  0  0  0  0  0
   -1.2011    5.0096   -3.4025 H   0  0  0  0  0  0  0  0  0  0  0  0
   -0.2946    6.4470   -2.9626 H   0  0  0  0  0  0  0  0  0  0  0  0
   -1.6540    5.9157   -1.9666 H   0  0  0  0  0  0  0  0  0  0  0  0
   -0.3186    5.7437    0.3880 C   0  0  0  0  0  0  0  0  0  0  0  0
   -1.1606    5.0505    0.3282 H   0  0  0  0  0  0  0  0  0  0  0  0
   -0.6599    6.7474    0.0974 H   0  0  0  0  0  0  0  0  0  0  0  0
    0.1705    5.7577    1.8337 C   0  0  0  0  0  0  0  0  0  0  0  0
   -0.6334    6.0876    2.4872 H   0  0  0  0  0  0  0  0  0  0  0  0
    1.0206    6.4253    1.9746 H   0  0  0  0  0  0  0  0  0  0  0  0
    0.4573    4.7337    2.1301 H   0  0  0  0  0  0  0  0  0  0  0  0
  1  4  1  0  0  0  0
  1  3  1  0  0  0  0
  2  1  1  0  0  0  0
  4  5  1  1  0  0  0
  4  7  1  0  0  0  0
  5 10  1  0  0  0  0
  6 32  1  0  0  0  0
  6  1  1  0  0  0  0
  7 11  1  1  0  0  0
  8  7  1  0  0  0  0
  8  9  1  0  0  0  0
 10  8  2  0  0  0  0
 11 14  1  0  0  0  0
 11 13  1  0  0  0  0
 12 11  1  0  0  0  0
 15 17  1  0  0  0  0
 15 10  1  0  0  0  0
 16 15  1  0  0  0  0
 18 15  1  0  0  0  0
 19 22  1  0  0  0  0
 19  5  1  0  0  0  0
 20 19  1  0  0  0  0
 21 19  1  0  0  0  0
 22  6  1  0  0  0  0
 22 23  1  0  0  0  0
 24 22  1  0  0  0  0
 25 26  1  0  0  0  0
 25  6  1  0  0  0  0
 27 25  1  0  0  0  0
 28 31  1  0  0  0  0
 28 25  1  0  0  0  0
 29 28  1  0  0  0  0
 30 28  1  0  0  0  0
 32 35  1  0  0  0  0
 33 32  1  0  0  0  0
 34 32  1  0  0  0  0
 35 37  1  0  0  0  0
 35 38  1  0  0  0  0
 35 36  1  0  0  0  0
M  END
$$$$
