CSD_code = GUSXEY | q = 0 | S = 0 | Stoichiometry = C22H20Cl2N3O2Rh | MND = 6
 OpenBabel04212202043D

 50 54  0  0  0  0  0  0  0  0999 V2000
    7.1993    1.2379    6.9814 Rh  0  0  0  0  0  0  0  0  0  0  0  0
    6.1863    0.6110    8.9759 Cl  0  0  0  0  0  0  0  0  0  0  0  0
    8.3034    1.8441    5.0245 Cl  0  0  0  0  0  0  0  0  0  0  0  0
    8.9800    0.7315    7.7713 O   0  0  0  0  0  0  0  0  0  0  0  0
    6.8900    3.8938    7.5726 O   0  0  0  0  0  1  0  0  0  0  0  0
    7.6528    2.9303    7.7063 N   0  0  0  0  0  0  0  0  0  0  0  0
    5.4334    1.8303    6.2160 N   0  0  0  0  0  0  0  0  0  0  0  0
    6.8537   -0.7184    6.2443 N   0  0  0  0  0  0  0  0  0  0  0  0
    9.5175    1.7253    8.3420 C   0  0  0  0  0  0  0  0  0  0  0  0
   10.7913    1.6294    8.9834 C   0  0  0  0  0  0  0  0  0  0  0  0
   11.3364    2.7195    9.5708 C   0  0  0  0  0  0  0  0  0  0  0  0
   10.6868    3.9898    9.5830 C   0  0  0  0  0  0  0  0  0  0  0  0
   11.2913    5.0922   10.2020 C   0  0  0  0  0  0  0  0  0  0  0  0
   10.6723    6.3194   10.2182 C   0  0  0  0  0  0  0  0  0  0  0  0
    9.4276    6.4724    9.6126 C   0  0  0  0  0  0  0  0  0  0  0  0
    8.8092    5.4071    8.9965 C   0  0  0  0  0  0  0  0  0  0  0  0
    9.4205    4.1478    8.9668 C   0  0  0  0  0  0  0  0  0  0  0  0
    8.8368    2.9886    8.3414 C   0  0  0  0  0  0  0  0  0  0  0  0
    5.1390    1.6377    4.9281 C   0  0  0  0  0  3  0  0  0  0  0  0
    3.9610    2.0784    4.3596 C   0  0  0  0  0  0  0  0  0  0  0  0
    3.0227    2.7515    5.1363 C   0  0  0  0  0  0  0  0  0  0  0  0
    3.3392    2.9335    6.4777 C   0  0  0  0  0  0  0  0  0  0  0  0
    4.5401    2.4669    6.9755 C   0  0  0  0  0  0  0  0  0  0  0  0
    1.7518    3.2717    4.5530 C   0  0  0  0  0  0  0  0  0  0  0  0
    7.8769   -1.3621    5.6839 C   0  0  0  0  0  3  0  0  0  0  0  0
    7.8097   -2.6923    5.3166 C   0  0  0  0  0  0  0  0  0  0  0  0
    6.6386   -3.4116    5.5313 C   0  0  0  0  0  0  0  0  0  0  0  0
    5.5799   -2.7269    6.1198 C   0  0  0  0  0  0  0  0  0  0  0  0
    5.7269   -1.3961    6.4600 C   0  0  0  0  0  0  0  0  0  0  0  0
    6.5177   -4.8435    5.1280 C   0  0  0  0  0  0  0  0  0  0  0  0
   11.2861    0.6707    8.9758 H   0  0  0  0  0  0  0  0  0  0  0  0
   12.3010    2.6465   10.0539 H   0  0  0  0  0  0  0  0  0  0  0  0
   12.2574    4.9613   10.6683 H   0  0  0  0  0  0  0  0  0  0  0  0
   11.1472    7.1625   10.6976 H   0  0  0  0  0  0  0  0  0  0  0  0
    8.9411    7.4365    9.6249 H   0  0  0  0  0  0  0  0  0  0  0  0
    7.8466    5.5392    8.5297 H   0  0  0  0  0  0  0  0  0  0  0  0
    5.8826    1.1346    4.3242 H   0  0  0  0  0  0  0  0  0  0  0  0
    3.7808    1.9023    3.3104 H   0  0  0  0  0  0  0  0  0  0  0  0
    2.6558    3.4427    7.1391 H   0  0  0  0  0  0  0  0  0  0  0  0
    4.7856    2.5983    8.0200 H   0  0  0  0  0  0  0  0  0  0  0  0
    1.9074    4.2903    4.1967 H   0  0  0  0  0  0  0  0  0  0  0  0
    0.9623    3.2947    5.3000 H   0  0  0  0  0  0  0  0  0  0  0  0
    1.4333    2.6655    3.7086 H   0  0  0  0  0  0  0  0  0  0  0  0
    8.7770   -0.7849    5.5171 H   0  0  0  0  0  0  0  0  0  0  0  0
    8.6691   -3.1660    4.8678 H   0  0  0  0  0  0  0  0  0  0  0  0
    4.6454   -3.2283    6.3196 H   0  0  0  0  0  0  0  0  0  0  0  0
    4.9180   -0.8593    6.9387 H   0  0  0  0  0  0  0  0  0  0  0  0
    6.2131   -4.9032    4.0826 H   0  0  0  0  0  0  0  0  0  0  0  0
    5.7697   -5.3556    5.7278 H   0  0  0  0  0  0  0  0  0  0  0  0
    7.4716   -5.3556    5.2278 H   0  0  0  0  0  0  0  0  0  0  0  0
  1  6  1  0  0  0  0
  1  4  1  0  0  0  0
  1  2  1  0  0  0  0
  3  1  1  0  0  0  0
  4  9  1  0  0  0  0
  5  6  1  0  0  0  0
  6 18  1  0  0  0  0
  7 23  1  0  0  0  0
  7  1  1  0  0  0  0
  8 29  1  0  0  0  0
  8  1  1  0  0  0  0
  9 10  1  0  0  0  0
 10 11  2  0  0  0  0
 11 12  1  0  0  0  0
 11 32  1  0  0  0  0
 12 13  1  0  0  0  0
 13 14  2  0  0  0  0
 13 33  1  0  0  0  0
 14 34  1  0  0  0  0
 15 35  1  0  0  0  0
 15 14  1  0  0  0  0
 16 15  2  0  0  0  0
 17 16  1  0  0  0  0
 17 12  2  0  0  0  0
 18  9  2  0  0  0  0
 18 17  1  0  0  0  0
 19  7  1  0  0  0  0
 20 19  1  0  0  0  0
 20 21  2  0  0  0  0
 21 22  1  0  0  0  0
 22 23  2  0  0  0  0
 22 39  1  0  0  0  0
 23 40  1  0  0  0  0
 24 21  1  0  0  0  0
 24 42  1  0  0  0  0
 25  8  1  0  0  0  0
 26 27  2  0  0  0  0
 26 25  1  0  0  0  0
 27 28  1  0  0  0  0
 28 46  1  0  0  0  0
 28 29  2  0  0  0  0
 29 47  1  0  0  0  0
 30 50  1  0  0  0  0
 30 27  1  0  0  0  0
 30 49  1  0  0  0  0
 31 10  1  0  0  0  0
 36 16  1  0  0  0  0
 37 19  1  0  0  0  0
 38 20  1  0  0  0  0
 41 24  1  0  0  0  0
 43 24  1  0  0  0  0
 44 25  1  0  0  0  0
 45 26  1  0  0  0  0
 48 30  1  0  0  0  0
M  END
$$$$
