CSD_code = GUTHUZ | q = 1 | S = 0 | Stoichiometry = C27H29ClN3RuS(1+) | MND = 9
 OpenBabel04212202043D

 62 64  0  0  1  0  0  0  0  0999 V2000
    6.0382    1.6796    3.6034 Ru  0  0  0  0  0  0  0  0  0  0  0  0
    7.9707    2.1253    4.8411 Cl  0  0  0  0  0 15  0  0  0  0  0  0
    6.9254   -0.4853    3.2645 S   0  0  0  0  0  0  0  0  0  0  0  0
    7.3331    2.1438    2.1160 N   0  0  0  0  0  0  0  0  0  0  0  0
    8.3300    1.2305    1.8707 N   0  0  0  0  0  0  0  0  0  0  0  0
    9.1860    1.5865    1.4444 H   0  0  0  0  0  0  0  0  0  0  0  0
    9.2932   -0.8613    2.1588 N   0  0  0  0  0  0  0  0  0  0  0  0
   10.0855   -0.5638    1.6083 H   0  0  0  0  0  0  0  0  0  0  0  0
    3.7268   -0.0198    1.1944 C   0  0  0  0  0  0  0  0  0  0  0  0
    4.8155   -0.0687    1.2620 H   0  0  0  0  0  0  0  0  0  0  0  0
    3.4512    0.8694    0.6334 H   0  0  0  0  0  0  0  0  0  0  0  0
    3.3747   -0.8913    0.6497 H   0  0  0  0  0  0  0  0  0  0  0  0
    1.5973    0.2084    2.5294 C   0  0  0  0  0  0  0  0  0  0  0  0
    1.1660    0.2117    3.5277 H   0  0  0  0  0  0  0  0  0  0  0  0
    1.1413   -0.5972    1.9610 H   0  0  0  0  0  0  0  0  0  0  0  0
    1.3556    1.1515    2.0451 H   0  0  0  0  0  0  0  0  0  0  0  0
    3.1134    0.0015    2.5962 C   0  0  0  0  0  0  0  0  0  0  0  0
    3.3115   -0.9655    3.0711 H   0  0  0  0  0  0  0  0  0  0  0  0
    3.7422    1.0801    3.4440 C   0  0  0  0  0  0  0  0  0  0  0  0
    3.7535    2.4221    3.0373 C   0  0  0  0  0  0  0  0  0  0  0  0
    3.2976    2.7022    2.0966 H   0  0  0  0  0  0  0  0  0  0  0  0
    4.2259    3.4460    3.8913 C   0  0  0  0  0  0  0  0  0  0  0  0
    4.1081    4.4791    3.5905 H   0  0  0  0  0  0  0  0  0  0  0  0
    4.7617    3.1519    5.1478 C   0  0  0  0  0  0  0  0  0  0  0  0
    4.8278    1.7822    5.5336 C   0  0  0  0  0  3  0  0  0  0  0  0
    5.1897    1.5328    6.5266 H   0  0  0  0  0  0  0  0  0  0  0  0
    4.2950    0.7758    4.7176 C   0  0  2  0  0  0  0  0  0  0  0  0
    4.2423   -0.2441    5.0897 H   0  0  0  0  0  0  0  0  0  0  0  0
    5.2194    4.2207    6.0851 C   0  0  0  0  0  0  0  0  0  0  0  0
    4.6259    4.1930    6.9988 H   0  0  0  0  0  0  0  0  0  0  0  0
    5.1328    5.2056    5.6330 H   0  0  0  0  0  0  0  0  0  0  0  0
    6.2607    4.0558    6.3632 H   0  0  0  0  0  0  0  0  0  0  0  0
    6.4808    4.3680    1.7985 C   0  0  0  0  0  0  0  0  0  0  0  0
    5.3575    4.3223    0.9529 C   0  0  0  0  0  0  0  0  0  0  0  0
    5.1386    3.2745    0.0212 C   0  0  0  0  0  0  0  0  0  0  0  0
    5.8560    2.4684   -0.0410 H   0  0  0  0  0  0  0  0  0  0  0  0
    4.0431    3.2744   -0.7894 C   0  0  0  0  0  0  0  0  0  0  0  0
    3.8927    2.4740   -1.4985 H   0  0  0  0  0  0  0  0  0  0  0  0
    3.0977    4.3189   -0.7223 C   0  0  0  0  0  0  0  0  0  0  0  0
    2.2380    4.2950   -1.3739 H   0  0  0  0  0  0  0  0  0  0  0  0
    3.2789    5.3496    0.1482 C   0  0  0  0  0  0  0  0  0  0  0  0
    2.5685    6.1610    0.1995 H   0  0  0  0  0  0  0  0  0  0  0  0
    4.4098    5.3933    1.0041 C   0  0  0  0  0  0  0  0  0  0  0  0
    4.6160    6.4532    1.8844 C   0  0  0  0  0  0  0  0  0  0  0  0
    3.8985    7.2609    1.9117 H   0  0  0  0  0  0  0  0  0  0  0  0
    5.7223    6.4992    2.7291 C   0  0  0  0  0  0  0  0  0  0  0  0
    5.9218    7.5642    3.6452 C   0  0  0  0  0  0  0  0  0  0  0  0
    5.1949    8.3625    3.6678 H   0  0  0  0  0  0  0  0  0  0  0  0
    6.9994    7.5758    4.4774 C   0  0  0  0  0  0  0  0  0  0  0  0
    7.1446    8.3881    5.1727 H   0  0  0  0  0  0  0  0  0  0  0  0
    7.9370    6.5223    4.4434 C   0  0  0  0  0  0  0  0  0  0  0  0
    8.7791    6.5456    5.1178 H   0  0  0  0  0  0  0  0  0  0  0  0
    7.7842    5.4830    3.5759 C   0  0  0  0  0  0  0  0  0  0  0  0
    8.4908    4.6663    3.5721 H   0  0  0  0  0  0  0  0  0  0  0  0
    6.6800    5.4379    2.6874 C   0  0  0  0  0  0  0  0  0  0  0  0
    7.5156    3.3368    1.6818 C   0  0  0  0  0  3  0  0  0  0  0  0
    8.4571    3.6102    1.2017 H   0  0  0  0  0  0  0  0  0  0  0  0
    8.2914   -0.0208    2.3893 C   0  0  0  0  0  0  0  0  0  0  0  0
    9.3031   -2.2094    2.6774 C   0  0  0  0  0  0  0  0  0  0  0  0
   10.3155   -2.6002    2.6401 H   0  0  0  0  0  0  0  0  0  0  0  0
    8.6434   -2.8540    2.0935 H   0  0  0  0  0  0  0  0  0  0  0  0
    8.9520   -2.2046    3.7100 H   0  0  0  0  0  0  0  0  0  0  0  0
  1 27  1  0  0  0  0
  4  1  1  0  0  0  0
  5  4  1  0  0  0  0
  5 58  1  0  0  0  0
  6  5  1  0  0  0  0
  7 58  1  0  0  0  0
  7 59  1  0  0  0  0
  8  7  1  0  0  0  0
  9 10  1  0  0  0  0
  9 17  1  0  0  0  0
 11  9  1  0  0  0  0
 12  9  1  0  0  0  0
 13 17  1  0  0  0  0
 13 14  1  0  0  0  0
 15 13  1  0  0  0  0
 16 13  1  0  0  0  0
 17 18  1  0  0  0  0
 17 19  1  0  0  0  0
 19 27  1  0  0  0  0
 20 19  2  0  0  0  0
 20 22  1  0  0  0  0
 21 20  1  0  0  0  0
 22 24  2  0  0  0  0
 23 22  1  0  0  0  0
 24 25  1  0  0  0  0
 24 29  1  0  0  0  0
 25 26  1  0  0  0  0
 27 28  1  1  0  0  0
 27 25  1  0  0  0  0
 29 32  1  0  0  0  0
 29 30  1  0  0  0  0
 31 29  1  0  0  0  0
 33 55  1  0  0  0  0
 34 43  1  0  0  0  0
 34 33  2  0  0  0  0
 35 34  1  0  0  0  0
 36 35  1  0  0  0  0
 37 39  1  0  0  0  0
 37 35  2  0  0  0  0
 38 37  1  0  0  0  0
 39 41  2  0  0  0  0
 40 39  1  0  0  0  0
 41 42  1  0  0  0  0
 41 43  1  0  0  0  0
 43 44  2  0  0  0  0
 44 45  1  0  0  0  0
 44 46  1  0  0  0  0
 46 47  1  0  0  0  0
 47 48  1  0  0  0  0
 47 49  2  0  0  0  0
 49 50  1  0  0  0  0
 51 49  1  0  0  0  0
 51 52  1  0  0  0  0
 53 51  2  0  0  0  0
 54 53  1  0  0  0  0
 55 46  2  0  0  0  0
 55 53  1  0  0  0  0
 56 33  1  0  0  0  0
 56  4  1  0  0  0  0
 57 56  1  0  0  0  0
 58  3  2  0  0  0  0
 59 62  1  0  0  0  0
 60 59  1  0  0  0  0
 61 59  1  0  0  0  0
M  END
$$$$
