CSD_code = GUTHAG | q = 0 | S = 0 | Stoichiometry = C30H28BrN3Pd | MND = 4
 OpenBabel04212202043D

 63 69  0  0  0  0  0  0  0  0999 V2000
   15.3448   -1.1353    6.3231 Pd  0  0  2  0  0  0  0  0  0  0  0  0
   17.0056   -1.7811    4.5719 Br  0  0  0  0  0  0  0  0  0  0  0  0
   14.0607   -0.9005    7.8646 C   0  0  0  0  0  0  0  0  0  0  0  0
   16.4948    1.5186    7.0818 N   0  0  0  0  0  0  0  0  0  0  0  0
   17.7990   -0.1220    7.5712 N   0  0  0  0  0  0  0  0  0  0  0  0
   13.9241   -2.5805    5.6878 N   0  0  0  0  0  4  0  0  0  0  0  0
   16.5953    0.1779    7.0583 C   0  0  0  0  0  0  0  0  0  0  0  0
   12.0928   -1.0634    9.8649 C   0  0  0  0  0  0  0  0  0  0  0  0
   11.3364   -1.1255   10.6339 H   0  0  0  0  0  0  0  0  0  0  0  0
   14.2501   -0.3160    9.1146 C   0  0  0  0  0  0  0  0  0  0  0  0
   15.1675    0.2180    9.3400 H   0  0  0  0  0  0  0  0  0  0  0  0
   12.8553   -1.5819    7.6496 C   0  0  0  0  0  0  0  0  0  0  0  0
   11.8841   -1.6631    8.6356 C   0  0  0  0  0  0  0  0  0  0  0  0
   10.9632   -2.1970    8.4403 H   0  0  0  0  0  0  0  0  0  0  0  0
   18.4668    1.0277    7.8987 C   0  0  0  0  0  0  0  0  0  0  0  0
   19.4522    1.0201    8.3171 H   0  0  0  0  0  0  0  0  0  0  0  0
   18.2926   -1.4628    7.7447 C   0  0  0  0  0  0  0  0  0  0  0  0
   18.7732   -1.5631    8.7182 H   0  0  0  0  0  0  0  0  0  0  0  0
   19.0064   -1.7124    6.9559 H   0  0  0  0  0  0  0  0  0  0  0  0
   17.4392   -2.1555    7.6794 H   0  0  0  0  0  0  0  0  0  0  0  0
   13.2776   -0.3911   10.1011 C   0  0  0  0  0  0  0  0  0  0  0  0
   13.4510    0.0766   11.0606 H   0  0  0  0  0  0  0  0  0  0  0  0
   16.1390    4.6874    3.2105 C   0  0  0  0  0  0  0  0  0  0  0  0
   12.6387   -2.1985    6.2914 C   0  0  0  0  0  0  0  0  0  0  0  0
   11.9661   -3.0706    6.3469 H   0  0  0  0  0  0  0  0  0  0  0  0
   12.1631   -1.4528    5.6385 H   0  0  0  0  0  0  0  0  0  0  0  0
   15.5589    3.0850    5.4496 C   0  0  0  0  0  0  0  0  0  0  0  0
   15.7249    2.7864    1.7308 C   0  0  0  0  0  0  0  0  0  0  0  0
   15.4705    2.5170    4.1669 C   0  0  0  0  0  0  0  0  0  0  0  0
   15.3214    2.2844    6.7065 C   0  0  0  0  0  0  0  0  0  0  0  0
   15.0854    2.9663    7.5305 H   0  0  0  0  0  0  0  0  0  0  0  0
   14.4878    1.5768    6.5989 H   0  0  0  0  0  0  0  0  0  0  0  0
   15.7741    3.3288    3.0391 C   0  0  0  0  0  0  0  0  0  0  0  0
   16.4352    5.4805    2.0635 C   0  0  0  0  0  0  0  0  0  0  0  0
   16.7062    6.5152    2.2204 H   0  0  0  0  0  0  0  0  0  0  0  0
   15.3775    1.4284    1.5370 C   0  0  0  0  0  0  0  0  0  0  0  0
   17.6463    2.0598    7.5931 C   0  0  0  0  0  0  0  0  0  0  0  0
   17.7885    3.1158    7.6931 H   0  0  0  0  0  0  0  0  0  0  0  0
   16.1988    5.2146    4.4997 C   0  0  0  0  0  0  0  0  0  0  0  0
   16.4713    6.2508    4.6386 H   0  0  0  0  0  0  0  0  0  0  0  0
   15.0893    1.1597    3.9301 C   0  0  0  0  0  0  0  0  0  0  0  0
   14.8241    0.5087    4.7761 H   0  0  0  0  0  0  0  0  0  0  0  0
   15.9191    4.4192    5.5906 C   0  0  0  0  0  0  0  0  0  0  0  0
   15.9733    4.8476    6.5825 H   0  0  0  0  0  0  0  0  0  0  0  0
   16.0324    3.5938    0.6071 C   0  0  0  0  0  0  0  0  0  0  0  0
   15.0560    0.6432    2.6794 C   0  0  0  0  0  0  0  0  0  0  0  0
   14.7972   -0.3933    2.5199 H   0  0  0  0  0  0  0  0  0  0  0  0
   14.4368   -3.7954    6.3281 C   0  0  0  0  0  0  0  0  0  0  0  0
   15.4256   -4.0343    5.9225 H   0  0  0  0  0  0  0  0  0  0  0  0
   13.7678   -4.6488    6.1419 H   0  0  0  0  0  0  0  0  0  0  0  0
   14.5146   -3.6455    7.4109 H   0  0  0  0  0  0  0  0  0  0  0  0
   16.3833    4.9591    0.8171 C   0  0  0  0  0  0  0  0  0  0  0  0
   16.6111    5.5665   -0.0475 H   0  0  0  0  0  0  0  0  0  0  0  0
   15.3506    0.9037    0.2444 C   0  0  0  0  0  0  0  0  0  0  0  0
   15.0951   -0.1365    0.1041 H   0  0  0  0  0  0  0  0  0  0  0  0
   15.9873    3.0303   -0.6689 C   0  0  0  0  0  0  0  0  0  0  0  0
   16.2227    3.6477   -1.5242 H   0  0  0  0  0  0  0  0  0  0  0  0
   13.7380   -2.8359    4.2620 C   0  0  0  0  0  0  0  0  0  0  0  0
   13.3850   -1.9284    3.7671 H   0  0  0  0  0  0  0  0  0  0  0  0
   13.0011   -3.6354    4.1002 H   0  0  0  0  0  0  0  0  0  0  0  0
   14.6839   -3.1365    3.8104 H   0  0  0  0  0  0  0  0  0  0  0  0
   15.6530    1.7000   -0.8443 C   0  0  0  0  0  0  0  0  0  0  0  0
   15.6291    1.2803   -1.8396 H   0  0  0  0  0  0  0  0  0  0  0  0
  1  2  1  1  0  0  0
  1  7  2  0  0  0  0
  1  3  1  0  0  0  0
  3 10  1  0  0  0  0
  4 37  1  0  0  0  0
  5 17  1  0  0  0  0
  5 15  1  0  0  0  0
  6 24  1  0  0  0  0
  6  1  1  0  0  0  0
  6 48  1  0  0  0  0
  7  4  1  0  0  0  0
  7  5  1  0  0  0  0
  8 21  1  0  0  0  0
  8  9  1  0  0  0  0
 10 11  1  0  0  0  0
 10 21  2  0  0  0  0
 12  3  2  0  0  0  0
 12 13  1  0  0  0  0
 13  8  2  0  0  0  0
 14 13  1  0  0  0  0
 15 16  1  0  0  0  0
 17 18  1  0  0  0  0
 19 17  1  0  0  0  0
 20 17  1  0  0  0  0
 21 22  1  0  0  0  0
 23 39  1  0  0  0  0
 24 25  1  0  0  0  0
 24 12  1  0  0  0  0
 26 24  1  0  0  0  0
 27 43  1  0  0  0  0
 27 30  1  0  0  0  0
 28 33  2  0  0  0  0
 29 27  2  0  0  0  0
 30  4  1  0  0  0  0
 30 31  1  0  0  0  0
 32 30  1  0  0  0  0
 33 23  1  0  0  0  0
 33 29  1  0  0  0  0
 34 35  1  0  0  0  0
 34 23  2  0  0  0  0
 36 28  1  0  0  0  0
 36 46  1  0  0  0  0
 37 38  1  0  0  0  0
 37 15  2  0  0  0  0
 39 40  1  0  0  0  0
 39 43  2  0  0  0  0
 41 29  1  0  0  0  0
 41 42  1  0  0  0  0
 43 44  1  0  0  0  0
 45 52  2  0  0  0  0
 45 28  1  0  0  0  0
 46 41  2  0  0  0  0
 47 46  1  0  0  0  0
 48 51  1  0  0  0  0
 49 48  1  0  0  0  0
 50 48  1  0  0  0  0
 52 34  1  0  0  0  0
 53 52  1  0  0  0  0
 54 36  2  0  0  0  0
 55 54  1  0  0  0  0
 56 45  1  0  0  0  0
 57 56  1  0  0  0  0
 58  6  1  0  0  0  0
 59 58  1  0  0  0  0
 60 58  1  0  0  0  0
 61 58  1  0  0  0  0
 62 56  2  0  0  0  0
 62 54  1  0  0  0  0
 63 62  1  0  0  0  0
M  END
$$$$
