CSD_code = GUTLUD | q = 0 | S = 0 | Stoichiometry = C10H13HgI2N3S | MND = 4
 OpenBabel04212202043D

 30 30  0  0  1  0  0  0  0  0999 V2000
    4.3172    1.8643    1.4602 Hg  0  0  0  0  0  0  0  0  0  0  0  0
    3.7252    3.5618   -0.4926 I   0  0  0  0  0  0  0  0  0  0  0  0
    3.5493    0.8954    3.7640 I   0  0  0  0  0  0  0  0  0  0  0  0
    6.2399    0.3230    0.2668 S   0  0  0  0  0  0  0  0  0  0  0  0
    6.8428    3.0267    1.2480 N   0  0  0  0  0  0  0  0  0  0  0  0
    7.2626    2.7449   -0.0007 N   0  0  0  0  0  0  0  0  0  0  0  0
    7.6929    3.4974   -0.5383 H   0  0  0  0  0  0  0  0  0  0  0  0
    7.4200    1.3785   -1.8540 N   0  0  0  0  0  0  0  0  0  0  0  0
    7.0686    4.1864    1.7321 C   0  0  0  0  0  0  0  0  0  0  0  0
    7.5667    4.9581    1.1345 H   0  0  0  0  0  0  0  0  0  0  0  0
    7.0042    1.5514   -0.5952 C   0  0  1  0  0  3  0  0  0  0  0  0
    8.0637    2.4386   -2.6029 C   0  0  0  0  0  0  0  0  0  0  0  0
    7.3957    3.2952   -2.7321 H   0  0  0  0  0  0  0  0  0  0  0  0
    8.3158    2.0559   -3.5883 H   0  0  0  0  0  0  0  0  0  0  0  0
    8.9899    2.7602   -2.1197 H   0  0  0  0  0  0  0  0  0  0  0  0
    7.1520    0.1620   -2.5843 C   0  0  0  0  0  0  0  0  0  0  0  0
    8.0903   -0.3016   -2.8931 H   0  0  0  0  0  0  0  0  0  0  0  0
    6.5496    0.3858   -3.4664 H   0  0  0  0  0  0  0  0  0  0  0  0
    6.6080   -0.5320   -1.9486 H   0  0  0  0  0  0  0  0  0  0  0  0
    6.6316    4.5428    3.0620 C   0  0  0  0  0  0  0  0  0  0  0  0
    6.4634    5.8882    3.3984 C   0  0  0  0  0  0  0  0  0  0  0  0
    6.6821    6.6529    2.6669 H   0  0  0  0  0  0  0  0  0  0  0  0
    5.9895    6.2362    4.6479 C   0  0  0  0  0  0  0  0  0  0  0  0
    5.8491    7.2774    4.8971 H   0  0  0  0  0  0  0  0  0  0  0  0
    5.6899    5.2529    5.5787 C   0  0  0  0  0  0  0  0  0  0  0  0
    5.3141    5.5290    6.5522 H   0  0  0  0  0  0  0  0  0  0  0  0
    5.8788    3.9156    5.2637 C   0  0  0  0  0  0  0  0  0  0  0  0
    5.6542    3.1493    5.9897 H   0  0  0  0  0  0  0  0  0  0  0  0
    6.3495    3.5593    4.0156 C   0  0  0  0  0  0  0  0  0  0  0  0
    6.5390    2.5220    3.7766 H   0  0  0  0  0  0  0  0  0  0  0  0
  1  3  1  0  0  0  0
  2  1  1  0  0  0  0
  4  1  1  0  0  0  0
  5  9  2  0  0  0  0
  6  5  1  0  0  0  0
  7  6  1  0  0  0  0
  8 11  1  0  0  0  0
  9 20  1  0  0  0  0
 10  9  1  0  0  0  0
 11  6  1  0  0  0  0
 11  4  1  1  0  0  0
 12 15  1  0  0  0  0
 12  8  1  0  0  0  0
 13 12  1  0  0  0  0
 14 12  1  0  0  0  0
 16 19  1  0  0  0  0
 16  8  1  0  0  0  0
 17 16  1  0  0  0  0
 18 16  1  0  0  0  0
 20 21  2  0  0  0  0
 20 29  1  0  0  0  0
 21 23  1  0  0  0  0
 22 21  1  0  0  0  0
 23 24  1  0  0  0  0
 23 25  2  0  0  0  0
 25 26  1  0  0  0  0
 27 25  1  0  0  0  0
 27 28  1  0  0  0  0
 29 27  2  0  0  0  0
 30 29  1  0  0  0  0
M  END
$$$$
