CSD_code = GUTMOY | q = 0 | S = 0 | Stoichiometry = C16H10BrN2O3ReS | MND = 6
 OpenBabel04212202043D

 34 37  0  0  1  0  0  0  0  0999 V2000
    1.0652    1.3106    8.6304 Re  0  0  0  0  0  0  0  0  0  0  0  0
   -0.2939    0.5022    6.6639 Br  0  0  0  0  0  0  0  0  0  0  0  0
    4.6021   -1.8361    7.6290 S   0  0  0  0  0  0  0  0  0  0  0  0
   -1.4621    2.5903    9.8576 O   0  0  0  0  0  1  0  0  0  0  0  0
    1.9078    4.0178    7.3942 O   0  0  0  0  0  1  0  0  0  0  0  0
    2.8058    1.7491   11.1402 O   0  0  0  0  0  1  0  0  0  0  0  0
    0.5774   -0.8709    9.4192 N   0  0  0  0  0  4  0  0  0  0  0  0
   -0.3393   -0.9478    9.8618 H   0  0  0  0  0  0  0  0  0  0  0  0
    0.5323   -1.3561    8.5169 H   0  0  0  0  0  0  0  0  0  0  0  0
    2.7638   -0.0280    7.7915 N   0  0  0  0  0  0  0  0  0  0  0  0
   -0.5010    2.1557    9.4127 C   0  0  0  0  0  2  0  0  0  0  0  0
    1.6038    3.0132    7.8584 C   0  0  0  0  0  2  0  0  0  0  0  0
    2.1588    1.6070   10.2042 C   0  0  0  0  0  2  0  0  0  0  0  0
    1.5957   -1.3910   10.2556 C   0  0  0  0  0  0  0  0  0  0  0  0
    1.3059   -1.7815   11.5557 C   0  0  0  0  0  0  0  0  0  0  0  0
    0.2929   -1.6870   11.9206 H   0  0  0  0  0  0  0  0  0  0  0  0
    2.2974   -2.2785   12.3806 C   0  0  0  0  0  0  0  0  0  0  0  0
    2.0557   -2.5722   13.3901 H   0  0  0  0  0  0  0  0  0  0  0  0
    3.5934   -2.4064   11.9064 C   0  0  0  0  0  0  0  0  0  0  0  0
    4.3684   -2.8021   12.5433 H   0  0  0  0  0  0  0  0  0  0  0  0
    3.8964   -2.0135   10.6192 C   0  0  0  0  0  0  0  0  0  0  0  0
    4.9102   -2.0901   10.2554 H   0  0  0  0  0  0  0  0  0  0  0  0
    2.9151   -1.4853    9.7794 C   0  0  0  0  0  0  0  0  0  0  0  0
    3.2879   -1.0230    8.4518 C   0  0  2  0  0  3  0  0  0  0  0  0
    3.3627    0.1636    6.5713 C   0  0  0  0  0  0  0  0  0  0  0  0
    4.4026   -0.7445    6.2941 C   0  0  0  0  0  0  0  0  0  0  0  0
    5.1140   -0.7059    5.1069 C   0  0  0  0  0  0  0  0  0  0  0  0
    5.9066   -1.4135    4.9217 H   0  0  0  0  0  0  0  0  0  0  0  0
    4.7735    0.2569    4.1792 C   0  0  0  0  0  0  0  0  0  0  0  0
    5.3086    0.3064    3.2436 H   0  0  0  0  0  0  0  0  0  0  0  0
    3.7457    1.1626    4.4357 C   0  0  0  0  0  0  0  0  0  0  0  0
    3.4934    1.9033    3.6932 H   0  0  0  0  0  0  0  0  0  0  0  0
    3.0403    1.1291    5.6175 C   0  0  0  0  0  0  0  0  0  0  0  0
    2.2403    1.8293    5.7994 H   0  0  0  0  0  0  0  0  0  0  0  0
  1 11  1  0  0  0  0
  1  7  1  0  0  0  0
  1 13  1  0  0  0  0
  2  1  1  0  0  0  0
  5 12  1  0  0  0  0
  7  8  1  0  0  0  0
  7 14  1  0  0  0  0
  9  7  1  0  0  0  0
 10 24  1  0  0  0  0
 10  1  1  0  0  0  0
 11  4  1  0  0  0  0
 12  1  1  0  0  0  0
 13  6  1  0  0  0  0
 14 15  1  0  0  0  0
 15 16  1  0  0  0  0
 15 17  2  0  0  0  0
 17 18  1  0  0  0  0
 19 17  1  0  0  0  0
 19 20  1  0  0  0  0
 21 19  2  0  0  0  0
 22 21  1  0  0  0  0
 23 14  2  0  0  0  0
 23 21  1  0  0  0  0
 24  3  1  1  0  0  0
 24 23  1  0  0  0  0
 25 10  1  0  0  0  0
 26 25  1  0  0  0  0
 26  3  1  0  0  0  0
 27 26  2  0  0  0  0
 28 27  1  0  0  0  0
 29 31  2  0  0  0  0
 29 27  1  0  0  0  0
 30 29  1  0  0  0  0
 31 33  1  0  0  0  0
 32 31  1  0  0  0  0
 33 34  1  0  0  0  0
 33 25  2  0  0  0  0
M  END
$$$$
