CSD_code = GUTQOB | q = 0 | S = 0 | Stoichiometry = C17H30ClF4NNiP2 | MND = 4
 OpenBabel04212202043D

 56 56  0  0  0  0  0  0  0  0999 V2000
    3.4897    3.1992   10.5118 Ni  0  0  0  0  0  0  0  0  0  0  0  0
    4.0959    3.7067   12.4390 Cl  0  0  0  0  0  0  0  0  0  0  0  0
    1.4423    3.3655   11.2347 P   0  0  0  0  0  4  0  0  0  0  0  0
    5.6006    3.2904   10.0010 P   0  0  0  0  0  4  0  0  0  0  0  0
    3.2127    0.6710    9.8811 F   0  0  0  0  0  0  0  0  0  0  0  0
    2.4944   -0.7395    7.5651 F   0  0  0  0  0  0  0  0  0  0  0  0
    1.9078    0.7772    5.3158 F   0  0  0  0  0  0  0  0  0  0  0  0
    2.6840    4.6397    7.4592 F   0  0  0  0  0  0  0  0  0  0  0  0
    2.3112    2.6776    6.4530 N   0  0  0  0  0  0  0  0  0  0  0  0
    2.9718    2.7018    8.7740 C   0  0  0  0  0  0  0  0  0  0  0  0
    2.9043    1.3113    8.7234 C   0  0  0  0  0  0  0  0  0  0  0  0
    2.5516    0.6015    7.5856 C   0  0  0  0  0  0  0  0  0  0  0  0
    2.2593    1.3691    6.4589 C   0  0  0  0  0  0  0  0  0  0  0  0
    2.6527    3.3016    7.5611 C   0  0  0  0  0  0  0  0  0  0  0  0
    0.0815    2.7495   10.1384 C   0  0  0  0  0  0  0  0  0  0  0  0
    0.1955    3.2704    9.1833 H   0  0  0  0  0  0  0  0  0  0  0  0
    0.2867    1.6916    9.9492 H   0  0  0  0  0  0  0  0  0  0  0  0
   -1.3428    2.9134   10.6518 C   0  0  0  0  0  0  0  0  0  0  0  0
   -1.5136    2.3224   11.5480 H   0  0  0  0  0  0  0  0  0  0  0  0
   -2.0427    2.5726    9.8908 H   0  0  0  0  0  0  0  0  0  0  0  0
   -1.5679    3.9537   10.8722 H   0  0  0  0  0  0  0  0  0  0  0  0
    1.1180    2.5268   12.8405 C   0  0  0  0  0  0  0  0  0  0  0  0
    1.6855    3.0679   13.6011 H   0  0  0  0  0  0  0  0  0  0  0  0
    0.0546    2.6064   13.0774 H   0  0  0  0  0  0  0  0  0  0  0  0
    1.5713    1.0733   12.7943 C   0  0  0  0  0  0  0  0  0  0  0  0
    1.0034    0.5059   12.0593 H   0  0  0  0  0  0  0  0  0  0  0  0
    1.4473    0.5997   13.7657 H   0  0  0  0  0  0  0  0  0  0  0  0
    2.6261    1.0279   12.5218 H   0  0  0  0  0  0  0  0  0  0  0  0
    0.9613    5.1006   11.6160 C   0  0  0  0  0  0  0  0  0  0  0  0
    0.0187    5.0960   12.1697 H   0  0  0  0  0  0  0  0  0  0  0  0
    1.7395    5.4933   12.2767 H   0  0  0  0  0  0  0  0  0  0  0  0
    0.8613    5.9531   10.3564 C   0  0  0  0  0  0  0  0  0  0  0  0
    1.7498    5.8254    9.7385 H   0  0  0  0  0  0  0  0  0  0  0  0
    0.7727    7.0062   10.6151 H   0  0  0  0  0  0  0  0  0  0  0  0
   -0.0054    5.6755    9.7610 H   0  0  0  0  0  0  0  0  0  0  0  0
    6.1133    2.8444    8.2764 C   0  0  0  0  0  0  0  0  0  0  0  0
    5.6964    1.8566    8.0595 H   0  0  0  0  0  0  0  0  0  0  0  0
    5.6033    3.5554    7.6195 H   0  0  0  0  0  0  0  0  0  0  0  0
    7.6075    2.8443    7.9847 C   0  0  0  0  0  0  0  0  0  0  0  0
    8.0665    3.7939    8.2493 H   0  0  0  0  0  0  0  0  0  0  0  0
    7.7691    2.6801    6.9210 H   0  0  0  0  0  0  0  0  0  0  0  0
    8.1160    2.0508    8.5258 H   0  0  0  0  0  0  0  0  0  0  0  0
    6.7919    2.3836   11.0682 C   0  0  0  0  0  0  0  0  0  0  0  0
    7.8073    2.6289   10.7467 H   0  0  0  0  0  0  0  0  0  0  0  0
    6.6495    2.7569   12.0850 H   0  0  0  0  0  0  0  0  0  0  0  0
    6.5360    0.8821   11.0284 C   0  0  0  0  0  0  0  0  0  0  0  0
    5.5063    0.6752   11.3176 H   0  0  0  0  0  0  0  0  0  0  0  0
    7.1968    0.3626   11.7193 H   0  0  0  0  0  0  0  0  0  0  0  0
    6.6974    0.4795   10.0301 H   0  0  0  0  0  0  0  0  0  0  0  0
    6.1429    5.0407   10.1742 C   0  0  0  0  0  0  0  0  0  0  0  0
    6.3098    5.2215   11.2389 H   0  0  0  0  0  0  0  0  0  0  0  0
    7.0811    5.1993    9.6387 H   0  0  0  0  0  0  0  0  0  0  0  0
    5.0443    5.9624    9.6572 C   0  0  0  0  0  0  0  0  0  0  0  0
    4.9014    5.8454    8.5848 H   0  0  0  0  0  0  0  0  0  0  0  0
    5.2756    7.0049    9.8644 H   0  0  0  0  0  0  0  0  0  0  0  0
    4.1022    5.7103   10.1578 H   0  0  0  0  0  0  0  0  0  0  0  0
  1  3  1  0  0  0  0
  1  2  1  0  0  0  0
  3 29  1  0  0  0  0
  3 22  1  0  0  0  0
  4 50  1  0  0  0  0
  4  1  1  0  0  0  0
  4 43  1  0  0  0  0
  6 12  1  0  0  0  0
  7 13  1  0  0  0  0
  8 14  1  0  0  0  0
  9 13  2  0  0  0  0
  9 14  1  0  0  0  0
 10  1  1  0  0  0  0
 11 10  1  0  0  0  0
 11  5  1  0  0  0  0
 12 11  2  0  0  0  0
 13 12  1  0  0  0  0
 14 10  2  0  0  0  0
 15 18  1  0  0  0  0
 15  3  1  0  0  0  0
 16 15  1  0  0  0  0
 17 15  1  0  0  0  0
 18 21  1  0  0  0  0
 18 19  1  0  0  0  0
 20 18  1  0  0  0  0
 22 24  1  0  0  0  0
 22 23  1  0  0  0  0
 25 22  1  0  0  0  0
 25 27  1  0  0  0  0
 26 25  1  0  0  0  0
 28 25  1  0  0  0  0
 29 30  1  0  0  0  0
 29 31  1  0  0  0  0
 32 34  1  0  0  0  0
 32 29  1  0  0  0  0
 33 32  1  0  0  0  0
 35 32  1  0  0  0  0
 36  4  1  0  0  0  0
 37 36  1  0  0  0  0
 38 36  1  0  0  0  0
 39 40  1  0  0  0  0
 39 36  1  0  0  0  0
 39 42  1  0  0  0  0
 41 39  1  0  0  0  0
 43 45  1  0  0  0  0
 44 43  1  0  0  0  0
 46 43  1  0  0  0  0
 46 47  1  0  0  0  0
 46 48  1  0  0  0  0
 49 46  1  0  0  0  0
 50 51  1  0  0  0  0
 52 50  1  0  0  0  0
 53 55  1  0  0  0  0
 53 56  1  0  0  0  0
 53 50  1  0  0  0  0
 54 53  1  0  0  0  0
M  END
$$$$
