CSD_code = GUVJOY | q = 0 | S = 0 | Stoichiometry = C24H18ClNOPdS | MND = 4
 OpenBabel04212202043D

 47 52  0  0  1  0  0  0  0  0999 V2000
    1.7777   16.1100    7.3052 Pd  0  0  2  0  0  0  0  0  0  0  0  0
   -0.2391   15.0885    7.1570 S   0  0  2  0  0  3  0  0  0  0  0  0
    1.8131   16.4102    5.0737 Cl  0  0  0  0  0  0  0  0  0  0  0  0
    3.6060   16.9250    7.4641 O   0  0  0  0  0  0  0  0  0  0  0  0
    1.6536   15.9183    9.3118 N   0  0  0  0  0  0  0  0  0  0  0  0
   -1.5545   13.5618   10.6494 C   0  0  0  0  0  0  0  0  0  0  0  0
   -2.3951   12.9754   10.9850 H   0  0  0  0  0  0  0  0  0  0  0  0
    4.1947   18.1128   10.8955 C   0  0  2  0  0  3  0  0  0  0  0  0
   -1.4639   13.9583    9.3275 C   0  0  0  0  0  0  0  0  0  0  0  0
   -2.2262   13.6834    8.6140 H   0  0  0  0  0  0  0  0  0  0  0  0
   -0.3800   14.7035    8.8994 C   0  0  0  0  0  0  0  0  0  0  0  0
    5.5123   18.5921   10.7032 C   0  0  0  0  0  0  0  0  0  0  0  0
    3.5382   17.3764    9.8328 C   0  0  0  0  0  0  0  0  0  0  0  0
    2.3764   16.6501   10.1289 C   0  0  0  0  0  0  0  0  0  0  0  0
    2.0593   16.6718   11.1684 H   0  0  0  0  0  0  0  0  0  0  0  0
    0.6222   15.1245    9.7884 C   0  0  0  0  0  0  0  0  0  0  0  0
    2.8972   13.6142    6.9184 C   0  0  0  0  0  0  0  0  0  0  0  0
    2.9865   14.0748    5.9328 H   0  0  0  0  0  0  0  0  0  0  0  0
    3.5819   18.4069   12.1245 C   0  0  0  0  0  0  0  0  0  0  0  0
    2.5543   18.1311   12.3063 H   0  0  0  0  0  0  0  0  0  0  0  0
    4.1441   17.3475    8.5298 C   0  0  0  0  0  0  0  0  0  0  0  0
    1.6597   13.1185    7.3561 C   0  0  0  0  0  0  0  0  0  0  0  0
    6.1473   18.3991    9.4434 C   0  0  0  0  0  0  0  0  0  0  0  0
    7.1622   18.7515    9.3239 H   0  0  0  0  0  0  0  0  0  0  0  0
    0.5306   14.6710   11.1130 C   0  0  0  0  0  0  0  0  0  0  0  0
    1.3196   14.8932   11.8147 H   0  0  0  0  0  0  0  0  0  0  0  0
    5.4941   17.8321    8.4089 C   0  0  0  0  0  0  0  0  0  0  0  0
    5.9463   17.7278    7.4342 H   0  0  0  0  0  0  0  0  0  0  0  0
    6.1766   19.2737   11.7325 C   0  0  0  0  0  0  0  0  0  0  0  0
    7.1859   19.6171   11.5568 H   0  0  0  0  0  0  0  0  0  0  0  0
    5.5585   19.5162   12.9332 C   0  0  0  0  0  0  0  0  0  0  0  0
    6.0724   20.0451   13.7214 H   0  0  0  0  0  0  0  0  0  0  0  0
    1.5919   12.4134    8.5517 C   0  0  0  0  0  0  0  0  0  0  0  0
    0.6481   12.0043    8.8838 H   0  0  0  0  0  0  0  0  0  0  0  0
    3.9372   12.7686    8.9184 C   0  0  0  0  0  0  0  0  0  0  0  0
    4.8161   12.6473    9.5335 H   0  0  0  0  0  0  0  0  0  0  0  0
   -0.5388   13.9054   11.5290 C   0  0  0  0  0  0  0  0  0  0  0  0
   -0.5800   13.5696   12.5543 H   0  0  0  0  0  0  0  0  0  0  0  0
    4.0262   13.4385    7.7052 C   0  0  0  0  0  0  0  0  0  0  0  0
    4.9788   13.8158    7.3637 H   0  0  0  0  0  0  0  0  0  0  0  0
    2.7277   12.2376    9.3274 C   0  0  0  0  0  0  0  0  0  0  0  0
    2.6582   11.6936   10.2576 H   0  0  0  0  0  0  0  0  0  0  0  0
    4.2451   19.0898   13.1172 C   0  0  0  0  0  0  0  0  0  0  0  0
    3.7377   19.3052   14.0462 H   0  0  0  0  0  0  0  0  0  0  0  0
    0.4171   13.4469    6.5909 C   0  0  0  0  0  0  0  0  0  0  0  0
   -0.3786   12.7182    6.7426 H   0  0  0  0  0  0  0  0  0  0  0  0
    0.6105   13.5968    5.5275 H   0  0  0  0  0  0  0  0  0  0  0  0
  1  3  1  1  0  0  0
  1  4  1  0  0  0  0
  1  5  1  0  0  0  0
  2 45  1  6  0  0  0
  2  1  1  0  0  0  0
  2 11  1  0  0  0  0
  4 21  1  0  0  0  0
  5 16  1  0  0  0  0
  5 14  1  0  0  0  0
  6  7  1  0  0  0  0
  6 37  1  0  0  0  0
  8 13  1  6  0  0  0
  8 19  1  0  0  0  0
  9  6  2  0  0  0  0
 10  9  1  0  0  0  0
 11  9  1  0  0  0  0
 11 16  2  0  0  0  0
 12  8  1  0  0  0  0
 12 29  1  0  0  0  0
 13 14  2  0  0  0  0
 14 15  1  0  0  0  0
 16 25  1  0  0  0  0
 17 22  2  0  0  0  0
 17 39  1  0  0  0  0
 18 17  1  0  0  0  0
 19 20  1  0  0  0  0
 19 43  2  0  0  0  0
 21 13  1  0  0  0  0
 22 33  1  0  0  0  0
 23 12  2  0  0  0  0
 24 23  1  0  0  0  0
 25 37  2  0  0  0  0
 25 26  1  0  0  0  0
 27 21  2  0  0  0  0
 27 23  1  0  0  0  0
 28 27  1  0  0  0  0
 29 31  2  0  0  0  0
 30 29  1  0  0  0  0
 31 43  1  0  0  0  0
 31 32  1  0  0  0  0
 33 34  1  0  0  0  0
 33 41  2  0  0  0  0
 35 41  1  0  0  0  0
 35 36  1  0  0  0  0
 37 38  1  0  0  0  0
 39 35  2  0  0  0  0
 40 39  1  0  0  0  0
 41 42  1  0  0  0  0
 43 44  1  0  0  0  0
 45 46  1  0  0  0  0
 45 22  1  0  0  0  0
 47 45  1  0  0  0  0
M  END
$$$$
