CSD_code = GUVMOB | q = 0 | S = 0 | Stoichiometry = C25H28BrFN2Pt | MND = 4
 OpenBabel04212202043D

 58 61  0  0  0  0  0  0  0  0999 V2000
    3.9392   13.2062   13.0761 Pt  0  0  2  0  0  0  0  0  0  0  0  0
    5.6956   14.0487   11.7731 Br  0  0  0  0  0  0  0  0  0  0  0  0
    2.4260   12.6285   14.2383 N   0  0  0  0  0  0  0  0  0  0  0  0
    3.9369   15.0158   14.4771 N   0  0  0  0  0  4  0  0  0  0  0  0
   -0.6424   12.7916   14.8092 F   0  0  0  0  0  0  0  0  0  0  0  0
    3.8730   11.5283   11.9859 C   0  0  0  0  0  0  0  0  0  0  0  0
    2.9250   11.3319   10.9875 C   0  0  0  0  0  0  0  0  0  0  0  0
    2.2572   12.1377   10.7024 H   0  0  0  0  0  0  0  0  0  0  0  0
    2.8214   10.1088   10.3479 C   0  0  0  0  0  0  0  0  0  0  0  0
    2.0776    9.9699    9.5748 H   0  0  0  0  0  0  0  0  0  0  0  0
    3.6605    9.0534   10.6847 C   0  0  0  0  0  0  0  0  0  0  0  0
    3.5214    7.7271    9.9972 C   0  0  0  0  0  0  0  0  0  0  0  0
    2.5434    7.2924   10.2046 H   0  0  0  0  0  0  0  0  0  0  0  0
    4.2871    7.0331   10.3354 H   0  0  0  0  0  0  0  0  0  0  0  0
    3.6111    7.8451    8.9182 H   0  0  0  0  0  0  0  0  0  0  0  0
    4.6226    9.2595   11.6619 C   0  0  0  0  0  0  0  0  0  0  0  0
    5.2969    8.4565   11.9244 H   0  0  0  0  0  0  0  0  0  0  0  0
    4.7320   10.4829   12.3019 C   0  0  0  0  0  0  0  0  0  0  0  0
    5.5024   10.6213   13.0532 H   0  0  0  0  0  0  0  0  0  0  0  0
    1.8695   11.4719   14.2255 C   0  0  0  0  0  3  0  0  0  0  0  0
    2.2620   10.7572   13.5099 H   0  0  0  0  0  0  0  0  0  0  0  0
    0.8089   10.9317   15.0707 C   0  0  0  0  0  0  0  0  0  0  0  0
   -0.4060   11.5646   15.3301 C   0  0  0  0  0  0  0  0  0  0  0  0
   -1.4181   10.9690   16.0568 C   0  0  0  0  0  0  0  0  0  0  0  0
   -2.3371   11.5088   16.2206 H   0  0  0  0  0  0  0  0  0  0  0  0
   -1.2319    9.6842   16.5366 C   0  0  0  0  0  0  0  0  0  0  0  0
   -2.0142    9.2062   17.1052 H   0  0  0  0  0  0  0  0  0  0  0  0
   -0.0502    9.0126   16.2753 C   0  0  0  0  0  0  0  0  0  0  0  0
    0.0952    8.0090   16.6453 H   0  0  0  0  0  0  0  0  0  0  0  0
    0.9692    9.6164   15.5519 C   0  0  0  0  0  0  0  0  0  0  0  0
    2.2317    8.9039   15.2977 C   0  0  0  0  0  0  0  0  0  0  0  0
    3.4580    9.4874   15.6082 C   0  0  0  0  0  0  0  0  0  0  0  0
    3.4832   10.4612   16.0757 H   0  0  0  0  0  0  0  0  0  0  0  0
    4.6381    8.8208   15.3504 C   0  0  0  0  0  0  0  0  0  0  0  0
    5.5802    9.2851   15.6028 H   0  0  0  0  0  0  0  0  0  0  0  0
    4.6325    7.5607   14.7631 C   0  0  0  0  0  0  0  0  0  0  0  0
    3.4086    6.9791   14.4583 C   0  0  0  0  0  0  0  0  0  0  0  0
    3.3826    6.0016   13.9987 H   0  0  0  0  0  0  0  0  0  0  0  0
    2.2226    7.6341   14.7298 C   0  0  0  0  0  0  0  0  0  0  0  0
    1.2794    7.1736   14.4741 H   0  0  0  0  0  0  0  0  0  0  0  0
    5.9193    6.8457   14.4919 C   0  0  0  0  0  0  0  0  0  0  0  0
    6.6768    7.5385   14.1320 H   0  0  0  0  0  0  0  0  0  0  0  0
    5.7805    6.0578   13.7561 H   0  0  0  0  0  0  0  0  0  0  0  0
    6.2938    6.3909   15.4098 H   0  0  0  0  0  0  0  0  0  0  0  0
    2.0161   13.6279   15.2057 C   0  0  0  0  0  0  0  0  0  0  0  0
    1.5831   13.1581   16.0988 H   0  0  0  0  0  0  0  0  0  0  0  0
    1.2427   14.2576   14.7533 H   0  0  0  0  0  0  0  0  0  0  0  0
    3.2086   14.4878   15.6277 C   0  0  0  0  0  0  0  0  0  0  0  0
    2.8546   15.3000   16.2841 H   0  0  0  0  0  0  0  0  0  0  0  0
    3.8990   13.8626   16.2043 H   0  0  0  0  0  0  0  0  0  0  0  0
    3.1918   16.0731   13.8012 C   0  0  0  0  0  0  0  0  0  0  0  0
    2.2466   15.6926   13.4129 H   0  0  0  0  0  0  0  0  0  0  0  0
    3.7811   16.4401   12.9612 H   0  0  0  0  0  0  0  0  0  0  0  0
    2.9831   16.9125   14.4796 H   0  0  0  0  0  0  0  0  0  0  0  0
    5.2320   15.5347   14.9037 C   0  0  0  0  0  0  0  0  0  0  0  0
    5.1149   16.3494   15.6309 H   0  0  0  0  0  0  0  0  0  0  0  0
    5.7772   15.9075   14.0385 H   0  0  0  0  0  0  0  0  0  0  0  0
    5.8213   14.7373   15.3566 H   0  0  0  0  0  0  0  0  0  0  0  0
  1  2  1  6  0  0  0
  1  3  1  0  0  0  0
  1  4  1  0  0  0  0
  3 45  1  0  0  0  0
  4 55  1  0  0  0  0
  4 48  1  0  0  0  0
  5 23  1  0  0  0  0
  6 18  1  0  0  0  0
  6  1  1  0  0  0  0
  7  6  2  0  0  0  0
  8  7  1  0  0  0  0
  9 11  2  0  0  0  0
  9  7  1  0  0  0  0
 10  9  1  0  0  0  0
 11 16  1  0  0  0  0
 12 13  1  0  0  0  0
 12 14  1  0  0  0  0
 12 11  1  0  0  0  0
 15 12  1  0  0  0  0
 16 17  1  0  0  0  0
 16 18  2  0  0  0  0
 18 19  1  0  0  0  0
 20  3  1  0  0  0  0
 20 22  1  0  0  0  0
 21 20  1  0  0  0  0
 22 23  2  0  0  0  0
 22 30  1  0  0  0  0
 23 24  1  0  0  0  0
 24 25  1  0  0  0  0
 24 26  2  0  0  0  0
 26 27  1  0  0  0  0
 28 26  1  0  0  0  0
 28 29  1  0  0  0  0
 30 28  2  0  0  0  0
 31 30  1  0  0  0  0
 31 32  1  0  0  0  0
 32 33  1  0  0  0  0
 34 35  1  0  0  0  0
 34 32  2  0  0  0  0
 36 34  1  0  0  0  0
 37 39  1  0  0  0  0
 37 36  2  0  0  0  0
 38 37  1  0  0  0  0
 39 31  2  0  0  0  0
 40 39  1  0  0  0  0
 41 36  1  0  0  0  0
 41 44  1  0  0  0  0
 42 41  1  0  0  0  0
 43 41  1  0  0  0  0
 45 48  1  0  0  0  0
 45 46  1  0  0  0  0
 47 45  1  0  0  0  0
 48 50  1  0  0  0  0
 48 49  1  0  0  0  0
 51  4  1  0  0  0  0
 51 54  1  0  0  0  0
 52 51  1  0  0  0  0
 53 51  1  0  0  0  0
 55 58  1  0  0  0  0
 55 56  1  0  0  0  0
 57 55  1  0  0  0  0
M  END
$$$$
