CSD_code = GUVNIV | q = 0 | S = 0 | Stoichiometry = C27H21AuClN2P | MND = 2
 OpenBabel04212202043D

 53 57  0  0  0  0  0  0  0  0999 V2000
   -0.2933   12.3025    2.1407 C   0  0  0  0  0  0  0  0  0  0  0  0
   -1.3317   12.9943    2.7894 C   0  0  0  0  0  0  0  0  0  0  0  0
   -2.2426   13.4072    1.7910 C   0  0  0  0  0  0  0  0  0  0  0  0
   -3.1541   13.9656    1.8796 H   0  0  0  0  0  0  0  0  0  0  0  0
    0.0190   11.7803   -0.2593 C   0  0  0  0  0  0  0  0  0  0  0  0
    1.3150   11.2894   -0.1461 C   0  0  0  0  0  0  0  0  0  0  0  0
    1.8245   11.3305    0.8045 H   0  0  0  0  0  0  0  0  0  0  0  0
    1.9414   10.7509   -1.2548 C   0  0  0  0  0  0  0  0  0  0  0  0
    2.9473   10.3704   -1.1612 H   0  0  0  0  0  0  0  0  0  0  0  0
    1.2905   10.7017   -2.4763 C   0  0  0  0  0  0  0  0  0  0  0  0
    1.7868   10.2811   -3.3379 H   0  0  0  0  0  0  0  0  0  0  0  0
    0.0015   11.1964   -2.5878 C   0  0  0  0  0  0  0  0  0  0  0  0
   -0.5117   11.1621   -3.5374 H   0  0  0  0  0  0  0  0  0  0  0  0
   -0.6363   11.7338   -1.4864 C   0  0  0  0  0  0  0  0  0  0  0  0
   -1.6389   12.1247   -1.5548 H   0  0  0  0  0  0  0  0  0  0  0  0
   -1.3412   11.7413    5.5661 C   0  0  0  0  0  0  0  0  0  0  0  0
   -1.5552   10.4826    5.0192 C   0  0  0  0  0  0  0  0  0  0  0  0
   -1.5785   10.3613    3.9440 H   0  0  0  0  0  0  0  0  0  0  0  0
   -1.7172    9.3968    5.8582 C   0  0  0  0  0  0  0  0  0  0  0  0
   -1.8728    8.4139    5.4396 H   0  0  0  0  0  0  0  0  0  0  0  0
   -1.6638    9.5676    7.2330 C   0  0  0  0  0  0  0  0  0  0  0  0
   -1.7678    8.7129    7.8843 H   0  0  0  0  0  0  0  0  0  0  0  0
   -1.4813   10.8291    7.7755 C   0  0  0  0  0  0  0  0  0  0  0  0
   -1.4508   10.9597    8.8470 H   0  0  0  0  0  0  0  0  0  0  0  0
   -1.3335   11.9245    6.9447 C   0  0  0  0  0  0  0  0  0  0  0  0
   -1.2096   12.9188    7.3547 H   0  0  0  0  0  0  0  0  0  0  0  0
   -2.6129   14.1580    5.0208 C   0  0  0  0  0  0  0  0  0  0  0  0
   -3.8410   13.5776    4.7105 C   0  0  0  0  0  0  0  0  0  0  0  0
   -3.8592   12.6208    4.2029 H   0  0  0  0  0  0  0  0  0  0  0  0
   -5.0158   14.2194    5.0498 C   0  0  0  0  0  0  0  0  0  0  0  0
   -5.9673   13.7716    4.8044 H   0  0  0  0  0  0  0  0  0  0  0  0
   -4.9693   15.4394    5.7077 C   0  0  0  0  0  0  0  0  0  0  0  0
   -5.8869   15.9429    5.9730 H   0  0  0  0  0  0  0  0  0  0  0  0
   -3.7500   16.0116    6.0287 C   0  0  0  0  0  0  0  0  0  0  0  0
   -3.7166   16.9589    6.5463 H   0  0  0  0  0  0  0  0  0  0  0  0
   -2.5685   15.3741    5.6892 C   0  0  0  0  0  0  0  0  0  0  0  0
   -1.6168   15.8216    5.9406 H   0  0  0  0  0  0  0  0  0  0  0  0
    0.2567   14.2405    4.9833 C   0  0  0  0  0  0  0  0  0  0  0  0
    1.1645   13.9111    5.9825 C   0  0  0  0  0  0  0  0  0  0  0  0
    1.0793   12.9762    6.5160 H   0  0  0  0  0  0  0  0  0  0  0  0
    2.2141   14.7726    6.2461 C   0  0  0  0  0  0  0  0  0  0  0  0
    2.9297   14.5165    7.0122 H   0  0  0  0  0  0  0  0  0  0  0  0
    2.3586   15.9453    5.5212 C   0  0  0  0  0  0  0  0  0  0  0  0
    3.1863   16.6071    5.7284 H   0  0  0  0  0  0  0  0  0  0  0  0
    1.4521   16.2687    4.5231 C   0  0  0  0  0  0  0  0  0  0  0  0
    1.5702   17.1792    3.9544 H   0  0  0  0  0  0  0  0  0  0  0  0
    0.3972   15.4183    4.2518 C   0  0  0  0  0  0  0  0  0  0  0  0
   -0.3187   15.6487    3.4714 H   0  0  0  0  0  0  0  0  0  0  0  0
    1.0316   11.6312    3.4557 Au  0  0  0  0  0  0  0  0  0  0  0  0
    2.3114   10.9409    5.1916 Cl  0  0  0  0  0  0  0  0  0  0  0  0
   -0.6490   12.3332    0.8421 N   0  0  0  0  0  0  0  0  0  0  0  0
   -1.8142   12.9908    0.6308 N   0  0  0  0  0  0  0  0  0  0  0  0
   -1.1448   13.2020    4.5231 P   0  0  0  0  0  4  0  0  0  0  0  0
  1  2  2  0  0  0  0
  1 49  1  0  0  0  0
  2 53  1  0  0  0  0
  3  4  1  0  0  0  0
  3  2  1  0  0  0  0
  5  6  1  0  0  0  0
  5 51  1  0  0  0  0
  6  7  1  0  0  0  0
  8  9  1  0  0  0  0
  8  6  2  0  0  0  0
 10  8  1  0  0  0  0
 11 10  1  0  0  0  0
 12 10  2  0  0  0  0
 12 14  1  0  0  0  0
 13 12  1  0  0  0  0
 14  5  2  0  0  0  0
 15 14  1  0  0  0  0
 16 25  1  0  0  0  0
 17 16  2  0  0  0  0
 17 19  1  0  0  0  0
 18 17  1  0  0  0  0
 19 21  2  0  0  0  0
 20 19  1  0  0  0  0
 21 23  1  0  0  0  0
 21 22  1  0  0  0  0
 23 24  1  0  0  0  0
 25 26  1  0  0  0  0
 25 23  2  0  0  0  0
 27 36  1  0  0  0  0
 28 27  2  0  0  0  0
 28 30  1  0  0  0  0
 29 28  1  0  0  0  0
 30 32  2  0  0  0  0
 31 30  1  0  0  0  0
 32 33  1  0  0  0  0
 32 34  1  0  0  0  0
 34 35  1  0  0  0  0
 36 37  1  0  0  0  0
 36 34  2  0  0  0  0
 38 39  1  0  0  0  0
 39 41  2  0  0  0  0
 39 40  1  0  0  0  0
 41 42  1  0  0  0  0
 43 44  1  0  0  0  0
 43 41  1  0  0  0  0
 45 43  2  0  0  0  0
 46 45  1  0  0  0  0
 47 45  1  0  0  0  0
 47 38  2  0  0  0  0
 48 47  1  0  0  0  0
 49 50  1  0  0  0  0
 51  1  1  0  0  0  0
 52 51  1  0  0  0  0
 52  3  2  0  0  0  0
 53 38  1  0  0  0  0
 53 27  1  0  0  0  0
 53 16  1  0  0  0  0
M  END
$$$$
