CSD_code = GUWXEC | q = 0 | S = 0 | Stoichiometry = C20H14CdI2N4 | MND = 5
 OpenBabel04212202043D

 41 46  0  0  1  0  0  0  0  0999 V2000
   11.1330   -0.0899    8.7535 Cd  0  0  0  0  0  0  0  0  0  0  0  0
   12.8460   -1.1639    6.9912 I   0  0  0  0  0  0  0  0  0  0  0  0
   10.7650   -0.1546   11.4342 I   0  0  0  0  0  0  0  0  0  0  0  0
    9.0959   -1.3517    8.0901 N   0  0  0  0  0  0  0  0  0  0  0  0
    9.1756    1.3127    8.4719 N   0  0  0  0  0  0  0  0  0  0  0  0
   11.6850    2.3017    8.4050 N   0  0  0  0  0  0  0  0  0  0  0  0
    6.1902    4.6054   10.6573 N   0  0  0  0  0  0  0  0  0  0  0  0
    9.0819   -2.6022    7.6593 C   0  0  0  0  0  3  0  0  0  0  0  0
   10.0491   -3.0763    7.5361 H   0  0  0  0  0  0  0  0  0  0  0  0
    7.9101   -3.2863    7.3712 C   0  0  0  0  0  0  0  0  0  0  0  0
    7.9452   -4.3067    7.0254 H   0  0  0  0  0  0  0  0  0  0  0  0
    6.7050   -2.6223    7.5329 C   0  0  0  0  0  0  0  0  0  0  0  0
    5.7698   -3.1138    7.3092 H   0  0  0  0  0  0  0  0  0  0  0  0
    6.7158   -1.3129    7.9830 C   0  0  0  0  0  0  0  0  0  0  0  0
    5.7935   -0.7651    8.0951 H   0  0  0  0  0  0  0  0  0  0  0  0
    7.9389   -0.7069    8.2617 C   0  0  0  0  0  0  0  0  0  0  0  0
    8.0382    0.6823    8.7519 C   0  0  1  0  0  3  0  0  0  0  0  0
    7.0275    1.2824    9.4974 C   0  0  0  0  0  0  0  0  0  0  0  0
    6.1262    0.7398    9.7319 H   0  0  0  0  0  0  0  0  0  0  0  0
    7.2138    2.5821    9.9597 C   0  0  0  0  0  0  0  0  0  0  0  0
    8.3996    3.2367    9.6347 C   0  0  0  0  0  0  0  0  0  0  0  0
    8.5596    4.2364   10.0025 H   0  0  0  0  0  0  0  0  0  0  0  0
    9.3633    2.5607    8.8955 C   0  0  0  0  0  0  0  0  0  0  0  0
   10.6738    3.1582    8.5730 C   0  0  2  0  0  3  0  0  0  0  0  0
   10.8485    4.5342    8.4439 C   0  0  0  0  0  0  0  0  0  0  0  0
   10.0114    5.2042    8.5575 H   0  0  0  0  0  0  0  0  0  0  0  0
   12.1091    5.0217    8.1433 C   0  0  0  0  0  0  0  0  0  0  0  0
   12.2716    6.0839    8.0364 H   0  0  0  0  0  0  0  0  0  0  0  0
   13.1535    4.1260    7.9787 C   0  0  0  0  0  0  0  0  0  0  0  0
   14.1500    4.4645    7.7450 H   0  0  0  0  0  0  0  0  0  0  0  0
   12.8878    2.7717    8.1168 C   0  0  0  0  0  0  0  0  0  0  0  0
   13.6717    2.0340    7.9873 H   0  0  0  0  0  0  0  0  0  0  0  0
    6.2100    3.2791   10.7771 C   0  0  0  0  0  0  0  0  0  0  0  0
    5.3506    2.5974   11.6375 C   0  0  0  0  0  0  0  0  0  0  0  0
    5.4177    1.5270   11.7506 H   0  0  0  0  0  0  0  0  0  0  0  0
    4.4361    3.3293   12.3761 C   0  0  0  0  0  0  0  0  0  0  0  0
    3.7611    2.8312   13.0566 H   0  0  0  0  0  0  0  0  0  0  0  0
    4.4048    4.7069   12.2315 C   0  0  0  0  0  0  0  0  0  0  0  0
    3.7039    5.3118   12.7846 H   0  0  0  0  0  0  0  0  0  0  0  0
    5.3129    5.2925   11.3598 C   0  0  0  0  0  0  0  0  0  0  0  0
    5.3408    6.3649   11.2163 H   0  0  0  0  0  0  0  0  0  0  0  0
  1  3  1  0  0  0  0
  2  1  1  0  0  0  0
  4 16  1  0  0  0  0
  4  1  1  0  0  0  0
  5 17  1  0  0  0  0
  5  1  1  0  0  0  0
  5 23  1  0  0  0  0
  6 24  1  0  0  0  0
  6  1  1  0  0  0  0
  7 33  2  0  0  0  0
  7 40  1  0  0  0  0
  8  4  1  0  0  0  0
  9  8  1  0  0  0  0
 10 12  2  0  0  0  0
 10  8  1  0  0  0  0
 11 10  1  0  0  0  0
 12 14  1  0  0  0  0
 13 12  1  0  0  0  0
 14 15  1  0  0  0  0
 14 16  2  0  0  0  0
 17 16  1  1  0  0  0
 17 18  1  0  0  0  0
 18 19  1  0  0  0  0
 18 20  2  0  0  0  0
 20 33  1  0  0  0  0
 21 20  1  0  0  0  0
 21 22  1  0  0  0  0
 23 21  2  0  0  0  0
 24 25  1  6  0  0  0
 24 23  1  0  0  0  0
 25 26  1  0  0  0  0
 27 25  2  0  0  0  0
 28 27  1  0  0  0  0
 29 31  2  0  0  0  0
 29 27  1  0  0  0  0
 30 29  1  0  0  0  0
 31  6  1  0  0  0  0
 32 31  1  0  0  0  0
 33 34  1  0  0  0  0
 34 35  1  0  0  0  0
 34 36  2  0  0  0  0
 36 37  1  0  0  0  0
 38 36  1  0  0  0  0
 38 39  1  0  0  0  0
 40 38  2  0  0  0  0
 41 40  1  0  0  0  0
M  END
$$$$
