CSD_code = GUYQUO | q = 0 | S = 0 | Stoichiometry = C18H22ClCoN6O4 | MND = 6
 OpenBabel04212202043D

 52 55  0  0  0  0  0  0  0  0999 V2000
   11.5782    6.7633    6.9679 Co  0  0  0  0  0  0  0  0  0  0  0  0
    9.4323    6.7672    7.3529 Cl  0  0  0  0  0  0  0  0  0  0  0  0
   11.2731    7.9520    5.5786 N   0  0  0  0  0  0  0  0  0  0  0  0
   11.7599    8.0672    8.4084 N   0  0  0  0  0  0  0  0  0  0  0  0
   13.4993    6.7594    6.5901 N   0  0  0  0  0  0  0  0  0  0  0  0
   20.4816    6.7610    5.5902 N   0  0  0  0  0  0  0  0  0  0  0  0
   11.4382    9.2202    5.7390 O   0  0  0  0  0  1  0  0  0  0  0  0
   11.7458    9.4040    8.2398 O   0  0  0  0  0  0  0  0  0  0  0  0
   11.5720    9.5188    7.2151 H   0  0  0  0  0  0  0  0  0  0  0  0
   10.8908    7.4010    4.4695 C   0  0  0  0  0  0  0  0  0  0  0  0
   10.5225    8.1860    3.2540 C   0  0  0  0  0  0  0  0  0  0  0  0
   11.1889    7.9500    2.4254 H   0  0  0  0  0  0  0  0  0  0  0  0
   10.5959    9.2461    3.4855 H   0  0  0  0  0  0  0  0  0  0  0  0
    9.5027    7.9537    2.9531 H   0  0  0  0  0  0  0  0  0  0  0  0
   11.7888    7.5741    9.5977 C   0  0  0  0  0  0  0  0  0  0  0  0
   11.7861    8.3959   10.8424 C   0  0  0  0  0  0  0  0  0  0  0  0
   12.6606    8.1740   11.4516 H   0  0  0  0  0  0  0  0  0  0  0  0
   10.8958    8.1754   11.4287 H   0  0  0  0  0  0  0  0  0  0  0  0
   11.7853    9.4504   10.5795 H   0  0  0  0  0  0  0  0  0  0  0  0
   14.1739    7.9001    6.4272 C   0  0  0  0  0  3  0  0  0  0  0  0
   13.6041    8.8195    6.4387 H   0  0  0  0  0  0  0  0  0  0  0  0
   15.5384    7.9445    6.2265 C   0  0  0  0  0  0  0  0  0  0  0  0
   16.0229    8.8975    6.0846 H   0  0  0  0  0  0  0  0  0  0  0  0
   16.2705    6.7585    6.1816 C   0  0  0  0  0  0  0  0  0  0  0  0
   19.7162    5.8434    5.0260 C   0  0  0  0  0  0  0  0  0  0  0  0
   20.2332    5.1137    4.4167 H   0  0  0  0  0  0  0  0  0  0  0  0
   18.3411    5.7912    5.1855 C   0  0  0  0  0  0  0  0  0  0  0  0
   17.7598    5.0307    4.6875 H   0  0  0  0  0  0  0  0  0  0  0  0
   17.7231    6.7591    5.9762 C   0  0  0  0  0  0  0  0  0  0  0  0
   11.2843    5.4863    5.6566 N   0  0  0  0  0  0  0  0  0  0  0  0
   11.4591    4.2323    5.8973 O   0  0  0  0  0  1  0  0  0  0  0  0
   10.8971    5.9629    4.5151 C   0  0  0  0  0  0  0  0  0  0  0  0
   10.5344    5.0998    3.3519 C   0  0  0  0  0  0  0  0  0  0  0  0
   11.1869    5.3012    2.5034 H   0  0  0  0  0  0  0  0  0  0  0  0
   10.6326    4.0570    3.6444 H   0  0  0  0  0  0  0  0  0  0  0  0
    9.5067    5.2923    3.0496 H   0  0  0  0  0  0  0  0  0  0  0  0
   11.7703    5.5555    8.4877 N   0  0  0  0  0  0  0  0  0  0  0  0
   11.7718    4.2107    8.4030 O   0  0  0  0  0  0  0  0  0  0  0  0
   11.5972    4.0300    7.3869 H   0  0  0  0  0  0  0  0  0  0  0  0
   11.7981    6.1226    9.6435 C   0  0  0  0  0  0  0  0  0  0  0  0
   11.8142    5.3804   10.9370 C   0  0  0  0  0  0  0  0  0  0  0  0
   12.6889    5.6529   11.5248 H   0  0  0  0  0  0  0  0  0  0  0  0
   10.9244    5.6234   11.5148 H   0  0  0  0  0  0  0  0  0  0  0  0
   11.8285    4.3116   10.7405 H   0  0  0  0  0  0  0  0  0  0  0  0
   14.1892    5.6176    6.5349 C   0  0  0  0  0  0  0  0  0  0  0  0
   13.6327    4.6958    6.6371 H   0  0  0  0  0  0  0  0  0  0  0  0
   15.5538    5.5723    6.3348 C   0  0  0  0  0  0  0  0  0  0  0  0
   16.0557    4.6179    6.3168 H   0  0  0  0  0  0  0  0  0  0  0  0
   19.8993    7.6782    6.3424 C   0  0  0  0  0  0  0  0  0  0  0  0
   20.5623    8.4089    6.7860 H   0  0  0  0  0  0  0  0  0  0  0  0
   18.5332    7.7285    6.5665 C   0  0  0  0  0  0  0  0  0  0  0  0
   18.1094    8.4891    7.2038 H   0  0  0  0  0  0  0  0  0  0  0  0
  1  2  1  0  0  0  0
  1  4  1  0  0  0  0
  1 37  1  0  0  0  0
  3  7  1  0  0  0  0
  3  1  1  0  0  0  0
  4 15  1  0  0  0  0
  5  1  1  0  0  0  0
  6 49  1  0  0  0  0
  8  4  1  0  0  0  0
  9  8  1  0  0  0  0
 10 32  2  0  0  0  0
 10  3  1  0  0  0  0
 11 13  1  0  0  0  0
 11 10  1  0  0  0  0
 12 11  1  0  0  0  0
 14 11  1  0  0  0  0
 15 40  2  0  0  0  0
 15 16  1  0  0  0  0
 16 18  1  0  0  0  0
 16 17  1  0  0  0  0
 19 16  1  0  0  0  0
 20 21  1  0  0  0  0
 20  5  1  0  0  0  0
 22 20  1  0  0  0  0
 23 22  1  0  0  0  0
 24 22  2  0  0  0  0
 24 47  1  0  0  0  0
 25 27  1  0  0  0  0
 25  6  2  0  0  0  0
 26 25  1  0  0  0  0
 27 29  2  0  0  0  0
 28 27  1  0  0  0  0
 29 24  1  0  0  0  0
 29 51  1  0  0  0  0
 30 31  1  0  0  0  0
 30  1  1  0  0  0  0
 32 30  1  0  0  0  0
 33 35  1  0  0  0  0
 33 32  1  0  0  0  0
 34 33  1  0  0  0  0
 36 33  1  0  0  0  0
 37 40  1  0  0  0  0
 38 37  1  0  0  0  0
 39 38  1  0  0  0  0
 40 41  1  0  0  0  0
 41 43  1  0  0  0  0
 41 42  1  0  0  0  0
 44 41  1  0  0  0  0
 45  5  1  0  0  0  0
 45 46  1  0  0  0  0
 47 45  2  0  0  0  0
 48 47  1  0  0  0  0
 49 51  2  0  0  0  0
 49 50  1  0  0  0  0
 51 52  1  0  0  0  0
M  END
$$$$
