CSD_code = GUZHOZ | q = 0 | S = 0 | Stoichiometry = C20H44ClNP2Ru | MND = 4
 OpenBabel04212202043D

 69 70  0  0  1  0  0  0  0  0999 V2000
    9.7234    5.3905    3.1897 Ru  0  0  2  0  0  0  0  0  0  0  0  0
    9.1071    4.3662    5.1121 Cl  0  0  0  0  0  0  0  0  0  0  0  0
   11.9172    5.5295    3.7476 P   0  0  0  0  0  4  0  0  0  0  0  0
    7.6231    5.4641    2.3378 P   0  0  0  0  0  4  0  0  0  0  0  0
   10.2371    6.2010    1.5906 N   0  0  2  0  0  0  0  0  0  0  0  0
   11.5778    6.6711    1.2722 C   0  0  0  0  0  0  0  0  0  0  0  0
   12.6621    6.0110    2.1228 C   0  0  0  0  0  0  0  0  0  0  0  0
    9.3351    6.6298    0.5312 C   0  0  0  0  0  0  0  0  0  0  0  0
    7.9758    5.9335    0.5823 C   0  0  0  0  0  0  0  0  0  0  0  0
   12.8541    3.9405    4.1497 C   0  0  0  0  0  0  0  0  0  0  0  0
   12.6162    3.5748    5.6146 C   0  0  0  0  0  0  0  0  0  0  0  0
   12.1395    2.9015    3.2758 C   0  0  0  0  0  0  0  0  0  0  0  0
   14.3507    3.9398    3.8445 C   0  0  0  0  0  0  0  0  0  0  0  0
   12.3941    6.9450    4.9047 C   0  0  0  0  0  0  0  0  0  0  0  0
   11.8715    8.1992    4.1962 C   0  0  0  0  0  0  0  0  0  0  0  0
   13.8792    7.0948    5.2124 C   0  0  0  0  0  0  0  0  0  0  0  0
   11.5844    6.7713    6.1909 C   0  0  0  0  0  0  0  0  0  0  0  0
    6.6709    3.8479    2.1264 C   0  0  0  0  0  0  0  0  0  0  0  0
    7.7904    2.8327    1.8612 C   0  0  0  0  0  0  0  0  0  0  0  0
    6.0011    3.4835    3.4510 C   0  0  0  0  0  0  0  0  0  0  0  0
    5.6490    3.8081    0.9919 C   0  0  0  0  0  0  0  0  0  0  0  0
    6.5199    6.8613    2.9709 C   0  0  0  0  0  0  0  0  0  0  0  0
    7.3292    8.1325    2.6933 C   0  0  0  0  0  0  0  0  0  0  0  0
    5.1377    6.9683    2.3376 C   0  0  0  0  0  0  0  0  0  0  0  0
    6.4151    6.7033    4.4888 C   0  0  0  0  0  0  0  0  0  0  0  0
   11.6049    7.7666    1.3923 H   0  0  0  0  0  0  0  0  0  0  0  0
   11.7934    6.4720    0.2074 H   0  0  0  0  0  0  0  0  0  0  0  0
   13.5384    6.6545    2.2242 H   0  0  0  0  0  0  0  0  0  0  0  0
   12.9683    5.0852    1.6311 H   0  0  0  0  0  0  0  0  0  0  0  0
    9.7998    6.4274   -0.4501 H   0  0  0  0  0  0  0  0  0  0  0  0
    9.2124    7.7236    0.5940 H   0  0  0  0  0  0  0  0  0  0  0  0
    8.0451    5.0021    0.0165 H   0  0  0  0  0  0  0  0  0  0  0  0
    7.1929    6.5505    0.1366 H   0  0  0  0  0  0  0  0  0  0  0  0
   11.5611    3.6873    5.8635 H   0  0  0  0  0  0  0  0  0  0  0  0
   13.2097    4.1976    6.2803 H   0  0  0  0  0  0  0  0  0  0  0  0
   12.8973    2.5365    5.7903 H   0  0  0  0  0  0  0  0  0  0  0  0
   12.5158    1.9009    3.4841 H   0  0  0  0  0  0  0  0  0  0  0  0
   12.2795    3.1027    2.2140 H   0  0  0  0  0  0  0  0  0  0  0  0
   11.0655    2.9170    3.4902 H   0  0  0  0  0  0  0  0  0  0  0  0
   14.5529    4.1527    2.7975 H   0  0  0  0  0  0  0  0  0  0  0  0
   14.7562    2.9527    4.0674 H   0  0  0  0  0  0  0  0  0  0  0  0
   14.8842    4.6644    4.4521 H   0  0  0  0  0  0  0  0  0  0  0  0
   10.8628    8.0031    3.8123 H   0  0  0  0  0  0  0  0  0  0  0  0
   12.5172    8.4933    3.3718 H   0  0  0  0  0  0  0  0  0  0  0  0
   11.8155    9.0334    4.8944 H   0  0  0  0  0  0  0  0  0  0  0  0
   14.4758    7.1060    4.3016 H   0  0  0  0  0  0  0  0  0  0  0  0
   14.2312    6.2904    5.8532 H   0  0  0  0  0  0  0  0  0  0  0  0
   14.0479    8.0355    5.7366 H   0  0  0  0  0  0  0  0  0  0  0  0
   11.6362    7.6764    6.7956 H   0  0  0  0  0  0  0  0  0  0  0  0
   11.9467    5.9425    6.7913 H   0  0  0  0  0  0  0  0  0  0  0  0
   10.5367    6.5808    5.9433 H   0  0  0  0  0  0  0  0  0  0  0  0
    8.5244    2.8743    2.6731 H   0  0  0  0  0  0  0  0  0  0  0  0
    8.3060    3.0368    0.9229 H   0  0  0  0  0  0  0  0  0  0  0  0
    7.3882    1.8216    1.8146 H   0  0  0  0  0  0  0  0  0  0  0  0
    5.1145    4.0885    3.6269 H   0  0  0  0  0  0  0  0  0  0  0  0
    6.6997    3.6221    4.2760 H   0  0  0  0  0  0  0  0  0  0  0  0
    5.6944    2.4377    3.4381 H   0  0  0  0  0  0  0  0  0  0  0  0
    4.8428    4.5172    1.1531 H   0  0  0  0  0  0  0  0  0  0  0  0
    5.2128    2.8102    0.9452 H   0  0  0  0  0  0  0  0  0  0  0  0
    6.1037    4.0166    0.0265 H   0  0  0  0  0  0  0  0  0  0  0  0
    8.3745    7.9652    2.9808 H   0  0  0  0  0  0  0  0  0  0  0  0
    6.9421    8.9642    3.2806 H   0  0  0  0  0  0  0  0  0  0  0  0
    7.2875    8.4140    1.6435 H   0  0  0  0  0  0  0  0  0  0  0  0
    5.1961    6.9680    1.2503 H   0  0  0  0  0  0  0  0  0  0  0  0
    4.6680    7.9015    2.6489 H   0  0  0  0  0  0  0  0  0  0  0  0
    4.4948    6.1514    2.6553 H   0  0  0  0  0  0  0  0  0  0  0  0
    7.4105    6.5417    4.9113 H   0  0  0  0  0  0  0  0  0  0  0  0
    5.7877    5.8625    4.7684 H   0  0  0  0  0  0  0  0  0  0  0  0
    5.9938    7.6039    4.9345 H   0  0  0  0  0  0  0  0  0  0  0  0
  1  3  1  0  0  0  0
  1  2  1  6  0  0  0
  3 10  1  0  0  0  0
  3 14  1  0  0  0  0
  4 22  1  0  0  0  0
  4  1  1  0  0  0  0
  5  8  1  1  0  0  0
  5  1  1  0  0  0  0
  6 26  1  0  0  0  0
  6  5  1  0  0  0  0
  6  7  1  0  0  0  0
  7 28  1  0  0  0  0
  7  3  1  0  0  0  0
  8  9  1  0  0  0  0
  8 31  1  0  0  0  0
  9  4  1  0  0  0  0
 10 11  1  0  0  0  0
 11 36  1  0  0  0  0
 11 34  1  0  0  0  0
 11 35  1  0  0  0  0
 12 37  1  0  0  0  0
 12 39  1  0  0  0  0
 12 10  1  0  0  0  0
 13 41  1  0  0  0  0
 13 10  1  0  0  0  0
 13 42  1  0  0  0  0
 14 16  1  0  0  0  0
 14 17  1  0  0  0  0
 15 45  1  0  0  0  0
 15 14  1  0  0  0  0
 16 48  1  0  0  0  0
 16 47  1  0  0  0  0
 17 50  1  0  0  0  0
 17 49  1  0  0  0  0
 18  4  1  0  0  0  0
 18 20  1  0  0  0  0
 19 18  1  0  0  0  0
 19 52  1  0  0  0  0
 20 55  1  0  0  0  0
 20 56  1  0  0  0  0
 21 58  1  0  0  0  0
 21 18  1  0  0  0  0
 22 25  1  0  0  0  0
 23 22  1  0  0  0  0
 23 61  1  0  0  0  0
 23 62  1  0  0  0  0
 24 65  1  0  0  0  0
 24 66  1  0  0  0  0
 24 22  1  0  0  0  0
 25 68  1  0  0  0  0
 25 67  1  0  0  0  0
 25 69  1  0  0  0  0
 27  6  1  0  0  0  0
 29  7  1  0  0  0  0
 30  8  1  0  0  0  0
 32  9  1  0  0  0  0
 33  9  1  0  0  0  0
 38 12  1  0  0  0  0
 40 13  1  0  0  0  0
 43 15  1  0  0  0  0
 44 15  1  0  0  0  0
 46 16  1  0  0  0  0
 51 17  1  0  0  0  0
 53 19  1  0  0  0  0
 54 19  1  0  0  0  0
 57 20  1  0  0  0  0
 59 21  1  0  0  0  0
 60 21  1  0  0  0  0
 63 23  1  0  0  0  0
 64 24  1  0  0  0  0
M  END
$$$$
