CSD_code = GUZLES | q = 0 | S = 0 | Stoichiometry = C24H34Cl2FeN4 | MND = 6
 OpenBabel04212202043D

 65 71  0  0  1  0  0  0  0  0999 V2000
    4.3238    7.6541    4.9839 Fe  0  0  0  0  0  0  0  0  0  0  0  0
    5.4884    9.2437    3.9428 Cl  0  0  0  0  0  0  0  0  0  0  0  0
    5.8052    7.4815    6.3769 N   0  0  2  0  0  4  0  0  0  0  0  0
    7.0144    7.0409    5.6687 C   0  0  0  0  0  0  0  0  0  0  0  0
    7.5444    6.2789    6.2521 H   0  0  0  0  0  0  0  0  0  0  0  0
    7.6789    7.8950    5.5667 H   0  0  0  0  0  0  0  0  0  0  0  0
    6.7122    6.5474    4.2404 C   0  0  0  0  0  0  0  0  0  0  0  0
    6.9383    7.3652    3.5599 H   0  0  0  0  0  0  0  0  0  0  0  0
    7.3436    5.6877    3.9804 H   0  0  0  0  0  0  0  0  0  0  0  0
    5.2963    6.2451    4.0721 N   0  0  2  0  0  4  0  0  0  0  0  0
    4.8561    6.4304    2.6965 C   0  0  0  0  0  0  0  0  0  0  0  0
    5.2460    5.6486    2.0286 H   0  0  0  0  0  0  0  0  0  0  0  0
    5.2315    7.4011    2.3728 H   0  0  0  0  0  0  0  0  0  0  0  0
    5.3114    6.4589    7.3078 C   0  0  0  0  0  0  0  0  0  0  0  0
    5.6574    6.6570    8.3271 H   0  0  0  0  0  0  0  0  0  0  0  0
    5.7016    5.4827    7.0236 H   0  0  0  0  0  0  0  0  0  0  0  0
    4.9770    4.9127    4.5846 C   0  0  0  0  0  0  0  0  0  0  0  0
    5.7985    4.5846    5.2202 H   0  0  0  0  0  0  0  0  0  0  0  0
    4.9092    4.1937    3.7585 H   0  0  0  0  0  0  0  0  0  0  0  0
    6.0200    8.7712    7.0651 C   0  0  0  0  0  0  0  0  0  0  0  0
    5.0584    9.0708    7.4808 H   0  0  0  0  0  0  0  0  0  0  0  0
    6.2721    9.4941    6.2887 H   0  0  0  0  0  0  0  0  0  0  0  0
    7.0609    8.7611    8.1502 C   0  0  0  0  0  0  0  0  0  0  0  0
    8.4036    9.0004    7.8764 C   0  0  0  0  0  0  0  0  0  0  0  0
    8.7125    9.2439    6.8704 H   0  0  0  0  0  0  0  0  0  0  0  0
    9.3514    8.9656    8.8839 C   0  0  0  0  0  0  0  0  0  0  0  0
   10.3890    9.1562    8.6512 H   0  0  0  0  0  0  0  0  0  0  0  0
    8.9729    8.6982   10.1884 C   0  0  0  0  0  0  0  0  0  0  0  0
    9.7128    8.6697   10.9746 H   0  0  0  0  0  0  0  0  0  0  0  0
    7.6360    8.4940   10.4823 C   0  0  0  0  0  0  0  0  0  0  0  0
    7.3271    8.3134   11.5019 H   0  0  0  0  0  0  0  0  0  0  0  0
    6.6901    8.5320    9.4728 C   0  0  0  0  0  0  0  0  0  0  0  0
    5.6442    8.4129    9.7215 H   0  0  0  0  0  0  0  0  0  0  0  0
    3.1592    9.2432    6.0260 Cl  0  0  0  0  0  0  0  0  0  0  0  0
    2.8425    7.4815    3.5912 N   0  0  2  0  0  4  0  0  0  0  0  0
    1.6332    7.0407    4.2992 C   0  0  0  0  0  0  0  0  0  0  0  0
    1.1036    6.2786    3.7158 H   0  0  0  0  0  0  0  0  0  0  0  0
    0.9686    7.8947    4.4011 H   0  0  0  0  0  0  0  0  0  0  0  0
    1.9355    6.5474    5.7276 C   0  0  0  0  0  0  0  0  0  0  0  0
    1.7095    7.3653    6.4081 H   0  0  0  0  0  0  0  0  0  0  0  0
    1.3039    5.6878    5.9878 H   0  0  0  0  0  0  0  0  0  0  0  0
    3.3513    6.2450    5.8959 N   0  0  2  0  0  4  0  0  0  0  0  0
    3.7916    6.4303    7.2714 C   0  0  0  0  0  0  0  0  0  0  0  0
    3.4017    5.6486    7.9394 H   0  0  0  0  0  0  0  0  0  0  0  0
    3.4163    7.4011    7.5951 H   0  0  0  0  0  0  0  0  0  0  0  0
    3.6705    4.9127    5.3833 C   0  0  0  0  0  0  0  0  0  0  0  0
    3.3363    6.4590    2.6602 C   0  0  0  0  0  0  0  0  0  0  0  0
    2.6276    8.7712    2.9031 C   0  0  0  0  0  0  0  0  0  0  0  0
    3.5892    9.0709    2.4874 H   0  0  0  0  0  0  0  0  0  0  0  0
    2.3752    9.4940    3.6794 H   0  0  0  0  0  0  0  0  0  0  0  0
    1.5867    8.7609    1.8178 C   0  0  0  0  0  0  0  0  0  0  0  0
    0.2440    9.0001    2.0914 C   0  0  0  0  0  0  0  0  0  0  0  0
   -0.0651    9.2435    3.0974 H   0  0  0  0  0  0  0  0  0  0  0  0
   -0.7036    8.9653    1.0838 C   0  0  0  0  0  0  0  0  0  0  0  0
   -1.7413    9.1559    1.3164 H   0  0  0  0  0  0  0  0  0  0  0  0
   -0.3249    8.6981   -0.2207 C   0  0  0  0  0  0  0  0  0  0  0  0
   -1.0647    8.6697   -1.0070 H   0  0  0  0  0  0  0  0  0  0  0  0
    1.0121    8.4937   -0.5144 C   0  0  0  0  0  0  0  0  0  0  0  0
    1.3211    8.3131   -1.5339 H   0  0  0  0  0  0  0  0  0  0  0  0
    1.9578    8.5317    0.4953 C   0  0  0  0  0  0  0  0  0  0  0  0
    3.0037    8.4126    0.2468 H   0  0  0  0  0  0  0  0  0  0  0  0
    2.9901    6.6570    1.6409 H   0  0  0  0  0  0  0  0  0  0  0  0
    2.9463    5.4828    2.9445 H   0  0  0  0  0  0  0  0  0  0  0  0
    2.8490    4.5847    4.7475 H   0  0  0  0  0  0  0  0  0  0  0  0
    3.7383    4.1935    6.2092 H   0  0  0  0  0  0  0  0  0  0  0  0
  1 42  1  0  0  0  0
  1 34  1  0  0  0  0
  1  3  1  0  0  0  0
  2  1  1  0  0  0  0
  3 20  1  1  0  0  0
  3 14  1  0  0  0  0
  4  5  1  0  0  0  0
  4  3  1  0  0  0  0
  6  4  1  0  0  0  0
  7  4  1  0  0  0  0
  8  7  1  0  0  0  0
  9  7  1  0  0  0  0
 10 11  1  6  0  0  0
 10  7  1  0  0  0  0
 10 17  1  0  0  0  0
 10  1  1  0  0  0  0
 12 11  1  0  0  0  0
 13 11  1  0  0  0  0
 14 15  1  0  0  0  0
 16 14  1  0  0  0  0
 17 18  1  0  0  0  0
 17 46  1  0  0  0  0
 19 17  1  0  0  0  0
 20 21  1  0  0  0  0
 20 23  1  0  0  0  0
 22 20  1  0  0  0  0
 23 32  1  0  0  0  0
 24 23  2  0  0  0  0
 24 26  1  0  0  0  0
 25 24  1  0  0  0  0
 26 28  2  0  0  0  0
 27 26  1  0  0  0  0
 28 30  1  0  0  0  0
 28 29  1  0  0  0  0
 30 31  1  0  0  0  0
 32 33  1  0  0  0  0
 32 30  2  0  0  0  0
 35 48  1  6  0  0  0
 35 36  1  0  0  0  0
 35  1  1  0  0  0  0
 36 38  1  0  0  0  0
 36 39  1  0  0  0  0
 37 36  1  0  0  0  0
 39 42  1  0  0  0  0
 39 41  1  0  0  0  0
 39 40  1  0  0  0  0
 42 46  1  6  0  0  0
 42 43  1  0  0  0  0
 43 14  1  0  0  0  0
 43 45  1  0  0  0  0
 43 44  1  0  0  0  0
 46 65  1  0  0  0  0
 47 11  1  0  0  0  0
 47 63  1  0  0  0  0
 47 35  1  0  0  0  0
 48 50  1  0  0  0  0
 49 48  1  0  0  0  0
 51 52  1  0  0  0  0
 51 48  1  0  0  0  0
 52 53  1  0  0  0  0
 54 55  1  0  0  0  0
 54 52  2  0  0  0  0
 56 54  1  0  0  0  0
 57 56  1  0  0  0  0
 58 56  2  0  0  0  0
 58 60  1  0  0  0  0
 59 58  1  0  0  0  0
 60 51  2  0  0  0  0
 61 60  1  0  0  0  0
 62 47  1  0  0  0  0
 64 46  1  0  0  0  0
M  END
$$$$
