CSD_code = GUZMAR | q = 0 | S = 0 | Stoichiometry = C24H27Cl2N2PTi | MND = 5
 OpenBabel04212202043D

 57 61  0  0  0  0  0  0  0  0999 V2000
    5.0176   12.3453    5.1263 Ti  0  0  0  0  0  0  0  0  0  0  0  0
    3.1110   11.4102    4.5031 Cl  0  0  0  0  0  0  0  0  0  0  0  0
    4.4169   12.3467    7.2963 Cl  0  0  0  0  0  0  0  0  0  0  0  0
    7.2319   13.0385    6.1353 P   0  0  0  0  0  4  0  0  0  0  0  0
    6.0987   10.8630    4.7389 N   0  0  0  0  0  0  0  0  0  0  0  0
    5.3680   13.8763    4.0715 N   0  0  0  0  0  0  0  0  0  0  0  0
    8.0683   11.6770    7.0622 C   0  0  0  0  0  0  0  0  0  0  0  0
    9.1134   11.9375    7.2602 H   0  0  0  0  0  0  0  0  0  0  0  0
    7.5403   11.5986    8.0200 H   0  0  0  0  0  0  0  0  0  0  0  0
    7.9788   10.3526    6.3045 C   0  0  0  0  0  0  0  0  0  0  0  0
    8.6302   10.3888    5.4278 H   0  0  0  0  0  0  0  0  0  0  0  0
    8.3284    9.5442    6.9521 H   0  0  0  0  0  0  0  0  0  0  0  0
    6.5389   10.0400    5.8502 C   0  0  0  0  0  0  0  0  0  0  0  0
    6.4641    8.9768    5.5792 H   0  0  0  0  0  0  0  0  0  0  0  0
    5.8601   10.2117    6.7000 H   0  0  0  0  0  0  0  0  0  0  0  0
    6.3286   10.4156    3.4602 C   0  0  0  0  0  0  0  0  0  0  0  0
    7.2452    9.4001    3.1349 C   0  0  0  0  0  0  0  0  0  0  0  0
    7.8129    8.9038    3.9074 H   0  0  0  0  0  0  0  0  0  0  0  0
    7.4426    9.0095    1.8242 C   0  0  0  0  0  0  0  0  0  0  0  0
    8.1553    8.2252    1.6124 H   0  0  0  0  0  0  0  0  0  0  0  0
    6.7448    9.6063    0.7895 C   0  0  0  0  0  0  0  0  0  0  0  0
    6.9047    9.2958   -0.2313 H   0  0  0  0  0  0  0  0  0  0  0  0
    5.8255   10.6007    1.0889 C   0  0  0  0  0  0  0  0  0  0  0  0
    5.2554   11.0636    0.2962 H   0  0  0  0  0  0  0  0  0  0  0  0
    5.6173   11.0023    2.3924 C   0  0  0  0  0  0  0  0  0  0  0  0
    4.8601   11.7551    2.6072 H   0  0  0  0  0  0  0  0  0  0  0  0
    8.3954   13.3506    4.7317 C   0  0  0  0  0  0  0  0  0  0  0  0
    9.3834   13.6328    5.1094 H   0  0  0  0  0  0  0  0  0  0  0  0
    8.4860   12.4328    4.1412 H   0  0  0  0  0  0  0  0  0  0  0  0
    7.8142   14.4694    3.8698 C   0  0  0  0  0  0  0  0  0  0  0  0
    8.5309   14.7441    3.0910 H   0  0  0  0  0  0  0  0  0  0  0  0
    7.6429   15.3458    4.5020 H   0  0  0  0  0  0  0  0  0  0  0  0
    6.4982   14.0500    3.1798 C   0  0  0  0  0  0  0  0  0  0  0  0
    6.2476   14.7937    2.4092 H   0  0  0  0  0  0  0  0  0  0  0  0
    6.6821   13.0964    2.6668 H   0  0  0  0  0  0  0  0  0  0  0  0
    4.6957   15.0010    4.4963 C   0  0  0  0  0  0  0  0  0  0  0  0
    3.5035   14.8216    5.2319 C   0  0  0  0  0  0  0  0  0  0  0  0
    3.0975   13.8178    5.3604 H   0  0  0  0  0  0  0  0  0  0  0  0
    2.8101   15.8980    5.7449 C   0  0  0  0  0  0  0  0  0  0  0  0
    1.9047   15.7244    6.3082 H   0  0  0  0  0  0  0  0  0  0  0  0
    3.2561   17.1944    5.5317 C   0  0  0  0  0  0  0  0  0  0  0  0
    2.7133   18.0344    5.9367 H   0  0  0  0  0  0  0  0  0  0  0  0
    4.3924   17.3926    4.7689 C   0  0  0  0  0  0  0  0  0  0  0  0
    4.7386   18.3965    4.5681 H   0  0  0  0  0  0  0  0  0  0  0  0
    5.1037   16.3244    4.2554 C   0  0  0  0  0  0  0  0  0  0  0  0
    5.9780   16.5331    3.6586 H   0  0  0  0  0  0  0  0  0  0  0  0
    7.5525   14.4916    7.1945 C   0  0  0  0  0  0  0  0  0  0  0  0
    6.4582   15.2869    7.5223 C   0  0  0  0  0  0  0  0  0  0  0  0
    5.4708   14.9956    7.1823 H   0  0  0  0  0  0  0  0  0  0  0  0
    6.6298   16.4291    8.2842 C   0  0  0  0  0  0  0  0  0  0  0  0
    5.7770   17.0438    8.5296 H   0  0  0  0  0  0  0  0  0  0  0  0
    7.8937   16.7797    8.7290 C   0  0  0  0  0  0  0  0  0  0  0  0
    8.0310   17.6706    9.3236 H   0  0  0  0  0  0  0  0  0  0  0  0
    8.9857   15.9863    8.4133 C   0  0  0  0  0  0  0  0  0  0  0  0
    9.9703   16.2587    8.7645 H   0  0  0  0  0  0  0  0  0  0  0  0
    8.8199   14.8478    7.6463 C   0  0  0  0  0  0  0  0  0  0  0  0
    9.6792   14.2387    7.4025 H   0  0  0  0  0  0  0  0  0  0  0  0
  1  4  1  0  0  0  0
  1  3  1  0  0  0  0
  2  1  1  0  0  0  0
  4  7  1  0  0  0  0
  4 47  1  0  0  0  0
  5  1  1  0  0  0  0
  5 13  1  0  0  0  0
  6 36  1  0  0  0  0
  6  1  1  0  0  0  0
  7  8  1  0  0  0  0
  7  9  1  0  0  0  0
 10 12  1  0  0  0  0
 10  7  1  0  0  0  0
 11 10  1  0  0  0  0
 13 10  1  0  0  0  0
 13 15  1  0  0  0  0
 14 13  1  0  0  0  0
 16  5  1  0  0  0  0
 17 16  1  0  0  0  0
 17 18  1  0  0  0  0
 19 17  2  0  0  0  0
 20 19  1  0  0  0  0
 21 23  2  0  0  0  0
 21 19  1  0  0  0  0
 22 21  1  0  0  0  0
 23 25  1  0  0  0  0
 24 23  1  0  0  0  0
 25 26  1  0  0  0  0
 25 16  2  0  0  0  0
 27 28  1  0  0  0  0
 27  4  1  0  0  0  0
 29 27  1  0  0  0  0
 30 32  1  0  0  0  0
 30 27  1  0  0  0  0
 31 30  1  0  0  0  0
 33 30  1  0  0  0  0
 33  6  1  0  0  0  0
 34 33  1  0  0  0  0
 35 33  1  0  0  0  0
 36 37  1  0  0  0  0
 37 38  1  0  0  0  0
 37 39  2  0  0  0  0
 39 40  1  0  0  0  0
 41 39  1  0  0  0  0
 41 42  1  0  0  0  0
 43 41  2  0  0  0  0
 44 43  1  0  0  0  0
 45 36  2  0  0  0  0
 45 43  1  0  0  0  0
 46 45  1  0  0  0  0
 47 48  2  0  0  0  0
 47 56  1  0  0  0  0
 48 50  1  0  0  0  0
 49 48  1  0  0  0  0
 50 51  1  0  0  0  0
 50 52  2  0  0  0  0
 52 53  1  0  0  0  0
 54 52  1  0  0  0  0
 54 55  1  0  0  0  0
 56 54  2  0  0  0  0
 57 56  1  0  0  0  0
M  END
$$$$
