CSD_code = GUZNAS | q = 0 | S = 0 | Stoichiometry = C26H35HfI2N2PSi2 | MND = 5
 OpenBabel04212202043D

 69 73  0  0  0  0  0  0  0  0999 V2000
    7.6134   14.2999    5.5691 I   0  0  0  0  0  0  0  0  0  0  0  0
   10.7233   11.8763    4.7968 I   0  0  0  0  0  0  0  0  0  0  0  0
    8.4986   12.7727    3.3731 Hf  0  0  0  0  0  0  0  0  0  0  0  0
    6.3893   13.9229    2.0263 P   0  0  0  0  0  4  0  0  0  0  0  0
    7.6649    9.4907    2.8031 Si  0  0  0  0  0  0  0  0  0  0  0  0
   10.5950   14.5294    1.5455 Si  0  0  0  0  0  0  0  0  0  0  0  0
    7.3411   11.0995    3.3424 N   0  0  0  0  0  0  0  0  0  0  0  0
    9.2949   13.3986    1.5864 N   0  0  0  0  0  0  0  0  0  0  0  0
    5.2123   12.4730    2.0521 C   0  0  0  0  0  0  0  0  0  0  0  0
    4.2476   12.7710    1.6320 H   0  0  0  0  0  0  0  0  0  0  0  0
    5.6641   11.6925    1.4295 H   0  0  0  0  0  0  0  0  0  0  0  0
    5.0697   11.9875    3.4635 C   0  0  0  0  0  0  0  0  0  0  0  0
    6.1615   11.3376    4.0682 C   0  0  0  0  0  0  0  0  0  0  0  0
    6.0517   10.9398    5.4024 C   0  0  0  0  0  0  0  0  0  0  0  0
    6.8979   10.4524    5.8671 H   0  0  0  0  0  0  0  0  0  0  0  0
    4.8916   11.1674    6.1175 C   0  0  0  0  0  0  0  0  0  0  0  0
    4.8330   10.8617    7.1504 H   0  0  0  0  0  0  0  0  0  0  0  0
    3.8117   11.7868    5.5113 C   0  0  0  0  0  0  0  0  0  0  0  0
    2.9017   11.9593    6.0639 H   0  0  0  0  0  0  0  0  0  0  0  0
    3.9076   12.1950    4.1925 C   0  0  0  0  0  0  0  0  0  0  0  0
    3.0690   12.6843    3.7161 H   0  0  0  0  0  0  0  0  0  0  0  0
    6.8196   13.9245    0.2319 C   0  0  0  0  0  0  0  0  0  0  0  0
    5.9023   13.9119   -0.3665 H   0  0  0  0  0  0  0  0  0  0  0  0
    7.3666   14.8552    0.0366 H   0  0  0  0  0  0  0  0  0  0  0  0
    7.7084   12.7736   -0.1439 C   0  0  0  0  0  0  0  0  0  0  0  0
    8.9650   12.6225    0.4746 C   0  0  0  0  0  0  0  0  0  0  0  0
    9.8647   11.7048   -0.0735 C   0  0  0  0  0  0  0  0  0  0  0  0
   10.8637   11.6546    0.3357 H   0  0  0  0  0  0  0  0  0  0  0  0
    9.4995   10.8821   -1.1208 C   0  0  0  0  0  0  0  0  0  0  0  0
   10.2113   10.1736   -1.5169 H   0  0  0  0  0  0  0  0  0  0  0  0
    8.2277   10.9670   -1.6598 C   0  0  0  0  0  0  0  0  0  0  0  0
    7.9287   10.3148   -2.4658 H   0  0  0  0  0  0  0  0  0  0  0  0
    7.3519   11.9274   -1.1826 C   0  0  0  0  0  0  0  0  0  0  0  0
    6.3788   12.0390   -1.6424 H   0  0  0  0  0  0  0  0  0  0  0  0
    5.2052   15.3088    2.1769 C   0  0  0  0  0  0  0  0  0  0  0  0
    4.9968   16.2557    1.1799 C   0  0  0  0  0  0  0  0  0  0  0  0
    5.5288   16.1980    0.2423 H   0  0  0  0  0  0  0  0  0  0  0  0
    4.0972   17.2881    1.3811 C   0  0  0  0  0  0  0  0  0  0  0  0
    3.9378   18.0152    0.5984 H   0  0  0  0  0  0  0  0  0  0  0  0
    3.4082   17.3934    2.5771 C   0  0  0  0  0  0  0  0  0  0  0  0
    2.7091   18.2020    2.7282 H   0  0  0  0  0  0  0  0  0  0  0  0
    3.6279   16.4657    3.5823 C   0  0  0  0  0  0  0  0  0  0  0  0
    3.1073   16.5491    4.5239 H   0  0  0  0  0  0  0  0  0  0  0  0
    4.5273   15.4349    3.3889 C   0  0  0  0  0  0  0  0  0  0  0  0
    4.7040   14.7246    4.1838 H   0  0  0  0  0  0  0  0  0  0  0  0
    9.5060    9.4550    2.3046 C   0  0  0  0  0  0  0  0  0  0  0  0
    9.8800   10.4413    2.0361 H   0  0  0  0  0  0  0  0  0  0  0  0
    9.6392    8.8167    1.4377 H   0  0  0  0  0  0  0  0  0  0  0  0
   10.1329    9.0586    3.0972 H   0  0  0  0  0  0  0  0  0  0  0  0
    6.5966    9.0522    1.2745 C   0  0  0  0  0  0  0  0  0  0  0  0
    5.5352    9.1386    1.4901 H   0  0  0  0  0  0  0  0  0  0  0  0
    6.7823    8.0269    0.9729 H   0  0  0  0  0  0  0  0  0  0  0  0
    6.8221    9.6857    0.4202 H   0  0  0  0  0  0  0  0  0  0  0  0
    7.3402    8.1551    4.1285 C   0  0  0  0  0  0  0  0  0  0  0  0
    7.9972    8.2566    4.9873 H   0  0  0  0  0  0  0  0  0  0  0  0
    7.4991    7.1660    3.7118 H   0  0  0  0  0  0  0  0  0  0  0  0
    6.3163    8.2008    4.4868 H   0  0  0  0  0  0  0  0  0  0  0  0
   12.3835   13.8487    1.5850 C   0  0  0  0  0  0  0  0  0  0  0  0
   12.5359   13.0769    2.3344 H   0  0  0  0  0  0  0  0  0  0  0  0
   13.0817   14.6502    1.8057 H   0  0  0  0  0  0  0  0  0  0  0  0
   12.6645   13.4345    0.6205 H   0  0  0  0  0  0  0  0  0  0  0  0
   10.4303   15.6430    0.0046 C   0  0  0  0  0  0  0  0  0  0  0  0
   11.3244   16.2395   -0.1347 H   0  0  0  0  0  0  0  0  0  0  0  0
    9.5894   16.3257    0.0796 H   0  0  0  0  0  0  0  0  0  0  0  0
   10.2924   15.0419   -0.8892 H   0  0  0  0  0  0  0  0  0  0  0  0
   10.2373   15.5480    3.1286 C   0  0  0  0  0  0  0  0  0  0  0  0
    9.1925   15.8620    3.1830 H   0  0  0  0  0  0  0  0  0  0  0  0
   10.8324   16.4556    3.1226 H   0  0  0  0  0  0  0  0  0  0  0  0
   10.5020   15.0210    4.0460 H   0  0  0  0  0  0  0  0  0  0  0  0
  3  2  1  0  0  0  0
  3  1  1  0  0  0  0
  4  9  1  0  0  0  0
  4 35  1  0  0  0  0
  4  3  1  0  0  0  0
  5  7  1  0  0  0  0
  5 54  1  0  0  0  0
  6 58  1  0  0  0  0
  6  8  1  0  0  0  0
  6 66  1  0  0  0  0
  7  3  1  0  0  0  0
  7 13  1  0  0  0  0
  8  3  1  0  0  0  0
  9 12  1  0  0  0  0
 10  9  1  0  0  0  0
 11  9  1  0  0  0  0
 12 13  2  0  0  0  0
 12 20  1  0  0  0  0
 13 14  1  0  0  0  0
 14 15  1  0  0  0  0
 14 16  2  0  0  0  0
 16 17  1  0  0  0  0
 18 19  1  0  0  0  0
 18 16  1  0  0  0  0
 20 18  2  0  0  0  0
 21 20  1  0  0  0  0
 22  4  1  0  0  0  0
 23 22  1  0  0  0  0
 24 22  1  0  0  0  0
 25 22  1  0  0  0  0
 25 26  1  0  0  0  0
 26  8  1  0  0  0  0
 27 28  1  0  0  0  0
 27 26  2  0  0  0  0
 29 27  1  0  0  0  0
 30 29  1  0  0  0  0
 31 33  1  0  0  0  0
 31 29  2  0  0  0  0
 32 31  1  0  0  0  0
 33 25  2  0  0  0  0
 34 33  1  0  0  0  0
 35 44  1  0  0  0  0
 36 38  1  0  0  0  0
 36 35  2  0  0  0  0
 37 36  1  0  0  0  0
 38 40  2  0  0  0  0
 39 38  1  0  0  0  0
 40 41  1  0  0  0  0
 40 42  1  0  0  0  0
 42 43  1  0  0  0  0
 44 42  2  0  0  0  0
 44 45  1  0  0  0  0
 46  5  1  0  0  0  0
 46 49  1  0  0  0  0
 47 46  1  0  0  0  0
 48 46  1  0  0  0  0
 50 51  1  0  0  0  0
 50  5  1  0  0  0  0
 52 50  1  0  0  0  0
 53 50  1  0  0  0  0
 54 57  1  0  0  0  0
 54 55  1  0  0  0  0
 56 54  1  0  0  0  0
 58 60  1  0  0  0  0
 58 59  1  0  0  0  0
 61 58  1  0  0  0  0
 62 64  1  0  0  0  0
 62  6  1  0  0  0  0
 63 62  1  0  0  0  0
 65 62  1  0  0  0  0
 66 67  1  0  0  0  0
 66 69  1  0  0  0  0
 68 66  1  0  0  0  0
M  END
$$$$
