CSD_code = GUZZOR | q = 0 | S = 0 | Stoichiometry = C21H26Cl2N2ORu | MND = 9
 OpenBabel04212202043D

 53 54  0  0  1  0  0  0  0  0999 V2000
    6.5456    1.3415    1.3662 C   0  0  0  0  0  0  0  0  0  0  0  0
    6.9738    2.2745    1.0168 H   0  0  0  0  0  0  0  0  0  0  0  0
    7.3168    0.1827    1.3462 C   0  0  0  0  0  0  0  0  0  0  0  0
    6.7513   -1.0117    1.8849 C   0  0  0  0  0  0  0  0  0  0  0  0
    7.3751   -1.8989    1.9314 H   0  0  0  0  0  0  0  0  0  0  0  0
    5.4724   -1.0475    2.4493 C   0  0  0  0  0  0  0  0  0  0  0  0
    4.6488    0.1224    2.3149 C   0  0  2  0  0  0  0  0  0  0  0  0
    5.1896    1.3343    1.7976 C   0  0  1  0  0  3  0  0  0  0  0  0
    3.3250   -0.8620    0.2337 C   0  0  0  0  0  0  0  0  0  0  0  0
    1.3048   -1.0531    1.1997 C   0  0  0  0  0  0  0  0  0  0  0  0
    1.2248   -1.5205   -0.1241 C   0  0  0  0  0  0  0  0  0  0  0  0
    0.0317   -2.0052   -0.6376 C   0  0  0  0  0  0  0  0  0  0  0  0
   -0.0366   -2.3695   -1.6496 H   0  0  0  0  0  0  0  0  0  0  0  0
   -1.0665   -2.0053    0.2037 C   0  0  0  0  0  0  0  0  0  0  0  0
   -2.0114   -2.3760   -0.1624 H   0  0  0  0  0  0  0  0  0  0  0  0
   -0.9853   -1.5387    1.5134 C   0  0  0  0  0  0  0  0  0  0  0  0
   -1.8678   -1.5552    2.1343 H   0  0  0  0  0  0  0  0  0  0  0  0
    0.2003   -1.0539    2.0364 C   0  0  0  0  0  0  0  0  0  0  0  0
    0.2592   -0.6910    3.0507 H   0  0  0  0  0  0  0  0  0  0  0  0
    3.1634   -0.0223    2.5641 C   0  0  0  0  0  0  0  0  0  0  0  0
    2.9576   -0.6431    3.4428 H   0  0  0  0  0  0  0  0  0  0  0  0
    2.6799    0.9502    2.7071 H   0  0  0  0  0  0  0  0  0  0  0  0
    4.3984    2.6117    1.7544 C   0  0  0  0  0  0  0  0  0  0  0  0
    3.6499    2.5684    0.9615 H   0  0  0  0  0  0  0  0  0  0  0  0
    5.0551    3.4507    1.5367 H   0  0  0  0  0  0  0  0  0  0  0  0
    3.8997    2.8016    2.7052 H   0  0  0  0  0  0  0  0  0  0  0  0
    8.7285    0.1675    0.8417 C   0  0  0  0  0  0  0  0  0  0  0  0
    8.8489   -0.6175    0.0946 H   0  0  0  0  0  0  0  0  0  0  0  0
    9.4206   -0.0352    1.6606 H   0  0  0  0  0  0  0  0  0  0  0  0
    8.9894    1.1204    0.3872 H   0  0  0  0  0  0  0  0  0  0  0  0
    4.9819   -2.2825    3.1532 C   0  0  0  0  0  0  0  0  0  0  0  0
    5.7484   -3.0536    3.1333 H   0  0  0  0  0  0  0  0  0  0  0  0
    4.0874   -2.6877    2.6810 H   0  0  0  0  0  0  0  0  0  0  0  0
    4.7496   -2.0533    4.1949 H   0  0  0  0  0  0  0  0  0  0  0  0
    2.8093   -1.7310   -2.0309 C   0  0  0  0  0  0  0  0  0  0  0  0
    3.7002   -1.1730   -2.3322 H   0  0  0  0  0  0  0  0  0  0  0  0
    1.9787   -1.4583   -2.6853 H   0  0  0  0  0  0  0  0  0  0  0  0
    3.0712   -3.2366   -2.1681 C   0  0  0  0  0  0  0  0  0  0  0  0
    4.0956   -3.4535   -1.8398 H   0  0  0  0  0  0  0  0  0  0  0  0
    2.3689   -3.8033   -1.5315 H   0  0  0  0  0  0  0  0  0  0  0  0
    3.5676   -4.7649   -3.8968 C   0  0  0  0  0  0  0  0  0  0  0  0
    3.1743   -5.6242   -3.3289 H   0  0  0  0  0  0  0  0  0  0  0  0
    4.6380   -4.6642   -3.6654 H   0  0  0  0  0  0  0  0  0  0  0  0
    3.3649   -4.9791   -5.3879 C   0  0  0  0  0  0  0  0  0  0  0  0
    3.8829   -5.8789   -5.7075 H   0  0  0  0  0  0  0  0  0  0  0  0
    3.7557   -4.1260   -5.9345 H   0  0  0  0  0  0  0  0  0  0  0  0
    2.3058   -5.0767   -5.6096 H   0  0  0  0  0  0  0  0  0  0  0  0
    4.7712    1.1281   -1.4732 Cl  0  0  0  0  0 15  0  0  0  0  0  0
    6.0528   -1.9232   -1.1654 Cl  0  0  0  0  0 15  0  0  0  0  0  0
    2.6088   -0.6581    1.3810 N   0  0  0  0  0  0  0  0  0  0  0  0
    2.4789   -1.3710   -0.6765 N   0  0  0  0  0  0  0  0  0  0  0  0
    5.2184   -0.3130    0.3131 Ru  0  0  0  0  0  0  0  0  0  0  0  0
    2.8884   -3.5863   -3.5181 O   0  0  0  0  0  0  0  0  0  0  0  0
  1  8  1  0  0  0  0
  2  1  1  0  0  0  0
  3  1  2  0  0  0  0
  3  4  1  0  0  0  0
  4  5  1  0  0  0  0
  4  6  2  0  0  0  0
  6 31  1  0  0  0  0
  7 52  1  6  0  0  0
  7  6  1  0  0  0  0
  7 20  1  0  0  0  0
  8 23  1  1  0  0  0
  8  7  1  0  0  0  0
  9 52  2  3  0  0  0
  9 50  1  0  0  0  0
 10 50  1  0  0  0  0
 10 18  1  0  0  0  0
 11 10  2  0  0  0  0
 12 11  1  0  0  0  0
 12 14  2  0  0  0  0
 13 12  1  0  0  0  0
 14 16  1  0  0  0  0
 15 14  1  0  0  0  0
 16 18  2  0  0  0  0
 16 17  1  0  0  0  0
 18 19  1  0  0  0  0
 20 22  1  0  0  0  0
 20 21  1  0  0  0  0
 23 26  1  0  0  0  0
 24 23  1  0  0  0  0
 25 23  1  0  0  0  0
 27  3  1  0  0  0  0
 27 29  1  0  0  0  0
 28 27  1  0  0  0  0
 30 27  1  0  0  0  0
 31 34  1  0  0  0  0
 32 31  1  0  0  0  0
 33 31  1  0  0  0  0
 35 51  1  0  0  0  0
 36 35  1  0  0  0  0
 37 35  1  0  0  0  0
 38 35  1  0  0  0  0
 38 39  1  0  0  0  0
 38 40  1  0  0  0  0
 41 43  1  0  0  0  0
 41 53  1  0  0  0  0
 41 42  1  0  0  0  0
 44 41  1  0  0  0  0
 45 44  1  0  0  0  0
 46 44  1  0  0  0  0
 47 44  1  0  0  0  0
 50 20  1  0  0  0  0
 51 11  1  0  0  0  0
 51  9  1  0  0  0  0
 53 38  1  0  0  0  0
M  END
$$$$
