CSD_code = HABRAG | q = 0 | S = 0 | Stoichiometry = C13H23Cl2N3Ni | MND = 5
 OpenBabel04212202043D

 42 44  0  0  1  0  0  0  0  0999 V2000
    8.9051    1.0866   11.6803 Ni  0  0  0  0  0  0  0  0  0  0  0  0
   13.5597    2.8700   11.6602 H   0  0  0  0  0  0  0  0  0  0  0  0
   11.2771    1.1286   10.6010 H   0  0  0  0  0  0  0  0  0  0  0  0
   12.9352    4.3408   10.9222 H   0  0  0  0  0  0  0  0  0  0  0  0
   12.9474    2.8378    9.9995 H   0  0  0  0  0  0  0  0  0  0  0  0
    8.7611    2.0577   13.5100 Cl  0  0  0  0  0  0  0  0  0  0  0  0
    9.3387    3.2483   10.9251 H   0  0  0  0  0  0  0  0  0  0  0  0
   10.4841    3.3261    9.5694 H   0  0  0  0  0  0  0  0  0  0  0  0
   10.3560    4.6838   10.7022 H   0  0  0  0  0  0  0  0  0  0  0  0
   11.2766    3.3265   12.5236 H   0  0  0  0  0  0  0  0  0  0  0  0
    8.9039    0.3626    9.7340 Cl  0  0  0  0  0  0  0  0  0  0  0  0
    9.9543   -0.6855   12.5067 N   0  0  0  0  0  0  0  0  0  0  0  0
    5.8441    1.3374   11.4747 C   0  0  0  0  0  0  0  0  0  0  0  0
    5.0371    1.5633   10.7832 H   0  0  0  0  0  0  0  0  0  0  0  0
    6.7693    1.7937   11.0866 H   0  0  0  0  0  0  0  0  0  0  0  0
    5.6217    1.7820   12.4429 H   0  0  0  0  0  0  0  0  0  0  0  0
   11.1168    1.5140   11.5351 N   0  0  0  0  0  4  0  0  0  0  0  0
    7.3144   -0.3824   12.3182 N   0  0  0  0  0  4  0  0  0  0  0  0
    7.2064   -0.0501   13.2796 H   0  0  0  0  0  0  0  0  0  0  0  0
   11.8841    0.7429   12.5065 C   0  0  0  0  0  0  0  0  0  0  0  0
   12.9333    0.6074   12.2078 H   0  0  0  0  0  0  0  0  0  0  0  0
   11.8605    1.2881   13.4580 H   0  0  0  0  0  0  0  0  0  0  0  0
   11.2526   -0.6098   12.7454 C   0  0  1  0  0  3  0  0  0  0  0  0
    9.2758   -1.8034   12.6978 C   0  0  0  0  0  0  0  0  0  0  0  0
    7.8077   -1.7539   12.3394 C   0  0  0  0  0  0  0  0  0  0  0  0
    7.2440   -2.3966   13.0307 H   0  0  0  0  0  0  0  0  0  0  0  0
    7.7062   -2.1617   11.3263 H   0  0  0  0  0  0  0  0  0  0  0  0
   11.3918    2.9517   11.4998 C   0  0  0  0  0  0  0  0  0  0  0  0
    6.0533   -0.1685   11.6056 C   0  0  0  0  0  0  0  0  0  0  0  0
    6.1718   -0.6006   10.6048 H   0  0  0  0  0  0  0  0  0  0  0  0
   11.9578   -1.7103   13.2147 C   0  0  0  0  0  0  0  0  0  0  0  0
   13.0169   -1.6439   13.4092 H   0  0  0  0  0  0  0  0  0  0  0  0
    9.9060   -2.9504   13.1645 C   0  0  0  0  0  0  0  0  0  0  0  0
    9.3481   -3.8611   13.3179 H   0  0  0  0  0  0  0  0  0  0  0  0
   11.2660   -2.8933   13.4247 C   0  0  0  0  0  0  0  0  0  0  0  0
   11.7854   -3.7676   13.7881 H   0  0  0  0  0  0  0  0  0  0  0  0
   10.3344    3.6014   10.6117 C   0  0  0  0  0  0  0  0  0  0  0  0
    4.8667   -0.8235   12.3141 C   0  0  0  0  0  0  0  0  0  0  0  0
    4.9770   -1.9049   12.3531 H   0  0  0  0  0  0  0  0  0  0  0  0
    3.9477   -0.5969   11.7804 H   0  0  0  0  0  0  0  0  0  0  0  0
    4.7756   -0.4423   13.3300 H   0  0  0  0  0  0  0  0  0  0  0  0
   12.7994    3.2650   10.9902 C   0  0  0  0  0  0  0  0  0  0  0  0
  1 18  1  0  0  0  0
  1 12  1  0  0  0  0
  1  6  1  0  0  0  0
  3 17  1  0  0  0  0
  4 42  1  0  0  0  0
  5 42  1  0  0  0  0
  8 37  1  0  0  0  0
 11  1  1  0  0  0  0
 12 24  1  0  0  0  0
 12 23  1  0  0  0  0
 13 29  1  0  0  0  0
 13 16  1  0  0  0  0
 14 13  1  0  0  0  0
 15 13  1  0  0  0  0
 17  1  1  0  0  0  0
 17 20  1  0  0  0  0
 18 25  1  0  0  0  0
 18 19  1  0  0  0  0
 20 23  1  0  0  0  0
 20 22  1  0  0  0  0
 21 20  1  0  0  0  0
 23 31  1  1  0  0  0
 24 33  2  0  0  0  0
 25 24  1  0  0  0  0
 25 26  1  0  0  0  0
 27 25  1  0  0  0  0
 28 17  1  0  0  0  0
 28 10  1  0  0  0  0
 29 38  1  0  0  0  0
 29 18  1  0  0  0  0
 30 29  1  0  0  0  0
 31 32  1  0  0  0  0
 31 35  2  0  0  0  0
 33 34  1  0  0  0  0
 33 35  1  0  0  0  0
 35 36  1  0  0  0  0
 37  9  1  0  0  0  0
 37  7  1  0  0  0  0
 37 28  1  0  0  0  0
 38 39  1  0  0  0  0
 38 41  1  0  0  0  0
 40 38  1  0  0  0  0
 42 28  1  0  0  0  0
 42  2  1  0  0  0  0
M  END
$$$$
