CSD_code = HACPUZ | q = 0 | S = 0 | Stoichiometry = C27H37AuClN3 | MND = 2
 OpenBabel04212202043D

 69 71  0  0  0  0  0  0  0  0999 V2000
   -0.9026    5.6395    3.0118 Au  0  0  0  0  0  0  0  0  0  0  0  0
   -1.8420    3.5981    3.0058 Cl  0  0  0  0  0  0  0  0  0  0  0  0
   -2.5673    9.4091    1.4110 C   0  0  0  0  0  0  0  0  0  0  0  0
   -1.4818    9.3697    1.2639 H   0  0  0  0  0  0  0  0  0  0  0  0
    2.1499    6.7216    2.2019 C   0  0  0  0  0  0  0  0  0  0  0  0
    1.5422    8.9691    2.7136 N   0  0  0  0  0  2  0  0  0  0  0  0
    1.2167    7.6989    2.6335 N   0  0  0  0  0  0  0  0  0  0  0  0
   -0.0562    7.4279    3.0016 C   0  0  0  0  0  0  0  0  0  0  0  0
    0.4624    9.5663    3.1462 N   0  0  0  0  0  0  0  0  0  0  0  0
   -1.8782    9.0699    3.8204 C   0  0  0  0  0  0  0  0  0  0  0  0
   -2.1491    9.0301    5.1903 C   0  0  0  0  0  0  0  0  0  0  0  0
   -3.0874   10.6584    0.6975 C   0  0  0  0  0  0  0  0  0  0  0  0
   -2.7550   11.5627    1.2051 H   0  0  0  0  0  0  0  0  0  0  0  0
   -4.1730   10.6659    0.6608 H   0  0  0  0  0  0  0  0  0  0  0  0
   -2.7180   10.6811   -0.3254 H   0  0  0  0  0  0  0  0  0  0  0  0
    1.2060    6.9582   -0.1423 C   0  0  0  0  0  0  0  0  0  0  0  0
    0.5867    7.7091    0.3588 H   0  0  0  0  0  0  0  0  0  0  0  0
   -2.8607    9.4287    2.8933 C   0  0  0  0  0  0  0  0  0  0  0  0
    3.9049    4.7762    1.3847 C   0  0  0  0  0  0  0  0  0  0  0  0
    4.5914    4.0069    1.0645 H   0  0  0  0  0  0  0  0  0  0  0  0
    2.1545    6.3447    0.8591 C   0  0  0  0  0  0  0  0  0  0  0  0
    3.8745    5.1598    2.7118 C   0  0  0  0  0  0  0  0  0  0  0  0
    4.5338    4.6813    3.4183 H   0  0  0  0  0  0  0  0  0  0  0  0
   -4.1259    9.7505    3.3623 C   0  0  0  0  0  0  0  0  0  0  0  0
   -4.9052   10.0178    2.6663 H   0  0  0  0  0  0  0  0  0  0  0  0
    0.4351   10.9811    3.3683 C   0  0  0  0  0  0  0  0  0  0  0  0
    1.3985   11.3904    3.0720 H   0  0  0  0  0  0  0  0  0  0  0  0
    0.2513   11.1888    4.4234 H   0  0  0  0  0  0  0  0  0  0  0  0
   -0.3623   11.4344    2.7782 H   0  0  0  0  0  0  0  0  0  0  0  0
   -1.4232    7.1858    6.6841 C   0  0  0  0  0  0  0  0  0  0  0  0
   -0.6531    6.8412    7.3706 H   0  0  0  0  0  0  0  0  0  0  0  0
   -1.4813    6.4892    5.8491 H   0  0  0  0  0  0  0  0  0  0  0  0
   -2.3787    7.1801    7.2020 H   0  0  0  0  0  0  0  0  0  0  0  0
   -4.4049    9.7202    4.7155 C   0  0  0  0  0  0  0  0  0  0  0  0
   -5.3958    9.9688    5.0654 H   0  0  0  0  0  0  0  0  0  0  0  0
    3.0541    5.3624    0.4680 C   0  0  0  0  0  0  0  0  0  0  0  0
    3.0821    5.0451   -0.5624 H   0  0  0  0  0  0  0  0  0  0  0  0
   -1.0931    8.5920    6.1779 C   0  0  0  0  0  0  0  0  0  0  0  0
   -0.1259    8.5412    5.6649 H   0  0  0  0  0  0  0  0  0  0  0  0
    1.9794    7.6623   -1.2595 C   0  0  0  0  0  0  0  0  0  0  0  0
    1.2864    8.1492   -1.9420 H   0  0  0  0  0  0  0  0  0  0  0  0
    2.5750    6.9526   -1.8269 H   0  0  0  0  0  0  0  0  0  0  0  0
    2.6455    8.4160   -0.8440 H   0  0  0  0  0  0  0  0  0  0  0  0
   -0.5463    8.6840    3.3404 C   0  0  0  0  0  0  0  0  0  0  0  0
   -3.4259    9.3606    5.6216 C   0  0  0  0  0  0  0  0  0  0  0  0
   -3.6627    9.3269    6.6734 H   0  0  0  0  0  0  0  0  0  0  0  0
   -3.1660    8.1408    0.7969 C   0  0  0  0  0  0  0  0  0  0  0  0
   -2.9403    8.0928   -0.2660 H   0  0  0  0  0  0  0  0  0  0  0  0
   -4.2454    8.1295    0.9247 H   0  0  0  0  0  0  0  0  0  0  0  0
   -2.7547    7.2558    1.2808 H   0  0  0  0  0  0  0  0  0  0  0  0
    2.2760    5.3950    5.3990 C   0  0  0  0  0  0  0  0  0  0  0  0
    1.2872    5.1734    4.9995 H   0  0  0  0  0  0  0  0  0  0  0  0
    2.1735    5.6774    6.4444 H   0  0  0  0  0  0  0  0  0  0  0  0
    2.8768    4.4913    5.3408 H   0  0  0  0  0  0  0  0  0  0  0  0
    2.9985    6.1442    3.1471 C   0  0  0  0  0  0  0  0  0  0  0  0
    2.9310    6.5289    4.6056 C   0  0  0  0  0  0  0  0  0  0  0  0
    2.3068    7.4217    4.7143 H   0  0  0  0  0  0  0  0  0  0  0  0
    4.3128    6.8681    5.1667 C   0  0  0  0  0  0  0  0  0  0  0  0
    4.7932    7.6314    4.5582 H   0  0  0  0  0  0  0  0  0  0  0  0
    4.9535    5.9913    5.1916 H   0  0  0  0  0  0  0  0  0  0  0  0
    4.2167    7.2444    6.1828 H   0  0  0  0  0  0  0  0  0  0  0  0
    0.2684    5.8882   -0.7057 C   0  0  0  0  0  0  0  0  0  0  0  0
   -0.4585    6.3430   -1.3747 H   0  0  0  0  0  0  0  0  0  0  0  0
   -0.2676    5.3931    0.1024 H   0  0  0  0  0  0  0  0  0  0  0  0
    0.8237    5.1366   -1.2597 H   0  0  0  0  0  0  0  0  0  0  0  0
   -0.9538    9.5743    7.3427 C   0  0  0  0  0  0  0  0  0  0  0  0
   -0.0994    9.3012    7.9580 H   0  0  0  0  0  0  0  0  0  0  0  0
   -1.8385    9.5626    7.9728 H   0  0  0  0  0  0  0  0  0  0  0  0
   -0.8070   10.5901    6.9786 H   0  0  0  0  0  0  0  0  0  0  0  0
  2  1  1  0  0  0  0
  3 18  1  0  0  0  0
  4  3  1  0  0  0  0
  5  7  1  0  0  0  0
  5 55  1  0  0  0  0
  6  9  1  0  0  0  0
  7  6  1  0  0  0  0
  7  8  1  0  0  0  0
  8  1  1  0  0  0  0
  8 44  2  0  0  0  0
  9 44  1  0  0  0  0
  9 26  1  0  0  0  0
 10 11  1  0  0  0  0
 11 45  2  0  0  0  0
 11 38  1  0  0  0  0
 12 13  1  0  0  0  0
 12  3  1  0  0  0  0
 14 12  1  0  0  0  0
 15 12  1  0  0  0  0
 16 17  1  0  0  0  0
 16 21  1  0  0  0  0
 18 24  1  0  0  0  0
 18 10  2  0  0  0  0
 19 22  1  0  0  0  0
 20 19  1  0  0  0  0
 21  5  2  0  0  0  0
 22 55  2  0  0  0  0
 22 23  1  0  0  0  0
 24 34  2  0  0  0  0
 25 24  1  0  0  0  0
 26 28  1  0  0  0  0
 27 26  1  0  0  0  0
 29 26  1  0  0  0  0
 30 33  1  0  0  0  0
 30 31  1  0  0  0  0
 32 30  1  0  0  0  0
 34 35  1  0  0  0  0
 34 45  1  0  0  0  0
 36 21  1  0  0  0  0
 36 19  2  0  0  0  0
 37 36  1  0  0  0  0
 38 30  1  0  0  0  0
 38 66  1  0  0  0  0
 39 38  1  0  0  0  0
 40 43  1  0  0  0  0
 40 16  1  0  0  0  0
 41 40  1  0  0  0  0
 42 40  1  0  0  0  0
 44 10  1  0  0  0  0
 45 46  1  0  0  0  0
 47 49  1  0  0  0  0
 47 50  1  0  0  0  0
 47  3  1  0  0  0  0
 48 47  1  0  0  0  0
 51 53  1  0  0  0  0
 52 51  1  0  0  0  0
 54 51  1  0  0  0  0
 55 56  1  0  0  0  0
 56 57  1  0  0  0  0
 56 58  1  0  0  0  0
 56 51  1  0  0  0  0
 58 60  1  0  0  0  0
 58 61  1  0  0  0  0
 59 58  1  0  0  0  0
 62 16  1  0  0  0  0
 62 64  1  0  0  0  0
 63 62  1  0  0  0  0
 65 62  1  0  0  0  0
 66 67  1  0  0  0  0
 66 68  1  0  0  0  0
 69 66  1  0  0  0  0
M  END
$$$$
