CSD_code = HAFFOK | q = 0 | S = 0 | Stoichiometry = C8H10AuCl2NO2 | MND = 4
 OpenBabel04212202043D

 24 25  0  0  1  0  0  0  0  0999 V2000
    6.8732   14.6865    4.7059 Au  0  0  0  0  0  0  0  0  0  0  0  0
    5.6452   15.5498    3.0833 Cl  0  0  0  0  0  0  0  0  0  0  0  0
    6.0731   12.6440    4.3353 Cl  0  0  0  0  0  0  0  0  0  0  0  0
    7.7430   16.4152    5.1485 O   0  0  0  0  0  0  0  0  0  0  0  0
    6.3469   16.2353    6.9543 O   0  0  0  0  0  0  0  0  0  0  0  0
    8.0394   14.0898    6.2919 N   0  0  0  0  0  0  0  0  0  0  0  0
    8.4857   12.8816    6.6055 C   0  0  0  0  0  3  0  0  0  0  0  0
    8.1573   12.0740    5.9659 H   0  0  0  0  0  0  0  0  0  0  0  0
    9.3064   12.6877    7.7019 C   0  0  0  0  0  0  0  0  0  0  0  0
    9.6576   11.6969    7.9408 H   0  0  0  0  0  0  0  0  0  0  0  0
    9.6608   13.7837    8.4760 C   0  0  0  0  0  0  0  0  0  0  0  0
   10.3037   13.6621    9.3349 H   0  0  0  0  0  0  0  0  0  0  0  0
    9.1750   15.0387    8.1403 C   0  0  0  0  0  0  0  0  0  0  0  0
    9.4184   15.9132    8.7217 H   0  0  0  0  0  0  0  0  0  0  0  0
    8.3579   15.1551    7.0303 C   0  0  0  0  0  0  0  0  0  0  0  0
    7.6816   16.4048    6.5079 C   0  0  1  0  0  0  0  0  0  0  0  0
    8.1192   17.3365    6.9022 H   0  0  0  0  0  0  0  0  0  0  0  0
    5.4874   17.3310    6.6264 C   0  0  0  0  0  0  0  0  0  0  0  0
    5.7093   17.6674    5.6076 H   0  0  0  0  0  0  0  0  0  0  0  0
    5.6888   18.1533    7.3271 H   0  0  0  0  0  0  0  0  0  0  0  0
    4.0485   16.8604    6.7327 C   0  0  0  0  0  0  0  0  0  0  0  0
    3.3799   17.6930    6.5339 H   0  0  0  0  0  0  0  0  0  0  0  0
    3.8543   16.4722    7.7293 H   0  0  0  0  0  0  0  0  0  0  0  0
    3.8601   16.0733    6.0069 H   0  0  0  0  0  0  0  0  0  0  0  0
  1  4  1  0  0  0  0
  1  6  1  0  0  0  0
  2  1  1  0  0  0  0
  3  1  1  0  0  0  0
  4 16  1  0  0  0  0
  6  7  1  0  0  0  0
  6 15  1  0  0  0  0
  7  9  1  0  0  0  0
  8  7  1  0  0  0  0
  9 10  1  0  0  0  0
  9 11  2  0  0  0  0
 11 12  1  0  0  0  0
 13 11  1  0  0  0  0
 13 14  1  0  0  0  0
 15 13  2  0  0  0  0
 16 17  1  1  0  0  0
 16  5  1  0  0  0  0
 16 15  1  0  0  0  0
 18 21  1  0  0  0  0
 18  5  1  0  0  0  0
 18 20  1  0  0  0  0
 19 18  1  0  0  0  0
 21 23  1  0  0  0  0
 22 21  1  0  0  0  0
 24 21  1  0  0  0  0
M  END
$$$$
