CSD_code = HAFQAI | q = 0 | S = 0 | Stoichiometry = C32H29Cl2NNiP2 | MND = 4
 OpenBabel04212202043D

 67 72  0  0  1  0  0  0  0  0999 V2000
    5.0608    9.1924    2.4592 Ni  0  0  0  0  0  0  0  0  0  0  0  0
    3.4337   10.4527    1.9019 P   0  0  0  0  0  4  0  0  0  0  0  0
    3.4845    7.7968    2.0647 P   0  0  0  0  0  4  0  0  0  0  0  0
    6.3144   10.8491    2.6170 Cl  0  0  0  0  0  0  0  0  0  0  0  0
    6.4454    7.7089    2.9313 Cl  0  0  0  0  0  0  0  0  0  0  0  0
    2.6456   11.5432    3.1130 C   0  0  0  0  0  0  0  0  0  0  0  0
    1.6232   11.1377    3.9619 C   0  0  0  0  0  0  0  0  0  0  0  0
    1.1568   11.9946    4.9422 C   0  0  0  0  0  0  0  0  0  0  0  0
    1.7270   13.2477    5.0971 C   0  0  0  0  0  0  0  0  0  0  0  0
    2.7778   13.6389    4.2812 C   0  0  0  0  0  0  0  0  0  0  0  0
    3.2435   12.7894    3.2963 C   0  0  0  0  0  0  0  0  0  0  0  0
    3.5589   11.4780    0.4012 C   0  0  0  0  0  0  0  0  0  0  0  0
    4.5655   11.1261   -0.4933 C   0  0  0  0  0  0  0  0  0  0  0  0
    4.7428   11.8429   -1.6619 C   0  0  0  0  0  0  0  0  0  0  0  0
    3.9195   12.9231   -1.9362 C   0  0  0  0  0  0  0  0  0  0  0  0
    2.9319   13.2918   -1.0363 C   0  0  0  0  0  0  0  0  0  0  0  0
    2.7501   12.5768    0.1340 C   0  0  0  0  0  0  0  0  0  0  0  0
    2.6140    6.7112    3.2230 C   0  0  0  0  0  0  0  0  0  0  0  0
    1.4798    7.0663    3.9416 C   0  0  0  0  0  0  0  0  0  0  0  0
    0.9469    6.1900    4.8706 C   0  0  0  0  0  0  0  0  0  0  0  0
    1.5582    4.9700    5.1067 C   0  0  0  0  0  0  0  0  0  0  0  0
    2.7143    4.6281    4.4211 C   0  0  0  0  0  0  0  0  0  0  0  0
    3.2446    5.4951    3.4861 C   0  0  0  0  0  0  0  0  0  0  0  0
    3.7069    6.7303    0.6056 C   0  0  0  0  0  0  0  0  0  0  0  0
    2.8420    5.6942    0.2748 C   0  0  0  0  0  0  0  0  0  0  0  0
    3.0738    4.9510   -0.8670 C   0  0  0  0  0  0  0  0  0  0  0  0
    4.1659    5.2303   -1.6734 C   0  0  0  0  0  0  0  0  0  0  0  0
    5.0394    6.2506   -1.3357 C   0  0  0  0  0  0  0  0  0  0  0  0
    4.8105    6.9976   -0.1958 C   0  0  0  0  0  0  0  0  0  0  0  0
    2.4189    9.0822    1.6122 N   0  0  0  0  0  0  0  0  0  0  0  0
    1.1117    8.9123    0.9759 C   0  0  2  0  0  0  0  0  0  0  0  0
    1.1955    8.2475   -0.3801 C   0  0  0  0  0  0  0  0  0  0  0  0
    0.2648    7.2782   -0.7294 C   0  0  0  0  0  0  0  0  0  0  0  0
    0.3004    6.6881   -1.9797 C   0  0  0  0  0  0  0  0  0  0  0  0
    1.2703    7.0595   -2.8944 C   0  0  0  0  0  0  0  0  0  0  0  0
    2.1966    8.0303   -2.5557 C   0  0  0  0  0  0  0  0  0  0  0  0
    2.1538    8.6256   -1.3087 C   0  0  0  0  0  0  0  0  0  0  0  0
    0.3816   10.2440    0.8121 C   0  0  0  0  0  0  0  0  0  0  0  0
    1.1991   10.1492    3.8583 H   0  0  0  0  0  0  0  0  0  0  0  0
    0.3540   11.6805    5.5933 H   0  0  0  0  0  0  0  0  0  0  0  0
    1.3632   13.9130    5.8658 H   0  0  0  0  0  0  0  0  0  0  0  0
    3.2398   14.6048    4.4204 H   0  0  0  0  0  0  0  0  0  0  0  0
    4.0821   13.0698    2.6733 H   0  0  0  0  0  0  0  0  0  0  0  0
    5.2244   10.3003   -0.2431 H   0  0  0  0  0  0  0  0  0  0  0  0
    5.5271   11.5683   -2.3511 H   0  0  0  0  0  0  0  0  0  0  0  0
    4.0562   13.4891   -2.8455 H   0  0  0  0  0  0  0  0  0  0  0  0
    2.3032   14.1453   -1.2441 H   0  0  0  0  0  0  0  0  0  0  0  0
    1.9907   12.8791    0.8415 H   0  0  0  0  0  0  0  0  0  0  0  0
    1.0134    8.0273    3.7818 H   0  0  0  0  0  0  0  0  0  0  0  0
    0.0568    6.4644    5.4180 H   0  0  0  0  0  0  0  0  0  0  0  0
    1.1414    4.2914    5.8360 H   0  0  0  0  0  0  0  0  0  0  0  0
    3.2046    3.6876    4.6225 H   0  0  0  0  0  0  0  0  0  0  0  0
    4.1571    5.2517    2.9581 H   0  0  0  0  0  0  0  0  0  0  0  0
    1.9957    5.4707    0.9091 H   0  0  0  0  0  0  0  0  0  0  0  0
    2.4013    4.1473   -1.1282 H   0  0  0  0  0  0  0  0  0  0  0  0
    4.3410    4.6418   -2.5618 H   0  0  0  0  0  0  0  0  0  0  0  0
    5.9008    6.4555   -1.9535 H   0  0  0  0  0  0  0  0  0  0  0  0
    5.5025    7.7798    0.1066 H   0  0  0  0  0  0  0  0  0  0  0  0
    0.5147    8.2592    1.6288 H   0  0  0  0  0  0  0  0  0  0  0  0
   -0.4916    6.9810   -0.0159 H   0  0  0  0  0  0  0  0  0  0  0  0
   -0.4284    5.9344   -2.2385 H   0  0  0  0  0  0  0  0  0  0  0  0
    1.3030    6.5947   -3.8683 H   0  0  0  0  0  0  0  0  0  0  0  0
    2.9547    8.3286   -3.2642 H   0  0  0  0  0  0  0  0  0  0  0  0
    2.8793    9.3834   -1.0513 H   0  0  0  0  0  0  0  0  0  0  0  0
    0.8811   10.8506    0.0611 H   0  0  0  0  0  0  0  0  0  0  0  0
   -0.6358   10.0535    0.4763 H   0  0  0  0  0  0  0  0  0  0  0  0
    0.3439   10.7916    1.7505 H   0  0  0  0  0  0  0  0  0  0  0  0
  1  4  1  0  0  0  0
  1  5  1  0  0  0  0
  2  1  1  0  0  0  0
  2  6  1  0  0  0  0
  3  1  1  0  0  0  0
  3 18  1  0  0  0  0
  6 11  2  0  0  0  0
  6  7  1  0  0  0  0
  7  8  2  0  0  0  0
  8  9  1  0  0  0  0
  8 40  1  0  0  0  0
  9 41  1  0  0  0  0
 10 42  1  0  0  0  0
 10  9  2  0  0  0  0
 11 10  1  0  0  0  0
 12  2  1  0  0  0  0
 13 44  1  0  0  0  0
 13 12  2  0  0  0  0
 14 13  1  0  0  0  0
 15 14  2  0  0  0  0
 15 16  1  0  0  0  0
 16 17  2  0  0  0  0
 17 12  1  0  0  0  0
 17 48  1  0  0  0  0
 18 23  2  0  0  0  0
 18 19  1  0  0  0  0
 19 20  2  0  0  0  0
 20 21  1  0  0  0  0
 20 50  1  0  0  0  0
 21 51  1  0  0  0  0
 22 52  1  0  0  0  0
 22 21  2  0  0  0  0
 23 22  1  0  0  0  0
 24  3  1  0  0  0  0
 25 24  1  0  0  0  0
 25 54  1  0  0  0  0
 26 25  2  0  0  0  0
 27 28  2  0  0  0  0
 27 26  1  0  0  0  0
 28 29  1  0  0  0  0
 29 58  1  0  0  0  0
 29 24  2  0  0  0  0
 30  2  1  0  0  0  0
 30  3  1  0  0  0  0
 31 30  1  0  0  0  0
 31 59  1  1  0  0  0
 32 31  1  0  0  0  0
 33 32  1  0  0  0  0
 33 60  1  0  0  0  0
 34 33  2  0  0  0  0
 35 36  2  0  0  0  0
 35 34  1  0  0  0  0
 36 37  1  0  0  0  0
 37 64  1  0  0  0  0
 37 32  2  0  0  0  0
 38 31  1  0  0  0  0
 38 67  1  0  0  0  0
 39  7  1  0  0  0  0
 43 11  1  0  0  0  0
 45 14  1  0  0  0  0
 46 15  1  0  0  0  0
 47 16  1  0  0  0  0
 49 19  1  0  0  0  0
 53 23  1  0  0  0  0
 55 26  1  0  0  0  0
 56 27  1  0  0  0  0
 57 28  1  0  0  0  0
 61 34  1  0  0  0  0
 62 35  1  0  0  0  0
 63 36  1  0  0  0  0
 65 38  1  0  0  0  0
 66 38  1  0  0  0  0
M  END
$$$$
