CSD_code = HAGDOI | q = 0 | S = 0 | Stoichiometry = C6H16Cl2MoN2O2 | MND = 6
 OpenBabel04212202043D

 29 29  0  0  0  0  0  0  0  0999 V2000
    7.0088    2.3675    2.8640 Mo  0  0  0  0  0  0  0  0  0  0  0  0
    5.8783    0.3462    2.6069 Cl  0  0  0  0  0  0  0  0  0  0  0  0
    6.2982    2.9354    0.8077 Cl  0  0  0  0  0  0  0  0  0  0  0  0
    5.8922    3.0083    3.8940 O   0  0  0  0  0  1  0  0  0  0  0  0
    8.3789    3.2857    2.9193 O   0  0  0  0  0  1  0  0  0  0  0  0
    8.7717    0.8928    1.7620 N   0  0  0  0  0  4  0  0  0  0  0  0
    7.9438    1.2007    4.6244 N   0  0  0  0  0  4  0  0  0  0  0  0
    8.4205   -0.3446    1.0616 C   0  0  0  0  0  0  0  0  0  0  0  0
    9.4874    1.7450    0.8070 C   0  0  0  0  0  0  0  0  0  0  0  0
    9.6428    0.6016    2.9070 C   0  0  0  0  0  0  0  0  0  0  0  0
    8.8434    0.1468    4.1283 C   0  0  0  0  0  0  0  0  0  0  0  0
    8.6885    2.1829    5.4229 C   0  0  0  0  0  0  0  0  0  0  0  0
    6.9438    0.6030    5.5187 C   0  0  0  0  0  0  0  0  0  0  0  0
    7.7274   -0.1143    0.2529 H   0  0  0  0  0  0  0  0  0  0  0  0
    9.3174   -0.8158    0.6368 H   0  0  0  0  0  0  0  0  0  0  0  0
    7.9304   -1.0495    1.7291 H   0  0  0  0  0  0  0  0  0  0  0  0
    8.8527    1.9242   -0.0601 H   0  0  0  0  0  0  0  0  0  0  0  0
   10.4192    1.2673    0.4764 H   0  0  0  0  0  0  0  0  0  0  0  0
    9.7112    2.7048    1.2711 H   0  0  0  0  0  0  0  0  0  0  0  0
   10.3762   -0.1790    2.6473 H   0  0  0  0  0  0  0  0  0  0  0  0
   10.1886    1.5155    3.1524 H   0  0  0  0  0  0  0  0  0  0  0  0
    8.2283   -0.7157    3.8544 H   0  0  0  0  0  0  0  0  0  0  0  0
    9.5387   -0.1593    4.9240 H   0  0  0  0  0  0  0  0  0  0  0  0
    9.4388    2.6800    4.8111 H   0  0  0  0  0  0  0  0  0  0  0  0
    7.9927    2.9493    5.7656 H   0  0  0  0  0  0  0  0  0  0  0  0
    9.1648    1.6957    6.2831 H   0  0  0  0  0  0  0  0  0  0  0  0
    6.3703   -0.1593    4.9922 H   0  0  0  0  0  0  0  0  0  0  0  0
    6.2547    1.3837    5.8421 H   0  0  0  0  0  0  0  0  0  0  0  0
    7.4316    0.1536    6.3914 H   0  0  0  0  0  0  0  0  0  0  0  0
  1  5  1  0  0  0  0
  1  4  1  0  0  0  0
  1  7  1  0  0  0  0
  2  1  1  0  0  0  0
  3  1  1  0  0  0  0
  6  1  1  0  0  0  0
  6 10  1  0  0  0  0
  7 12  1  0  0  0  0
  7 13  1  0  0  0  0
  8 16  1  0  0  0  0
  8  6  1  0  0  0  0
  9 19  1  0  0  0  0
  9  6  1  0  0  0  0
 10 21  1  0  0  0  0
 10 11  1  0  0  0  0
 11  7  1  0  0  0  0
 11 23  1  0  0  0  0
 12 25  1  0  0  0  0
 12 26  1  0  0  0  0
 13 28  1  0  0  0  0
 13 29  1  0  0  0  0
 14  8  1  0  0  0  0
 15  8  1  0  0  0  0
 17  9  1  0  0  0  0
 18  9  1  0  0  0  0
 20 10  1  0  0  0  0
 22 11  1  0  0  0  0
 24 12  1  0  0  0  0
 27 13  1  0  0  0  0
M  END
$$$$
