CSD_code = HAGKOQ | q = 0 | S = 0 | Stoichiometry = C12H26Cl2MoN2O2 | MND = 6
 OpenBabel04212202043D

 45 44  0  0  0  0  0  0  0  0999 V2000
    3.3679    1.4707    9.7862 Mo  0  0  0  0  0  0  0  0  0  0  0  0
    1.6880    0.0659   10.6168 Cl  0  0  0  0  0  0  0  0  0  0  0  0
    4.2713    2.6312    7.9634 Cl  0  0  0  0  0  0  0  0  0  0  0  0
    1.2920    2.1815    8.4227 O   0  0  0  0  0  0  0  0  0  0  0  0
    2.8594   -0.0990    7.8073 O   0  0  0  0  0  0  0  0  0  0  0  0
    4.7835    0.5931   10.3016 N   0  0  0  0  0  2  0  0  0  0  0  0
    3.2625    2.7663   10.9478 N   0  0  0  0  0  2  0  0  0  0  0  0
    5.8877    0.5500   11.1628 C   0  0  0  0  0  0  0  0  0  0  0  0
    5.9687    1.9216   11.9017 C   0  0  0  0  0  0  0  0  0  0  0  0
    6.8654    1.9184   12.5247 H   0  0  0  0  0  0  0  0  0  0  0  0
    6.1017    2.6674   11.1149 H   0  0  0  0  0  0  0  0  0  0  0  0
    4.7510    2.2959   12.7620 C   0  0  0  0  0  0  0  0  0  0  0  0
    5.0925    2.6966   13.7185 H   0  0  0  0  0  0  0  0  0  0  0  0
    4.1556    1.4016   12.9591 H   0  0  0  0  0  0  0  0  0  0  0  0
    3.7597    3.3234   12.1332 C   0  0  0  0  0  0  0  0  0  0  0  0
    7.1826    0.3732   10.3459 C   0  0  0  0  0  0  0  0  0  0  0  0
    7.1655   -0.5807    9.8236 H   0  0  0  0  0  0  0  0  0  0  0  0
    8.0524    0.4043   10.9968 H   0  0  0  0  0  0  0  0  0  0  0  0
    7.2564    1.1699    9.6076 H   0  0  0  0  0  0  0  0  0  0  0  0
    5.7470   -0.6236   12.1485 C   0  0  0  0  0  0  0  0  0  0  0  0
    4.7566   -0.6173   12.5987 H   0  0  0  0  0  0  0  0  0  0  0  0
    6.5006   -0.5533   12.9281 H   0  0  0  0  0  0  0  0  0  0  0  0
    5.8697   -1.5651   11.6182 H   0  0  0  0  0  0  0  0  0  0  0  0
    4.4422    4.6715   11.8411 C   0  0  0  0  0  0  0  0  0  0  0  0
    5.1316    4.5686   11.0059 H   0  0  0  0  0  0  0  0  0  0  0  0
    4.9829    5.0178   12.7176 H   0  0  0  0  0  0  0  0  0  0  0  0
    3.6925    5.4110   11.5696 H   0  0  0  0  0  0  0  0  0  0  0  0
    2.6075    3.5449   13.1327 C   0  0  0  0  0  0  0  0  0  0  0  0
    1.8996    4.2658   12.7301 H   0  0  0  0  0  0  0  0  0  0  0  0
    2.9897    3.9156   14.0802 H   0  0  0  0  0  0  0  0  0  0  0  0
    2.0857    2.6038   13.2981 H   0  0  0  0  0  0  0  0  0  0  0  0
    1.2782    1.5626    7.1523 C   0  0  0  0  0  0  0  0  0  0  0  0
    2.0606    1.9984    6.5102 H   0  0  0  0  0  0  0  0  0  0  0  0
    0.2942    1.7094    6.6806 H   0  0  0  0  0  0  0  0  0  0  0  0
    1.5380    0.0725    7.3367 C   0  0  0  0  0  0  0  0  0  0  0  0
    0.8206   -0.3411    8.0639 H   0  0  0  0  0  0  0  0  0  0  0  0
    1.4197   -0.4444    6.3718 H   0  0  0  0  0  0  0  0  0  0  0  0
    1.0739    3.5763    8.3563 C   0  0  0  0  0  0  0  0  0  0  0  0
    1.8614    4.0699    7.7744 H   0  0  0  0  0  0  0  0  0  0  0  0
    1.0934    3.9407    9.3829 H   0  0  0  0  0  0  0  0  0  0  0  0
    0.0964    3.7843    7.9042 H   0  0  0  0  0  0  0  0  0  0  0  0
    3.1907   -1.4548    8.0294 C   0  0  0  0  0  0  0  0  0  0  0  0
    2.5395   -1.8985    8.7918 H   0  0  0  0  0  0  0  0  0  0  0  0
    4.2231   -1.4667    8.3774 H   0  0  0  0  0  0  0  0  0  0  0  0
    3.1043   -2.0226    7.0949 H   0  0  0  0  0  0  0  0  0  0  0  0
  1  6  1  0  0  0  0
  1  2  1  0  0  0  0
  1  7  1  0  0  0  0
  3  1  1  0  0  0  0
  5 42  1  0  0  0  0
  6  8  1  0  0  0  0
  7 15  1  0  0  0  0
  8  9  1  0  0  0  0
  8 20  1  0  0  0  0
  9 10  1  0  0  0  0
  9 12  1  0  0  0  0
 11  9  1  0  0  0  0
 12 14  1  0  0  0  0
 12 13  1  0  0  0  0
 15 12  1  0  0  0  0
 15 28  1  0  0  0  0
 16 18  1  0  0  0  0
 16  8  1  0  0  0  0
 17 16  1  0  0  0  0
 19 16  1  0  0  0  0
 20 21  1  0  0  0  0
 20 22  1  0  0  0  0
 23 20  1  0  0  0  0
 24 15  1  0  0  0  0
 24 26  1  0  0  0  0
 25 24  1  0  0  0  0
 27 24  1  0  0  0  0
 28 31  1  0  0  0  0
 28 30  1  0  0  0  0
 29 28  1  0  0  0  0
 32 35  1  0  0  0  0
 32  4  1  0  0  0  0
 33 32  1  0  0  0  0
 34 32  1  0  0  0  0
 35  5  1  0  0  0  0
 35 36  1  0  0  0  0
 37 35  1  0  0  0  0
 38  4  1  0  0  0  0
 38 40  1  0  0  0  0
 39 38  1  0  0  0  0
 41 38  1  0  0  0  0
 42 44  1  0  0  0  0
 42 43  1  0  0  0  0
 45 42  1  0  0  0  0
M  END
$$$$
