CSD_code = HAGTOB | q = 0 | S = 0 | Stoichiometry = C21H28ClN2Rh | MND = 6
 OpenBabel04212202043D

 53 55  0  0  1  0  0  0  0  0999 V2000
    4.1006   11.7591   11.8968 C   0  0  0  0  0  0  0  0  0  0  0  0
    4.0987   12.5018   12.6821 H   0  0  0  0  0  0  0  0  0  0  0  0
    4.6904   12.0312   10.6760 C   0  0  0  0  0  0  0  0  0  0  0  0
    5.1470   12.9946   10.5059 H   0  0  0  0  0  0  0  0  0  0  0  0
    4.6996   11.0719    9.6764 C   0  0  0  0  0  0  0  0  0  0  0  0
    5.1621   11.2851    8.7238 H   0  0  0  0  0  0  0  0  0  0  0  0
    4.1159    9.8371    9.9014 C   0  0  0  0  0  0  0  0  0  0  0  0
    4.1220    9.0847    9.1261 H   0  0  0  0  0  0  0  0  0  0  0  0
    3.5191    9.5645   11.1205 C   0  0  0  0  0  0  0  0  0  0  0  0
    3.0618    8.5996   11.2920 H   0  0  0  0  0  0  0  0  0  0  0  0
    3.5098   10.5213   12.1257 C   0  0  0  0  0  0  0  0  0  0  0  0
    2.8479   10.2474   13.4514 C   0  0  0  0  0  0  0  0  0  0  0  0
    2.4570    9.2208   13.4716 H   0  0  0  0  0  0  0  0  0  0  0  0
    3.5752   10.3721   14.2702 H   0  0  0  0  0  0  0  0  0  0  0  0
    0.7355   11.4248   12.7255 C   0  0  0  0  0  0  0  0  0  0  0  0
    0.1228   10.5261   12.5890 H   0  0  0  0  0  0  0  0  0  0  0  0
    1.1737   11.7002   11.7619 H   0  0  0  0  0  0  0  0  0  0  0  0
   -0.0504   12.5639   13.3732 C   0  0  2  0  0  0  0  0  0  0  0  0
   -1.1294   12.3770   13.3929 H   0  0  0  0  0  0  0  0  0  0  0  0
    1.6374   11.9044   14.8148 C   0  0  2  0  0  3  0  0  0  0  0  0
    0.2489   13.9867   12.8957 C   0  0  0  0  0  0  0  0  0  0  0  0
   -0.3447   14.2867   12.0348 H   0  0  0  0  0  0  0  0  0  0  0  0
    1.3089   14.0581   12.6476 H   0  0  0  0  0  0  0  0  0  0  0  0
   -0.0483   14.8269   14.1443 C   0  0  0  0  0  0  0  0  0  0  0  0
    0.5592   15.7278   14.1720 H   0  0  0  0  0  0  0  0  0  0  0  0
   -1.0997   15.1164   14.1637 H   0  0  0  0  0  0  0  0  0  0  0  0
    0.2707   13.8933   15.3314 C   0  0  0  0  0  0  0  0  0  0  0  0
    1.1781   14.1932   15.8685 H   0  0  0  0  0  0  0  0  0  0  0  0
   -0.5632   13.8491   16.0391 H   0  0  0  0  0  0  0  0  0  0  0  0
    4.0930   12.8521   17.9618 C   0  0  0  0  0  3  0  0  0  0  0  0
    4.2691   13.9116   17.7735 H   0  0  0  0  0  0  0  0  0  0  0  0
    3.3935   12.5421   19.2662 C   0  0  0  0  0  0  0  0  0  0  0  0
    3.3753   13.4427   19.8838 H   0  0  0  0  0  0  0  0  0  0  0  0
    3.9685   11.7910   19.8099 H   0  0  0  0  0  0  0  0  0  0  0  0
    1.9460   12.0607   19.0494 C   0  0  0  0  0  0  0  0  0  0  0  0
    1.6350   11.4200   19.8827 H   0  0  0  0  0  0  0  0  0  0  0  0
    1.2814   12.9291   19.0460 H   0  0  0  0  0  0  0  0  0  0  0  0
    1.7454   11.3215   17.7460 C   0  0  2  0  0  0  0  0  0  0  0  0
    0.7040   11.3085   17.4219 H   0  0  0  0  0  0  0  0  0  0  0  0
    2.5763   10.3038   17.2700 C   0  0  0  0  0  3  0  0  0  0  0  0
    2.1262    9.5811   16.5897 H   0  0  0  0  0  0  0  0  0  0  0  0
    3.7640    9.7699   18.0446 C   0  0  0  0  0  0  0  0  0  0  0  0
    3.8855    8.7069   17.8243 H   0  0  0  0  0  0  0  0  0  0  0  0
    3.5598    9.8531   19.1131 H   0  0  0  0  0  0  0  0  0  0  0  0
    5.0740   10.4998   17.6878 C   0  0  0  0  0  0  0  0  0  0  0  0
    5.7665   10.4645   18.5363 H   0  0  0  0  0  0  0  0  0  0  0  0
    5.5563    9.9769   16.8573 H   0  0  0  0  0  0  0  0  0  0  0  0
    4.8654   11.9396   17.2755 C   0  0  0  0  0  3  0  0  0  0  0  0
    5.6351   12.3215   16.6033 H   0  0  0  0  0  0  0  0  0  0  0  0
    1.7798   11.1814   13.7102 N   0  0  0  0  0  0  0  0  0  0  0  0
    0.4863   12.5916   14.7342 N   0  0  1  0  0  0  0  0  0  0  0  0
    3.8352   13.7134   14.8491 Cl  0  0  0  0  0 15  0  0  0  0  0  0
    2.9863   12.1155   16.2418 Rh  0  0  0  0  0  0  0  0  0  0  0  0
  1 11  1  0  0  0  0
  1  2  1  0  0  0  0
  3  1  2  0  0  0  0
  4  3  1  0  0  0  0
  5  7  2  0  0  0  0
  5  3  1  0  0  0  0
  6  5  1  0  0  0  0
  7  9  1  0  0  0  0
  8  7  1  0  0  0  0
  9 10  1  0  0  0  0
  9 11  2  0  0  0  0
 11 12  1  0  0  0  0
 12 13  1  0  0  0  0
 12 50  1  0  0  0  0
 12 14  1  0  0  0  0
 15 18  1  0  0  0  0
 15 50  1  0  0  0  0
 16 15  1  0  0  0  0
 17 15  1  0  0  0  0
 18 19  1  6  0  0  0
 18 51  1  0  0  0  0
 20 53  1  6  0  0  0
 21 18  1  0  0  0  0
 21 24  1  0  0  0  0
 22 21  1  0  0  0  0
 23 21  1  0  0  0  0
 24 26  1  0  0  0  0
 24 25  1  0  0  0  0
 24 27  1  0  0  0  0
 27 28  1  0  0  0  0
 27 29  1  0  0  0  0
 30 32  1  0  0  0  0
 31 30  1  0  0  0  0
 32 34  1  0  0  0  0
 32 33  1  0  0  0  0
 35 32  1  0  0  0  0
 35 36  1  0  0  0  0
 37 35  1  0  0  0  0
 38 39  1  6  0  0  0
 38 35  1  0  0  0  0
 40 38  1  0  0  0  0
 40 42  1  0  0  0  0
 41 40  1  0  0  0  0
 42 44  1  0  0  0  0
 43 42  1  0  0  0  0
 45 42  1  0  0  0  0
 45 46  1  0  0  0  0
 47 45  1  0  0  0  0
 48 45  1  0  0  0  0
 48 30  1  0  0  0  0
 49 48  1  0  0  0  0
 50 20  1  0  0  0  0
 51 20  1  0  0  0  0
 51 27  1  6  0  0  0
 53 38  1  0  0  0  0
M  END
$$$$
