CSD_code = HAGTUH | q = 0 | S = 0 | Stoichiometry = C22H30ClN2Rh | MND = 6
 OpenBabel04212202043D

 56 58  0  0  1  0  0  0  0  0999 V2000
    0.4453    8.3847   14.5886 C   0  0  0  0  0  0  0  0  0  0  0  0
   -0.1644    7.6550   15.1001 H   0  0  0  0  0  0  0  0  0  0  0  0
    0.6021    8.2899   13.2167 C   0  0  0  0  0  0  0  0  0  0  0  0
    0.1231    7.4857   12.6773 H   0  0  0  0  0  0  0  0  0  0  0  0
    1.3657    9.2217   12.5355 C   0  0  0  0  0  0  0  0  0  0  0  0
    1.4863    9.1464   11.4650 H   0  0  0  0  0  0  0  0  0  0  0  0
    1.9679   10.2540   13.2339 C   0  0  0  0  0  0  0  0  0  0  0  0
    2.5592   10.9900   12.7089 H   0  0  0  0  0  0  0  0  0  0  0  0
    1.8119   10.3454   14.6053 C   0  0  0  0  0  0  0  0  0  0  0  0
    2.2778   11.1554   15.1476 H   0  0  0  0  0  0  0  0  0  0  0  0
    1.0542    9.4111   15.3006 C   0  0  0  0  0  0  0  0  0  0  0  0
    0.9272    9.5295   16.8023 C   0  0  1  0  0  0  0  0  0  0  0  0
    1.3609   10.4968   17.1170 H   0  0  0  0  0  0  0  0  0  0  0  0
    1.4488    7.1059   17.4539 C   0  0  0  0  0  0  0  0  0  0  0  0
    1.6668    6.6878   16.4650 H   0  0  0  0  0  0  0  0  0  0  0  0
    0.4024    6.9137   17.7020 H   0  0  0  0  0  0  0  0  0  0  0  0
    2.4057    6.5654   18.5172 C   0  0  2  0  0  0  0  0  0  0  0  0
    2.9830    5.7037   18.1656 H   0  0  0  0  0  0  0  0  0  0  0  0
    2.7584    8.8373   18.2726 C   0  0  2  0  0  3  0  0  0  0  0  0
    1.8321    6.3062   19.9123 C   0  0  0  0  0  0  0  0  0  0  0  0
    1.4039    5.3125   20.0259 H   0  0  0  0  0  0  0  0  0  0  0  0
    1.0699    7.0575   20.1247 H   0  0  0  0  0  0  0  0  0  0  0  0
    3.0485    6.5358   20.8167 C   0  0  0  0  0  0  0  0  0  0  0  0
    3.6223    5.6136   20.9174 H   0  0  0  0  0  0  0  0  0  0  0  0
    2.7534    6.8695   21.8083 H   0  0  0  0  0  0  0  0  0  0  0  0
    3.8829    7.6059   20.0830 C   0  0  0  0  0  0  0  0  0  0  0  0
    3.8260    8.5866   20.5717 H   0  0  0  0  0  0  0  0  0  0  0  0
    4.9331    7.3080   20.0040 H   0  0  0  0  0  0  0  0  0  0  0  0
    4.0280   12.3697   19.9339 C   0  0  0  0  0  3  0  0  0  0  0  0
    3.6537   12.2645   20.9524 H   0  0  0  0  0  0  0  0  0  0  0  0
    5.5303   12.4921   19.8122 C   0  0  0  0  0  0  0  0  0  0  0  0
    5.9562   12.6627   20.8033 H   0  0  0  0  0  0  0  0  0  0  0  0
    5.7696   13.3659   19.2043 H   0  0  0  0  0  0  0  0  0  0  0  0
    6.1674   11.2256   19.2097 C   0  0  0  0  0  0  0  0  0  0  0  0
    7.1064   11.4811   18.7049 H   0  0  0  0  0  0  0  0  0  0  0  0
    6.4156   10.5344   20.0199 H   0  0  0  0  0  0  0  0  0  0  0  0
    5.2609   10.4984   18.2428 C   0  0  2  0  0  0  0  0  0  0  0  0
    5.5389    9.4529   18.1049 H   0  0  0  0  0  0  0  0  0  0  0  0
    4.5416   11.1054   17.2099 C   0  0  0  0  0  3  0  0  0  0  0  0
    4.3006   10.4769   16.3529 H   0  0  0  0  0  0  0  0  0  0  0  0
    4.6251   12.5858   16.8959 C   0  0  0  0  0  0  0  0  0  0  0  0
    4.4943   12.7313   15.8208 H   0  0  0  0  0  0  0  0  0  0  0  0
    5.6241   12.9467   17.1455 H   0  0  0  0  0  0  0  0  0  0  0  0
    3.5545   13.4095   17.6402 C   0  0  0  0  0  0  0  0  0  0  0  0
    3.9146   14.4316   17.8026 H   0  0  0  0  0  0  0  0  0  0  0  0
    2.6608   13.4814   17.0137 H   0  0  0  0  0  0  0  0  0  0  0  0
    3.1482   12.8088   18.9678 C   0  0  0  0  0  3  0  0  0  0  0  0
    2.1323   13.0614   19.2753 H   0  0  0  0  0  0  0  0  0  0  0  0
   -0.5203    9.4956   17.2928 C   0  0  0  0  0  0  0  0  0  0  0  0
   -1.0204    8.5652   17.0375 H   0  0  0  0  0  0  0  0  0  0  0  0
   -1.0717   10.3151   16.8396 H   0  0  0  0  0  0  0  0  0  0  0  0
   -0.5258    9.6245   18.3730 H   0  0  0  0  0  0  0  0  0  0  0  0
    1.7385    8.5322   17.4777 N   0  0  0  0  0  0  0  0  0  0  0  0
    3.2880    7.7045   18.7646 N   0  0  1  0  0  0  0  0  0  0  0  0
    1.4386   10.4084   20.2160 Cl  0  0  0  0  0 15  0  0  0  0  0  0
    3.2452   10.6658   18.8317 Rh  0  0  0  0  0  0  0  0  0  0  0  0
  1  2  1  0  0  0  0
  1 11  1  0  0  0  0
  3  1  2  0  0  0  0
  4  3  1  0  0  0  0
  5  3  1  0  0  0  0
  5  7  2  0  0  0  0
  6  5  1  0  0  0  0
  7  9  1  0  0  0  0
  8  7  1  0  0  0  0
  9 10  1  0  0  0  0
  9 11  2  0  0  0  0
 11 12  1  0  0  0  0
 12 13  1  1  0  0  0
 12 49  1  0  0  0  0
 12 53  1  0  0  0  0
 14 53  1  0  0  0  0
 14 16  1  0  0  0  0
 14 17  1  0  0  0  0
 15 14  1  0  0  0  0
 17 18  1  6  0  0  0
 17 54  1  0  0  0  0
 17 20  1  0  0  0  0
 19 54  1  0  0  0  0
 19 56  1  1  0  0  0
 20 21  1  0  0  0  0
 20 22  1  0  0  0  0
 20 23  1  0  0  0  0
 23 24  1  0  0  0  0
 23 25  1  0  0  0  0
 26 27  1  0  0  0  0
 26 23  1  0  0  0  0
 28 26  1  0  0  0  0
 29 30  1  0  0  0  0
 31 29  1  0  0  0  0
 31 32  1  0  0  0  0
 33 31  1  0  0  0  0
 34 31  1  0  0  0  0
 34 36  1  0  0  0  0
 35 34  1  0  0  0  0
 37 38  1  6  0  0  0
 37 56  1  0  0  0  0
 37 34  1  0  0  0  0
 39 37  1  0  0  0  0
 40 39  1  0  0  0  0
 41 43  1  0  0  0  0
 41 39  1  0  0  0  0
 41 44  1  0  0  0  0
 42 41  1  0  0  0  0
 44 45  1  0  0  0  0
 44 47  1  0  0  0  0
 46 44  1  0  0  0  0
 47 48  1  0  0  0  0
 47 29  1  0  0  0  0
 49 52  1  0  0  0  0
 50 49  1  0  0  0  0
 51 49  1  0  0  0  0
 53 19  1  0  0  0  0
 54 26  1  1  0  0  0
M  END
$$$$
