CSD_code = HAGYIA | q = 0 | S = 0 | Stoichiometry = C28H26Cl2N2O2PRe | MND = 6
 OpenBabel04212202043D

 62 67  0  0  0  0  0  0  0  0999 V2000
    6.6288    7.8294    5.0654 Re  0  0  0  0  0  0  0  0  0  0  0  0
    8.0295    7.0746    5.5271 O   0  0  0  0  0  1  0  0  0  0  0  0
    4.9239    8.3429    4.4119 O   0  0  0  0  0  0  0  0  0  0  0  0
    6.1492    6.4182    3.5094 N   0  0  0  0  0  0  0  0  0  0  0  0
    5.0217    6.6999    2.8525 N   0  0  0  0  0  0  0  0  0  0  0  0
    5.3746    6.6977    6.9162 P   0  0  0  0  0  4  0  0  0  0  0  0
    6.6633    9.6128    6.4825 Cl  0  0  0  0  0  0  0  0  0  0  0  0
    7.6517    9.0607    3.3467 Cl  0  0  0  0  0  0  0  0  0  0  0  0
    4.3528    5.3395    6.2848 C   0  0  0  0  0  0  0  0  0  0  0  0
    5.0137    4.3340    5.5795 C   0  0  0  0  0  0  0  0  0  0  0  0
    6.0940    4.3635    5.5227 H   0  0  0  0  0  0  0  0  0  0  0  0
    4.2942    3.3271    4.9671 C   0  0  0  0  0  0  0  0  0  0  0  0
    4.8078    2.5552    4.4137 H   0  0  0  0  0  0  0  0  0  0  0  0
    2.9095    3.3141    5.0566 C   0  0  0  0  0  0  0  0  0  0  0  0
    2.3455    2.5315    4.5719 H   0  0  0  0  0  0  0  0  0  0  0  0
    2.2500    4.3028    5.7675 C   0  0  0  0  0  0  0  0  0  0  0  0
    1.1724    4.2881    5.8417 H   0  0  0  0  0  0  0  0  0  0  0  0
    2.9658    5.3203    6.3777 C   0  0  0  0  0  0  0  0  0  0  0  0
    2.4521    6.0980    6.9262 H   0  0  0  0  0  0  0  0  0  0  0  0
    6.4868    5.9235    8.1202 C   0  0  0  0  0  0  0  0  0  0  0  0
    6.2234    4.6810    8.6884 C   0  0  0  0  0  0  0  0  0  0  0  0
    5.3357    4.1318    8.4054 H   0  0  0  0  0  0  0  0  0  0  0  0
    7.1041    4.1511    9.6146 C   0  0  0  0  0  0  0  0  0  0  0  0
    6.9016    3.1854   10.0544 H   0  0  0  0  0  0  0  0  0  0  0  0
    8.2421    4.8543    9.9752 C   0  0  0  0  0  0  0  0  0  0  0  0
    8.9276    4.4333   10.6958 H   0  0  0  0  0  0  0  0  0  0  0  0
    8.5039    6.0926    9.4100 C   0  0  0  0  0  0  0  0  0  0  0  0
    9.3930    6.6375    9.6885 H   0  0  0  0  0  0  0  0  0  0  0  0
    7.6305    6.6304    8.4828 C   0  0  0  0  0  0  0  0  0  0  0  0
    7.8301    7.5897    8.0230 H   0  0  0  0  0  0  0  0  0  0  0  0
    4.2508    7.7164    7.9111 C   0  0  0  0  0  0  0  0  0  0  0  0
    4.0795    7.4798    9.2712 C   0  0  0  0  0  0  0  0  0  0  0  0
    4.6358    6.6912    9.7579 H   0  0  0  0  0  0  0  0  0  0  0  0
    3.2020    8.2644    9.9980 C   0  0  0  0  0  0  0  0  0  0  0  0
    3.0719    8.0833   11.0547 H   0  0  0  0  0  0  0  0  0  0  0  0
    2.4986    9.2837    9.3771 C   0  0  0  0  0  0  0  0  0  0  0  0
    1.8197    9.8969    9.9510 H   0  0  0  0  0  0  0  0  0  0  0  0
    2.6741    9.5248    8.0238 C   0  0  0  0  0  0  0  0  0  0  0  0
    2.1351   10.3280    7.5435 H   0  0  0  0  0  0  0  0  0  0  0  0
    3.5488    8.7457    7.2901 C   0  0  0  0  0  0  0  0  0  0  0  0
    3.7130    8.9424    6.2403 H   0  0  0  0  0  0  0  0  0  0  0  0
    6.7230    5.3670    2.9751 C   0  0  0  0  0  0  0  0  0  0  0  0
    7.6522    4.9973    3.3609 H   0  0  0  0  0  0  0  0  0  0  0  0
    5.9351    4.9100    1.8975 C   0  0  0  0  0  0  0  0  0  0  0  0
    6.0322    3.8574    0.9816 C   0  0  0  0  0  3  0  0  0  0  0  0
    6.8669    3.1755    1.0239 H   0  0  0  0  0  0  0  0  0  0  0  0
    5.0448    3.7310    0.0378 C   0  0  0  0  0  0  0  0  0  0  0  0
    5.0902    2.9318   -0.6863 H   0  0  0  0  0  0  0  0  0  0  0  0
    3.9694    4.6298   -0.0150 C   0  0  0  0  0  0  0  0  0  0  0  0
    3.2196    4.4989   -0.7806 H   0  0  0  0  0  0  0  0  0  0  0  0
    3.8458    5.6721    0.8727 C   0  0  0  0  0  0  0  0  0  0  0  0
    3.0146    6.3551    0.8054 H   0  0  0  0  0  0  0  0  0  0  0  0
    4.8379    5.8117    1.8438 C   0  0  0  0  0  0  0  0  0  0  0  0
    4.2939    7.9219    3.2835 C   0  0  0  0  0  0  0  0  0  0  0  0
    4.4109    8.9715    2.1660 C   0  0  0  0  0  0  0  0  0  0  0  0
    3.8410    9.8534    2.4456 H   0  0  0  0  0  0  0  0  0  0  0  0
    4.0388    8.5766    1.2253 H   0  0  0  0  0  0  0  0  0  0  0  0
    5.4586    9.2525    2.0589 H   0  0  0  0  0  0  0  0  0  0  0  0
    2.8277    7.5585    3.5721 C   0  0  0  0  0  0  0  0  0  0  0  0
    2.7804    6.7291    4.2754 H   0  0  0  0  0  0  0  0  0  0  0  0
    2.3045    7.2877    2.6614 H   0  0  0  0  0  0  0  0  0  0  0  0
    2.3392    8.4226    4.0156 H   0  0  0  0  0  0  0  0  0  0  0  0
  1  2  1  0  0  0  0
  1  7  1  0  0  0  0
  1  6  1  0  0  0  0
  3  1  1  0  0  0  0
  4  1  1  0  0  0  0
  5 54  1  0  0  0  0
  5  4  1  0  0  0  0
  6 31  1  0  0  0  0
  6 20  1  0  0  0  0
  8  1  1  0  0  0  0
  9 18  1  0  0  0  0
  9  6  1  0  0  0  0
 10  9  2  0  0  0  0
 11 10  1  0  0  0  0
 12 14  2  0  0  0  0
 12 10  1  0  0  0  0
 13 12  1  0  0  0  0
 14 16  1  0  0  0  0
 15 14  1  0  0  0  0
 16 17  1  0  0  0  0
 16 18  2  0  0  0  0
 18 19  1  0  0  0  0
 20 29  2  0  0  0  0
 20 21  1  0  0  0  0
 21 23  2  0  0  0  0
 22 21  1  0  0  0  0
 23 25  1  0  0  0  0
 23 24  1  0  0  0  0
 25 26  1  0  0  0  0
 27 28  1  0  0  0  0
 27 25  2  0  0  0  0
 29 27  1  0  0  0  0
 30 29  1  0  0  0  0
 31 32  1  0  0  0  0
 32 33  1  0  0  0  0
 32 34  2  0  0  0  0
 34 35  1  0  0  0  0
 36 37  1  0  0  0  0
 36 34  1  0  0  0  0
 38 36  2  0  0  0  0
 39 38  1  0  0  0  0
 40 31  2  0  0  0  0
 40 38  1  0  0  0  0
 41 40  1  0  0  0  0
 42 43  1  0  0  0  0
 42  4  1  0  0  0  0
 44 42  2  0  0  0  0
 45 46  1  0  0  0  0
 45 44  1  0  0  0  0
 47 45  1  0  0  0  0
 48 47  1  0  0  0  0
 49 47  2  0  0  0  0
 49 51  1  0  0  0  0
 50 49  1  0  0  0  0
 51 53  2  0  0  0  0
 52 51  1  0  0  0  0
 53 44  1  0  0  0  0
 53  5  1  0  0  0  0
 54 59  1  0  0  0  0
 54  3  1  0  0  0  0
 55 56  1  0  0  0  0
 55 54  1  0  0  0  0
 57 55  1  0  0  0  0
 58 55  1  0  0  0  0
 59 62  1  0  0  0  0
 59 60  1  0  0  0  0
 61 59  1  0  0  0  0
M  END
$$$$
