CSD_code = HAHDUP | q = 0 | S = 0 | Stoichiometry = C14H19IO4Zn | MND = 4
 OpenBabel04212202043D

 39 40  0  0  0  0  0  0  0  0999 V2000
   -0.3259    0.8981    4.5256 I   0  0  0  0  0  0  0  0  0  0  0  0
    0.1849    1.3075    6.9755 Zn  0  0  0  0  0  0  0  0  0  0  0  0
    1.1815    3.6956    6.8748 O   0  0  0  0  0  0  0  0  0  0  0  0
    2.5506    1.3289    6.8272 O   0  0  0  0  0  0  0  0  0  0  0  0
    1.4184   -0.9717    7.2517 O   0  0  0  0  0  0  0  0  0  0  0  0
   -1.0105   -0.4570    8.1969 O   0  0  0  0  0  0  0  0  0  0  0  0
   -0.6112    2.2485    8.5181 C   0  0  0  0  0  0  0  0  0  0  0  0
   -1.3131    1.5575    9.4985 C   0  0  0  0  0  0  0  0  0  0  0  0
   -1.8947    2.2232   10.5718 C   0  0  0  0  0  0  0  0  0  0  0  0
   -1.7747    3.5952   10.6832 C   0  0  0  0  0  0  0  0  0  0  0  0
   -1.0851    4.3042    9.7154 C   0  0  0  0  0  0  0  0  0  0  0  0
   -0.5198    3.6344    8.6399 C   0  0  0  0  0  0  0  0  0  0  0  0
    0.1710    4.4229    7.5486 C   0  0  0  0  0  0  0  0  0  0  0  0
    2.3576    3.5528    7.6336 C   0  0  0  0  0  0  0  0  0  0  0  0
    3.2571    2.5435    6.9329 C   0  0  0  0  0  0  0  0  0  0  0  0
    3.3559    0.2014    6.5740 C   0  0  0  0  0  0  0  0  0  0  0  0
    2.4368   -0.9819    6.2783 C   0  0  0  0  0  0  0  0  0  0  0  0
    0.4314   -1.9647    7.0697 C   0  0  0  0  0  0  0  0  0  0  0  0
   -0.5687   -1.7905    8.2088 C   0  0  0  0  0  0  0  0  0  0  0  0
   -1.4451    0.0519    9.4381 C   0  0  0  0  0  0  0  0  0  0  0  0
   -2.4402    1.6628   11.3193 H   0  0  0  0  0  0  0  0  0  0  0  0
   -2.2206    4.1127   11.5199 H   0  0  0  0  0  0  0  0  0  0  0  0
   -0.9935    5.3793    9.7900 H   0  0  0  0  0  0  0  0  0  0  0  0
    0.5877    5.3581    7.9493 H   0  0  0  0  0  0  0  0  0  0  0  0
   -0.5573    4.6753    6.7700 H   0  0  0  0  0  0  0  0  0  0  0  0
    2.8767    4.5195    7.7166 H   0  0  0  0  0  0  0  0  0  0  0  0
    2.1200    3.1880    8.6424 H   0  0  0  0  0  0  0  0  0  0  0  0
    4.1739    2.4043    7.5218 H   0  0  0  0  0  0  0  0  0  0  0  0
    3.5205    2.9084    5.9303 H   0  0  0  0  0  0  0  0  0  0  0  0
    4.0131    0.3780    5.7118 H   0  0  0  0  0  0  0  0  0  0  0  0
    3.9744   -0.0107    7.4596 H   0  0  0  0  0  0  0  0  0  0  0  0
    3.0080   -1.9199    6.3272 H   0  0  0  0  0  0  0  0  0  0  0  0
    2.0081   -0.8835    5.2732 H   0  0  0  0  0  0  0  0  0  0  0  0
   -0.0697   -1.8409    6.1016 H   0  0  0  0  0  0  0  0  0  0  0  0
    0.8811   -2.9664    7.1130 H   0  0  0  0  0  0  0  0  0  0  0  0
   -0.0652   -2.0117    9.1605 H   0  0  0  0  0  0  0  0  0  0  0  0
   -1.4119   -2.4844    8.0806 H   0  0  0  0  0  0  0  0  0  0  0  0
   -2.4939   -0.2371    9.6100 H   0  0  0  0  0  0  0  0  0  0  0  0
   -0.8410   -0.3833   10.2506 H   0  0  0  0  0  0  0  0  0  0  0  0
  1  2  1  0  0  0  0
  2  7  1  0  0  0  0
  3 13  1  0  0  0  0
  3 14  1  0  0  0  0
  4 15  1  0  0  0  0
  6 19  1  0  0  0  0
  6 20  1  0  0  0  0
  7 12  2  0  0  0  0
  7  8  1  0  0  0  0
  8  9  2  0  0  0  0
  9 10  1  0  0  0  0
  9 21  1  0  0  0  0
 10 22  1  0  0  0  0
 11 23  1  0  0  0  0
 11 10  2  0  0  0  0
 12 11  1  0  0  0  0
 13 24  1  0  0  0  0
 13 12  1  0  0  0  0
 14 26  1  0  0  0  0
 14 27  1  0  0  0  0
 15 28  1  0  0  0  0
 15 14  1  0  0  0  0
 16  4  1  0  0  0  0
 16 31  1  0  0  0  0
 17 32  1  0  0  0  0
 17 16  1  0  0  0  0
 17  5  1  0  0  0  0
 18 35  1  0  0  0  0
 18  5  1  0  0  0  0
 18 19  1  0  0  0  0
 19 36  1  0  0  0  0
 20  8  1  0  0  0  0
 20 38  1  0  0  0  0
 20 39  1  0  0  0  0
 25 13  1  0  0  0  0
 29 15  1  0  0  0  0
 30 16  1  0  0  0  0
 33 17  1  0  0  0  0
 34 18  1  0  0  0  0
 37 19  1  0  0  0  0
M  END
$$$$
