CSD_code = HAHSUF | q = 0 | S = 0 | Stoichiometry = C29H28Cl2NPPd | MND = 4
 OpenBabel04212202043D

 62 67  0  0  1  0  0  0  0  0999 V2000
    7.3749    2.2947   -6.6956 Pd  0  0  0  0  0  0  0  0  0  0  0  0
    6.2583    3.4932   -5.1168 Cl  0  0  0  0  0  0  0  0  0  0  0  0
    6.3296    3.4243   -8.3139 Cl  0  0  0  0  0  0  0  0  0  0  0  0
    9.0215    1.5272   -8.0232 P   0  0  0  0  0  4  0  0  0  0  0  0
    8.1478    1.0589   -5.2791 N   0  0  0  0  0  0  0  0  0  0  0  0
    9.4518    0.9394   -4.9873 C   0  0  1  0  0  3  0  0  0  0  0  0
    9.9072   -0.0299   -4.0963 C   0  0  0  0  0  0  0  0  0  0  0  0
    9.0131   -0.8909   -3.4779 C   0  0  0  0  0  0  0  0  0  0  0  0
    7.6738   -0.7450   -3.7797 C   0  0  0  0  0  0  0  0  0  0  0  0
    7.2874    0.2356   -4.6922 C   0  0  0  0  0  0  0  0  0  0  0  0
    5.8013    0.2340   -4.9074 C   0  0  2  0  0  0  0  0  0  0  0  0
    5.2872   -0.6768   -3.7730 C   0  0  0  0  0  0  0  0  0  0  0  0
    6.4883   -1.5056   -3.2823 C   0  0  0  0  0  0  0  0  0  0  0  0
    5.4201   -0.2124   -6.3410 C   0  0  0  0  0  0  0  0  0  0  0  0
    5.8255   -1.6565   -6.6280 C   0  0  0  0  0  0  0  0  0  0  0  0
    3.9294    0.0067   -6.5876 C   0  0  0  0  0  0  0  0  0  0  0  0
   10.4402    1.8296   -5.6271 C   0  0  0  0  0  0  0  0  0  0  0  0
   10.4436    2.0746   -7.0113 C   0  0  0  0  0  0  0  0  0  0  0  0
   11.4848    2.8134   -7.5655 C   0  0  0  0  0  0  0  0  0  0  0  0
   12.4864    3.3401   -6.7696 C   0  0  0  0  0  0  0  0  0  0  0  0
   12.4575    3.1391   -5.4002 C   0  0  0  0  0  0  0  0  0  0  0  0
   11.4514    2.3741   -4.8390 C   0  0  0  0  0  0  0  0  0  0  0  0
    9.3428    2.2880   -9.6346 C   0  0  0  0  0  0  0  0  0  0  0  0
    9.2095    3.6764   -9.6804 C   0  0  0  0  0  0  0  0  0  0  0  0
    9.4155    4.3491  -10.8683 C   0  0  0  0  0  0  0  0  0  0  0  0
    9.7485    3.6420  -12.0142 C   0  0  0  0  0  0  0  0  0  0  0  0
    9.8795    2.2640  -11.9697 C   0  0  0  0  0  0  0  0  0  0  0  0
    9.6764    1.5805  -10.7827 C   0  0  0  0  0  0  0  0  0  0  0  0
    9.2756   -0.2527   -8.2758 C   0  0  0  0  0  0  0  0  0  0  0  0
   10.3612   -0.9645   -7.7812 C   0  0  0  0  0  0  0  0  0  0  0  0
   10.4445   -2.3287   -8.0034 C   0  0  0  0  0  0  0  0  0  0  0  0
    9.4556   -2.9824   -8.7197 C   0  0  0  0  0  0  0  0  0  0  0  0
    8.3690   -2.2749   -9.2122 C   0  0  0  0  0  0  0  0  0  0  0  0
    8.2734   -0.9164   -8.9821 C   0  0  0  0  0  0  0  0  0  0  0  0
   10.9654   -0.1127   -3.9042 H   0  0  0  0  0  0  0  0  0  0  0  0
    9.3580   -1.6445   -2.7861 H   0  0  0  0  0  0  0  0  0  0  0  0
    5.4240    1.2593   -4.7868 H   0  0  0  0  0  0  0  0  0  0  0  0
    4.9205   -0.0532   -2.9580 H   0  0  0  0  0  0  0  0  0  0  0  0
    4.4666   -1.3116   -4.0981 H   0  0  0  0  0  0  0  0  0  0  0  0
    6.4897   -2.5117   -3.7098 H   0  0  0  0  0  0  0  0  0  0  0  0
    6.5014   -1.6098   -2.1970 H   0  0  0  0  0  0  0  0  0  0  0  0
    5.9685    0.4546   -7.0513 H   0  0  0  0  0  0  0  0  0  0  0  0
    5.2704   -2.3494   -5.9999 H   0  0  0  0  0  0  0  0  0  0  0  0
    5.6122   -1.9034   -7.6654 H   0  0  0  0  0  0  0  0  0  0  0  0
    6.8910   -1.8044   -6.4575 H   0  0  0  0  0  0  0  0  0  0  0  0
    3.6848    1.0595   -6.4665 H   0  0  0  0  0  0  0  0  0  0  0  0
    3.6703   -0.2892   -7.6016 H   0  0  0  0  0  0  0  0  0  0  0  0
    3.3230   -0.5751   -5.8966 H   0  0  0  0  0  0  0  0  0  0  0  0
   11.5083    2.9801   -8.6329 H   0  0  0  0  0  0  0  0  0  0  0  0
   13.2811    3.9160   -7.2195 H   0  0  0  0  0  0  0  0  0  0  0  0
   13.2189    3.5720   -4.7694 H   0  0  0  0  0  0  0  0  0  0  0  0
   11.4285    2.2170   -3.7705 H   0  0  0  0  0  0  0  0  0  0  0  0
    8.9315    4.2116   -8.7779 H   0  0  0  0  0  0  0  0  0  0  0  0
    9.3078    5.4226  -10.9054 H   0  0  0  0  0  0  0  0  0  0  0  0
    9.9019    4.1667  -12.9456 H   0  0  0  0  0  0  0  0  0  0  0  0
   10.1387    1.7162  -12.8640 H   0  0  0  0  0  0  0  0  0  0  0  0
    9.7783    0.5047  -10.7498 H   0  0  0  0  0  0  0  0  0  0  0  0
   11.1396   -0.4525   -7.2324 H   0  0  0  0  0  0  0  0  0  0  0  0
   11.2887   -2.8830   -7.6201 H   0  0  0  0  0  0  0  0  0  0  0  0
    9.5301   -4.0454   -8.8941 H   0  0  0  0  0  0  0  0  0  0  0  0
    7.5984   -2.7864   -9.7698 H   0  0  0  0  0  0  0  0  0  0  0  0
    7.4272   -0.3451   -9.3460 H   0  0  0  0  0  0  0  0  0  0  0  0
  1  5  1  0  0  0  0
  1  2  1  0  0  0  0
  3  1  1  0  0  0  0
  4 18  1  0  0  0  0
  4  1  1  0  0  0  0
  5  6  1  0  0  0  0
  5 10  1  0  0  0  0
  6 17  1  6  0  0  0
  6  7  1  0  0  0  0
  7 35  1  0  0  0  0
  7  8  2  0  0  0  0
  8 36  1  0  0  0  0
  9  8  1  0  0  0  0
  9 13  1  0  0  0  0
 10  9  2  0  0  0  0
 11 37  1  1  0  0  0
 11 10  1  0  0  0  0
 11 12  1  0  0  0  0
 12 13  1  0  0  0  0
 12 38  1  0  0  0  0
 13 41  1  0  0  0  0
 14 11  1  0  0  0  0
 15 45  1  0  0  0  0
 15 14  1  0  0  0  0
 15 43  1  0  0  0  0
 16 46  1  0  0  0  0
 16 14  1  0  0  0  0
 16 48  1  0  0  0  0
 17 22  1  0  0  0  0
 18 17  2  0  0  0  0
 19 18  1  0  0  0  0
 19 20  2  0  0  0  0
 20 21  1  0  0  0  0
 21 22  2  0  0  0  0
 21 51  1  0  0  0  0
 22 52  1  0  0  0  0
 23  4  1  0  0  0  0
 24 23  1  0  0  0  0
 24 53  1  0  0  0  0
 25 24  2  0  0  0  0
 26 27  2  0  0  0  0
 26 25  1  0  0  0  0
 27 28  1  0  0  0  0
 28 57  1  0  0  0  0
 28 23  2  0  0  0  0
 29  4  1  0  0  0  0
 29 30  1  0  0  0  0
 30 58  1  0  0  0  0
 31 30  2  0  0  0  0
 31 59  1  0  0  0  0
 32 31  1  0  0  0  0
 33 34  1  0  0  0  0
 33 32  2  0  0  0  0
 34 29  2  0  0  0  0
 39 12  1  0  0  0  0
 40 13  1  0  0  0  0
 42 14  1  0  0  0  0
 44 15  1  0  0  0  0
 47 16  1  0  0  0  0
 49 19  1  0  0  0  0
 50 20  1  0  0  0  0
 54 25  1  0  0  0  0
 55 26  1  0  0  0  0
 56 27  1  0  0  0  0
 60 32  1  0  0  0  0
 61 33  1  0  0  0  0
 62 34  1  0  0  0  0
M  END
$$$$
