CSD_code = HAHTIW | q = 0 | S = 0 | Stoichiometry = C23H28Cl2N4Pd | MND = 4
 OpenBabel04212202043D

 58 61  0  0  0  0  0  0  0  0999 V2000
    0.2383    7.1985    6.8382 Pd  0  0  0  0  0  0  0  0  0  0  0  0
   -0.8126    6.9734    4.8016 Cl  0  0  0  0  0  0  0  0  0  0  0  0
    1.1986    7.4296    8.9077 Cl  0  0  0  0  0  0  0  0  0  0  0  0
   -1.5381    6.7198    7.7390 N   0  0  0  0  0  0  0  0  0  0  0  0
   -3.6908    6.6400    8.1398 N   0  0  0  0  0  0  0  0  0  0  0  0
    2.5291    6.8829    5.0706 N   0  0  0  0  0  0  0  0  0  0  0  0
    2.6481    8.7268    6.2125 N   0  0  0  0  0  0  0  0  0  0  0  0
   -2.7169    7.1748    7.3812 C   0  0  0  0  0  3  0  0  0  0  0  0
   -2.8968    7.8587    6.5715 H   0  0  0  0  0  0  0  0  0  0  0  0
   -1.7470    5.8588    8.7705 C   0  0  0  0  0  0  0  0  0  0  0  0
   -0.9324    5.3619    9.2640 H   0  0  0  0  0  0  0  0  0  0  0  0
   -3.0845    5.8027    9.0311 C   0  0  0  0  0  0  0  0  0  0  0  0
   -3.6396    5.2466    9.7579 H   0  0  0  0  0  0  0  0  0  0  0  0
   -5.0981    6.9043    8.0468 C   0  0  0  0  0  0  0  0  0  0  0  0
   -5.4462    7.4416    8.9322 H   0  0  0  0  0  0  0  0  0  0  0  0
   -5.6524    5.9679    7.9648 H   0  0  0  0  0  0  0  0  0  0  0  0
   -5.2922    7.5104    7.1637 H   0  0  0  0  0  0  0  0  0  0  0  0
    1.9186    7.6381    5.9809 C   0  0  0  0  0  0  0  0  0  0  0  0
    3.8201    8.8035    5.3418 C   0  0  0  0  0  0  0  0  0  0  0  0
    4.7265    9.0127    5.9091 H   0  0  0  0  0  0  0  0  0  0  0  0
    3.6772    9.6093    4.6110 H   0  0  0  0  0  0  0  0  0  0  0  0
    3.8330    7.4213    4.6878 C   0  0  0  0  0  0  0  0  0  0  0  0
    3.9455    7.4647    3.6048 H   0  0  0  0  0  0  0  0  0  0  0  0
    4.6243    6.7770    5.0909 H   0  0  0  0  0  0  0  0  0  0  0  0
    2.3467    9.7606    7.1398 C   0  0  0  0  0  0  0  0  0  0  0  0
    3.1987    9.9684    8.2289 C   0  0  0  0  0  0  0  0  0  0  0  0
    2.9274   11.0166    9.0961 C   0  0  0  0  0  0  0  0  0  0  0  0
    3.5779   11.1787    9.9430 H   0  0  0  0  0  0  0  0  0  0  0  0
    1.8277   11.8311    8.9053 C   0  0  0  0  0  0  0  0  0  0  0  0
    1.6274   12.6400    9.5921 H   0  0  0  0  0  0  0  0  0  0  0  0
    0.9700   11.5901    7.8500 C   0  0  0  0  0  0  0  0  0  0  0  0
    0.0937   12.2079    7.7157 H   0  0  0  0  0  0  0  0  0  0  0  0
    1.2107   10.5560    6.9545 C   0  0  0  0  0  0  0  0  0  0  0  0
    4.3514    9.0535    8.5125 C   0  0  0  0  0  0  0  0  0  0  0  0
    4.1148    8.0403    8.1965 H   0  0  0  0  0  0  0  0  0  0  0  0
    4.5474    9.0364    9.5813 H   0  0  0  0  0  0  0  0  0  0  0  0
    5.2614    9.3877    8.0110 H   0  0  0  0  0  0  0  0  0  0  0  0
    0.2364   10.2942    5.8453 C   0  0  0  0  0  0  0  0  0  0  0  0
   -0.4456    9.4731    6.1408 H   0  0  0  0  0  0  0  0  0  0  0  0
    0.7370    9.9964    4.9239 H   0  0  0  0  0  0  0  0  0  0  0  0
   -0.3656   11.1787    5.6492 H   0  0  0  0  0  0  0  0  0  0  0  0
    2.0437    5.6599    4.5332 C   0  0  0  0  0  0  0  0  0  0  0  0
    1.8991    4.5405    5.3600 C   0  0  0  0  0  0  0  0  0  0  0  0
    1.4658    3.3483    4.7936 C   0  0  0  0  0  0  0  0  0  0  0  0
    1.3491    2.4792    5.4248 H   0  0  0  0  0  0  0  0  0  0  0  0
    1.1775    3.2646    3.4455 C   0  0  0  0  0  0  0  0  0  0  0  0
    0.8424    2.3300    3.0206 H   0  0  0  0  0  0  0  0  0  0  0  0
    1.2922    4.3866    2.6473 C   0  0  0  0  0  0  0  0  0  0  0  0
    1.0301    4.3333    1.6009 H   0  0  0  0  0  0  0  0  0  0  0  0
    1.7146    5.5977    3.1756 C   0  0  0  0  0  0  0  0  0  0  0  0
    1.7494    6.8145    2.3008 C   0  0  0  0  0  0  0  0  0  0  0  0
    2.7284    6.9456    1.8362 H   0  0  0  0  0  0  0  0  0  0  0  0
    1.5015    7.7020    2.8781 H   0  0  0  0  0  0  0  0  0  0  0  0
    1.0147    6.7124    1.5065 H   0  0  0  0  0  0  0  0  0  0  0  0
    2.1632    4.6065    6.8348 C   0  0  0  0  0  0  0  0  0  0  0  0
    3.0121    5.2492    7.0696 H   0  0  0  0  0  0  0  0  0  0  0  0
    2.3529    3.6121    7.2328 H   0  0  0  0  0  0  0  0  0  0  0  0
    1.2735    5.0171    7.3513 H   0  0  0  0  0  0  0  0  0  0  0  0
  1  4  1  0  0  0  0
  1  3  1  0  0  0  0
  2  1  1  0  0  0  0
  4 10  1  0  0  0  0
  5 12  1  0  0  0  0
  6 18  1  0  0  0  0
  7 25  1  0  0  0  0
  8  4  1  0  0  0  0
  8  5  1  0  0  0  0
  9  8  1  0  0  0  0
 10 12  2  0  0  0  0
 10 11  1  0  0  0  0
 12 13  1  0  0  0  0
 14  5  1  0  0  0  0
 14 15  1  0  0  0  0
 16 14  1  0  0  0  0
 17 14  1  0  0  0  0
 18  7  1  0  0  0  0
 18  1  2  0  0  0  0
 19 20  1  0  0  0  0
 19  7  1  0  0  0  0
 21 19  1  0  0  0  0
 22  6  1  0  0  0  0
 22 24  1  0  0  0  0
 22 19  1  0  0  0  0
 23 22  1  0  0  0  0
 25 26  1  0  0  0  0
 26 34  1  0  0  0  0
 26 27  2  0  0  0  0
 27 28  1  0  0  0  0
 29 27  1  0  0  0  0
 29 30  1  0  0  0  0
 31 29  2  0  0  0  0
 32 31  1  0  0  0  0
 33 25  2  0  0  0  0
 33 31  1  0  0  0  0
 34 36  1  0  0  0  0
 35 34  1  0  0  0  0
 37 34  1  0  0  0  0
 38 39  1  0  0  0  0
 38 33  1  0  0  0  0
 40 38  1  0  0  0  0
 41 38  1  0  0  0  0
 42  6  1  0  0  0  0
 42 43  1  0  0  0  0
 43 55  1  0  0  0  0
 44 43  2  0  0  0  0
 44 45  1  0  0  0  0
 46 44  1  0  0  0  0
 47 46  1  0  0  0  0
 48 50  1  0  0  0  0
 48 46  2  0  0  0  0
 49 48  1  0  0  0  0
 50 42  2  0  0  0  0
 51 53  1  0  0  0  0
 51 50  1  0  0  0  0
 52 51  1  0  0  0  0
 54 51  1  0  0  0  0
 55 56  1  0  0  0  0
 55 57  1  0  0  0  0
 55 58  1  0  0  0  0
M  END
$$$$
