CSD_code = HAHWET | q = 0 | S = 0 | Stoichiometry = C13H9ClNO3ReS | MND = 6
 OpenBabel04212202043D

 29 31  0  0  1  0  0  0  0  0999 V2000
    0.2081   19.6006    2.2949 Re  0  0  0  0  0  0  0  0  0  0  0  0
   -1.2057   19.7710    4.4167 S   0  0  1  0  0  3  0  0  0  0  0  0
    1.8854   18.8365    3.7757 Cl  0  0  0  0  0  0  0  0  0  0  0  0
   -0.4494   17.5349    2.5534 N   0  0  0  0  0  0  0  0  0  0  0  0
   -2.2387   20.3554    0.5692 O   0  0  0  0  0  1  0  0  0  0  0  0
    1.3235   22.4560    2.6399 O   0  0  0  0  0  1  0  0  0  0  0  0
    2.0397   19.0340   -0.1286 O   0  0  0  0  0  1  0  0  0  0  0  0
   -1.3193   20.0867    1.1991 C   0  0  0  0  0  2  0  0  0  0  0  0
    0.8957   21.4156    2.4371 C   0  0  0  0  0  2  0  0  0  0  0  0
    1.3432   19.2669    0.7532 C   0  0  0  0  0  2  0  0  0  0  0  0
   -0.7485   17.1126    3.8101 C   0  0  2  0  0  3  0  0  0  0  0  0
   -1.0413   18.0456    4.8355 C   0  0  0  0  0  0  0  0  0  0  0  0
   -1.2830   17.6283    6.1190 C   0  0  0  0  0  0  0  0  0  0  0  0
   -1.5160   18.3501    6.8865 H   0  0  0  0  0  0  0  0  0  0  0  0
   -1.2357   16.2691    6.4484 C   0  0  0  0  0  0  0  0  0  0  0  0
   -1.4100   15.9691    7.4702 H   0  0  0  0  0  0  0  0  0  0  0  0
   -0.9959   15.3361    5.4792 C   0  0  0  0  0  0  0  0  0  0  0  0
   -0.9826   14.2824    5.7136 H   0  0  0  0  0  0  0  0  0  0  0  0
   -0.7592   15.7305    4.1472 C   0  0  0  0  0  0  0  0  0  0  0  0
   -0.5166   14.7965    3.1206 C   0  0  0  0  0  0  0  0  0  0  0  0
   -0.5128   13.7425    3.3558 H   0  0  0  0  0  0  0  0  0  0  0  0
   -0.2890   15.2498    1.8504 C   0  0  0  0  0  0  0  0  0  0  0  0
   -0.1084   14.5728    1.0311 H   0  0  0  0  0  0  0  0  0  0  0  0
   -0.2503   16.6294    1.6189 C   0  0  0  0  0  0  0  0  0  0  0  0
   -0.0343   16.9985    0.6242 H   0  0  0  0  0  0  0  0  0  0  0  0
   -0.1465   20.5608    5.6610 C   0  0  0  0  0  0  0  0  0  0  0  0
    0.8446   20.1134    5.6038 H   0  0  0  0  0  0  0  0  0  0  0  0
   -0.1045   21.6129    5.3926 H   0  0  0  0  0  0  0  0  0  0  0  0
   -0.5863   20.4445    6.6465 H   0  0  0  0  0  0  0  0  0  0  0  0
  1  9  1  0  0  0  0
  1  4  1  0  0  0  0
  1  3  1  0  0  0  0
  1  2  1  0  0  0  0
  2 12  1  0  0  0  0
  2 26  1  1  0  0  0
  4 11  1  0  0  0  0
  5  8  1  0  0  0  0
  7 10  1  0  0  0  0
  8  1  1  0  0  0  0
  9  6  1  0  0  0  0
 10  1  1  0  0  0  0
 11 19  1  1  0  0  0
 11 12  1  0  0  0  0
 12 13  2  0  0  0  0
 13 15  1  0  0  0  0
 13 14  1  0  0  0  0
 15 16  1  0  0  0  0
 17 18  1  0  0  0  0
 17 15  2  0  0  0  0
 19 17  1  0  0  0  0
 20 21  1  0  0  0  0
 20 19  2  0  0  0  0
 22 20  1  0  0  0  0
 23 22  1  0  0  0  0
 24 22  2  0  0  0  0
 24  4  1  0  0  0  0
 25 24  1  0  0  0  0
 26 29  1  0  0  0  0
 27 26  1  0  0  0  0
 28 26  1  0  0  0  0
M  END
$$$$
