CSD_code = HAJBOM | q = 1 | S = 0 | Stoichiometry = C19H25IN5Pd(1+) | MND = 4
 OpenBabel04212202043D

 51 55  0  0  1  0  0  0  0  0999 V2000
   13.4869   12.8750    6.0851 I   0  0  0  0  0  0  0  0  0  0  0  0
   11.1400   11.8732    6.2109 Pd  0  0  1  0  0  0  0  0  0  0  0  0
    9.1825   11.7660    6.1088 N   0  0  0  0  0  0  0  0  0  0  0  0
    8.4834   12.2438    7.1423 C   0  0  2  0  0  3  0  0  0  0  0  0
    7.1224   12.4890    7.0224 C   0  0  0  0  0  0  0  0  0  0  0  0
    6.5477   12.8634    7.8523 H   0  0  0  0  0  0  0  0  0  0  0  0
    6.5290   12.2564    5.7874 C   0  0  0  0  0  0  0  0  0  0  0  0
    5.4736   12.4379    5.6634 H   0  0  0  0  0  0  0  0  0  0  0  0
    7.2808   11.8253    4.7012 C   0  0  0  0  0  0  0  0  0  0  0  0
    6.8286   11.6862    3.7339 H   0  0  0  0  0  0  0  0  0  0  0  0
    8.6365   11.6026    4.9006 C   0  0  0  0  0  0  0  0  0  0  0  0
    9.5799   11.2140    3.9541 N   0  0  0  0  0  0  0  0  0  0  0  0
    9.4278   10.6965    2.6889 C   0  0  0  0  0  0  0  0  0  0  0  0
    8.4778   10.5873    2.2094 H   0  0  0  0  0  0  0  0  0  0  0  0
   10.6714   10.3768    2.2595 C   0  0  0  0  0  0  0  0  0  0  0  0
   10.9861    9.9432    1.3324 H   0  0  0  0  0  0  0  0  0  0  0  0
   11.5582   10.7066    3.2514 N   0  0  0  0  0  0  0  0  0  0  0  0
   10.9137   11.2337    4.2918 C   0  0  2  0  0  3  0  0  0  0  0  0
   12.9739   10.4084    3.2639 C   0  0  0  0  0  0  0  0  0  0  0  0
   13.5326   11.3368    3.4109 H   0  0  0  0  0  0  0  0  0  0  0  0
   13.2476    9.9760    2.3005 H   0  0  0  0  0  0  0  0  0  0  0  0
   13.2865    9.4313    4.4030 C   0  0  0  0  0  0  0  0  0  0  0  0
   12.8491    9.8268    5.3380 H   0  0  0  0  0  0  0  0  0  0  0  0
   14.3675    9.3873    4.5342 H   0  0  0  0  0  0  0  0  0  0  0  0
   12.7381    8.0294    4.1499 C   0  0  0  0  0  0  0  0  0  0  0  0
   11.6666    8.0809    3.9353 H   0  0  0  0  0  0  0  0  0  0  0  0
   13.2327    7.5972    3.2781 H   0  0  0  0  0  0  0  0  0  0  0  0
   12.9616    7.1278    5.3573 C   0  0  0  0  0  0  0  0  0  0  0  0
   12.5805    6.1290    5.1640 H   0  0  0  0  0  0  0  0  0  0  0  0
   12.4507    7.5274    6.2318 H   0  0  0  0  0  0  0  0  0  0  0  0
   14.0216    7.0514    5.5844 H   0  0  0  0  0  0  0  0  0  0  0  0
    9.2856   12.4426    8.2620 N   0  0  0  0  0  0  0  0  0  0  0  0
    8.9591   12.6502    9.5819 C   0  0  0  0  0  0  0  0  0  0  0  0
    7.9542   12.7804    9.9246 H   0  0  0  0  0  0  0  0  0  0  0  0
   10.1266   12.6325   10.2675 C   0  0  0  0  0  0  0  0  0  0  0  0
   10.3073   12.7510   11.3162 H   0  0  0  0  0  0  0  0  0  0  0  0
   11.1408   12.4256    9.3686 N   0  0  0  0  0  0  0  0  0  0  0  0
   10.6503   12.3234    8.1337 C   0  0  1  0  0  3  0  0  0  0  0  0
   12.5327   12.1924    9.6847 C   0  0  0  0  0  0  0  0  0  0  0  0
   12.6820   12.3419   10.7546 H   0  0  0  0  0  0  0  0  0  0  0  0
   13.1497   12.9104    9.1366 H   0  0  0  0  0  0  0  0  0  0  0  0
   12.9238   10.7675    9.2722 C   0  0  0  0  0  0  0  0  0  0  0  0
   12.4090   10.0443    9.9095 H   0  0  0  0  0  0  0  0  0  0  0  0
   12.5892   10.5984    8.2302 H   0  0  0  0  0  0  0  0  0  0  0  0
   14.4312   10.5477    9.3491 C   0  0  0  0  0  0  0  0  0  0  0  0
   14.7633   10.6639   10.3817 H   0  0  0  0  0  0  0  0  0  0  0  0
   14.9347   11.3027    8.7437 H   0  0  0  0  0  0  0  0  0  0  0  0
   14.8104    9.1629    8.8410 C   0  0  0  0  0  0  0  0  0  0  0  0
   15.8843    9.0190    8.9105 H   0  0  0  0  0  0  0  0  0  0  0  0
   14.5169    9.0494    7.7997 H   0  0  0  0  0  0  0  0  0  0  0  0
   14.3221    8.3868    9.4259 H   0  0  0  0  0  0  0  0  0  0  0  0
  2  1  1  6  0  0  0
  2 38  1  0  0  0  0
  3  2  1  0  0  0  0
  3  4  1  0  0  0  0
  4  5  1  6  0  0  0
  4 32  1  0  0  0  0
  5  6  1  0  0  0  0
  7  5  2  0  0  0  0
  8  7  1  0  0  0  0
  9 11  2  0  0  0  0
  9  7  1  0  0  0  0
 10  9  1  0  0  0  0
 11  3  1  0  0  0  0
 12 18  1  0  0  0  0
 12 11  1  0  0  0  0
 13 12  1  0  0  0  0
 14 13  1  0  0  0  0
 15 13  2  0  0  0  0
 15 17  1  0  0  0  0
 16 15  1  0  0  0  0
 17 19  1  0  0  0  0
 18 17  1  1  0  0  0
 18  2  1  0  0  0  0
 19 20  1  0  0  0  0
 19 22  1  0  0  0  0
 21 19  1  0  0  0  0
 22 24  1  0  0  0  0
 22 23  1  0  0  0  0
 25 22  1  0  0  0  0
 25 28  1  0  0  0  0
 26 25  1  0  0  0  0
 27 25  1  0  0  0  0
 28 31  1  0  0  0  0
 28 30  1  0  0  0  0
 29 28  1  0  0  0  0
 32 33  1  0  0  0  0
 33 34  1  0  0  0  0
 33 35  2  0  0  0  0
 35 36  1  0  0  0  0
 37 39  1  0  0  0  0
 37 35  1  0  0  0  0
 38 32  1  1  0  0  0
 38 37  1  0  0  0  0
 39 40  1  0  0  0  0
 41 39  1  0  0  0  0
 42 45  1  0  0  0  0
 42 39  1  0  0  0  0
 42 43  1  0  0  0  0
 44 42  1  0  0  0  0
 45 46  1  0  0  0  0
 47 45  1  0  0  0  0
 48 49  1  0  0  0  0
 48 45  1  0  0  0  0
 48 51  1  0  0  0  0
 50 48  1  0  0  0  0
M  END
$$$$
