CSD_code = HAJHIK | q = 0 | S = 0 | Stoichiometry = C24H24Cl2FeN4 | MND = 6
 OpenBabel04212202043D

 55 60  0  0  1  0  0  0  0  0999 V2000
    3.9807    4.5498   12.1269 Fe  0  0  0  0  0  0  0  0  0  0  0  0
    2.4935    3.0410   11.5859 Cl  0  0  0  0  0  0  0  0  0  0  0  0
    4.4462    4.5315   10.2809 N   0  0  0  0  0  0  0  0  0  0  0  0
    5.4112    3.8350    9.6853 C   0  0  0  0  0  3  0  0  0  0  0  0
    6.1162    3.3584   10.3506 H   0  0  0  0  0  0  0  0  0  0  0  0
    5.5017    3.6966    8.3173 C   0  0  0  0  0  0  0  0  0  0  0  0
    6.2997    3.1100    7.8902 H   0  0  0  0  0  0  0  0  0  0  0  0
    4.5466    4.2989    7.4954 C   0  0  0  0  0  0  0  0  0  0  0  0
    4.5974    4.1347    6.0110 C   0  0  0  0  0  0  0  0  0  0  0  0
    5.5993    4.3404    5.6381 H   0  0  0  0  0  0  0  0  0  0  0  0
    3.8912    4.7979    5.5182 H   0  0  0  0  0  0  0  0  0  0  0  0
    4.3495    3.1073    5.7462 H   0  0  0  0  0  0  0  0  0  0  0  0
    3.5516    5.0340    8.1161 C   0  0  0  0  0  0  0  0  0  0  0  0
    2.7859    5.5110    7.5250 H   0  0  0  0  0  0  0  0  0  0  0  0
    3.5216    5.1369    9.5059 C   0  0  0  0  0  0  0  0  0  0  0  0
    2.5598    5.9066   10.2657 C   0  0  2  0  0  3  0  0  0  0  0  0
    1.5608    6.7056    9.7137 C   0  0  0  0  0  0  0  0  0  0  0  0
    1.4304    6.7370    8.6437 H   0  0  0  0  0  0  0  0  0  0  0  0
    0.7283    7.4483   10.5312 C   0  0  0  0  0  0  0  0  0  0  0  0
   -0.3813    8.2835    9.9801 C   0  0  0  0  0  0  0  0  0  0  0  0
   -0.4628    9.2231   10.5226 H   0  0  0  0  0  0  0  0  0  0  0  0
   -1.3279    7.7532   10.0868 H   0  0  0  0  0  0  0  0  0  0  0  0
   -0.2258    8.4927    8.9249 H   0  0  0  0  0  0  0  0  0  0  0  0
    0.9599    7.3716   11.9084 C   0  0  0  0  0  0  0  0  0  0  0  0
    0.3509    7.9360   12.5973 H   0  0  0  0  0  0  0  0  0  0  0  0
    1.9607    6.5589   12.3857 C   0  0  0  0  0  0  0  0  0  0  0  0
    2.1446    6.4779   13.4464 H   0  0  0  0  0  0  0  0  0  0  0  0
    2.7473    5.8224   11.6015 N   0  0  0  0  0  0  0  0  0  0  0  0
    5.4688    3.0412   12.6657 Cl  0  0  0  0  0  0  0  0  0  0  0  0
    3.5149    4.5300   13.9727 N   0  0  0  0  0  0  0  0  0  0  0  0
    2.5504    3.8322   14.5675 C   0  0  0  0  0  3  0  0  0  0  0  0
    1.8469    3.3540   13.9016 H   0  0  0  0  0  0  0  0  0  0  0  0
    2.4583    3.6944   15.9354 C   0  0  0  0  0  0  0  0  0  0  0  0
    1.6608    3.1068   16.3618 H   0  0  0  0  0  0  0  0  0  0  0  0
    3.4112    4.2992   16.7582 C   0  0  0  0  0  0  0  0  0  0  0  0
    3.3580    4.1367   18.2427 C   0  0  0  0  0  0  0  0  0  0  0  0
    2.3553    4.3417   18.6136 H   0  0  0  0  0  0  0  0  0  0  0  0
    4.0626    4.8013   18.7359 H   0  0  0  0  0  0  0  0  0  0  0  0
    3.6066    3.1099   18.5092 H   0  0  0  0  0  0  0  0  0  0  0  0
    4.4060    5.0352   16.1383 C   0  0  0  0  0  0  0  0  0  0  0  0
    5.1700    5.5140   16.7301 H   0  0  0  0  0  0  0  0  0  0  0  0
    4.4378    5.1369   14.7485 C   0  0  0  0  0  0  0  0  0  0  0  0
    5.3999    5.9069   13.9893 C   0  0  2  0  0  3  0  0  0  0  0  0
    6.3984    6.7061   14.5421 C   0  0  0  0  0  0  0  0  0  0  0  0
    6.5277    6.7378   15.6122 H   0  0  0  0  0  0  0  0  0  0  0  0
    7.2318    7.4484   13.7252 C   0  0  0  0  0  0  0  0  0  0  0  0
    8.3410    8.2837   14.2770 C   0  0  0  0  0  0  0  0  0  0  0  0
    8.4207    9.2246   13.7366 H   0  0  0  0  0  0  0  0  0  0  0  0
    9.2882    7.7549   14.1681 H   0  0  0  0  0  0  0  0  0  0  0  0
    8.1863    8.4904   15.3329 H   0  0  0  0  0  0  0  0  0  0  0  0
    7.0017    7.3711   12.3477 C   0  0  0  0  0  0  0  0  0  0  0  0
    7.6116    7.9351   11.6594 H   0  0  0  0  0  0  0  0  0  0  0  0
    6.0013    6.5584   11.8697 C   0  0  0  0  0  0  0  0  0  0  0  0
    5.8185    6.4770   10.8089 H   0  0  0  0  0  0  0  0  0  0  0  0
    5.2137    5.8223   12.6534 N   0  0  0  0  0  0  0  0  0  0  0  0
  1 55  1  0  0  0  0
  1 29  1  0  0  0  0
  1 30  1  0  0  0  0
  2  1  1  0  0  0  0
  3  1  1  0  0  0  0
  4  3  1  0  0  0  0
  4  5  1  0  0  0  0
  6  4  1  0  0  0  0
  7  6  1  0  0  0  0
  8 13  1  0  0  0  0
  8  6  2  0  0  0  0
  9  8  1  0  0  0  0
 10  9  1  0  0  0  0
 11  9  1  0  0  0  0
 12  9  1  0  0  0  0
 13 15  2  0  0  0  0
 14 13  1  0  0  0  0
 15  3  1  0  0  0  0
 16 15  1  6  0  0  0
 16 28  1  0  0  0  0
 17 16  1  0  0  0  0
 17 19  2  0  0  0  0
 18 17  1  0  0  0  0
 19 24  1  0  0  0  0
 20 22  1  0  0  0  0
 20 21  1  0  0  0  0
 20 19  1  0  0  0  0
 23 20  1  0  0  0  0
 24 26  2  0  0  0  0
 24 25  1  0  0  0  0
 26 27  1  0  0  0  0
 28  1  1  0  0  0  0
 28 26  1  0  0  0  0
 30 31  1  0  0  0  0
 30 42  1  0  0  0  0
 31 33  1  0  0  0  0
 32 31  1  0  0  0  0
 33 34  1  0  0  0  0
 33 35  2  0  0  0  0
 35 36  1  0  0  0  0
 36 39  1  0  0  0  0
 36 37  1  0  0  0  0
 36 38  1  0  0  0  0
 40 41  1  0  0  0  0
 40 35  1  0  0  0  0
 42 40  2  0  0  0  0
 43 44  1  1  0  0  0
 43 42  1  0  0  0  0
 44 45  1  0  0  0  0
 46 47  1  0  0  0  0
 46 44  2  0  0  0  0
 47 50  1  0  0  0  0
 48 47  1  0  0  0  0
 49 47  1  0  0  0  0
 51 46  1  0  0  0  0
 52 51  1  0  0  0  0
 53 51  2  0  0  0  0
 53 55  1  0  0  0  0
 54 53  1  0  0  0  0
 55 43  1  0  0  0  0
M  END
$$$$
