CSD_code = HAJWAS | q = 0 | S = 0 | Stoichiometry = C4H7AuClNO | MND = 2
 OpenBabel04212202043D

 15 14  0  0  0  0  0  0  0  0999 V2000
    0.8248    3.8296    4.7962 C   0  0  0  0  0  0  0  0  0  0  0  0
    2.5626    3.5347    2.9537 C   0  0  0  0  0  0  0  0  0  0  0  0
    2.5506    2.4937    2.6173 H   0  0  0  0  0  0  0  0  0  0  0  0
    3.5531    3.7905    3.3406 H   0  0  0  0  0  0  0  0  0  0  0  0
    2.1986    4.4437    1.7756 C   0  0  0  0  0  0  0  0  0  0  0  0
    2.0193    5.4706    2.1314 H   0  0  0  0  0  0  0  0  0  0  0  0
    3.0404    4.4642    1.0654 H   0  0  0  0  0  0  0  0  0  0  0  0
    0.5711    4.7085    0.1036 C   0  0  0  0  0  0  0  0  0  0  0  0
   -0.3097    4.2014   -0.2824 H   0  0  0  0  0  0  0  0  0  0  0  0
    1.3219    4.7977   -0.6904 H   0  0  0  0  0  0  0  0  0  0  0  0
    0.2958    5.7123    0.4468 H   0  0  0  0  0  0  0  0  0  0  0  0
    1.6354    3.6720    3.9835 N   0  0  0  0  0  2  0  0  0  0  0  0
    1.0475    3.9202    1.1667 O   0  0  0  0  0  0  0  0  0  0  0  0
   -1.9099    4.4872    7.7433 Cl  0  0  0  0  0  0  0  0  0  0  0  0
   -0.4354    4.1191    6.1460 Au  0  0  0  0  0  0  0  0  0  0  0  0
  1 15  3  0  0  0  0
  2  4  1  0  0  0  0
  2 12  1  0  0  0  0
  3  2  1  0  0  0  0
  5  6  1  0  0  0  0
  5  2  1  0  0  0  0
  7  5  1  0  0  0  0
  8 11  1  0  0  0  0
  8 13  1  0  0  0  0
  9  8  1  0  0  0  0
 10  8  1  0  0  0  0
 12  1  1  0  0  0  0
 13  5  1  0  0  0  0
 15 14  1  0  0  0  0
M  END
$$$$
