CSD_code = HAKBIF | q = 0 | S = 0 | Stoichiometry = C20H19ClN4O3Zn | MND = 5
 OpenBabel04212202043D

 48 53  0  0  1  0  0  0  0  0999 V2000
    3.3172    1.2691   -0.0942 Zn  0  0  0  0  0  0  0  0  0  0  0  0
    3.4220   -0.6530    0.9408 Cl  0  0  0  0  0  0  0  0  0  0  0  0
    1.8453    2.3300    0.4623 O   0  0  0  0  0  0  0  0  0  0  0  0
   -2.0034    4.9240   -3.6178 O   0  0  0  0  0  0  0  0  0  0  0  0
   -0.1358    5.8033   -4.2323 O   0  0  0  0  0  0  0  0  0  0  0  0
    4.1523    2.9716   -1.4741 N   0  0  2  0  0  4  0  0  0  0  0  0
    2.2850    0.5300   -1.8176 N   0  0  0  0  0  0  0  0  0  0  0  0
    4.9043    2.1436    1.0328 N   0  0  0  0  0  0  0  0  0  0  0  0
   -0.8019    5.0975   -3.4870 N   0  0  0  0  0  0  0  0  0  0  0  0
    4.0641    2.7928   -2.9237 C   0  0  0  0  0  0  0  0  0  0  0  0
    4.0052    1.3099   -3.3130 C   0  0  0  0  0  0  0  0  0  0  0  0
    2.6201    0.7919   -3.0777 C   0  0  2  0  0  3  0  0  0  0  0  0
    1.7104    0.6409   -4.1178 C   0  0  0  0  0  0  0  0  0  0  0  0
    0.4322    0.1906   -3.8370 C   0  0  0  0  0  0  0  0  0  0  0  0
    0.1075   -0.1134   -2.5244 C   0  0  0  0  0  0  0  0  0  0  0  0
    1.0676    0.0739   -1.5469 C   0  0  0  0  0  0  0  0  0  0  0  0
    5.5444    3.1254   -1.0655 C   0  0  0  0  0  0  0  0  0  0  0  0
    5.7093    3.0042    0.4233 C   0  0  2  0  0  3  0  0  0  0  0  0
    6.6728    3.7217    1.1206 C   0  0  0  0  0  0  0  0  0  0  0  0
    6.7894    3.5274    2.4872 C   0  0  0  0  0  0  0  0  0  0  0  0
    5.9417    2.6246    3.1104 C   0  0  0  0  0  0  0  0  0  0  0  0
    5.0085    1.9520    2.3396 C   0  0  0  0  0  0  0  0  0  0  0  0
    3.3786    4.1488   -1.0421 C   0  0  0  0  0  0  0  0  0  0  0  0
    1.9071    3.9535   -1.2605 C   0  0  0  0  0  0  0  0  0  0  0  0
    1.2308    4.6306   -2.2438 C   0  0  0  0  0  0  0  0  0  0  0  0
   -0.1388    4.4332   -2.4318 C   0  0  0  0  0  0  0  0  0  0  0  0
   -0.8419    3.5719   -1.5835 C   0  0  0  0  0  0  0  0  0  0  0  0
   -0.1790    2.8952   -0.5977 C   0  0  0  0  0  0  0  0  0  0  0  0
    1.2220    3.0260   -0.4209 C   0  0  0  0  0  0  0  0  0  0  0  0
    4.9157    3.2750   -3.4218 H   0  0  0  0  0  0  0  0  0  0  0  0
    3.1512    3.2746   -3.2808 H   0  0  0  0  0  0  0  0  0  0  0  0
    4.2700    1.2005   -4.3649 H   0  0  0  0  0  0  0  0  0  0  0  0
    4.7130    0.7417   -2.7061 H   0  0  0  0  0  0  0  0  0  0  0  0
    2.0044    0.8755   -5.1291 H   0  0  0  0  0  0  0  0  0  0  0  0
   -0.2939    0.0759   -4.6278 H   0  0  0  0  0  0  0  0  0  0  0  0
   -0.8707   -0.4819   -2.2625 H   0  0  0  0  0  0  0  0  0  0  0  0
    0.8701   -0.1496   -0.5082 H   0  0  0  0  0  0  0  0  0  0  0  0
    5.9535    4.0897   -1.4076 H   0  0  0  0  0  0  0  0  0  0  0  0
    6.1300    2.3233   -1.5285 H   0  0  0  0  0  0  0  0  0  0  0  0
    7.3154    4.4159    0.6009 H   0  0  0  0  0  0  0  0  0  0  0  0
    7.5287    4.0729    3.0542 H   0  0  0  0  0  0  0  0  0  0  0  0
    6.0008    2.4449    4.1714 H   0  0  0  0  0  0  0  0  0  0  0  0
    4.3263    1.2284    2.7618 H   0  0  0  0  0  0  0  0  0  0  0  0
    3.7291    5.0477   -1.5710 H   0  0  0  0  0  0  0  0  0  0  0  0
    3.5553    4.2811    0.0284 H   0  0  0  0  0  0  0  0  0  0  0  0
    1.7388    5.3348   -2.8888 H   0  0  0  0  0  0  0  0  0  0  0  0
   -1.9041    3.4516   -1.7333 H   0  0  0  0  0  0  0  0  0  0  0  0
   -0.7048    2.2229    0.0624 H   0  0  0  0  0  0  0  0  0  0  0  0
  1  3  1  0  0  0  0
  1  2  1  0  0  0  0
  1  8  1  0  0  0  0
  4  9  2  0  0  0  0
  5  9  2  0  0  0  0
  6 10  1  6  0  0  0
  6 17  1  0  0  0  0
  6 23  1  0  0  0  0
  6  1  1  0  0  0  0
  7 16  1  0  0  0  0
  7  1  1  0  0  0  0
  8 22  1  0  0  0  0
  9 26  1  0  0  0  0
 11 12  1  0  0  0  0
 11 10  1  0  0  0  0
 11 33  1  0  0  0  0
 12 13  1  1  0  0  0
 12  7  1  0  0  0  0
 13 14  2  0  0  0  0
 14 15  1  0  0  0  0
 15 36  1  0  0  0  0
 15 16  2  0  0  0  0
 16 37  1  0  0  0  0
 17 18  1  0  0  0  0
 18  8  1  0  0  0  0
 18 19  1  6  0  0  0
 19 20  2  0  0  0  0
 20 41  1  0  0  0  0
 20 21  1  0  0  0  0
 21 42  1  0  0  0  0
 22 43  1  0  0  0  0
 22 21  2  0  0  0  0
 23 45  1  0  0  0  0
 24 23  1  0  0  0  0
 24 29  1  0  0  0  0
 25 24  2  0  0  0  0
 26 25  1  0  0  0  0
 26 27  2  0  0  0  0
 27 28  1  0  0  0  0
 28 29  2  0  0  0  0
 28 48  1  0  0  0  0
 29  3  1  0  0  0  0
 30 10  1  0  0  0  0
 31 10  1  0  0  0  0
 32 11  1  0  0  0  0
 34 13  1  0  0  0  0
 35 14  1  0  0  0  0
 38 17  1  0  0  0  0
 39 17  1  0  0  0  0
 40 19  1  0  0  0  0
 44 23  1  0  0  0  0
 46 25  1  0  0  0  0
 47 27  1  0  0  0  0
M  END
$$$$
