CSD_code = HAKMAK | q = 0 | S = 0 | Stoichiometry = C27H26Br2P2Pd | MND = 4
 OpenBabel04212202043D

 58 62  0  0  0  0  0  0  0  0999 V2000
    5.2757    1.9924   -3.7316 Pd  0  0  0  0  0  0  0  0  0  0  0  0
    5.8931    1.7323   -6.0423 Br  0  0  0  0  0  0  0  0  0  0  0  0
    7.3368    1.2006   -2.7905 Br  0  0  0  0  0  0  0  0  0  0  0  0
    4.5328    2.4838   -1.6720 P   0  0  1  0  0  4  0  0  0  0  0  0
    3.2325    2.5946   -4.4310 P   0  0  0  0  0  4  0  0  0  0  0  0
    4.9030    1.6850   -0.0963 C   0  0  0  0  0  0  0  0  0  0  0  0
    6.1449    1.9408    0.4850 C   0  0  0  0  0  0  0  0  0  0  0  0
    6.8230    2.6388    0.0133 H   0  0  0  0  0  0  0  0  0  0  0  0
    6.5099    1.2918    1.6449 C   0  0  0  0  0  0  0  0  0  0  0  0
    7.4747    1.4914    2.0873 H   0  0  0  0  0  0  0  0  0  0  0  0
    5.6575    0.3694    2.2462 C   0  0  0  0  0  0  0  0  0  0  0  0
    4.4288    0.1105    1.6516 C   0  0  0  0  0  0  0  0  0  0  0  0
    3.7601   -0.6108    2.0998 H   0  0  0  0  0  0  0  0  0  0  0  0
    4.0533    0.7505    0.4852 C   0  0  0  0  0  0  0  0  0  0  0  0
    3.1008    0.5169    0.0301 H   0  0  0  0  0  0  0  0  0  0  0  0
    5.0470    4.2113   -1.4232 C   0  0  0  0  0  0  0  0  0  0  0  0
    4.6990    4.9083   -0.2694 C   0  0  0  0  0  0  0  0  0  0  0  0
    4.1468    4.4053    0.5135 H   0  0  0  0  0  0  0  0  0  0  0  0
    5.0732    6.2309   -0.1256 C   0  0  0  0  0  0  0  0  0  0  0  0
    4.8041    6.7714    0.7700 H   0  0  0  0  0  0  0  0  0  0  0  0
    5.7964    6.8623   -1.1264 C   0  0  0  0  0  0  0  0  0  0  0  0
    6.0881    7.8952   -1.0084 H   0  0  0  0  0  0  0  0  0  0  0  0
    6.1539    6.1705   -2.2720 C   0  0  0  0  0  0  0  0  0  0  0  0
    6.7264    6.6598   -3.0457 H   0  0  0  0  0  0  0  0  0  0  0  0
    5.7818    4.8462   -2.4224 C   0  0  0  0  0  0  0  0  0  0  0  0
    6.0853    4.2955   -3.3267 H   0  0  0  0  0  0  0  0  0  0  0  0
    2.6844    2.6459   -1.7411 C   0  0  0  0  0  0  0  0  0  0  0  0
    2.2587    1.6361   -1.7643 H   0  0  0  0  0  0  0  0  0  0  0  0
    2.3142    3.1631   -0.8506 H   0  0  0  0  0  0  0  0  0  0  0  0
    2.3181    3.3871   -3.0210 C   0  0  0  0  0  0  0  0  0  0  0  0
    2.6406    4.4313   -2.9469 H   0  0  0  0  0  0  0  0  0  0  0  0
    1.2404    3.3661   -3.2100 H   0  0  0  0  0  0  0  0  0  0  0  0
    2.7963    3.5570   -5.8979 C   0  0  0  0  0  0  0  0  0  0  0  0
    2.6925    2.8983   -7.1214 C   0  0  0  0  0  0  0  0  0  0  0  0
    2.8170    1.8252   -7.1649 H   0  0  0  0  0  0  0  0  0  0  0  0
    2.4498    3.6207   -8.2738 C   0  0  0  0  0  0  0  0  0  0  0  0
    2.3714    3.1075   -9.2201 H   0  0  0  0  0  0  0  0  0  0  0  0
    2.3218    4.9993   -8.2163 C   0  0  0  0  0  0  0  0  0  0  0  0
    2.1362    5.5626   -9.1185 H   0  0  0  0  0  0  0  0  0  0  0  0
    2.4496    5.6590   -7.0048 C   0  0  0  0  0  0  0  0  0  0  0  0
    2.3674    6.7352   -6.9624 H   0  0  0  0  0  0  0  0  0  0  0  0
    2.6967    4.9443   -5.8471 C   0  0  0  0  0  0  0  0  0  0  0  0
    2.8200    5.4678   -4.9086 H   0  0  0  0  0  0  0  0  0  0  0  0
    2.3309    1.0272   -4.6163 C   0  0  0  0  0  0  0  0  0  0  0  0
    2.9925   -0.1637   -4.3245 C   0  0  0  0  0  0  0  0  0  0  0  0
    4.0535   -0.1539   -4.0299 H   0  0  0  0  0  0  0  0  0  0  0  0
    2.3217   -1.3699   -4.4250 C   0  0  0  0  0  0  0  0  0  0  0  0
    2.8371   -2.2923   -4.2036 H   0  0  0  0  0  0  0  0  0  0  0  0
    0.9934   -1.3905   -4.8172 C   0  0  0  0  0  0  0  0  0  0  0  0
    0.4713   -2.3319   -4.9002 H   0  0  0  0  0  0  0  0  0  0  0  0
    0.3328   -0.2072   -5.1119 C   0  0  0  0  0  0  0  0  0  0  0  0
   -0.7011   -0.2283   -5.4237 H   0  0  0  0  0  0  0  0  0  0  0  0
    0.9963    1.0009   -5.0125 C   0  0  0  0  0  0  0  0  0  0  0  0
    0.4906    1.9268   -5.2536 H   0  0  0  0  0  0  0  0  0  0  0  0
    6.0694   -0.3233    3.5068 C   0  0  0  0  0  0  0  0  0  0  0  0
    7.0667   -0.7449    3.3977 H   0  0  0  0  0  0  0  0  0  0  0  0
    5.3758   -1.1205    3.7613 H   0  0  0  0  0  0  0  0  0  0  0  0
    6.0983    0.3872    4.3329 H   0  0  0  0  0  0  0  0  0  0  0  0
  1  3  1  0  0  0  0
  1  4  1  0  0  0  0
  2  1  1  0  0  0  0
  4 16  1  1  0  0  0
  4  6  1  0  0  0  0
  5  1  1  0  0  0  0
  5 30  1  0  0  0  0
  6  7  2  0  0  0  0
  6 14  1  0  0  0  0
  7  9  1  0  0  0  0
  8  7  1  0  0  0  0
  9 10  1  0  0  0  0
  9 11  2  0  0  0  0
 11 55  1  0  0  0  0
 12 13  1  0  0  0  0
 12 11  1  0  0  0  0
 14 12  2  0  0  0  0
 15 14  1  0  0  0  0
 16 17  1  0  0  0  0
 17 19  2  0  0  0  0
 17 18  1  0  0  0  0
 19 20  1  0  0  0  0
 21 22  1  0  0  0  0
 21 19  1  0  0  0  0
 23 21  2  0  0  0  0
 24 23  1  0  0  0  0
 25 23  1  0  0  0  0
 25 16  2  0  0  0  0
 26 25  1  0  0  0  0
 27  4  1  0  0  0  0
 27 29  1  0  0  0  0
 28 27  1  0  0  0  0
 30 31  1  0  0  0  0
 30 27  1  0  0  0  0
 32 30  1  0  0  0  0
 33 42  1  0  0  0  0
 33  5  1  0  0  0  0
 34 33  2  0  0  0  0
 35 34  1  0  0  0  0
 36 38  2  0  0  0  0
 36 34  1  0  0  0  0
 37 36  1  0  0  0  0
 38 40  1  0  0  0  0
 39 38  1  0  0  0  0
 40 41  1  0  0  0  0
 40 42  2  0  0  0  0
 42 43  1  0  0  0  0
 44  5  1  0  0  0  0
 44 45  1  0  0  0  0
 45 46  1  0  0  0  0
 47 45  2  0  0  0  0
 47 48  1  0  0  0  0
 49 47  1  0  0  0  0
 50 49  1  0  0  0  0
 51 53  1  0  0  0  0
 51 49  2  0  0  0  0
 52 51  1  0  0  0  0
 53 44  2  0  0  0  0
 54 53  1  0  0  0  0
 55 57  1  0  0  0  0
 55 58  1  0  0  0  0
 56 55  1  0  0  0  0
M  END
$$$$
