CSD_code = HALCIG | q = 0 | S = 0 | Stoichiometry = C5H7ClHgO2 | MND = 2
 OpenBabel04212202043D

 16 15  0  0  0  0  0  0  0  0999 V2000
    2.7706    0.3694    6.3287 Hg  0  0  0  0  0  0  0  0  0  0  0  0
    2.0338    2.5408    6.7259 Cl  0  0  0  0  0  0  0  0  0  0  0  0
    4.0752   -1.7950    3.3218 O   0  0  0  0  0  0  0  0  0  0  0  0
    0.9631   -1.5376    5.5742 O   0  0  0  0  0  0  0  0  0  0  0  0
    4.3450   -1.7564    4.5016 C   0  0  0  0  0  0  0  0  0  0  0  0
    1.9196   -2.1860    5.2004 C   0  0  0  0  0  0  0  0  0  0  0  0
    5.7734   -1.6990    4.9985 C   0  0  0  0  0  0  0  0  0  0  0  0
    3.3171   -1.7705    5.5797 C   0  0  0  0  0  0  0  0  0  0  0  0
    1.7906   -3.4071    4.3507 C   0  0  0  0  0  0  0  0  0  0  0  0
    3.6592   -2.3396    6.4486 H   0  0  0  0  0  0  0  0  0  0  0  0
    6.4213   -1.3220    4.2119 H   0  0  0  0  0  0  0  0  0  0  0  0
    6.0898   -2.7124    5.2441 H   0  0  0  0  0  0  0  0  0  0  0  0
    5.8684   -1.0806    5.8892 H   0  0  0  0  0  0  0  0  0  0  0  0
    0.7456   -3.6772    4.2298 H   0  0  0  0  0  0  0  0  0  0  0  0
    2.2276   -3.1721    3.3791 H   0  0  0  0  0  0  0  0  0  0  0  0
    2.3535   -4.2354    4.7741 H   0  0  0  0  0  0  0  0  0  0  0  0
  1  2  1  0  0  0  0
  3  5  2  0  0  0  0
  5  7  1  0  0  0  0
  5  8  1  0  0  0  0
  6  4  2  0  0  0  0
  6  8  1  0  0  0  0
  7 12  1  0  0  0  0
  7 13  1  0  0  0  0
  8  1  1  0  0  0  0
  8 10  1  0  0  0  0
  9 16  1  0  0  0  0
  9  6  1  0  0  0  0
 11  7  1  0  0  0  0
 14  9  1  0  0  0  0
 15  9  1  0  0  0  0
M  END
$$$$
