CSD_code = HALNIS | q = 0 | S = 0 | Stoichiometry = C15H24Cl2OTi | MND = 8
 OpenBabel04212202043D

 43 45  0  0  1  0  0  0  0  0999 V2000
    1.3976    0.0586   22.8221 Ti  0  0  0  0  0  0  0  0  0  0  0  0
    0.8361   -0.7611   20.8763 Cl  0  0  0  0  0  0  0  0  0  0  0  0
   -0.3133    1.3887   22.9858 Cl  0  0  0  0  0  0  0  0  0  0  0  0
    2.5541    1.1119   22.3065 O   0  0  0  0  0  0  0  0  0  0  0  0
    2.6374   -0.6030   24.6564 C   0  0  0  0  0  3  0  0  0  0  0  0
    3.5150   -0.1068   25.0547 H   0  0  0  0  0  0  0  0  0  0  0  0
    2.6375   -1.6599   23.7158 C   0  0  1  0  0  0  0  0  0  0  0  0
    3.5162   -2.1206   23.2785 H   0  0  0  0  0  0  0  0  0  0  0  0
    1.3085   -2.1375   23.5996 C   0  0  0  0  0  0  0  0  0  0  0  0
    0.9993   -3.0043   23.0294 H   0  0  0  0  0  0  0  0  0  0  0  0
    0.4886   -1.3613   24.4337 C   0  0  0  0  0  0  0  0  0  0  0  0
   -0.5652   -1.5256   24.6259 H   0  0  0  0  0  0  0  0  0  0  0  0
    1.3045   -0.4032   25.0834 C   0  0  2  0  0  0  0  0  0  0  0  0
    0.9835    0.2699   25.8702 H   0  0  0  0  0  0  0  0  0  0  0  0
    2.9108    2.3042   21.7112 C   0  0  1  0  0  0  0  0  0  0  0  0
    1.9834    2.7834   21.3377 H   0  0  0  0  0  0  0  0  0  0  0  0
    3.5936    3.2276   22.7417 C   0  0  1  0  0  0  0  0  0  0  0  0
    4.4997    2.7023   23.0734 H   0  0  0  0  0  0  0  0  0  0  0  0
    4.0077    4.5234   22.0448 C   0  0  0  0  0  0  0  0  0  0  0  0
    3.1222    5.0332   21.6634 H   0  0  0  0  0  0  0  0  0  0  0  0
    4.5010    5.1841   22.7592 H   0  0  0  0  0  0  0  0  0  0  0  0
    4.9516    4.2344   20.8801 C   0  0  0  0  0  0  0  0  0  0  0  0
    5.8591    3.7538   21.2533 H   0  0  0  0  0  0  0  0  0  0  0  0
    5.2435    5.1731   20.4048 H   0  0  0  0  0  0  0  0  0  0  0  0
    4.2860    3.3220   19.8485 C   0  0  2  0  0  0  0  0  0  0  0  0
    3.3948    3.8277   19.4604 H   0  0  0  0  0  0  0  0  0  0  0  0
    3.8475    2.0262   20.5278 C   0  0  0  0  0  0  0  0  0  0  0  0
    3.3239    1.3724   19.8232 H   0  0  0  0  0  0  0  0  0  0  0  0
    4.7217    1.4862   20.9049 H   0  0  0  0  0  0  0  0  0  0  0  0
    2.6965    3.4195   23.9838 C   0  0  0  0  0  0  0  0  0  0  0  0
    2.2659    2.4273   24.2166 H   0  0  0  0  0  0  0  0  0  0  0  0
    1.5341    4.3844   23.7568 C   0  0  0  0  0  0  0  0  0  0  0  0
    0.9359    4.0789   22.9019 H   0  0  0  0  0  0  0  0  0  0  0  0
    1.8916    5.3996   23.6022 H   0  0  0  0  0  0  0  0  0  0  0  0
    0.8851    4.3823   24.6295 H   0  0  0  0  0  0  0  0  0  0  0  0
    3.5226    3.8721   25.1877 C   0  0  0  0  0  0  0  0  0  0  0  0
    3.9574    4.8532   25.0104 H   0  0  0  0  0  0  0  0  0  0  0  0
    4.3284    3.1707   25.3935 H   0  0  0  0  0  0  0  0  0  0  0  0
    2.8925    3.9372   26.0714 H   0  0  0  0  0  0  0  0  0  0  0  0
    5.2270    3.0290   18.6834 C   0  0  0  0  0  0  0  0  0  0  0  0
    5.5175    3.9520   18.1874 H   0  0  0  0  0  0  0  0  0  0  0  0
    4.7421    2.3847   17.9543 H   0  0  0  0  0  0  0  0  0  0  0  0
    6.1274    2.5312   19.0364 H   0  0  0  0  0  0  0  0  0  0  0  0
  1  3  1  0  0  0  0
  1  7  1  0  0  0  0
  1 13  1  0  0  0  0
  2  1  1  0  0  0  0
  4  1  1  0  0  0  0
  5  6  1  0  0  0  0
  5 13  1  0  0  0  0
  7  8  1  6  0  0  0
  7  5  1  0  0  0  0
  9  7  1  0  0  0  0
  9 11  2  0  0  0  0
 10  9  1  0  0  0  0
 11 12  1  0  0  0  0
 11 13  1  0  0  0  0
 13 14  1  1  0  0  0
 15 16  1  6  0  0  0
 15  4  1  0  0  0  0
 15 17  1  0  0  0  0
 17 18  1  1  0  0  0
 17 30  1  0  0  0  0
 19 17  1  0  0  0  0
 19 21  1  0  0  0  0
 20 19  1  0  0  0  0
 22 23  1  0  0  0  0
 22 19  1  0  0  0  0
 24 22  1  0  0  0  0
 25 26  1  6  0  0  0
 25 27  1  0  0  0  0
 25 22  1  0  0  0  0
 27 29  1  0  0  0  0
 27 15  1  0  0  0  0
 28 27  1  0  0  0  0
 30 31  1  0  0  0  0
 30 36  1  0  0  0  0
 32 30  1  0  0  0  0
 32 35  1  0  0  0  0
 33 32  1  0  0  0  0
 34 32  1  0  0  0  0
 36 38  1  0  0  0  0
 36 39  1  0  0  0  0
 37 36  1  0  0  0  0
 40 43  1  0  0  0  0
 40 25  1  0  0  0  0
 41 40  1  0  0  0  0
 42 40  1  0  0  0  0
M  END
$$$$
