CSD_code = HALQEQ | q = 0 | S = 0 | Stoichiometry = C9H10BCl2N7OsSe | MND = 6
 OpenBabel04212202043D

 31 35  0  0  1  0  0  0  0  0999 V2000
    3.3635   -1.2967   -4.6686 C   0  0  0  0  0  3  0  0  0  0  0  0
    3.5628   -0.7159   -5.5496 H   0  0  0  0  0  0  0  0  0  0  0  0
    3.7060   -1.0439   -3.3433 C   0  0  0  0  0  0  0  0  0  0  0  0
    4.2433   -0.2021   -2.9597 H   0  0  0  0  0  0  0  0  0  0  0  0
    3.2000   -2.1170   -2.6380 C   0  0  0  0  0  0  0  0  0  0  0  0
    3.2306   -2.3381   -1.5903 H   0  0  0  0  0  0  0  0  0  0  0  0
    3.4764   -6.1139   -5.9478 C   0  0  0  0  0  3  0  0  0  0  0  0
    3.7317   -6.1438   -6.9892 H   0  0  0  0  0  0  0  0  0  0  0  0
    3.8027   -6.9975   -4.9221 C   0  0  0  0  0  0  0  0  0  0  0  0
    4.3748   -7.8983   -4.9958 H   0  0  0  0  0  0  0  0  0  0  0  0
    3.2292   -6.4499   -3.7922 C   0  0  0  0  0  0  0  0  0  0  0  0
    3.2320   -6.7911   -2.7770 H   0  0  0  0  0  0  0  0  0  0  0  0
   -1.0474   -3.5657   -5.2716 C   0  0  0  0  0  3  0  0  0  0  0  0
   -1.4307   -3.2321   -6.2164 H   0  0  0  0  0  0  0  0  0  0  0  0
   -1.7228   -3.8954   -4.0993 C   0  0  0  0  0  0  0  0  0  0  0  0
   -2.7793   -3.8859   -3.9316 H   0  0  0  0  0  0  0  0  0  0  0  0
   -0.7274   -4.2314   -3.2039 C   0  0  0  0  0  0  0  0  0  0  0  0
   -0.7895   -4.5423   -2.1811 H   0  0  0  0  0  0  0  0  0  0  0  0
    1.8795   -4.2810   -3.2655 B   0  0  2  0  0  0  0  0  0  0  0  0
    1.8738   -4.5925   -2.1286 H   0  0  0  0  0  0  0  0  0  0  0  0
    3.8241   -3.0806   -7.5124 Cl  0  0  0  0  0  0  0  0  0  0  0  0
    0.9910   -1.4747   -7.0855 Cl  0  0  0  0  0  0  0  0  0  0  0  0
    2.6986   -2.4442   -4.7434 N   0  0  2  0  0  0  0  0  0  0  0  0
    2.5991   -2.9446   -3.5015 N   0  0  0  0  0  0  0  0  0  0  0  0
    2.7566   -5.1165   -5.4533 N   0  0  2  0  0  0  0  0  0  0  0  0
    2.6031   -5.3191   -4.1413 N   0  0  0  0  0  0  0  0  0  0  0  0
    0.2569   -3.7027   -5.0780 N   0  0  1  0  0  0  0  0  0  0  0  0
    0.4548   -4.1090   -3.8204 N   0  0  0  0  0  0  0  0  0  0  0  0
    1.1423   -4.4152   -7.6385 N   0  0  0  0  0  2  0  0  0  0  0  0
    1.8778   -3.4583   -6.3740 Os  0  0  0  0  0  0  0  0  0  0  0  0
    0.4353   -5.3607   -8.7485 Se  0  0  0  0  0  1  0  0  0  0  0  0
  1  3  1  0  0  0  0
  2  1  1  0  0  0  0
  3  4  1  0  0  0  0
  3  5  2  0  0  0  0
  5  6  1  0  0  0  0
  7  9  1  0  0  0  0
  8  7  1  0  0  0  0
  9 11  2  0  0  0  0
 10  9  1  0  0  0  0
 11 12  1  0  0  0  0
 13 15  1  0  0  0  0
 14 13  1  0  0  0  0
 15 16  1  0  0  0  0
 15 17  2  0  0  0  0
 17 18  1  0  0  0  0
 19 20  1  1  0  0  0
 21 30  1  0  0  0  0
 22 30  1  0  0  0  0
 23  1  1  6  0  0  0
 23 24  1  0  0  0  0
 24 19  1  0  0  0  0
 24  5  1  0  0  0  0
 25  7  1  6  0  0  0
 25 26  1  0  0  0  0
 26 11  1  0  0  0  0
 26 19  1  0  0  0  0
 27 13  1  6  0  0  0
 27 28  1  0  0  0  0
 28 19  1  0  0  0  0
 28 17  1  0  0  0  0
 29 30  1  0  0  0  0
 30 25  1  0  0  0  0
 30 27  1  0  0  0  0
 30 23  1  0  0  0  0
 31 29  1  0  0  0  0
M  END
$$$$
