CSD_code = HAMFOQ | q = 0 | S = 0 | Stoichiometry = C15H20ClIN2O2W | MND = 6
 OpenBabel04212202043D

 42 43  0  0  0  0  0  0  0  0999 V2000
    0.8971    0.3523    3.7320 W   0  0  0  0  0  0  0  0  0  0  0  0
    2.9566    3.0659   11.1339 I   0  0  0  0  0  0  0  0  0  0  0  0
    0.2331   -1.1671    2.0011 Cl  0  0  0  0  0  0  0  0  0  0  0  0
    2.5667   -1.5885    5.4987 O   0  0  0  0  0  1  0  0  0  0  0  0
   -1.3990   -0.3008    5.7321 O   0  0  0  0  0  1  0  0  0  0  0  0
   -0.1996    2.0276    2.5850 N   0  0  0  0  0  4  0  0  0  0  0  0
    2.5434    0.9652    2.2878 N   0  0  0  0  0  4  0  0  0  0  0  0
    1.9506   -0.9619    4.7540 C   0  0  0  0  0  2  0  0  0  0  0  0
   -0.6036   -0.1065    4.9225 C   0  0  0  0  0  2  0  0  0  0  0  0
    1.4316    1.3433    5.2737 C   0  0  0  0  0  2  0  0  0  0  0  0
    1.7688    1.7410    6.5643 C   0  0  0  0  0  0  0  0  0  0  0  0
    1.4625    0.9112    7.6650 C   0  0  0  0  0  0  0  0  0  0  0  0
    1.7974    1.2838    8.9460 C   0  0  0  0  0  0  0  0  0  0  0  0
    2.4438    2.4921    9.1628 C   0  0  0  0  0  0  0  0  0  0  0  0
    2.7581    3.3318    8.1063 C   0  0  0  0  0  0  0  0  0  0  0  0
    2.4244    2.9617    6.8227 C   0  0  0  0  0  0  0  0  0  0  0  0
   -0.7251    3.0451    3.5024 C   0  0  0  0  0  0  0  0  0  0  0  0
   -1.3266    1.5342    1.7876 C   0  0  0  0  0  0  0  0  0  0  0  0
    0.8057    2.6427    1.7005 C   0  0  0  0  0  0  0  0  0  0  0  0
    1.8096    1.6085    1.1878 C   0  0  0  0  0  0  0  0  0  0  0  0
    3.5210    1.8905    2.8674 C   0  0  0  0  0  0  0  0  0  0  0  0
    3.2894   -0.1775    1.7502 C   0  0  0  0  0  0  0  0  0  0  0  0
    0.9591   -0.0255    7.4793 H   0  0  0  0  0  0  0  0  0  0  0  0
    1.5577    0.6372    9.7764 H   0  0  0  0  0  0  0  0  0  0  0  0
    3.2617    4.2699    8.2855 H   0  0  0  0  0  0  0  0  0  0  0  0
    2.6714    3.6129    5.9961 H   0  0  0  0  0  0  0  0  0  0  0  0
    0.0714    3.4209    4.1456 H   0  0  0  0  0  0  0  0  0  0  0  0
   -1.1713    3.8826    2.9486 H   0  0  0  0  0  0  0  0  0  0  0  0
   -1.4895    2.6010    4.1403 H   0  0  0  0  0  0  0  0  0  0  0  0
   -1.8269    2.3601    1.2629 H   0  0  0  0  0  0  0  0  0  0  0  0
   -0.9871    0.8014    1.0571 H   0  0  0  0  0  0  0  0  0  0  0  0
   -2.0475    1.0428    2.4430 H   0  0  0  0  0  0  0  0  0  0  0  0
    0.3211    3.1304    0.8409 H   0  0  0  0  0  0  0  0  0  0  0  0
    1.3343    3.4198    2.2615 H   0  0  0  0  0  0  0  0  0  0  0  0
    2.5070    2.0954    0.4861 H   0  0  0  0  0  0  0  0  0  0  0  0
    1.2710    0.8216    0.6492 H   0  0  0  0  0  0  0  0  0  0  0  0
    4.0675    1.3824    3.6620 H   0  0  0  0  0  0  0  0  0  0  0  0
    4.2367    2.2331    2.1066 H   0  0  0  0  0  0  0  0  0  0  0  0
    3.0293    2.7567    3.3069 H   0  0  0  0  0  0  0  0  0  0  0  0
    2.5969   -0.9056    1.3275 H   0  0  0  0  0  0  0  0  0  0  0  0
    3.9931    0.1431    0.9701 H   0  0  0  0  0  0  0  0  0  0  0  0
    3.8481   -0.6580    2.5546 H   0  0  0  0  0  0  0  0  0  0  0  0
  1  8  1  0  0  0  0
  1  9  1  0  0  0  0
  1 10  1  0  0  0  0
  3  1  1  0  0  0  0
  6 17  1  0  0  0  0
  6  1  1  0  0  0  0
  7 21  1  0  0  0  0
  7  1  1  0  0  0  0
  8  4  1  0  0  0  0
  9  5  1  0  0  0  0
 10 11  1  0  0  0  0
 11 16  2  0  0  0  0
 11 12  1  0  0  0  0
 12 13  2  0  0  0  0
 13 14  1  0  0  0  0
 13 24  1  0  0  0  0
 14  2  1  0  0  0  0
 15 25  1  0  0  0  0
 15 14  2  0  0  0  0
 16 15  1  0  0  0  0
 17 29  1  0  0  0  0
 17 27  1  0  0  0  0
 18 32  1  0  0  0  0
 18  6  1  0  0  0  0
 19 34  1  0  0  0  0
 19  6  1  0  0  0  0
 20 19  1  0  0  0  0
 20  7  1  0  0  0  0
 21 39  1  0  0  0  0
 21 37  1  0  0  0  0
 22  7  1  0  0  0  0
 22 42  1  0  0  0  0
 23 12  1  0  0  0  0
 26 16  1  0  0  0  0
 28 17  1  0  0  0  0
 30 18  1  0  0  0  0
 31 18  1  0  0  0  0
 33 19  1  0  0  0  0
 35 20  1  0  0  0  0
 36 20  1  0  0  0  0
 38 21  1  0  0  0  0
 40 22  1  0  0  0  0
 41 22  1  0  0  0  0
M  END
$$$$
