CSD_code = HAMHAE | q = 0 | S = 0 | Stoichiometry = C24H25ClN2O3W | MND = 6
 OpenBabel04212202043D

 56 58  0  0  0  0  0  0  0  0999 V2000
    4.7395   -0.1082    4.6267 W   0  0  0  0  0  0  0  0  0  0  0  0
    6.5116    1.0532    3.5091 Cl  0  0  0  0  0  0  0  0  0  0  0  0
    2.8621    2.3097    5.1941 O   0  0  0  0  0  1  0  0  0  0  0  0
    2.9340   -0.7348    2.1689 O   0  0  0  0  0  1  0  0  0  0  0  0
   -9.0682   -4.2798    9.0376 O   0  0  0  0  0  0  0  0  0  0  0  0
    6.0081   -2.0406    4.4697 N   0  0  0  0  0  4  0  0  0  0  0  0
    6.0348    0.1268    6.4886 N   0  0  0  0  0  4  0  0  0  0  0  0
    3.6320    1.4924    4.9392 C   0  0  0  0  0  2  0  0  0  0  0  0
    3.6732   -0.4552    3.0070 C   0  0  0  0  0  2  0  0  0  0  0  0
    3.1604   -0.8898    5.3611 C   0  0  0  0  0  2  0  0  0  0  0  0
    1.8686   -1.2852    5.6810 C   0  0  0  0  0  0  0  0  0  0  0  0
    1.1584   -0.6826    6.7436 C   0  0  0  0  0  0  0  0  0  0  0  0
   -0.1161   -1.0816    7.0555 C   0  0  0  0  0  0  0  0  0  0  0  0
   -0.7389   -2.1049    6.3264 C   0  0  0  0  0  0  0  0  0  0  0  0
   -0.0463   -2.7097    5.2671 C   0  0  0  0  0  0  0  0  0  0  0  0
    1.2269   -2.3120    4.9513 C   0  0  0  0  0  0  0  0  0  0  0  0
   -2.0372   -2.5282    6.6503 C   0  0  0  0  0  0  0  0  0  0  0  0
   -3.1552   -2.9059    6.9205 C   0  0  0  0  0  0  0  0  0  0  0  0
   -4.4500   -3.3549    7.2313 C   0  0  0  0  0  0  0  0  0  0  0  0
   -5.1932   -2.7347    8.2442 C   0  0  0  0  0  0  0  0  0  0  0  0
   -6.4567   -3.1864    8.5452 C   0  0  0  0  0  0  0  0  0  0  0  0
   -7.0114   -4.2647    7.8477 C   0  0  0  0  0  0  0  0  0  0  0  0
   -6.2693   -4.8806    6.8364 C   0  0  0  0  0  0  0  0  0  0  0  0
   -5.0045   -4.4338    6.5297 C   0  0  0  0  0  0  0  0  0  0  0  0
   -8.3542   -4.7383    8.1797 C   0  0  0  0  0  0  0  0  0  0  0  0
    5.1600   -3.2311    4.3460 C   0  0  0  0  0  0  0  0  0  0  0  0
    6.9251   -2.0380    3.3263 C   0  0  0  0  0  0  0  0  0  0  0  0
    6.7744   -2.1213    5.7258 C   0  0  0  0  0  0  0  0  0  0  0  0
    7.1954   -0.7347    6.2177 C   0  0  0  0  0  0  0  0  0  0  0  0
    6.5086    1.4990    6.6953 C   0  0  0  0  0  0  0  0  0  0  0  0
    5.3554   -0.2932    7.7174 C   0  0  0  0  0  0  0  0  0  0  0  0
    1.6389    0.1100    7.2988 H   0  0  0  0  0  0  0  0  0  0  0  0
   -0.6540   -0.6115    7.8662 H   0  0  0  0  0  0  0  0  0  0  0  0
   -0.5314   -3.4924    4.7018 H   0  0  0  0  0  0  0  0  0  0  0  0
    1.7592   -2.7695    4.1301 H   0  0  0  0  0  0  0  0  0  0  0  0
   -4.7616   -1.9023    8.7802 H   0  0  0  0  0  0  0  0  0  0  0  0
   -7.0458   -2.7216    9.3219 H   0  0  0  0  0  0  0  0  0  0  0  0
   -6.6969   -5.7133    6.2956 H   0  0  0  0  0  0  0  0  0  0  0  0
   -4.4263   -4.9067    5.7494 H   0  0  0  0  0  0  0  0  0  0  0  0
   -8.6905   -5.5945    7.5587 H   0  0  0  0  0  0  0  0  0  0  0  0
    4.4312   -3.2610    5.1567 H   0  0  0  0  0  0  0  0  0  0  0  0
    4.6167   -3.1918    3.4023 H   0  0  0  0  0  0  0  0  0  0  0  0
    5.7633   -4.1492    4.3654 H   0  0  0  0  0  0  0  0  0  0  0  0
    7.5062   -2.9701    3.2871 H   0  0  0  0  0  0  0  0  0  0  0  0
    6.3523   -1.9387    2.4034 H   0  0  0  0  0  0  0  0  0  0  0  0
    7.6095   -1.1933    3.3847 H   0  0  0  0  0  0  0  0  0  0  0  0
    6.1488   -2.6038    6.4838 H   0  0  0  0  0  0  0  0  0  0  0  0
    7.6728   -2.7439    5.5935 H   0  0  0  0  0  0  0  0  0  0  0  0
    7.7947   -0.2447    5.4431 H   0  0  0  0  0  0  0  0  0  0  0  0
    7.8185   -0.8441    7.1211 H   0  0  0  0  0  0  0  0  0  0  0  0
    7.2193    1.5495    7.5310 H   0  0  0  0  0  0  0  0  0  0  0  0
    6.9958    1.8614    5.7900 H   0  0  0  0  0  0  0  0  0  0  0  0
    5.6604    2.1489    6.9129 H   0  0  0  0  0  0  0  0  0  0  0  0
    4.5346    0.3931    7.9233 H   0  0  0  0  0  0  0  0  0  0  0  0
    4.9321   -1.2913    7.6139 H   0  0  0  0  0  0  0  0  0  0  0  0
    6.0466   -0.2820    8.5724 H   0  0  0  0  0  0  0  0  0  0  0  0
  1  8  1  0  0  0  0
  1 10  1  0  0  0  0
  1  7  1  0  0  0  0
  2  1  1  0  0  0  0
  4  9  1  0  0  0  0
  6  1  1  0  0  0  0
  6 28  1  0  0  0  0
  7 30  1  0  0  0  0
  7 31  1  0  0  0  0
  8  3  1  0  0  0  0
  9  1  1  0  0  0  0
 10 11  1  0  0  0  0
 11 12  1  0  0  0  0
 12 13  2  0  0  0  0
 12 32  1  0  0  0  0
 13 33  1  0  0  0  0
 14 17  1  0  0  0  0
 14 13  1  0  0  0  0
 15 14  2  0  0  0  0
 16 15  1  0  0  0  0
 16 11  2  0  0  0  0
 17 18  3  0  0  0  0
 18 19  1  0  0  0  0
 19 20  1  0  0  0  0
 20 21  2  0  0  0  0
 20 36  1  0  0  0  0
 21 37  1  0  0  0  0
 22 25  1  0  0  0  0
 22 21  1  0  0  0  0
 23 22  2  0  0  0  0
 24 23  1  0  0  0  0
 24 19  2  0  0  0  0
 25  5  2  0  0  0  0
 26 43  1  0  0  0  0
 26  6  1  0  0  0  0
 26 41  1  0  0  0  0
 27 46  1  0  0  0  0
 27  6  1  0  0  0  0
 28 29  1  0  0  0  0
 28 47  1  0  0  0  0
 29  7  1  0  0  0  0
 29 50  1  0  0  0  0
 30 53  1  0  0  0  0
 30 51  1  0  0  0  0
 31 54  1  0  0  0  0
 31 56  1  0  0  0  0
 34 15  1  0  0  0  0
 35 16  1  0  0  0  0
 38 23  1  0  0  0  0
 39 24  1  0  0  0  0
 40 25  1  0  0  0  0
 42 26  1  0  0  0  0
 44 27  1  0  0  0  0
 45 27  1  0  0  0  0
 48 28  1  0  0  0  0
 49 29  1  0  0  0  0
 52 30  1  0  0  0  0
 55 31  1  0  0  0  0
M  END
$$$$
