CSD_code = HAMLOZ | q = 0 | S = 0 | Stoichiometry = C31H33ClNNiPS2 | MND = 4
 OpenBabel04212202043D

 70 74  0  0  1  0  0  0  0  0999 V2000
   -0.6122   -0.5192    4.1659 Ni  0  0  2  0  0  0  0  0  0  0  0  0
   -0.1813   -2.3967    4.9004 Cl  0  0  0  0  0  0  0  0  0  0  0  0
   -0.9555    1.5773    3.4553 S   0  0  0  0  0  0  0  0  0  0  0  0
    1.2145    0.5261    4.9832 S   0  0  0  0  0  0  0  0  0  0  0  0
   -2.4779   -1.4039    3.5389 P   0  0  0  0  0  4  0  0  0  0  0  0
    1.1413    3.0670    4.1999 N   0  0  0  0  0  0  0  0  0  0  0  0
   -3.4758   -1.3781    5.0584 C   0  0  0  0  0  0  0  0  0  0  0  0
   -2.9948   -0.6043    6.1099 C   0  0  0  0  0  0  0  0  0  0  0  0
   -2.0350   -0.0875    5.9906 H   0  0  0  0  0  0  0  0  0  0  0  0
   -3.7037   -0.5125    7.2925 C   0  0  0  0  0  0  0  0  0  0  0  0
   -3.3244    0.0839    8.1089 H   0  0  0  0  0  0  0  0  0  0  0  0
   -4.9006   -1.1975    7.4282 C   0  0  0  0  0  0  0  0  0  0  0  0
   -5.4567   -1.1325    8.3517 H   0  0  0  0  0  0  0  0  0  0  0  0
   -5.3815   -1.9755    6.3867 C   0  0  0  0  0  0  0  0  0  0  0  0
   -6.3109   -2.5144    6.5007 H   0  0  0  0  0  0  0  0  0  0  0  0
   -4.6741   -2.0699    5.2015 C   0  0  0  0  0  0  0  0  0  0  0  0
   -5.0396   -2.6879    4.3928 H   0  0  0  0  0  0  0  0  0  0  0  0
   -2.6968   -3.0968    2.9167 C   0  0  0  0  0  0  0  0  0  0  0  0
   -2.6295   -4.1598    3.8147 C   0  0  0  0  0  0  0  0  0  0  0  0
   -2.4532   -3.9623    4.8612 H   0  0  0  0  0  0  0  0  0  0  0  0
   -2.7697   -5.4574    3.3610 C   0  0  0  0  0  0  0  0  0  0  0  0
   -2.7152   -6.2775    4.0614 H   0  0  0  0  0  0  0  0  0  0  0  0
   -2.9721   -5.7076    2.0133 C   0  0  0  0  0  0  0  0  0  0  0  0
   -3.0770   -6.7229    1.6605 H   0  0  0  0  0  0  0  0  0  0  0  0
   -3.0344   -4.6534    1.1177 C   0  0  0  0  0  0  0  0  0  0  0  0
   -3.1888   -4.8442    0.0657 H   0  0  0  0  0  0  0  0  0  0  0  0
   -2.8949   -3.3514    1.5641 C   0  0  0  0  0  0  0  0  0  0  0  0
   -2.9440   -2.5333    0.8596 H   0  0  0  0  0  0  0  0  0  0  0  0
   -3.4495   -0.4240    2.3391 C   0  0  0  0  0  0  0  0  0  0  0  0
   -4.7786   -0.0641    2.5111 C   0  0  0  0  0  0  0  0  0  0  0  0
   -5.3109   -0.3625    3.4024 H   0  0  0  0  0  0  0  0  0  0  0  0
   -5.4180    0.6886    1.5407 C   0  0  0  0  0  0  0  0  0  0  0  0
   -6.4524    0.9688    1.6778 H   0  0  0  0  0  0  0  0  0  0  0  0
   -4.7387    1.0877    0.4021 C   0  0  0  0  0  0  0  0  0  0  0  0
   -5.2434    1.6772   -0.3492 H   0  0  0  0  0  0  0  0  0  0  0  0
   -3.4073    0.7423    0.2320 C   0  0  0  0  0  0  0  0  0  0  0  0
   -2.8717    1.0632   -0.6496 H   0  0  0  0  0  0  0  0  0  0  0  0
   -2.7652   -0.0048    1.2000 C   0  0  0  0  0  0  0  0  0  0  0  0
   -1.7176   -0.2644    1.0932 H   0  0  0  0  0  0  0  0  0  0  0  0
    0.5448    1.8785    4.2122 C   0  0  1  0  0  3  0  0  0  0  0  0
    0.5477    4.2240    3.5555 C   0  0  0  0  0  0  0  0  0  0  0  0
    0.5961    5.0687    4.2493 H   0  0  0  0  0  0  0  0  0  0  0  0
   -0.5014    3.9943    3.3492 H   0  0  0  0  0  0  0  0  0  0  0  0
    1.2721    4.5513    2.2756 C   0  0  0  0  0  0  0  0  0  0  0  0
    2.0633    5.6850    2.1663 C   0  0  0  0  0  0  0  0  0  0  0  0
    2.1387    6.3712    2.9989 H   0  0  0  0  0  0  0  0  0  0  0  0
    2.7514    5.9517    0.9953 C   0  0  0  0  0  0  0  0  0  0  0  0
    3.3615    6.8411    0.9272 H   0  0  0  0  0  0  0  0  0  0  0  0
    2.6718    5.0887   -0.0884 C   0  0  0  0  0  0  0  0  0  0  0  0
    1.8787    3.9517    0.0270 C   0  0  0  0  0  0  0  0  0  0  0  0
    1.8047    3.2696   -0.8079 H   0  0  0  0  0  0  0  0  0  0  0  0
    1.1872    3.6852    1.1916 C   0  0  0  0  0  0  0  0  0  0  0  0
    0.5729    2.8001    1.2667 H   0  0  0  0  0  0  0  0  0  0  0  0
    3.4036    5.3761   -1.3633 C   0  0  0  0  0  0  0  0  0  0  0  0
    3.8867    4.4768   -1.7403 H   0  0  0  0  0  0  0  0  0  0  0  0
    4.1571    6.1456   -1.2160 H   0  0  0  0  0  0  0  0  0  0  0  0
    2.7046    5.7227   -2.1248 H   0  0  0  0  0  0  0  0  0  0  0  0
    2.4272    3.2536    4.8386 C   0  0  0  0  0  0  0  0  0  0  0  0
    2.9523    4.0521    4.3088 H   0  0  0  0  0  0  0  0  0  0  0  0
    2.9976    2.3277    4.7350 H   0  0  0  0  0  0  0  0  0  0  0  0
    2.2723    3.6019    6.3210 C   0  0  0  0  0  0  0  0  0  0  0  0
    1.7784    2.7700    6.8264 H   0  0  0  0  0  0  0  0  0  0  0  0
    1.6288    4.4808    6.4129 H   0  0  0  0  0  0  0  0  0  0  0  0
    3.6108    3.8869    6.9992 C   0  0  0  0  0  0  0  0  0  0  0  0
    4.1297    4.6823    6.4586 H   0  0  0  0  0  0  0  0  0  0  0  0
    3.4107    4.2502    8.0095 H   0  0  0  0  0  0  0  0  0  0  0  0
    4.5085    2.6582    7.0856 C   0  0  0  0  0  0  0  0  0  0  0  0
    4.8430    2.3445    6.1006 H   0  0  0  0  0  0  0  0  0  0  0  0
    3.9747    1.8306    7.5461 H   0  0  0  0  0  0  0  0  0  0  0  0
    5.3879    2.8773    7.6864 H   0  0  0  0  0  0  0  0  0  0  0  0
  1  2  1  6  0  0  0
  1  4  1  0  0  0  0
  3  1  1  0  0  0  0
  3 40  1  0  0  0  0
  5  1  1  0  0  0  0
  5  7  1  0  0  0  0
  6 58  1  0  0  0  0
  7 16  2  0  0  0  0
  7  8  1  0  0  0  0
  8 10  2  0  0  0  0
  9  8  1  0  0  0  0
 10 12  1  0  0  0  0
 10 11  1  0  0  0  0
 12 13  1  0  0  0  0
 14 15  1  0  0  0  0
 14 12  2  0  0  0  0
 16 14  1  0  0  0  0
 17 16  1  0  0  0  0
 18  5  1  0  0  0  0
 18 19  1  0  0  0  0
 19 20  1  0  0  0  0
 21 19  2  0  0  0  0
 21 22  1  0  0  0  0
 23 21  1  0  0  0  0
 24 23  1  0  0  0  0
 25 27  1  0  0  0  0
 25 23  2  0  0  0  0
 26 25  1  0  0  0  0
 27 18  2  0  0  0  0
 28 27  1  0  0  0  0
 29 30  1  0  0  0  0
 29  5  1  0  0  0  0
 30 31  1  0  0  0  0
 32 33  1  0  0  0  0
 32 30  2  0  0  0  0
 34 32  1  0  0  0  0
 35 34  1  0  0  0  0
 36 34  2  0  0  0  0
 36 38  1  0  0  0  0
 37 36  1  0  0  0  0
 38 29  2  0  0  0  0
 39 38  1  0  0  0  0
 40  6  1  6  0  0  0
 40  4  1  0  0  0  0
 41  6  1  0  0  0  0
 41 42  1  0  0  0  0
 43 41  1  0  0  0  0
 44 41  1  0  0  0  0
 45 44  1  0  0  0  0
 45 46  1  0  0  0  0
 47 45  2  0  0  0  0
 48 47  1  0  0  0  0
 49 50  2  0  0  0  0
 49 47  1  0  0  0  0
 50 52  1  0  0  0  0
 51 50  1  0  0  0  0
 52 53  1  0  0  0  0
 52 44  2  0  0  0  0
 54 56  1  0  0  0  0
 54 49  1  0  0  0  0
 55 54  1  0  0  0  0
 57 54  1  0  0  0  0
 58 61  1  0  0  0  0
 59 58  1  0  0  0  0
 60 58  1  0  0  0  0
 61 63  1  0  0  0  0
 61 62  1  0  0  0  0
 61 64  1  0  0  0  0
 64 67  1  0  0  0  0
 64 66  1  0  0  0  0
 65 64  1  0  0  0  0
 67 69  1  0  0  0  0
 67 70  1  0  0  0  0
 68 67  1  0  0  0  0
M  END
$$$$
