CSD_code = HAMZAW | q = 1 | S = 0 | Stoichiometry = C12H24Cl2LaO7(1+) | MND = 9
 OpenBabel04212202043D

 46 45  0  0  0  0  0  0  0  0999 V2000
    2.1306   10.3634    3.9279 La  0  0  0  0  0  0  0  0  0  0  0  0
    1.4407    8.3133    5.2273 Cl  0  0  0  0  0  0  0  0  0  0  0  0
    3.7336   11.6984    2.2521 Cl  0  0  0  0  0  0  0  0  0  0  0  0
    1.4387    9.3319    1.5565 O   0  0  0  0  0  0  0  0  0  0  0  0
    3.6058    8.3748    2.8731 O   0  0  0  0  0  0  0  0  0  0  0  0
    4.6113    9.8700    4.8811 O   0  0  0  0  0  0  0  0  0  0  0  0
    3.1717   12.0662    5.7708 O   0  0  0  0  0  0  0  0  0  0  0  0
    0.4985   11.4796    5.7047 O   0  0  0  0  0  0  0  0  0  0  0  0
   -0.4347   10.3828    3.3756 O   0  0  0  0  0  0  0  0  0  0  0  0
    2.2249   12.0028    2.8102 O   0  0  0  0  0  0  0  0  0  0  0  0
    1.8082    7.9628    1.3997 C   0  0  0  0  0  0  0  0  0  0  0  0
    3.3215    7.8997    1.5660 C   0  0  0  0  0  0  0  0  0  0  0  0
    4.9536    8.1709    3.2678 C   0  0  0  0  0  0  0  0  0  0  0  0
    5.0390    8.5170    4.7493 C   0  0  0  0  0  0  0  0  0  0  0  0
    4.9555   10.4553    6.1306 C   0  0  0  0  0  0  0  0  0  0  0  0
    4.5637   11.9291    6.0202 C   0  0  0  0  0  0  0  0  0  0  0  0
    2.3775   12.2087    6.9457 C   0  0  0  0  0  0  0  0  0  0  0  0
    0.9709   12.5669    6.4857 C   0  0  0  0  0  0  0  0  0  0  0  0
   -0.8686   11.6212    5.3408 C   0  0  0  0  0  0  0  0  0  0  0  0
   -1.2552   10.3859    4.5397 C   0  0  0  0  0  0  0  0  0  0  0  0
   -0.8419    9.4245    2.4069 C   0  0  0  0  0  0  0  0  0  0  0  0
    0.0905    9.6153    1.2111 C   0  0  0  0  0  0  0  0  0  0  0  0
    1.5238    7.6064    0.4022 H   0  0  0  0  0  0  0  0  0  0  0  0
    1.3351    7.3370    2.1688 H   0  0  0  0  0  0  0  0  0  0  0  0
    3.8112    8.5375    0.8161 H   0  0  0  0  0  0  0  0  0  0  0  0
    3.6670    6.8644    1.4513 H   0  0  0  0  0  0  0  0  0  0  0  0
    5.6200    8.8256    2.6869 H   0  0  0  0  0  0  0  0  0  0  0  0
    5.2432    7.1235    3.1146 H   0  0  0  0  0  0  0  0  0  0  0  0
    4.3785    7.8548    5.3255 H   0  0  0  0  0  0  0  0  0  0  0  0
    6.0720    8.4080    5.1000 H   0  0  0  0  0  0  0  0  0  0  0  0
    6.0351   10.3651    6.3087 H   0  0  0  0  0  0  0  0  0  0  0  0
    4.4140    9.9576    6.9481 H   0  0  0  0  0  0  0  0  0  0  0  0
    4.8559   12.4775    6.9215 H   0  0  0  0  0  0  0  0  0  0  0  0
    5.0681   12.3611    5.1483 H   0  0  0  0  0  0  0  0  0  0  0  0
    2.3464   11.2694    7.5157 H   0  0  0  0  0  0  0  0  0  0  0  0
    2.7792   13.0109    7.5772 H   0  0  0  0  0  0  0  0  0  0  0  0
    1.0001   13.4827    5.8785 H   0  0  0  0  0  0  0  0  0  0  0  0
    0.3201   12.7205    7.3566 H   0  0  0  0  0  0  0  0  0  0  0  0
   -1.4924   11.6981    6.2412 H   0  0  0  0  0  0  0  0  0  0  0  0
   -0.9988   12.5201    4.7214 H   0  0  0  0  0  0  0  0  0  0  0  0
   -2.3141   10.4395    4.2571 H   0  0  0  0  0  0  0  0  0  0  0  0
   -1.0710    9.4792    5.1340 H   0  0  0  0  0  0  0  0  0  0  0  0
   -0.7596    8.4086    2.8204 H   0  0  0  0  0  0  0  0  0  0  0  0
   -1.8820    9.6095    2.1068 H   0  0  0  0  0  0  0  0  0  0  0  0
    0.0786   10.6739    0.9286 H   0  0  0  0  0  0  0  0  0  0  0  0
   -0.2313    9.0005    0.3637 H   0  0  0  0  0  0  0  0  0  0  0  0
  1  2  1  0  0  0  0
  3 10  1  0  0  0  0
  5 13  1  0  0  0  0
  6 15  1  0  0  0  0
  7 16  1  0  0  0  0
  7 17  1  0  0  0  0
  8 18  1  0  0  0  0
  9 20  1  0  0  0  0
 10  1  1  0  0  0  0
 11  4  1  0  0  0  0
 11 12  1  0  0  0  0
 11 24  1  0  0  0  0
 12  5  1  0  0  0  0
 13 14  1  0  0  0  0
 14  6  1  0  0  0  0
 14 30  1  0  0  0  0
 14 29  1  0  0  0  0
 15 31  1  0  0  0  0
 15 32  1  0  0  0  0
 16 15  1  0  0  0  0
 16 33  1  0  0  0  0
 17 35  1  0  0  0  0
 17 36  1  0  0  0  0
 18 17  1  0  0  0  0
 18 38  1  0  0  0  0
 19  8  1  0  0  0  0
 19 39  1  0  0  0  0
 20 42  1  0  0  0  0
 20 19  1  0  0  0  0
 21 43  1  0  0  0  0
 21  9  1  0  0  0  0
 22  4  1  0  0  0  0
 22 21  1  0  0  0  0
 23 11  1  0  0  0  0
 25 12  1  0  0  0  0
 26 12  1  0  0  0  0
 27 13  1  0  0  0  0
 28 13  1  0  0  0  0
 34 16  1  0  0  0  0
 37 18  1  0  0  0  0
 40 19  1  0  0  0  0
 41 20  1  0  0  0  0
 44 21  1  0  0  0  0
 45 22  1  0  0  0  0
 46 22  1  0  0  0  0
M  END
$$$$
