CSD_code = HANVEA | q = 0 | S = 0 | Stoichiometry = C10H16I2N4Pd | MND = 4
 OpenBabel04212202043D

 33 34  0  0  1  0  0  0  0  0999 V2000
    3.5347    2.6616    1.5008 I   0  0  0  0  0  0  0  0  0  0  0  0
    3.8288    0.4921    4.7285 I   0  0  0  0  0  0  0  0  0  0  0  0
    5.2898    1.0922    2.6428 Pd  0  0  0  0  0  0  0  0  0  0  0  0
    7.1963    2.9265    1.3538 N   0  0  0  0  0  0  0  0  0  0  0  0
    6.7427    1.3345   -0.0210 N   0  0  0  0  0  0  0  0  0  0  0  0
    7.5130   -0.2535    4.2263 N   0  0  0  0  0  0  0  0  0  0  0  0
    6.3306   -1.6279    3.0673 N   0  0  0  0  0  0  0  0  0  0  0  0
    6.5346    1.7616    1.2348 C   0  0  2  0  0  3  0  0  0  0  0  0
    7.8277    3.2265    0.1742 C   0  0  0  0  0  0  0  0  0  0  0  0
    8.4065    4.1175    0.0450 H   0  0  0  0  0  0  0  0  0  0  0  0
    7.5444    2.2248   -0.6896 C   0  0  0  0  0  0  0  0  0  0  0  0
    7.8322    2.0802   -1.7103 H   0  0  0  0  0  0  0  0  0  0  0  0
    7.1161    3.7914    2.5029 C   0  0  0  0  0  0  0  0  0  0  0  0
    6.3508    3.3909    3.1930 H   0  0  0  0  0  0  0  0  0  0  0  0
    6.8072    4.7910    2.1928 H   0  0  0  0  0  0  0  0  0  0  0  0
    8.0782    3.8556    3.0168 H   0  0  0  0  0  0  0  0  0  0  0  0
    6.1156    0.1733   -0.5916 C   0  0  0  0  0  0  0  0  0  0  0  0
    6.7631   -0.7045   -0.5103 H   0  0  0  0  0  0  0  0  0  0  0  0
    5.8892    0.3549   -1.6414 H   0  0  0  0  0  0  0  0  0  0  0  0
    5.1753   -0.0128   -0.0559 H   0  0  0  0  0  0  0  0  0  0  0  0
    6.5218   -0.3214    3.3232 C   0  0  0  0  0  0  0  0  0  0  0  0
    7.9538   -1.5164    4.5309 C   0  0  0  0  0  0  0  0  0  0  0  0
    8.7392   -1.6936    5.2361 H   0  0  0  0  0  0  0  0  0  0  0  0
    7.2090   -2.3804    3.8038 C   0  0  0  0  0  0  0  0  0  0  0  0
    7.2239   -3.4497    3.7595 H   0  0  0  0  0  0  0  0  0  0  0  0
    7.9515    0.9650    4.8511 C   0  0  0  0  0  0  0  0  0  0  0  0
    8.8047    1.3958    4.3194 H   0  0  0  0  0  0  0  0  0  0  0  0
    8.2358    0.7682    5.8839 H   0  0  0  0  0  0  0  0  0  0  0  0
    7.1170    1.6788    4.8457 H   0  0  0  0  0  0  0  0  0  0  0  0
    5.2586   -2.1477    2.2578 C   0  0  0  0  0  0  0  0  0  0  0  0
    4.6899   -2.8855    2.8262 H   0  0  0  0  0  0  0  0  0  0  0  0
    5.6416   -2.6132    1.3465 H   0  0  0  0  0  0  0  0  0  0  0  0
    4.5799   -1.3156    1.9944 H   0  0  0  0  0  0  0  0  0  0  0  0
  1  3  1  0  0  0  0
  3 21  2  0  0  0  0
  3  2  1  0  0  0  0
  4 13  1  0  0  0  0
  5  8  1  0  0  0  0
  6 22  1  0  0  0  0
  6 26  1  0  0  0  0
  7 21  1  0  0  0  0
  7 24  1  0  0  0  0
  8  4  1  0  0  0  0
  8  3  1  6  0  0  0
  9  4  1  0  0  0  0
 10  9  1  0  0  0  0
 11  5  1  0  0  0  0
 11  9  2  0  0  0  0
 12 11  1  0  0  0  0
 13 16  1  0  0  0  0
 13 14  1  0  0  0  0
 15 13  1  0  0  0  0
 17 18  1  0  0  0  0
 17 20  1  0  0  0  0
 17  5  1  0  0  0  0
 19 17  1  0  0  0  0
 21  6  1  0  0  0  0
 22 23  1  0  0  0  0
 24 22  2  0  0  0  0
 25 24  1  0  0  0  0
 26 28  1  0  0  0  0
 27 26  1  0  0  0  0
 29 26  1  0  0  0  0
 30 31  1  0  0  0  0
 30  7  1  0  0  0  0
 32 30  1  0  0  0  0
 33 30  1  0  0  0  0
M  END
$$$$
