CSD_code = HANXEZ | q = 0 | S = 0 | Stoichiometry = C15H26Cl2N2OTi | MND = 6
 OpenBabel04212202043D

 47 49  0  0  1  0  0  0  0  0999 V2000
    2.8585    1.1030    2.9761 Ti  0  0  0  0  0  0  0  0  0  0  0  0
    2.9071    3.4203    3.3023 Cl  0  0  0  0  0  0  0  0  0  0  0  0
    3.0051    1.1770    0.7744 Cl  0  0  0  0  0  0  0  0  0  0  0  0
    4.4515    0.8800    3.4564 O   0  0  0  0  0  0  0  0  0  0  0  0
    2.1545    0.8960    5.0839 N   0  0  1  0  0  4  0  0  0  0  0  0
    0.5791    1.4582    2.6788 N   0  0  0  0  0  4  0  0  0  0  0  0
    2.4454   -0.9209    3.0887 C   0  0  0  0  0  0  0  0  0  0  0  0
    2.4122   -1.4249    4.3954 C   0  0  0  0  0  0  0  0  0  0  0  0
    2.2146   -2.7714    4.6694 C   0  0  0  0  0  0  0  0  0  0  0  0
    2.1850   -3.1209    5.6938 H   0  0  0  0  0  0  0  0  0  0  0  0
    2.0668   -3.6678    3.6245 C   0  0  0  0  0  0  0  0  0  0  0  0
    1.9141   -4.7177    3.8289 H   0  0  0  0  0  0  0  0  0  0  0  0
    2.1260   -3.2081    2.3204 C   0  0  0  0  0  0  0  0  0  0  0  0
    2.0272   -3.9063    1.5009 H   0  0  0  0  0  0  0  0  0  0  0  0
    2.3120   -1.8566    2.0615 C   0  0  0  0  0  0  0  0  0  0  0  0
    2.3570   -1.5262    1.0288 H   0  0  0  0  0  0  0  0  0  0  0  0
    2.6441   -0.4250    5.5012 C   0  0  0  0  0  0  0  0  0  0  0  0
    2.1668   -0.7369    6.4459 H   0  0  0  0  0  0  0  0  0  0  0  0
    3.7249   -0.3438    5.6753 H   0  0  0  0  0  0  0  0  0  0  0  0
    2.6831    1.9138    5.9909 C   0  0  0  0  0  0  0  0  0  0  0  0
    3.7679    1.9648    5.8787 H   0  0  0  0  0  0  0  0  0  0  0  0
    2.4352    1.6728    7.0353 H   0  0  0  0  0  0  0  0  0  0  0  0
    2.2760    2.8925    5.7404 H   0  0  0  0  0  0  0  0  0  0  0  0
    0.6867    0.9077    5.0938 C   0  0  0  0  0  0  0  0  0  0  0  0
    0.3290   -0.1091    4.9031 H   0  0  0  0  0  0  0  0  0  0  0  0
    0.3093    1.2183    6.0801 H   0  0  0  0  0  0  0  0  0  0  0  0
    0.1399    1.8524    4.0241 C   0  0  0  0  0  0  0  0  0  0  0  0
   -0.9621    1.8719    4.0830 H   0  0  0  0  0  0  0  0  0  0  0  0
    0.5164    2.8629    4.2133 H   0  0  0  0  0  0  0  0  0  0  0  0
   -0.1931    0.3035    2.2080 C   0  0  0  0  0  0  0  0  0  0  0  0
    0.1569    0.0246    1.2138 H   0  0  0  0  0  0  0  0  0  0  0  0
   -1.2633    0.5533    2.1498 H   0  0  0  0  0  0  0  0  0  0  0  0
   -0.0696   -0.5574    2.8629 H   0  0  0  0  0  0  0  0  0  0  0  0
    0.2827    2.5597    1.7511 C   0  0  0  0  0  0  0  0  0  0  0  0
    0.8376    3.4527    2.0380 H   0  0  0  0  0  0  0  0  0  0  0  0
   -0.7928    2.7872    1.7523 H   0  0  0  0  0  0  0  0  0  0  0  0
    0.5840    2.2756    0.7426 H   0  0  0  0  0  0  0  0  0  0  0  0
    5.7573    0.7348    3.0365 C   0  0  0  0  0  0  0  0  0  0  0  0
    6.4052    0.6273    3.9305 H   0  0  0  0  0  0  0  0  0  0  0  0
    6.1791    1.9861    2.2541 C   0  0  0  0  0  0  0  0  0  0  0  0
    5.5496    2.0829    1.3675 H   0  0  0  0  0  0  0  0  0  0  0  0
    7.2213    1.9176    1.9527 H   0  0  0  0  0  0  0  0  0  0  0  0
    6.0426    2.8706    2.8767 H   0  0  0  0  0  0  0  0  0  0  0  0
    5.8768   -0.5274    2.1709 C   0  0  0  0  0  0  0  0  0  0  0  0
    6.9065   -0.6755    1.8559 H   0  0  0  0  0  0  0  0  0  0  0  0
    5.2378   -0.4178    1.2934 H   0  0  0  0  0  0  0  0  0  0  0  0
    5.5430   -1.3961    2.7388 H   0  0  0  0  0  0  0  0  0  0  0  0
  1  7  1  0  0  0  0
  1  2  1  0  0  0  0
  1  4  1  0  0  0  0
  1  5  1  0  0  0  0
  3  1  1  0  0  0  0
  5 24  1  0  0  0  0
  5 17  1  0  0  0  0
  5 20  1  1  0  0  0
  6  1  1  0  0  0  0
  6 27  1  0  0  0  0
  7  8  1  0  0  0  0
  8  9  2  0  0  0  0
  8 17  1  0  0  0  0
  9 10  1  0  0  0  0
 11 12  1  0  0  0  0
 11  9  1  0  0  0  0
 13 11  2  0  0  0  0
 14 13  1  0  0  0  0
 15 13  1  0  0  0  0
 15  7  2  0  0  0  0
 16 15  1  0  0  0  0
 17 19  1  0  0  0  0
 17 18  1  0  0  0  0
 20 22  1  0  0  0  0
 21 20  1  0  0  0  0
 23 20  1  0  0  0  0
 24 26  1  0  0  0  0
 25 24  1  0  0  0  0
 27 28  1  0  0  0  0
 27 29  1  0  0  0  0
 27 24  1  0  0  0  0
 30  6  1  0  0  0  0
 30 33  1  0  0  0  0
 31 30  1  0  0  0  0
 32 30  1  0  0  0  0
 34 36  1  0  0  0  0
 34 35  1  0  0  0  0
 34  6  1  0  0  0  0
 37 34  1  0  0  0  0
 38  4  1  0  0  0  0
 38 39  1  0  0  0  0
 40 43  1  0  0  0  0
 40 38  1  0  0  0  0
 41 40  1  0  0  0  0
 42 40  1  0  0  0  0
 44 47  1  0  0  0  0
 44 38  1  0  0  0  0
 45 44  1  0  0  0  0
 46 44  1  0  0  0  0
M  END
$$$$
