CSD_code = HARKOC | q = 0 | S = 0 | Stoichiometry = C14H13AuClN3 | MND = 2
 OpenBabel04212202043D

 32 34  0  0  1  0  0  0  0  0999 V2000
    2.7216    0.6462    4.6857 Au  0  0  0  0  0  0  0  0  0  0  0  0
    2.8133   -1.2584    3.5027 Cl  0  0  0  0  0  0  0  0  0  0  0  0
    2.6875    2.3104    5.7956 C   0  0  1  0  0  3  0  0  0  0  0  0
    2.6457    0.7457    8.7921 C   0  0  0  0  0  0  0  0  0  0  0  0
    2.5798    1.2062   10.0336 N   0  0  0  0  0  0  0  0  0  0  0  0
    4.5026   -0.6521    9.3169 C   0  0  0  0  0  0  0  0  0  0  0  0
    5.2508   -1.3779    9.0349 H   0  0  0  0  0  0  0  0  0  0  0  0
    3.4486    0.7541   10.9208 C   0  0  0  0  0  0  0  0  0  0  0  0
    3.3463    1.1594   11.9188 H   0  0  0  0  0  0  0  0  0  0  0  0
    4.4304   -0.1761   10.6171 C   0  0  0  0  0  0  0  0  0  0  0  0
    5.1164   -0.5182   11.3758 H   0  0  0  0  0  0  0  0  0  0  0  0
    3.5946   -0.1830    8.3818 C   0  0  0  0  0  0  0  0  0  0  0  0
    3.6126   -0.5287    7.3588 H   0  0  0  0  0  0  0  0  0  0  0  0
    1.6448    1.3203    7.8161 C   0  0  0  0  0  0  0  0  0  0  0  0
    1.3212    0.5531    7.1085 H   0  0  0  0  0  0  0  0  0  0  0  0
    0.7867    1.7090    8.3700 H   0  0  0  0  0  0  0  0  0  0  0  0
    2.2401    2.3966    7.0630 N   0  0  0  0  0  0  0  0  0  0  0  0
    2.4711    3.6562    7.5684 C   0  0  0  0  0  0  0  0  0  0  0  0
    3.1903    3.5164    5.4681 N   0  0  0  0  0  0  0  0  0  0  0  0
    3.0767    4.3844    6.5315 C   0  0  0  0  0  0  0  0  0  0  0  0
    3.4371    5.7133    6.7004 C   0  0  0  0  0  0  0  0  0  0  0  0
    3.8996    6.2781    5.9068 H   0  0  0  0  0  0  0  0  0  0  0  0
    2.5884    5.5508    8.9665 C   0  0  0  0  0  0  0  0  0  0  0  0
    2.4152    6.0355    9.9149 H   0  0  0  0  0  0  0  0  0  0  0  0
    2.2229    4.2283    8.8073 C   0  0  0  0  0  0  0  0  0  0  0  0
    1.7856    3.6562    9.6090 H   0  0  0  0  0  0  0  0  0  0  0  0
    3.1793    6.2797    7.9337 C   0  0  0  0  0  0  0  0  0  0  0  0
    3.4455    7.3112    8.1058 H   0  0  0  0  0  0  0  0  0  0  0  0
    3.7616    3.8661    4.1990 C   0  0  0  0  0  0  0  0  0  0  0  0
    4.8007    4.1758    4.3253 H   0  0  0  0  0  0  0  0  0  0  0  0
    3.2001    4.6847    3.7449 H   0  0  0  0  0  0  0  0  0  0  0  0
    3.7224    2.9950    3.5464 H   0  0  0  0  0  0  0  0  0  0  0  0
  2  1  1  0  0  0  0
  3  1  1  1  0  0  0
  3 17  1  0  0  0  0
  4  5  1  0  0  0  0
  5  8  2  0  0  0  0
  6 10  2  0  0  0  0
  7  6  1  0  0  0  0
  8  9  1  0  0  0  0
 10  8  1  0  0  0  0
 10 11  1  0  0  0  0
 12  4  2  0  0  0  0
 12  6  1  0  0  0  0
 13 12  1  0  0  0  0
 14 16  1  0  0  0  0
 14  4  1  0  0  0  0
 15 14  1  0  0  0  0
 17 18  1  0  0  0  0
 17 14  1  0  0  0  0
 18 25  1  0  0  0  0
 19  3  1  0  0  0  0
 19 20  1  0  0  0  0
 20 21  1  0  0  0  0
 20 18  2  0  0  0  0
 21 27  2  0  0  0  0
 22 21  1  0  0  0  0
 23 24  1  0  0  0  0
 25 23  2  0  0  0  0
 25 26  1  0  0  0  0
 27 28  1  0  0  0  0
 27 23  1  0  0  0  0
 29 30  1  0  0  0  0
 29 19  1  0  0  0  0
 31 29  1  0  0  0  0
 32 29  1  0  0  0  0
M  END
$$$$
