CSD_code = HARKUI | q = 0 | S = 0 | Stoichiometry = C14H13Cl2N3Pt | MND = 4
 OpenBabel04212202043D

 33 36  0  0  1  0  0  0  0  0999 V2000
    6.9514    2.9978    5.2933 Pt  0  0  0  0  0  0  0  0  0  0  0  0
    8.3095    4.7167    5.7766 Cl  0  0  0  0  0  0  0  0  0  0  0  0
    7.5915    1.9535    7.2063 Cl  0  0  0  0  0  0  0  0  0  0  0  0
    4.9451    3.7575    3.3715 N   0  0  0  0  0  0  0  0  0  0  0  0
    5.6921    1.4515    4.9204 N   0  0  0  0  0  0  0  0  0  0  0  0
    5.9469    5.4054    0.4040 C   0  0  0  0  0  0  0  0  0  0  0  0
    6.8842    5.7637    0.0104 H   0  0  0  0  0  0  0  0  0  0  0  0
    5.8752    4.7759    1.6375 C   0  0  0  0  0  0  0  0  0  0  0  0
    3.4702    4.4658    1.4358 C   0  0  0  0  0  0  0  0  0  0  0  0
    2.5240    4.1150    1.8167 H   0  0  0  0  0  0  0  0  0  0  0  0
    4.6492    4.3106    2.1483 C   0  0  0  0  0  0  0  0  0  0  0  0
    4.7661    5.5562   -0.2985 C   0  0  0  0  0  0  0  0  0  0  0  0
    4.7819    6.0428   -1.2612 H   0  0  0  0  0  0  0  0  0  0  0  0
    4.4376    1.6741    4.5041 C   0  0  2  0  0  3  0  0  0  0  0  0
    3.5506    0.6362    4.2745 C   0  0  0  0  0  0  0  0  0  0  0  0
    2.5465    0.8498    3.9425 H   0  0  0  0  0  0  0  0  0  0  0  0
    6.8382    4.4703    2.5729 N   0  0  0  0  0  0  0  0  0  0  0  0
    6.2745    3.8530    3.6241 C   0  0  0  0  0  0  0  0  0  0  0  0
    6.0968    0.1955    5.1138 C   0  0  0  0  0  0  0  0  0  0  0  0
    7.1127    0.0707    5.4620 H   0  0  0  0  0  0  0  0  0  0  0  0
    5.2634   -0.8899    4.9142 C   0  0  0  0  0  0  0  0  0  0  0  0
    5.6311   -1.8870    5.0933 H   0  0  0  0  0  0  0  0  0  0  0  0
    3.9625   -0.6711    4.4896 C   0  0  0  0  0  0  0  0  0  0  0  0
    3.2834   -1.4935    4.3278 H   0  0  0  0  0  0  0  0  0  0  0  0
    3.5525    5.0951    0.2073 C   0  0  0  0  0  0  0  0  0  0  0  0
    2.6543    5.2338   -0.3743 H   0  0  0  0  0  0  0  0  0  0  0  0
    4.0407    3.1172    4.2963 C   0  0  0  0  0  0  0  0  0  0  0  0
    3.0230    3.1874    3.9116 H   0  0  0  0  0  0  0  0  0  0  0  0
    4.0991    3.6391    5.2641 H   0  0  0  0  0  0  0  0  0  0  0  0
    8.2359    4.7676    2.4160 C   0  0  0  0  0  0  0  0  0  0  0  0
    8.7521    4.4922    3.3358 H   0  0  0  0  0  0  0  0  0  0  0  0
    8.3705    5.8349    2.2420 H   0  0  0  0  0  0  0  0  0  0  0  0
    8.6460    4.2096    1.5728 H   0  0  0  0  0  0  0  0  0  0  0  0
  1  2  1  0  0  0  0
  1  3  1  0  0  0  0
  4 18  1  0  0  0  0
  4 27  1  0  0  0  0
  5 19  1  0  0  0  0
  5  1  1  0  0  0  0
  6  8  1  0  0  0  0
  7  6  1  0  0  0  0
  8 11  2  0  0  0  0
  8 17  1  0  0  0  0
  9 10  1  0  0  0  0
  9 11  1  0  0  0  0
 11  4  1  0  0  0  0
 12 25  1  0  0  0  0
 12  6  2  0  0  0  0
 13 12  1  0  0  0  0
 14 15  1  6  0  0  0
 14  5  1  0  0  0  0
 15 23  2  0  0  0  0
 16 15  1  0  0  0  0
 17 18  1  0  0  0  0
 18  1  2  0  0  0  0
 19 20  1  0  0  0  0
 21 22  1  0  0  0  0
 21 19  2  0  0  0  0
 23 21  1  0  0  0  0
 24 23  1  0  0  0  0
 25  9  2  0  0  0  0
 26 25  1  0  0  0  0
 27 14  1  0  0  0  0
 27 29  1  0  0  0  0
 28 27  1  0  0  0  0
 30 17  1  0  0  0  0
 30 31  1  0  0  0  0
 32 30  1  0  0  0  0
 33 30  1  0  0  0  0
M  END
$$$$
