CSD_code = HARPUL | q = 0 | S = 0 | Stoichiometry = C10H14Cl3NOW | MND = 6
 OpenBabel04212202043D

 30 31  0  0  1  0  0  0  0  0999 V2000
    2.2494    1.7369    6.8223 W   0  0  0  0  0  0  0  0  0  0  0  0
    3.9043    1.6688    6.6470 O   0  0  0  0  0  1  0  0  0  0  0  0
   -0.0355    1.8038    7.5489 N   0  0  0  0  0  4  0  0  0  0  0  0
   -1.4125    2.6202    9.5386 C   0  0  0  0  0  0  0  0  0  0  0  0
    2.1648    3.1748    8.3859 C   0  0  0  0  0  0  0  0  0  0  0  0
    3.1724    4.1323    8.5946 C   0  0  0  0  0  0  0  0  0  0  0  0
    3.0649    5.1172    9.5624 C   0  0  0  0  0  0  0  0  0  0  0  0
    1.9332    5.1780   10.3563 C   0  0  0  0  0  0  0  0  0  0  0  0
    0.9134    4.2570   10.1815 C   0  0  0  0  0  0  0  0  0  0  0  0
    1.0222    3.2738    9.2082 C   0  0  0  0  0  0  0  0  0  0  0  0
   -0.0414    2.2058    8.9975 C   0  0  2  0  0  0  0  0  0  0  0  0
   -0.7475    0.5187    7.3943 C   0  0  0  0  0  0  0  0  0  0  0  0
   -0.7556    2.8081    6.7392 C   0  0  0  0  0  0  0  0  0  0  0  0
    2.2500   -0.0272    8.3859 Cl  0  0  0  0  0  0  0  0  0  0  0  0
    1.4360    0.4079    5.1675 Cl  0  0  0  0  0  0  0  0  0  0  0  0
    1.9131    3.5640    5.3622 Cl  0  0  0  0  0  0  0  0  0  0  0  0
    4.0614    4.0890    7.9708 H   0  0  0  0  0  0  0  0  0  0  0  0
    3.8596    5.8355    9.6960 H   0  0  0  0  0  0  0  0  0  0  0  0
    1.8396    5.9420   11.1134 H   0  0  0  0  0  0  0  0  0  0  0  0
    0.0428    4.3182   10.8152 H   0  0  0  0  0  0  0  0  0  0  0  0
    0.2861    1.3108    9.5491 H   0  0  0  0  0  0  0  0  0  0  0  0
   -1.3771    2.6167   10.6241 H   0  0  0  0  0  0  0  0  0  0  0  0
   -2.1879    1.9188    9.2446 H   0  0  0  0  0  0  0  0  0  0  0  0
   -1.6898    3.6167    9.2053 H   0  0  0  0  0  0  0  0  0  0  0  0
   -0.7702    0.2390    6.3411 H   0  0  0  0  0  0  0  0  0  0  0  0
   -1.7804    0.5906    7.7473 H   0  0  0  0  0  0  0  0  0  0  0  0
   -0.2326   -0.2629    7.9552 H   0  0  0  0  0  0  0  0  0  0  0  0
   -0.3555    3.8054    6.9334 H   0  0  0  0  0  0  0  0  0  0  0  0
   -1.8262    2.8022    6.9665 H   0  0  0  0  0  0  0  0  0  0  0  0
   -0.6311    2.5804    5.6773 H   0  0  0  0  0  0  0  0  0  0  0  0
  1  3  1  0  0  0  0
  1 14  1  0  0  0  0
  1  5  1  0  0  0  0
  2  1  1  0  0  0  0
  3 11  1  0  0  0  0
  4 22  1  0  0  0  0
  5  6  2  0  0  0  0
  5 10  1  0  0  0  0
  6  7  1  0  0  0  0
  7 18  1  0  0  0  0
  7  8  2  0  0  0  0
  8 19  1  0  0  0  0
  9  8  1  0  0  0  0
  9 20  1  0  0  0  0
 10  9  2  0  0  0  0
 11 10  1  0  0  0  0
 11  4  1  0  0  0  0
 11 21  1  1  0  0  0
 12  3  1  0  0  0  0
 12 26  1  0  0  0  0
 12 27  1  0  0  0  0
 13 28  1  0  0  0  0
 13 29  1  0  0  0  0
 13  3  1  0  0  0  0
 15  1  1  0  0  0  0
 16  1  1  0  0  0  0
 17  6  1  0  0  0  0
 23  4  1  0  0  0  0
 24  4  1  0  0  0  0
 25 12  1  0  0  0  0
 30 13  1  0  0  0  0
M  END
$$$$
