CSD_code = HARSEA | q = 0 | S = 0 | Stoichiometry = C16H14ClN7O3Ru | MND = 6
 OpenBabel04212202043D

 42 47  0  0  1  0  0  0  0  0999 V2000
    4.1500    4.5238    3.6425 Ru  0  0  0  0  0  0  0  0  0  0  0  0
    3.2865    4.8504    1.5689 Cl  0  0  0  0  0  0  0  0  0  0  0  0
    0.2161    4.2884    4.6903 O   0  0  0  0  0  0  0  0  0  0  0  0
    5.9130    8.1291    2.9205 O   0  0  0  0  0  0  0  0  0  0  0  0
    5.3918    3.8075    6.0901 O   0  0  0  0  0  1  0  0  0  0  0  0
    3.1885    2.6447    3.5143 N   0  0  0  0  0  0  0  0  0  0  0  0
    1.2102    1.7023    3.6024 N   0  0  0  0  0  0  0  0  0  0  0  0
    2.3841    5.0293    4.3467 N   0  0  0  0  0  0  0  0  0  0  0  0
    4.5044    6.4583    3.6897 N   0  0  0  0  0  0  0  0  0  0  0  0
    7.4531    5.8991    1.6905 N   0  0  0  0  0  0  0  0  0  0  0  0
    6.0135    4.5467    2.6433 N   0  0  0  0  0  0  0  0  0  0  0  0
    4.8540    4.1571    5.1182 N   0  0  0  0  0  2  0  0  0  0  0  0
    3.3075    1.3784    3.0534 C   0  0  0  0  0  0  0  0  0  0  0  0
    4.2471    0.9829    2.7220 H   0  0  0  0  0  0  0  0  0  0  0  0
    2.0801    0.7800    3.1065 C   0  0  0  0  0  0  0  0  0  0  0  0
    1.7673   -0.2067    2.8334 H   0  0  0  0  0  0  0  0  0  0  0  0
    1.9062    2.8282    3.8397 C   0  0  2  0  0  3  0  0  0  0  0  0
    1.3842    4.1408    4.3470 C   0  0  0  0  0  0  0  0  0  0  0  0
    2.3013    6.3969    4.6017 C   0  0  0  0  0  0  0  0  0  0  0  0
    1.1886    7.0296    5.1464 C   0  0  0  0  0  0  0  0  0  0  0  0
    0.3229    6.4412    5.4032 H   0  0  0  0  0  0  0  0  0  0  0  0
    1.2026    8.3993    5.3435 C   0  0  0  0  0  0  0  0  0  0  0  0
    0.3356    8.8815    5.7693 H   0  0  0  0  0  0  0  0  0  0  0  0
    2.3138    9.1496    4.9958 C   0  0  0  0  0  0  0  0  0  0  0  0
    2.3151   10.2182    5.1494 H   0  0  0  0  0  0  0  0  0  0  0  0
    3.4293    8.5420    4.4466 C   0  0  0  0  0  0  0  0  0  0  0  0
    4.2930    9.1210    4.1631 H   0  0  0  0  0  0  0  0  0  0  0  0
    3.4405    7.1654    4.2469 C   0  0  0  0  0  0  0  0  0  0  0  0
    5.5677    6.9596    3.0515 C   0  0  0  0  0  0  0  0  0  0  0  0
    6.3594    5.8250    2.4695 C   0  0  2  0  0  3  0  0  0  0  0  0
    7.8061    4.6271    1.3580 C   0  0  0  0  0  0  0  0  0  0  0  0
    8.6514    4.4162    0.7360 H   0  0  0  0  0  0  0  0  0  0  0  0
    6.9014    3.7941    1.9539 C   0  0  0  0  0  0  0  0  0  0  0  0
    6.8388    2.7242    1.9309 H   0  0  0  0  0  0  0  0  0  0  0  0
   -0.1980    1.4969    3.8104 C   0  0  0  0  0  0  0  0  0  0  0  0
   -0.6234    2.4139    4.2173 H   0  0  0  0  0  0  0  0  0  0  0  0
   -0.3551    0.6751    4.5102 H   0  0  0  0  0  0  0  0  0  0  0  0
   -0.6827    1.2563    2.8634 H   0  0  0  0  0  0  0  0  0  0  0  0
    8.1326    7.0936    1.2662 C   0  0  0  0  0  0  0  0  0  0  0  0
    7.5986    7.9547    1.6679 H   0  0  0  0  0  0  0  0  0  0  0  0
    8.1492    7.1449    0.1769 H   0  0  0  0  0  0  0  0  0  0  0  0
    9.1579    7.0910    1.6388 H   0  0  0  0  0  0  0  0  0  0  0  0
  1  9  1  0  0  0  0
  1  8  1  0  0  0  0
  1 12  1  0  0  0  0
  2  1  1  0  0  0  0
  4 29  2  0  0  0  0
  6  1  1  0  0  0  0
  6 17  1  0  0  0  0
  7 35  1  0  0  0  0
  7 17  1  0  0  0  0
  8 18  1  0  0  0  0
  8 19  1  0  0  0  0
  9 28  1  0  0  0  0
 10 30  1  0  0  0  0
 11  1  1  0  0  0  0
 12  5  1  0  0  0  0
 13 15  2  0  0  0  0
 13  6  1  0  0  0  0
 14 13  1  0  0  0  0
 15  7  1  0  0  0  0
 16 15  1  0  0  0  0
 17 18  1  6  0  0  0
 18  3  2  0  0  0  0
 19 20  1  0  0  0  0
 20 22  2  0  0  0  0
 20 21  1  0  0  0  0
 22 23  1  0  0  0  0
 24 25  1  0  0  0  0
 24 22  1  0  0  0  0
 26 24  2  0  0  0  0
 27 26  1  0  0  0  0
 28 26  1  0  0  0  0
 28 19  2  0  0  0  0
 29  9  1  0  0  0  0
 30 11  1  0  0  0  0
 30 29  1  6  0  0  0
 31 10  1  0  0  0  0
 31 33  2  0  0  0  0
 32 31  1  0  0  0  0
 33 11  1  0  0  0  0
 34 33  1  0  0  0  0
 35 36  1  0  0  0  0
 35 37  1  0  0  0  0
 38 35  1  0  0  0  0
 39 42  1  0  0  0  0
 39 40  1  0  0  0  0
 39 10  1  0  0  0  0
 41 39  1  0  0  0  0
M  END
$$$$
