CSD_code = HASLAQ | q = 0 | S = 0 | Stoichiometry = C11H11Br3N2Zn | MND = 4
 OpenBabel04212202043D

 28 29  0  0  0  0  0  0  0  0999 V2000
   -0.8028   19.2986    4.1580 Zn  0  0  0  0  0  0  0  0  0  0  0  0
   -0.3775   18.4316    1.9059 Br  0  0  0  0  0  0  0  0  0  0  0  0
   -0.2158   21.5289    4.9914 Br  0  0  0  0  0  0  0  0  0  0  0  0
   -2.4243   17.9839    5.5910 Br  0  0  0  0  0  0  0  0  0  0  0  0
    2.4316   13.2336    9.9913 N   0  0  0  0  0  0  0  0  0  0  0  0
    0.8016   18.1456    5.2317 N   0  0  0  0  0  0  0  0  0  0  0  0
    2.6103   14.0415    7.7663 C   0  0  0  0  0  0  0  0  0  0  0  0
    2.9913   13.8988    6.7685 H   0  0  0  0  0  0  0  0  0  0  0  0
    2.8705   13.0978    8.7164 C   0  0  0  0  0  3  0  0  0  0  0  0
    3.4373   12.2080    8.4915 H   0  0  0  0  0  0  0  0  0  0  0  0
    1.7181   14.3391   10.3313 C   0  0  0  0  0  0  0  0  0  0  0  0
    1.3803   14.3942   11.3542 H   0  0  0  0  0  0  0  0  0  0  0  0
    1.4406   15.3172    9.4244 C   0  0  0  0  0  0  0  0  0  0  0  0
    0.8511   16.1661    9.7292 H   0  0  0  0  0  0  0  0  0  0  0  0
    1.8786   15.2041    8.0871 C   0  0  0  0  0  0  0  0  0  0  0  0
    1.5664   16.2188    7.1011 C   0  0  0  0  0  0  0  0  0  0  0  0
    1.4053   17.5630    7.4595 C   0  0  0  0  0  0  0  0  0  0  0  0
    1.5820   17.8968    8.4692 H   0  0  0  0  0  0  0  0  0  0  0  0
    1.0299   18.4775    6.4987 C   0  0  0  0  0  3  0  0  0  0  0  0
    0.8875   19.5188    6.7539 H   0  0  0  0  0  0  0  0  0  0  0  0
    1.0039   16.8837    4.8668 C   0  0  0  0  0  0  0  0  0  0  0  0
    0.8330   16.6539    3.8238 H   0  0  0  0  0  0  0  0  0  0  0  0
    1.3859   15.8961    5.7509 C   0  0  0  0  0  0  0  0  0  0  0  0
    1.4821   14.8812    5.4007 H   0  0  0  0  0  0  0  0  0  0  0  0
    2.6928   12.2267   10.9894 C   0  0  0  0  0  0  0  0  0  0  0  0
    3.3008   11.4297   10.5679 H   0  0  0  0  0  0  0  0  0  0  0  0
    1.7552   11.7997   11.3509 H   0  0  0  0  0  0  0  0  0  0  0  0
    3.2231   12.6634   11.8375 H   0  0  0  0  0  0  0  0  0  0  0  0
  1  3  1  0  0  0  0
  1  6  1  0  0  0  0
  1  4  1  0  0  0  0
  2  1  1  0  0  0  0
  5 11  1  0  0  0  0
  5 25  1  0  0  0  0
  6 19  1  0  0  0  0
  7 15  2  0  0  0  0
  7  9  1  0  0  0  0
  8  7  1  0  0  0  0
  9  5  1  0  0  0  0
 10  9  1  0  0  0  0
 11 12  1  0  0  0  0
 13 14  1  0  0  0  0
 13 11  2  0  0  0  0
 15 13  1  0  0  0  0
 16 17  2  0  0  0  0
 16 15  1  0  0  0  0
 17 18  1  0  0  0  0
 19 20  1  0  0  0  0
 19 17  1  0  0  0  0
 21  6  1  0  0  0  0
 21 23  2  0  0  0  0
 22 21  1  0  0  0  0
 23 16  1  0  0  0  0
 24 23  1  0  0  0  0
 25 27  1  0  0  0  0
 25 28  1  0  0  0  0
 26 25  1  0  0  0  0
M  END
$$$$
