CSD_code = HASMEW | q = 1 | S = 0 | Stoichiometry = C21H13ClF2N3Pt(1+) | MND = 4
 OpenBabel04212202043D

 41 46  0  0  0  0  0  0  0  0999 V2000
    5.2838    6.8743    7.3262 Pt  0  0  1  0  0  0  0  0  0  0  0  0
    5.5003    7.5516    9.4286 Cl  0  0  0  0  0  0  0  0  0  0  0  0
    2.7060    6.2362    1.2711 F   0  0  0  0  0  0  0  0  0  0  0  0
    4.2961    3.7099   -2.3298 F   0  0  0  0  0  0  0  0  0  0  0  0
    5.1049    6.2957    5.5295 N   0  0  0  0  0  0  0  0  0  0  0  0
    5.8486    4.9706    7.5856 N   0  0  0  0  0  0  0  0  0  0  0  0
    4.6584    8.6051    6.5363 N   0  0  0  0  0  0  0  0  0  0  0  0
    5.4006    5.0199    5.2366 C   0  0  0  0  0  0  0  0  0  0  0  0
    5.2789    4.5745    3.9287 C   0  0  0  0  0  0  0  0  0  0  0  0
    5.4838    3.5488    3.6713 H   0  0  0  0  0  0  0  0  0  0  0  0
    4.8552    5.4679    2.9364 C   0  0  0  0  0  0  0  0  0  0  0  0
    4.5676    6.7926    3.2883 C   0  0  0  0  0  0  0  0  0  0  0  0
    4.2591    7.4973    2.5354 H   0  0  0  0  0  0  0  0  0  0  0  0
    4.6948    7.1847    4.6125 C   0  0  0  0  0  0  0  0  0  0  0  0
    5.8222    4.2613    6.4225 C   0  0  0  0  0  0  0  0  0  0  0  0
    6.1765    2.9174    6.4035 C   0  0  0  0  0  0  0  0  0  0  0  0
    6.1501    2.3658    5.4782 H   0  0  0  0  0  0  0  0  0  0  0  0
    6.5603    2.2936    7.5803 C   0  0  0  0  0  0  0  0  0  0  0  0
    6.8366    1.2510    7.5787 H   0  0  0  0  0  0  0  0  0  0  0  0
    6.5817    3.0316    8.7541 C   0  0  0  0  0  0  0  0  0  0  0  0
    6.8739    2.5846    9.6899 H   0  0  0  0  0  0  0  0  0  0  0  0
    6.2178    4.3680    8.7118 C   0  0  0  0  0  3  0  0  0  0  0  0
    6.2199    4.9813    9.6045 H   0  0  0  0  0  0  0  0  0  0  0  0
    4.4300    8.5064    5.1967 C   0  0  0  0  0  0  0  0  0  0  0  0
    3.9691    9.5994    4.4724 C   0  0  0  0  0  0  0  0  0  0  0  0
    3.7840    9.5062    3.4150 H   0  0  0  0  0  0  0  0  0  0  0  0
    3.7441   10.8037    5.1209 C   0  0  0  0  0  0  0  0  0  0  0  0
    3.3851   11.6591    4.5706 H   0  0  0  0  0  0  0  0  0  0  0  0
    3.9864   10.8870    6.4836 C   0  0  0  0  0  0  0  0  0  0  0  0
    3.8245   11.8045    7.0250 H   0  0  0  0  0  0  0  0  0  0  0  0
    4.4419    9.7626    7.1535 C   0  0  0  0  0  0  0  0  0  0  0  0
    4.6409    9.7829    8.2179 H   0  0  0  0  0  0  0  0  0  0  0  0
    4.7129    5.0107    1.5502 C   0  0  0  0  0  0  0  0  0  0  0  0
    3.6404    5.4193    0.7524 C   0  0  0  0  0  0  0  0  0  0  0  0
    3.4771    4.9882   -0.5482 C   0  0  0  0  0  0  0  0  0  0  0  0
    2.6316    5.3102   -1.1341 H   0  0  0  0  0  0  0  0  0  0  0  0
    4.4297    4.1306   -1.0730 C   0  0  0  0  0  0  0  0  0  0  0  0
    5.5149    3.7018   -0.3233 C   0  0  0  0  0  0  0  0  0  0  0  0
    6.2402    3.0387   -0.7658 H   0  0  0  0  0  0  0  0  0  0  0  0
    5.6420    4.1376    0.9795 C   0  0  0  0  0  0  0  0  0  0  0  0
    6.4957    3.8244    1.5600 H   0  0  0  0  0  0  0  0  0  0  0  0
  1  6  1  0  0  0  0
  1  2  1  6  0  0  0
  4 37  1  0  0  0  0
  5  1  1  0  0  0  0
  6 22  1  0  0  0  0
  7 31  1  0  0  0  0
  7  1  1  0  0  0  0
  8  5  1  0  0  0  0
  8 15  1  0  0  0  0
  9  8  2  0  0  0  0
 10  9  1  0  0  0  0
 11 12  2  0  0  0  0
 11  9  1  0  0  0  0
 12 14  1  0  0  0  0
 13 12  1  0  0  0  0
 14 24  2  0  0  0  0
 14  5  1  0  0  0  0
 15  6  1  0  0  0  0
 16 15  2  0  0  0  0
 16 18  1  0  0  0  0
 17 16  1  0  0  0  0
 18 20  2  0  0  0  0
 19 18  1  0  0  0  0
 20 21  1  0  0  0  0
 22 20  1  0  0  0  0
 22 23  1  0  0  0  0
 24  7  1  0  0  0  0
 25 27  2  0  0  0  0
 25 24  1  0  0  0  0
 26 25  1  0  0  0  0
 27 29  1  0  0  0  0
 28 27  1  0  0  0  0
 29 30  1  0  0  0  0
 29 31  2  0  0  0  0
 31 32  1  0  0  0  0
 33 11  1  0  0  0  0
 34  3  1  0  0  0  0
 34 33  2  0  0  0  0
 35 34  1  0  0  0  0
 36 35  1  0  0  0  0
 37 35  2  0  0  0  0
 37 38  1  0  0  0  0
 38 40  2  0  0  0  0
 39 38  1  0  0  0  0
 40 33  1  0  0  0  0
 40 41  1  0  0  0  0
M  END
$$$$
