CSD_code = HASPEZ | q = 0 | S = 0 | Stoichiometry = C28H22ClN2PPt | MND = 4
 OpenBabel04212202043D

 55 60  0  0  0  0  0  0  0  0999 V2000
   12.0376    3.2184   10.3026 C   0  0  0  0  0  0  0  0  0  0  0  0
   12.1747    4.2246    9.9238 H   0  0  0  0  0  0  0  0  0  0  0  0
   13.0922    2.5011   10.8380 C   0  0  0  0  0  0  0  0  0  0  0  0
   14.0748    2.9416   10.8870 H   0  0  0  0  0  0  0  0  0  0  0  0
   12.8533    1.2160   11.3034 C   0  0  0  0  0  0  0  0  0  0  0  0
   13.6522    0.6256   11.7270 H   0  0  0  0  0  0  0  0  0  0  0  0
   11.5739    0.7019   11.2170 C   0  0  0  0  0  0  0  0  0  0  0  0
   11.3640   -0.2937   11.5727 H   0  0  0  0  0  0  0  0  0  0  0  0
   10.5507    1.4746   10.6683 C   0  0  0  0  0  0  0  0  0  0  0  0
    9.1608    1.0592   10.5272 C   0  0  0  0  0  0  0  0  0  0  0  0
    8.6786   -0.1859   10.9292 C   0  0  0  0  0  0  0  0  0  0  0  0
    9.3428   -0.9173   11.3659 H   0  0  0  0  0  0  0  0  0  0  0  0
    7.3427   -0.4940   10.7715 C   0  0  0  0  0  0  0  0  0  0  0  0
    6.9695   -1.4590   11.0820 H   0  0  0  0  0  0  0  0  0  0  0  0
    6.4823    0.4414   10.2168 C   0  0  0  0  0  0  0  0  0  0  0  0
    5.4344    0.2044   10.0979 H   0  0  0  0  0  0  0  0  0  0  0  0
    6.9589    1.6773    9.8140 C   0  0  0  0  0  0  0  0  0  0  0  0
    6.2602    2.3879    9.3870 H   0  0  0  0  0  0  0  0  0  0  0  0
    8.3007    2.0210    9.9507 C   0  0  0  0  0  0  0  0  0  0  0  0
    6.6981    3.8827    7.1808 C   0  0  0  0  0  0  0  0  0  0  0  0
    7.3814    2.8047    6.6274 C   0  0  0  0  0  0  0  0  0  0  0  0
    8.3383    2.5148    7.0524 H   0  0  0  0  0  0  0  0  0  0  0  0
    6.8079    2.1433    5.5558 C   0  0  0  0  0  0  0  0  0  0  0  0
    7.3051    1.3022    5.0944 H   0  0  0  0  0  0  0  0  0  0  0  0
    5.5793    2.5843    5.0851 C   0  0  0  0  0  0  0  0  0  0  0  0
    5.0946    2.0974    4.2532 H   0  0  0  0  0  0  0  0  0  0  0  0
    4.9858    3.6741    5.7056 C   0  0  0  0  0  0  0  0  0  0  0  0
    4.0305    4.0578    5.3707 H   0  0  0  0  0  0  0  0  0  0  0  0
    7.6543    6.4383    7.7923 C   0  0  0  0  0  0  0  0  0  0  0  0
    8.0401    6.5413    6.4602 C   0  0  0  0  0  0  0  0  0  0  0  0
    8.1836    5.6448    5.8716 H   0  0  0  0  0  0  0  0  0  0  0  0
    8.2545    7.7854    5.8975 C   0  0  0  0  0  0  0  0  0  0  0  0
    8.5554    7.8627    4.8627 H   0  0  0  0  0  0  0  0  0  0  0  0
    8.0964    8.9302    6.6613 C   0  0  0  0  0  0  0  0  0  0  0  0
    8.2711    9.9010    6.2210 H   0  0  0  0  0  0  0  0  0  0  0  0
    7.7281    8.8295    7.9928 C   0  0  0  0  0  0  0  0  0  0  0  0
    7.6194    9.7211    8.5930 H   0  0  0  0  0  0  0  0  0  0  0  0
    7.5097    7.5882    8.5607 C   0  0  0  0  0  0  0  0  0  0  0  0
    7.2385    7.5044    9.6044 H   0  0  0  0  0  0  0  0  0  0  0  0
    6.1411    5.1022    9.7675 C   0  0  0  0  0  0  0  0  0  0  0  0
    4.8911    5.5960    9.4124 C   0  0  0  0  0  0  0  0  0  0  0  0
    4.6695    5.7791    8.3719 H   0  0  0  0  0  0  0  0  0  0  0  0
    3.9477    5.8289   10.3971 C   0  0  0  0  0  0  0  0  0  0  0  0
    2.9723    6.2071   10.1274 H   0  0  0  0  0  0  0  0  0  0  0  0
    4.2499    5.5851   11.7281 C   0  0  0  0  0  0  0  0  0  0  0  0
    3.5089    5.7732   12.4913 H   0  0  0  0  0  0  0  0  0  0  0  0
    5.5004    5.1045   12.0830 C   0  0  0  0  0  0  0  0  0  0  0  0
    5.7355    4.9199   13.1208 H   0  0  0  0  0  0  0  0  0  0  0  0
    6.4459    4.8628   11.1034 C   0  0  0  0  0  0  0  0  0  0  0  0
    7.4357    4.4834   11.3539 H   0  0  0  0  0  0  0  0  0  0  0  0
   10.8078    2.7235   10.2192 N   0  0  0  0  0  0  0  0  0  0  0  0
    5.5312    4.3134    6.7247 N   0  0  0  0  0  0  0  0  0  0  0  0
    9.2386    3.7233    9.4355 Pt  0  0  2  0  0  0  0  0  0  0  0  0
   10.4786    5.6547    8.8856 Cl  0  0  0  0  0  0  0  0  0  0  0  0
    7.4628    4.8028    8.5606 P   0  0  0  0  0  4  0  0  0  0  0  0
  1  3  2  0  0  0  0
  2  1  1  0  0  0  0
  3  4  1  0  0  0  0
  3  5  1  0  0  0  0
  5  6  1  0  0  0  0
  7  5  2  0  0  0  0
  7  8  1  0  0  0  0
  9  7  1  0  0  0  0
 10  9  2  0  0  0  0
 10 11  1  0  0  0  0
 11 12  1  0  0  0  0
 13 11  2  0  0  0  0
 13 14  1  0  0  0  0
 15 13  1  0  0  0  0
 16 15  1  0  0  0  0
 17 19  1  0  0  0  0
 17 15  2  0  0  0  0
 18 17  1  0  0  0  0
 19 10  1  0  0  0  0
 20 55  1  0  0  0  0
 21 22  1  0  0  0  0
 21 20  2  0  0  0  0
 23 21  1  0  0  0  0
 24 23  1  0  0  0  0
 25 23  2  0  0  0  0
 25 27  1  0  0  0  0
 26 25  1  0  0  0  0
 27 52  2  0  0  0  0
 28 27  1  0  0  0  0
 29 55  1  0  0  0  0
 29 38  1  0  0  0  0
 30 29  2  0  0  0  0
 31 30  1  0  0  0  0
 32 30  1  0  0  0  0
 32 34  2  0  0  0  0
 33 32  1  0  0  0  0
 34 36  1  0  0  0  0
 35 34  1  0  0  0  0
 36 38  2  0  0  0  0
 36 37  1  0  0  0  0
 38 39  1  0  0  0  0
 40 49  1  0  0  0  0
 41 40  2  0  0  0  0
 41 43  1  0  0  0  0
 42 41  1  0  0  0  0
 43 45  2  0  0  0  0
 44 43  1  0  0  0  0
 45 47  1  0  0  0  0
 45 46  1  0  0  0  0
 47 48  1  0  0  0  0
 49 50  1  0  0  0  0
 49 47  2  0  0  0  0
 51  1  1  0  0  0  0
 51  9  1  0  0  0  0
 52 20  1  0  0  0  0
 53 54  1  1  0  0  0
 53 19  2  0  0  0  0
 53 51  1  0  0  0  0
 55 53  1  0  0  0  0
 55 40  1  0  0  0  0
M  END
$$$$
