CSD_code = HATDUE | q = 0 | S = 0 | Stoichiometry = C23H20ClN5NiO | MND = 6
 OpenBabel04212202043D

 51 58  0  0  1  0  0  0  0  0999 V2000
    4.6881    3.3265   16.8871 Ni  0  0  0  0  0  0  0  0  0  0  0  0
    3.2280    2.6772   18.2288 Cl  0  0  0  0  0  0  0  0  0  0  0  0
    3.5473    3.2497   15.3268 N   0  0  0  0  0  0  0  0  0  0  0  0
    6.0311    3.8129   15.7076 N   0  0  0  0  0  0  0  0  0  0  0  0
    6.1671    3.4722   18.3384 N   0  0  1  0  0  4  0  0  0  0  0  0
    4.4768    5.4512   17.7515 N   0  0  0  0  0  0  0  0  0  0  0  0
    5.6783    1.2529   16.6924 N   0  0  0  0  0  0  0  0  0  0  0  0
    8.3198    3.9276   15.5016 O   0  0  0  0  0  0  0  0  0  0  0  0
    2.2631    2.9943   15.2040 C   0  0  0  0  0  0  0  0  0  0  0  0
    1.6974    2.8594   16.1165 H   0  0  0  0  0  0  0  0  0  0  0  0
    1.6315    2.8855   13.9567 C   0  0  0  0  0  0  0  0  0  0  0  0
    0.5735    2.6767   13.9226 H   0  0  0  0  0  0  0  0  0  0  0  0
    2.3629    3.0387   12.8096 C   0  0  0  0  0  0  0  0  0  0  0  0
    1.9041    2.9537   11.8347 H   0  0  0  0  0  0  0  0  0  0  0  0
    3.7426    3.3123   12.9041 C   0  0  0  0  0  0  0  0  0  0  0  0
    4.5971    3.4809   11.7985 C   0  0  0  0  0  3  0  0  0  0  0  0
    4.1874    3.3993   10.8028 H   0  0  0  0  0  0  0  0  0  0  0  0
    5.9301    3.7432   11.9960 C   0  0  0  0  0  0  0  0  0  0  0  0
    6.5803    3.8679   11.1420 H   0  0  0  0  0  0  0  0  0  0  0  0
    6.4811    3.8587   13.2733 C   0  0  0  0  0  0  0  0  0  0  0  0
    7.5308    4.0654   13.3995 H   0  0  0  0  0  0  0  0  0  0  0  0
    5.6765    3.7042   14.3915 C   0  0  0  0  0  0  0  0  0  0  0  0
    4.2940    3.4182   14.2053 C   0  0  0  0  0  0  0  0  0  0  0  0
    7.2879    3.9264   16.1566 C   0  0  0  0  0  0  0  0  0  0  0  0
    7.3123    4.1182   17.6801 C   0  0  0  0  0  0  0  0  0  0  0  0
    8.2671    3.7584   18.0840 H   0  0  0  0  0  0  0  0  0  0  0  0
    7.2624    5.1992   17.8432 H   0  0  0  0  0  0  0  0  0  0  0  0
    5.7027    4.2756   19.4676 C   0  0  0  0  0  0  0  0  0  0  0  0
    6.5342    4.5538   20.1319 H   0  0  0  0  0  0  0  0  0  0  0  0
    4.9789    3.6816   20.0374 H   0  0  0  0  0  0  0  0  0  0  0  0
    4.9726    5.5040   18.9853 C   0  0  2  0  0  3  0  0  0  0  0  0
    4.7905    6.6067   19.8107 C   0  0  0  0  0  0  0  0  0  0  0  0
    5.2098    6.6145   20.8054 H   0  0  0  0  0  0  0  0  0  0  0  0
    4.0600    7.6820   19.3364 C   0  0  0  0  0  0  0  0  0  0  0  0
    3.8993    8.5515   19.9564 H   0  0  0  0  0  0  0  0  0  0  0  0
    3.5406    7.6204   18.0527 C   0  0  0  0  0  0  0  0  0  0  0  0
    2.9651    8.4362   17.6450 H   0  0  0  0  0  0  0  0  0  0  0  0
    3.7803    6.4839   17.2987 C   0  0  0  0  0  0  0  0  0  0  0  0
    3.4020    6.3938   16.2886 H   0  0  0  0  0  0  0  0  0  0  0  0
    6.5228    2.1140   18.7566 C   0  0  0  0  0  0  0  0  0  0  0  0
    5.6863    1.7088   19.3364 H   0  0  0  0  0  0  0  0  0  0  0  0
    7.4311    2.1140   19.3773 H   0  0  0  0  0  0  0  0  0  0  0  0
    6.7045    1.2401   17.5433 C   0  0  2  0  0  3  0  0  0  0  0  0
    7.8468    0.4881   17.3201 C   0  0  0  0  0  0  0  0  0  0  0  0
    8.6596    0.5053   18.0301 H   0  0  0  0  0  0  0  0  0  0  0  0
    7.9278   -0.2734   16.1650 C   0  0  0  0  0  0  0  0  0  0  0  0
    8.8118   -0.8568   15.9549 H   0  0  0  0  0  0  0  0  0  0  0  0
    6.8573   -0.2663   15.2873 C   0  0  0  0  0  0  0  0  0  0  0  0
    6.8779   -0.8452   14.3776 H   0  0  0  0  0  0  0  0  0  0  0  0
    5.7515    0.5088   15.5995 C   0  0  0  0  0  0  0  0  0  0  0  0
    4.8894    0.5358   14.9450 H   0  0  0  0  0  0  0  0  0  0  0  0
  1  6  1  0  0  0  0
  1  2  1  0  0  0  0
  1  5  1  0  0  0  0
  3  1  1  0  0  0  0
  4 24  1  0  0  0  0
  4  1  1  0  0  0  0
  5 25  1  6  0  0  0
  5 40  1  0  0  0  0
  5 28  1  0  0  0  0
  6 31  1  0  0  0  0
  7  1  1  0  0  0  0
  7 43  1  0  0  0  0
  8 24  2  0  0  0  0
  9  3  1  0  0  0  0
  9 10  1  0  0  0  0
 11  9  2  0  0  0  0
 12 11  1  0  0  0  0
 13 15  2  0  0  0  0
 13 11  1  0  0  0  0
 14 13  1  0  0  0  0
 15 23  1  0  0  0  0
 16 18  1  0  0  0  0
 16 15  1  0  0  0  0
 17 16  1  0  0  0  0
 18 20  2  0  0  0  0
 19 18  1  0  0  0  0
 20 21  1  0  0  0  0
 20 22  1  0  0  0  0
 22  4  1  0  0  0  0
 23 22  2  0  0  0  0
 23  3  1  0  0  0  0
 24 25  1  0  0  0  0
 25 27  1  0  0  0  0
 25 26  1  0  0  0  0
 28 30  1  0  0  0  0
 28 29  1  0  0  0  0
 31 28  1  0  0  0  0
 31 32  1  1  0  0  0
 32 33  1  0  0  0  0
 34 32  2  0  0  0  0
 34 35  1  0  0  0  0
 36 34  1  0  0  0  0
 37 36  1  0  0  0  0
 38  6  1  0  0  0  0
 38 36  2  0  0  0  0
 39 38  1  0  0  0  0
 40 41  1  0  0  0  0
 40 42  1  0  0  0  0
 43 44  1  6  0  0  0
 43 40  1  0  0  0  0
 44 45  1  0  0  0  0
 46 44  2  0  0  0  0
 47 46  1  0  0  0  0
 48 50  2  0  0  0  0
 48 46  1  0  0  0  0
 49 48  1  0  0  0  0
 50  7  1  0  0  0  0
 51 50  1  0  0  0  0
M  END
$$$$
