CSD_code = HATMIB | q = 0 | S = 0 | Stoichiometry = C21H20BrCuN4S2 | MND = 3
 OpenBabel04212202043D

 49 53  0  0  1  0  0  0  0  0999 V2000
    1.6119    4.4139    5.9033 Br  0  0  0  0  0  0  0  0  0  0  0  0
    1.6718    4.5371    3.6206 Cu  0  0  0  0  0  0  0  0  0  0  0  0
    1.9001    3.0331    1.8128 S   0  0  0  0  0  0  0  0  0  0  0  0
    3.1872    6.2607    2.8573 S   0  0  0  0  0  0  0  0  0  0  0  0
    3.9706    3.5466    0.1724 N   0  0  0  0  0  0  0  0  0  0  0  0
    4.5562    3.4735    2.2745 N   0  0  0  0  0  0  0  0  0  0  0  0
    4.8500    4.6678    4.3208 N   0  0  0  0  0  0  0  0  0  0  0  0
    4.7793    6.7521    4.9701 N   0  0  0  0  0  0  0  0  0  0  0  0
    4.2608    5.8763    4.0806 C   0  0  1  0  0  3  0  0  0  0  0  0
    4.0985    8.4965    6.5306 C   0  0  0  0  0  0  0  0  0  0  0  0
    3.4222    2.1650   -1.7450 C   0  0  0  0  0  0  0  0  0  0  0  0
    3.4914    3.3692    1.4244 C   0  0  2  0  0  3  0  0  0  0  0  0
    5.3215    3.7714    0.2349 C   0  0  0  0  0  0  0  0  0  0  0  0
    5.9045    3.9379   -0.6467 H   0  0  0  0  0  0  0  0  0  0  0  0
    5.7160    4.8086    5.3834 C   0  0  0  0  0  0  0  0  0  0  0  0
    6.2689    3.9793    5.7706 H   0  0  0  0  0  0  0  0  0  0  0  0
    3.9000   -0.2681   -2.9953 C   0  0  0  0  0  0  0  0  0  0  0  0
    4.0830   -1.2136   -3.4836 H   0  0  0  0  0  0  0  0  0  0  0  0
    2.9230    0.9879   -1.2004 C   0  0  0  0  0  0  0  0  0  0  0  0
    2.3428    1.0274   -0.2906 H   0  0  0  0  0  0  0  0  0  0  0  0
    5.6870    3.7360    1.5324 C   0  0  0  0  0  0  0  0  0  0  0  0
    6.6409    3.8760    1.9965 H   0  0  0  0  0  0  0  0  0  0  0  0
    4.4055    9.9615    8.4123 C   0  0  0  0  0  0  0  0  0  0  0  0
    4.8561   10.8438    8.8431 H   0  0  0  0  0  0  0  0  0  0  0  0
    5.6689    6.0965    5.7797 C   0  0  0  0  0  0  0  0  0  0  0  0
    6.1784    6.5992    6.5748 H   0  0  0  0  0  0  0  0  0  0  0  0
    3.1822    3.4742   -1.0352 C   0  0  0  0  0  0  0  0  0  0  0  0
    3.4470    4.3192   -1.6760 H   0  0  0  0  0  0  0  0  0  0  0  0
    2.1334    3.5586   -0.7353 H   0  0  0  0  0  0  0  0  0  0  0  0
    4.1651    2.1139   -2.9156 C   0  0  0  0  0  0  0  0  0  0  0  0
    4.5538    3.0259   -3.3472 H   0  0  0  0  0  0  0  0  0  0  0  0
    3.1618   -0.2231   -1.8241 C   0  0  0  0  0  0  0  0  0  0  0  0
    2.7673   -1.1330   -1.3976 H   0  0  0  0  0  0  0  0  0  0  0  0
    4.6754    9.6249    7.0971 C   0  0  0  0  0  0  0  0  0  0  0  0
    5.3339   10.2470    6.5065 H   0  0  0  0  0  0  0  0  0  0  0  0
    4.3999    0.9014   -3.5413 C   0  0  0  0  0  0  0  0  0  0  0  0
    4.9738    0.8710   -4.4555 H   0  0  0  0  0  0  0  0  0  0  0  0
    2.9899    8.0384    8.6119 C   0  0  0  0  0  0  0  0  0  0  0  0
    2.3320    7.4119    9.1936 H   0  0  0  0  0  0  0  0  0  0  0  0
    4.3857    8.1342    5.0959 C   0  0  0  0  0  0  0  0  0  0  0  0
    3.4901    8.2616    4.4771 H   0  0  0  0  0  0  0  0  0  0  0  0
    5.1764    8.7753    4.6897 H   0  0  0  0  0  0  0  0  0  0  0  0
    3.5642    9.1671    9.1724 C   0  0  0  0  0  0  0  0  0  0  0  0
    3.3570    9.4291   10.1994 H   0  0  0  0  0  0  0  0  0  0  0  0
    3.2517    7.7030    7.2956 C   0  0  0  0  0  0  0  0  0  0  0  0
    2.7952    6.8201    6.8748 H   0  0  0  0  0  0  0  0  0  0  0  0
    4.4904    3.4189    3.7057 C   0  0  0  0  0  0  0  0  0  0  0  0
    3.4498    3.1569    3.9721 H   0  0  0  0  0  0  0  0  0  0  0  0
    5.1657    2.6480    4.0907 H   0  0  0  0  0  0  0  0  0  0  0  0
  2  1  1  0  0  0  0
  3  2  1  0  0  0  0
  4  2  1  0  0  0  0
  5 13  1  0  0  0  0
  5 12  1  0  0  0  0
  6 47  1  0  0  0  0
  7 15  1  0  0  0  0
  8 40  1  0  0  0  0
  8 25  1  0  0  0  0
  9  4  1  6  0  0  0
  9  7  1  0  0  0  0
  9  8  1  0  0  0  0
 10 34  2  0  0  0  0
 10 45  1  0  0  0  0
 11 19  1  0  0  0  0
 11 27  1  0  0  0  0
 12  3  1  6  0  0  0
 12  6  1  0  0  0  0
 13 21  2  0  0  0  0
 14 13  1  0  0  0  0
 15 16  1  0  0  0  0
 15 25  2  0  0  0  0
 17 32  1  0  0  0  0
 18 17  1  0  0  0  0
 19 20  1  0  0  0  0
 21 22  1  0  0  0  0
 21  6  1  0  0  0  0
 23 24  1  0  0  0  0
 23 43  2  0  0  0  0
 25 26  1  0  0  0  0
 27 29  1  0  0  0  0
 27  5  1  0  0  0  0
 28 27  1  0  0  0  0
 30 11  2  0  0  0  0
 31 30  1  0  0  0  0
 32 33  1  0  0  0  0
 32 19  2  0  0  0  0
 34 23  1  0  0  0  0
 35 34  1  0  0  0  0
 36 17  2  0  0  0  0
 36 30  1  0  0  0  0
 37 36  1  0  0  0  0
 38 43  1  0  0  0  0
 38 39  1  0  0  0  0
 40 10  1  0  0  0  0
 41 40  1  0  0  0  0
 42 40  1  0  0  0  0
 43 44  1  0  0  0  0
 45 38  2  0  0  0  0
 46 45  1  0  0  0  0
 47 48  1  0  0  0  0
 47 49  1  0  0  0  0
 47  7  1  0  0  0  0
M  END
$$$$
