CSD_code = HATNIA | q = 0 | S = 0 | Stoichiometry = C17H32BrMnO5P2 | MND = 6
 OpenBabel04212202043D

 58 58  0  0  0  0  0  0  0  0999 V2000
    1.6485   -0.0633    1.3051 Br  0  0  0  0  0  0  0  0  0  0  0  0
    3.9107    0.5041    0.5101 Mn  0  0  0  0  0  0  0  0  0  0  0  0
    3.2126    0.0446   -1.7015 P   0  0  0  0  0  4  0  0  0  0  0  0
    3.0981    2.7033    0.5059 P   0  0  0  0  0  4  0  0  0  0  0  0
    1.0447    2.3750   -1.2038 C   0  0  0  0  0  0  0  0  0  0  0  0
    0.1469    2.9993   -1.2598 H   0  0  0  0  0  0  0  0  0  0  0  0
    0.8277    1.5119   -0.5662 H   0  0  0  0  0  0  0  0  0  0  0  0
    1.4171    1.9075   -2.6055 C   0  0  0  0  0  0  0  0  0  0  0  0
    0.6116    1.2736   -2.9930 H   0  0  0  0  0  0  0  0  0  0  0  0
    1.5401    2.7740   -3.2641 H   0  0  0  0  0  0  0  0  0  0  0  0
    2.6593    1.2355   -2.6647 O   0  0  0  0  0  0  0  0  0  0  0  0
    2.0873    3.1716   -0.6749 O   0  0  0  0  0  0  0  0  0  0  0  0
    5.5806    0.8641    0.0824 C   0  0  0  0  0  2  0  0  0  0  0  0
    6.7262    0.9830   -0.0176 O   0  0  0  0  0  1  0  0  0  0  0  0
    4.8630   -2.2152    0.9874 O   0  0  0  0  0  1  0  0  0  0  0  0
    4.4293   -1.1809    0.7323 C   0  0  0  0  0  2  0  0  0  0  0  0
    5.1651    0.6896    3.1350 O   0  0  0  0  0  1  0  0  0  0  0  0
    4.5718    0.6779    2.1483 C   0  0  0  0  0  2  0  0  0  0  0  0
    4.5482   -0.4589   -2.8994 C   0  0  0  0  0  0  0  0  0  0  0  0
    4.0155   -0.8235   -3.7841 H   0  0  0  0  0  0  0  0  0  0  0  0
    5.4243   -1.5720   -2.3394 C   0  0  0  0  0  0  0  0  0  0  0  0
    6.1269   -1.9061   -3.1015 H   0  0  0  0  0  0  0  0  0  0  0  0
    4.8373   -2.4297   -2.0209 H   0  0  0  0  0  0  0  0  0  0  0  0
    6.0029   -1.2188   -1.4866 H   0  0  0  0  0  0  0  0  0  0  0  0
    5.4061    0.7297   -3.3218 C   0  0  0  0  0  0  0  0  0  0  0  0
    6.0002    1.0971   -2.4895 H   0  0  0  0  0  0  0  0  0  0  0  0
    4.7912    1.5421   -3.6992 H   0  0  0  0  0  0  0  0  0  0  0  0
    6.0912    0.4211   -4.1099 H   0  0  0  0  0  0  0  0  0  0  0  0
    1.8737   -1.2537   -1.9493 C   0  0  0  0  0  0  0  0  0  0  0  0
    0.9916   -0.7773   -1.4943 H   0  0  0  0  0  0  0  0  0  0  0  0
    2.1082   -2.5657   -1.2106 C   0  0  0  0  0  0  0  0  0  0  0  0
    1.1988   -3.1630   -1.2471 H   0  0  0  0  0  0  0  0  0  0  0  0
    2.3473   -2.4011   -0.1633 H   0  0  0  0  0  0  0  0  0  0  0  0
    2.9081   -3.1441   -1.6666 H   0  0  0  0  0  0  0  0  0  0  0  0
    1.5770   -1.5212   -3.4240 C   0  0  0  0  0  0  0  0  0  0  0  0
    2.2897   -2.2306   -3.8396 H   0  0  0  0  0  0  0  0  0  0  0  0
    1.6050   -0.6119   -4.0220 H   0  0  0  0  0  0  0  0  0  0  0  0
    0.5843   -1.9585   -3.5173 H   0  0  0  0  0  0  0  0  0  0  0  0
    2.0756    3.2502    1.9838 C   0  0  0  0  0  0  0  0  0  0  0  0
    1.1232    2.7220    1.8232 H   0  0  0  0  0  0  0  0  0  0  0  0
    2.6238    2.8164    3.3364 C   0  0  0  0  0  0  0  0  0  0  0  0
    3.6234    3.2056    3.5159 H   0  0  0  0  0  0  0  0  0  0  0  0
    2.6509    1.7319    3.4174 H   0  0  0  0  0  0  0  0  0  0  0  0
    1.9687    3.1843    4.1244 H   0  0  0  0  0  0  0  0  0  0  0  0
    1.7883    4.7483    1.9533 C   0  0  0  0  0  0  0  0  0  0  0  0
    0.9788    4.9711    2.6465 H   0  0  0  0  0  0  0  0  0  0  0  0
    1.4782    5.0686    0.9600 H   0  0  0  0  0  0  0  0  0  0  0  0
    2.6574    5.3265    2.2589 H   0  0  0  0  0  0  0  0  0  0  0  0
    4.2945    4.0879    0.2005 C   0  0  0  0  0  0  0  0  0  0  0  0
    3.7002    5.0076    0.1886 H   0  0  0  0  0  0  0  0  0  0  0  0
    4.9349    3.9141   -1.1723 C   0  0  0  0  0  0  0  0  0  0  0  0
    5.5672    4.7702   -1.4022 H   0  0  0  0  0  0  0  0  0  0  0  0
    4.1736    3.8307   -1.9450 H   0  0  0  0  0  0  0  0  0  0  0  0
    5.5539    3.0202   -1.1986 H   0  0  0  0  0  0  0  0  0  0  0  0
    5.3500    4.1568    1.2961 C   0  0  0  0  0  0  0  0  0  0  0  0
    5.8334    3.1885    1.4304 H   0  0  0  0  0  0  0  0  0  0  0  0
    4.9184    4.4580    2.2477 H   0  0  0  0  0  0  0  0  0  0  0  0
    6.1184    4.8812    1.0303 H   0  0  0  0  0  0  0  0  0  0  0  0
  2 16  1  0  0  0  0
  2  1  1  0  0  0  0
  2 18  1  0  0  0  0
  3  2  1  0  0  0  0
  4  2  1  0  0  0  0
  4 39  1  0  0  0  0
  5 12  1  0  0  0  0
  5  7  1  0  0  0  0
  6  5  1  0  0  0  0
  8  5  1  0  0  0  0
  9  8  1  0  0  0  0
 10  8  1  0  0  0  0
 11  8  1  0  0  0  0
 11  3  1  0  0  0  0
 12  4  1  0  0  0  0
 13  2  1  0  0  0  0
 14 13  1  0  0  0  0
 16 15  1  0  0  0  0
 18 17  1  0  0  0  0
 19 21  1  0  0  0  0
 19  3  1  0  0  0  0
 20 19  1  0  0  0  0
 21 23  1  0  0  0  0
 21 24  1  0  0  0  0
 22 21  1  0  0  0  0
 25 19  1  0  0  0  0
 25 26  1  0  0  0  0
 27 25  1  0  0  0  0
 28 25  1  0  0  0  0
 29  3  1  0  0  0  0
 29 30  1  0  0  0  0
 29 31  1  0  0  0  0
 31 33  1  0  0  0  0
 32 31  1  0  0  0  0
 34 31  1  0  0  0  0
 35 29  1  0  0  0  0
 36 35  1  0  0  0  0
 37 35  1  0  0  0  0
 38 35  1  0  0  0  0
 39 41  1  0  0  0  0
 40 39  1  0  0  0  0
 41 43  1  0  0  0  0
 41 42  1  0  0  0  0
 41 44  1  0  0  0  0
 45 39  1  0  0  0  0
 45 48  1  0  0  0  0
 45 46  1  0  0  0  0
 47 45  1  0  0  0  0
 49  4  1  0  0  0  0
 49 55  1  0  0  0  0
 50 49  1  0  0  0  0
 51 49  1  0  0  0  0
 52 51  1  0  0  0  0
 53 51  1  0  0  0  0
 54 51  1  0  0  0  0
 55 56  1  0  0  0  0
 55 57  1  0  0  0  0
 58 55  1  0  0  0  0
M  END
$$$$
