CSD_code = HATNEW | q = 0 | S = 0 | Stoichiometry = C29H24ClMnO5P2 | MND = 6
 OpenBabel04212202043D

 62 66  0  0  0  0  0  0  0  0999 V2000
    7.0332   12.0196   18.0425 Cl  0  0  0  0  0  0  0  0  0  0  0  0
    6.2598   14.1913   17.7127 Mn  0  0  0  0  0  0  0  0  0  0  0  0
    6.1957   13.9715   19.9821 P   0  0  0  0  0  4  0  0  0  0  0  0
    4.0366   13.6473   17.7695 P   0  0  0  0  0  4  0  0  0  0  0  0
    5.8947   15.9100   17.4931 C   0  0  0  0  0  2  0  0  0  0  0  0
    5.7366   17.0270   17.2503 O   0  0  0  0  0  1  0  0  0  0  0  0
    6.3929   13.9504   15.9566 C   0  0  0  0  0  2  0  0  0  0  0  0
    6.5518   13.7957   14.8289 O   0  0  0  0  0  1  0  0  0  0  0  0
    8.0038   14.5471   17.7581 C   0  0  0  0  0  2  0  0  0  0  0  0
    9.1358   14.7189   17.7635 O   0  0  0  0  0  1  0  0  0  0  0  0
    5.6409   12.6245   20.6692 O   0  0  0  0  0  0  0  0  0  0  0  0
    3.2880   12.4495   20.0591 C   0  0  0  0  0  0  0  0  0  0  0  0
    2.5515   11.7076   19.7265 H   0  0  0  0  0  0  0  0  0  0  0  0
    3.0052   12.8316   21.0463 H   0  0  0  0  0  0  0  0  0  0  0  0
    4.6544   11.7844   20.1216 C   0  0  0  0  0  0  0  0  0  0  0  0
    4.6102   10.9062   20.7729 H   0  0  0  0  0  0  0  0  0  0  0  0
    4.9494   11.4655   19.1092 H   0  0  0  0  0  0  0  0  0  0  0  0
    3.2619   13.5693   19.1964 O   0  0  0  0  0  0  0  0  0  0  0  0
    7.8283   14.0109   20.7596 C   0  0  0  0  0  0  0  0  0  0  0  0
    8.4528   15.2514   20.8508 C   0  0  0  0  0  0  0  0  0  0  0  0
    7.9278   16.1347   20.5036 H   0  0  0  0  0  0  0  0  0  0  0  0
    9.7283   15.3430   21.3716 C   0  0  0  0  0  0  0  0  0  0  0  0
   10.2149   16.3045   21.4445 H   0  0  0  0  0  0  0  0  0  0  0  0
   10.3858   14.1959   21.7911 C   0  0  0  0  0  0  0  0  0  0  0  0
   11.3859   14.2670   22.1930 H   0  0  0  0  0  0  0  0  0  0  0  0
    9.7699   12.9604   21.6854 C   0  0  0  0  0  0  0  0  0  0  0  0
   10.2907   12.0680   22.0007 H   0  0  0  0  0  0  0  0  0  0  0  0
    8.4907   12.8616   21.1654 C   0  0  0  0  0  0  0  0  0  0  0  0
    8.0093   11.9003   21.0614 H   0  0  0  0  0  0  0  0  0  0  0  0
    5.3114   15.2078   21.0111 C   0  0  0  0  0  0  0  0  0  0  0  0
    4.5095   16.1901   20.4531 C   0  0  0  0  0  0  0  0  0  0  0  0
    4.4240   16.2642   19.3763 H   0  0  0  0  0  0  0  0  0  0  0  0
    3.8152   17.0662   21.2701 C   0  0  0  0  0  0  0  0  0  0  0  0
    3.1924   17.8313   20.8299 H   0  0  0  0  0  0  0  0  0  0  0  0
    3.9207   16.9594   22.6463 C   0  0  0  0  0  0  0  0  0  0  0  0
    3.3804   17.6434   23.2843 H   0  0  0  0  0  0  0  0  0  0  0  0
    4.7179   15.9733   23.2083 C   0  0  0  0  0  0  0  0  0  0  0  0
    4.7985   15.8902   24.2825 H   0  0  0  0  0  0  0  0  0  0  0  0
    5.4107   15.0978   22.3944 C   0  0  0  0  0  0  0  0  0  0  0  0
    6.0341   14.3222   22.8196 H   0  0  0  0  0  0  0  0  0  0  0  0
    3.0273   14.9839   17.0610 C   0  0  0  0  0  0  0  0  0  0  0  0
    2.1090   15.7233   17.7936 C   0  0  0  0  0  0  0  0  0  0  0  0
    1.9498   15.5031   18.8386 H   0  0  0  0  0  0  0  0  0  0  0  0
    1.4069   16.7462   17.1789 C   0  0  0  0  0  0  0  0  0  0  0  0
    0.6952   17.3247   17.7501 H   0  0  0  0  0  0  0  0  0  0  0  0
    1.6162   17.0317   15.8407 C   0  0  0  0  0  0  0  0  0  0  0  0
    1.0689   17.8335   15.3678 H   0  0  0  0  0  0  0  0  0  0  0  0
    2.5320   16.2923   15.1075 C   0  0  0  0  0  0  0  0  0  0  0  0
    2.6973   16.5146   14.0639 H   0  0  0  0  0  0  0  0  0  0  0  0
    3.2392   15.2743   15.7167 C   0  0  0  0  0  0  0  0  0  0  0  0
    3.9624   14.6933   15.1572 H   0  0  0  0  0  0  0  0  0  0  0  0
    3.3429   12.2243   16.8551 C   0  0  0  0  0  0  0  0  0  0  0  0
    1.9653   12.0248   16.8922 C   0  0  0  0  0  0  0  0  0  0  0  0
    1.3422   12.7118   17.4503 H   0  0  0  0  0  0  0  0  0  0  0  0
    1.4073   10.9623   16.2086 C   0  0  0  0  0  0  0  0  0  0  0  0
    0.3386   10.8058   16.2348 H   0  0  0  0  0  0  0  0  0  0  0  0
    2.2186   10.1016   15.4837 C   0  0  0  0  0  0  0  0  0  0  0  0
    1.7788    9.2737   14.9475 H   0  0  0  0  0  0  0  0  0  0  0  0
    3.5879   10.3017   15.4451 C   0  0  0  0  0  0  0  0  0  0  0  0
    4.2184    9.6312   14.8807 H   0  0  0  0  0  0  0  0  0  0  0  0
    4.1547   11.3623   16.1318 C   0  0  0  0  0  0  0  0  0  0  0  0
    5.2255   11.5138   16.1160 H   0  0  0  0  0  0  0  0  0  0  0  0
  2  9  1  0  0  0  0
  2  4  1  0  0  0  0
  2  1  1  0  0  0  0
  2  3  1  0  0  0  0
  3 11  1  0  0  0  0
  3 19  1  0  0  0  0
  3 30  1  0  0  0  0
  4 18  1  0  0  0  0
  5  2  1  0  0  0  0
  6  5  1  0  0  0  0
  7  2  1  0  0  0  0
  8  7  1  0  0  0  0
  9 10  1  0  0  0  0
 12 15  1  0  0  0  0
 12 14  1  0  0  0  0
 13 12  1  0  0  0  0
 15 11  1  0  0  0  0
 15 16  1  0  0  0  0
 17 15  1  0  0  0  0
 18 12  1  0  0  0  0
 19 20  2  0  0  0  0
 19 28  1  0  0  0  0
 20 22  1  0  0  0  0
 21 20  1  0  0  0  0
 22 23  1  0  0  0  0
 22 24  2  0  0  0  0
 24 25  1  0  0  0  0
 26 24  1  0  0  0  0
 26 27  1  0  0  0  0
 28 26  2  0  0  0  0
 29 28  1  0  0  0  0
 30 39  1  0  0  0  0
 31 30  2  0  0  0  0
 31 33  1  0  0  0  0
 32 31  1  0  0  0  0
 33 35  2  0  0  0  0
 34 33  1  0  0  0  0
 35 37  1  0  0  0  0
 35 36  1  0  0  0  0
 37 38  1  0  0  0  0
 39 40  1  0  0  0  0
 39 37  2  0  0  0  0
 41  4  1  0  0  0  0
 41 42  1  0  0  0  0
 42 43  1  0  0  0  0
 44 45  1  0  0  0  0
 44 42  2  0  0  0  0
 46 44  1  0  0  0  0
 47 46  1  0  0  0  0
 48 50  1  0  0  0  0
 48 46  2  0  0  0  0
 49 48  1  0  0  0  0
 50 41  2  0  0  0  0
 51 50  1  0  0  0  0
 52 53  1  0  0  0  0
 52  4  1  0  0  0  0
 53 54  1  0  0  0  0
 55 56  1  0  0  0  0
 55 53  2  0  0  0  0
 57 55  1  0  0  0  0
 58 57  1  0  0  0  0
 59 57  2  0  0  0  0
 59 61  1  0  0  0  0
 60 59  1  0  0  0  0
 61 52  2  0  0  0  0
 62 61  1  0  0  0  0
M  END
$$$$
