CSD_code = HAVWUZ | q = 0 | S = 0 | Stoichiometry = C14H20ClNO2Ru | MND = 9
 OpenBabel04212202043D

 39 39  0  0  1  0  0  0  0  0999 V2000
    7.9416    2.6713    0.5123 Ru  0  0  0  0  0  0  0  0  0  0  0  0
    4.6533    1.2868    2.7997 C   0  0  0  0  0  0  0  0  0  0  0  0
    4.6332    0.2581    2.4506 H   0  0  0  0  0  0  0  0  0  0  0  0
    3.6725    1.7414    2.6778 H   0  0  0  0  0  0  0  0  0  0  0  0
    4.9075    1.3027    3.8579 H   0  0  0  0  0  0  0  0  0  0  0  0
    5.6845    2.0589    2.0323 C   0  0  0  0  0  0  0  0  0  0  0  0
    5.8559    3.4477    2.1949 C   0  0  0  0  0  0  0  0  0  0  0  0
    5.0306    4.3511    3.0581 C   0  0  0  0  0  0  0  0  0  0  0  0
    5.1024    4.0488    4.1013 H   0  0  0  0  0  0  0  0  0  0  0  0
    3.9829    4.3312    2.7609 H   0  0  0  0  0  0  0  0  0  0  0  0
    5.4123    5.3646    2.9542 H   0  0  0  0  0  0  0  0  0  0  0  0
    9.9771    3.3415   -0.4776 C   0  0  0  0  0  0  0  0  0  0  0  0
    9.9168    1.9281   -0.7011 C   0  0  0  0  0  0  0  0  0  0  0  0
   10.7673    1.3172   -0.4181 H   0  0  0  0  0  0  0  0  0  0  0  0
    8.8169    1.3477   -1.3102 C   0  0  0  0  0  0  0  0  0  0  0  0
    8.7975    0.2838   -1.5129 H   0  0  0  0  0  0  0  0  0  0  0  0
    7.6911    2.1457   -1.6714 C   0  0  2  0  0  0  0  0  0  0  0  0
    7.8038    3.5514   -1.5766 C   0  0  0  0  0  3  0  0  0  0  0  0
    7.0291    4.1844   -1.9964 H   0  0  0  0  0  0  0  0  0  0  0  0
    8.9530    4.1409   -1.0089 C   0  0  0  0  0  0  0  0  0  0  0  0
    9.0297    5.2199   -0.9724 H   0  0  0  0  0  0  0  0  0  0  0  0
   11.2075    3.9574    0.1474 C   0  0  0  0  0  0  0  0  0  0  0  0
   11.7918    3.1531    0.6079 H   0  0  0  0  0  0  0  0  0  0  0  0
   10.8337    4.9554    1.2443 C   0  0  0  0  0  0  0  0  0  0  0  0
   10.3214    5.8231    0.8371 H   0  0  0  0  0  0  0  0  0  0  0  0
   11.7297    5.2939    1.7582 H   0  0  0  0  0  0  0  0  0  0  0  0
   10.1780    4.4767    1.9706 H   0  0  0  0  0  0  0  0  0  0  0  0
   12.0613    4.6194   -0.9397 C   0  0  0  0  0  0  0  0  0  0  0  0
   12.3339    3.8989   -1.7089 H   0  0  0  0  0  0  0  0  0  0  0  0
   12.9725    5.0180   -0.5011 H   0  0  0  0  0  0  0  0  0  0  0  0
   11.5195    5.4374   -1.4092 H   0  0  0  0  0  0  0  0  0  0  0  0
    6.5068    1.5030   -2.3319 C   0  0  0  0  0  0  0  0  0  0  0  0
    6.7813    1.1480   -3.3266 H   0  0  0  0  0  0  0  0  0  0  0  0
    5.6845    2.2089   -2.4290 H   0  0  0  0  0  0  0  0  0  0  0  0
    6.1663    0.6482   -1.7491 H   0  0  0  0  0  0  0  0  0  0  0  0
    8.8887    2.1730    2.5740 Cl  0  0  0  0  0 15  0  0  0  0  0  0
    6.8458    3.9163    1.4278 N   0  0  0  0  0  0  0  0  0  0  0  0
    6.4032    1.4659    1.1760 O   0  0  0  0  0  0  0  0  0  0  0  0
    7.1238    5.1133    1.2934 O   0  0  0  0  0  1  0  0  0  0  0  0
  1 38  1  0  0  0  0
  1 37  1  0  0  0  0
  2  5  1  0  0  0  0
  3  2  1  0  0  0  0
  4  2  1  0  0  0  0
  6  7  2  0  0  0  0
  6  2  1  0  0  0  0
  7  8  1  0  0  0  0
  8  9  1  0  0  0  0
 10  8  1  0  0  0  0
 11  8  1  0  0  0  0
 12 22  1  0  0  0  0
 13 12  1  0  0  0  0
 13 14  1  0  0  0  0
 15 13  2  0  0  0  0
 16 15  1  0  0  0  0
 17 32  1  6  0  0  0
 17 18  1  0  0  0  0
 17 15  1  0  0  0  0
 17  1  1  0  0  0  0
 18 20  1  0  0  0  0
 19 18  1  0  0  0  0
 20 21  1  0  0  0  0
 20 12  2  0  0  0  0
 22 23  1  0  0  0  0
 22 24  1  0  0  0  0
 24 26  1  0  0  0  0
 24 27  1  0  0  0  0
 25 24  1  0  0  0  0
 28 30  1  0  0  0  0
 28 22  1  0  0  0  0
 29 28  1  0  0  0  0
 31 28  1  0  0  0  0
 32 35  1  0  0  0  0
 33 32  1  0  0  0  0
 34 32  1  0  0  0  0
 37  7  1  0  0  0  0
 38  6  1  0  0  0  0
 39 37  1  0  0  0  0
M  END
$$$$
