CSD_code = HAVXEK | q = 0 | S = 0 | Stoichiometry = C19H22ClNO2Ru | MND = 9
 OpenBabel04212202043D

 46 47  0  0  1  0  0  0  0  0999 V2000
    0.1256    6.1841    9.2186 Ru  0  0  0  0  0  0  0  0  0  0  0  0
   -0.4885    4.7679    7.4150 C   0  0  0  0  0  0  0  0  0  0  0  0
   -1.6269    5.6110    7.6233 C   0  0  0  0  0  0  0  0  0  0  0  0
   -2.0473    6.1396    6.7744 H   0  0  0  0  0  0  0  0  0  0  0  0
   -2.2194    5.7179    8.8705 C   0  0  0  0  0  0  0  0  0  0  0  0
   -3.1070    6.3233    9.0085 H   0  0  0  0  0  0  0  0  0  0  0  0
   -1.6577    5.0390    9.9919 C   0  0  1  0  0  0  0  0  0  0  0  0
   -0.6186    4.1073    9.7640 C   0  0  0  0  0  3  0  0  0  0  0  0
   -0.2880    3.4602   10.5698 H   0  0  0  0  0  0  0  0  0  0  0  0
   -0.0630    3.9555    8.4767 C   0  0  0  0  0  0  0  0  0  0  0  0
    0.7112    3.2155    8.3203 H   0  0  0  0  0  0  0  0  0  0  0  0
    0.1133    4.6327    6.0356 C   0  0  0  0  0  0  0  0  0  0  0  0
   -0.2837    5.4414    5.4120 H   0  0  0  0  0  0  0  0  0  0  0  0
   -0.3019    3.2930    5.4180 C   0  0  0  0  0  0  0  0  0  0  0  0
    0.0943    2.4627    5.9980 H   0  0  0  0  0  0  0  0  0  0  0  0
    0.0843    3.2189    4.4047 H   0  0  0  0  0  0  0  0  0  0  0  0
   -1.3862    3.2036    5.3823 H   0  0  0  0  0  0  0  0  0  0  0  0
    1.6353    4.7764    6.0804 C   0  0  0  0  0  0  0  0  0  0  0  0
    1.9030    5.7114    6.5714 H   0  0  0  0  0  0  0  0  0  0  0  0
    2.0368    4.7890    5.0703 H   0  0  0  0  0  0  0  0  0  0  0  0
    2.0972    3.9571    6.6249 H   0  0  0  0  0  0  0  0  0  0  0  0
   -2.3088    5.1629   11.3382 C   0  0  0  0  0  0  0  0  0  0  0  0
   -1.6789    4.7363   12.1161 H   0  0  0  0  0  0  0  0  0  0  0  0
   -3.2663    4.6397   11.3391 H   0  0  0  0  0  0  0  0  0  0  0  0
   -2.4945    6.2097   11.5734 H   0  0  0  0  0  0  0  0  0  0  0  0
    1.3046    9.1420   11.9576 C   0  0  0  0  0  0  0  0  0  0  0  0
    0.2502    9.4650   12.8110 C   0  0  0  0  0  0  0  0  0  0  0  0
   -0.6216    8.8285   12.8263 H   0  0  0  0  0  0  0  0  0  0  0  0
    0.3289   10.5761   13.6276 C   0  0  0  0  0  0  0  0  0  0  0  0
   -0.4880   10.8148   14.2925 H   0  0  0  0  0  0  0  0  0  0  0  0
    1.4524   11.3864   13.5897 C   0  0  0  0  0  0  0  0  0  0  0  0
    1.5130   12.2568   14.2261 H   0  0  0  0  0  0  0  0  0  0  0  0
    2.4920   11.0859   12.7246 C   0  0  0  0  0  0  0  0  0  0  0  0
    3.3588   11.7285   12.6799 H   0  0  0  0  0  0  0  0  0  0  0  0
    2.4246    9.9695   11.9116 C   0  0  0  0  0  0  0  0  0  0  0  0
    3.2182    9.7577   11.2140 H   0  0  0  0  0  0  0  0  0  0  0  0
    1.1836    7.9570   11.0912 C   0  0  0  0  0  0  0  0  0  0  0  0
    2.2549    7.0890   10.7815 C   0  0  0  0  0  0  0  0  0  0  0  0
    3.6427    7.0849   11.3454 C   0  0  0  0  0  0  0  0  0  0  0  0
    3.9738    6.0499   11.4250 H   0  0  0  0  0  0  0  0  0  0  0  0
    3.6684    7.5590   12.3226 H   0  0  0  0  0  0  0  0  0  0  0  0
    4.3312    7.6001   10.6760 H   0  0  0  0  0  0  0  0  0  0  0  0
    0.9321    7.8855    7.8610 Cl  0  0  0  0  0 15  0  0  0  0  0  0
    1.8562    6.0984    9.9761 N   0  0  0  0  0  0  0  0  0  0  0  0
    0.0317    7.6435   10.6502 O   0  0  0  0  0  0  0  0  0  0  0  0
    2.5522    5.1213    9.6741 O   0  0  0  0  0  1  0  0  0  0  0  0
  1 44  1  0  0  0  0
  1  7  1  0  0  0  0
  1 45  1  0  0  0  0
  2  3  1  0  0  0  0
  2 10  2  0  0  0  0
  3  5  2  0  0  0  0
  4  3  1  0  0  0  0
  5  6  1  0  0  0  0
  5  7  1  0  0  0  0
  7 22  1  1  0  0  0
  8  7  1  0  0  0  0
  8  9  1  0  0  0  0
 10  8  1  0  0  0  0
 11 10  1  0  0  0  0
 12 18  1  0  0  0  0
 12  2  1  0  0  0  0
 13 12  1  0  0  0  0
 14 15  1  0  0  0  0
 14 12  1  0  0  0  0
 16 14  1  0  0  0  0
 17 14  1  0  0  0  0
 18 19  1  0  0  0  0
 18 21  1  0  0  0  0
 20 18  1  0  0  0  0
 22 24  1  0  0  0  0
 22 25  1  0  0  0  0
 22 23  1  0  0  0  0
 26 27  1  0  0  0  0
 27 28  1  0  0  0  0
 27 29  2  0  0  0  0
 29 30  1  0  0  0  0
 31 29  1  0  0  0  0
 31 32  1  0  0  0  0
 33 31  2  0  0  0  0
 34 33  1  0  0  0  0
 35 26  2  0  0  0  0
 35 33  1  0  0  0  0
 36 35  1  0  0  0  0
 37 26  1  0  0  0  0
 38 37  2  0  0  0  0
 38 39  1  0  0  0  0
 39 40  1  0  0  0  0
 39 41  1  0  0  0  0
 42 39  1  0  0  0  0
 44 38  1  0  0  0  0
 45 37  1  0  0  0  0
 46 44  1  0  0  0  0
M  END
$$$$
