CSD_code = HAWQIG | q = 0 | S = 0 | Stoichiometry = C13H20I2N2Pd | MND = 4
 OpenBabel04212202043D

 38 39  0  0  1  0  0  0  0  0999 V2000
   -0.1110    4.0579   12.9532 I   0  0  0  0  0  0  0  0  0  0  0  0
    3.2303    1.7551   15.7950 I   0  0  0  0  0  0  0  0  0  0  0  0
    2.0712    3.2443   14.0479 Pd  0  0  0  0  0  0  0  0  0  0  0  0
    4.1251    3.5528   12.4020 N   0  0  0  0  0  0  0  0  0  0  0  0
    3.8293    7.3787   15.2911 N   0  0  0  0  0  0  0  0  0  0  0  0
    5.3289    2.9989   13.0021 C   0  0  0  0  0  0  0  0  0  0  0  0
    5.2574    1.9120   13.0205 H   0  0  0  0  0  0  0  0  0  0  0  0
    5.4301    3.3565   14.0271 H   0  0  0  0  0  0  0  0  0  0  0  0
    6.2280    3.2855   12.4350 H   0  0  0  0  0  0  0  0  0  0  0  0
    3.9878    3.1651   10.9995 C   0  0  0  0  0  0  0  0  0  0  0  0
    3.7001    2.1147   10.9230 H   0  0  0  0  0  0  0  0  0  0  0  0
    4.9423    3.3092   10.4651 H   0  0  0  0  0  0  0  0  0  0  0  0
    2.9248    4.1193   10.4678 C   0  0  0  0  0  0  0  0  0  0  0  0
    1.9322    3.7301   10.6945 H   0  0  0  0  0  0  0  0  0  0  0  0
    3.0005    4.2596    9.3919 H   0  0  0  0  0  0  0  0  0  0  0  0
    3.1747    5.4190   11.2484 C   0  0  0  0  0  0  0  0  0  0  0  0
    2.2436    5.8066   11.6623 H   0  0  0  0  0  0  0  0  0  0  0  0
    3.6153    6.1928   10.6218 H   0  0  0  0  0  0  0  0  0  0  0  0
    4.1536    5.0214   12.3793 C   0  0  1  0  0  0  0  0  0  0  0  0
    5.1703    5.3765   12.1311 H   0  0  0  0  0  0  0  0  0  0  0  0
    3.7312    5.5970   13.7076 C   0  0  0  0  0  0  0  0  0  0  0  0
    2.7724    4.9243   14.5069 C   0  0  0  0  0  0  0  0  0  0  0  0
    2.3690    5.5595   15.6957 C   0  0  0  0  0  0  0  0  0  0  0  0
    1.6265    5.0918   16.3373 H   0  0  0  0  0  0  0  0  0  0  0  0
    2.9017    6.7622   16.0557 C   0  0  0  0  0  3  0  0  0  0  0  0
    2.6094    7.2665   16.9644 H   0  0  0  0  0  0  0  0  0  0  0  0
    4.2277    6.7960   14.1358 C   0  0  0  0  0  0  0  0  0  0  0  0
    4.9629    7.3301   13.5540 H   0  0  0  0  0  0  0  0  0  0  0  0
    4.3923    8.6641   15.7002 C   0  0  0  0  0  0  0  0  0  0  0  0
    3.9329    8.9107   16.6629 H   0  0  0  0  0  0  0  0  0  0  0  0
    4.0248    9.7523   14.6936 C   0  0  0  0  0  0  0  0  0  0  0  0
    4.3481   10.7187   15.0696 H   0  0  0  0  0  0  0  0  0  0  0  0
    2.9483    9.7827   14.5429 H   0  0  0  0  0  0  0  0  0  0  0  0
    4.5040    9.5827   13.7331 H   0  0  0  0  0  0  0  0  0  0  0  0
    5.9022    8.5510   15.8996 C   0  0  0  0  0  0  0  0  0  0  0  0
    6.4177    8.3886   14.9569 H   0  0  0  0  0  0  0  0  0  0  0  0
    6.1363    7.7274   16.5704 H   0  0  0  0  0  0  0  0  0  0  0  0
    6.2794    9.4704   16.3384 H   0  0  0  0  0  0  0  0  0  0  0  0
  1  3  1  0  0  0  0
  3 22  1  0  0  0  0
  3  2  1  0  0  0  0
  4  6  1  0  0  0  0
  5 29  1  0  0  0  0
  5 25  1  0  0  0  0
  6  7  1  0  0  0  0
  6  8  1  0  0  0  0
  9  6  1  0  0  0  0
 10  4  1  0  0  0  0
 11 10  1  0  0  0  0
 12 10  1  0  0  0  0
 13 14  1  0  0  0  0
 13 10  1  0  0  0  0
 13 16  1  0  0  0  0
 15 13  1  0  0  0  0
 16 17  1  0  0  0  0
 16 19  1  0  0  0  0
 18 16  1  0  0  0  0
 19 20  1  6  0  0  0
 19  4  1  0  0  0  0
 19 21  1  0  0  0  0
 21 27  2  0  0  0  0
 21 22  1  0  0  0  0
 22 23  2  0  0  0  0
 23 25  1  0  0  0  0
 23 24  1  0  0  0  0
 25 26  1  0  0  0  0
 27  5  1  0  0  0  0
 28 27  1  0  0  0  0
 29 35  1  0  0  0  0
 29 30  1  0  0  0  0
 31 32  1  0  0  0  0
 31 29  1  0  0  0  0
 33 31  1  0  0  0  0
 34 31  1  0  0  0  0
 35 38  1  0  0  0  0
 35 37  1  0  0  0  0
 36 35  1  0  0  0  0
M  END
$$$$
