CSD_code = HAWTEG | q = 0 | S = 0 | Stoichiometry = C8H6CuIN4S3 | MND = 4
 OpenBabel04212202043D

 23 26  0  0  1  0  0  0  0  0999 V2000
    3.0488    3.8698    5.2854 Cu  0  0  1  0  0  0  0  0  0  0  0  0
    0.7481    3.8732    4.3930 I   0  0  0  0  0  0  0  0  0  0  0  0
    4.7411    6.1122    6.2472 C   0  0  1  0  0  3  0  0  0  0  0  0
    5.5821    7.7907    4.9927 C   0  0  0  0  0  0  0  0  0  0  0  0
    6.1736    8.6946    4.9683 H   0  0  0  0  0  0  0  0  0  0  0  0
    4.9787    7.2554    3.8573 C   0  0  0  0  0  0  0  0  0  0  0  0
    5.0577    7.7255    2.8926 H   0  0  0  0  0  0  0  0  0  0  0  0
    4.2693    6.0838    4.0273 C   0  0  0  0  0  0  0  0  0  0  0  0
    3.7661    5.5930    3.2058 H   0  0  0  0  0  0  0  0  0  0  0  0
    4.1535    5.4944    5.2225 N   0  0  0  0  0  0  0  0  0  0  0  0
    5.4558    7.2164    6.1747 N   0  0  0  0  0  0  0  0  0  0  0  0
    3.4053    3.8694    7.8609 S   0  0  2  0  0  3  0  0  0  0  0  0
    4.6170    5.5262    7.9083 S   0  0  0  0  0  0  0  0  0  0  0  0
    4.7418    1.6276    6.2467 C   0  0  2  0  0  3  0  0  0  0  0  0
    5.5842   -0.0497    4.9914 C   0  0  0  0  0  0  0  0  0  0  0  0
    6.1780   -0.9522    4.9664 H   0  0  0  0  0  0  0  0  0  0  0  0
    4.9768    0.4832    3.8571 C   0  0  0  0  0  0  0  0  0  0  0  0
    5.0548    0.0125    2.8925 H   0  0  0  0  0  0  0  0  0  0  0  0
    4.2647    1.6530    4.0279 C   0  0  0  0  0  0  0  0  0  0  0  0
    3.7580    2.1417    3.2073 H   0  0  0  0  0  0  0  0  0  0  0  0
    4.1502    2.2430    5.2229 N   0  0  0  0  0  0  0  0  0  0  0  0
    5.4592    0.5250    6.1733 N   0  0  0  0  0  0  0  0  0  0  0  0
    4.6195    2.2141    7.9077 S   0  0  0  0  0  0  0  0  0  0  0  0
  1  2  1  6  0  0  0
  1 12  1  0  0  0  0
  3 11  1  1  0  0  0
  3 13  1  0  0  0  0
  4 11  2  0  0  0  0
  5  4  1  0  0  0  0
  6  8  2  0  0  0  0
  6  4  1  0  0  0  0
  7  6  1  0  0  0  0
  8 10  1  0  0  0  0
  9  8  1  0  0  0  0
 10  1  1  0  0  0  0
 10  3  1  0  0  0  0
 12 23  1  6  0  0  0
 12 13  1  0  0  0  0
 14 22  1  1  0  0  0
 14 23  1  0  0  0  0
 15 22  2  0  0  0  0
 16 15  1  0  0  0  0
 17 19  2  0  0  0  0
 17 15  1  0  0  0  0
 18 17  1  0  0  0  0
 19 21  1  0  0  0  0
 20 19  1  0  0  0  0
 21  1  1  0  0  0  0
 21 14  1  0  0  0  0
M  END
$$$$
