CSD_code = HAYDIW | q = 0 | S = 0 | Stoichiometry = C14H13Cl2N3Zn | MND = 4
 OpenBabel04212202043D

 33 36  0  0  1  0  0  0  0  0999 V2000
    2.0998    4.7446    6.6320 Zn  0  0  0  0  0  0  0  0  0  0  0  0
    3.2225    6.3127    7.6598 Cl  0  0  0  0  0  0  0  0  0  0  0  0
    0.1905    4.6593    5.5208 Cl  0  0  0  0  0  0  0  0  0  0  0  0
    3.3552    3.3338    5.7341 N   0  0  1  0  0  0  0  0  0  0  0  0
    1.6930    2.9511    7.7450 N   0  0  0  0  0  0  0  0  0  0  0  0
    4.9655    4.4864    4.2954 C   0  0  0  0  0  0  0  0  0  0  0  0
    6.0415    4.5225    4.4523 H   0  0  0  0  0  0  0  0  0  0  0  0
    4.5076    5.3751    4.7243 H   0  0  0  0  0  0  0  0  0  0  0  0
    4.7775    4.4725    3.2226 H   0  0  0  0  0  0  0  0  0  0  0  0
    4.3953    3.2764    4.9290 C   0  0  1  0  0  3  0  0  0  0  0  0
    4.8109    1.9366    4.8132 C   0  0  0  0  0  0  0  0  0  0  0  0
    5.6361    1.5662    4.2404 H   0  0  0  0  0  0  0  0  0  0  0  0
    3.9508    1.1970    5.5903 C   0  0  0  0  0  0  0  0  0  0  0  0
    4.0014   -0.2618    5.8619 C   0  0  0  0  0  0  0  0  0  0  0  0
    3.8046   -0.4754    6.9106 H   0  0  0  0  0  0  0  0  0  0  0  0
    4.9935   -0.6283    5.6095 H   0  0  0  0  0  0  0  0  0  0  0  0
    3.2820   -0.8042    5.2482 H   0  0  0  0  0  0  0  0  0  0  0  0
    2.0055    1.8978    7.0234 C   0  0  0  0  0  0  0  0  0  0  0  0
    1.2974    0.6823    7.1095 C   0  0  0  0  0  0  0  0  0  0  0  0
    1.5266   -0.1351    6.4501 H   0  0  0  0  0  0  0  0  0  0  0  0
    0.2667    0.5900    8.0042 C   0  0  0  0  0  0  0  0  0  0  0  0
   -0.3109   -0.3197    8.0814 H   0  0  0  0  0  0  0  0  0  0  0  0
   -0.0665    1.6914    8.8163 C   0  0  0  0  0  0  0  0  0  0  0  0
   -1.1153    1.6771    9.7566 C   0  0  0  0  0  0  0  0  0  0  0  0
   -1.6836    0.7680    9.8878 H   0  0  0  0  0  0  0  0  0  0  0  0
   -1.4074    2.8011   10.4789 C   0  0  0  0  0  0  0  0  0  0  0  0
   -2.2154    2.7909   11.1948 H   0  0  0  0  0  0  0  0  0  0  0  0
   -0.6662    3.9804   10.2956 C   0  0  0  0  0  0  0  0  0  0  0  0
   -0.9171    4.8566   10.8738 H   0  0  0  0  0  0  0  0  0  0  0  0
    0.3614    4.0280    9.3941 C   0  0  0  0  0  0  0  0  0  0  0  0
    0.9424    4.9266    9.2412 H   0  0  0  0  0  0  0  0  0  0  0  0
    0.6814    2.8870    8.6350 C   0  0  2  0  0  3  0  0  0  0  0  0
    3.0637    2.0812    6.1332 N   0  0  0  0  0  0  0  0  0  0  0  0
  1  2  1  0  0  0  0
  1  5  1  0  0  0  0
  3  1  1  0  0  0  0
  4 33  1  1  0  0  0
  4  1  1  0  0  0  0
  5 32  1  0  0  0  0
  6  7  1  0  0  0  0
  6  8  1  0  0  0  0
  9  6  1  0  0  0  0
 10  6  1  1  0  0  0
 10  4  1  0  0  0  0
 11 10  1  0  0  0  0
 11 13  2  0  0  0  0
 12 11  1  0  0  0  0
 13 14  1  0  0  0  0
 13 33  1  0  0  0  0
 14 15  1  0  0  0  0
 16 14  1  0  0  0  0
 17 14  1  0  0  0  0
 18 19  2  0  0  0  0
 18  5  1  0  0  0  0
 19 21  1  0  0  0  0
 20 19  1  0  0  0  0
 21 22  1  0  0  0  0
 21 23  2  0  0  0  0
 23 24  1  0  0  0  0
 24 25  1  0  0  0  0
 24 26  2  0  0  0  0
 26 27  1  0  0  0  0
 28 26  1  0  0  0  0
 28 29  1  0  0  0  0
 30 28  2  0  0  0  0
 31 30  1  0  0  0  0
 32 23  1  6  0  0  0
 32 30  1  0  0  0  0
 33 18  1  0  0  0  0
M  END
$$$$
