CSD_code = HAYGUJ | q = 0 | S = 0 | Stoichiometry = C19H28BClO2Zr | MND = 12
 OpenBabel04212202043D

 52 54  0  0  1  0  0  0  0  0999 V2000
    1.9733    3.9327    4.6171 Zr  0  0  1  0  0  0  0  0  0  0  0  0
   -0.1148    4.2414    3.5113 Cl  0  0  0  0  0  0  0  0  0  0  0  0
    4.5566    1.3388    2.9951 O   0  0  0  0  0  0  0  0  0  0  0  0
    4.5310    3.3154    4.3901 O   0  0  0  0  0  0  0  0  0  0  0  0
    4.0284    2.5509    3.3071 B   0  0  0  0  0  0  0  0  0  0  0  0
    2.7570    3.1591    2.6826 C   0  0  1  0  0  0  0  0  0  0  0  0
    1.8981    2.2315    1.8179 C   0  0  0  0  0  0  0  0  0  0  0  0
    2.5530    1.9216    0.4644 C   0  0  0  0  0  0  0  0  0  0  0  0
    1.6912    0.9985   -0.3929 C   0  0  0  0  0  0  0  0  0  0  0  0
    2.3342    0.7005   -1.7455 C   0  0  0  0  0  0  0  0  0  0  0  0
    1.4713   -0.2264   -2.5933 C   0  0  0  0  0  0  0  0  0  0  0  0
    5.6810    0.8043    3.6618 C   0  0  0  0  0  0  0  0  0  0  0  0
    5.7590    2.9070    4.9801 C   0  0  0  0  0  0  0  0  0  0  0  0
    5.8563    1.3842    5.0638 C   0  0  0  0  0  0  0  0  0  0  0  0
    2.1887    6.3647    3.9443 C   0  0  0  0  0  3  0  0  0  0  0  0
    1.3092    6.4094    5.0452 C   0  0  0  0  0  0  0  0  0  0  0  0
    2.0117    5.9878    6.1870 C   0  0  0  0  0  0  0  0  0  0  0  0
    3.3374    5.6862    5.7999 C   0  0  0  0  0  3  0  0  0  0  0  0
    3.4497    5.9321    4.4120 C   0  0  1  0  0  0  0  0  0  0  0  0
    2.6006    2.3543    6.5242 C   0  0  0  0  0  0  0  0  0  0  0  0
    2.1114    1.5695    5.4546 C   0  0  0  0  0  3  0  0  0  0  0  0
    0.7392    1.8653    5.2940 C   0  0  1  0  0  0  0  0  0  0  0  0
    0.3837    2.8304    6.2604 C   0  0  0  0  0  3  0  0  0  0  0  0
    1.5319    3.1259    7.0234 C   0  0  0  0  0  0  0  0  0  0  0  0
    2.9297    4.1112    2.1492 H   0  0  0  0  0  0  0  0  0  0  0  0
    0.9206    2.6899    1.6297 H   0  0  0  0  0  0  0  0  0  0  0  0
    1.7394    1.2843    2.3484 H   0  0  0  0  0  0  0  0  0  0  0  0
    3.5244    1.4576    0.6449 H   0  0  0  0  0  0  0  0  0  0  0  0
    2.7219    2.8581   -0.0730 H   0  0  0  0  0  0  0  0  0  0  0  0
    0.7153    1.4626   -0.5529 H   0  0  0  0  0  0  0  0  0  0  0  0
    1.5267    0.0598    0.1411 H   0  0  0  0  0  0  0  0  0  0  0  0
    3.3124    0.2410   -1.5853 H   0  0  0  0  0  0  0  0  0  0  0  0
    2.4939    1.6381   -2.2827 H   0  0  0  0  0  0  0  0  0  0  0  0
    1.9445   -0.4229   -3.5529 H   0  0  0  0  0  0  0  0  0  0  0  0
    1.3187   -1.1761   -2.0849 H   0  0  0  0  0  0  0  0  0  0  0  0
    0.4974    0.2224   -2.7763 H   0  0  0  0  0  0  0  0  0  0  0  0
    6.5691    1.0181    3.0524 H   0  0  0  0  0  0  0  0  0  0  0  0
    5.5444   -0.2818    3.7035 H   0  0  0  0  0  0  0  0  0  0  0  0
    5.8092    3.3582    5.9766 H   0  0  0  0  0  0  0  0  0  0  0  0
    6.5902    3.3003    4.3789 H   0  0  0  0  0  0  0  0  0  0  0  0
    6.8209    1.0880    5.4749 H   0  0  0  0  0  0  0  0  0  0  0  0
    5.0645    1.0068    5.7124 H   0  0  0  0  0  0  0  0  0  0  0  0
    1.9609    6.7078    2.9416 H   0  0  0  0  0  0  0  0  0  0  0  0
    0.2914    6.7765    5.0243 H   0  0  0  0  0  0  0  0  0  0  0  0
    1.6440    6.0484    7.2041 H   0  0  0  0  0  0  0  0  0  0  0  0
    4.1573    5.4623    6.4721 H   0  0  0  0  0  0  0  0  0  0  0  0
    4.3680    5.9214    3.8370 H   0  0  0  0  0  0  0  0  0  0  0  0
    3.5755    2.2760    6.9886 H   0  0  0  0  0  0  0  0  0  0  0  0
    2.6409    0.7765    4.9415 H   0  0  0  0  0  0  0  0  0  0  0  0
    0.0564    1.3738    4.6112 H   0  0  0  0  0  0  0  0  0  0  0  0
   -0.6182    3.2006    6.4441 H   0  0  0  0  0  0  0  0  0  0  0  0
    1.5539    3.7090    7.9358 H   0  0  0  0  0  0  0  0  0  0  0  0
  1  2  1  6  0  0  0
  1 22  1  0  0  0  0
  3  5  1  0  0  0  0
  3 12  1  0  0  0  0
  4 13  1  0  0  0  0
  5  4  1  0  0  0  0
  6 25  1  6  0  0  0
  6  5  1  0  0  0  0
  6  1  1  0  0  0  0
  7 27  1  0  0  0  0
  7  6  1  0  0  0  0
  8 28  1  0  0  0  0
  8  7  1  0  0  0  0
  9 31  1  0  0  0  0
  9  8  1  0  0  0  0
 10 32  1  0  0  0  0
 10  9  1  0  0  0  0
 11 35  1  0  0  0  0
 11 10  1  0  0  0  0
 12 38  1  0  0  0  0
 12 14  1  0  0  0  0
 13 14  1  0  0  0  0
 13 39  1  0  0  0  0
 14 41  1  0  0  0  0
 14 42  1  0  0  0  0
 15 19  1  0  0  0  0
 15 16  1  0  0  0  0
 16 17  2  0  0  0  0
 17 45  1  0  0  0  0
 18 17  1  0  0  0  0
 18 46  1  0  0  0  0
 19 47  1  6  0  0  0
 19  1  1  0  0  0  0
 19 18  1  0  0  0  0
 20 48  1  0  0  0  0
 20 24  2  0  0  0  0
 21 20  1  0  0  0  0
 22 50  1  6  0  0  0
 22 21  1  0  0  0  0
 22 23  1  0  0  0  0
 23 51  1  0  0  0  0
 23 24  1  0  0  0  0
 24 52  1  0  0  0  0
 26  7  1  0  0  0  0
 29  8  1  0  0  0  0
 30  9  1  0  0  0  0
 33 10  1  0  0  0  0
 34 11  1  0  0  0  0
 36 11  1  0  0  0  0
 37 12  1  0  0  0  0
 40 13  1  0  0  0  0
 43 15  1  0  0  0  0
 44 16  1  0  0  0  0
 49 21  1  0  0  0  0
M  END
$$$$
