CSD_code = HAYNAX | q = 1 | S = 0 | Stoichiometry = C15H11ClN3Pt(1+) | MND = 4
 OpenBabel04212202043D

 31 35  0  0  0  0  0  0  0  0999 V2000
    2.1320    1.3046    2.3718 C   0  0  0  0  0  0  0  0  0  0  0  0
    1.9792   -0.1063    2.7501 C   0  0  0  0  0  0  0  0  0  0  0  0
    1.3188   -2.8429    0.4708 C   0  0  0  0  0  0  0  0  0  0  0  0
    2.1408    2.8141    0.6028 C   0  0  0  0  0  3  0  0  0  0  0  0
    2.0402    2.9609   -0.4656 H   0  0  0  0  0  0  0  0  0  0  0  0
    1.5648   -2.2236    1.7796 C   0  0  0  0  0  0  0  0  0  0  0  0
    1.0958   -2.4537   -1.8111 C   0  0  0  0  0  0  0  0  0  0  0  0
    1.1027   -1.7250   -2.6124 H   0  0  0  0  0  0  0  0  0  0  0  0
    2.3861    3.8777    1.4567 C   0  0  0  0  0  0  0  0  0  0  0  0
    2.4800    4.8744    1.0583 H   0  0  0  0  0  0  0  0  0  0  0  0
    1.6289   -2.8362    3.0273 C   0  0  0  0  0  0  0  0  0  0  0  0
    1.4923   -3.8992    3.1340 H   0  0  0  0  0  0  0  0  0  0  0  0
    0.8713   -3.7982   -2.0610 C   0  0  0  0  0  0  0  0  0  0  0  0
    0.6985   -4.1343   -3.0701 H   0  0  0  0  0  0  0  0  0  0  0  0
    2.5053    3.6326    2.8164 C   0  0  0  0  0  0  0  0  0  0  0  0
    2.6945    4.4382    3.5081 H   0  0  0  0  0  0  0  0  0  0  0  0
    1.8747   -2.0462    4.1436 C   0  0  0  0  0  0  0  0  0  0  0  0
    1.9284   -2.5037    5.1187 H   0  0  0  0  0  0  0  0  0  0  0  0
    0.8742   -4.6878   -0.9973 C   0  0  0  0  0  0  0  0  0  0  0  0
    0.7033   -5.7406   -1.1577 H   0  0  0  0  0  0  0  0  0  0  0  0
    2.3772    2.3313    3.2764 C   0  0  0  0  0  0  0  0  0  0  0  0
    2.4658    2.1140    4.3282 H   0  0  0  0  0  0  0  0  0  0  0  0
    2.0522   -0.6737    4.0185 C   0  0  0  0  0  0  0  0  0  0  0  0
    2.2424   -0.0694    4.8894 H   0  0  0  0  0  0  0  0  0  0  0  0
    1.1006   -4.2027    0.2813 C   0  0  0  0  0  0  0  0  0  0  0  0
    1.1077   -4.8730    1.1250 H   0  0  0  0  0  0  0  0  0  0  0  0
    2.0155    1.5645    1.0393 N   0  0  0  0  0  0  0  0  0  0  0  0
    1.7413   -0.8964    1.6921 N   0  0  0  0  0  0  0  0  0  0  0  0
    1.3136   -1.9835   -0.5866 N   0  0  0  0  0  0  0  0  0  0  0  0
    1.5522    0.8474   -2.0305 Cl  0  0  0  0  0  0  0  0  0  0  0  0
    1.6529   -0.0924   -0.0243 Pt  0  0  1  0  0  0  0  0  0  0  0  0
  1  2  1  0  0  0  0
  1 21  2  0  0  0  0
  2 23  2  0  0  0  0
  3  6  2  0  0  0  0
  4 27  1  0  0  0  0
  4  9  1  0  0  0  0
  5  4  1  0  0  0  0
  6 11  1  0  0  0  0
  7 29  1  0  0  0  0
  8  7  1  0  0  0  0
  9 15  2  0  0  0  0
 10  9  1  0  0  0  0
 11 12  1  0  0  0  0
 11 17  2  0  0  0  0
 13  7  2  0  0  0  0
 13 19  1  0  0  0  0
 14 13  1  0  0  0  0
 15 21  1  0  0  0  0
 15 16  1  0  0  0  0
 17 18  1  0  0  0  0
 19 25  2  0  0  0  0
 20 19  1  0  0  0  0
 21 22  1  0  0  0  0
 23 17  1  0  0  0  0
 23 24  1  0  0  0  0
 25  3  1  0  0  0  0
 25 26  1  0  0  0  0
 27  1  1  0  0  0  0
 28  6  1  0  0  0  0
 28  2  1  0  0  0  0
 29 31  1  0  0  0  0
 29  3  1  0  0  0  0
 31 30  1  6  0  0  0
 31 27  1  0  0  0  0
 31 28  1  0  0  0  0
M  END
$$$$
