CSD_code = HAYREE | q = 0 | S = 0 | Stoichiometry = C20H34Br2P2Pt | MND = 4
 OpenBabel04212202043D

 59 62  0  0  1  0  0  0  0  0999 V2000
    1.3011    2.1449    1.2259 Pt  0  0  0  0  0  0  0  0  0  0  0  0
   -0.2559    1.2077   -0.3518 Br  0  0  0  0  0  0  0  0  0  0  0  0
    3.1100    1.3767   -0.1657 Br  0  0  0  0  0  0  0  0  0  0  0  0
   -0.3574    2.6682    2.7161 P   0  0  1  0  0  4  0  0  0  0  0  0
    2.7434    2.9376    2.8178 P   0  0  1  0  0  4  0  0  0  0  0  0
   -0.5753    1.2891    3.8414 C   0  0  0  0  0  0  0  0  0  0  0  0
   -0.1885    1.5167    5.1004 C   0  0  0  0  0  0  0  0  0  0  0  0
    0.3162    2.9038    5.3982 C   0  0  1  0  0  0  0  0  0  0  0  0
    0.2992    3.7273    4.0866 C   0  0  1  0  0  0  0  0  0  0  0  0
   -0.3523    0.5061    6.1906 C   0  0  0  0  0  0  0  0  0  0  0  0
   -0.4531    3.5205    6.5597 C   0  0  0  0  0  0  0  0  0  0  0  0
    1.8235    3.8684    4.1288 C   0  0  1  0  0  0  0  0  0  0  0  0
    1.8859    3.0644    5.4508 C   0  0  2  0  0  0  0  0  0  0  0  0
    2.6804    1.8073    5.2158 C   0  0  0  0  0  0  0  0  0  0  0  0
    3.1720    1.6453    3.9833 C   0  0  0  0  0  0  0  0  0  0  0  0
    2.4331    3.8394    6.6431 C   0  0  0  0  0  0  0  0  0  0  0  0
    2.9855    0.8627    6.3353 C   0  0  0  0  0  0  0  0  0  0  0  0
   -2.0963    3.2787    2.3235 C   0  0  0  0  0  0  0  0  0  0  0  0
   -1.9501    4.2941    1.1924 C   0  0  0  0  0  0  0  0  0  0  0  0
   -2.9448    2.0858    1.8846 C   0  0  0  0  0  0  0  0  0  0  0  0
   -2.7508    3.9184    3.5468 C   0  0  0  0  0  0  0  0  0  0  0  0
    4.3459    3.8746    2.4929 C   0  0  0  0  0  0  0  0  0  0  0  0
    4.0639    4.8103    1.3195 C   0  0  0  0  0  0  0  0  0  0  0  0
    5.4398    2.8670    2.1413 C   0  0  0  0  0  0  0  0  0  0  0  0
    4.7892    4.6643    3.7235 C   0  0  0  0  0  0  0  0  0  0  0  0
   -0.9508    0.3382    3.4938 H   0  0  0  0  0  0  0  0  0  0  0  0
   -0.2211    4.6833    4.1488 H   0  0  0  0  0  0  0  0  0  0  0  0
   -0.0893   -0.4869    5.8338 H   0  0  0  0  0  0  0  0  0  0  0  0
    0.2513    0.7436    7.0598 H   0  0  0  0  0  0  0  0  0  0  0  0
   -1.3959    0.4783    6.5064 H   0  0  0  0  0  0  0  0  0  0  0  0
   -0.2322    4.5796    6.6590 H   0  0  0  0  0  0  0  0  0  0  0  0
   -1.5220    3.4144    6.3866 H   0  0  0  0  0  0  0  0  0  0  0  0
   -0.2116    3.0282    7.4981 H   0  0  0  0  0  0  0  0  0  0  0  0
    2.1571    4.9037    4.2020 H   0  0  0  0  0  0  0  0  0  0  0  0
    3.7497    0.7861    3.6771 H   0  0  0  0  0  0  0  0  0  0  0  0
    2.0020    4.8355    6.6941 H   0  0  0  0  0  0  0  0  0  0  0  0
    2.2259    3.3270    7.5789 H   0  0  0  0  0  0  0  0  0  0  0  0
    3.5118    3.9440    6.5453 H   0  0  0  0  0  0  0  0  0  0  0  0
    2.8536   -0.1676    6.0127 H   0  0  0  0  0  0  0  0  0  0  0  0
    4.0262    0.9820    6.6389 H   0  0  0  0  0  0  0  0  0  0  0  0
    2.3630    1.0460    7.2049 H   0  0  0  0  0  0  0  0  0  0  0  0
   -2.9179    4.7193    0.9337 H   0  0  0  0  0  0  0  0  0  0  0  0
   -1.2832    5.1056    1.4875 H   0  0  0  0  0  0  0  0  0  0  0  0
   -1.5404    3.8147    0.3047 H   0  0  0  0  0  0  0  0  0  0  0  0
   -3.9074    2.4389    1.5186 H   0  0  0  0  0  0  0  0  0  0  0  0
   -2.4654    1.5310    1.0825 H   0  0  0  0  0  0  0  0  0  0  0  0
   -3.1232    1.4132    2.7219 H   0  0  0  0  0  0  0  0  0  0  0  0
   -3.8019    4.1014    3.3289 H   0  0  0  0  0  0  0  0  0  0  0  0
   -2.6957    3.2520    4.4061 H   0  0  0  0  0  0  0  0  0  0  0  0
   -2.2989    4.8732    3.8052 H   0  0  0  0  0  0  0  0  0  0  0  0
    4.9410    5.4131    1.0920 H   0  0  0  0  0  0  0  0  0  0  0  0
    3.8058    4.2357    0.4309 H   0  0  0  0  0  0  0  0  0  0  0  0
    3.2344    5.4799    1.5522 H   0  0  0  0  0  0  0  0  0  0  0  0
    6.3298    3.3979    1.8077 H   0  0  0  0  0  0  0  0  0  0  0  0
    5.7045    2.2691    3.0118 H   0  0  0  0  0  0  0  0  0  0  0  0
    5.1265    2.2032    1.3400 H   0  0  0  0  0  0  0  0  0  0  0  0
    5.7982    5.0387    3.5573 H   0  0  0  0  0  0  0  0  0  0  0  0
    4.1496    5.5226    3.9159 H   0  0  0  0  0  0  0  0  0  0  0  0
    4.8073    4.0263    4.6057 H   0  0  0  0  0  0  0  0  0  0  0  0
  1  4  1  0  0  0  0
  1  5  1  0  0  0  0
  2  1  1  0  0  0  0
  3  1  1  0  0  0  0
  4 18  1  6  0  0  0
  4  6  1  0  0  0  0
  4  9  1  0  0  0  0
  5 22  1  6  0  0  0
  5 15  1  0  0  0  0
  5 12  1  0  0  0  0
  6  7  2  0  0  0  0
  7  8  1  0  0  0  0
  7 10  1  0  0  0  0
  8 13  1  0  0  0  0
  8 11  1  1  0  0  0
  9 12  1  0  0  0  0
  9 27  1  1  0  0  0
  9  8  1  0  0  0  0
 10 30  1  0  0  0  0
 10 29  1  0  0  0  0
 11 31  1  0  0  0  0
 11 33  1  0  0  0  0
 12 34  1  1  0  0  0
 12 13  1  0  0  0  0
 13 16  1  1  0  0  0
 14 13  1  0  0  0  0
 14 17  1  0  0  0  0
 15 14  2  0  0  0  0
 16 36  1  0  0  0  0
 16 37  1  0  0  0  0
 17 40  1  0  0  0  0
 17 41  1  0  0  0  0
 18 21  1  0  0  0  0
 19 43  1  0  0  0  0
 19 18  1  0  0  0  0
 20 18  1  0  0  0  0
 20 47  1  0  0  0  0
 21 50  1  0  0  0  0
 21 49  1  0  0  0  0
 22 25  1  0  0  0  0
 23 53  1  0  0  0  0
 23 22  1  0  0  0  0
 24 22  1  0  0  0  0
 24 55  1  0  0  0  0
 25 58  1  0  0  0  0
 25 59  1  0  0  0  0
 26  6  1  0  0  0  0
 28 10  1  0  0  0  0
 32 11  1  0  0  0  0
 35 15  1  0  0  0  0
 38 16  1  0  0  0  0
 39 17  1  0  0  0  0
 42 19  1  0  0  0  0
 44 19  1  0  0  0  0
 45 20  1  0  0  0  0
 46 20  1  0  0  0  0
 48 21  1  0  0  0  0
 51 23  1  0  0  0  0
 52 23  1  0  0  0  0
 54 24  1  0  0  0  0
 56 24  1  0  0  0  0
 57 25  1  0  0  0  0
M  END
$$$$
