CSD_code = HAYRII | q = 0 | S = 0 | Stoichiometry = C20H34Br2P2Pt | MND = 4
 OpenBabel04212202043D

 59 61  0  0  1  0  0  0  0  0999 V2000
    4.1906    1.1979    0.9663 Pt  0  0  0  0  0  0  0  0  0  0  0  0
    2.0404    0.3347    1.6487 Br  0  0  0  0  0  0  0  0  0  0  0  0
    5.3600    0.0174    2.7210 Br  0  0  0  0  0  0  0  0  0  0  0  0
    6.1296    2.0767    0.1781 P   0  0  1  0  0  4  0  0  0  0  0  0
    3.1279    2.7041   -0.3789 P   0  0  2  0  0  4  0  0  0  0  0  0
    5.7548    3.5041   -0.9543 C   0  0  2  0  0  0  0  0  0  0  0  0
    6.8849    4.4786   -0.7251 C   0  0  0  0  0  0  0  0  0  0  0  0
    7.5585    4.2466    0.5548 C   0  0  0  0  0  0  0  0  0  0  0  0
    7.2760    3.0677    1.1366 C   0  0  0  0  0  0  0  0  0  0  0  0
    7.2317    5.4094   -1.6106 C   0  0  0  0  0  0  0  0  0  0  0  0
    8.4936    5.2599    1.1232 C   0  0  0  0  0  0  0  0  0  0  0  0
    4.3594    4.0807   -0.6503 C   0  0  2  0  0  0  0  0  0  0  0  0
    4.2465    4.9435    0.6271 C   0  0  2  0  0  0  0  0  0  0  0  0
    2.8607    4.7498    1.2049 C   0  0  0  0  0  0  0  0  0  0  0  0
    2.1619    3.7151    0.7331 C   0  0  0  0  0  0  0  0  0  0  0  0
    2.3696    5.6734    2.2666 C   0  0  0  0  0  0  0  0  0  0  0  0
    4.5328    6.4201    0.3530 C   0  0  0  0  0  0  0  0  0  0  0  0
    7.2261    0.8872   -0.7817 C   0  0  0  0  0  0  0  0  0  0  0  0
    8.1306    1.6086   -1.7771 C   0  0  0  0  0  0  0  0  0  0  0  0
    8.0826    0.1388    0.2396 C   0  0  0  0  0  0  0  0  0  0  0  0
    6.2832   -0.0806   -1.4944 C   0  0  0  0  0  0  0  0  0  0  0  0
    2.1138    2.4784   -1.9407 C   0  0  0  0  0  0  0  0  0  0  0  0
    1.3762    3.7685   -2.2839 C   0  0  0  0  0  0  0  0  0  0  0  0
    1.1194    1.3570   -1.6486 C   0  0  0  0  0  0  0  0  0  0  0  0
    3.0534    2.0648   -3.0702 C   0  0  0  0  0  0  0  0  0  0  0  0
    5.7450    3.1626   -1.9950 H   0  0  0  0  0  0  0  0  0  0  0  0
    7.6725    2.7347    2.0827 H   0  0  0  0  0  0  0  0  0  0  0  0
    6.7162    5.5119   -2.5508 H   0  0  0  0  0  0  0  0  0  0  0  0
    8.0439    6.0937   -1.4376 H   0  0  0  0  0  0  0  0  0  0  0  0
    8.8267    4.9601    2.1132 H   0  0  0  0  0  0  0  0  0  0  0  0
    9.3672    5.3686    0.4811 H   0  0  0  0  0  0  0  0  0  0  0  0
    8.0049    6.2308    1.1912 H   0  0  0  0  0  0  0  0  0  0  0  0
    4.0361    4.6945   -1.5002 H   0  0  0  0  0  0  0  0  0  0  0  0
    4.9673    4.5720    1.3695 H   0  0  0  0  0  0  0  0  0  0  0  0
    1.1958    3.4082    1.1028 H   0  0  0  0  0  0  0  0  0  0  0  0
    1.4448    5.2988    2.6971 H   0  0  0  0  0  0  0  0  0  0  0  0
    3.1131    5.7649    3.0572 H   0  0  0  0  0  0  0  0  0  0  0  0
    2.1860    6.6674    1.8602 H   0  0  0  0  0  0  0  0  0  0  0  0
    5.4923    6.5420   -0.1412 H   0  0  0  0  0  0  0  0  0  0  0  0
    3.7592    6.8372   -0.2899 H   0  0  0  0  0  0  0  0  0  0  0  0
    4.5535    6.9841    1.2816 H   0  0  0  0  0  0  0  0  0  0  0  0
    8.8305    0.8931   -2.2060 H   0  0  0  0  0  0  0  0  0  0  0  0
    7.5675    2.0535   -2.5948 H   0  0  0  0  0  0  0  0  0  0  0  0
    8.7067    2.3911   -1.2854 H   0  0  0  0  0  0  0  0  0  0  0  0
    8.6318   -0.6617   -0.2532 H   0  0  0  0  0  0  0  0  0  0  0  0
    8.8014    0.8108    0.7052 H   0  0  0  0  0  0  0  0  0  0  0  0
    7.4673   -0.3038    1.0206 H   0  0  0  0  0  0  0  0  0  0  0  0
    6.8419   -0.8948   -1.9521 H   0  0  0  0  0  0  0  0  0  0  0  0
    5.5749   -0.5143   -0.7787 H   0  0  0  0  0  0  0  0  0  0  0  0
    5.7211    0.4308   -2.2755 H   0  0  0  0  0  0  0  0  0  0  0  0
    0.7660    3.6120   -3.1721 H   0  0  0  0  0  0  0  0  0  0  0  0
    0.7214    4.0682   -1.4682 H   0  0  0  0  0  0  0  0  0  0  0  0
    2.0661    4.5849   -2.4906 H   0  0  0  0  0  0  0  0  0  0  0  0
    0.4910    1.1722   -2.5183 H   0  0  0  0  0  0  0  0  0  0  0  0
    1.6424    0.4343   -1.4002 H   0  0  0  0  0  0  0  0  0  0  0  0
    0.4783    1.6137   -0.8070 H   0  0  0  0  0  0  0  0  0  0  0  0
    2.4811    1.8271   -3.9655 H   0  0  0  0  0  0  0  0  0  0  0  0
    3.7517    2.8641   -3.3168 H   0  0  0  0  0  0  0  0  0  0  0  0
    3.6170    1.1775   -2.7825 H   0  0  0  0  0  0  0  0  0  0  0  0
  1  2  1  0  0  0  0
  1  3  1  0  0  0  0
  4 18  1  6  0  0  0
  4  1  1  0  0  0  0
  4  9  1  0  0  0  0
  5 22  1  6  0  0  0
  5 15  1  0  0  0  0
  5  1  1  0  0  0  0
  6 26  1  6  0  0  0
  6  7  1  0  0  0  0
  6 12  1  0  0  0  0
  6  4  1  0  0  0  0
  7  8  1  0  0  0  0
  8 11  1  0  0  0  0
  8  9  2  0  0  0  0
  9 27  1  0  0  0  0
 10 29  1  0  0  0  0
 10  7  2  0  0  0  0
 11 32  1  0  0  0  0
 11 30  1  0  0  0  0
 12 33  1  6  0  0  0
 12  5  1  0  0  0  0
 12 13  1  0  0  0  0
 13 14  1  0  0  0  0
 13 34  1  1  0  0  0
 14 16  1  0  0  0  0
 15 35  1  0  0  0  0
 15 14  2  0  0  0  0
 16 36  1  0  0  0  0
 16 37  1  0  0  0  0
 17 13  1  0  0  0  0
 17 41  1  0  0  0  0
 18 20  1  0  0  0  0
 19 44  1  0  0  0  0
 19 18  1  0  0  0  0
 20 46  1  0  0  0  0
 20 47  1  0  0  0  0
 21 18  1  0  0  0  0
 21 49  1  0  0  0  0
 22 24  1  0  0  0  0
 23 22  1  0  0  0  0
 23 52  1  0  0  0  0
 24 55  1  0  0  0  0
 24 56  1  0  0  0  0
 25 59  1  0  0  0  0
 25 22  1  0  0  0  0
 28 10  1  0  0  0  0
 31 11  1  0  0  0  0
 38 16  1  0  0  0  0
 39 17  1  0  0  0  0
 40 17  1  0  0  0  0
 42 19  1  0  0  0  0
 43 19  1  0  0  0  0
 45 20  1  0  0  0  0
 48 21  1  0  0  0  0
 50 21  1  0  0  0  0
 51 23  1  0  0  0  0
 53 23  1  0  0  0  0
 54 24  1  0  0  0  0
 57 25  1  0  0  0  0
 58 25  1  0  0  0  0
M  END
$$$$
