CSD_code = HAYYEL | q = 0 | S = 0 | Stoichiometry = C18H22Cl2N2O4Pt | MND = 4
 OpenBabel04212202043D

 49 52  0  0  0  0  0  0  0  0999 V2000
    6.9232    2.3627    0.7323 Pt  0  0  0  0  0  0  0  0  0  0  0  0
    5.3444    3.7271    1.5359 Cl  0  0  0  0  0  0  0  0  0  0  0  0
    6.7893    1.1800    2.6259 Cl  0  0  0  0  0  0  0  0  0  0  0  0
    7.0207    3.2276   -1.0814 N   0  0  0  0  0  0  0  0  0  0  0  0
    6.1027    4.0646   -1.5558 C   0  0  0  0  0  0  0  0  0  0  0  0
    5.4699    4.5371   -0.8150 H   0  0  0  0  0  0  0  0  0  0  0  0
    5.9559    4.2979   -2.9098 C   0  0  0  0  0  0  0  0  0  0  0  0
    5.2189    5.0007   -3.2622 H   0  0  0  0  0  0  0  0  0  0  0  0
    6.7229    3.5578   -3.7931 C   0  0  0  0  0  0  0  0  0  0  0  0
    6.5633    3.6187   -4.8573 H   0  0  0  0  0  0  0  0  0  0  0  0
    7.6907    2.6817   -3.3102 C   0  0  0  0  0  0  0  0  0  0  0  0
    7.8825    2.6095   -1.9244 C   0  0  0  0  0  0  0  0  0  0  0  0
    8.8987    1.8117   -1.2235 C   0  0  0  0  0  0  0  0  0  0  0  0
   10.2293    1.6247   -1.6192 C   0  0  0  0  0  0  0  0  0  0  0  0
   11.0212    0.7593   -0.8702 C   0  0  0  0  0  0  0  0  0  0  0  0
   12.0475    0.6102   -1.1635 H   0  0  0  0  0  0  0  0  0  0  0  0
   10.5000    0.1437    0.2551 C   0  0  0  0  0  0  0  0  0  0  0  0
   11.0861   -0.5497    0.8355 H   0  0  0  0  0  0  0  0  0  0  0  0
    9.2284    0.4939    0.6670 C   0  0  0  0  0  0  0  0  0  0  0  0
    8.7978    0.1277    1.5905 H   0  0  0  0  0  0  0  0  0  0  0  0
    8.4626    1.3210   -0.0385 N   0  0  0  0  0  0  0  0  0  0  0  0
    8.3765    1.7807   -4.2981 C   0  0  0  0  0  0  0  0  0  0  0  0
    8.7805    0.8909   -3.7944 H   0  0  0  0  0  0  0  0  0  0  0  0
    9.2053    2.3052   -4.7890 H   0  0  0  0  0  0  0  0  0  0  0  0
    7.4257    1.3864   -5.2715 O   0  0  0  0  0  0  0  0  0  0  0  0
    7.9520    0.5521   -6.2715 C   0  0  0  0  0  0  0  0  0  0  0  0
    8.4683   -0.3095   -5.8265 H   0  0  0  0  0  0  0  0  0  0  0  0
    7.0838    0.2057   -6.8355 H   0  0  0  0  0  0  0  0  0  0  0  0
    8.9234    1.2649   -7.2193 C   0  0  0  0  0  0  0  0  0  0  0  0
    8.5622    2.2865   -7.4098 H   0  0  0  0  0  0  0  0  0  0  0  0
    8.9648    0.7286   -8.1792 H   0  0  0  0  0  0  0  0  0  0  0  0
   10.2053    1.2972   -6.6305 O   0  0  0  0  0  0  0  0  0  0  0  0
   11.1321    2.0897   -7.3321 C   0  0  0  0  0  0  0  0  0  0  0  0
   11.3323    1.6614   -8.3257 H   0  0  0  0  0  0  0  0  0  0  0  0
   10.7418    3.1100   -7.4594 H   0  0  0  0  0  0  0  0  0  0  0  0
   12.4236    2.1446   -6.5263 C   0  0  0  0  0  0  0  0  0  0  0  0
   13.2186    2.6077   -7.1300 H   0  0  0  0  0  0  0  0  0  0  0  0
   12.7295    1.1212   -6.2649 H   0  0  0  0  0  0  0  0  0  0  0  0
   12.1890    2.8964   -5.3605 O   0  0  0  0  0  0  0  0  0  0  0  0
   13.2831    2.9153   -4.4699 C   0  0  0  0  0  0  0  0  0  0  0  0
   13.6094    1.8901   -4.2400 H   0  0  0  0  0  0  0  0  0  0  0  0
   14.1281    3.4529   -4.9256 H   0  0  0  0  0  0  0  0  0  0  0  0
   12.8657    3.6191   -3.1740 C   0  0  0  0  0  0  0  0  0  0  0  0
   12.2554    4.4949   -3.4353 H   0  0  0  0  0  0  0  0  0  0  0  0
   13.7575    3.9435   -2.6345 H   0  0  0  0  0  0  0  0  0  0  0  0
   12.1789    2.7887   -2.2737 O   0  0  0  0  0  0  0  0  0  0  0  0
   10.8906    2.4048   -2.7204 C   0  0  0  0  0  0  0  0  0  0  0  0
   10.3038    3.3008   -2.9657 H   0  0  0  0  0  0  0  0  0  0  0  0
   10.9841    1.7937   -3.6270 H   0  0  0  0  0  0  0  0  0  0  0  0
  1  2  1  0  0  0  0
  1  3  1  0  0  0  0
  4  1  1  0  0  0  0
  5  4  1  0  0  0  0
  5  6  1  0  0  0  0
  7  5  2  0  0  0  0
  8  7  1  0  0  0  0
  9 11  2  0  0  0  0
  9  7  1  0  0  0  0
 10  9  1  0  0  0  0
 11 12  1  0  0  0  0
 12 13  2  0  0  0  0
 12  4  1  0  0  0  0
 13 21  1  0  0  0  0
 14 13  1  0  0  0  0
 14 15  2  0  0  0  0
 15 17  1  0  0  0  0
 16 15  1  0  0  0  0
 17 19  2  0  0  0  0
 17 18  1  0  0  0  0
 19 20  1  0  0  0  0
 21 19  1  0  0  0  0
 21  1  1  0  0  0  0
 22 23  1  0  0  0  0
 22 11  1  0  0  0  0
 24 22  1  0  0  0  0
 25 22  1  0  0  0  0
 26 27  1  0  0  0  0
 26 25  1  0  0  0  0
 28 26  1  0  0  0  0
 29 32  1  0  0  0  0
 29 26  1  0  0  0  0
 30 29  1  0  0  0  0
 31 29  1  0  0  0  0
 33 32  1  0  0  0  0
 33 36  1  0  0  0  0
 34 33  1  0  0  0  0
 35 33  1  0  0  0  0
 36 38  1  0  0  0  0
 36 39  1  0  0  0  0
 37 36  1  0  0  0  0
 39 40  1  0  0  0  0
 40 41  1  0  0  0  0
 40 43  1  0  0  0  0
 42 40  1  0  0  0  0
 43 45  1  0  0  0  0
 43 46  1  0  0  0  0
 44 43  1  0  0  0  0
 47 46  1  0  0  0  0
 47 14  1  0  0  0  0
 48 47  1  0  0  0  0
 49 47  1  0  0  0  0
M  END
$$$$
