CSD_code = HAZDOD | q = 0 | S = 0 | Stoichiometry = C21H24AuClN2S | MND = 2
 OpenBabel04212202043D

 50 52  0  0  1  0  0  0  0  0999 V2000
    8.5452    2.6976   -0.0577 Au  0  0  0  0  0  0  0  0  0  0  0  0
   10.4392    3.3802    1.1011 S   0  0  0  0  0  0  0  0  0  0  0  0
    6.7453    2.0305   -1.2576 Cl  0  0  0  0  0  0  0  0  0  0  0  0
   12.7542    4.3708    0.2392 N   0  0  0  0  0  0  0  0  0  0  0  0
   13.7897    4.1556    2.4218 C   0  0  0  0  0  0  0  0  0  0  0  0
   13.0595    4.9200    1.5145 C   0  0  0  0  0  0  0  0  0  0  0  0
   14.0869    4.7132    3.6549 C   0  0  0  0  0  0  0  0  0  0  0  0
   14.6501    4.1336    4.3717 H   0  0  0  0  0  0  0  0  0  0  0  0
   13.9802    6.5615    5.3410 C   0  0  0  0  0  0  0  0  0  0  0  0
   13.2296    6.2331    6.0600 H   0  0  0  0  0  0  0  0  0  0  0  0
   13.9732    7.6482    5.3185 H   0  0  0  0  0  0  0  0  0  0  0  0
   14.9512    6.2191    5.6909 H   0  0  0  0  0  0  0  0  0  0  0  0
   12.8916    3.8020   -1.8730 C   0  0  0  0  0  0  0  0  0  0  0  0
   13.1616    3.6275   -2.8938 H   0  0  0  0  0  0  0  0  0  0  0  0
   10.7687    2.5648   -2.1089 C   0  0  0  0  0  0  0  0  0  0  0  0
   11.6297    3.6820   -0.0584 C   0  0  1  0  0  3  0  0  0  0  0  0
   13.5409    4.4491   -0.8808 C   0  0  0  0  0  0  0  0  0  0  0  0
   14.4834    4.9562   -0.8694 H   0  0  0  0  0  0  0  0  0  0  0  0
   14.2125    2.7631    2.0693 C   0  0  0  0  0  0  0  0  0  0  0  0
   13.3328    2.1382    1.9171 H   0  0  0  0  0  0  0  0  0  0  0  0
   14.8085    2.3306    2.8678 H   0  0  0  0  0  0  0  0  0  0  0  0
   14.7977    2.7505    1.1500 H   0  0  0  0  0  0  0  0  0  0  0  0
    9.9303    3.2246   -3.0106 C   0  0  0  0  0  0  0  0  0  0  0  0
   13.6681    5.9935    3.9915 C   0  0  0  0  0  0  0  0  0  0  0  0
   10.7308    1.1789   -1.9470 C   0  0  0  0  0  0  0  0  0  0  0  0
   12.9316    6.7228    3.0685 C   0  0  0  0  0  0  0  0  0  0  0  0
   12.5910    7.7152    3.3254 H   0  0  0  0  0  0  0  0  0  0  0  0
   12.6135    6.2027    1.8236 C   0  0  0  0  0  0  0  0  0  0  0  0
   11.6543    0.5028   -0.9793 C   0  0  0  0  0  0  0  0  0  0  0  0
   11.5854   -0.5766   -1.0792 H   0  0  0  0  0  0  0  0  0  0  0  0
   11.3864    0.7676    0.0444 H   0  0  0  0  0  0  0  0  0  0  0  0
   12.6885    0.8056   -1.1462 H   0  0  0  0  0  0  0  0  0  0  0  0
   11.7101    3.3233   -1.3594 N   0  0  0  0  0  0  0  0  0  0  0  0
    9.0232    2.4667   -3.7299 C   0  0  0  0  0  0  0  0  0  0  0  0
    8.3439    2.9613   -4.4072 H   0  0  0  0  0  0  0  0  0  0  0  0
    7.8679    0.3196   -4.2699 C   0  0  0  0  0  0  0  0  0  0  0  0
    7.6856    0.7173   -5.2653 H   0  0  0  0  0  0  0  0  0  0  0  0
    6.9489    0.4195   -3.6912 H   0  0  0  0  0  0  0  0  0  0  0  0
    8.1194   -0.7354   -4.3397 H   0  0  0  0  0  0  0  0  0  0  0  0
    9.8027    0.4619   -2.6846 C   0  0  0  0  0  0  0  0  0  0  0  0
    9.7410   -0.6079   -2.5499 H   0  0  0  0  0  0  0  0  0  0  0  0
    8.9317    1.0907   -3.5634 C   0  0  0  0  0  0  0  0  0  0  0  0
    9.9977    4.7143   -3.1653 C   0  0  0  0  0  0  0  0  0  0  0  0
    9.1295    5.0736   -3.7094 H   0  0  0  0  0  0  0  0  0  0  0  0
   10.8934    5.0074   -3.7141 H   0  0  0  0  0  0  0  0  0  0  0  0
   10.0235    5.2049   -2.1931 H   0  0  0  0  0  0  0  0  0  0  0  0
   11.7925    6.9763    0.8388 C   0  0  0  0  0  0  0  0  0  0  0  0
   12.2894    7.0337   -0.1295 H   0  0  0  0  0  0  0  0  0  0  0  0
   11.6113    7.9850    1.1989 H   0  0  0  0  0  0  0  0  0  0  0  0
   10.8302    6.4844    0.6959 H   0  0  0  0  0  0  0  0  0  0  0  0
  1  2  1  0  0  0  0
  3  1  1  0  0  0  0
  4  6  1  0  0  0  0
  5  7  1  0  0  0  0
  6 28  1  0  0  0  0
  6  5  2  0  0  0  0
  7 24  2  0  0  0  0
  7  8  1  0  0  0  0
  9 12  1  0  0  0  0
  9 10  1  0  0  0  0
 11  9  1  0  0  0  0
 13 33  1  0  0  0  0
 13 17  2  0  0  0  0
 14 13  1  0  0  0  0
 15 25  1  0  0  0  0
 15 33  1  0  0  0  0
 16  4  1  0  0  0  0
 16  2  1  1  0  0  0
 17 18  1  0  0  0  0
 17  4  1  0  0  0  0
 19  5  1  0  0  0  0
 19 21  1  0  0  0  0
 20 19  1  0  0  0  0
 22 19  1  0  0  0  0
 23 15  2  0  0  0  0
 24  9  1  0  0  0  0
 25 29  1  0  0  0  0
 26 27  1  0  0  0  0
 26 24  1  0  0  0  0
 28 26  2  0  0  0  0
 29 31  1  0  0  0  0
 30 29  1  0  0  0  0
 32 29  1  0  0  0  0
 33 16  1  0  0  0  0
 34 42  2  0  0  0  0
 34 23  1  0  0  0  0
 35 34  1  0  0  0  0
 36 38  1  0  0  0  0
 36 42  1  0  0  0  0
 37 36  1  0  0  0  0
 39 36  1  0  0  0  0
 40 41  1  0  0  0  0
 40 25  2  0  0  0  0
 42 40  1  0  0  0  0
 43 23  1  0  0  0  0
 43 46  1  0  0  0  0
 44 43  1  0  0  0  0
 45 43  1  0  0  0  0
 47 49  1  0  0  0  0
 47 28  1  0  0  0  0
 48 47  1  0  0  0  0
 50 47  1  0  0  0  0
M  END
$$$$
