CSD_code = HAZGEU | q = 0 | S = 0 | Stoichiometry = C4H10Cl3MoNO2 | MND = 6
 OpenBabel04212202043D

 21 19  0  0  0  0  0  0  0  0999 V2000
    0.6363    1.5565    3.1360 Mo  0  0  0  0  0  0  0  0  0  0  0  0
   -0.3247    0.7095    5.0239 Cl  0  0  0  0  0  0  0  0  0  0  0  0
    0.3753    2.4682    1.0553 Cl  0  0  0  0  0  0  0  0  0  0  0  0
    1.7105   -0.2811    2.5281 Cl  0  0  0  0  0  0  0  0  0  0  0  0
   -1.8174    0.7888    2.3552 O   0  0  0  0  0  0  0  0  0  0  0  0
   -1.0275    3.1965    3.5644 O   0  0  0  0  0  0  0  0  0  0  0  0
    1.8317    2.5816    3.8000 N   0  0  0  0  0  1  0  0  0  0  0  0
   -1.9302   -0.0331    1.2120 C   0  0  0  0  0  0  0  0  0  0  0  0
   -2.6279    1.9417    2.2964 C   0  0  0  0  0  0  0  0  0  0  0  0
   -2.3781    2.7625    3.5559 C   0  0  0  0  0  0  0  0  0  0  0  0
   -0.7432    4.0416    4.6703 C   0  0  0  0  0  0  0  0  0  0  0  0
   -1.6069    0.4995    0.3109 H   0  0  0  0  0  0  0  0  0  0  0  0
   -1.2863   -0.8949    1.3802 H   0  0  0  0  0  0  0  0  0  0  0  0
   -2.9652   -0.3697    1.0843 H   0  0  0  0  0  0  0  0  0  0  0  0
   -2.3754    2.5399    1.4065 H   0  0  0  0  0  0  0  0  0  0  0  0
   -3.6885    1.6534    2.2502 H   0  0  0  0  0  0  0  0  0  0  0  0
   -3.0383    3.6420    3.5572 H   0  0  0  0  0  0  0  0  0  0  0  0
   -2.5754    2.1452    4.4476 H   0  0  0  0  0  0  0  0  0  0  0  0
    0.3115    4.3057    4.5830 H   0  0  0  0  0  0  0  0  0  0  0  0
   -0.9077    3.5099    5.6158 H   0  0  0  0  0  0  0  0  0  0  0  0
   -1.3751    4.9358    4.6222 H   0  0  0  0  0  0  0  0  0  0  0  0
  1  7  1  0  0  0  0
  1  2  1  0  0  0  0
  3  1  1  0  0  0  0
  4  1  1  0  0  0  0
  6 11  1  0  0  0  0
  8 13  1  0  0  0  0
  8  5  1  0  0  0  0
  9  5  1  0  0  0  0
  9 10  1  0  0  0  0
 10 17  1  0  0  0  0
 10  6  1  0  0  0  0
 10 18  1  0  0  0  0
 11 20  1  0  0  0  0
 12  8  1  0  0  0  0
 14  8  1  0  0  0  0
 15  9  1  0  0  0  0
 16  9  1  0  0  0  0
 19 11  1  0  0  0  0
 21 11  1  0  0  0  0
M  END
$$$$
