CSD_code = HAZHOH | q = 0 | S = 0 | Stoichiometry = C26H20ClN2OPPd | MND = 4
 OpenBabel04212202043D

 52 57  0  0  0  0  0  0  0  0999 V2000
    7.0095    2.0306    2.7211 Pd  0  0  1  0  0  0  0  0  0  0  0  0
    5.3934    0.7363    2.8825 O   0  0  0  0  0  0  0  0  0  0  0  0
    8.4761    3.6312    2.4340 P   0  0  0  0  0  4  0  0  0  0  0  0
    7.8755    1.5687    4.7225 Cl  0  0  0  0  0  0  0  0  0  0  0  0
    6.1783    2.3321    0.9660 N   0  0  0  0  0  0  0  0  0  0  0  0
    5.0141    1.6787    0.8259 N   0  0  0  0  0  0  0  0  0  0  0  0
    3.0687   -0.7622    2.7134 C   0  0  0  0  0  0  0  0  0  0  0  0
    3.6940   -0.8377    3.5906 H   0  0  0  0  0  0  0  0  0  0  0  0
    1.9091   -1.5043    2.5974 C   0  0  0  0  0  0  0  0  0  0  0  0
    1.6155   -2.1737    3.3926 H   0  0  0  0  0  0  0  0  0  0  0  0
    1.1241   -1.3899    1.4612 C   0  0  0  0  0  0  0  0  0  0  0  0
    0.2181   -1.9714    1.3705 H   0  0  0  0  0  0  0  0  0  0  0  0
    1.5000   -0.5305    0.4400 C   0  0  0  0  0  0  0  0  0  0  0  0
    0.8854   -0.4440   -0.4443 H   0  0  0  0  0  0  0  0  0  0  0  0
    2.6586    0.2142    0.5489 C   0  0  0  0  0  0  0  0  0  0  0  0
    2.9673    0.8868   -0.2353 H   0  0  0  0  0  0  0  0  0  0  0  0
    3.4504    0.1010    1.6891 C   0  0  0  0  0  0  0  0  0  0  0  0
    4.6967    0.8797    1.8353 C   0  0  0  0  0  0  0  0  0  0  0  0
    6.5750    2.9970   -0.0775 C   0  0  0  0  0  3  0  0  0  0  0  0
    5.9156    2.9357   -0.9429 H   0  0  0  0  0  0  0  0  0  0  0  0
    7.7883    3.7468   -0.2815 C   0  0  0  0  0  0  0  0  0  0  0  0
    8.7633    4.0478    0.6924 C   0  0  0  0  0  0  0  0  0  0  0  0
    9.9274    4.7183    0.3330 C   0  0  0  0  0  0  0  0  0  0  0  0
   10.6760    4.9088    1.0905 H   0  0  0  0  0  0  0  0  0  0  0  0
   10.1456    5.1248   -0.9701 C   0  0  0  0  0  0  0  0  0  0  0  0
   11.0573    5.6389   -1.2335 H   0  0  0  0  0  0  0  0  0  0  0  0
    9.1793    4.8678   -1.9321 C   0  0  0  0  0  0  0  0  0  0  0  0
    9.3324    5.1890   -2.9514 H   0  0  0  0  0  0  0  0  0  0  0  0
    8.0274    4.1920   -1.5921 C   0  0  0  0  0  0  0  0  0  0  0  0
    7.2888    3.9852   -2.3529 H   0  0  0  0  0  0  0  0  0  0  0  0
   10.1284    3.4577    3.1487 C   0  0  0  0  0  0  0  0  0  0  0  0
   10.7598    2.2503    2.8558 C   0  0  0  0  0  0  0  0  0  0  0  0
   10.2379    1.5239    2.2372 H   0  0  0  0  0  0  0  0  0  0  0  0
   12.0112    1.9825    3.3726 C   0  0  0  0  0  0  0  0  0  0  0  0
   12.5012    1.0462    3.1518 H   0  0  0  0  0  0  0  0  0  0  0  0
   12.6303    2.9151    4.1923 C   0  0  0  0  0  0  0  0  0  0  0  0
   13.6056    2.7041    4.6051 H   0  0  0  0  0  0  0  0  0  0  0  0
   11.9954    4.1067    4.4986 C   0  0  0  0  0  0  0  0  0  0  0  0
   12.4749    4.8217    5.1509 H   0  0  0  0  0  0  0  0  0  0  0  0
   10.7404    4.3835    3.9821 C   0  0  0  0  0  0  0  0  0  0  0  0
   10.2351    5.3047    4.2353 H   0  0  0  0  0  0  0  0  0  0  0  0
    7.7256    5.1527    3.0957 C   0  0  0  0  0  0  0  0  0  0  0  0
    8.2341    6.4229    2.8396 C   0  0  0  0  0  0  0  0  0  0  0  0
    9.1152    6.5370    2.2237 H   0  0  0  0  0  0  0  0  0  0  0  0
    7.6020    7.5361    3.3640 C   0  0  0  0  0  0  0  0  0  0  0  0
    7.9993    8.5212    3.1683 H   0  0  0  0  0  0  0  0  0  0  0  0
    6.4599    7.3899    4.1353 C   0  0  0  0  0  0  0  0  0  0  0  0
    5.9705    8.2621    4.5422 H   0  0  0  0  0  0  0  0  0  0  0  0
    5.9414    6.1283    4.3805 C   0  0  0  0  0  0  0  0  0  0  0  0
    5.0480    6.0178    4.9766 H   0  0  0  0  0  0  0  0  0  0  0  0
    6.5686    5.0096    3.8614 C   0  0  0  0  0  0  0  0  0  0  0  0
    6.1688    4.0056    4.0583 H   0  0  0  0  0  0  0  0  0  0  0  0
  1  2  1  0  0  0  0
  1  4  1  6  0  0  0
  3  1  1  0  0  0  0
  3 42  1  0  0  0  0
  3 31  1  0  0  0  0
  5  1  1  0  0  0  0
  6  5  1  0  0  0  0
  6 18  2  0  0  0  0
  7  8  1  0  0  0  0
  9  7  1  0  0  0  0
  9 10  1  0  0  0  0
 11  9  2  0  0  0  0
 12 11  1  0  0  0  0
 13 15  2  0  0  0  0
 13 11  1  0  0  0  0
 14 13  1  0  0  0  0
 15 17  1  0  0  0  0
 16 15  1  0  0  0  0
 17 18  1  0  0  0  0
 17  7  2  0  0  0  0
 18  2  1  0  0  0  0
 19  5  1  0  0  0  0
 20 19  1  0  0  0  0
 21 19  1  0  0  0  0
 21 22  1  0  0  0  0
 22  3  1  0  0  0  0
 23 22  2  0  0  0  0
 23 24  1  0  0  0  0
 25 23  1  0  0  0  0
 26 25  1  0  0  0  0
 27 29  1  0  0  0  0
 27 25  2  0  0  0  0
 28 27  1  0  0  0  0
 29 21  2  0  0  0  0
 30 29  1  0  0  0  0
 31 40  1  0  0  0  0
 32 31  2  0  0  0  0
 32 34  1  0  0  0  0
 33 32  1  0  0  0  0
 34 36  2  0  0  0  0
 35 34  1  0  0  0  0
 36 38  1  0  0  0  0
 36 37  1  0  0  0  0
 38 39  1  0  0  0  0
 40 41  1  0  0  0  0
 40 38  2  0  0  0  0
 42 51  1  0  0  0  0
 43 42  2  0  0  0  0
 43 45  1  0  0  0  0
 44 43  1  0  0  0  0
 45 47  2  0  0  0  0
 46 45  1  0  0  0  0
 47 49  1  0  0  0  0
 47 48  1  0  0  0  0
 49 50  1  0  0  0  0
 51 52  1  0  0  0  0
 51 49  2  0  0  0  0
M  END
$$$$
