CSD_code = HAZLIG | q = 0 | S = 0 | Stoichiometry = C22H39FO2P2Pt | MND = 4
 OpenBabel04212202043D

 67 69  0  0  0  0  0  0  0  0999 V2000
    1.7716    0.9667    8.3002 C   0  0  0  0  0  0  0  0  0  0  0  0
    0.8757    0.0663    7.7362 C   0  0  0  0  0  0  0  0  0  0  0  0
    0.1946    0.3642    6.5668 C   0  0  0  0  0  0  0  0  0  0  0  0
   -0.4961   -0.3498    6.1462 H   0  0  0  0  0  0  0  0  0  0  0  0
    0.4189    1.5883    5.9557 C   0  0  0  0  0  0  0  0  0  0  0  0
   -0.1067    1.8298    5.0448 H   0  0  0  0  0  0  0  0  0  0  0  0
    1.3062    2.5077    6.4937 C   0  0  0  0  0  0  0  0  0  0  0  0
    1.4791    3.4597    6.0166 H   0  0  0  0  0  0  0  0  0  0  0  0
    1.9749    2.1853    7.6637 C   0  0  0  0  0  0  0  0  0  0  0  0
    0.2539   -1.7835   10.9657 C   0  0  0  0  0  0  0  0  0  0  0  0
    0.8934   -2.3833   12.2127 C   0  0  0  0  0  0  0  0  0  0  0  0
    0.2040   -2.3224   13.0538 H   0  0  0  0  0  0  0  0  0  0  0  0
    1.7979   -1.8330   12.4689 H   0  0  0  0  0  0  0  0  0  0  0  0
    1.1478   -3.4298   12.0625 H   0  0  0  0  0  0  0  0  0  0  0  0
   -0.8790   -2.6512   10.4308 C   0  0  0  0  0  0  0  0  0  0  0  0
   -0.5603   -3.6797   10.2872 H   0  0  0  0  0  0  0  0  0  0  0  0
   -1.2406   -2.2644    9.4807 H   0  0  0  0  0  0  0  0  0  0  0  0
   -1.7065   -2.6498   11.1395 H   0  0  0  0  0  0  0  0  0  0  0  0
   -0.2667   -0.3797   11.2945 C   0  0  0  0  0  0  0  0  0  0  0  0
   -1.0392   -0.4229   12.0609 H   0  0  0  0  0  0  0  0  0  0  0  0
   -0.6891    0.0940   10.4077 H   0  0  0  0  0  0  0  0  0  0  0  0
    0.5565    0.2366   11.6692 H   0  0  0  0  0  0  0  0  0  0  0  0
    2.6102   -2.8851    9.1560 C   0  0  0  0  0  0  0  0  0  0  0  0
    3.4091   -2.3201    7.9768 C   0  0  0  0  0  0  0  0  0  0  0  0
    4.1592   -3.0360    7.6446 H   0  0  0  0  0  0  0  0  0  0  0  0
    3.9201   -1.4014    8.2819 H   0  0  0  0  0  0  0  0  0  0  0  0
    2.7573   -2.0903    7.1353 H   0  0  0  0  0  0  0  0  0  0  0  0
    3.5778   -3.2442   10.2801 C   0  0  0  0  0  0  0  0  0  0  0  0
    3.0836   -3.7978   11.0732 H   0  0  0  0  0  0  0  0  0  0  0  0
    4.0048   -2.3384   10.7103 H   0  0  0  0  0  0  0  0  0  0  0  0
    4.3903   -3.8590    9.8955 H   0  0  0  0  0  0  0  0  0  0  0  0
    1.7784   -4.0797    8.7081 C   0  0  0  0  0  0  0  0  0  0  0  0
    2.4106   -4.7962    8.1844 H   0  0  0  0  0  0  0  0  0  0  0  0
    0.9877   -3.7600    8.0317 H   0  0  0  0  0  0  0  0  0  0  0  0
    1.3307   -4.5879    9.5590 H   0  0  0  0  0  0  0  0  0  0  0  0
    5.3586    2.7763    9.2329 C   0  0  0  0  0  0  0  0  0  0  0  0
    5.6950    3.9953    8.3823 C   0  0  0  0  0  0  0  0  0  0  0  0
    5.6069    4.9163    8.9514 H   0  0  0  0  0  0  0  0  0  0  0  0
    5.0326    4.0553    7.5218 H   0  0  0  0  0  0  0  0  0  0  0  0
    6.7200    3.9172    8.0218 H   0  0  0  0  0  0  0  0  0  0  0  0
    6.1743    2.7359   10.5200 C   0  0  0  0  0  0  0  0  0  0  0  0
    7.2192    2.5262   10.2948 H   0  0  0  0  0  0  0  0  0  0  0  0
    5.7992    1.9500   11.1743 H   0  0  0  0  0  0  0  0  0  0  0  0
    6.1289    3.6862   11.0468 H   0  0  0  0  0  0  0  0  0  0  0  0
    5.6119    1.4912    8.4365 C   0  0  0  0  0  0  0  0  0  0  0  0
    6.6585    1.4165    8.1444 H   0  0  0  0  0  0  0  0  0  0  0  0
    5.0011    1.4696    7.5332 H   0  0  0  0  0  0  0  0  0  0  0  0
    5.3637    0.6231    9.0548 H   0  0  0  0  0  0  0  0  0  0  0  0
    2.8641    3.9239   10.8116 C   0  0  0  0  0  0  0  0  0  0  0  0
    3.2104    5.3504   10.4059 C   0  0  0  0  0  0  0  0  0  0  0  0
    2.6057    6.0550   10.9762 H   0  0  0  0  0  0  0  0  0  0  0  0
    3.0097    5.5036    9.3470 H   0  0  0  0  0  0  0  0  0  0  0  0
    4.2568    5.5720   10.6029 H   0  0  0  0  0  0  0  0  0  0  0  0
    3.3373    3.5948   12.2248 C   0  0  0  0  0  0  0  0  0  0  0  0
    2.7230    4.1150   12.9584 H   0  0  0  0  0  0  0  0  0  0  0  0
    4.3707    3.8903   12.3812 H   0  0  0  0  0  0  0  0  0  0  0  0
    3.2576    2.5231   12.4064 H   0  0  0  0  0  0  0  0  0  0  0  0
    1.3505    3.7004   10.7319 C   0  0  0  0  0  0  0  0  0  0  0  0
    1.1210    2.6465   10.9184 H   0  0  0  0  0  0  0  0  0  0  0  0
    0.9651    3.9695    9.7497 H   0  0  0  0  0  0  0  0  0  0  0  0
    0.8351    4.3014   11.4795 H   0  0  0  0  0  0  0  0  0  0  0  0
    3.7279    0.0664   11.6894 F   0  0  0  0  0  0  0  0  0  0  0  0
    0.6701   -1.1481    8.3766 O   0  0  0  0  0  0  0  0  0  0  0  0
    2.8750    3.0805    8.2255 O   0  0  0  0  0  0  0  0  0  0  0  0
    1.5850   -1.4148    9.7022 P   0  0  0  0  0  4  0  0  0  0  0  0
    3.5391    2.6220    9.6447 P   0  0  0  0  0  4  0  0  0  0  0  0
    2.7385    0.5224    9.9759 Pt  0  0  0  0  0  0  0  0  0  0  0  0
  1 67  1  0  0  0  0
  2  1  1  0  0  0  0
  2 63  1  0  0  0  0
  3  2  2  0  0  0  0
  4  3  1  0  0  0  0
  5  7  2  0  0  0  0
  5  3  1  0  0  0  0
  6  5  1  0  0  0  0
  7  9  1  0  0  0  0
  8  7  1  0  0  0  0
  9 64  1  0  0  0  0
  9  1  2  0  0  0  0
 10 19  1  0  0  0  0
 10 11  1  0  0  0  0
 11 13  1  0  0  0  0
 11 12  1  0  0  0  0
 14 11  1  0  0  0  0
 15 10  1  0  0  0  0
 15 18  1  0  0  0  0
 16 15  1  0  0  0  0
 17 15  1  0  0  0  0
 19 22  1  0  0  0  0
 19 20  1  0  0  0  0
 21 19  1  0  0  0  0
 23 65  1  0  0  0  0
 23 28  1  0  0  0  0
 24 26  1  0  0  0  0
 24 23  1  0  0  0  0
 25 24  1  0  0  0  0
 27 24  1  0  0  0  0
 28 30  1  0  0  0  0
 28 29  1  0  0  0  0
 31 28  1  0  0  0  0
 32 23  1  0  0  0  0
 32 35  1  0  0  0  0
 33 32  1  0  0  0  0
 34 32  1  0  0  0  0
 36 66  1  0  0  0  0
 36 41  1  0  0  0  0
 37 38  1  0  0  0  0
 37 36  1  0  0  0  0
 39 37  1  0  0  0  0
 40 37  1  0  0  0  0
 41 44  1  0  0  0  0
 41 43  1  0  0  0  0
 42 41  1  0  0  0  0
 45 48  1  0  0  0  0
 45 36  1  0  0  0  0
 46 45  1  0  0  0  0
 47 45  1  0  0  0  0
 49 54  1  0  0  0  0
 50 53  1  0  0  0  0
 50 49  1  0  0  0  0
 50 51  1  0  0  0  0
 52 50  1  0  0  0  0
 54 56  1  0  0  0  0
 54 57  1  0  0  0  0
 54 55  1  0  0  0  0
 58 49  1  0  0  0  0
 58 59  1  0  0  0  0
 58 61  1  0  0  0  0
 60 58  1  0  0  0  0
 63 65  1  0  0  0  0
 64 66  1  0  0  0  0
 65 67  1  0  0  0  0
 65 10  1  0  0  0  0
 66 67  1  0  0  0  0
 66 49  1  0  0  0  0
 67 62  1  0  0  0  0
M  END
$$$$
