CSD_code = HAZVEL | q = 0 | S = 0 | Stoichiometry = C5H5F4NSW | MND = 6
 OpenBabel04212202043D

 17 17  0  0  0  0  0  0  0  0999 V2000
    1.2433    2.3100    1.2596 W   0  0  0  0  0  0  0  0  0  0  0  0
    1.4180    3.8046   -0.3275 S   0  0  0  0  0  1  0  0  0  0  0  0
    2.7050    2.6938    2.3624 F   0  0  0  0  0  0  0  0  0  0  0  0
    0.1569    3.1632    2.5217 F   0  0  0  0  0  0  0  0  0  0  0  0
   -0.2881    1.3518    0.7710 F   0  0  0  0  0  0  0  0  0  0  0  0
    2.2599    0.8828    0.6047 F   0  0  0  0  0  0  0  0  0  0  0  0
    1.0631    0.7478    2.9185 N   0  0  0  0  0  0  0  0  0  0  0  0
    1.1875    1.1005    4.1978 C   0  0  0  0  0  3  0  0  0  0  0  0
    1.4020    2.1495    4.3874 H   0  0  0  0  0  0  0  0  0  0  0  0
    1.0542    0.1923    5.2352 C   0  0  0  0  0  0  0  0  0  0  0  0
    1.1609    0.5189    6.2571 H   0  0  0  0  0  0  0  0  0  0  0  0
    0.7822   -1.1333    4.9313 C   0  0  0  0  0  0  0  0  0  0  0  0
    0.6716   -1.8664    5.7160 H   0  0  0  0  0  0  0  0  0  0  0  0
    0.6551   -1.4985    3.5993 C   0  0  0  0  0  0  0  0  0  0  0  0
    0.4449   -2.5181    3.3188 H   0  0  0  0  0  0  0  0  0  0  0  0
    0.8025   -0.5257    2.6242 C   0  0  0  0  0  0  0  0  0  0  0  0
    0.7110   -0.7648    1.5673 H   0  0  0  0  0  0  0  0  0  0  0  0
  1  3  1  0  0  0  0
  1  4  1  0  0  0  0
  1  7  1  0  0  0  0
  2  1  1  0  0  0  0
  5  1  1  0  0  0  0
  6  1  1  0  0  0  0
  7  8  1  0  0  0  0
  8  9  1  0  0  0  0
  8 10  1  0  0  0  0
 10 11  1  0  0  0  0
 12 10  2  0  0  0  0
 12 13  1  0  0  0  0
 14 12  1  0  0  0  0
 15 14  1  0  0  0  0
 16  7  1  0  0  0  0
 16 14  2  0  0  0  0
 17 16  1  0  0  0  0
M  END
$$$$
