CSD_code = HAZVUZ | q = 0 | S = 0 | Stoichiometry = C4H12Cl2N2OPd | MND = 4
 OpenBabel04212202043D

 22 22  0  0  0  0  0  0  0  0999 V2000
    8.1634    1.2627    1.0137 Pd  0  0  0  0  0  0  0  0  0  0  0  0
    8.3888    2.8602   -0.5156 Cl  0  0  0  0  0  0  0  0  0  0  0  0
   10.3311    1.2888    1.5046 Cl  0  0  0  0  0  0  0  0  0  0  0  0
    5.4189    2.7050   -1.2256 O   0  0  0  0  0  0  0  0  0  0  0  0
    7.8360   -0.2409    2.4760 N   0  0  0  0  0  4  0  0  0  0  0  0
    6.0377    1.1227    0.7791 N   0  0  0  0  0  4  0  0  0  0  0  0
    6.4124   -0.1870    2.8188 C   0  0  0  0  0  0  0  0  0  0  0  0
    5.5956   -0.0539    1.5241 C   0  0  0  0  0  0  0  0  0  0  0  0
    5.4453    2.4089    1.1908 C   0  0  0  0  0  0  0  0  0  0  0  0
    4.7704    3.0624   -0.0405 C   0  0  0  0  0  0  0  0  0  0  0  0
    8.4446   -0.0758    3.2778 H   0  0  0  0  0  0  0  0  0  0  0  0
    8.0919   -1.1418    2.0690 H   0  0  0  0  0  0  0  0  0  0  0  0
    6.0861   -1.0769    3.3749 H   0  0  0  0  0  0  0  0  0  0  0  0
    6.2451    0.6953    3.4450 H   0  0  0  0  0  0  0  0  0  0  0  0
    5.7676   -0.9415    0.9055 H   0  0  0  0  0  0  0  0  0  0  0  0
    4.5247   -0.0031    1.7663 H   0  0  0  0  0  0  0  0  0  0  0  0
    5.8242    1.0323   -0.2237 H   0  0  0  0  0  0  0  0  0  0  0  0
    6.2382    3.0742    1.5665 H   0  0  0  0  0  0  0  0  0  0  0  0
    4.7050    2.2600    1.9826 H   0  0  0  0  0  0  0  0  0  0  0  0
    4.7393    4.1505    0.0932 H   0  0  0  0  0  0  0  0  0  0  0  0
    3.7431    2.6966   -0.1436 H   0  0  0  0  0  0  0  0  0  0  0  0
    6.3639    2.9809   -1.1761 H   0  0  0  0  0  0  0  0  0  0  0  0
  1  3  1  0  0  0  0
  1  5  1  0  0  0  0
  2  1  1  0  0  0  0
  4 22  1  0  0  0  0
  4 10  1  0  0  0  0
  5  7  1  0  0  0  0
  5 11  1  0  0  0  0
  6  1  1  0  0  0  0
  6  9  1  0  0  0  0
  6  8  1  0  0  0  0
  7 13  1  0  0  0  0
  7 14  1  0  0  0  0
  8 16  1  0  0  0  0
  8  7  1  0  0  0  0
  9 18  1  0  0  0  0
  9 19  1  0  0  0  0
 10 20  1  0  0  0  0
 10  9  1  0  0  0  0
 12  5  1  0  0  0  0
 15  8  1  0  0  0  0
 17  6  1  0  0  0  0
 21 10  1  0  0  0  0
M  END
$$$$
