CSD_code = HAZYEP | q = 0 | S = 0 | Stoichiometry = C22H39FNiO2P2 | MND = 4
 OpenBabel04212202043D

 67 69  0  0  0  0  0  0  0  0999 V2000
   -3.2029    8.0441    1.7977 C   0  0  0  0  0  0  0  0  0  0  0  0
   -3.0213    9.2636    1.1455 C   0  0  0  0  0  0  0  0  0  0  0  0
   -3.6858    9.5704   -0.0313 C   0  0  0  0  0  0  0  0  0  0  0  0
   -3.5201   10.5246   -0.5070 H   0  0  0  0  0  0  0  0  0  0  0  0
   -4.5562    8.6392   -0.5737 C   0  0  0  0  0  0  0  0  0  0  0  0
   -5.0788    8.8691   -1.4895 H   0  0  0  0  0  0  0  0  0  0  0  0
   -4.7645    7.4169    0.0439 C   0  0  0  0  0  0  0  0  0  0  0  0
   -5.4403    6.6871   -0.3742 H   0  0  0  0  0  0  0  0  0  0  0  0
   -4.0869    7.1335    1.2191 C   0  0  0  0  0  0  0  0  0  0  0  0
    0.2874    9.7662    2.8192 C   0  0  0  0  0  0  0  0  0  0  0  0
    0.5388    8.4820    2.0196 C   0  0  0  0  0  0  0  0  0  0  0  0
    1.5994    8.3562    1.8068 H   0  0  0  0  0  0  0  0  0  0  0  0
   -0.0019    8.5054    1.0726 H   0  0  0  0  0  0  0  0  0  0  0  0
    0.1991    7.6175    2.6015 H   0  0  0  0  0  0  0  0  0  0  0  0
    1.0495    9.6911    4.1370 C   0  0  0  0  0  0  0  0  0  0  0  0
    0.6319    8.9039    4.7623 H   0  0  0  0  0  0  0  0  0  0  0  0
    1.0015   10.6347    4.6751 H   0  0  0  0  0  0  0  0  0  0  0  0
    2.0983    9.4638    3.9500 H   0  0  0  0  0  0  0  0  0  0  0  0
    0.6971   10.9793    1.9924 C   0  0  0  0  0  0  0  0  0  0  0  0
    1.7213   10.8515    1.6430 H   0  0  0  0  0  0  0  0  0  0  0  0
    0.6520   11.8951    2.5743 H   0  0  0  0  0  0  0  0  0  0  0  0
    0.0509   11.0878    1.1242 H   0  0  0  0  0  0  0  0  0  0  0  0
   -2.2182   10.9841    4.3032 C   0  0  0  0  0  0  0  0  0  0  0  0
   -1.8441   10.6147    5.7359 C   0  0  0  0  0  0  0  0  0  0  0  0
   -0.8017   10.8343    5.9463 H   0  0  0  0  0  0  0  0  0  0  0  0
   -2.0075    9.5507    5.9023 H   0  0  0  0  0  0  0  0  0  0  0  0
   -2.4571   11.1740    6.4413 H   0  0  0  0  0  0  0  0  0  0  0  0
   -1.7603   12.3896    3.9374 C   0  0  0  0  0  0  0  0  0  0  0  0
   -1.8905   12.5672    2.8716 H   0  0  0  0  0  0  0  0  0  0  0  0
   -0.7157   12.5431    4.1971 H   0  0  0  0  0  0  0  0  0  0  0  0
   -2.3524   13.1240    4.4830 H   0  0  0  0  0  0  0  0  0  0  0  0
   -3.7370   10.8660    4.1390 C   0  0  0  0  0  0  0  0  0  0  0  0
   -4.2505   11.4830    4.8748 H   0  0  0  0  0  0  0  0  0  0  0  0
   -4.0487    9.8280    4.2822 H   0  0  0  0  0  0  0  0  0  0  0  0
   -4.0489   11.1849    3.1458 H   0  0  0  0  0  0  0  0  0  0  0  0
   -2.2755    4.2614    2.6517 C   0  0  0  0  0  0  0  0  0  0  0  0
   -3.1105    3.0225    2.3566 C   0  0  0  0  0  0  0  0  0  0  0  0
   -2.4999    2.2799    1.8435 H   0  0  0  0  0  0  0  0  0  0  0  0
   -3.9535    3.2752    1.7163 H   0  0  0  0  0  0  0  0  0  0  0  0
   -3.4840    2.5725    3.2732 H   0  0  0  0  0  0  0  0  0  0  0  0
   -1.2234    4.0003    3.7259 C   0  0  0  0  0  0  0  0  0  0  0  0
   -1.6524    3.5109    4.5952 H   0  0  0  0  0  0  0  0  0  0  0  0
   -0.7790    4.9404    4.0499 H   0  0  0  0  0  0  0  0  0  0  0  0
   -0.4342    3.3611    3.3325 H   0  0  0  0  0  0  0  0  0  0  0  0
   -1.5758    4.7406    1.3757 C   0  0  0  0  0  0  0  0  0  0  0  0
   -1.0779    5.6965    1.5592 H   0  0  0  0  0  0  0  0  0  0  0  0
   -2.2899    4.8749    0.5649 H   0  0  0  0  0  0  0  0  0  0  0  0
   -0.8255    4.0188    1.0564 H   0  0  0  0  0  0  0  0  0  0  0  0
   -4.5750    5.3936    4.4944 C   0  0  0  0  0  0  0  0  0  0  0  0
   -3.8827    4.8299    5.7296 C   0  0  0  0  0  0  0  0  0  0  0  0
   -4.5462    4.8919    6.5913 H   0  0  0  0  0  0  0  0  0  0  0  0
   -2.9831    5.4039    5.9447 H   0  0  0  0  0  0  0  0  0  0  0  0
   -3.6125    3.7861    5.5888 H   0  0  0  0  0  0  0  0  0  0  0  0
   -5.1000    6.7993    4.8103 C   0  0  0  0  0  0  0  0  0  0  0  0
   -5.8124    6.7738    5.6337 H   0  0  0  0  0  0  0  0  0  0  0  0
   -5.5958    7.2306    3.9396 H   0  0  0  0  0  0  0  0  0  0  0  0
   -4.2628    7.4453    5.0987 H   0  0  0  0  0  0  0  0  0  0  0  0
   -5.7226    4.5049    4.0292 C   0  0  0  0  0  0  0  0  0  0  0  0
   -5.4087    3.4717    3.9140 H   0  0  0  0  0  0  0  0  0  0  0  0
   -6.1179    4.8554    3.0784 H   0  0  0  0  0  0  0  0  0  0  0  0
   -6.5256    4.5338    4.7653 H   0  0  0  0  0  0  0  0  0  0  0  0
   -1.4188    7.2596    4.9249 F   0  0  0  0  0  0  0  0  0  0  0  0
   -2.2942    7.6446    3.3909 Ni  0  0  0  0  0  0  0  0  0  0  0  0
   -2.1451   10.1751    1.7129 O   0  0  0  0  0  0  0  0  0  0  0  0
   -4.2737    5.9189    1.8596 O   0  0  0  0  0  0  0  0  0  0  0  0
   -1.5561    9.6593    3.1497 P   0  0  0  0  0  4  0  0  0  0  0  0
   -3.3008    5.7480    3.1640 P   0  0  0  0  0  4  0  0  0  0  0  0
  1 63  1  0  0  0  0
  2 64  1  0  0  0  0
  2  1  2  0  0  0  0
  3  2  1  0  0  0  0
  4  3  1  0  0  0  0
  5  3  2  0  0  0  0
  5  7  1  0  0  0  0
  6  5  1  0  0  0  0
  7  9  2  0  0  0  0
  8  7  1  0  0  0  0
  9  1  1  0  0  0  0
  9 65  1  0  0  0  0
 10 66  1  0  0  0  0
 10 15  1  0  0  0  0
 11 14  1  0  0  0  0
 11 10  1  0  0  0  0
 12 11  1  0  0  0  0
 13 11  1  0  0  0  0
 15 17  1  0  0  0  0
 15 16  1  0  0  0  0
 18 15  1  0  0  0  0
 19 21  1  0  0  0  0
 19 10  1  0  0  0  0
 20 19  1  0  0  0  0
 22 19  1  0  0  0  0
 23 24  1  0  0  0  0
 24 26  1  0  0  0  0
 24 25  1  0  0  0  0
 24 27  1  0  0  0  0
 28 30  1  0  0  0  0
 28 23  1  0  0  0  0
 28 31  1  0  0  0  0
 29 28  1  0  0  0  0
 32 34  1  0  0  0  0
 32 23  1  0  0  0  0
 32 33  1  0  0  0  0
 35 32  1  0  0  0  0
 36 67  1  0  0  0  0
 36 41  1  0  0  0  0
 37 36  1  0  0  0  0
 37 40  1  0  0  0  0
 38 37  1  0  0  0  0
 39 37  1  0  0  0  0
 41 43  1  0  0  0  0
 41 42  1  0  0  0  0
 44 41  1  0  0  0  0
 45 46  1  0  0  0  0
 45 36  1  0  0  0  0
 47 45  1  0  0  0  0
 48 45  1  0  0  0  0
 49 54  1  0  0  0  0
 49 50  1  0  0  0  0
 50 52  1  0  0  0  0
 50 51  1  0  0  0  0
 53 50  1  0  0  0  0
 54 57  1  0  0  0  0
 54 55  1  0  0  0  0
 56 54  1  0  0  0  0
 58 49  1  0  0  0  0
 58 61  1  0  0  0  0
 59 58  1  0  0  0  0
 60 58  1  0  0  0  0
 63 62  1  0  0  0  0
 64 66  1  0  0  0  0
 65 67  1  0  0  0  0
 66 63  1  0  0  0  0
 66 23  1  0  0  0  0
 67 63  1  0  0  0  0
 67 49  1  0  0  0  0
M  END
$$$$
