CSD_code = HAZYOZ | q = 0 | S = 0 | Stoichiometry = C22H39ClO2P2Pt | MND = 4
 OpenBabel04212202043D

 67 69  0  0  0  0  0  0  0  0999 V2000
    3.7082    2.0297    4.6637 C   0  0  0  0  0  0  0  0  0  0  0  0
    3.5031    0.8115    5.2996 C   0  0  0  0  0  0  0  0  0  0  0  0
    4.1697    0.4949    6.4729 C   0  0  0  0  0  0  0  0  0  0  0  0
    3.9976   -0.4559    6.9524 H   0  0  0  0  0  0  0  0  0  0  0  0
    5.0535    1.4180    7.0101 C   0  0  0  0  0  0  0  0  0  0  0  0
    5.5768    1.1801    7.9231 H   0  0  0  0  0  0  0  0  0  0  0  0
    5.2779    2.6409    6.3969 C   0  0  0  0  0  0  0  0  0  0  0  0
    5.9663    3.3569    6.8177 H   0  0  0  0  0  0  0  0  0  0  0  0
    4.5998    2.9357    5.2245 C   0  0  0  0  0  0  0  0  0  0  0  0
    0.1293    0.2058    3.7225 C   0  0  0  0  0  0  0  0  0  0  0  0
   -0.1258    1.4936    4.5141 C   0  0  0  0  0  0  0  0  0  0  0  0
    0.1133    2.3611    3.8912 H   0  0  0  0  0  0  0  0  0  0  0  0
    0.4895    1.5230    5.4143 H   0  0  0  0  0  0  0  0  0  0  0  0
   -1.1713    1.5644    4.8106 H   0  0  0  0  0  0  0  0  0  0  0  0
   -0.6958    0.2314    2.4409 C   0  0  0  0  0  0  0  0  0  0  0  0
   -0.6543   -0.7248    1.9247 H   0  0  0  0  0  0  0  0  0  0  0  0
   -0.3306    1.0095    1.7717 H   0  0  0  0  0  0  0  0  0  0  0  0
   -1.7389    0.4422    2.6733 H   0  0  0  0  0  0  0  0  0  0  0  0
   -0.1977   -1.0103    4.5815 C   0  0  0  0  0  0  0  0  0  0  0  0
   -1.2198   -0.9310    4.9502 H   0  0  0  0  0  0  0  0  0  0  0  0
    0.4719   -1.0672    5.4367 H   0  0  0  0  0  0  0  0  0  0  0  0
   -0.1148   -1.9331    4.0143 H   0  0  0  0  0  0  0  0  0  0  0  0
    2.6386   -0.9595    2.1726 C   0  0  0  0  0  0  0  0  0  0  0  0
    2.1210   -0.7299    0.7561 C   0  0  0  0  0  0  0  0  0  0  0  0
    2.7300   -1.2820    0.0417 H   0  0  0  0  0  0  0  0  0  0  0  0
    2.1688    0.3286    0.5020 H   0  0  0  0  0  0  0  0  0  0  0  0
    1.0919   -1.0601    0.6462 H   0  0  0  0  0  0  0  0  0  0  0  0
    2.3586   -2.3761    2.6586 C   0  0  0  0  0  0  0  0  0  0  0  0
    1.3206   -2.6518    2.4877 H   0  0  0  0  0  0  0  0  0  0  0  0
    2.5775   -2.4653    3.7211 H   0  0  0  0  0  0  0  0  0  0  0  0
    2.9865   -3.0830    2.1173 H   0  0  0  0  0  0  0  0  0  0  0  0
    4.1437   -0.6726    2.2051 C   0  0  0  0  0  0  0  0  0  0  0  0
    4.5609   -0.8751    3.1906 H   0  0  0  0  0  0  0  0  0  0  0  0
    4.3270    0.3785    1.9594 H   0  0  0  0  0  0  0  0  0  0  0  0
    4.6669   -1.2908    1.4773 H   0  0  0  0  0  0  0  0  0  0  0  0
    2.8759    5.8913    3.8199 C   0  0  0  0  0  0  0  0  0  0  0  0
    3.7307    7.0459    4.3274 C   0  0  0  0  0  0  0  0  0  0  0  0
    4.2030    7.5763    3.5038 H   0  0  0  0  0  0  0  0  0  0  0  0
    4.5031    6.6814    5.0021 H   0  0  0  0  0  0  0  0  0  0  0  0
    3.1073    7.7562    4.8695 H   0  0  0  0  0  0  0  0  0  0  0  0
    1.9405    6.3256    2.6959 C   0  0  0  0  0  0  0  0  0  0  0  0
    1.1522    6.9643    3.0919 H   0  0  0  0  0  0  0  0  0  0  0  0
    1.4766    5.4560    2.2314 H   0  0  0  0  0  0  0  0  0  0  0  0
    2.4684    6.8815    1.9263 H   0  0  0  0  0  0  0  0  0  0  0  0
    2.0411    5.3032    4.9628 C   0  0  0  0  0  0  0  0  0  0  0  0
    1.3022    6.0249    5.3076 H   0  0  0  0  0  0  0  0  0  0  0  0
    2.6710    5.0267    5.8073 H   0  0  0  0  0  0  0  0  0  0  0  0
    1.5133    4.4091    4.6153 H   0  0  0  0  0  0  0  0  0  0  0  0
    5.2230    4.7855    1.9969 C   0  0  0  0  0  0  0  0  0  0  0  0
    5.7241    3.3794    1.6475 C   0  0  0  0  0  0  0  0  0  0  0  0
    4.8975    2.7839    1.2477 H   0  0  0  0  0  0  0  0  0  0  0  0
    6.1259    2.8811    2.5308 H   0  0  0  0  0  0  0  0  0  0  0  0
    6.5079    3.4248    0.8929 H   0  0  0  0  0  0  0  0  0  0  0  0
    6.3668    5.6259    2.5530 C   0  0  0  0  0  0  0  0  0  0  0  0
    7.1913    5.6345    1.8410 H   0  0  0  0  0  0  0  0  0  0  0  0
    6.7278    5.2100    3.4909 H   0  0  0  0  0  0  0  0  0  0  0  0
    6.0595    6.6536    2.7251 H   0  0  0  0  0  0  0  0  0  0  0  0
    4.6051    5.4214    0.7568 C   0  0  0  0  0  0  0  0  0  0  0  0
    4.3706    6.4699    0.9251 H   0  0  0  0  0  0  0  0  0  0  0  0
    3.6923    4.8963    0.4777 H   0  0  0  0  0  0  0  0  0  0  0  0
    5.3019    5.3633   -0.0783 H   0  0  0  0  0  0  0  0  0  0  0  0
    1.5949    2.9912    0.9825 Cl  0  0  0  0  0  0  0  0  0  0  0  0
    2.6093   -0.0845    4.7357 O   0  0  0  0  0  0  0  0  0  0  0  0
    4.8021    4.1461    4.5814 O   0  0  0  0  0  0  0  0  0  0  0  0
    1.9484    0.3608    3.3094 P   0  0  0  0  0  4  0  0  0  0  0  0
    3.8869    4.4179    3.2553 P   0  0  0  0  0  4  0  0  0  0  0  0
    2.7402    2.4700    2.9767 Pt  0  0  0  0  0  0  0  0  0  0  0  0
  1  9  2  0  0  0  0
  1  2  1  0  0  0  0
  2  3  2  0  0  0  0
  3  4  1  0  0  0  0
  3  5  1  0  0  0  0
  5  6  1  0  0  0  0
  7  8  1  0  0  0  0
  7  5  2  0  0  0  0
  9  7  1  0  0  0  0
 10 11  1  0  0  0  0
 10 19  1  0  0  0  0
 11 14  1  0  0  0  0
 11 13  1  0  0  0  0
 12 11  1  0  0  0  0
 15 18  1  0  0  0  0
 15 10  1  0  0  0  0
 16 15  1  0  0  0  0
 17 15  1  0  0  0  0
 19 20  1  0  0  0  0
 19 21  1  0  0  0  0
 22 19  1  0  0  0  0
 23 32  1  0  0  0  0
 23 28  1  0  0  0  0
 23 65  1  0  0  0  0
 24 23  1  0  0  0  0
 25 24  1  0  0  0  0
 26 24  1  0  0  0  0
 27 24  1  0  0  0  0
 28 30  1  0  0  0  0
 29 28  1  0  0  0  0
 31 28  1  0  0  0  0
 32 33  1  0  0  0  0
 34 32  1  0  0  0  0
 35 32  1  0  0  0  0
 36 37  1  0  0  0  0
 36 45  1  0  0  0  0
 37 40  1  0  0  0  0
 37 39  1  0  0  0  0
 38 37  1  0  0  0  0
 41 42  1  0  0  0  0
 41 36  1  0  0  0  0
 43 41  1  0  0  0  0
 44 41  1  0  0  0  0
 45 46  1  0  0  0  0
 45 47  1  0  0  0  0
 48 45  1  0  0  0  0
 49 54  1  0  0  0  0
 49 66  1  0  0  0  0
 50 49  1  0  0  0  0
 50 52  1  0  0  0  0
 51 50  1  0  0  0  0
 53 50  1  0  0  0  0
 54 57  1  0  0  0  0
 54 56  1  0  0  0  0
 55 54  1  0  0  0  0
 58 59  1  0  0  0  0
 58 49  1  0  0  0  0
 60 58  1  0  0  0  0
 61 58  1  0  0  0  0
 62 67  1  0  0  0  0
 63  2  1  0  0  0  0
 64  9  1  0  0  0  0
 65 10  1  0  0  0  0
 65 63  1  0  0  0  0
 66 36  1  0  0  0  0
 66 64  1  0  0  0  0
 67 66  1  0  0  0  0
 67 65  1  0  0  0  0
 67  1  1  0  0  0  0
M  END
$$$$
