CSD_code = HEBQIR | q = 0 | S = 0 | Stoichiometry = C12H14BrN2O3Re | MND = 6
 OpenBabel04212202043D

 33 34  0  0  1  0  0  0  0  0999 V2000
    5.8556    2.0342    1.3734 Re  0  0  0  0  0  0  0  0  0  0  0  0
    7.1400    4.1164    0.6866 Br  0  0  0  0  0  0  0  0  0  0  0  0
    8.2960    2.3834    5.0056 C   0  0  0  0  0  0  0  0  0  0  0  0
    8.0918    2.7886    5.9846 H   0  0  0  0  0  0  0  0  0  0  0  0
    9.5642    1.9456    4.6654 C   0  0  0  0  0  0  0  0  0  0  0  0
   10.3738    2.0027    5.3762 H   0  0  0  0  0  0  0  0  0  0  0  0
    3.3089    4.7005    2.4467 C   0  0  0  0  0  0  0  0  0  0  0  0
    3.4192    4.2366    1.4645 H   0  0  0  0  0  0  0  0  0  0  0  0
    3.8954    5.6230    2.4482 H   0  0  0  0  0  0  0  0  0  0  0  0
    7.2765    2.3037    4.0685 C   0  0  1  0  0  3  0  0  0  0  0  0
    7.4778    1.8188    2.8390 N   0  0  0  0  0  0  0  0  0  0  0  0
    5.8774    2.7572    4.3931 C   0  0  0  0  0  0  0  0  0  0  0  0
    5.8972    3.4527    5.2450 H   0  0  0  0  0  0  0  0  0  0  0  0
    5.2842    1.8801    4.6893 H   0  0  0  0  0  0  0  0  0  0  0  0
    8.7000    1.4022    2.5131 C   0  0  0  0  0  0  0  0  0  0  0  0
    8.8301    1.0279    1.5061 H   0  0  0  0  0  0  0  0  0  0  0  0
    9.7676    1.4443    3.3896 C   0  0  0  0  0  0  0  0  0  0  0  0
   10.7371    1.0976    3.0716 H   0  0  0  0  0  0  0  0  0  0  0  0
    5.2384    3.3630    3.2198 N   0  0  0  0  0  4  0  0  0  0  0  0
    3.6295    2.6925   -0.6741 O   0  0  0  0  0  1  0  0  0  0  0  0
    4.8750    0.5534    2.1457 C   0  0  0  0  0  2  0  0  0  0  0  0
    7.2104    0.3337   -0.8237 O   0  0  0  0  0  1  0  0  0  0  0  0
    4.4276    2.4405    0.1091 C   0  0  0  0  0  2  0  0  0  0  0  0
    4.2858   -0.3114    2.6194 O   0  0  0  0  0  1  0  0  0  0  0  0
    6.6716    0.9397   -0.0133 C   0  0  0  0  0  2  0  0  0  0  0  0
    3.8526    3.7516    3.5099 C   0  0  0  0  0  0  0  0  0  0  0  0
    3.7998    4.2449    4.4925 H   0  0  0  0  0  0  0  0  0  0  0  0
    3.2402    2.8450    3.5505 H   0  0  0  0  0  0  0  0  0  0  0  0
    1.8424    5.0260    2.6922 C   0  0  0  0  0  0  0  0  0  0  0  0
    1.4766    5.7067    1.9286 H   0  0  0  0  0  0  0  0  0  0  0  0
    1.7092    5.4963    3.6644 H   0  0  0  0  0  0  0  0  0  0  0  0
    1.2409    4.1207    2.6612 H   0  0  0  0  0  0  0  0  0  0  0  0
    5.7479    4.2315    3.0074 H   0  0  0  0  0  0  0  0  0  0  0  0
  1 21  1  0  0  0  0
  1 11  1  0  0  0  0
  1 19  1  0  0  0  0
  2  1  1  0  0  0  0
  3  4  1  0  0  0  0
  5  3  2  0  0  0  0
  5  6  1  0  0  0  0
  7  9  1  0  0  0  0
  7 29  1  0  0  0  0
  7 26  1  0  0  0  0
  8  7  1  0  0  0  0
 10 12  1  0  0  0  0
 10  3  1  1  0  0  0
 11 10  1  0  0  0  0
 12 14  1  0  0  0  0
 12 13  1  0  0  0  0
 15 11  1  0  0  0  0
 15 17  2  0  0  0  0
 16 15  1  0  0  0  0
 17  5  1  0  0  0  0
 18 17  1  0  0  0  0
 19 26  1  0  0  0  0
 19 12  1  0  0  0  0
 20 23  1  0  0  0  0
 21 24  1  0  0  0  0
 22 25  1  0  0  0  0
 23  1  1  0  0  0  0
 25  1  1  0  0  0  0
 26 28  1  0  0  0  0
 26 27  1  0  0  0  0
 29 31  1  0  0  0  0
 30 29  1  0  0  0  0
 32 29  1  0  0  0  0
 33 19  1  0  0  0  0
M  END
$$$$
