CSD_code = HEBQOX | q = 0 | S = 0 | Stoichiometry = C22H14BrNO5PRe | MND = 6
 OpenBabel04212202043D

 45 47  0  0  0  0  0  0  0  0999 V2000
    6.1009    0.5065    5.5398 Re  0  0  0  0  0  0  0  0  0  0  0  0
    5.8914   -0.9913    3.4034 Br  0  0  0  0  0  0  0  0  0  0  0  0
    4.6947    2.1047    4.2589 P   0  0  0  0  0  4  0  0  0  0  0  0
    6.4894    2.4086    7.9516 O   0  0  0  0  0  1  0  0  0  0  0  0
    6.3293    1.7081    7.0621 C   0  0  0  0  0  2  0  0  0  0  0  0
    6.4840    2.7434    2.4876 N   0  0  0  0  0  0  0  0  0  0  0  0
    7.6947    1.1917    4.5806 C   0  0  0  0  0  2  0  0  0  0  0  0
    8.6225    1.4412    3.9775 O   0  0  0  0  0  1  0  0  0  0  0  0
    3.5071   -0.8240    6.6179 O   0  0  0  0  0  1  0  0  0  0  0  0
    4.4618   -0.3211    6.2562 C   0  0  0  0  0  2  0  0  0  0  0  0
    7.8142   -1.8073    6.7017 O   0  0  0  0  0  1  0  0  0  0  0  0
    7.1936   -0.9322    6.3195 C   0  0  0  0  0  2  0  0  0  0  0  0
    9.1069    3.6207    0.3270 O   0  0  0  0  0  0  0  0  0  0  0  0
    4.7301    3.8036    4.8978 C   0  0  0  0  0  0  0  0  0  0  0  0
    5.1969    4.9082    4.1995 C   0  0  0  0  0  0  0  0  0  0  0  0
    5.5681    4.8012    3.1915 H   0  0  0  0  0  0  0  0  0  0  0  0
    5.1971    6.1522    4.8086 C   0  0  0  0  0  0  0  0  0  0  0  0
    5.5627    7.0106    4.2649 H   0  0  0  0  0  0  0  0  0  0  0  0
    4.7346    6.2987    6.1051 C   0  0  0  0  0  0  0  0  0  0  0  0
    4.7415    7.2712    6.5736 H   0  0  0  0  0  0  0  0  0  0  0  0
    4.2661    5.1966    6.8048 C   0  0  0  0  0  0  0  0  0  0  0  0
    3.9069    5.3074    7.8168 H   0  0  0  0  0  0  0  0  0  0  0  0
    4.2676    3.9532    6.2057 C   0  0  0  0  0  0  0  0  0  0  0  0
    3.9033    3.0831    6.7412 H   0  0  0  0  0  0  0  0  0  0  0  0
    5.2680    2.2253    2.5367 C   0  0  0  0  0  0  0  0  0  0  0  0
    7.0949    2.8267    1.3103 C   0  0  0  0  0  0  0  0  0  0  0  0
    6.5056    2.3662    0.1325 C   0  0  0  0  0  0  0  0  0  0  0  0
    7.0568    2.4385   -0.7919 H   0  0  0  0  0  0  0  0  0  0  0  0
    5.2354    1.8174    0.1943 C   0  0  0  0  0  0  0  0  0  0  0  0
    4.7554    1.4382   -0.6954 H   0  0  0  0  0  0  0  0  0  0  0  0
    4.5906    1.7482    1.4189 C   0  0  0  0  0  0  0  0  0  0  0  0
    3.6056    1.3180    1.5164 H   0  0  0  0  0  0  0  0  0  0  0  0
    8.4457    3.4306    1.3117 C   0  0  0  0  0  0  0  0  0  0  0  0
    8.7955    3.7043    2.3232 H   0  0  0  0  0  0  0  0  0  0  0  0
    2.9162    1.7584    4.0760 C   0  0  0  0  0  0  0  0  0  0  0  0
    2.5069    0.4533    3.8086 C   0  0  0  0  0  0  0  0  0  0  0  0
    3.2348   -0.3412    3.7182 H   0  0  0  0  0  0  0  0  0  0  0  0
    1.1644    0.1680    3.6422 C   0  0  0  0  0  0  0  0  0  0  0  0
    0.8568   -0.8460    3.4360 H   0  0  0  0  0  0  0  0  0  0  0  0
    0.2221    1.1783    3.7426 C   0  0  0  0  0  0  0  0  0  0  0  0
   -0.8267    0.9541    3.6184 H   0  0  0  0  0  0  0  0  0  0  0  0
    0.6264    2.4779    4.0010 C   0  0  0  0  0  0  0  0  0  0  0  0
   -0.1056    3.2684    4.0756 H   0  0  0  0  0  0  0  0  0  0  0  0
    1.9676    2.7730    4.1661 C   0  0  0  0  0  0  0  0  0  0  0  0
    2.2754    3.7891    4.3678 H   0  0  0  0  0  0  0  0  0  0  0  0
  1 10  1  0  0  0  0
  1 12  1  0  0  0  0
  1  5  1  0  0  0  0
  2  1  1  0  0  0  0
  3 14  1  0  0  0  0
  3  1  1  0  0  0  0
  5  4  1  0  0  0  0
  6 25  1  0  0  0  0
  7  1  1  0  0  0  0
  8  7  1  0  0  0  0
 10  9  1  0  0  0  0
 12 11  1  0  0  0  0
 13 33  2  0  0  0  0
 14 23  1  0  0  0  0
 15 17  1  0  0  0  0
 15 14  2  0  0  0  0
 16 15  1  0  0  0  0
 17 19  2  0  0  0  0
 18 17  1  0  0  0  0
 19 20  1  0  0  0  0
 19 21  1  0  0  0  0
 21 22  1  0  0  0  0
 23 24  1  0  0  0  0
 23 21  2  0  0  0  0
 25  3  1  0  0  0  0
 26 33  1  0  0  0  0
 26  6  2  0  0  0  0
 27 29  2  0  0  0  0
 27 26  1  0  0  0  0
 28 27  1  0  0  0  0
 29 31  1  0  0  0  0
 30 29  1  0  0  0  0
 31 32  1  0  0  0  0
 31 25  2  0  0  0  0
 33 34  1  0  0  0  0
 35 44  1  0  0  0  0
 35  3  1  0  0  0  0
 36 35  2  0  0  0  0
 37 36  1  0  0  0  0
 38 40  2  0  0  0  0
 38 36  1  0  0  0  0
 39 38  1  0  0  0  0
 40 42  1  0  0  0  0
 41 40  1  0  0  0  0
 42 43  1  0  0  0  0
 42 44  2  0  0  0  0
 44 45  1  0  0  0  0
M  END
$$$$
