CSD_code = HECCIB | q = 0 | S = 0 | Stoichiometry = C21H23AuClOPSi | MND = 2
 OpenBabel04212202043D

 49 51  0  0  0  0  0  0  0  0999 V2000
    4.0142    5.3078    1.9595 Au  0  0  0  0  0  0  0  0  0  0  0  0
    3.7167    7.2943    0.9036 Cl  0  0  0  0  0  0  0  0  0  0  0  0
    4.4327    3.3885    3.0386 P   0  0  0  0  0  4  0  0  0  0  0  0
    8.0296    5.4908    2.8375 Si  0  0  0  0  0  0  0  0  0  0  0  0
    6.8643    4.3159    2.6109 O   0  0  0  0  0  0  0  0  0  0  0  0
    9.4221    4.7516    3.9145 C   0  0  0  0  0  0  0  0  0  0  0  0
    9.9866    3.9819    3.3955 H   0  0  0  0  0  0  0  0  0  0  0  0
   10.1257    5.5187    4.2202 H   0  0  0  0  0  0  0  0  0  0  0  0
    9.0131    4.3036    4.8168 H   0  0  0  0  0  0  0  0  0  0  0  0
    7.0315    6.7981    3.7750 C   0  0  0  0  0  0  0  0  0  0  0  0
    6.1981    7.1530    3.1752 H   0  0  0  0  0  0  0  0  0  0  0  0
    6.6261    6.4059    4.7036 H   0  0  0  0  0  0  0  0  0  0  0  0
    7.6495    7.6556    4.0178 H   0  0  0  0  0  0  0  0  0  0  0  0
    8.6637    6.1321    1.1615 C   0  0  0  0  0  0  0  0  0  0  0  0
    7.8285    6.4442    0.5394 H   0  0  0  0  0  0  0  0  0  0  0  0
    9.3080    6.9951    1.2962 H   0  0  0  0  0  0  0  0  0  0  0  0
    9.2279    5.3893    0.6037 H   0  0  0  0  0  0  0  0  0  0  0  0
    5.6858    2.3748    2.2301 C   0  0  0  0  0  0  0  0  0  0  0  0
    6.8848    3.0866    2.0772 C   0  0  0  0  0  0  0  0  0  0  0  0
    7.9509    2.4965    1.4186 C   0  0  0  0  0  0  0  0  0  0  0  0
    8.8749    3.0388    1.2986 H   0  0  0  0  0  0  0  0  0  0  0  0
    7.8071    1.2139    0.9139 C   0  0  0  0  0  0  0  0  0  0  0  0
    8.6375    0.7537    0.3995 H   0  0  0  0  0  0  0  0  0  0  0  0
    6.6169    0.5174    1.0540 C   0  0  0  0  0  0  0  0  0  0  0  0
    6.5239   -0.4787    0.6492 H   0  0  0  0  0  0  0  0  0  0  0  0
    5.5441    1.0990    1.7085 C   0  0  0  0  0  0  0  0  0  0  0  0
    4.6081    0.5699    1.8190 H   0  0  0  0  0  0  0  0  0  0  0  0
    3.0379    2.2372    3.2016 C   0  0  0  0  0  0  0  0  0  0  0  0
    2.0858    2.2479    2.1868 C   0  0  0  0  0  0  0  0  0  0  0  0
    2.1951    2.9512    1.3703 H   0  0  0  0  0  0  0  0  0  0  0  0
    1.0161    1.3733    2.2305 C   0  0  0  0  0  0  0  0  0  0  0  0
    0.2800    1.3808    1.4405 H   0  0  0  0  0  0  0  0  0  0  0  0
    0.8878    0.4933    3.2934 C   0  0  0  0  0  0  0  0  0  0  0  0
    0.0502   -0.1871    3.3315 H   0  0  0  0  0  0  0  0  0  0  0  0
    1.8285    0.4881    4.3111 C   0  0  0  0  0  0  0  0  0  0  0  0
    1.7228   -0.1951    5.1410 H   0  0  0  0  0  0  0  0  0  0  0  0
    2.9046    1.3564    4.2694 C   0  0  0  0  0  0  0  0  0  0  0  0
    3.6388    1.3556    5.0632 H   0  0  0  0  0  0  0  0  0  0  0  0
    5.0404    3.5763    4.7362 C   0  0  0  0  0  0  0  0  0  0  0  0
    4.5011    4.6144    5.4883 C   0  0  0  0  0  0  0  0  0  0  0  0
    3.7499    5.2541    5.0424 H   0  0  0  0  0  0  0  0  0  0  0  0
    4.9343    4.8292    6.7837 C   0  0  0  0  0  0  0  0  0  0  0  0
    4.5159    5.6367    7.3661 H   0  0  0  0  0  0  0  0  0  0  0  0
    5.9141    4.0141    7.3280 C   0  0  0  0  0  0  0  0  0  0  0  0
    6.2597    4.1861    8.3365 H   0  0  0  0  0  0  0  0  0  0  0  0
    6.4548    2.9812    6.5791 C   0  0  0  0  0  0  0  0  0  0  0  0
    7.2191    2.3476    7.0055 H   0  0  0  0  0  0  0  0  0  0  0  0
    6.0205    2.7569    5.2850 C   0  0  0  0  0  0  0  0  0  0  0  0
    6.4443    1.9537    4.6970 H   0  0  0  0  0  0  0  0  0  0  0  0
  1  3  1  0  0  0  0
  2  1  1  0  0  0  0
  3 28  1  0  0  0  0
  3 39  1  0  0  0  0
  4 10  1  0  0  0  0
  4  6  1  0  0  0  0
  5  4  1  0  0  0  0
  6  8  1  0  0  0  0
  6  9  1  0  0  0  0
  7  6  1  0  0  0  0
 10 13  1  0  0  0  0
 10 12  1  0  0  0  0
 11 10  1  0  0  0  0
 14 16  1  0  0  0  0
 14  4  1  0  0  0  0
 15 14  1  0  0  0  0
 17 14  1  0  0  0  0
 18  3  1  0  0  0  0
 19 18  1  0  0  0  0
 19  5  1  0  0  0  0
 20 19  2  0  0  0  0
 21 20  1  0  0  0  0
 22 24  2  0  0  0  0
 22 20  1  0  0  0  0
 23 22  1  0  0  0  0
 24 26  1  0  0  0  0
 25 24  1  0  0  0  0
 26 27  1  0  0  0  0
 26 18  2  0  0  0  0
 28 37  1  0  0  0  0
 29 31  1  0  0  0  0
 29 28  2  0  0  0  0
 30 29  1  0  0  0  0
 31 33  2  0  0  0  0
 32 31  1  0  0  0  0
 33 34  1  0  0  0  0
 33 35  1  0  0  0  0
 35 36  1  0  0  0  0
 37 35  2  0  0  0  0
 37 38  1  0  0  0  0
 39 48  2  0  0  0  0
 39 40  1  0  0  0  0
 40 42  2  0  0  0  0
 41 40  1  0  0  0  0
 42 44  1  0  0  0  0
 42 43  1  0  0  0  0
 44 45  1  0  0  0  0
 46 47  1  0  0  0  0
 46 44  2  0  0  0  0
 48 46  1  0  0  0  0
 49 48  1  0  0  0  0
M  END
$$$$
