CSD_code = HECQOW | q = 0 | S = 0 | Stoichiometry = C9H13Cl2NS2Zn | MND = 5
 OpenBabel04212202043D

 28 28  0  0  1  0  0  0  0  0999 V2000
    9.6989    8.6239   -1.4546 Zn  0  0  0  0  0  0  0  0  0  0  0  0
    9.7954   10.1347   -3.1244 Cl  0  0  0  0  0  0  0  0  0  0  0  0
    9.0556    6.7945   -0.3060 Cl  0  0  0  0  0  0  0  0  0  0  0  0
   12.0508    7.4049   -2.1549 S   0  0  0  0  0  0  0  0  0  0  0  0
    8.1863   10.3438    0.0550 S   0  0  0  0  0  0  0  0  0  0  0  0
   11.1513    9.4779   -0.0536 N   0  0  0  0  0  0  0  0  0  0  0  0
   13.0946    8.7599   -2.7649 C   0  0  0  0  0  0  0  0  0  0  0  0
   14.1163    8.6006   -2.4334 H   0  0  0  0  0  0  0  0  0  0  0  0
   12.7079    9.7153   -2.4251 H   0  0  0  0  0  0  0  0  0  0  0  0
   13.0406    8.7152   -3.8475 H   0  0  0  0  0  0  0  0  0  0  0  0
   12.4407    7.4557   -0.3723 C   0  0  0  0  0  0  0  0  0  0  0  0
   11.7292    6.7477    0.0628 H   0  0  0  0  0  0  0  0  0  0  0  0
   13.4581    7.0935   -0.2288 H   0  0  0  0  0  0  0  0  0  0  0  0
   12.2523    8.7974    0.2503 C   0  0  2  0  0  3  0  0  0  0  0  0
   13.1920    9.3056    1.1414 C   0  0  0  0  0  0  0  0  0  0  0  0
   14.0794    8.7385    1.3725 H   0  0  0  0  0  0  0  0  0  0  0  0
   12.9587   10.5365    1.7295 C   0  0  0  0  0  0  0  0  0  0  0  0
   13.6676   10.9516    2.4297 H   0  0  0  0  0  0  0  0  0  0  0  0
   11.8037   11.2279    1.4074 C   0  0  0  0  0  0  0  0  0  0  0  0
   11.5926   12.1911    1.8436 H   0  0  0  0  0  0  0  0  0  0  0  0
   10.9161   10.6659    0.4958 C   0  0  0  0  0  0  0  0  0  0  0  0
    9.6805   11.3926    0.0861 C   0  0  0  0  0  0  0  0  0  0  0  0
    9.7775   11.7258   -0.9513 H   0  0  0  0  0  0  0  0  0  0  0  0
    9.4915   12.2474    0.7344 H   0  0  0  0  0  0  0  0  0  0  0  0
    8.2337    9.6449    1.7305 C   0  0  0  0  0  0  0  0  0  0  0  0
    8.3077   10.4529    2.4521 H   0  0  0  0  0  0  0  0  0  0  0  0
    9.0599    8.9476    1.8244 H   0  0  0  0  0  0  0  0  0  0  0  0
    7.2975    9.1121    1.8593 H   0  0  0  0  0  0  0  0  0  0  0  0
  1  3  1  0  0  0  0
  1  6  1  0  0  0  0
  2  1  1  0  0  0  0
  4 11  1  0  0  0  0
  5 22  1  0  0  0  0
  5 25  1  0  0  0  0
  6 14  1  0  0  0  0
  6 21  1  0  0  0  0
  7  8  1  0  0  0  0
  7  9  1  0  0  0  0
  7  4  1  0  0  0  0
 10  7  1  0  0  0  0
 11 13  1  0  0  0  0
 11 12  1  0  0  0  0
 14 11  1  1  0  0  0
 14 15  1  0  0  0  0
 15 16  1  0  0  0  0
 15 17  2  0  0  0  0
 17 18  1  0  0  0  0
 19 17  1  0  0  0  0
 19 20  1  0  0  0  0
 21 19  2  0  0  0  0
 22 21  1  0  0  0  0
 22 24  1  0  0  0  0
 23 22  1  0  0  0  0
 25 27  1  0  0  0  0
 25 28  1  0  0  0  0
 25 26  1  0  0  0  0
M  END
$$$$
