CSD_code = HECYAQ | q = 0 | S = 0 | Stoichiometry = C20H21AgClN3 | MND = 2
 OpenBabel04212202043D

 46 48  0  0  1  0  0  0  0  0999 V2000
   -0.3679    1.1528    2.0084 Ag  0  0  0  0  0  0  0  0  0  0  0  0
   -2.4576    0.7202    2.7527 Cl  0  0  0  0  0  0  0  0  0  0  0  0
    1.6920    1.2590    1.3468 C   0  0  2  0  0  3  0  0  0  0  0  0
    2.1292    2.1811    0.4571 N   0  0  0  0  0  0  0  0  0  0  0  0
    3.4539    1.9805    0.1578 C   0  0  0  0  0  0  0  0  0  0  0  0
    3.8519    0.9138    0.8855 C   0  0  0  0  0  0  0  0  0  0  0  0
    2.7658    0.4808    1.6016 N   0  0  0  0  0  0  0  0  0  0  0  0
    1.3742    3.2941   -0.0109 C   0  0  0  0  0  0  0  0  0  0  0  0
    0.7365    4.0657    0.7588 N   0  0  0  0  0  0  0  0  0  0  0  0
    0.7264    3.9987    2.1385 C   0  0  0  0  0  0  0  0  0  0  0  0
   -0.5094    3.9510    2.7936 C   0  0  0  0  0  0  0  0  0  0  0  0
   -0.5555    3.9444    4.1771 C   0  0  0  0  0  0  0  0  0  0  0  0
    0.6147    4.0054    4.9177 C   0  0  0  0  0  0  0  0  0  0  0  0
    1.8369    4.0858    4.2710 C   0  0  0  0  0  0  0  0  0  0  0  0
    1.9003    4.0747    2.8906 C   0  0  0  0  0  0  0  0  0  0  0  0
    1.3717    3.5212   -1.4557 C   0  0  0  0  0  0  0  0  0  0  0  0
    1.6614    2.4960   -2.3554 C   0  0  0  0  0  0  0  0  0  0  0  0
    1.6324    2.7397   -3.7159 C   0  0  0  0  0  0  0  0  0  0  0  0
    1.3174    4.0017   -4.1924 C   0  0  0  0  0  0  0  0  0  0  0  0
    1.0186    5.0231   -3.3032 C   0  0  0  0  0  0  0  0  0  0  0  0
    1.0419    4.7866   -1.9435 C   0  0  0  0  0  0  0  0  0  0  0  0
    2.7453   -0.6409    2.5454 C   0  0  0  0  0  0  0  0  0  0  0  0
    2.3020   -0.1155    3.9141 C   0  0  0  0  0  0  0  0  0  0  0  0
    4.1383   -1.2608    2.6723 C   0  0  0  0  0  0  0  0  0  0  0  0
    1.7653   -1.7001    2.0339 C   0  0  0  0  0  0  0  0  0  0  0  0
    3.9922    2.6101   -0.5205 H   0  0  0  0  0  0  0  0  0  0  0  0
    4.8165    0.4566    0.9289 H   0  0  0  0  0  0  0  0  0  0  0  0
   -1.4181    3.9626    2.2074 H   0  0  0  0  0  0  0  0  0  0  0  0
   -1.5120    3.9018    4.6746 H   0  0  0  0  0  0  0  0  0  0  0  0
    0.5740    4.0039    5.9964 H   0  0  0  0  0  0  0  0  0  0  0  0
    2.7502    4.1547    4.8446 H   0  0  0  0  0  0  0  0  0  0  0  0
    2.8533    4.1542    2.3844 H   0  0  0  0  0  0  0  0  0  0  0  0
    1.8862    1.5022   -1.9957 H   0  0  0  0  0  0  0  0  0  0  0  0
    1.8521    1.9400   -4.4074 H   0  0  0  0  0  0  0  0  0  0  0  0
    1.2984    4.1871   -5.2558 H   0  0  0  0  0  0  0  0  0  0  0  0
    0.7664    6.0049   -3.6745 H   0  0  0  0  0  0  0  0  0  0  0  0
    0.8091    5.5662   -1.2355 H   0  0  0  0  0  0  0  0  0  0  0  0
    2.3246   -0.9184    4.6448 H   0  0  0  0  0  0  0  0  0  0  0  0
    2.9615    0.6825    4.2485 H   0  0  0  0  0  0  0  0  0  0  0  0
    1.2812    0.2776    3.8612 H   0  0  0  0  0  0  0  0  0  0  0  0
    4.0952   -2.0758    3.3897 H   0  0  0  0  0  0  0  0  0  0  0  0
    4.8621   -0.5339    3.0342 H   0  0  0  0  0  0  0  0  0  0  0  0
    4.4778   -1.6699    1.7233 H   0  0  0  0  0  0  0  0  0  0  0  0
    1.7509   -2.5491    2.7109 H   0  0  0  0  0  0  0  0  0  0  0  0
    2.0590   -2.0469    1.0453 H   0  0  0  0  0  0  0  0  0  0  0  0
    0.7533   -1.2866    1.9762 H   0  0  0  0  0  0  0  0  0  0  0  0
  1  2  1  0  0  0  0
  3  7  1  0  0  0  0
  3  1  1  6  0  0  0
  4  3  1  0  0  0  0
  5  4  1  0  0  0  0
  5  6  2  0  0  0  0
  6 27  1  0  0  0  0
  6  7  1  0  0  0  0
  7 22  1  0  0  0  0
  8  4  1  0  0  0  0
  8  9  2  0  0  0  0
  9 10  1  0  0  0  0
 10 11  2  0  0  0  0
 10 15  1  0  0  0  0
 11 12  1  0  0  0  0
 12 29  1  0  0  0  0
 12 13  2  0  0  0  0
 13 30  1  0  0  0  0
 14 31  1  0  0  0  0
 14 13  1  0  0  0  0
 15 14  2  0  0  0  0
 16  8  1  0  0  0  0
 17 33  1  0  0  0  0
 17 16  2  0  0  0  0
 18 17  1  0  0  0  0
 19 18  2  0  0  0  0
 19 20  1  0  0  0  0
 20 21  2  0  0  0  0
 21 16  1  0  0  0  0
 21 37  1  0  0  0  0
 22 24  1  0  0  0  0
 22 23  1  0  0  0  0
 23 39  1  0  0  0  0
 23 38  1  0  0  0  0
 24 42  1  0  0  0  0
 24 41  1  0  0  0  0
 25 22  1  0  0  0  0
 25 44  1  0  0  0  0
 26  5  1  0  0  0  0
 28 11  1  0  0  0  0
 32 15  1  0  0  0  0
 34 18  1  0  0  0  0
 35 19  1  0  0  0  0
 36 20  1  0  0  0  0
 40 23  1  0  0  0  0
 43 24  1  0  0  0  0
 45 25  1  0  0  0  0
 46 25  1  0  0  0  0
M  END
$$$$
