CSD_code = HEDCIC | q = 0 | S = 0 | Stoichiometry = C29H28Cl2MoN4O2 | MND = 6
 OpenBabel04212202043D

 66 70  0  0  1  0  0  0  0  0999 V2000
    2.2886    3.1934    3.0581 Mo  0  0  0  0  0  0  0  0  0  0  0  0
    0.0865    3.2382    4.1525 Cl  0  0  0  0  0  0  0  0  0  0  0  0
    4.6064    2.6904    2.6665 Cl  0  0  0  0  0  0  0  0  0  0  0  0
    2.1314    1.2397    3.4210 O   0  0  0  0  0  0  0  0  0  0  0  0
    2.8806    3.2687    4.9971 O   0  0  0  0  0  0  0  0  0  0  0  0
    2.4402    5.0785    3.2142 N   0  0  0  0  0  0  0  0  0  0  0  0
    2.1326    6.1678    2.4445 N   0  0  0  0  0  0  0  0  0  0  0  0
    1.6705    3.1050    1.4399 N   0  0  0  0  0  2  0  0  0  0  0  0
    1.1681    2.9200    0.2603 N   0  0  0  0  0  0  0  0  0  0  0  0
    2.3350    6.1224    1.0640 C   0  0  0  0  0  0  0  0  0  0  0  0
    3.3956    5.3848    0.5332 C   0  0  0  0  0  0  0  0  0  0  0  0
    3.5901    5.3435   -0.8342 C   0  0  0  0  0  0  0  0  0  0  0  0
    2.7591    6.0516   -1.6875 C   0  0  0  0  0  0  0  0  0  0  0  0
    1.7226    6.8045   -1.1613 C   0  0  0  0  0  0  0  0  0  0  0  0
    1.5003    6.8352    0.2013 C   0  0  0  0  0  0  0  0  0  0  0  0
    1.5226    7.2555    3.0826 C   0  0  0  0  0  0  0  0  0  0  0  0
    1.7963    8.5667    2.6908 C   0  0  0  0  0  0  0  0  0  0  0  0
    1.2227    9.6215    3.3727 C   0  0  0  0  0  0  0  0  0  0  0  0
    0.3859    9.3896    4.4539 C   0  0  0  0  0  0  0  0  0  0  0  0
    0.1182    8.0893    4.8483 C   0  0  0  0  0  0  0  0  0  0  0  0
    0.6786    7.0228    4.1701 C   0  0  0  0  0  0  0  0  0  0  0  0
    1.9040   -0.9299    4.3515 C   0  0  0  0  0  0  0  0  0  0  0  0
    2.1776    0.5476    4.4818 C   0  0  2  0  0  3  0  0  0  0  0  0
    2.4602    1.0817    5.7385 C   0  0  0  0  0  0  0  0  0  0  0  0
    2.7922    2.4288    5.9343 C   0  0  0  0  0  0  0  0  0  0  0  0
    3.0689    2.9066    7.3379 C   0  0  0  0  0  0  0  0  0  0  0  0
    0.2076    3.8192   -0.2348 C   0  0  0  0  0  0  0  0  0  0  0  0
    0.0856    4.0490   -1.6035 C   0  0  0  0  0  0  0  0  0  0  0  0
   -0.8552    4.9494   -2.0647 C   0  0  0  0  0  0  0  0  0  0  0  0
   -1.6672    5.6358   -1.1763 C   0  0  0  0  0  0  0  0  0  0  0  0
   -1.5295    5.4221    0.1856 C   0  0  0  0  0  0  0  0  0  0  0  0
   -0.5978    4.5199    0.6611 C   0  0  0  0  0  0  0  0  0  0  0  0
    1.5170    1.7399   -0.4259 C   0  0  0  0  0  0  0  0  0  0  0  0
    0.5978    1.0805   -1.2394 C   0  0  0  0  0  0  0  0  0  0  0  0
    0.9600   -0.0952   -1.8694 C   0  0  0  0  0  0  0  0  0  0  0  0
    2.2246   -0.6312   -1.6866 C   0  0  0  0  0  0  0  0  0  0  0  0
    3.1303    0.0149   -0.8606 C   0  0  0  0  0  0  0  0  0  0  0  0
    2.7851    1.1954   -0.2302 C   0  0  0  0  0  0  0  0  0  0  0  0
    2.7311    5.4398    4.1338 H   0  0  0  0  0  0  0  0  0  0  0  0
    4.0722    4.8569    1.1921 H   0  0  0  0  0  0  0  0  0  0  0  0
    4.4085    4.7633   -1.2330 H   0  0  0  0  0  0  0  0  0  0  0  0
    2.9206    6.0209   -2.7540 H   0  0  0  0  0  0  0  0  0  0  0  0
    1.0710    7.3627   -1.8162 H   0  0  0  0  0  0  0  0  0  0  0  0
    0.6733    7.4012    0.6005 H   0  0  0  0  0  0  0  0  0  0  0  0
    2.4630    8.7468    1.8613 H   0  0  0  0  0  0  0  0  0  0  0  0
    1.4393   10.6339    3.0656 H   0  0  0  0  0  0  0  0  0  0  0  0
   -0.0554   10.2195    4.9844 H   0  0  0  0  0  0  0  0  0  0  0  0
   -0.5388    7.9005    5.6839 H   0  0  0  0  0  0  0  0  0  0  0  0
    0.4410    6.0057    4.4568 H   0  0  0  0  0  0  0  0  0  0  0  0
    0.7324    3.5323   -2.2957 H   0  0  0  0  0  0  0  0  0  0  0  0
   -0.9492    5.1216   -3.1267 H   0  0  0  0  0  0  0  0  0  0  0  0
   -2.4014    6.3365   -1.5444 H   0  0  0  0  0  0  0  0  0  0  0  0
   -2.1568    5.9550    0.8845 H   0  0  0  0  0  0  0  0  0  0  0  0
   -0.4923    4.3394    1.7232 H   0  0  0  0  0  0  0  0  0  0  0  0
   -0.3979    1.4786   -1.3625 H   0  0  0  0  0  0  0  0  0  0  0  0
    0.2434   -0.6027   -2.4982 H   0  0  0  0  0  0  0  0  0  0  0  0
    2.4991   -1.5515   -2.1796 H   0  0  0  0  0  0  0  0  0  0  0  0
    4.1153   -0.3996   -0.7073 H   0  0  0  0  0  0  0  0  0  0  0  0
    3.4898    1.7049    0.4131 H   0  0  0  0  0  0  0  0  0  0  0  0
    2.4488    0.4252    6.5936 H   0  0  0  0  0  0  0  0  0  0  0  0
    2.1216    3.0216    7.8637 H   0  0  0  0  0  0  0  0  0  0  0  0
    3.6759    2.1864    7.8798 H   0  0  0  0  0  0  0  0  0  0  0  0
    3.5730    3.8703    7.3105 H   0  0  0  0  0  0  0  0  0  0  0  0
    1.9713   -1.2192    3.3047 H   0  0  0  0  0  0  0  0  0  0  0  0
    0.8956   -1.1372    4.7079 H   0  0  0  0  0  0  0  0  0  0  0  0
    2.6047   -1.5096    4.9462 H   0  0  0  0  0  0  0  0  0  0  0  0
  1  6  1  0  0  0  0
  1  4  1  0  0  0  0
  1  2  1  0  0  0  0
  1  5  1  0  0  0  0
  3  1  1  0  0  0  0
  4 23  1  0  0  0  0
  5 25  1  0  0  0  0
  6 39  1  0  0  0  0
  7 16  1  0  0  0  0
  7  6  1  0  0  0  0
  8  1  1  0  0  0  0
  9  8  1  0  0  0  0
 10  7  1  0  0  0  0
 11 10  1  0  0  0  0
 11 40  1  0  0  0  0
 12 11  2  0  0  0  0
 13 14  2  0  0  0  0
 13 12  1  0  0  0  0
 14 15  1  0  0  0  0
 15 44  1  0  0  0  0
 15 10  2  0  0  0  0
 16 21  1  0  0  0  0
 17 16  2  0  0  0  0
 17 18  1  0  0  0  0
 18 19  2  0  0  0  0
 19 20  1  0  0  0  0
 19 47  1  0  0  0  0
 20 48  1  0  0  0  0
 21 49  1  0  0  0  0
 21 20  2  0  0  0  0
 22 65  1  0  0  0  0
 22 66  1  0  0  0  0
 23 22  1  1  0  0  0
 23 24  1  0  0  0  0
 24 25  2  0  0  0  0
 24 60  1  0  0  0  0
 25 26  1  0  0  0  0
 26 61  1  0  0  0  0
 26 62  1  0  0  0  0
 27  9  1  0  0  0  0
 27 32  1  0  0  0  0
 28 27  2  0  0  0  0
 29 28  1  0  0  0  0
 29 30  2  0  0  0  0
 30 31  1  0  0  0  0
 31 32  2  0  0  0  0
 31 53  1  0  0  0  0
 32 54  1  0  0  0  0
 33 38  1  0  0  0  0
 33  9  1  0  0  0  0
 34 33  2  0  0  0  0
 35 36  2  0  0  0  0
 35 34  1  0  0  0  0
 36 37  1  0  0  0  0
 37 58  1  0  0  0  0
 37 38  2  0  0  0  0
 38 59  1  0  0  0  0
 41 12  1  0  0  0  0
 42 13  1  0  0  0  0
 43 14  1  0  0  0  0
 45 17  1  0  0  0  0
 46 18  1  0  0  0  0
 50 28  1  0  0  0  0
 51 29  1  0  0  0  0
 52 30  1  0  0  0  0
 55 34  1  0  0  0  0
 56 35  1  0  0  0  0
 57 36  1  0  0  0  0
 63 26  1  0  0  0  0
 64 22  1  0  0  0  0
M  END
$$$$
