CSD_code = HEDCOI | q = 0 | S = 0 | Stoichiometry = C19H24Cl2MoN4O2 | MND = 6
 OpenBabel04212202043D

 52 54  0  0  1  0  0  0  0  0999 V2000
    1.6062    2.9006    4.3986 Mo  0  0  0  0  0  0  0  0  0  0  0  0
    3.1917    1.2331    4.9306 Cl  0  0  0  0  0  0  0  0  0  0  0  0
   -0.5144    3.9301    3.7850 Cl  0  0  0  0  0  0  0  0  0  0  0  0
    0.3895    1.9536    5.7822 O   0  0  0  0  0  0  0  0  0  0  0  0
    0.9148    1.4805    3.0967 O   0  0  0  0  0  0  0  0  0  0  0  0
    2.4407    3.5313    2.8096 N   0  0  0  0  0  0  0  0  0  0  0  0
    3.2378    4.5484    2.3817 N   0  0  0  0  0  0  0  0  0  0  0  0
    2.0607    4.1573    5.5053 N   0  0  0  0  0  2  0  0  0  0  0  0
    2.2399    5.1458    6.3226 N   0  0  0  0  0  0  0  0  0  0  0  0
    2.9305    5.1484    1.1492 C   0  0  0  0  0  0  0  0  0  0  0  0
    3.9158    5.8156    0.4205 C   0  0  0  0  0  0  0  0  0  0  0  0
    3.6187    6.3512   -0.8173 C   0  0  0  0  0  0  0  0  0  0  0  0
    2.3456    6.2282   -1.3513 C   0  0  0  0  0  0  0  0  0  0  0  0
    1.3628    5.5720   -0.6298 C   0  0  0  0  0  0  0  0  0  0  0  0
    1.6461    5.0365    0.6127 C   0  0  0  0  0  0  0  0  0  0  0  0
    3.8713    5.3284    3.4146 C   0  0  0  0  0  0  0  0  0  0  0  0
   -1.1767    0.5373    6.8532 C   0  0  0  0  0  0  0  0  0  0  0  0
   -0.3982    0.9801    5.6364 C   0  0  0  0  0  0  0  0  0  0  0  0
   -0.6084    0.2882    4.4383 C   0  0  0  0  0  0  0  0  0  0  0  0
    0.0506    0.5702    3.2409 C   0  0  1  0  0  3  0  0  0  0  0  0
   -0.2938   -0.2596    2.0270 C   0  0  0  0  0  0  0  0  0  0  0  0
    3.3107    5.1740    7.2110 C   0  0  0  0  0  0  0  0  0  0  0  0
    3.5193    6.2560    8.0680 C   0  0  0  0  0  0  0  0  0  0  0  0
    4.6042    6.2574    8.9252 C   0  0  0  0  0  0  0  0  0  0  0  0
    5.4925    5.1960    8.9466 C   0  0  0  0  0  0  0  0  0  0  0  0
    5.2853    4.1187    8.0986 C   0  0  0  0  0  0  0  0  0  0  0  0
    4.2084    4.1014    7.2370 C   0  0  0  0  0  0  0  0  0  0  0  0
    1.2219    6.1822    6.3256 C   0  0  0  0  0  0  0  0  0  0  0  0
    2.2337    2.9677    1.9754 H   0  0  0  0  0  0  0  0  0  0  0  0
    4.9172    5.8979    0.8138 H   0  0  0  0  0  0  0  0  0  0  0  0
    4.3900    6.8619   -1.3745 H   0  0  0  0  0  0  0  0  0  0  0  0
    2.1214    6.6459   -2.3207 H   0  0  0  0  0  0  0  0  0  0  0  0
    0.3636    5.4852   -1.0293 H   0  0  0  0  0  0  0  0  0  0  0  0
    0.8613    4.5644    1.1904 H   0  0  0  0  0  0  0  0  0  0  0  0
    3.1512    5.9876    3.9137 H   0  0  0  0  0  0  0  0  0  0  0  0
    4.6609    5.9340    2.9778 H   0  0  0  0  0  0  0  0  0  0  0  0
    4.3002    4.6416    4.1485 H   0  0  0  0  0  0  0  0  0  0  0  0
    2.8438    7.0958    8.0736 H   0  0  0  0  0  0  0  0  0  0  0  0
    4.7545    7.1000    9.5843 H   0  0  0  0  0  0  0  0  0  0  0  0
    6.3360    5.2061    9.6197 H   0  0  0  0  0  0  0  0  0  0  0  0
    5.9670    3.2817    8.1096 H   0  0  0  0  0  0  0  0  0  0  0  0
    4.0400    3.2558    6.5833 H   0  0  0  0  0  0  0  0  0  0  0  0
    0.7533    6.2587    7.3082 H   0  0  0  0  0  0  0  0  0  0  0  0
    1.6490    7.1484    6.0477 H   0  0  0  0  0  0  0  0  0  0  0  0
    0.4660    5.8963    5.5908 H   0  0  0  0  0  0  0  0  0  0  0  0
   -1.3254   -0.5180    4.4420 H   0  0  0  0  0  0  0  0  0  0  0  0
   -0.8279    1.0839    7.7262 H   0  0  0  0  0  0  0  0  0  0  0  0
   -1.0540   -0.5310    7.0141 H   0  0  0  0  0  0  0  0  0  0  0  0
   -2.2351    0.7416    6.7017 H   0  0  0  0  0  0  0  0  0  0  0  0
    0.4414   -0.0932    1.2427 H   0  0  0  0  0  0  0  0  0  0  0  0
   -1.2746    0.0380    1.6584 H   0  0  0  0  0  0  0  0  0  0  0  0
   -0.3296   -1.3157    2.2805 H   0  0  0  0  0  0  0  0  0  0  0  0
  1  2  1  0  0  0  0
  1  8  1  0  0  0  0
  1  4  1  0  0  0  0
  3  1  1  0  0  0  0
  5 20  1  0  0  0  0
  5  1  1  0  0  0  0
  6  1  1  0  0  0  0
  7  6  1  0  0  0  0
  7 16  1  0  0  0  0
  8  9  1  0  0  0  0
  9 28  1  0  0  0  0
  9 22  1  0  0  0  0
 10  7  1  0  0  0  0
 11 30  1  0  0  0  0
 11 10  2  0  0  0  0
 12 11  1  0  0  0  0
 13 12  2  0  0  0  0
 13 14  1  0  0  0  0
 14 15  2  0  0  0  0
 15 10  1  0  0  0  0
 15 34  1  0  0  0  0
 16 35  1  0  0  0  0
 16 37  1  0  0  0  0
 17 48  1  0  0  0  0
 17 47  1  0  0  0  0
 18  4  1  0  0  0  0
 18 17  1  0  0  0  0
 19 46  1  0  0  0  0
 19 18  2  0  0  0  0
 20 21  1  6  0  0  0
 20 19  1  0  0  0  0
 21 52  1  0  0  0  0
 22 27  2  0  0  0  0
 22 23  1  0  0  0  0
 23 38  1  0  0  0  0
 23 24  2  0  0  0  0
 24 25  1  0  0  0  0
 24 39  1  0  0  0  0
 25 40  1  0  0  0  0
 26 41  1  0  0  0  0
 26 25  2  0  0  0  0
 27 26  1  0  0  0  0
 28 43  1  0  0  0  0
 29  6  1  0  0  0  0
 31 12  1  0  0  0  0
 32 13  1  0  0  0  0
 33 14  1  0  0  0  0
 36 16  1  0  0  0  0
 42 27  1  0  0  0  0
 44 28  1  0  0  0  0
 45 28  1  0  0  0  0
 49 17  1  0  0  0  0
 50 21  1  0  0  0  0
 51 21  1  0  0  0  0
M  END
$$$$
