CSD_code = HEDVER | q = 1 | S = 0 | Stoichiometry = C20H20Cl2CoN4(1+) | MND = 6
 OpenBabel04212202043D

 47 50  0  0  0  0  0  0  0  0999 V2000
    4.5845    1.8797    3.4491 Co  0  0  0  0  0  0  0  0  0  0  0  0
    5.4715    0.7966    5.1751 Cl  0  0  0  0  0  0  0  0  0  0  0  0
    3.6993    2.9664    1.7246 Cl  0  0  0  0  0  0  0  0  0  0  0  0
    6.3139    1.8388    2.5404 N   0  0  0  0  0  0  0  0  0  0  0  0
    2.8549    1.9137    4.3572 N   0  0  0  0  0  0  0  0  0  0  0  0
    5.0580    3.5848    4.2771 N   0  0  0  0  0  0  0  0  0  0  0  0
    4.1106    0.1748    2.6178 N   0  0  0  0  0  0  0  0  0  0  0  0
    6.7724    2.9031    1.8756 C   0  0  0  0  0  3  0  0  0  0  0  0
    7.9905    2.9139    1.2200 C   0  0  0  0  0  0  0  0  0  0  0  0
    8.7842    1.7791    1.2468 C   0  0  0  0  0  0  0  0  0  0  0  0
    8.3114    0.6746    1.9363 C   0  0  0  0  0  0  0  0  0  0  0  0
    7.0803    0.7446    2.5631 C   0  0  0  0  0  0  0  0  0  0  0  0
    2.7648    2.1631    5.6667 C   0  0  0  0  0  3  0  0  0  0  0  0
    1.5621    2.1724    6.3502 C   0  0  0  0  0  0  0  0  0  0  0  0
    0.3886    1.9176    5.6598 C   0  0  0  0  0  0  0  0  0  0  0  0
    0.4788    1.6655    4.3007 C   0  0  0  0  0  0  0  0  0  0  0  0
    1.7213    1.6717    3.6927 C   0  0  0  0  0  0  0  0  0  0  0  0
    4.2158    4.6218    4.2561 C   0  0  0  0  0  3  0  0  0  0  0  0
    4.5190    5.8494    4.8172 C   0  0  0  0  0  0  0  0  0  0  0  0
    5.7453    6.0270    5.4362 C   0  0  0  0  0  0  0  0  0  0  0  0
    6.6182    4.9518    5.4636 C   0  0  0  0  0  0  0  0  0  0  0  0
    6.2398    3.7581    4.8760 C   0  0  0  0  0  0  0  0  0  0  0  0
    3.6157   -0.8336    3.3413 C   0  0  0  0  0  3  0  0  0  0  0  0
    3.2615   -2.0523    2.7908 C   0  0  0  0  0  0  0  0  0  0  0  0
    3.4174   -2.2512    1.4288 C   0  0  0  0  0  0  0  0  0  0  0  0
    3.9307   -1.2074    0.6768 C   0  0  0  0  0  0  0  0  0  0  0  0
    4.2641   -0.0209    1.3051 C   0  0  0  0  0  0  0  0  0  0  0  0
    6.1390    3.7773    1.8402 H   0  0  0  0  0  0  0  0  0  0  0  0
    8.3023    3.8036    0.6973 H   0  0  0  0  0  0  0  0  0  0  0  0
    9.7398    1.7560    0.7470 H   0  0  0  0  0  0  0  0  0  0  0  0
    8.8845   -0.2365    1.9955 H   0  0  0  0  0  0  0  0  0  0  0  0
    6.7155   -0.1055    3.1207 H   0  0  0  0  0  0  0  0  0  0  0  0
    3.6853    2.3398    6.2033 H   0  0  0  0  0  0  0  0  0  0  0  0
    1.5565    2.3748    7.4089 H   0  0  0  0  0  0  0  0  0  0  0  0
   -0.5649    1.9163    6.1642 H   0  0  0  0  0  0  0  0  0  0  0  0
   -0.3994    1.4659    3.7083 H   0  0  0  0  0  0  0  0  0  0  0  0
    1.7967    1.4977    2.6294 H   0  0  0  0  0  0  0  0  0  0  0  0
    3.2699    4.4832    3.7535 H   0  0  0  0  0  0  0  0  0  0  0  0
    3.7982    6.6490    4.7619 H   0  0  0  0  0  0  0  0  0  0  0  0
    6.0118    6.9721    5.8827 H   0  0  0  0  0  0  0  0  0  0  0  0
    7.5848    5.0268    5.9349 H   0  0  0  0  0  0  0  0  0  0  0  0
    6.9069    2.9095    4.9127 H   0  0  0  0  0  0  0  0  0  0  0  0
    3.5168   -0.6791    4.4057 H   0  0  0  0  0  0  0  0  0  0  0  0
    2.8716   -2.8282    3.4294 H   0  0  0  0  0  0  0  0  0  0  0  0
    3.1481   -3.1889    0.9688 H   0  0  0  0  0  0  0  0  0  0  0  0
    4.0728   -1.3005   -0.3877 H   0  0  0  0  0  0  0  0  0  0  0  0
    4.6449    0.8041    0.7212 H   0  0  0  0  0  0  0  0  0  0  0  0
  1  6  1  0  0  0  0
  1  5  1  0  0  0  0
  1  2  1  0  0  0  0
  3  1  1  0  0  0  0
  4 12  1  0  0  0  0
  4  1  1  0  0  0  0
  5 13  1  0  0  0  0
  6 22  1  0  0  0  0
  7 23  1  0  0  0  0
  7  1  1  0  0  0  0
  8  4  1  0  0  0  0
  9 10  2  0  0  0  0
  9  8  1  0  0  0  0
 10 11  1  0  0  0  0
 11 31  1  0  0  0  0
 11 12  2  0  0  0  0
 12 32  1  0  0  0  0
 13 33  1  0  0  0  0
 13 14  1  0  0  0  0
 14 34  1  0  0  0  0
 15 35  1  0  0  0  0
 15 14  2  0  0  0  0
 16 15  1  0  0  0  0
 17 16  2  0  0  0  0
 17  5  1  0  0  0  0
 18  6  1  0  0  0  0
 18 19  1  0  0  0  0
 19 20  2  0  0  0  0
 20 21  1  0  0  0  0
 20 40  1  0  0  0  0
 21 41  1  0  0  0  0
 22 42  1  0  0  0  0
 22 21  2  0  0  0  0
 23 43  1  0  0  0  0
 24 23  1  0  0  0  0
 24 44  1  0  0  0  0
 25 24  2  0  0  0  0
 26 27  2  0  0  0  0
 26 25  1  0  0  0  0
 27  7  1  0  0  0  0
 28  8  1  0  0  0  0
 29  9  1  0  0  0  0
 30 10  1  0  0  0  0
 36 16  1  0  0  0  0
 37 17  1  0  0  0  0
 38 18  1  0  0  0  0
 39 19  1  0  0  0  0
 45 25  1  0  0  0  0
 46 26  1  0  0  0  0
 47 27  1  0  0  0  0
M  END
$$$$
