CSD_code = HEDWES | q = 1 | S = 0 | Stoichiometry = C9H13ClNPtS2(1+) | MND = 4
 OpenBabel04212202043D

 27 29  0  0  1  0  0  0  0  0999 V2000
    5.0124    4.0810    9.6961 Pt  0  0  1  0  0  0  0  0  0  0  0  0
    5.7367    2.3686   10.9329 Cl  0  0  0  0  0  0  0  0  0  0  0  0
    7.1748    4.6562    9.0654 S   0  0  2  0  0  3  0  0  0  0  0  0
    2.7902    3.6036   10.1694 S   0  0  2  0  0  3  0  0  0  0  0  0
    4.3583    5.6103    8.5557 N   0  0  0  0  0  0  0  0  0  0  0  0
    5.2422    6.3767    7.8965 C   0  0  1  0  0  3  0  0  0  0  0  0
    4.8242    7.3593    7.0103 C   0  0  0  0  0  0  0  0  0  0  0  0
    3.4676    7.5647    6.8161 C   0  0  0  0  0  0  0  0  0  0  0  0
    2.5666    6.7820    7.5188 C   0  0  0  0  0  0  0  0  0  0  0  0
    3.0423    5.8045    8.3831 C   0  0  0  0  0  0  0  0  0  0  0  0
    6.7067    6.1986    8.1708 C   0  0  0  0  0  0  0  0  0  0  0  0
    2.0623    4.9430    9.1260 C   0  0  0  0  0  0  0  0  0  0  0  0
    7.2811    3.4876    7.6767 C   0  0  0  0  0  0  0  0  0  0  0  0
    2.7497    4.3868   11.8092 C   0  0  0  0  0  0  0  0  0  0  0  0
    5.5542    7.9565    6.4886 H   0  0  0  0  0  0  0  0  0  0  0  0
    3.1191    8.3216    6.1323 H   0  0  0  0  0  0  0  0  0  0  0  0
    1.5041    6.9184    7.3996 H   0  0  0  0  0  0  0  0  0  0  0  0
    7.0467    7.0116    8.8192 H   0  0  0  0  0  0  0  0  0  0  0  0
    7.2873    6.2416    7.2485 H   0  0  0  0  0  0  0  0  0  0  0  0
    1.4144    4.4350    8.4071 H   0  0  0  0  0  0  0  0  0  0  0  0
    1.4282    5.5543    9.7702 H   0  0  0  0  0  0  0  0  0  0  0  0
    7.3810    2.4957    8.1120 H   0  0  0  0  0  0  0  0  0  0  0  0
    6.3921    3.5333    7.0520 H   0  0  0  0  0  0  0  0  0  0  0  0
    8.1704    3.7204    7.0968 H   0  0  0  0  0  0  0  0  0  0  0  0
    3.3121    3.7348   12.4740 H   0  0  0  0  0  0  0  0  0  0  0  0
    3.2042    5.3742   11.7863 H   0  0  0  0  0  0  0  0  0  0  0  0
    1.7166    4.4410   12.1420 H   0  0  0  0  0  0  0  0  0  0  0  0
  1  4  1  0  0  0  0
  1  2  1  1  0  0  0
  3 13  1  6  0  0  0
  3  1  1  0  0  0  0
  4 14  1  1  0  0  0
  5  1  1  0  0  0  0
  6  7  1  1  0  0  0
  6 11  1  0  0  0  0
  6  5  1  0  0  0  0
  8  7  2  0  0  0  0
  8  9  1  0  0  0  0
  9 10  2  0  0  0  0
 10  5  1  0  0  0  0
 10 12  1  0  0  0  0
 11 18  1  0  0  0  0
 11  3  1  0  0  0  0
 12 21  1  0  0  0  0
 12  4  1  0  0  0  0
 13 22  1  0  0  0  0
 14 27  1  0  0  0  0
 14 25  1  0  0  0  0
 15  7  1  0  0  0  0
 16  8  1  0  0  0  0
 17  9  1  0  0  0  0
 19 11  1  0  0  0  0
 20 12  1  0  0  0  0
 23 13  1  0  0  0  0
 24 13  1  0  0  0  0
 26 14  1  0  0  0  0
M  END
$$$$
