CSD_code = HEFGIK | q = 0 | S = 0 | Stoichiometry = C13H17Cl2N3NiO2 | MND = 6
 OpenBabel04212202043D

 38 39  0  0  0  0  0  0  0  0999 V2000
    6.6222    4.4682    5.7543 Ni  0  0  0  0  0  0  0  0  0  0  0  0
    5.8692    2.9453    4.5915 Cl  0  0  0  0  0  0  0  0  0  0  0  0
    6.3050    3.4004    7.5417 Cl  0  0  0  0  0  0  0  0  0  0  0  0
   10.6558    6.2813    8.6571 C   0  0  0  0  0  0  0  0  0  0  0  0
    9.3713    6.5256    8.2176 C   0  0  0  0  0  0  0  0  0  0  0  0
    8.7828    5.7306    7.2307 C   0  0  0  0  0  0  0  0  0  0  0  0
    7.4771    5.8722    6.7926 N   0  0  0  0  0  0  0  0  0  0  0  0
    6.7451    6.9015    7.0525 C   0  0  0  0  0  0  0  0  0  0  0  0
    5.3839    6.8978    6.6314 C   0  0  0  0  0  0  0  0  0  0  0  0
    4.8914    5.9717    5.8140 N   0  0  0  0  0  0  0  0  0  0  0  0
    3.5856    6.2479    5.6619 C   0  0  0  0  0  0  0  0  0  0  0  0
    3.2669    7.3683    6.3897 C   0  0  0  0  0  0  0  0  0  0  0  0
    4.4109    7.7822    6.9946 N   0  0  0  0  0  0  0  0  0  0  0  0
    4.5479    8.8908    7.8962 C   0  0  0  0  0  0  0  0  0  0  0  0
   11.3800    5.2256    8.1280 C   0  0  0  0  0  0  0  0  0  0  0  0
   10.8206    4.4103    7.1615 C   0  0  0  0  0  0  0  0  0  0  0  0
    9.5324    4.6510    6.6982 C   0  0  0  0  0  0  0  0  0  0  0  0
    8.9245    3.9190    5.7395 O   0  0  0  0  0  0  0  0  0  0  0  0
    9.4645    2.6603    5.3830 C   0  0  0  0  0  0  0  0  0  0  0  0
    7.0411    5.5175    3.8519 O   0  0  0  0  0  0  0  0  0  0  0  0
    8.2168    5.3974    3.0801 C   0  0  0  0  0  0  0  0  0  0  0  0
    3.5933    9.4074    7.9760 H   0  0  0  0  0  0  0  0  0  0  0  0
    5.2992    9.5926    7.5281 H   0  0  0  0  0  0  0  0  0  0  0  0
    4.8441    8.5429    8.8881 H   0  0  0  0  0  0  0  0  0  0  0  0
    2.3389    7.8888    6.5120 H   0  0  0  0  0  0  0  0  0  0  0  0
    2.9528    5.6404    5.0468 H   0  0  0  0  0  0  0  0  0  0  0  0
    7.1168    7.7748    7.5862 H   0  0  0  0  0  0  0  0  0  0  0  0
    8.8083    7.3257    8.6724 H   0  0  0  0  0  0  0  0  0  0  0  0
   11.0881    6.9056    9.4239 H   0  0  0  0  0  0  0  0  0  0  0  0
   12.3826    5.0284    8.4753 H   0  0  0  0  0  0  0  0  0  0  0  0
   11.3932    3.5853    6.7694 H   0  0  0  0  0  0  0  0  0  0  0  0
    8.6984    2.1776    4.7754 H   0  0  0  0  0  0  0  0  0  0  0  0
   10.3843    2.7777    4.8005 H   0  0  0  0  0  0  0  0  0  0  0  0
    9.6549    2.0501    6.2693 H   0  0  0  0  0  0  0  0  0  0  0  0
    8.0736    5.8668    2.1002 H   0  0  0  0  0  0  0  0  0  0  0  0
    8.5037    4.3526    2.9378 H   0  0  0  0  0  0  0  0  0  0  0  0
    9.0140    5.9188    3.6091 H   0  0  0  0  0  0  0  0  0  0  0  0
    6.3524    4.9665    3.4374 H   0  0  0  0  0  0  0  0  0  0  0  0
  1 10  1  0  0  0  0
  1  7  1  0  0  0  0
  1  3  1  0  0  0  0
  2  1  1  0  0  0  0
  4 29  1  0  0  0  0
  5  4  1  0  0  0  0
  5 28  1  0  0  0  0
  6  5  2  0  0  0  0
  7  8  1  0  0  0  0
  7  6  1  0  0  0  0
  8 27  1  0  0  0  0
  9 13  1  0  0  0  0
  9  8  2  0  0  0  0
 10  9  1  0  0  0  0
 11 10  1  0  0  0  0
 11 12  2  0  0  0  0
 12 25  1  0  0  0  0
 12 13  1  0  0  0  0
 13 14  1  0  0  0  0
 14 22  1  0  0  0  0
 14 24  1  0  0  0  0
 15 30  1  0  0  0  0
 15  4  2  0  0  0  0
 16 15  1  0  0  0  0
 17 16  2  0  0  0  0
 17  6  1  0  0  0  0
 18 17  1  0  0  0  0
 19 18  1  0  0  0  0
 19 34  1  0  0  0  0
 21 37  1  0  0  0  0
 21 20  1  0  0  0  0
 23 14  1  0  0  0  0
 26 11  1  0  0  0  0
 31 16  1  0  0  0  0
 32 19  1  0  0  0  0
 33 19  1  0  0  0  0
 35 21  1  0  0  0  0
 36 21  1  0  0  0  0
 38 20  1  0  0  0  0
M  END
$$$$
