CSD_code = HEFMIR | q = 0 | S = 0 | Stoichiometry = C18H12BrF3N2NiO | MND = 4
 OpenBabel04212202043D

 38 42  0  0  0  0  0  0  0  0999 V2000
   12.7691    2.2468   -0.6036 Br  0  0  0  0  0  0  0  0  0  0  0  0
   10.8651    1.7776    0.2895 Ni  0  0  1  0  0  0  0  0  0  0  0  0
    9.1226    1.2966    5.3388 F   0  0  0  0  0  0  0  0  0  0  0  0
    6.9984    1.5587    5.2715 F   0  0  0  0  0  0  0  0  0  0  0  0
    7.8301   -0.3911    4.9660 F   0  0  0  0  0  0  0  0  0  0  0  0
    6.9136    3.7464   -3.8826 O   0  0  0  0  0  0  0  0  0  0  0  0
   11.5545    0.9229    2.0190 N   0  0  0  0  0  0  0  0  0  0  0  0
    9.2337    1.5145    1.1714 N   0  0  0  0  0  0  0  0  0  0  0  0
    7.7808    3.2997   -2.9355 C   0  0  0  0  0  0  0  0  0  0  0  0
    7.4302    2.9062   -1.6552 C   0  0  0  0  0  0  0  0  0  0  0  0
    6.4033    2.9275   -1.3259 H   0  0  0  0  0  0  0  0  0  0  0  0
    9.2361    1.0699    2.4309 C   0  0  0  0  0  0  0  0  0  0  0  0
   12.7875    0.5087    2.2765 C   0  0  0  0  0  0  0  0  0  0  0  0
   13.5688    0.8855    1.6281 H   0  0  0  0  0  0  0  0  0  0  0  0
    9.1248    3.2401   -3.3147 C   0  0  0  0  0  0  0  0  0  0  0  0
    9.3839    3.5458   -4.3162 H   0  0  0  0  0  0  0  0  0  0  0  0
    9.7858    2.4055   -1.1420 C   0  0  0  0  0  0  0  0  0  0  0  0
    5.5476    3.8332   -3.5590 C   0  0  0  0  0  0  0  0  0  0  0  0
    5.0565    4.2127   -4.4533 H   0  0  0  0  0  0  0  0  0  0  0  0
    5.1301    2.8524   -3.3079 H   0  0  0  0  0  0  0  0  0  0  0  0
    5.3737    4.5279   -2.7304 H   0  0  0  0  0  0  0  0  0  0  0  0
   10.7559   -0.4218    3.8244 C   0  0  0  0  0  0  0  0  0  0  0  0
    9.9381   -0.8304    4.3899 H   0  0  0  0  0  0  0  0  0  0  0  0
    6.9154    1.6787    2.5979 C   0  0  0  0  0  0  0  0  0  0  0  0
    6.0095    1.7664    3.1777 H   0  0  0  0  0  0  0  0  0  0  0  0
    8.1371    2.0123    0.5760 C   0  0  0  0  0  0  0  0  0  0  0  0
    6.9299    2.0628    1.2740 C   0  0  0  0  0  0  0  0  0  0  0  0
    6.0342    2.4328    0.8046 H   0  0  0  0  0  0  0  0  0  0  0  0
   10.1038    2.8078   -2.4410 C   0  0  0  0  0  3  0  0  0  0  0  0
   11.1245    2.7907   -2.7931 H   0  0  0  0  0  0  0  0  0  0  0  0
   13.0848   -0.3641    3.3123 C   0  0  0  0  0  0  0  0  0  0  0  0
   14.1056   -0.6611    3.4885 H   0  0  0  0  0  0  0  0  0  0  0  0
    8.0757    1.1965    3.2079 C   0  0  0  0  0  0  0  0  0  0  0  0
    8.4166    2.4608   -0.7728 C   0  0  0  0  0  0  0  0  0  0  0  0
    8.0153    0.9162    4.6811 C   0  0  0  0  0  0  0  0  0  0  0  0
   12.0451   -0.8614    4.0779 C   0  0  0  0  0  0  0  0  0  0  0  0
   12.2248   -1.5822    4.8605 H   0  0  0  0  0  0  0  0  0  0  0  0
   10.5439    0.5104    2.8147 C   0  0  0  0  0  0  0  0  0  0  0  0
  2  1  1  1  0  0  0
  2  8  1  0  0  0  0
  2  7  1  0  0  0  0
  6 18  1  0  0  0  0
  6  9  1  0  0  0  0
  7 13  1  0  0  0  0
  7 38  1  0  0  0  0
  8 12  1  0  0  0  0
  9 10  1  0  0  0  0
 10 11  1  0  0  0  0
 10 34  2  0  0  0  0
 12 38  2  0  0  0  0
 12 33  1  0  0  0  0
 13 31  2  0  0  0  0
 14 13  1  0  0  0  0
 15  9  2  0  0  0  0
 15 29  1  0  0  0  0
 16 15  1  0  0  0  0
 17 34  1  0  0  0  0
 17  2  2  0  0  0  0
 18 20  1  0  0  0  0
 18 21  1  0  0  0  0
 19 18  1  0  0  0  0
 22 36  2  0  0  0  0
 22 23  1  0  0  0  0
 24 25  1  0  0  0  0
 24 33  2  0  0  0  0
 26  8  1  0  0  0  0
 26 27  2  0  0  0  0
 27 24  1  0  0  0  0
 28 27  1  0  0  0  0
 29 17  1  0  0  0  0
 30 29  1  0  0  0  0
 31 32  1  0  0  0  0
 31 36  1  0  0  0  0
 33 35  1  0  0  0  0
 34 26  1  0  0  0  0
 35  5  1  0  0  0  0
 35  4  1  0  0  0  0
 35  3  1  0  0  0  0
 36 37  1  0  0  0  0
 38 22  1  0  0  0  0
M  END
$$$$
