CSD_code = HEFQIS | q = 0 | S = 0 | Stoichiometry = C19H15Cl2N3O2Zn | MND = 5
 OpenBabel04212202043D

 42 46  0  0  0  0  0  0  0  0999 V2000
   -2.0174    2.3693    9.4194 Zn  0  0  0  0  0  0  0  0  0  0  0  0
   -1.9158    3.8015   11.1474 Cl  0  0  0  0  0  0  0  0  0  0  0  0
   -0.4309    1.3331    8.2796 Cl  0  0  0  0  0  0  0  0  0  0  0  0
    0.9190   -2.6024   13.3078 O   0  0  0  0  0  0  0  0  0  0  0  0
   -0.0079   -1.8624   12.6607 C   0  0  0  0  0  0  0  0  0  0  0  0
    0.2759   -0.5195   12.4047 C   0  0  0  0  0  0  0  0  0  0  0  0
   -0.6332    0.2627   11.7351 C   0  0  0  0  0  0  0  0  0  0  0  0
   -1.8678   -0.2625   11.3322 C   0  0  0  0  0  0  0  0  0  0  0  0
   -2.1467   -1.6101   11.5911 C   0  0  0  0  0  0  0  0  0  0  0  0
   -1.2221   -2.4006   12.2373 C   0  0  0  0  0  0  0  0  0  0  0  0
   -2.7236    0.5667   10.6484 N   0  0  0  0  0  0  0  0  0  0  0  0
   -3.9917    0.4333   10.6278 C   0  0  0  0  0  0  0  0  0  0  0  0
   -4.7787    1.3531    9.8293 C   0  0  0  0  0  0  0  0  0  0  0  0
   -6.1765    1.3813    9.8364 C   0  0  0  0  0  0  0  0  0  0  0  0
   -6.8223    2.3277    9.0572 C   0  0  0  0  0  0  0  0  0  0  0  0
   -6.0764    3.2200    8.3037 C   0  0  0  0  0  0  0  0  0  0  0  0
   -4.6822    3.1289    8.3495 C   0  0  0  0  0  0  0  0  0  0  0  0
   -4.0835    2.2028    9.0859 N   0  0  0  0  0  0  0  0  0  0  0  0
   -3.7967    4.0273    7.6342 C   0  0  0  0  0  3  0  0  0  0  0  0
   -2.5404    3.9440    7.8370 N   0  0  0  0  0  0  0  0  0  0  0  0
   -1.5997    4.7121    7.1943 C   0  0  0  0  0  0  0  0  0  0  0  0
   -1.7797    5.2296    5.9055 C   0  0  0  0  0  0  0  0  0  0  0  0
   -0.7760    5.9523    5.2992 C   0  0  0  0  0  0  0  0  0  0  0  0
    0.4218    6.1954    5.9703 C   0  0  0  0  0  0  0  0  0  0  0  0
    0.6077    5.6801    7.2548 C   0  0  0  0  0  0  0  0  0  0  0  0
   -0.3815    4.9355    7.8495 C   0  0  0  0  0  0  0  0  0  0  0  0
    1.4241    6.9102    5.4139 O   0  0  0  0  0  0  0  0  0  0  0  0
    0.6159   -3.5137   13.4074 H   0  0  0  0  0  0  0  0  0  0  0  0
    1.2231   -0.1214   12.7297 H   0  0  0  0  0  0  0  0  0  0  0  0
   -0.4211    1.3015   11.5327 H   0  0  0  0  0  0  0  0  0  0  0  0
   -3.0666   -2.0517   11.2369 H   0  0  0  0  0  0  0  0  0  0  0  0
   -1.4332   -3.4484   12.4095 H   0  0  0  0  0  0  0  0  0  0  0  0
   -4.5315   -0.3156   11.2110 H   0  0  0  0  0  0  0  0  0  0  0  0
   -6.7327    0.6842   10.4433 H   0  0  0  0  0  0  0  0  0  0  0  0
   -7.9011    2.3749    9.0434 H   0  0  0  0  0  0  0  0  0  0  0  0
   -6.5540    3.9754    7.6996 H   0  0  0  0  0  0  0  0  0  0  0  0
   -4.2561    4.7681    6.9769 H   0  0  0  0  0  0  0  0  0  0  0  0
   -2.6864    5.0189    5.3577 H   0  0  0  0  0  0  0  0  0  0  0  0
   -0.9121    6.3269    4.2929 H   0  0  0  0  0  0  0  0  0  0  0  0
    1.5434    5.8680    7.7556 H   0  0  0  0  0  0  0  0  0  0  0  0
   -0.2455    4.5334    8.8419 H   0  0  0  0  0  0  0  0  0  0  0  0
    1.1832    7.1953    4.5234 H   0  0  0  0  0  0  0  0  0  0  0  0
  1 11  1  0  0  0  0
  1  2  1  0  0  0  0
  3  1  1  0  0  0  0
  4 28  1  0  0  0  0
  5  4  1  0  0  0  0
  6  5  1  0  0  0  0
  6 29  1  0  0  0  0
  7  6  2  0  0  0  0
  8  9  2  0  0  0  0
  8  7  1  0  0  0  0
  9 10  1  0  0  0  0
 10 32  1  0  0  0  0
 10  5  2  0  0  0  0
 11  8  1  0  0  0  0
 12 11  1  0  0  0  0
 12 33  1  0  0  0  0
 13 14  1  0  0  0  0
 13 12  2  0  0  0  0
 14 34  1  0  0  0  0
 15 14  2  0  0  0  0
 16 17  2  0  0  0  0
 16 15  1  0  0  0  0
 17 18  1  0  0  0  0
 18  1  1  0  0  0  0
 18 13  1  0  0  0  0
 19 20  1  0  0  0  0
 19 17  1  0  0  0  0
 20  1  1  0  0  0  0
 21 20  1  0  0  0  0
 21 26  1  0  0  0  0
 22 21  2  0  0  0  0
 23 22  1  0  0  0  0
 23 24  2  0  0  0  0
 24 25  1  0  0  0  0
 25 40  1  0  0  0  0
 25 26  2  0  0  0  0
 26 41  1  0  0  0  0
 27 24  1  0  0  0  0
 30  7  1  0  0  0  0
 31  9  1  0  0  0  0
 35 15  1  0  0  0  0
 36 16  1  0  0  0  0
 37 19  1  0  0  0  0
 38 22  1  0  0  0  0
 39 23  1  0  0  0  0
 42 27  1  0  0  0  0
M  END
$$$$
