CSD_code = HEFSAO | q = 0 | S = 0 | Stoichiometry = C19H27Cl2HfN | MND = 9
 OpenBabel04212202043D

 50 52  0  0  1  0  0  0  0  0999 V2000
    5.3014    3.5703    2.8360 Hf  0  0  0  0  0  0  0  0  0  0  0  0
    5.9656    4.2571    5.0393 Cl  0  0  0  0  0  0  0  0  0  0  0  0
    4.9663    5.8660    2.4557 Cl  0  0  0  0  0  0  0  0  0  0  0  0
    6.5872    1.4912    2.0123 C   0  0  0  0  0  0  0  0  0  0  0  0
    3.1271    1.2956    3.3111 C   0  0  0  0  0  0  0  0  0  0  0  0
    2.2356    0.8944    3.8181 H   0  0  0  0  0  0  0  0  0  0  0  0
    3.7649    0.4462    3.0434 H   0  0  0  0  0  0  0  0  0  0  0  0
    3.1604    3.7924    0.4994 C   0  0  0  0  0  0  0  0  0  0  0  0
    3.7470    4.6416    0.1642 H   0  0  0  0  0  0  0  0  0  0  0  0
    2.0461    3.4153   -0.2359 C   0  0  0  0  0  0  0  0  0  0  0  0
    1.7772    3.9592   -1.1302 H   0  0  0  0  0  0  0  0  0  0  0  0
    6.3454    0.0116    2.1147 C   0  0  0  0  0  0  0  0  0  0  0  0
    7.1619   -0.5316    1.6328 H   0  0  0  0  0  0  0  0  0  0  0  0
    5.4250   -0.2726    1.6068 H   0  0  0  0  0  0  0  0  0  0  0  0
    6.2963   -0.3284    3.1482 H   0  0  0  0  0  0  0  0  0  0  0  0
    2.7326    2.0418    2.0548 C   0  0  0  0  0  0  0  0  0  0  0  0
    1.6149    1.6556    1.3274 C   0  0  0  0  0  0  0  0  0  0  0  0
    1.0117    0.8210    1.6602 H   0  0  0  0  0  0  0  0  0  0  0  0
    3.8836    2.1742    4.2175 N   0  0  0  0  0  4  0  0  0  0  0  0
    2.9586    3.1492    4.8154 C   0  0  0  0  0  0  0  0  0  0  0  0
    2.1741    2.6389    5.3890 H   0  0  0  0  0  0  0  0  0  0  0  0
    2.4876    3.7489    4.0305 H   0  0  0  0  0  0  0  0  0  0  0  0
    3.5079    3.8110    5.4859 H   0  0  0  0  0  0  0  0  0  0  0  0
    3.5446    3.1154    1.6606 C   0  0  0  0  0  0  0  0  0  0  0  0
    5.6267    1.7299   -0.3793 C   0  0  0  0  0  0  0  0  0  0  0  0
    5.2928    2.5372   -1.0257 H   0  0  0  0  0  0  0  0  0  0  0  0
    4.7575    1.1232   -0.1277 H   0  0  0  0  0  0  0  0  0  0  0  0
    6.3196    1.1049   -0.9468 H   0  0  0  0  0  0  0  0  0  0  0  0
    6.2996    2.2619    0.8516 C   0  0  0  0  0  0  0  0  0  0  0  0
    4.5044    1.3879    5.2843 C   0  0  0  0  0  0  0  0  0  0  0  0
    5.0660    2.0529    5.9393 H   0  0  0  0  0  0  0  0  0  0  0  0
    5.1899    0.6597    4.8535 H   0  0  0  0  0  0  0  0  0  0  0  0
    3.7502    0.8548    5.8766 H   0  0  0  0  0  0  0  0  0  0  0  0
    1.2748    2.3416    0.1744 C   0  0  0  0  0  0  0  0  0  0  0  0
    0.4071    2.0429   -0.3955 H   0  0  0  0  0  0  0  0  0  0  0  0
    7.5879    3.5466    2.2590 C   0  0  2  0  0  0  0  0  0  0  0  0
    6.9123    3.5328    1.0013 C   0  0  1  0  0  3  0  0  0  0  0  0
    7.3931    2.2753    2.8798 C   0  0  2  0  0  3  0  0  0  0  0  0
    8.1083    1.8024    4.1157 C   0  0  0  0  0  0  0  0  0  0  0  0
    7.8130    0.7883    4.3753 H   0  0  0  0  0  0  0  0  0  0  0  0
    7.9065    2.4494    4.9696 H   0  0  0  0  0  0  0  0  0  0  0  0
    9.1859    1.8018    3.9431 H   0  0  0  0  0  0  0  0  0  0  0  0
    8.4585    4.6673    2.7567 C   0  0  0  0  0  0  0  0  0  0  0  0
    8.7111    4.5276    3.8061 H   0  0  0  0  0  0  0  0  0  0  0  0
    7.9544    5.6303    2.6464 H   0  0  0  0  0  0  0  0  0  0  0  0
    9.3885    4.7101    2.1847 H   0  0  0  0  0  0  0  0  0  0  0  0
    7.0034    4.6285   -0.0225 C   0  0  0  0  0  0  0  0  0  0  0  0
    8.0274    4.7122   -0.3916 H   0  0  0  0  0  0  0  0  0  0  0  0
    6.7227    5.5923    0.4037 H   0  0  0  0  0  0  0  0  0  0  0  0
    6.3556    4.4258   -0.8718 H   0  0  0  0  0  0  0  0  0  0  0  0
  1 19  1  0  0  0  0
  1  2  1  0  0  0  0
  3  1  1  0  0  0  0
  4 12  1  0  0  0  0
  4 38  1  0  0  0  0
  5  6  1  0  0  0  0
  5 19  1  0  0  0  0
  7  5  1  0  0  0  0
  8 24  1  0  0  0  0
  9  8  1  0  0  0  0
 10 34  1  0  0  0  0
 10  8  2  0  0  0  0
 11 10  1  0  0  0  0
 12 15  1  0  0  0  0
 13 12  1  0  0  0  0
 14 12  1  0  0  0  0
 16  5  1  0  0  0  0
 17 18  1  0  0  0  0
 17 16  1  0  0  0  0
 19 20  1  0  0  0  0
 19 30  1  0  0  0  0
 20 21  1  0  0  0  0
 20 23  1  0  0  0  0
 22 20  1  0  0  0  0
 24 16  2  0  0  0  0
 24  1  1  0  0  0  0
 25 27  1  0  0  0  0
 25 29  1  0  0  0  0
 26 25  1  0  0  0  0
 28 25  1  0  0  0  0
 29 37  1  0  0  0  0
 29  4  2  0  0  0  0
 30 33  1  0  0  0  0
 30 31  1  0  0  0  0
 32 30  1  0  0  0  0
 34 17  2  0  0  0  0
 35 34  1  0  0  0  0
 36 43  1  1  0  0  0
 36  1  1  0  0  0  0
 36 38  1  0  0  0  0
 37 47  1  6  0  0  0
 37 36  1  0  0  0  0
 38 39  1  6  0  0  0
 39 40  1  0  0  0  0
 39 41  1  0  0  0  0
 42 39  1  0  0  0  0
 43 44  1  0  0  0  0
 45 43  1  0  0  0  0
 46 43  1  0  0  0  0
 47 49  1  0  0  0  0
 48 47  1  0  0  0  0
 50 47  1  0  0  0  0
M  END
$$$$
