CSD_code = HEFTAN | q = 0 | S = 0 | Stoichiometry = C13H19ClCoN5O4 | MND = 6
 OpenBabel04212202043D

 43 45  0  0  0  0  0  0  0  0999 V2000
    6.7816    6.8078    6.7428 Co  0  0  0  0  0  0  0  0  0  0  0  0
    5.1518    5.9774    5.5600 Cl  0  0  0  0  0  0  0  0  0  0  0  0
    5.0335    6.7775    9.0522 O   0  0  0  0  0  0  0  0  0  0  0  0
    5.4726    7.4425    7.9543 N   0  0  0  0  0  0  0  0  0  0  0  0
    3.7760    9.1709    8.3581 C   0  0  0  0  0  0  0  0  0  0  0  0
    4.9143    8.5568    7.6173 C   0  0  0  0  0  0  0  0  0  0  0  0
    5.4984    9.1769    6.4569 C   0  0  0  0  0  0  0  0  0  0  0  0
    5.0440   10.4958    5.9215 C   0  0  0  0  0  0  0  0  0  0  0  0
    6.4645    8.4882    5.9259 N   0  0  0  0  0  0  0  0  0  0  0  0
    7.1523    8.9070    4.9251 O   0  0  0  0  0  1  0  0  0  0  0  0
    8.4311    6.7871    4.3610 O   0  0  0  0  0  0  0  0  0  0  0  0
    7.9717    6.1118    5.4445 N   0  0  0  0  0  0  0  0  0  0  0  0
    9.0885    4.0859    4.6209 C   0  0  0  0  0  0  0  0  0  0  0  0
    8.2697    4.8644    5.5930 C   0  0  0  0  0  0  0  0  0  0  0  0
    7.7479    4.2772    6.7993 C   0  0  0  0  0  0  0  0  0  0  0  0
    8.0080    2.8602    7.1955 C   0  0  0  0  0  0  0  0  0  0  0  0
    7.0385    5.0970    7.5163 N   0  0  0  0  0  0  0  0  0  0  0  0
    6.5441    4.7767    8.6579 O   0  0  0  0  0  1  0  0  0  0  0  0
    8.2510    7.5571    7.8080 N   0  0  0  0  0  0  0  0  0  0  0  0
    9.1749    8.3410    7.2489 C   0  0  0  0  0  3  0  0  0  0  0  0
   10.2240    8.8904    7.9636 C   0  0  0  0  0  0  0  0  0  0  0  0
   10.3314    8.6232    9.3187 C   0  0  0  0  0  0  0  0  0  0  0  0
    9.3724    7.8091    9.8993 C   0  0  0  0  0  0  0  0  0  0  0  0
    8.3548    7.2993    9.1130 C   0  0  0  0  0  0  0  0  0  0  0  0
    5.5300    5.8704    9.0204 H   0  0  0  0  0  0  0  0  0  0  0  0
    7.9489    7.7006    4.4026 H   0  0  0  0  0  0  0  0  0  0  0  0
    4.0655   10.1393    8.7630 H   0  0  0  0  0  0  0  0  0  0  0  0
    2.9373    9.3216    7.6812 H   0  0  0  0  0  0  0  0  0  0  0  0
    3.4715    8.5156    9.1695 H   0  0  0  0  0  0  0  0  0  0  0  0
    4.0067   10.4353    5.5963 H   0  0  0  0  0  0  0  0  0  0  0  0
    5.6675   10.7572    5.0695 H   0  0  0  0  0  0  0  0  0  0  0  0
    5.1240   11.2728    6.6803 H   0  0  0  0  0  0  0  0  0  0  0  0
    9.9558    3.6523    5.1157 H   0  0  0  0  0  0  0  0  0  0  0  0
    8.4906    3.2747    4.2088 H   0  0  0  0  0  0  0  0  0  0  0  0
    9.4146    4.7350    3.8129 H   0  0  0  0  0  0  0  0  0  0  0  0
    9.0742    2.6824    7.3298 H   0  0  0  0  0  0  0  0  0  0  0  0
    7.4908    2.6623    8.1317 H   0  0  0  0  0  0  0  0  0  0  0  0
    7.6370    2.1789    6.4321 H   0  0  0  0  0  0  0  0  0  0  0  0
    9.0741    8.5555    6.1937 H   0  0  0  0  0  0  0  0  0  0  0  0
   10.9410    9.5174    7.4584 H   0  0  0  0  0  0  0  0  0  0  0  0
   11.1377    9.0370    9.9047 H   0  0  0  0  0  0  0  0  0  0  0  0
    9.4053    7.5667   10.9493 H   0  0  0  0  0  0  0  0  0  0  0  0
    7.6099    6.6509    9.5538 H   0  0  0  0  0  0  0  0  0  0  0  0
  1 17  1  0  0  0  0
  1 19  1  0  0  0  0
  1  4  1  0  0  0  0
  2  1  1  0  0  0  0
  4  3  1  0  0  0  0
  5 27  1  0  0  0  0
  5 29  1  0  0  0  0
  6  4  1  0  0  0  0
  6  5  1  0  0  0  0
  7  6  2  0  0  0  0
  8  7  1  0  0  0  0
  8 32  1  0  0  0  0
  9  7  1  0  0  0  0
  9  1  1  0  0  0  0
 10  9  1  0  0  0  0
 11 26  1  0  0  0  0
 11 12  1  0  0  0  0
 12 14  1  0  0  0  0
 12  1  1  0  0  0  0
 13 33  1  0  0  0  0
 13 14  1  0  0  0  0
 14 15  2  0  0  0  0
 15 16  1  0  0  0  0
 15 17  1  0  0  0  0
 16 36  1  0  0  0  0
 16 37  1  0  0  0  0
 17 18  1  0  0  0  0
 19 24  1  0  0  0  0
 20 19  1  0  0  0  0
 20 21  1  0  0  0  0
 21 22  2  0  0  0  0
 22 23  1  0  0  0  0
 22 41  1  0  0  0  0
 23 42  1  0  0  0  0
 24 43  1  0  0  0  0
 24 23  2  0  0  0  0
 25  3  1  0  0  0  0
 28  5  1  0  0  0  0
 30  8  1  0  0  0  0
 31  8  1  0  0  0  0
 34 13  1  0  0  0  0
 35 13  1  0  0  0  0
 38 16  1  0  0  0  0
 39 20  1  0  0  0  0
 40 21  1  0  0  0  0
M  END
$$$$
