CSD_code = HEHGIK | q = 0 | S = 0 | Stoichiometry = C20H21ClN2O4Pt | MND = 6
 OpenBabel04212202043D

 49 49  0  0  1  0  0  0  0  0999 V2000
    1.7493   -0.3402    4.1721 Pt  0  0  0  0  0  0  0  0  0  0  0  0
    0.0646    1.2349    4.8357 Cl  0  0  0  0  0 15  0  0  0  0  0  0
    1.7107   -0.9279    6.3379 N   0  0  0  0  0  0  0  0  0  0  0  0
    3.0809    1.0696    5.1628 N   0  0  0  0  0  0  0  0  0  0  0  0
    3.7300    2.0407    4.5448 C   0  0  0  0  0  0  0  0  0  0  0  0
    4.2869    3.1107    5.2697 C   0  0  0  0  0  0  0  0  0  0  0  0
    4.1555    3.1662    6.6317 C   0  0  0  0  0  0  0  0  0  0  0  0
    3.4582    2.1414    7.2949 C   0  0  0  0  0  0  0  0  0  0  0  0
    3.2483    2.1227    8.7018 C   0  0  0  0  0  0  0  0  0  0  0  0
    2.5407    1.1278    9.2905 C   0  0  0  0  0  0  0  0  0  0  0  0
    1.9913    0.0671    8.5187 C   0  0  0  0  0  0  0  0  0  0  0  0
    1.2284   -0.9780    9.0681 C   0  0  0  0  0  0  0  0  0  0  0  0
    0.7371   -1.9556    8.2426 C   0  0  0  0  0  0  0  0  0  0  0  0
    1.0015   -1.9094    6.8624 C   0  0  0  0  0  0  0  0  0  0  0  0
    2.1948    0.0464    7.1237 C   0  0  0  0  0  0  0  0  0  0  0  0
    2.9338    1.1029    6.4992 C   0  0  0  0  0  0  0  0  0  0  0  0
    0.4902   -2.9586    5.9398 C   0  0  0  0  0  0  0  0  0  0  0  0
    3.8336    1.9919    3.0641 C   0  0  0  0  0  0  0  0  0  0  0  0
    1.1482   -0.1291    2.1985 C   0  0  2  0  0  0  0  0  0  0  0  0
    0.3953   -1.1963    2.8167 C   0  0  0  0  0  3  0  0  0  0  0  0
    2.0716   -0.4753    1.0623 C   0  0  0  0  0  0  0  0  0  0  0  0
    3.2739   -0.4998    1.1028 O   0  0  0  0  0  0  0  0  0  0  0  0
    1.3619   -0.6599   -0.0561 O   0  0  0  0  0  0  0  0  0  0  0  0
    2.1030   -1.0894   -1.1912 C   0  0  0  0  0  0  0  0  0  0  0  0
    0.6048   -2.5762    2.3363 C   0  0  0  0  0  0  0  0  0  0  0  0
    1.4689   -2.9496    1.5790 O   0  0  0  0  0  0  0  0  0  0  0  0
   -0.3412   -3.4108    2.8199 O   0  0  0  0  0  0  0  0  0  0  0  0
   -0.2379   -4.7638    2.4053 C   0  0  0  0  0  0  0  0  0  0  0  0
    2.8645   -1.3113    3.8286 H   0  0  0  0  0  0  0  0  0  0  0  0
    4.8069    3.8887    4.7327 H   0  0  0  0  0  0  0  0  0  0  0  0
    4.5691    3.9857    7.2012 H   0  0  0  0  0  0  0  0  0  0  0  0
    3.6586    2.9322    9.2873 H   0  0  0  0  0  0  0  0  0  0  0  0
    2.3711    1.1235   10.3571 H   0  0  0  0  0  0  0  0  0  0  0  0
    1.0357   -0.9958   10.1309 H   0  0  0  0  0  0  0  0  0  0  0  0
    0.1428   -2.7652    8.6369 H   0  0  0  0  0  0  0  0  0  0  0  0
    0.2977   -3.8905    6.4648 H   0  0  0  0  0  0  0  0  0  0  0  0
    1.2116   -3.1198    5.1381 H   0  0  0  0  0  0  0  0  0  0  0  0
   -0.4395   -2.6205    5.4808 H   0  0  0  0  0  0  0  0  0  0  0  0
    3.8821    0.9581    2.7158 H   0  0  0  0  0  0  0  0  0  0  0  0
    4.6990    2.5463    2.7110 H   0  0  0  0  0  0  0  0  0  0  0  0
    2.9387    2.4425    2.6323 H   0  0  0  0  0  0  0  0  0  0  0  0
    0.6140    0.8080    2.0283 H   0  0  0  0  0  0  0  0  0  0  0  0
   -0.6267   -0.9985    3.1423 H   0  0  0  0  0  0  0  0  0  0  0  0
    1.4034   -1.1080   -2.0228 H   0  0  0  0  0  0  0  0  0  0  0  0
    2.5079   -2.0849   -1.0022 H   0  0  0  0  0  0  0  0  0  0  0  0
    2.9259   -0.4000   -1.3905 H   0  0  0  0  0  0  0  0  0  0  0  0
   -1.0587   -5.2923    2.8829 H   0  0  0  0  0  0  0  0  0  0  0  0
    0.7222   -5.1832    2.7134 H   0  0  0  0  0  0  0  0  0  0  0  0
   -0.3166   -4.8353    1.3187 H   0  0  0  0  0  0  0  0  0  0  0  0
  3 14  2  0  0  0  0
  3 15  1  0  0  0  0
  4 16  1  0  0  0  0
  5  4  2  0  0  0  0
  5  6  1  0  0  0  0
  6  7  2  0  0  0  0
  7 31  1  0  0  0  0
  7  8  1  0  0  0  0
  8  9  1  0  0  0  0
  9 32  1  0  0  0  0
  9 10  2  0  0  0  0
 10 33  1  0  0  0  0
 11 12  1  0  0  0  0
 11 10  1  0  0  0  0
 12 34  1  0  0  0  0
 13 35  1  0  0  0  0
 13 12  2  0  0  0  0
 14 13  1  0  0  0  0
 15 11  2  0  0  0  0
 16 15  1  0  0  0  0
 16  8  2  0  0  0  0
 17 36  1  0  0  0  0
 17 14  1  0  0  0  0
 18  5  1  0  0  0  0
 19 42  1  6  0  0  0
 19 20  1  0  0  0  0
 19  1  1  0  0  0  0
 20 43  1  0  0  0  0
 21 22  2  0  0  0  0
 21 19  1  0  0  0  0
 23 21  1  0  0  0  0
 24 45  1  0  0  0  0
 24 23  1  0  0  0  0
 25 20  1  0  0  0  0
 25 27  1  0  0  0  0
 26 25  2  0  0  0  0
 28 48  1  0  0  0  0
 28 27  1  0  0  0  0
 28 47  1  0  0  0  0
 29  1  1  0  0  0  0
 30  6  1  0  0  0  0
 37 17  1  0  0  0  0
 38 17  1  0  0  0  0
 39 18  1  0  0  0  0
 40 18  1  0  0  0  0
 41 18  1  0  0  0  0
 44 24  1  0  0  0  0
 46 24  1  0  0  0  0
 49 28  1  0  0  0  0
M  END
$$$$
