CSD_code = HEHGIN | q = 0 | S = 0 | Stoichiometry = C11H12AuClN6 | MND = 2
 OpenBabel04212202043D

 31 33  0  0  1  0  0  0  0  0999 V2000
    5.3155    3.4211    4.9079 Au  0  0  0  0  0  0  0  0  0  0  0  0
    5.0045    4.1674    6.9950 Cl  0  0  0  0  0  0  0  0  0  0  0  0
    5.5463    2.7588    3.0344 C   0  0  1  0  0  3  0  0  0  0  0  0
    6.6399    2.2083    2.4787 N   0  0  0  0  0  0  0  0  0  0  0  0
    7.9135    2.0518    3.1381 C   0  0  0  0  0  0  0  0  0  0  0  0
    8.9195    2.8193    2.4677 N   0  0  0  0  0  0  0  0  0  0  0  0
    8.8557    4.1509    2.4709 N   0  0  0  0  0  0  0  0  0  0  0  0
    9.8657    4.5647    1.7391 C   0  0  0  0  0  0  0  0  0  0  0  0
   10.6063    3.4796    1.2410 C   0  0  0  0  0  0  0  0  0  0  0  0
    9.9609    2.3711    1.7268 C   0  0  0  0  0  0  0  0  0  0  0  0
    6.4080    1.9031    1.1600 C   0  0  0  0  0  0  0  0  0  0  0  0
    5.1326    2.2624    0.8949 C   0  0  0  0  0  0  0  0  0  0  0  0
    4.6195    2.7727    2.0595 N   0  0  0  0  0  0  0  0  0  0  0  0
    3.3041    3.3590    2.1710 C   0  0  0  0  0  0  0  0  0  0  0  0
    3.2826    4.6549    1.5646 N   0  0  0  0  0  0  0  0  0  0  0  0
    3.0766    4.7710    0.2496 N   0  0  0  0  0  0  0  0  0  0  0  0
    3.2101    6.0506   -0.0231 C   0  0  0  0  0  0  0  0  0  0  0  0
    3.5220    6.7839    1.1338 C   0  0  0  0  0  0  0  0  0  0  0  0
    3.5691    5.8483    2.1355 C   0  0  0  0  0  0  0  0  0  0  0  0
    7.7854    2.4136    4.1663 H   0  0  0  0  0  0  0  0  0  0  0  0
    8.2136    0.9978    3.1408 H   0  0  0  0  0  0  0  0  0  0  0  0
   10.0330    5.6123    1.5923 H   0  0  0  0  0  0  0  0  0  0  0  0
   11.4791    3.5123    0.6233 H   0  0  0  0  0  0  0  0  0  0  0  0
   10.1669    1.3254    1.6175 H   0  0  0  0  0  0  0  0  0  0  0  0
    7.1569    1.4679    0.5316 H   0  0  0  0  0  0  0  0  0  0  0  0
    4.5560    2.2185   -0.0055 H   0  0  0  0  0  0  0  0  0  0  0  0
    3.0564    3.4393    3.2344 H   0  0  0  0  0  0  0  0  0  0  0  0
    2.5825    2.7230    1.6469 H   0  0  0  0  0  0  0  0  0  0  0  0
    3.0783    6.4065   -1.0253 H   0  0  0  0  0  0  0  0  0  0  0  0
    3.6841    7.8384    1.2143 H   0  0  0  0  0  0  0  0  0  0  0  0
    3.7730    5.9332    3.1837 H   0  0  0  0  0  0  0  0  0  0  0  0
  1  2  1  0  0  0  0
  3  1  1  1  0  0  0
  4  3  1  0  0  0  0
  4  5  1  0  0  0  0
  5 21  1  0  0  0  0
  5 20  1  0  0  0  0
  6  7  1  0  0  0  0
  6  5  1  0  0  0  0
  8  7  2  0  0  0  0
  9 10  2  0  0  0  0
  9  8  1  0  0  0  0
 10  6  1  0  0  0  0
 11  4  1  0  0  0  0
 12 11  2  0  0  0  0
 12 13  1  0  0  0  0
 13 14  1  0  0  0  0
 13  3  1  0  0  0  0
 14 27  1  0  0  0  0
 15 19  1  0  0  0  0
 15 14  1  0  0  0  0
 16 15  1  0  0  0  0
 17 16  2  0  0  0  0
 17 18  1  0  0  0  0
 18 30  1  0  0  0  0
 18 19  2  0  0  0  0
 19 31  1  0  0  0  0
 22  8  1  0  0  0  0
 23  9  1  0  0  0  0
 24 10  1  0  0  0  0
 25 11  1  0  0  0  0
 26 12  1  0  0  0  0
 28 14  1  0  0  0  0
 29 17  1  0  0  0  0
M  END
$$$$
