CSD_code = HEHTAP | q = 0 | S = 0 | Stoichiometry = C6H14Cl4N2Pt | MND = 6
 OpenBabel04212202043D

 27 28  0  0  1  0  0  0  0  0999 V2000
    6.0326    4.3340    2.7517 Pt  0  0  0  0  0  0  0  0  0  0  0  0
    5.6510    2.3575    1.6381 Cl  0  0  0  0  0  0  0  0  0  0  0  0
    7.8442    3.5024    3.8983 Cl  0  0  0  0  0  0  0  0  0  0  0  0
    4.6596    3.5842    4.5337 Cl  0  0  0  0  0  0  0  0  0  0  0  0
    7.4635    4.9626    0.9693 Cl  0  0  0  0  0  0  0  0  0  0  0  0
    6.3756    6.1451    3.8849 N   0  0  0  0  0  4  0  0  0  0  0  0
    5.7626    7.4496    3.5695 C   0  0  2  0  0  0  0  0  0  0  0  0
    4.3203    7.5144    4.0676 C   0  0  0  0  0  0  0  0  0  0  0  0
    3.3941    6.5158    3.3695 C   0  0  0  0  0  0  0  0  0  0  0  0
    3.6869    6.3731    1.8681 C   0  0  1  0  0  0  0  0  0  0  0  0
    4.4981    7.5586    1.3489 C   0  0  0  0  0  0  0  0  0  0  0  0
    5.8410    7.7344    2.0621 C   0  0  0  0  0  0  0  0  0  0  0  0
    4.3732    5.0967    1.5916 N   0  0  0  0  0  4  0  0  0  0  0  0
    7.3939    6.2191    3.8391 H   0  0  0  0  0  0  0  0  0  0  0  0
    6.1269    5.8606    4.8361 H   0  0  0  0  0  0  0  0  0  0  0  0
    6.3353    8.2196    4.1065 H   0  0  0  0  0  0  0  0  0  0  0  0
    4.2910    7.3305    5.1424 H   0  0  0  0  0  0  0  0  0  0  0  0
    3.9646    8.5323    3.9003 H   0  0  0  0  0  0  0  0  0  0  0  0
    2.3653    6.8449    3.5143 H   0  0  0  0  0  0  0  0  0  0  0  0
    3.4939    5.5378    3.8417 H   0  0  0  0  0  0  0  0  0  0  0  0
    2.7335    6.3578    1.3203 H   0  0  0  0  0  0  0  0  0  0  0  0
    4.6798    7.4424    0.2796 H   0  0  0  0  0  0  0  0  0  0  0  0
    3.8864    8.4524    1.4813 H   0  0  0  0  0  0  0  0  0  0  0  0
    6.5784    7.0663    1.6158 H   0  0  0  0  0  0  0  0  0  0  0  0
    6.1839    8.7557    1.8980 H   0  0  0  0  0  0  0  0  0  0  0  0
    3.7088    4.3234    1.6635 H   0  0  0  0  0  0  0  0  0  0  0  0
    4.7475    5.0976    0.6391 H   0  0  0  0  0  0  0  0  0  0  0  0
  1  6  1  0  0  0  0
  1  3  1  0  0  0  0
  1  4  1  0  0  0  0
  2  1  1  0  0  0  0
  5  1  1  0  0  0  0
  6 15  1  0  0  0  0
  7  6  1  0  0  0  0
  7  8  1  0  0  0  0
  7 16  1  1  0  0  0
  8 17  1  0  0  0  0
  9 19  1  0  0  0  0
  9 20  1  0  0  0  0
  9  8  1  0  0  0  0
 10 21  1  6  0  0  0
 10  9  1  0  0  0  0
 11 23  1  0  0  0  0
 11 10  1  0  0  0  0
 11 12  1  0  0  0  0
 12  7  1  0  0  0  0
 13 26  1  0  0  0  0
 13 10  1  0  0  0  0
 13  1  1  0  0  0  0
 14  6  1  0  0  0  0
 18  8  1  0  0  0  0
 22 11  1  0  0  0  0
 24 12  1  0  0  0  0
 25 12  1  0  0  0  0
 27 13  1  0  0  0  0
M  END
$$$$
