CSD_code = HEKHEK | q = 0 | S = 0 | Stoichiometry = C23H29ClN3V | MND = 6
 OpenBabel04212202043D

 57 60  0  0  0  0  0  0  0  0999 V2000
    2.8817    7.9113    3.1682 V   0  0  0  0  0  0  0  0  0  0  0  0
    3.7634    8.2181    5.0253 Cl  0  0  0  0  0  0  0  0  0  0  0  0
    4.3313    7.8963    2.0073 N   0  0  0  0  0  0  0  0  0  0  0  0
    0.7760    8.0259    4.2296 N   0  0  0  0  0  4  0  0  0  0  0  0
    4.7869    5.4190    3.5450 N   0  0  0  0  0  0  0  0  0  0  0  0
    4.2172    7.6309    0.6902 C   0  0  0  0  0  3  0  0  0  0  0  0
    5.2738    7.6234   -0.1941 C   0  0  0  0  0  0  0  0  0  0  0  0
    6.5550    7.9111    0.2590 C   0  0  0  0  0  0  0  0  0  0  0  0
    6.6871    8.1993    1.6117 C   0  0  0  0  0  0  0  0  0  0  0  0
    5.5791    8.1825    2.4303 C   0  0  0  0  0  0  0  0  0  0  0  0
    2.1729    9.6813    2.5337 C   0  0  0  0  0  0  0  0  0  0  0  0
    2.5280   10.4087    1.4050 C   0  0  0  0  0  0  0  0  0  0  0  0
    1.9739   11.6539    1.1416 C   0  0  0  0  0  0  0  0  0  0  0  0
    1.0475   12.1993    2.0125 C   0  0  0  0  0  0  0  0  0  0  0  0
    0.6725   11.4916    3.1414 C   0  0  0  0  0  0  0  0  0  0  0  0
    1.2313   10.2477    3.3978 C   0  0  0  0  0  0  0  0  0  0  0  0
    0.8333    9.4433    4.6065 C   0  0  0  0  0  0  0  0  0  0  0  0
   -0.4337    7.8211    3.4399 C   0  0  0  0  0  0  0  0  0  0  0  0
    0.6946    7.1751    5.4111 C   0  0  0  0  0  0  0  0  0  0  0  0
    2.1764    6.2297    2.4146 C   0  0  0  0  0  0  0  0  0  0  0  0
    1.2821    6.3187    1.3526 C   0  0  0  0  0  0  0  0  0  0  0  0
    0.6870    5.1931    0.8006 C   0  0  0  0  0  0  0  0  0  0  0  0
    0.9843    3.9419    1.3104 C   0  0  0  0  0  0  0  0  0  0  0  0
    1.8920    3.8281    2.3503 C   0  0  0  0  0  0  0  0  0  0  0  0
    2.4869    4.9575    2.8972 C   0  0  0  0  0  0  0  0  0  0  0  0
    3.5260    4.8215    3.9801 C   0  0  0  0  0  0  0  0  0  0  0  0
    5.7522    5.4224    4.6263 C   0  0  0  0  0  0  0  0  0  0  0  0
    5.3246    4.7093    2.3990 C   0  0  0  0  0  0  0  0  0  0  0  0
    3.2226    7.4000    0.3309 H   0  0  0  0  0  0  0  0  0  0  0  0
    5.0932    7.3934   -1.2335 H   0  0  0  0  0  0  0  0  0  0  0  0
    7.4028    7.9147   -0.4068 H   0  0  0  0  0  0  0  0  0  0  0  0
    7.6519    8.4397    2.0330 H   0  0  0  0  0  0  0  0  0  0  0  0
    5.6957    8.4096    3.4809 H   0  0  0  0  0  0  0  0  0  0  0  0
    3.2570   10.0132    0.7043 H   0  0  0  0  0  0  0  0  0  0  0  0
    2.2704   12.2000    0.2564 H   0  0  0  0  0  0  0  0  0  0  0  0
    0.6154   13.1692    1.8122 H   0  0  0  0  0  0  0  0  0  0  0  0
   -0.0570   11.9074    3.8247 H   0  0  0  0  0  0  0  0  0  0  0  0
    1.0290    7.2943    0.9391 H   0  0  0  0  0  0  0  0  0  0  0  0
   -0.0074    5.2943   -0.0228 H   0  0  0  0  0  0  0  0  0  0  0  0
    0.5226    3.0589    0.8928 H   0  0  0  0  0  0  0  0  0  0  0  0
    2.1433    2.8485    2.7365 H   0  0  0  0  0  0  0  0  0  0  0  0
   -0.1354    9.7834    5.0111 H   0  0  0  0  0  0  0  0  0  0  0  0
    1.5909    9.5668    5.3886 H   0  0  0  0  0  0  0  0  0  0  0  0
   -0.4208    8.4736    2.5667 H   0  0  0  0  0  0  0  0  0  0  0  0
   -1.3314    8.0533    4.0331 H   0  0  0  0  0  0  0  0  0  0  0  0
   -0.4944    6.7848    3.1090 H   0  0  0  0  0  0  0  0  0  0  0  0
    1.5698    7.3277    6.0413 H   0  0  0  0  0  0  0  0  0  0  0  0
    0.6617    6.1302    5.0986 H   0  0  0  0  0  0  0  0  0  0  0  0
   -0.2089    7.3961    5.9995 H   0  0  0  0  0  0  0  0  0  0  0  0
    3.6612    3.7552    4.2453 H   0  0  0  0  0  0  0  0  0  0  0  0
    3.2023    5.3643    4.8752 H   0  0  0  0  0  0  0  0  0  0  0  0
    5.3647    6.0101    5.4570 H   0  0  0  0  0  0  0  0  0  0  0  0
    6.6780    5.8794    4.2780 H   0  0  0  0  0  0  0  0  0  0  0  0
    5.9798    4.4057    4.9886 H   0  0  0  0  0  0  0  0  0  0  0  0
    4.5979    4.7239    1.5878 H   0  0  0  0  0  0  0  0  0  0  0  0
    5.5671    3.6600    2.6370 H   0  0  0  0  0  0  0  0  0  0  0  0
    6.2329    5.2072    2.0604 H   0  0  0  0  0  0  0  0  0  0  0  0
  1  4  1  0  0  0  0
  1  2  1  0  0  0  0
  3 10  1  0  0  0  0
  3  1  1  0  0  0  0
  4 17  1  0  0  0  0
  4 19  1  0  0  0  0
  5 26  1  0  0  0  0
  5 27  1  0  0  0  0
  6  3  1  0  0  0  0
  7  8  2  0  0  0  0
  7  6  1  0  0  0  0
  8  9  1  0  0  0  0
  9 32  1  0  0  0  0
  9 10  2  0  0  0  0
 10 33  1  0  0  0  0
 11  1  1  0  0  0  0
 11 16  1  0  0  0  0
 12 11  2  0  0  0  0
 13 12  1  0  0  0  0
 13 14  2  0  0  0  0
 14 15  1  0  0  0  0
 15 16  2  0  0  0  0
 15 37  1  0  0  0  0
 16 17  1  0  0  0  0
 17 42  1  0  0  0  0
 17 43  1  0  0  0  0
 18 45  1  0  0  0  0
 18  4  1  0  0  0  0
 19 49  1  0  0  0  0
 19 47  1  0  0  0  0
 20 25  1  0  0  0  0
 20  1  1  0  0  0  0
 21 20  2  0  0  0  0
 22 23  2  0  0  0  0
 22 21  1  0  0  0  0
 23 24  1  0  0  0  0
 24 41  1  0  0  0  0
 24 25  2  0  0  0  0
 25 26  1  0  0  0  0
 26 50  1  0  0  0  0
 26 51  1  0  0  0  0
 27 54  1  0  0  0  0
 27 52  1  0  0  0  0
 28 56  1  0  0  0  0
 28  5  1  0  0  0  0
 29  6  1  0  0  0  0
 30  7  1  0  0  0  0
 31  8  1  0  0  0  0
 34 12  1  0  0  0  0
 35 13  1  0  0  0  0
 36 14  1  0  0  0  0
 38 21  1  0  0  0  0
 39 22  1  0  0  0  0
 40 23  1  0  0  0  0
 44 18  1  0  0  0  0
 46 18  1  0  0  0  0
 48 19  1  0  0  0  0
 53 27  1  0  0  0  0
 55 28  1  0  0  0  0
 57 28  1  0  0  0  0
M  END
$$$$
