CSD_code = HEKJAI | q = 1 | S = 0 | Stoichiometry = C10H19ClN7O5Pt(1+) | MND = 4
 OpenBabel04212202043D

 43 45  0  0  1  0  0  0  0  0999 V2000
    6.1894   13.1573    6.7687 Pt  0  0  0  0  0  0  0  0  0  0  0  0
    6.5712   15.0167    7.9667 Cl  0  0  0  0  0  0  0  0  0  0  0  0
    6.6512   12.1201    8.5014 N   0  0  0  0  0  4  0  0  0  0  0  0
    5.8339   14.4017    5.1708 N   0  0  0  0  0  4  0  0  0  0  0  0
    5.8788   11.3969    5.6726 N   0  0  0  0  0  0  0  0  0  0  0  0
    6.8672   11.0699    4.7846 C   0  0  0  0  0  0  0  0  0  0  0  0
    8.0160   11.8151    4.3801 C   0  0  0  0  0  0  0  0  0  0  0  0
    8.3310   12.9359    4.7339 O   0  0  0  0  0  0  0  0  0  0  0  0
    8.7711   11.0841    3.4613 N   0  0  0  0  0  0  0  0  0  0  0  0
    8.4486    9.8353    2.9871 C   0  0  0  0  0  0  0  0  0  0  0  0
    9.2739    9.2755    2.0974 N   0  0  0  0  0  0  0  0  0  0  0  0
    7.3737    9.1769    3.3497 N   0  0  0  0  0  0  0  0  0  0  0  0
    6.6086    9.8131    4.2482 C   0  0  0  0  0  0  0  0  0  0  0  0
    5.0535   10.3780    5.6776 C   0  0  0  0  0  3  0  0  0  0  0  0
    5.4494    9.3910    4.8277 N   0  0  0  0  0  0  0  0  0  0  0  0
    4.8267    8.1109    4.5861 C   0  0  1  0  0  0  0  0  0  0  0  0
    4.9389    7.1520    5.8078 C   0  0  2  0  0  0  0  0  0  0  0  0
    6.0574    6.3399    5.7615 O   0  0  0  0  0  0  0  0  0  0  0  0
    3.6058    6.3707    5.7089 C   0  0  2  0  0  0  0  0  0  0  0  0
    3.7836    5.2279    4.9204 O   0  0  0  0  0  0  0  0  0  0  0  0
    2.6573    7.4112    5.1078 C   0  0  1  0  0  0  0  0  0  0  0  0
    1.9180    8.2119    6.1992 C   0  0  0  0  0  0  0  0  0  0  0  0
    1.1680    7.3872    7.0393 O   0  0  0  0  0  0  0  0  0  0  0  0
    3.4647    8.2690    4.2961 O   0  0  0  0  0  0  0  0  0  0  0  0
    6.7816   12.8854    9.1758 H   0  0  0  0  0  0  0  0  0  0  0  0
    7.5320   11.6074    8.4284 H   0  0  0  0  0  0  0  0  0  0  0  0
    5.9273   11.4949    8.8565 H   0  0  0  0  0  0  0  0  0  0  0  0
    5.6271   15.3255    5.5630 H   0  0  0  0  0  0  0  0  0  0  0  0
    5.1128   14.1488    4.4957 H   0  0  0  0  0  0  0  0  0  0  0  0
    6.7437   14.4559    4.7020 H   0  0  0  0  0  0  0  0  0  0  0  0
    9.6154   11.5372    3.1294 H   0  0  0  0  0  0  0  0  0  0  0  0
    9.0561    8.3506    1.7694 H   0  0  0  0  0  0  0  0  0  0  0  0
   10.1307    9.7118    1.8074 H   0  0  0  0  0  0  0  0  0  0  0  0
    4.1456   10.3256    6.2450 H   0  0  0  0  0  0  0  0  0  0  0  0
    5.3687    7.6933    3.7233 H   0  0  0  0  0  0  0  0  0  0  0  0
    4.9762    7.7457    6.7289 H   0  0  0  0  0  0  0  0  0  0  0  0
    3.2570    6.0205    6.6828 H   0  0  0  0  0  0  0  0  0  0  0  0
    1.9210    6.9377    4.4469 H   0  0  0  0  0  0  0  0  0  0  0  0
    1.3036    8.9816    5.7148 H   0  0  0  0  0  0  0  0  0  0  0  0
    2.6462    8.7032    6.8498 H   0  0  0  0  0  0  0  0  0  0  0  0
    5.7803    5.4684    5.4280 H   0  0  0  0  0  0  0  0  0  0  0  0
    3.7990    5.4647    3.9842 H   0  0  0  0  0  0  0  0  0  0  0  0
    0.4211    7.0105    6.5598 H   0  0  0  0  0  0  0  0  0  0  0  0
  1  2  1  0  0  0  0
  1  3  1  0  0  0  0
  3 27  1  0  0  0  0
  3 25  1  0  0  0  0
  4 28  1  0  0  0  0
  4  1  1  0  0  0  0
  5 14  1  0  0  0  0
  5  1  1  0  0  0  0
  6  5  1  0  0  0  0
  7  8  2  0  0  0  0
  7  6  1  0  0  0  0
  9  7  1  0  0  0  0
 10 12  2  0  0  0  0
 10  9  1  0  0  0  0
 11 10  1  0  0  0  0
 12 13  1  0  0  0  0
 13  6  2  0  0  0  0
 13 15  1  0  0  0  0
 14 34  1  0  0  0  0
 15 14  1  0  0  0  0
 16 35  1  6  0  0  0
 16 15  1  0  0  0  0
 16 17  1  0  0  0  0
 17 36  1  1  0  0  0
 18 17  1  0  0  0  0
 19 17  1  0  0  0  0
 19 37  1  1  0  0  0
 20 19  1  0  0  0  0
 21 38  1  6  0  0  0
 21 19  1  0  0  0  0
 21 22  1  0  0  0  0
 22 40  1  0  0  0  0
 22 23  1  0  0  0  0
 24 16  1  0  0  0  0
 24 21  1  0  0  0  0
 26  3  1  0  0  0  0
 29  4  1  0  0  0  0
 30  4  1  0  0  0  0
 31  9  1  0  0  0  0
 32 11  1  0  0  0  0
 33 11  1  0  0  0  0
 39 22  1  0  0  0  0
 41 18  1  0  0  0  0
 42 20  1  0  0  0  0
 43 23  1  0  0  0  0
M  END
$$$$
