CSD_code = HEMNIZ | q = 0 | S = 0 | Stoichiometry = C28H16F6I2N2Zn | MND = 4
 OpenBabel04212202043D

 55 60  0  0  0  0  0  0  0  0999 V2000
    1.0802    6.8277   18.6856 Zn  0  0  0  0  0  0  0  0  0  0  0  0
   -1.3200    6.1467   18.4080 I   0  0  0  0  0  0  0  0  0  0  0  0
    1.0557    8.5578   20.0242 N   0  0  0  0  0  0  0  0  0  0  0  0
   -1.5229    6.5827   24.3429 F   0  0  0  0  0  0  0  0  0  0  0  0
    0.2292    5.6701   25.1909 F   0  0  0  0  0  0  0  0  0  0  0  0
   -0.4874    5.0357   23.2647 F   0  0  0  0  0  0  0  0  0  0  0  0
    0.9403    9.6805   19.4060 C   0  0  0  0  0  0  0  0  0  0  0  0
    0.4193   10.9277   19.9498 C   0  0  0  0  0  0  0  0  0  0  0  0
    0.6637   12.1379   19.2715 C   0  0  0  0  0  0  0  0  0  0  0  0
    0.0642   13.3017   19.7469 C   0  0  0  0  0  0  0  0  0  0  0  0
    0.2128   14.2341   19.2259 H   0  0  0  0  0  0  0  0  0  0  0  0
   -0.7523   13.2805   20.8623 C   0  0  0  0  0  0  0  0  0  0  0  0
   -1.2084   14.1949   21.2096 H   0  0  0  0  0  0  0  0  0  0  0  0
   -1.0021   12.0859   21.5195 C   0  0  0  0  0  0  0  0  0  0  0  0
   -1.6588   12.0595   22.3746 H   0  0  0  0  0  0  0  0  0  0  0  0
   -0.4244   10.9189   21.0631 C   0  0  0  0  0  0  0  0  0  0  0  0
   -0.6616    9.9870   21.5517 H   0  0  0  0  0  0  0  0  0  0  0  0
    1.1029    8.4040   21.3993 C   0  0  0  0  0  0  0  0  0  0  0  0
    0.3780    7.3880   22.0198 C   0  0  0  0  0  0  0  0  0  0  0  0
   -0.3278    6.7923   21.4591 H   0  0  0  0  0  0  0  0  0  0  0  0
    0.5453    7.1650   23.3766 C   0  0  0  0  0  0  0  0  0  0  0  0
    1.4384    7.9182   24.1258 C   0  0  0  0  0  0  0  0  0  0  0  0
    1.5638    7.7204   25.1783 H   0  0  0  0  0  0  0  0  0  0  0  0
    2.1735    8.9105   23.4977 C   0  0  0  0  0  0  0  0  0  0  0  0
    2.8849    9.4910   24.0636 H   0  0  0  0  0  0  0  0  0  0  0  0
    2.0062    9.1625   22.1521 C   0  0  0  0  0  0  0  0  0  0  0  0
    2.5952    9.9207   21.6568 H   0  0  0  0  0  0  0  0  0  0  0  0
   -0.2963    6.1088   24.0398 C   0  0  0  0  0  0  0  0  0  0  0  0
    1.1432    8.5568   17.3481 N   0  0  0  0  0  0  0  0  0  0  0  0
    3.7305    6.5957   13.0279 F   0  0  0  0  0  0  0  0  0  0  0  0
    1.9824    5.6763   12.1789 F   0  0  0  0  0  0  0  0  0  0  0  0
    2.7018    5.0429   14.1043 F   0  0  0  0  0  0  0  0  0  0  0  0
    1.2591    9.6797   17.9656 C   0  0  0  0  0  0  0  0  0  0  0  0
    1.7790   10.9268   17.4204 C   0  0  0  0  0  0  0  0  0  0  0  0
    1.5333   12.1376   18.0971 C   0  0  0  0  0  0  0  0  0  0  0  0
    2.1313   13.3015   17.6201 C   0  0  0  0  0  0  0  0  0  0  0  0
    1.9817   14.2344   18.1399 H   0  0  0  0  0  0  0  0  0  0  0  0
    2.9475   13.2799   16.5045 C   0  0  0  0  0  0  0  0  0  0  0  0
    3.4023   14.1944   16.1558 H   0  0  0  0  0  0  0  0  0  0  0  0
    3.1985   12.0848   15.8487 C   0  0  0  0  0  0  0  0  0  0  0  0
    3.8548   12.0582   14.9932 H   0  0  0  0  0  0  0  0  0  0  0  0
    2.6223   10.9176   16.3068 C   0  0  0  0  0  0  0  0  0  0  0  0
    2.8604    9.9855   15.8192 H   0  0  0  0  0  0  0  0  0  0  0  0
    1.0969    8.4029   15.9727 C   0  0  0  0  0  0  0  0  0  0  0  0
    1.8263    7.3905   15.3518 C   0  0  0  0  0  0  0  0  0  0  0  0
    2.5347    6.7978   15.9123 H   0  0  0  0  0  0  0  0  0  0  0  0
    1.6598    7.1678   13.9948 C   0  0  0  0  0  0  0  0  0  0  0  0
    0.7634    7.9177   13.2461 C   0  0  0  0  0  0  0  0  0  0  0  0
    0.6388    7.7200   12.1936 H   0  0  0  0  0  0  0  0  0  0  0  0
    0.0240    8.9063   13.8749 C   0  0  0  0  0  0  0  0  0  0  0  0
   -0.6901    9.4840   13.3095 H   0  0  0  0  0  0  0  0  0  0  0  0
    0.1902    9.1581   15.2207 C   0  0  0  0  0  0  0  0  0  0  0  0
   -0.4021    9.9133   15.7166 H   0  0  0  0  0  0  0  0  0  0  0  0
    2.5060    6.1160   13.3306 C   0  0  0  0  0  0  0  0  0  0  0  0
    3.4571    6.0754   18.9664 I   0  0  0  0  0  0  0  0  0  0  0  0
  1 55  1  0  0  0  0
  1  3  1  0  0  0  0
  2  1  1  0  0  0  0
  3 18  1  0  0  0  0
  6 28  1  0  0  0  0
  7  8  1  0  0  0  0
  7  3  1  0  0  0  0
  8 16  1  0  0  0  0
  9 10  1  0  0  0  0
  9  8  2  0  0  0  0
 10 12  2  0  0  0  0
 11 10  1  0  0  0  0
 12 13  1  0  0  0  0
 12 14  1  0  0  0  0
 14 15  1  0  0  0  0
 16 14  2  0  0  0  0
 16 17  1  0  0  0  0
 18 19  2  0  0  0  0
 18 26  1  0  0  0  0
 19 21  1  0  0  0  0
 20 19  1  0  0  0  0
 21 28  1  0  0  0  0
 21 22  2  0  0  0  0
 22 23  1  0  0  0  0
 24 25  1  0  0  0  0
 24 22  1  0  0  0  0
 26 24  2  0  0  0  0
 27 26  1  0  0  0  0
 28  4  1  0  0  0  0
 28  5  1  0  0  0  0
 29 33  1  0  0  0  0
 29  1  1  0  0  0  0
 30 54  1  0  0  0  0
 31 54  1  0  0  0  0
 33  7  2  0  0  0  0
 34 33  1  0  0  0  0
 34 35  1  0  0  0  0
 35  9  1  0  0  0  0
 36 35  2  0  0  0  0
 36 37  1  0  0  0  0
 38 36  1  0  0  0  0
 39 38  1  0  0  0  0
 40 42  1  0  0  0  0
 40 38  2  0  0  0  0
 41 40  1  0  0  0  0
 42 34  2  0  0  0  0
 43 42  1  0  0  0  0
 44 29  1  0  0  0  0
 45 46  1  0  0  0  0
 45 44  1  0  0  0  0
 47 45  2  0  0  0  0
 48 50  2  0  0  0  0
 48 47  1  0  0  0  0
 49 48  1  0  0  0  0
 50 52  1  0  0  0  0
 51 50  1  0  0  0  0
 52 53  1  0  0  0  0
 52 44  2  0  0  0  0
 54 47  1  0  0  0  0
 54 32  1  0  0  0  0
M  END
$$$$
