CSD_code = HEQZUB | q = 0 | S = 0 | Stoichiometry = C18H31ClNiP2S2 | MND = 4
 OpenBabel04212202043D

 55 57  0  0  0  0  0  0  0  0999 V2000
    1.7301    9.1371    4.4297 C   0  0  0  0  0  0  0  0  0  0  0  0
    1.5641    8.0631    5.3222 C   0  0  0  0  0  0  0  0  0  0  0  0
    0.8793    8.1768    6.5252 C   0  0  0  0  0  0  0  0  0  0  0  0
    0.7954    7.3105    7.1632 H   0  0  0  0  0  0  0  0  0  0  0  0
    0.3221    9.3849    6.8924 C   0  0  0  0  0  0  0  0  0  0  0  0
   -0.2114    9.4788    7.8257 H   0  0  0  0  0  0  0  0  0  0  0  0
    0.4560   10.4717    6.0522 C   0  0  0  0  0  0  0  0  0  0  0  0
    0.0278   11.4281    6.3103 H   0  0  0  0  0  0  0  0  0  0  0  0
    1.1446   10.3437    4.8529 C   0  0  0  0  0  0  0  0  0  0  0  0
    3.1946    5.5931    2.1733 C   0  0  0  0  0  0  0  0  0  0  0  0
    3.8931    5.7946    1.3534 H   0  0  0  0  0  0  0  0  0  0  0  0
    3.5340    4.2691    2.8452 C   0  0  0  0  0  0  0  0  0  0  0  0
    2.8802    4.0965    3.6991 H   0  0  0  0  0  0  0  0  0  0  0  0
    4.5658    4.2485    3.1889 H   0  0  0  0  0  0  0  0  0  0  0  0
    3.3946    3.4525    2.1385 H   0  0  0  0  0  0  0  0  0  0  0  0
    1.7720    5.6044    1.6204 C   0  0  0  0  0  0  0  0  0  0  0  0
    1.6446    4.8306    0.8663 H   0  0  0  0  0  0  0  0  0  0  0  0
    1.5613    6.5714    1.1594 H   0  0  0  0  0  0  0  0  0  0  0  0
    1.0500    5.4337    2.4189 H   0  0  0  0  0  0  0  0  0  0  0  0
    5.0891    7.0132    3.9799 C   0  0  0  0  0  0  0  0  0  0  0  0
    5.2017    6.1301    4.6213 H   0  0  0  0  0  0  0  0  0  0  0  0
    6.1144    6.9856    2.8533 C   0  0  0  0  0  0  0  0  0  0  0  0
    5.9318    7.7998    2.1543 H   0  0  0  0  0  0  0  0  0  0  0  0
    6.0779    6.0469    2.3050 H   0  0  0  0  0  0  0  0  0  0  0  0
    7.1167    7.1015    3.2629 H   0  0  0  0  0  0  0  0  0  0  0  0
    5.2271    8.2810    4.8218 C   0  0  0  0  0  0  0  0  0  0  0  0
    6.2473    8.4057    5.1791 H   0  0  0  0  0  0  0  0  0  0  0  0
    4.5611    8.2513    5.6842 H   0  0  0  0  0  0  0  0  0  0  0  0
    4.9623    9.1565    4.2151 H   0  0  0  0  0  0  0  0  0  0  0  0
    3.2013   12.1587    1.5121 C   0  0  0  0  0  0  0  0  0  0  0  0
    3.5218   11.7753    0.5368 H   0  0  0  0  0  0  0  0  0  0  0  0
    4.4076   12.1925    2.4464 C   0  0  0  0  0  0  0  0  0  0  0  0
    5.1799   12.8525    2.0567 H   0  0  0  0  0  0  0  0  0  0  0  0
    4.8294   11.1903    2.5440 H   0  0  0  0  0  0  0  0  0  0  0  0
    4.1152   12.5456    3.4352 H   0  0  0  0  0  0  0  0  0  0  0  0
    2.5628   13.5328    1.3571 C   0  0  0  0  0  0  0  0  0  0  0  0
    2.1911   13.8899    2.3166 H   0  0  0  0  0  0  0  0  0  0  0  0
    1.7356   13.5115    0.6509 H   0  0  0  0  0  0  0  0  0  0  0  0
    3.3034   14.2428    0.9924 H   0  0  0  0  0  0  0  0  0  0  0  0
    0.5669   10.8616    1.0218 C   0  0  0  0  0  0  0  0  0  0  0  0
    0.0331   11.8161    1.1130 H   0  0  0  0  0  0  0  0  0  0  0  0
    1.0013   10.6316   -0.4203 C   0  0  0  0  0  0  0  0  0  0  0  0
    1.6293    9.7453   -0.4910 H   0  0  0  0  0  0  0  0  0  0  0  0
    1.5600   11.4808   -0.8077 H   0  0  0  0  0  0  0  0  0  0  0  0
    0.1256   10.4844   -1.0507 H   0  0  0  0  0  0  0  0  0  0  0  0
   -0.3252    9.7247    1.5185 C   0  0  0  0  0  0  0  0  0  0  0  0
   -1.1650    9.5623    0.8456 H   0  0  0  0  0  0  0  0  0  0  0  0
   -0.7166    9.9417    2.5125 H   0  0  0  0  0  0  0  0  0  0  0  0
    0.2584    8.7967    1.5754 H   0  0  0  0  0  0  0  0  0  0  0  0
    3.7245    8.7833    0.9288 Cl  0  0  0  0  0  0  0  0  0  0  0  0
    2.6836    8.9690    2.7619 Ni  0  0  0  0  0  0  0  0  0  0  0  0
    3.3443    7.0349    3.3274 P   0  0  0  0  0  4  0  0  0  0  0  0
    2.0219   10.8985    2.1853 P   0  0  0  0  0  4  0  0  0  0  0  0
    2.2330    6.4402    4.9883 S   0  0  0  0  0  0  0  0  0  0  0  0
    1.2276   11.8341    3.8709 S   0  0  0  0  0  0  0  0  0  0  0  0
  1  9  2  0  0  0  0
  1  2  1  0  0  0  0
  2  3  2  0  0  0  0
  3  5  1  0  0  0  0
  3  4  1  0  0  0  0
  5  6  1  0  0  0  0
  7  8  1  0  0  0  0
  7  5  2  0  0  0  0
  9  7  1  0  0  0  0
 10 12  1  0  0  0  0
 10 52  1  0  0  0  0
 11 10  1  0  0  0  0
 12 14  1  0  0  0  0
 12 13  1  0  0  0  0
 15 12  1  0  0  0  0
 16 10  1  0  0  0  0
 16 19  1  0  0  0  0
 17 16  1  0  0  0  0
 18 16  1  0  0  0  0
 20 21  1  0  0  0  0
 20 26  1  0  0  0  0
 22 25  1  0  0  0  0
 22 20  1  0  0  0  0
 23 22  1  0  0  0  0
 24 22  1  0  0  0  0
 26 27  1  0  0  0  0
 26 28  1  0  0  0  0
 29 26  1  0  0  0  0
 30 53  1  0  0  0  0
 30 32  1  0  0  0  0
 31 30  1  0  0  0  0
 32 34  1  0  0  0  0
 32 35  1  0  0  0  0
 33 32  1  0  0  0  0
 36 30  1  0  0  0  0
 36 37  1  0  0  0  0
 38 36  1  0  0  0  0
 39 36  1  0  0  0  0
 40 41  1  0  0  0  0
 40 46  1  0  0  0  0
 40 53  1  0  0  0  0
 42 40  1  0  0  0  0
 43 42  1  0  0  0  0
 44 42  1  0  0  0  0
 45 42  1  0  0  0  0
 46 49  1  0  0  0  0
 46 48  1  0  0  0  0
 47 46  1  0  0  0  0
 50 51  1  0  0  0  0
 51 52  1  0  0  0  0
 51  1  1  0  0  0  0
 52 20  1  0  0  0  0
 52 54  1  0  0  0  0
 53 51  1  0  0  0  0
 53 55  1  0  0  0  0
 54  2  1  0  0  0  0
 55  9  1  0  0  0  0
M  END
$$$$
