CSD_code = HERBOV | q = 0 | S = 0 | Stoichiometry = C21H31Cl2N3Pt | MND = 4
 OpenBabel04212202043D

 58 59  0  0  0  0  0  0  0  0999 V2000
    5.3308    1.1429    9.8449 Pt  0  0  0  0  0  0  0  0  0  0  0  0
    5.8828   -1.1051   10.0814 Cl  0  0  0  0  0  0  0  0  0  0  0  0
    4.7970    3.4048    9.6638 Cl  0  0  0  0  0  0  0  0  0  0  0  0
    3.7847    0.5962    8.7589 N   0  0  0  0  0  0  0  0  0  0  0  0
    3.9341    0.4741    7.4415 C   0  0  0  0  0  3  0  0  0  0  0  0
    2.9735   -0.0983    6.6345 C   0  0  0  0  0  0  0  0  0  0  0  0
    1.8042   -0.5654    7.2268 C   0  0  0  0  0  0  0  0  0  0  0  0
    1.6430   -0.4261    8.5869 C   0  0  0  0  0  0  0  0  0  0  0  0
    2.6558    0.1646    9.3537 C   0  0  0  0  0  0  0  0  0  0  0  0
    2.5535    0.4094   10.7714 C   0  0  0  0  0  0  0  0  0  0  0  0
    1.9931   -0.4353   11.6759 C   0  0  0  0  0  0  0  0  0  0  0  0
    1.7375   -0.0991   12.9789 N   0  0  0  0  0  0  0  0  0  0  0  0
    1.9617   -1.1039   14.0015 C   0  0  0  0  0  0  0  0  0  0  0  0
    3.4300   -1.1896   14.4217 C   0  0  0  0  0  0  0  0  0  0  0  0
    1.8463    1.2935   13.3736 C   0  0  0  0  0  0  0  0  0  0  0  0
    1.0078    1.6259   14.6043 C   0  0  0  0  0  0  0  0  0  0  0  0
    1.6073   -1.8022   11.2582 C   0  0  0  0  0  0  0  0  0  0  0  0
    0.3037   -2.2555   11.4464 C   0  0  0  0  0  0  0  0  0  0  0  0
   -0.0633   -3.5182   11.0195 C   0  0  0  0  0  0  0  0  0  0  0  0
    0.8682   -4.3429   10.4096 C   0  0  0  0  0  0  0  0  0  0  0  0
    2.1685   -3.9011   10.2300 C   0  0  0  0  0  0  0  0  0  0  0  0
    2.5398   -2.6368   10.6501 C   0  0  0  0  0  0  0  0  0  0  0  0
    7.0332    1.7303   10.8916 N   0  0  0  0  0  4  0  0  0  0  0  0
    7.1304    1.2431   12.2713 C   0  0  0  0  0  0  0  0  0  0  0  0
    5.8326    1.5092   13.0177 C   0  0  0  0  0  0  0  0  0  0  0  0
    8.2647    1.4685   10.1360 C   0  0  0  0  0  0  0  0  0  0  0  0
    8.1623    2.0318    8.7262 C   0  0  0  0  0  0  0  0  0  0  0  0
    4.8606    0.8511    7.0216 H   0  0  0  0  0  0  0  0  0  0  0  0
    3.1342   -0.1776    5.5718 H   0  0  0  0  0  0  0  0  0  0  0  0
    1.0292   -1.0181    6.6270 H   0  0  0  0  0  0  0  0  0  0  0  0
    0.7391   -0.7533    9.0740 H   0  0  0  0  0  0  0  0  0  0  0  0
    2.9883    1.3506   11.0884 H   0  0  0  0  0  0  0  0  0  0  0  0
    1.3343   -0.8781   14.8650 H   0  0  0  0  0  0  0  0  0  0  0  0
    1.6506   -2.0711   13.6043 H   0  0  0  0  0  0  0  0  0  0  0  0
    4.0557   -1.3718   13.5509 H   0  0  0  0  0  0  0  0  0  0  0  0
    3.5653   -2.0081   15.1235 H   0  0  0  0  0  0  0  0  0  0  0  0
    3.7535   -0.2686   14.9004 H   0  0  0  0  0  0  0  0  0  0  0  0
    1.4736    1.8878   12.5361 H   0  0  0  0  0  0  0  0  0  0  0  0
    2.8895    1.5827   13.5568 H   0  0  0  0  0  0  0  0  0  0  0  0
   -0.0032    1.2424   14.4908 H   0  0  0  0  0  0  0  0  0  0  0  0
    0.9550    2.7062   14.7121 H   0  0  0  0  0  0  0  0  0  0  0  0
    1.4418    1.2200   15.5142 H   0  0  0  0  0  0  0  0  0  0  0  0
   -0.4204   -1.6059   11.9179 H   0  0  0  0  0  0  0  0  0  0  0  0
   -1.0784   -3.8598   11.1616 H   0  0  0  0  0  0  0  0  0  0  0  0
    0.5796   -5.3293   10.0775 H   0  0  0  0  0  0  0  0  0  0  0  0
    2.8990   -4.5430    9.7610 H   0  0  0  0  0  0  0  0  0  0  0  0
    3.5548   -2.2940   10.5151 H   0  0  0  0  0  0  0  0  0  0  0  0
    6.8933    2.7489   10.9213 H   0  0  0  0  0  0  0  0  0  0  0  0
    7.9743    1.7279   12.7827 H   0  0  0  0  0  0  0  0  0  0  0  0
    7.3176    0.1658   12.2357 H   0  0  0  0  0  0  0  0  0  0  0  0
    5.0250    0.9704   12.5193 H   0  0  0  0  0  0  0  0  0  0  0  0
    5.6020    2.5734   13.0243 H   0  0  0  0  0  0  0  0  0  0  0  0
    5.9102    1.1578   14.0434 H   0  0  0  0  0  0  0  0  0  0  0  0
    8.4081    0.3844   10.0933 H   0  0  0  0  0  0  0  0  0  0  0  0
    9.1245    1.9119   10.6585 H   0  0  0  0  0  0  0  0  0  0  0  0
    7.3180    1.5707    8.2081 H   0  0  0  0  0  0  0  0  0  0  0  0
    9.0697    1.8169    8.1681 H   0  0  0  0  0  0  0  0  0  0  0  0
    8.0092    3.1090    8.7491 H   0  0  0  0  0  0  0  0  0  0  0  0
  1  2  1  0  0  0  0
  1 23  1  0  0  0  0
  3  1  1  0  0  0  0
  4  9  1  0  0  0  0
  4  1  1  0  0  0  0
  5  4  1  0  0  0  0
  6  7  2  0  0  0  0
  6  5  1  0  0  0  0
  7  8  1  0  0  0  0
  8 31  1  0  0  0  0
  8  9  2  0  0  0  0
  9 10  1  0  0  0  0
 10 32  1  0  0  0  0
 10 11  2  0  0  0  0
 11 12  1  0  0  0  0
 12 15  1  0  0  0  0
 12 13  1  0  0  0  0
 13 14  1  0  0  0  0
 13 33  1  0  0  0  0
 14 37  1  0  0  0  0
 14 36  1  0  0  0  0
 15 39  1  0  0  0  0
 15 16  1  0  0  0  0
 16 41  1  0  0  0  0
 16 42  1  0  0  0  0
 17 18  1  0  0  0  0
 17 11  1  0  0  0  0
 18 43  1  0  0  0  0
 19 44  1  0  0  0  0
 19 18  2  0  0  0  0
 20 19  1  0  0  0  0
 21 20  2  0  0  0  0
 21 22  1  0  0  0  0
 22 17  2  0  0  0  0
 23 48  1  0  0  0  0
 23 24  1  0  0  0  0
 24 49  1  0  0  0  0
 24 25  1  0  0  0  0
 25 52  1  0  0  0  0
 25 53  1  0  0  0  0
 26 55  1  0  0  0  0
 26 23  1  0  0  0  0
 27 58  1  0  0  0  0
 27 26  1  0  0  0  0
 28  5  1  0  0  0  0
 29  6  1  0  0  0  0
 30  7  1  0  0  0  0
 34 13  1  0  0  0  0
 35 14  1  0  0  0  0
 38 15  1  0  0  0  0
 40 16  1  0  0  0  0
 45 20  1  0  0  0  0
 46 21  1  0  0  0  0
 47 22  1  0  0  0  0
 50 24  1  0  0  0  0
 51 25  1  0  0  0  0
 54 26  1  0  0  0  0
 56 27  1  0  0  0  0
 57 27  1  0  0  0  0
M  END
$$$$
