CSD_code = HESBIQ | q = 0 | S = 0 | Stoichiometry = C34H31ClP2Pt | MND = 4
 OpenBabel04212202043D

 69 75  0  0  1  0  0  0  0  0999 V2000
    3.3418    7.1674    3.6648 Pt  0  0  1  0  0  0  0  0  0  0  0  0
    4.0108    8.5220    5.3365 P   0  0  0  0  0  4  0  0  0  0  0  0
    4.3427    8.1249    7.0760 C   0  0  0  0  0  0  0  0  0  0  0  0
    5.0830    8.9530    7.9123 C   0  0  0  0  0  0  0  0  0  0  0  0
    5.2730    8.5953    9.2347 C   0  0  0  0  0  0  0  0  0  0  0  0
    4.7327    7.4158    9.7230 C   0  0  0  0  0  0  0  0  0  0  0  0
    4.0051    6.5839    8.8874 C   0  0  0  0  0  0  0  0  0  0  0  0
    3.8111    6.9354    7.5644 C   0  0  0  0  0  0  0  0  0  0  0  0
    5.4546    9.4543    4.7570 C   0  0  0  0  0  0  0  0  0  0  0  0
    5.7067   10.7955    5.0189 C   0  0  0  0  0  0  0  0  0  0  0  0
    6.8346   11.3990    4.4905 C   0  0  0  0  0  0  0  0  0  0  0  0
    7.7110   10.6734    3.7004 C   0  0  0  0  0  0  0  0  0  0  0  0
    7.4595    9.3379    3.4281 C   0  0  0  0  0  0  0  0  0  0  0  0
    6.3338    8.7322    3.9527 C   0  0  0  0  0  0  0  0  0  0  0  0
    2.6151    9.7408    5.3572 C   0  0  2  0  0  0  0  0  0  0  0  0
    1.4152    9.0570    6.0167 C   0  0  0  0  0  0  0  0  0  0  0  0
    2.3338    9.9817    3.8959 C   0  0  0  0  0  0  0  0  0  0  0  0
    2.5686    8.9304    3.0048 C   0  0  0  0  0  0  0  0  0  0  0  0
    2.2628    9.1096    1.6525 C   0  0  0  0  0  0  0  0  0  0  0  0
    1.7270   10.3096    1.2086 C   0  0  0  0  0  0  0  0  0  0  0  0
    1.5053   11.3451    2.0997 C   0  0  0  0  0  0  0  0  0  0  0  0
    1.8120   11.1832    3.4396 C   0  0  0  0  0  0  0  0  0  0  0  0
    2.5903    7.9856    0.7025 C   0  0  1  0  0  0  0  0  0  0  0  0
    4.0572    8.0744    0.2760 C   0  0  0  0  0  0  0  0  0  0  0  0
    2.3953    6.4649    1.7447 P   0  0  0  0  0  4  0  0  0  0  0  0
    0.6097    6.3006    2.0137 C   0  0  0  0  0  0  0  0  0  0  0  0
    0.2443    5.8505    3.2805 C   0  0  0  0  0  0  0  0  0  0  0  0
   -1.0890    5.7079    3.6140 C   0  0  0  0  0  0  0  0  0  0  0  0
   -2.0672    6.0191    2.6829 C   0  0  0  0  0  0  0  0  0  0  0  0
   -1.7098    6.4761    1.4249 C   0  0  0  0  0  0  0  0  0  0  0  0
   -0.3755    6.6195    1.0867 C   0  0  0  0  0  0  0  0  0  0  0  0
    2.8747    5.0710    0.6864 C   0  0  0  0  0  0  0  0  0  0  0  0
    4.1840    4.6154    0.8093 C   0  0  0  0  0  0  0  0  0  0  0  0
    4.6285    3.5680    0.0244 C   0  0  0  0  0  0  0  0  0  0  0  0
    3.7661    2.9694   -0.8801 C   0  0  0  0  0  0  0  0  0  0  0  0
    2.4579    3.4129   -0.9940 C   0  0  0  0  0  0  0  0  0  0  0  0
    2.0067    4.4608   -0.2119 C   0  0  0  0  0  0  0  0  0  0  0  0
    4.2347    5.1171    4.4260 Cl  0  0  0  0  0  0  0  0  0  0  0  0
    5.5160    9.8653    7.5271 H   0  0  0  0  0  0  0  0  0  0  0  0
    5.8488    9.2360    9.8870 H   0  0  0  0  0  0  0  0  0  0  0  0
    4.8886    7.1413   10.7560 H   0  0  0  0  0  0  0  0  0  0  0  0
    3.5969    5.6585    9.2659 H   0  0  0  0  0  0  0  0  0  0  0  0
    3.2703    6.2846    6.8894 H   0  0  0  0  0  0  0  0  0  0  0  0
    5.0224   11.3749    5.6223 H   0  0  0  0  0  0  0  0  0  0  0  0
    7.0295   12.4422    4.6937 H   0  0  0  0  0  0  0  0  0  0  0  0
    8.5884   11.1524    3.2914 H   0  0  0  0  0  0  0  0  0  0  0  0
    8.1390    8.7751    2.8052 H   0  0  0  0  0  0  0  0  0  0  0  0
    6.1149    7.6867    3.7505 H   0  0  0  0  0  0  0  0  0  0  0  0
    2.8594   10.6658    5.8906 H   0  0  0  0  0  0  0  0  0  0  0  0
    1.6026    8.8749    7.0745 H   0  0  0  0  0  0  0  0  0  0  0  0
    1.2315    8.1000    5.5196 H   0  0  0  0  0  0  0  0  0  0  0  0
    0.5226    9.6722    5.9154 H   0  0  0  0  0  0  0  0  0  0  0  0
    1.4888   10.4380    0.1614 H   0  0  0  0  0  0  0  0  0  0  0  0
    1.0936   12.2802    1.7492 H   0  0  0  0  0  0  0  0  0  0  0  0
    1.6381   11.9932    4.1351 H   0  0  0  0  0  0  0  0  0  0  0  0
    1.9416    7.9867   -0.1801 H   0  0  0  0  0  0  0  0  0  0  0  0
    4.3144    7.2683   -0.4104 H   0  0  0  0  0  0  0  0  0  0  0  0
    4.6926    8.0011    1.1636 H   0  0  0  0  0  0  0  0  0  0  0  0
    4.2555    9.0292   -0.2082 H   0  0  0  0  0  0  0  0  0  0  0  0
    1.0290    5.6138    3.9950 H   0  0  0  0  0  0  0  0  0  0  0  0
   -1.3689    5.3588    4.5971 H   0  0  0  0  0  0  0  0  0  0  0  0
   -3.1109    5.9111    2.9390 H   0  0  0  0  0  0  0  0  0  0  0  0
   -2.4755    6.7250    0.7042 H   0  0  0  0  0  0  0  0  0  0  0  0
   -0.1075    6.9887    0.1069 H   0  0  0  0  0  0  0  0  0  0  0  0
    4.8339    5.0747    1.5431 H   0  0  0  0  0  0  0  0  0  0  0  0
    5.6431    3.2113    0.1230 H   0  0  0  0  0  0  0  0  0  0  0  0
    4.1097    2.1476   -1.4911 H   0  0  0  0  0  0  0  0  0  0  0  0
    1.7851    2.9356   -1.6919 H   0  0  0  0  0  0  0  0  0  0  0  0
    0.9823    4.7962   -0.2899 H   0  0  0  0  0  0  0  0  0  0  0  0
  1 38  1  1  0  0  0
  1  2  1  0  0  0  0
  2 15  1  0  0  0  0
  2  3  1  0  0  0  0
  3  8  2  0  0  0  0
  3  4  1  0  0  0  0
  4  5  2  0  0  0  0
  5  6  1  0  0  0  0
  5 40  1  0  0  0  0
  6 41  1  0  0  0  0
  7 42  1  0  0  0  0
  7  6  2  0  0  0  0
  8  7  1  0  0  0  0
  9 10  1  0  0  0  0
  9  2  1  0  0  0  0
 10 44  1  0  0  0  0
 11 45  1  0  0  0  0
 11 10  2  0  0  0  0
 12 11  1  0  0  0  0
 13 12  2  0  0  0  0
 13 14  1  0  0  0  0
 14  9  2  0  0  0  0
 15 49  1  1  0  0  0
 15 16  1  0  0  0  0
 16 50  1  0  0  0  0
 17 15  1  0  0  0  0
 18  1  1  0  0  0  0
 18 17  2  0  0  0  0
 19 18  1  0  0  0  0
 20 19  2  0  0  0  0
 20 21  1  0  0  0  0
 21 22  2  0  0  0  0
 22 17  1  0  0  0  0
 22 55  1  0  0  0  0
 23 56  1  6  0  0  0
 23 19  1  0  0  0  0
 23 25  1  0  0  0  0
 24 23  1  0  0  0  0
 24 58  1  0  0  0  0
 25 26  1  0  0  0  0
 25  1  1  0  0  0  0
 26 27  1  0  0  0  0
 27 28  2  0  0  0  0
 27 60  1  0  0  0  0
 28 61  1  0  0  0  0
 29 62  1  0  0  0  0
 29 28  1  0  0  0  0
 30 29  2  0  0  0  0
 31 30  1  0  0  0  0
 31 26  2  0  0  0  0
 32 33  1  0  0  0  0
 32 25  1  0  0  0  0
 33 65  1  0  0  0  0
 34 66  1  0  0  0  0
 34 33  2  0  0  0  0
 35 34  1  0  0  0  0
 36 35  2  0  0  0  0
 36 37  1  0  0  0  0
 37 32  2  0  0  0  0
 39  4  1  0  0  0  0
 43  8  1  0  0  0  0
 46 12  1  0  0  0  0
 47 13  1  0  0  0  0
 48 14  1  0  0  0  0
 51 16  1  0  0  0  0
 52 16  1  0  0  0  0
 53 20  1  0  0  0  0
 54 21  1  0  0  0  0
 57 24  1  0  0  0  0
 59 24  1  0  0  0  0
 63 30  1  0  0  0  0
 64 31  1  0  0  0  0
 67 35  1  0  0  0  0
 68 36  1  0  0  0  0
 69 37  1  0  0  0  0
M  END
$$$$
