CSD_code = HESPUR | q = 0 | S = 0 | Stoichiometry = C28H20Cl2N4PdS2 | MND = 4
 OpenBabel04212202043D

 57 62  0  0  1  0  0  0  0  0999 V2000
    8.0303    4.9416    7.0304 Pd  0  0  0  0  0  0  0  0  0  0  0  0
    6.5411    3.3698    6.2585 Cl  0  0  0  0  0  0  0  0  0  0  0  0
    5.1652    7.8679    5.4029 S   0  0  0  0  0  0  0  0  0  0  0  0
    6.4958    6.7523    5.2822 C   0  0  1  0  0  3  0  0  0  0  0  0
    6.8247    6.2925    6.4621 N   0  0  0  0  0  0  0  0  0  0  0  0
    6.1080    6.7361    7.4722 N   0  0  0  0  0  0  0  0  0  0  0  0
    5.1864    7.5782    7.1337 C   0  0  0  0  0  0  0  0  0  0  0  0
    7.1068    6.3525    4.0334 C   0  0  0  0  0  0  0  0  0  0  0  0
    6.4316    6.5790    2.8312 C   0  0  0  0  0  0  0  0  0  0  0  0
    5.4711    7.0744    2.8479 H   0  0  0  0  0  0  0  0  0  0  0  0
    6.9730    6.1573    1.6337 C   0  0  0  0  0  0  0  0  0  0  0  0
    6.4370    6.3322    0.7130 H   0  0  0  0  0  0  0  0  0  0  0  0
    8.1961    5.5063    1.6151 C   0  0  0  0  0  0  0  0  0  0  0  0
    8.6151    5.1705    0.6785 H   0  0  0  0  0  0  0  0  0  0  0  0
    8.8827    5.2934    2.8006 C   0  0  0  0  0  0  0  0  0  0  0  0
    9.8438    4.8014    2.7855 H   0  0  0  0  0  0  0  0  0  0  0  0
    8.3542    5.7122    4.0069 C   0  0  0  0  0  0  0  0  0  0  0  0
    8.9400    5.5678    4.9265 H   0  0  0  0  0  0  0  0  0  0  0  0
    4.2787    8.2049    8.0634 C   0  0  0  0  0  0  0  0  0  0  0  0
    3.2500    9.0378    7.6250 C   0  0  0  0  0  0  0  0  0  0  0  0
    3.1250    9.2214    6.5673 H   0  0  0  0  0  0  0  0  0  0  0  0
    2.3961    9.6207    8.5409 C   0  0  0  0  0  0  0  0  0  0  0  0
    1.6002   10.2644    8.1977 H   0  0  0  0  0  0  0  0  0  0  0  0
    2.5595    9.3803    9.8961 C   0  0  0  0  0  0  0  0  0  0  0  0
    1.8897    9.8381   10.6085 H   0  0  0  0  0  0  0  0  0  0  0  0
    3.5829    8.5546   10.3375 C   0  0  0  0  0  0  0  0  0  0  0  0
    3.7099    8.3719   11.3940 H   0  0  0  0  0  0  0  0  0  0  0  0
    4.4416    7.9673    9.4309 C   0  0  0  0  0  0  0  0  0  0  0  0
    5.2490    7.3280    9.7512 H   0  0  0  0  0  0  0  0  0  0  0  0
    9.5197    6.5135    7.8021 Cl  0  0  0  0  0  0  0  0  0  0  0  0
   10.8957    2.0157    8.6579 S   0  0  0  0  0  0  0  0  0  0  0  0
    9.5648    3.1309    8.7785 C   0  0  2  0  0  3  0  0  0  0  0  0
    9.2360    3.5907    7.5985 N   0  0  0  0  0  0  0  0  0  0  0  0
    9.9528    3.1473    6.5885 N   0  0  0  0  0  0  0  0  0  0  0  0
   10.8746    2.3054    6.9271 C   0  0  0  0  0  0  0  0  0  0  0  0
    8.9536    3.5306   10.0272 C   0  0  0  0  0  0  0  0  0  0  0  0
    9.6286    3.3041   11.2295 C   0  0  0  0  0  0  0  0  0  0  0  0
   10.5892    2.8089   11.2128 H   0  0  0  0  0  0  0  0  0  0  0  0
    9.0871    3.7257   12.4269 C   0  0  0  0  0  0  0  0  0  0  0  0
    9.6230    3.5508   13.3476 H   0  0  0  0  0  0  0  0  0  0  0  0
    7.8638    4.3765   12.4454 C   0  0  0  0  0  0  0  0  0  0  0  0
    7.4447    4.7122   13.3819 H   0  0  0  0  0  0  0  0  0  0  0  0
    7.1774    4.5894   11.2598 C   0  0  0  0  0  0  0  0  0  0  0  0
    6.2162    5.0813   11.2748 H   0  0  0  0  0  0  0  0  0  0  0  0
    7.7062    4.1708   10.0536 C   0  0  0  0  0  0  0  0  0  0  0  0
    7.1204    4.3153    9.1339 H   0  0  0  0  0  0  0  0  0  0  0  0
   11.7825    1.6789    5.9975 C   0  0  0  0  0  0  0  0  0  0  0  0
   12.8113    0.8461    6.4359 C   0  0  0  0  0  0  0  0  0  0  0  0
   12.9361    0.6624    7.4937 H   0  0  0  0  0  0  0  0  0  0  0  0
   13.6655    0.2634    5.5201 C   0  0  0  0  0  0  0  0  0  0  0  0
   14.4613   -0.3803    5.8634 H   0  0  0  0  0  0  0  0  0  0  0  0
   13.5022    0.5039    4.1649 C   0  0  0  0  0  0  0  0  0  0  0  0
   14.1722    0.0463    3.4526 H   0  0  0  0  0  0  0  0  0  0  0  0
   12.4789    1.3296    3.7234 C   0  0  0  0  0  0  0  0  0  0  0  0
   12.3520    1.5124    2.6669 H   0  0  0  0  0  0  0  0  0  0  0  0
   11.6199    1.9166    4.6300 C   0  0  0  0  0  0  0  0  0  0  0  0
   10.8125    2.5560    4.3096 H   0  0  0  0  0  0  0  0  0  0  0  0
  1 33  1  0  0  0  0
  1 30  1  0  0  0  0
  2  1  1  0  0  0  0
  3  7  1  0  0  0  0
  4  8  1  6  0  0  0
  4  3  1  0  0  0  0
  4  5  1  0  0  0  0
  5  1  1  0  0  0  0
  5  6  1  0  0  0  0
  7  6  2  0  0  0  0
  7 19  1  0  0  0  0
  9 10  1  0  0  0  0
  9  8  2  0  0  0  0
 11  9  1  0  0  0  0
 12 11  1  0  0  0  0
 13 11  2  0  0  0  0
 13 15  1  0  0  0  0
 14 13  1  0  0  0  0
 15 17  2  0  0  0  0
 16 15  1  0  0  0  0
 17  8  1  0  0  0  0
 17 18  1  0  0  0  0
 19 28  1  0  0  0  0
 20 19  2  0  0  0  0
 20 22  1  0  0  0  0
 21 20  1  0  0  0  0
 22 24  2  0  0  0  0
 23 22  1  0  0  0  0
 24 26  1  0  0  0  0
 24 25  1  0  0  0  0
 26 27  1  0  0  0  0
 28 29  1  0  0  0  0
 28 26  2  0  0  0  0
 31 32  1  0  0  0  0
 32 36  1  1  0  0  0
 33 32  1  0  0  0  0
 34 35  2  0  0  0  0
 34 33  1  0  0  0  0
 35 31  1  0  0  0  0
 36 45  2  0  0  0  0
 36 37  1  0  0  0  0
 37 39  2  0  0  0  0
 38 37  1  0  0  0  0
 39 41  1  0  0  0  0
 39 40  1  0  0  0  0
 41 42  1  0  0  0  0
 43 44  1  0  0  0  0
 43 41  2  0  0  0  0
 45 43  1  0  0  0  0
 46 45  1  0  0  0  0
 47 48  1  0  0  0  0
 47 35  1  0  0  0  0
 48 49  1  0  0  0  0
 50 51  1  0  0  0  0
 50 48  2  0  0  0  0
 52 50  1  0  0  0  0
 53 52  1  0  0  0  0
 54 52  2  0  0  0  0
 54 56  1  0  0  0  0
 55 54  1  0  0  0  0
 56 47  2  0  0  0  0
 57 56  1  0  0  0  0
M  END
$$$$
