CSD_code = HESYOW | q = 0 | S = 0 | Stoichiometry = C26H25BrN4Pd | MND = 4
 OpenBabel04212202043D

 57 63  0  0  1  0  0  0  0  0999 V2000
    1.4731   10.0145    6.7325 Pd  0  0  1  0  0  0  0  0  0  0  0  0
    1.0830   11.3398    8.6821 Br  0  0  0  0  0  0  0  0  0  0  0  0
    3.0520   11.0445    5.8708 N   0  0  0  0  0  0  0  0  0  0  0  0
    4.4997   11.2144    4.1861 N   0  0  0  0  0  0  0  0  0  0  0  0
    0.0161    8.5565    6.9556 N   0  0  0  0  0  0  0  0  0  0  0  0
   -0.9510    6.7168    6.1539 N   0  0  0  0  0  0  0  0  0  0  0  0
    1.7739    8.9530    5.1375 C   0  0  0  0  0  0  0  0  0  0  0  0
    2.7820    9.3200    4.2402 C   0  0  0  0  0  0  0  0  0  0  0  0
    2.9846    8.5583    3.0888 C   0  0  0  0  0  0  0  0  0  0  0  0
    3.7584    8.8293    2.3933 H   0  0  0  0  0  0  0  0  0  0  0  0
    2.1881    7.4469    2.8299 C   0  0  0  0  0  0  0  0  0  0  0  0
    1.1820    7.0918    3.7296 C   0  0  0  0  0  0  0  0  0  0  0  0
    0.5685    6.2333    3.5120 H   0  0  0  0  0  0  0  0  0  0  0  0
    0.9693    7.8344    4.8875 C   0  0  0  0  0  0  0  0  0  0  0  0
    2.3727    6.5952    1.5791 C   0  0  0  0  0  0  0  0  0  0  0  0
    3.5283    7.0749    0.6955 C   0  0  0  0  0  0  0  0  0  0  0  0
    3.3555    8.0866    0.3350 H   0  0  0  0  0  0  0  0  0  0  0  0
    3.6124    6.4236   -0.1721 H   0  0  0  0  0  0  0  0  0  0  0  0
    4.4743    7.0387    1.2316 H   0  0  0  0  0  0  0  0  0  0  0  0
    1.0851    6.6476    0.7435 C   0  0  0  0  0  0  0  0  0  0  0  0
    0.2349    6.2567    1.2959 H   0  0  0  0  0  0  0  0  0  0  0  0
    1.2013    6.0555   -0.1618 H   0  0  0  0  0  0  0  0  0  0  0  0
    0.8623    7.6740    0.4583 H   0  0  0  0  0  0  0  0  0  0  0  0
    2.6680    5.1458    1.9928 C   0  0  0  0  0  0  0  0  0  0  0  0
    1.8401    4.7093    2.5456 H   0  0  0  0  0  0  0  0  0  0  0  0
    3.5556    5.1072    2.6216 H   0  0  0  0  0  0  0  0  0  0  0  0
    2.8435    4.5335    1.1108 H   0  0  0  0  0  0  0  0  0  0  0  0
    3.4652   10.5072    4.7172 C   0  0  2  0  0  3  0  0  0  0  0  0
    3.8390   12.1405    6.1091 C   0  0  0  0  0  0  0  0  0  0  0  0
    3.8476   13.0591    7.1568 C   0  0  0  0  0  0  0  0  0  0  0  0
    3.1471   12.9756    7.9719 H   0  0  0  0  0  0  0  0  0  0  0  0
    4.7813   14.0706    7.1069 C   0  0  0  0  0  0  0  0  0  0  0  0
    4.8132   14.7978    7.9033 H   0  0  0  0  0  0  0  0  0  0  0  0
    5.6899   14.1820    6.0522 C   0  0  0  0  0  0  0  0  0  0  0  0
    6.4041   14.9915    6.0544 H   0  0  0  0  0  0  0  0  0  0  0  0
    5.6967   13.2816    5.0068 C   0  0  0  0  0  0  0  0  0  0  0  0
    6.4048   13.3788    4.1974 H   0  0  0  0  0  0  0  0  0  0  0  0
    4.7615   12.2577    5.0451 C   0  0  0  0  0  0  0  0  0  0  0  0
    5.2044   10.9454    2.9643 C   0  0  0  0  0  0  0  0  0  0  0  0
    4.5250   10.9877    2.1104 H   0  0  0  0  0  0  0  0  0  0  0  0
    5.6798    9.9629    3.0022 H   0  0  0  0  0  0  0  0  0  0  0  0
    5.9764   11.7002    2.8317 H   0  0  0  0  0  0  0  0  0  0  0  0
    0.0062    7.6644    5.9588 C   0  0  0  0  0  0  0  0  0  0  0  0
   -0.9671    8.1876    7.8356 C   0  0  0  0  0  0  0  0  0  0  0  0
   -1.3907    8.7550    9.0357 C   0  0  0  0  0  0  0  0  0  0  0  0
   -0.9219    9.6453    9.4230 H   0  0  0  0  0  0  0  0  0  0  0  0
   -2.4254    8.1351    9.7009 C   0  0  0  0  0  0  0  0  0  0  0  0
   -2.7763    8.5504   10.6329 H   0  0  0  0  0  0  0  0  0  0  0  0
   -3.0349    6.9818    9.2022 C   0  0  0  0  0  0  0  0  0  0  0  0
   -3.8427    6.5296    9.7576 H   0  0  0  0  0  0  0  0  0  0  0  0
   -2.6292    6.4059    8.0159 C   0  0  0  0  0  0  0  0  0  0  0  0
   -3.1093    5.5145    7.6406 H   0  0  0  0  0  0  0  0  0  0  0  0
   -1.5877    7.0205    7.3359 C   0  0  0  0  0  0  0  0  0  0  0  0
   -1.2549    5.5978    5.3075 C   0  0  0  0  0  0  0  0  0  0  0  0
   -1.6003    5.9370    4.3283 H   0  0  0  0  0  0  0  0  0  0  0  0
   -2.0457    5.0118    5.7711 H   0  0  0  0  0  0  0  0  0  0  0  0
   -0.3765    4.9611    5.1835 H   0  0  0  0  0  0  0  0  0  0  0  0
  1  5  1  0  0  0  0
  1  2  1  6  0  0  0
  3 29  1  0  0  0  0
  3  1  1  0  0  0  0
  4 28  1  0  0  0  0
  4 38  1  0  0  0  0
  5 44  1  0  0  0  0
  6 53  1  0  0  0  0
  7  1  2  0  0  0  0
  8  7  1  0  0  0  0
  9  8  2  0  0  0  0
 10  9  1  0  0  0  0
 11  9  1  0  0  0  0
 11 12  2  0  0  0  0
 12 14  1  0  0  0  0
 13 12  1  0  0  0  0
 14  7  1  0  0  0  0
 14 43  2  0  0  0  0
 15 24  1  0  0  0  0
 15 11  1  0  0  0  0
 16 19  1  0  0  0  0
 16 15  1  0  0  0  0
 17 16  1  0  0  0  0
 18 16  1  0  0  0  0
 20 21  1  0  0  0  0
 20 15  1  0  0  0  0
 22 20  1  0  0  0  0
 23 20  1  0  0  0  0
 24 25  1  0  0  0  0
 24 26  1  0  0  0  0
 27 24  1  0  0  0  0
 28  8  1  6  0  0  0
 28  3  1  0  0  0  0
 29 30  1  0  0  0  0
 30 31  1  0  0  0  0
 32 30  2  0  0  0  0
 32 33  1  0  0  0  0
 34 35  1  0  0  0  0
 34 32  1  0  0  0  0
 36 38  1  0  0  0  0
 36 34  2  0  0  0  0
 37 36  1  0  0  0  0
 38 29  2  0  0  0  0
 39 41  1  0  0  0  0
 39  4  1  0  0  0  0
 40 39  1  0  0  0  0
 42 39  1  0  0  0  0
 43  6  1  0  0  0  0
 43  5  1  0  0  0  0
 44 45  1  0  0  0  0
 45 46  1  0  0  0  0
 45 47  2  0  0  0  0
 47 48  1  0  0  0  0
 49 47  1  0  0  0  0
 49 50  1  0  0  0  0
 51 49  2  0  0  0  0
 52 51  1  0  0  0  0
 53 44  2  0  0  0  0
 53 51  1  0  0  0  0
 54 56  1  0  0  0  0
 54  6  1  0  0  0  0
 55 54  1  0  0  0  0
 57 54  1  0  0  0  0
M  END
$$$$
