CSD_code = HEVKOJ | q = 0 | S = 0 | Stoichiometry = C21H34BClFeN6S3 | MND = 4
 OpenBabel04212202043D

 67 71  0  0  1  0  0  0  0  0999 V2000
    6.5730    1.7510    4.6929 Fe  0  0  2  0  0  0  0  0  0  0  0  0
    8.3373    1.0368    4.1877 Cl  0  0  0  0  0  0  0  0  0  0  0  0
    5.9141    3.3933    6.2329 S   0  0  0  0  0  0  0  0  0  0  0  0
    4.4605    0.8602    4.6397 S   0  0  0  0  0  0  0  0  0  0  0  0
    6.3668    3.2413    2.4970 S   0  0  0  0  0  0  0  0  0  0  0  0
    3.4372    4.0056    4.0566 B   0  0  2  0  0  0  0  0  0  0  0  0
    2.4837    4.6813    3.8162 H   0  0  0  0  0  0  0  0  0  0  0  0
    3.3084    3.5378    5.5296 N   0  0  0  0  0  0  0  0  0  0  0  0
    3.6189    2.7896    7.5777 N   0  0  0  0  0  0  0  0  0  0  0  0
    3.4183    2.8094    3.0833 N   0  0  0  0  0  0  0  0  0  0  0  0
    3.7913    0.9345    1.9911 N   0  0  0  0  0  0  0  0  0  0  0  0
    4.6975    4.8690    3.8789 N   0  0  0  0  0  0  0  0  0  0  0  0
    6.7156    5.7056    3.5894 N   0  0  0  0  0  0  0  0  0  0  0  0
    4.2375    3.2331    6.4547 C   0  0  2  0  0  3  0  0  0  0  0  0
    2.0864    3.2712    6.0786 C   0  0  0  0  0  0  0  0  0  0  0  0
    1.1836    3.4291    5.5271 H   0  0  0  0  0  0  0  0  0  0  0  0
    2.2683    2.8126    7.3359 C   0  0  0  0  0  0  0  0  0  0  0  0
    1.5391    2.5121    8.0553 H   0  0  0  0  0  0  0  0  0  0  0  0
    4.2725    2.2577    8.7793 C   0  0  0  0  0  0  0  0  0  0  0  0
    3.2164    1.8319    9.8010 C   0  0  0  0  0  0  0  0  0  0  0  0
    2.5937    1.0289    9.4143 H   0  0  0  0  0  0  0  0  0  0  0  0
    2.5896    2.6708   10.0951 H   0  0  0  0  0  0  0  0  0  0  0  0
    3.7230    1.4643   10.6896 H   0  0  0  0  0  0  0  0  0  0  0  0
    5.0995    1.0299    8.3840 C   0  0  0  0  0  0  0  0  0  0  0  0
    4.4663    0.2933    7.8936 H   0  0  0  0  0  0  0  0  0  0  0  0
    5.5433    0.5827    9.2687 H   0  0  0  0  0  0  0  0  0  0  0  0
    5.8995    1.2992    7.6962 H   0  0  0  0  0  0  0  0  0  0  0  0
    5.1479    3.3483    9.4015 C   0  0  0  0  0  0  0  0  0  0  0  0
    5.6297    2.9649   10.2963 H   0  0  0  0  0  0  0  0  0  0  0  0
    4.5410    4.2100    9.6721 H   0  0  0  0  0  0  0  0  0  0  0  0
    5.9153    3.6685    8.7036 H   0  0  0  0  0  0  0  0  0  0  0  0
    3.8982    1.5575    3.1898 C   0  0  2  0  0  3  0  0  0  0  0  0
    3.0253    2.9833    1.7867 C   0  0  0  0  0  0  0  0  0  0  0  0
    2.6250    3.9153    1.4482 H   0  0  0  0  0  0  0  0  0  0  0  0
    3.2507    1.8363    1.1109 C   0  0  0  0  0  0  0  0  0  0  0  0
    3.0661    1.6136    0.0835 H   0  0  0  0  0  0  0  0  0  0  0  0
    4.2754   -0.4108    1.6591 C   0  0  0  0  0  0  0  0  0  0  0  0
    4.0318   -0.6975    0.1766 C   0  0  0  0  0  0  0  0  0  0  0  0
    2.9734   -0.6468   -0.0697 H   0  0  0  0  0  0  0  0  0  0  0  0
    4.3781   -1.7040   -0.0430 H   0  0  0  0  0  0  0  0  0  0  0  0
    4.5881   -0.0059   -0.4511 H   0  0  0  0  0  0  0  0  0  0  0  0
    5.7816   -0.4758    1.9301 C   0  0  0  0  0  0  0  0  0  0  0  0
    5.9963   -0.4531    2.9978 H   0  0  0  0  0  0  0  0  0  0  0  0
    6.2843    0.3712    1.4667 H   0  0  0  0  0  0  0  0  0  0  0  0
    6.1935   -1.3943    1.5225 H   0  0  0  0  0  0  0  0  0  0  0  0
    3.5090   -1.4387    2.4960 C   0  0  0  0  0  0  0  0  0  0  0  0
    3.6499   -1.2531    3.5567 H   0  0  0  0  0  0  0  0  0  0  0  0
    3.8704   -2.4374    2.2685 H   0  0  0  0  0  0  0  0  0  0  0  0
    2.4449   -1.3913    2.2722 H   0  0  0  0  0  0  0  0  0  0  0  0
    5.9225    4.6227    3.3625 C   0  0  2  0  0  3  0  0  0  0  0  0
    4.7329    6.1174    4.4416 C   0  0  0  0  0  0  0  0  0  0  0  0
    3.8727    6.5328    4.9236 H   0  0  0  0  0  0  0  0  0  0  0  0
    5.9666    6.6329    4.2700 C   0  0  0  0  0  0  0  0  0  0  0  0
    6.3469    7.5808    4.5803 H   0  0  0  0  0  0  0  0  0  0  0  0
    8.1470    5.8177    3.2884 C   0  0  0  0  0  0  0  0  0  0  0  0
    8.6784    7.1676    3.7748 C   0  0  0  0  0  0  0  0  0  0  0  0
    8.5839    7.2625    4.8540 H   0  0  0  0  0  0  0  0  0  0  0  0
    8.1657    7.9948    3.2885 H   0  0  0  0  0  0  0  0  0  0  0  0
    9.7337    7.2339    3.5230 H   0  0  0  0  0  0  0  0  0  0  0  0
    8.8910    4.7010    4.0259 C   0  0  0  0  0  0  0  0  0  0  0  0
    8.6231    4.7031    5.0816 H   0  0  0  0  0  0  0  0  0  0  0  0
    9.9637    4.8432    3.9343 H   0  0  0  0  0  0  0  0  0  0  0  0
    8.6403    3.7277    3.6120 H   0  0  0  0  0  0  0  0  0  0  0  0
    8.3558    5.7218    1.7751 C   0  0  0  0  0  0  0  0  0  0  0  0
    7.8294    6.5285    1.2688 H   0  0  0  0  0  0  0  0  0  0  0  0
    7.9841    4.7729    1.4009 H   0  0  0  0  0  0  0  0  0  0  0  0
    9.4152    5.7954    1.5468 H   0  0  0  0  0  0  0  0  0  0  0  0
  1  2  1  1  0  0  0
  1  3  1  0  0  0  0
  4  1  1  0  0  0  0
  5  1  1  0  0  0  0
  6  7  1  6  0  0  0
  6  8  1  0  0  0  0
  8 15  1  0  0  0  0
  8 14  1  0  0  0  0
  9 19  1  0  0  0  0
 10 32  1  0  0  0  0
 10  6  1  0  0  0  0
 11 32  1  0  0  0  0
 12  6  1  0  0  0  0
 12 51  1  0  0  0  0
 13 53  1  0  0  0  0
 14  3  1  1  0  0  0
 14  9  1  0  0  0  0
 15 17  2  0  0  0  0
 16 15  1  0  0  0  0
 17  9  1  0  0  0  0
 17 18  1  0  0  0  0
 19 28  1  0  0  0  0
 19 20  1  0  0  0  0
 20 22  1  0  0  0  0
 20 23  1  0  0  0  0
 21 20  1  0  0  0  0
 24 19  1  0  0  0  0
 24 26  1  0  0  0  0
 25 24  1  0  0  0  0
 27 24  1  0  0  0  0
 28 30  1  0  0  0  0
 28 29  1  0  0  0  0
 31 28  1  0  0  0  0
 32  4  1  1  0  0  0
 33 10  1  0  0  0  0
 34 33  1  0  0  0  0
 35 33  2  0  0  0  0
 35 11  1  0  0  0  0
 36 35  1  0  0  0  0
 37 42  1  0  0  0  0
 37 11  1  0  0  0  0
 37 46  1  0  0  0  0
 38 37  1  0  0  0  0
 39 38  1  0  0  0  0
 40 38  1  0  0  0  0
 41 38  1  0  0  0  0
 42 43  1  0  0  0  0
 44 42  1  0  0  0  0
 45 42  1  0  0  0  0
 46 47  1  0  0  0  0
 48 46  1  0  0  0  0
 49 46  1  0  0  0  0
 50  5  1  6  0  0  0
 50 13  1  0  0  0  0
 50 12  1  0  0  0  0
 51 52  1  0  0  0  0
 53 51  2  0  0  0  0
 53 54  1  0  0  0  0
 55 13  1  0  0  0  0
 55 56  1  0  0  0  0
 55 60  1  0  0  0  0
 56 57  1  0  0  0  0
 58 56  1  0  0  0  0
 59 56  1  0  0  0  0
 60 61  1  0  0  0  0
 62 60  1  0  0  0  0
 63 60  1  0  0  0  0
 64 55  1  0  0  0  0
 65 64  1  0  0  0  0
 66 64  1  0  0  0  0
 67 64  1  0  0  0  0
M  END
$$$$
