CSD_code = HEXHOJ | q = 0 | S = 0 | Stoichiometry = C14H13BrN2OPd | MND = 4
 OpenBabel04212202043D

 32 35  0  0  1  0  0  0  0  0999 V2000
    4.3099    3.4712    2.3162 Pd  0  0  2  0  0  0  0  0  0  0  0  0
    3.8858    4.1331    0.4412 N   0  0  0  0  0  0  0  0  0  0  0  0
    2.1282    3.2683    2.7237 N   0  0  0  0  0  0  0  0  0  0  0  0
    4.8876    2.8816    4.4944 Br  0  0  0  0  0  0  0  0  0  0  0  0
    6.1380    3.3605    1.5158 C   0  0  0  0  0  0  0  0  0  0  0  0
    6.1052    3.6196    0.1244 C   0  0  0  0  0  0  0  0  0  0  0  0
    7.2579    3.4754   -0.6491 C   0  0  0  0  0  0  0  0  0  0  0  0
    7.2248    3.6619   -1.7125 H   0  0  0  0  0  0  0  0  0  0  0  0
    8.4426    3.0877   -0.0551 C   0  0  0  0  0  0  0  0  0  0  0  0
    9.3344    2.9777   -0.6544 H   0  0  0  0  0  0  0  0  0  0  0  0
    8.4839    2.8408    1.3077 C   0  0  0  0  0  0  0  0  0  0  0  0
    9.4123    2.5425    1.7726 H   0  0  0  0  0  0  0  0  0  0  0  0
    7.3405    2.9667    2.0864 C   0  0  0  0  0  0  0  0  0  0  0  0
    7.4080    2.7605    3.1462 H   0  0  0  0  0  0  0  0  0  0  0  0
    4.8376    4.0743   -0.4252 C   0  0  0  0  0  0  0  0  0  0  0  0
    4.6740    4.4701   -1.8555 C   0  0  0  0  0  0  0  0  0  0  0  0
    4.8129    3.6005   -2.4969 H   0  0  0  0  0  0  0  0  0  0  0  0
    5.4209    5.2150   -2.1245 H   0  0  0  0  0  0  0  0  0  0  0  0
    3.6805    4.8776   -2.0247 H   0  0  0  0  0  0  0  0  0  0  0  0
    1.8861    5.0808    1.1433 C   0  0  0  0  0  0  0  0  0  0  0  0
    1.1052    5.7120    0.7150 H   0  0  0  0  0  0  0  0  0  0  0  0
    2.5271    5.6816    1.8163 H   0  0  0  0  0  0  0  0  0  0  0  0
    2.6469    4.6387    0.0318 O   0  0  0  0  0  0  0  0  0  0  0  0
    1.2915    3.9246    1.9148 C   0  0  1  0  0  3  0  0  0  0  0  0
   -0.0352    3.5507    1.7620 C   0  0  0  0  0  0  0  0  0  0  0  0
   -0.6778    4.1025    1.0938 H   0  0  0  0  0  0  0  0  0  0  0  0
   -0.5129    2.4664    2.4814 C   0  0  0  0  0  0  0  0  0  0  0  0
   -1.5420    2.1558    2.3841 H   0  0  0  0  0  0  0  0  0  0  0  0
    0.3571    1.7946    3.3249 C   0  0  0  0  0  0  0  0  0  0  0  0
    0.0283    0.9493    3.9075 H   0  0  0  0  0  0  0  0  0  0  0  0
    1.6706    2.2256    3.4140 C   0  0  0  0  0  0  0  0  0  0  0  0
    2.3766    1.7350    4.0751 H   0  0  0  0  0  0  0  0  0  0  0  0
  1  3  1  0  0  0  0
  1  4  1  1  0  0  0
  2  1  1  0  0  0  0
  3 31  1  0  0  0  0
  5 13  1  0  0  0  0
  5  1  2  0  0  0  0
  6  5  1  0  0  0  0
  7  9  2  0  0  0  0
  7  6  1  0  0  0  0
  8  7  1  0  0  0  0
  9 11  1  0  0  0  0
 10  9  1  0  0  0  0
 11 12  1  0  0  0  0
 11 13  2  0  0  0  0
 13 14  1  0  0  0  0
 15  6  2  0  0  0  0
 15  2  1  0  0  0  0
 16 15  1  0  0  0  0
 17 16  1  0  0  0  0
 18 16  1  0  0  0  0
 19 16  1  0  0  0  0
 20 22  1  0  0  0  0
 20 24  1  0  0  0  0
 21 20  1  0  0  0  0
 23  2  1  0  0  0  0
 23 20  1  0  0  0  0
 24 25  1  6  0  0  0
 24  3  1  0  0  0  0
 25 27  2  0  0  0  0
 26 25  1  0  0  0  0
 27 29  1  0  0  0  0
 28 27  1  0  0  0  0
 29 31  2  0  0  0  0
 29 30  1  0  0  0  0
 31 32  1  0  0  0  0
M  END
$$$$
