CSD_code = HEXJUQ | q = 1 | S = 0 | Stoichiometry = C14H30I3N6NiP2(1+) | MND = 5
 OpenBabel04212202043D

 56 61  0  0  1  0  0  0  0  0999 V2000
    2.6964    8.6776    4.5291 Ni  0  0  0  0  0  0  0  0  0  0  0  0
    4.4856    8.0856    3.6345 P   0  0  2  0  0  4  0  0  0  0  0  0
    0.8351    9.1452    5.3471 P   0  0  1  0  0  4  0  0  0  0  0  0
    2.8741   11.0200    3.4616 I   0  0  0  0  0  0  0  0  0  0  0  0
    3.7445    8.4872    6.8777 I   0  0  0  0  0  0  0  0  0  0  0  0
    1.5615    6.6870    3.3423 I   0  0  0  0  0  0  0  0  0  0  0  0
    7.2293    8.6832    3.3685 N   0  0  2  0  0  4  0  0  0  0  0  0
    6.0678    7.7240    1.4463 N   0  0  1  0  0  0  0  0  0  0  0  0
    6.5526    6.3371    3.3321 N   0  0  1  0  0  0  0  0  0  0  0  0
   -0.5506   10.9347    7.0306 N   0  0  1  0  0  4  0  0  0  0  0  0
   -1.7401   10.0027    5.1122 N   0  0  1  0  0  0  0  0  0  0  0  0
   -1.2687    8.6010    6.9904 N   0  0  2  0  0  0  0  0  0  0  0  0
    5.9868    9.1373    4.0224 C   0  0  0  0  0  0  0  0  0  0  0  0
    5.7743   10.1686    3.7130 H   0  0  0  0  0  0  0  0  0  0  0  0
    6.1331    9.1396    5.1101 H   0  0  0  0  0  0  0  0  0  0  0  0
    4.7056    8.0789    1.7966 C   0  0  0  0  0  0  0  0  0  0  0  0
    4.0197    7.3537    1.3477 H   0  0  0  0  0  0  0  0  0  0  0  0
    4.4664    9.0671    1.3862 H   0  0  0  0  0  0  0  0  0  0  0  0
    5.2739    6.4528    4.0073 C   0  0  0  0  0  0  0  0  0  0  0  0
    5.4187    6.3441    5.0887 H   0  0  0  0  0  0  0  0  0  0  0  0
    4.6175    5.6434    3.6730 H   0  0  0  0  0  0  0  0  0  0  0  0
    7.0324    8.6701    1.8573 C   0  0  0  0  0  0  0  0  0  0  0  0
    6.7329    9.6774    1.5520 H   0  0  0  0  0  0  0  0  0  0  0  0
    8.0008    8.4238    1.4107 H   0  0  0  0  0  0  0  0  0  0  0  0
    6.4259    6.3874    1.8865 C   0  0  0  0  0  0  0  0  0  0  0  0
    5.6613    5.6807    1.5633 H   0  0  0  0  0  0  0  0  0  0  0  0
    7.3817    6.1070    1.4345 H   0  0  0  0  0  0  0  0  0  0  0  0
    7.5294    7.2492    3.7887 C   0  0  0  0  0  0  0  0  0  0  0  0
    8.5027    6.9879    3.3619 H   0  0  0  0  0  0  0  0  0  0  0  0
    7.5900    7.2283    4.8811 H   0  0  0  0  0  0  0  0  0  0  0  0
    8.3371    9.5706    3.7355 C   0  0  0  0  0  0  0  0  0  0  0  0
    8.4741    9.5651    4.8164 H   0  0  0  0  0  0  0  0  0  0  0  0
    8.1181   10.5886    3.4147 H   0  0  0  0  0  0  0  0  0  0  0  0
    9.2597    9.2405    3.2601 H   0  0  0  0  0  0  0  0  0  0  0  0
    0.7846   10.6398    6.4756 C   0  0  0  0  0  0  0  0  0  0  0  0
    1.4876   10.4712    7.3014 H   0  0  0  0  0  0  0  0  0  0  0  0
    1.1390   11.5107    5.9095 H   0  0  0  0  0  0  0  0  0  0  0  0
   -0.6035    9.6341    4.2898 C   0  0  0  0  0  0  0  0  0  0  0  0
   -0.3271   10.4777    3.6463 H   0  0  0  0  0  0  0  0  0  0  0  0
   -0.8850    8.7967    3.6437 H   0  0  0  0  0  0  0  0  0  0  0  0
   -0.0506    7.9911    6.4916 C   0  0  0  0  0  0  0  0  0  0  0  0
   -0.3037    7.0689    5.9594 H   0  0  0  0  0  0  0  0  0  0  0  0
    0.5991    7.7261    7.3341 H   0  0  0  0  0  0  0  0  0  0  0  0
   -2.2153    8.9018    5.9312 C   0  0  0  0  0  0  0  0  0  0  0  0
   -2.3567    8.0189    5.3076 H   0  0  0  0  0  0  0  0  0  0  0  0
   -3.1748    9.1779    6.3780 H   0  0  0  0  0  0  0  0  0  0  0  0
   -1.5352   11.1636    5.8900 C   0  0  0  0  0  0  0  0  0  0  0  0
   -2.4823   11.4736    6.3424 H   0  0  0  0  0  0  0  0  0  0  0  0
   -1.1422   11.9744    5.2689 H   0  0  0  0  0  0  0  0  0  0  0  0
   -1.0527    9.7277    7.8140 C   0  0  0  0  0  0  0  0  0  0  0  0
   -0.3110    9.4997    8.5856 H   0  0  0  0  0  0  0  0  0  0  0  0
   -1.9950   10.0225    8.2862 H   0  0  0  0  0  0  0  0  0  0  0  0
   -0.4797   12.1165    7.8952 C   0  0  0  0  0  0  0  0  0  0  0  0
   -1.4615   12.3420    8.3091 H   0  0  0  0  0  0  0  0  0  0  0  0
   -0.1315   12.9750    7.3216 H   0  0  0  0  0  0  0  0  0  0  0  0
    0.2165   11.9356    8.7136 H   0  0  0  0  0  0  0  0  0  0  0  0
  1  5  1  0  0  0  0
  2 19  1  0  0  0  0
  2 13  1  0  0  0  0
  2  1  1  1  0  0  0
  3  1  1  6  0  0  0
  3 35  1  0  0  0  0
  3 41  1  0  0  0  0
  4  1  1  0  0  0  0
  6  1  1  0  0  0  0
  7 31  1  1  0  0  0
  7 28  1  0  0  0  0
  7 13  1  0  0  0  0
  8 16  1  1  0  0  0
  8 22  1  0  0  0  0
  8 25  1  0  0  0  0
  9 25  1  6  0  0  0
  9 28  1  0  0  0  0
  9 19  1  0  0  0  0
 10 50  1  0  0  0  0
 10 53  1  1  0  0  0
 11 38  1  1  0  0  0
 11 47  1  0  0  0  0
 11 44  1  0  0  0  0
 12 44  1  6  0  0  0
 12 50  1  0  0  0  0
 13 15  1  0  0  0  0
 14 13  1  0  0  0  0
 16  2  1  0  0  0  0
 17 16  1  0  0  0  0
 18 16  1  0  0  0  0
 19 20  1  0  0  0  0
 21 19  1  0  0  0  0
 22  7  1  0  0  0  0
 23 22  1  0  0  0  0
 24 22  1  0  0  0  0
 26 25  1  0  0  0  0
 27 25  1  0  0  0  0
 28 30  1  0  0  0  0
 29 28  1  0  0  0  0
 31 32  1  0  0  0  0
 33 31  1  0  0  0  0
 34 31  1  0  0  0  0
 35 10  1  0  0  0  0
 35 36  1  0  0  0  0
 37 35  1  0  0  0  0
 38  3  1  0  0  0  0
 39 38  1  0  0  0  0
 40 38  1  0  0  0  0
 41 12  1  0  0  0  0
 41 43  1  0  0  0  0
 42 41  1  0  0  0  0
 44 46  1  0  0  0  0
 45 44  1  0  0  0  0
 47 48  1  0  0  0  0
 47 10  1  0  0  0  0
 49 47  1  0  0  0  0
 50 52  1  0  0  0  0
 50 51  1  0  0  0  0
 53 54  1  0  0  0  0
 53 56  1  0  0  0  0
 55 53  1  0  0  0  0
M  END
$$$$
