CSD_code = HEXXOX | q = 0 | S = 0 | Stoichiometry = C25H20Cl3NOPRe | MND = 6
 OpenBabel04212202043D

 52 55  0  0  0  0  0  0  0  0999 V2000
    9.6143    3.4648    1.4311 Re  0  0  0  0  0  0  0  0  0  0  0  0
    8.4038    2.2586   -0.0619 Cl  0  0  0  0  0  0  0  0  0  0  0  0
    8.3079    2.4780    3.1434 Cl  0  0  0  0  0  0  0  0  0  0  0  0
    8.1722    5.2459    1.3074 Cl  0  0  0  0  0  0  0  0  0  0  0  0
   10.6852    4.3074   -0.7175 P   0  0  0  0  0  4  0  0  0  0  0  0
   10.3170    5.7539    3.4098 O   0  0  0  0  0  1  0  0  0  0  0  0
   11.0173    2.4203    1.6924 N   0  0  0  0  0  2  0  0  0  0  0  0
    9.7284    5.6040   -1.5416 C   0  0  0  0  0  0  0  0  0  0  0  0
   10.2136    6.8872   -1.7639 C   0  0  0  0  0  0  0  0  0  0  0  0
    9.4018    7.8268   -2.3760 C   0  0  0  0  0  0  0  0  0  0  0  0
    8.1136    7.4944   -2.7605 C   0  0  0  0  0  0  0  0  0  0  0  0
    7.6298    6.2137   -2.5399 C   0  0  0  0  0  0  0  0  0  0  0  0
    8.4320    5.2685   -1.9317 C   0  0  0  0  0  0  0  0  0  0  0  0
   10.9172    3.0451   -2.0004 C   0  0  0  0  0  0  0  0  0  0  0  0
   10.8147    3.3731   -3.3486 C   0  0  0  0  0  0  0  0  0  0  0  0
   11.0179    2.3981   -4.3092 C   0  0  0  0  0  0  0  0  0  0  0  0
   11.3250    1.1011   -3.9326 C   0  0  0  0  0  0  0  0  0  0  0  0
   11.4330    0.7749   -2.5897 C   0  0  0  0  0  0  0  0  0  0  0  0
   11.2295    1.7424   -1.6239 C   0  0  0  0  0  0  0  0  0  0  0  0
   12.3471    4.9904   -0.4549 C   0  0  0  0  0  0  0  0  0  0  0  0
   13.4761    4.4846   -1.0876 C   0  0  0  0  0  0  0  0  0  0  0  0
   14.7236    5.0055   -0.7881 C   0  0  0  0  0  0  0  0  0  0  0  0
   14.8509    6.0271    0.1378 C   0  0  0  0  0  0  0  0  0  0  0  0
   13.7265    6.5323    0.7742 C   0  0  0  0  0  0  0  0  0  0  0  0
   12.4803    6.0108    0.4863 C   0  0  0  0  0  0  0  0  0  0  0  0
   12.1635    1.7974    1.9366 C   0  0  0  0  0  0  0  0  0  0  0  0
   12.2030    0.3909    2.0374 C   0  0  0  0  0  0  0  0  0  0  0  0
   13.3992   -0.2492    2.2737 C   0  0  0  0  0  0  0  0  0  0  0  0
   14.5734    0.4796    2.4074 C   0  0  0  0  0  0  0  0  0  0  0  0
   14.5472    1.8652    2.3109 C   0  0  0  0  0  0  0  0  0  0  0  0
   13.3626    2.5277    2.0821 C   0  0  0  0  0  0  0  0  0  0  0  0
   10.1514    4.8846    2.6909 C   0  0  0  0  0  2  0  0  0  0  0  0
   11.2181    7.1498   -1.4649 H   0  0  0  0  0  0  0  0  0  0  0  0
    9.7773    8.8246   -2.5487 H   0  0  0  0  0  0  0  0  0  0  0  0
    7.4837    8.2352   -3.2303 H   0  0  0  0  0  0  0  0  0  0  0  0
    6.6241    5.9556   -2.8360 H   0  0  0  0  0  0  0  0  0  0  0  0
    8.0630    4.2681   -1.7449 H   0  0  0  0  0  0  0  0  0  0  0  0
   10.5714    4.3842   -3.6439 H   0  0  0  0  0  0  0  0  0  0  0  0
   10.9310    2.6521   -5.3553 H   0  0  0  0  0  0  0  0  0  0  0  0
   11.4745    0.3424   -4.6862 H   0  0  0  0  0  0  0  0  0  0  0  0
   11.6672   -0.2371   -2.2950 H   0  0  0  0  0  0  0  0  0  0  0  0
   11.2896    1.4940   -0.5738 H   0  0  0  0  0  0  0  0  0  0  0  0
   13.3791    3.6868   -1.8094 H   0  0  0  0  0  0  0  0  0  0  0  0
   15.5997    4.6099   -1.2800 H   0  0  0  0  0  0  0  0  0  0  0  0
   15.8262    6.4289    0.3682 H   0  0  0  0  0  0  0  0  0  0  0  0
   13.8245    7.3262    1.4993 H   0  0  0  0  0  0  0  0  0  0  0  0
   11.5966    6.3846    0.9866 H   0  0  0  0  0  0  0  0  0  0  0  0
   11.2775   -0.1542    1.9339 H   0  0  0  0  0  0  0  0  0  0  0  0
   13.4213   -1.3255    2.3549 H   0  0  0  0  0  0  0  0  0  0  0  0
   15.5066   -0.0308    2.5901 H   0  0  0  0  0  0  0  0  0  0  0  0
   15.4611    2.4299    2.4194 H   0  0  0  0  0  0  0  0  0  0  0  0
   13.3162    3.6035    2.0073 H   0  0  0  0  0  0  0  0  0  0  0  0
  1  7  1  0  0  0  0
  1 32  1  0  0  0  0
  1  3  1  0  0  0  0
  2  1  1  0  0  0  0
  4  1  1  0  0  0  0
  5 20  1  0  0  0  0
  5  1  1  0  0  0  0
  7 26  1  0  0  0  0
  8  5  1  0  0  0  0
  9  8  1  0  0  0  0
  9 33  1  0  0  0  0
 10  9  2  0  0  0  0
 11 12  2  0  0  0  0
 11 10  1  0  0  0  0
 12 13  1  0  0  0  0
 13 37  1  0  0  0  0
 13  8  2  0  0  0  0
 14 19  1  0  0  0  0
 14  5  1  0  0  0  0
 15 14  2  0  0  0  0
 16 17  2  0  0  0  0
 16 15  1  0  0  0  0
 17 18  1  0  0  0  0
 18 41  1  0  0  0  0
 18 19  2  0  0  0  0
 19 42  1  0  0  0  0
 20 25  1  0  0  0  0
 21 22  1  0  0  0  0
 21 20  2  0  0  0  0
 22 23  2  0  0  0  0
 23 45  1  0  0  0  0
 23 24  1  0  0  0  0
 24 46  1  0  0  0  0
 25 24  2  0  0  0  0
 25 47  1  0  0  0  0
 26 27  2  0  0  0  0
 26 31  1  0  0  0  0
 27 28  1  0  0  0  0
 28 49  1  0  0  0  0
 28 29  2  0  0  0  0
 29 50  1  0  0  0  0
 30 29  1  0  0  0  0
 30 51  1  0  0  0  0
 31 30  2  0  0  0  0
 32  6  1  0  0  0  0
 34 10  1  0  0  0  0
 35 11  1  0  0  0  0
 36 12  1  0  0  0  0
 38 15  1  0  0  0  0
 39 16  1  0  0  0  0
 40 17  1  0  0  0  0
 43 21  1  0  0  0  0
 44 22  1  0  0  0  0
 48 27  1  0  0  0  0
 52 31  1  0  0  0  0
M  END
$$$$
