CSD_code = HEXXEP | q = 0 | S = 0 | Stoichiometry = C16H37ClN3O2Ta | MND = 5
 OpenBabel04212202043D

 60 61  0  0  0  0  0  0  0  0999 V2000
    0.4506    2.3632    3.9155 Ta  0  0  0  0  0  0  0  0  0  0  0  0
    0.9163    1.7072    5.6708 O   0  0  0  0  0  0  0  0  0  0  0  0
   -0.1847    1.0424    2.7043 O   0  0  0  0  0  0  0  0  0  0  0  0
    1.1724    4.2667    5.7637 N   0  0  0  0  0  4  0  0  0  0  0  0
   -1.8404    1.2205    4.7599 N   0  0  0  0  0  4  0  0  0  0  0  0
    1.9880    2.8668    3.1246 N   0  0  0  0  0  2  0  0  0  0  0  0
   -0.9955    4.0861    3.3963 Cl  0  0  0  0  0  0  0  0  0  0  0  0
    2.0121    2.0133    6.4561 C   0  0  0  0  0  0  0  0  0  0  0  0
    2.2889    3.5557    6.3804 C   0  0  0  0  0  0  0  0  0  0  0  0
    2.5089    3.9523    7.3828 H   0  0  0  0  0  0  0  0  0  0  0  0
    3.1567    3.7100    5.7396 H   0  0  0  0  0  0  0  0  0  0  0  0
    3.2431    1.2649    5.9181 C   0  0  0  0  0  0  0  0  0  0  0  0
    3.1057    0.1939    6.0467 H   0  0  0  0  0  0  0  0  0  0  0  0
    4.1489    1.5742    6.4336 H   0  0  0  0  0  0  0  0  0  0  0  0
    3.3145    1.4819    4.8539 H   0  0  0  0  0  0  0  0  0  0  0  0
    1.7580    1.5778    7.9132 C   0  0  0  0  0  0  0  0  0  0  0  0
    0.9216    2.1221    8.3451 H   0  0  0  0  0  0  0  0  0  0  0  0
    2.6431    1.7549    8.5190 H   0  0  0  0  0  0  0  0  0  0  0  0
    1.5242    0.5157    7.9359 H   0  0  0  0  0  0  0  0  0  0  0  0
    0.0880    4.4906    6.7082 C   0  0  0  0  0  0  0  0  0  0  0  0
    0.4009    5.1333    7.5449 H   0  0  0  0  0  0  0  0  0  0  0  0
   -0.2470    3.5342    7.1027 H   0  0  0  0  0  0  0  0  0  0  0  0
   -0.7449    4.9652    6.1893 H   0  0  0  0  0  0  0  0  0  0  0  0
    1.6005    5.5342    5.1885 C   0  0  0  0  0  0  0  0  0  0  0  0
    0.7454    6.0121    4.7124 H   0  0  0  0  0  0  0  0  0  0  0  0
    2.3493    5.3372    4.4251 H   0  0  0  0  0  0  0  0  0  0  0  0
    2.0136    6.2120    5.9488 H   0  0  0  0  0  0  0  0  0  0  0  0
   -1.4551    0.6269    2.3503 C   0  0  0  0  0  0  0  0  0  0  0  0
   -2.4827    0.9946    3.4693 C   0  0  0  0  0  0  0  0  0  0  0  0
   -2.9666    1.9322    3.1841 H   0  0  0  0  0  0  0  0  0  0  0  0
   -3.2565    0.2133    3.5368 H   0  0  0  0  0  0  0  0  0  0  0  0
   -1.4625   -0.8868    2.0590 C   0  0  0  0  0  0  0  0  0  0  0  0
   -0.7076   -1.1047    1.3071 H   0  0  0  0  0  0  0  0  0  0  0  0
   -2.4360   -1.1930    1.6830 H   0  0  0  0  0  0  0  0  0  0  0  0
   -1.2292   -1.4640    2.9492 H   0  0  0  0  0  0  0  0  0  0  0  0
   -1.8654    1.3668    1.0596 C   0  0  0  0  0  0  0  0  0  0  0  0
   -1.7718    2.4406    1.2138 H   0  0  0  0  0  0  0  0  0  0  0  0
   -2.8905    1.1264    0.7872 H   0  0  0  0  0  0  0  0  0  0  0  0
   -1.2011    1.0777    0.2486 H   0  0  0  0  0  0  0  0  0  0  0  0
   -2.7036    2.0076    5.6275 C   0  0  0  0  0  0  0  0  0  0  0  0
   -2.8807    2.9838    5.1761 H   0  0  0  0  0  0  0  0  0  0  0  0
   -2.2085    2.1531    6.5874 H   0  0  0  0  0  0  0  0  0  0  0  0
   -3.6710    1.5155    5.8068 H   0  0  0  0  0  0  0  0  0  0  0  0
   -1.4801   -0.0298    5.4104 C   0  0  0  0  0  0  0  0  0  0  0  0
   -2.3557   -0.6773    5.5720 H   0  0  0  0  0  0  0  0  0  0  0  0
   -1.0169    0.1903    6.3711 H   0  0  0  0  0  0  0  0  0  0  0  0
   -0.7458   -0.5554    4.8035 H   0  0  0  0  0  0  0  0  0  0  0  0
    2.9823    2.9803    2.1281 C   0  0  0  0  0  0  0  0  0  0  0  0
    4.2757    3.6237    2.6682 C   0  0  0  0  0  0  0  0  0  0  0  0
    4.0815    4.6440    2.9887 H   0  0  0  0  0  0  0  0  0  0  0  0
    5.0373    3.6406    1.8925 H   0  0  0  0  0  0  0  0  0  0  0  0
    4.6497    3.0562    3.5161 H   0  0  0  0  0  0  0  0  0  0  0  0
    2.4266    3.8447    0.9782 C   0  0  0  0  0  0  0  0  0  0  0  0
    1.5255    3.3758    0.5913 H   0  0  0  0  0  0  0  0  0  0  0  0
    3.1581    3.9473    0.1804 H   0  0  0  0  0  0  0  0  0  0  0  0
    2.1649    4.8294    1.3569 H   0  0  0  0  0  0  0  0  0  0  0  0
    3.2955    1.5678    1.5933 C   0  0  0  0  0  0  0  0  0  0  0  0
    3.8043    0.9865    2.3577 H   0  0  0  0  0  0  0  0  0  0  0  0
    3.9199    1.6178    0.7049 H   0  0  0  0  0  0  0  0  0  0  0  0
    2.3539    1.0769    1.3579 H   0  0  0  0  0  0  0  0  0  0  0  0
  1  5  1  0  0  0  0
  1  2  1  0  0  0  0
  1  4  1  0  0  0  0
  2  8  1  0  0  0  0
  3  1  1  0  0  0  0
  4  9  1  0  0  0  0
  4 20  1  0  0  0  0
  5 44  1  0  0  0  0
  5 40  1  0  0  0  0
  6  1  1  0  0  0  0
  7  1  1  0  0  0  0
  8 16  1  0  0  0  0
  9  8  1  0  0  0  0
  9 10  1  0  0  0  0
 11  9  1  0  0  0  0
 12 13  1  0  0  0  0
 12 14  1  0  0  0  0
 12  8  1  0  0  0  0
 15 12  1  0  0  0  0
 16 19  1  0  0  0  0
 16 17  1  0  0  0  0
 16 18  1  0  0  0  0
 20 22  1  0  0  0  0
 20 21  1  0  0  0  0
 23 20  1  0  0  0  0
 24  4  1  0  0  0  0
 24 27  1  0  0  0  0
 25 24  1  0  0  0  0
 26 24  1  0  0  0  0
 28  3  1  0  0  0  0
 28 29  1  0  0  0  0
 29 31  1  0  0  0  0
 29  5  1  0  0  0  0
 30 29  1  0  0  0  0
 32 28  1  0  0  0  0
 32 35  1  0  0  0  0
 33 32  1  0  0  0  0
 34 32  1  0  0  0  0
 36 37  1  0  0  0  0
 36 28  1  0  0  0  0
 38 36  1  0  0  0  0
 39 36  1  0  0  0  0
 40 43  1  0  0  0  0
 40 42  1  0  0  0  0
 41 40  1  0  0  0  0
 44 45  1  0  0  0  0
 44 46  1  0  0  0  0
 47 44  1  0  0  0  0
 48 49  1  0  0  0  0
 48  6  1  0  0  0  0
 49 50  1  0  0  0  0
 49 52  1  0  0  0  0
 51 49  1  0  0  0  0
 53 56  1  0  0  0  0
 53 48  1  0  0  0  0
 54 53  1  0  0  0  0
 55 53  1  0  0  0  0
 57 48  1  0  0  0  0
 57 58  1  0  0  0  0
 59 57  1  0  0  0  0
 60 57  1  0  0  0  0
M  END
$$$$
