CSD_code = HEYCOF | q = 0 | S = 0 | Stoichiometry = C23H25ClN3Rh | MND = 6
 OpenBabel04212202043D

 53 55  0  0  1  0  0  0  0  0999 V2000
    3.9508    2.1199   11.0860 Rh  0  0  0  0  0  0  0  0  0  0  0  0
    2.0227    2.9160   12.0888 Cl  0  0  0  0  0 15  0  0  0  0  0  0
    3.7358    0.6230   12.3824 C   0  0  0  0  0  0  0  0  0  0  0  0
    3.0204   -0.5627   12.1471 C   0  0  0  0  0  0  0  0  0  0  0  0
    2.5148   -1.0676   10.8782 C   0  0  0  0  0  0  0  0  0  0  0  0
    2.6332   -2.4103   10.5222 C   0  0  0  0  0  0  0  0  0  0  0  0
    3.1131   -3.1122   11.1888 H   0  0  0  0  0  0  0  0  0  0  0  0
    2.1789   -2.8467    9.2910 C   0  0  0  0  0  0  0  0  0  0  0  0
    2.2803   -3.8883    9.0230 H   0  0  0  0  0  0  0  0  0  0  0  0
    1.6044   -1.9540    8.4020 C   0  0  0  0  0  0  0  0  0  0  0  0
    1.2515   -2.3005    7.4419 H   0  0  0  0  0  0  0  0  0  0  0  0
    1.4907   -0.6164    8.7464 C   0  0  0  0  0  0  0  0  0  0  0  0
    1.0447    0.0830    8.0550 H   0  0  0  0  0  0  0  0  0  0  0  0
    1.9426   -0.1711    9.9740 C   0  0  0  0  0  0  0  0  0  0  0  0
    1.8416    0.8724   10.2550 H   0  0  0  0  0  0  0  0  0  0  0  0
    3.9742    0.5677   13.7241 N   0  0  0  0  0  0  0  0  0  0  0  0
    4.6797    1.4809   14.5250 C   0  0  0  0  0  0  0  0  0  0  0  0
    4.9843    1.1254   15.8369 C   0  0  0  0  0  0  0  0  0  0  0  0
    4.6673    0.1650   16.2107 H   0  0  0  0  0  0  0  0  0  0  0  0
    5.6826    2.0051   16.6412 C   0  0  0  0  0  0  0  0  0  0  0  0
    5.9160    1.7270   17.6581 H   0  0  0  0  0  0  0  0  0  0  0  0
    6.0819    3.2370   16.1486 C   0  0  0  0  0  0  0  0  0  0  0  0
    6.6274    3.9215   16.7806 H   0  0  0  0  0  0  0  0  0  0  0  0
    5.7727    3.5888   14.8450 C   0  0  0  0  0  0  0  0  0  0  0  0
    6.0722    4.5521   14.4606 H   0  0  0  0  0  0  0  0  0  0  0  0
    5.0736    2.7186   14.0302 C   0  0  0  0  0  0  0  0  0  0  0  0
    4.8057    3.0040   13.0105 H   0  0  0  0  0  0  0  0  0  0  0  0
    3.4709   -0.5147   14.2985 N   0  0  0  0  0  2  0  0  0  0  0  0
    2.8969   -1.1892   13.3399 N   0  0  0  0  0  0  0  0  0  0  0  0
    2.1871   -2.3926   13.6636 C   0  0  0  0  0  0  0  0  0  0  0  0
    2.8549   -3.2558   13.6294 H   0  0  0  0  0  0  0  0  0  0  0  0
    1.3712   -2.5350   12.9569 H   0  0  0  0  0  0  0  0  0  0  0  0
    1.7950   -2.2956   14.6750 H   0  0  0  0  0  0  0  0  0  0  0  0
    3.6988    3.3431    9.3131 C   0  0  0  0  0  3  0  0  0  0  0  0
    2.6264    3.5090    9.2122 H   0  0  0  0  0  0  0  0  0  0  0  0
    4.3690    4.0682   10.2767 C   0  0  0  0  0  3  0  0  0  0  0  0
    3.7970    4.7896   10.8612 H   0  0  0  0  0  0  0  0  0  0  0  0
    5.8611    4.3157   10.2833 C   0  0  0  0  0  0  0  0  0  0  0  0
    6.1295    4.7609   11.2448 H   0  0  0  0  0  0  0  0  0  0  0  0
    6.1067    5.0513    9.5089 H   0  0  0  0  0  0  0  0  0  0  0  0
    6.6923    3.0343   10.0753 C   0  0  0  0  0  0  0  0  0  0  0  0
    6.9247    2.9007    9.0173 H   0  0  0  0  0  0  0  0  0  0  0  0
    7.6432    3.1439   10.6015 H   0  0  0  0  0  0  0  0  0  0  0  0
    5.9877    1.7924   10.5831 C   0  0  0  0  0  3  0  0  0  0  0  0
    6.4998    1.2956   11.4077 H   0  0  0  0  0  0  0  0  0  0  0  0
    5.1684    0.9988    9.7755 C   0  0  2  0  0  0  0  0  0  0  0  0
    5.1197   -0.0664   10.0044 H   0  0  0  0  0  0  0  0  0  0  0  0
    4.8391    1.2992    8.3312 C   0  0  0  0  0  0  0  0  0  0  0  0
    4.0441    0.6155    8.0231 H   0  0  0  0  0  0  0  0  0  0  0  0
    5.7140    1.0798    7.7079 H   0  0  0  0  0  0  0  0  0  0  0  0
    4.3754    2.7495    8.0972 C   0  0  0  0  0  0  0  0  0  0  0  0
    5.2232    3.3794    7.8213 H   0  0  0  0  0  0  0  0  0  0  0  0
    3.6770    2.7644    7.2577 H   0  0  0  0  0  0  0  0  0  0  0  0
  1  3  1  0  0  0  0
  3 16  1  0  0  0  0
  4  3  2  0  0  0  0
  4 29  1  0  0  0  0
  5  4  1  0  0  0  0
  6  5  1  0  0  0  0
  6  7  1  0  0  0  0
  8  6  2  0  0  0  0
  9  8  1  0  0  0  0
 10 12  2  0  0  0  0
 10  8  1  0  0  0  0
 11 10  1  0  0  0  0
 12 14  1  0  0  0  0
 13 12  1  0  0  0  0
 14 15  1  0  0  0  0
 14  5  2  0  0  0  0
 16 28  1  0  0  0  0
 16 17  1  0  0  0  0
 17 18  1  0  0  0  0
 18 19  1  0  0  0  0
 18 20  2  0  0  0  0
 20 21  1  0  0  0  0
 22 20  1  0  0  0  0
 22 23  1  0  0  0  0
 24 22  2  0  0  0  0
 25 24  1  0  0  0  0
 26 17  2  0  0  0  0
 26 24  1  0  0  0  0
 27 26  1  0  0  0  0
 29 30  1  0  0  0  0
 29 28  1  0  0  0  0
 30 33  1  0  0  0  0
 31 30  1  0  0  0  0
 32 30  1  0  0  0  0
 34 36  1  0  0  0  0
 35 34  1  0  0  0  0
 36 38  1  0  0  0  0
 36 37  1  0  0  0  0
 38 39  1  0  0  0  0
 40 38  1  0  0  0  0
 41 38  1  0  0  0  0
 41 44  1  0  0  0  0
 41 43  1  0  0  0  0
 42 41  1  0  0  0  0
 44 45  1  0  0  0  0
 46 47  1  1  0  0  0
 46 44  1  0  0  0  0
 46  1  1  0  0  0  0
 48 46  1  0  0  0  0
 49 48  1  0  0  0  0
 50 48  1  0  0  0  0
 51 48  1  0  0  0  0
 51 34  1  0  0  0  0
 52 51  1  0  0  0  0
 53 51  1  0  0  0  0
M  END
$$$$
