CSD_code = HEYKOL | q = 0 | S = 0 | Stoichiometry = C14H23ClNiP2 | MND = 4
 OpenBabel04212202043D

 41 41  0  0  0  0  0  0  0  0999 V2000
    1.6571    2.1273    0.4498 Ni  0  0  0  0  0  0  0  0  0  0  0  0
    3.0866    1.0918    1.5593 Cl  0  0  0  0  0  0  0  0  0  0  0  0
    3.3120    2.7373   -0.7953 P   0  0  0  0  0  4  0  0  0  0  0  0
    0.0409    1.5118    1.7458 P   0  0  0  0  0  4  0  0  0  0  0  0
    4.6272    3.6542    0.0857 C   0  0  0  0  0  0  0  0  0  0  0  0
    5.4393    3.8827   -0.6036 H   0  0  0  0  0  0  0  0  0  0  0  0
    4.2155    4.5803    0.4839 H   0  0  0  0  0  0  0  0  0  0  0  0
    4.9967    3.0478    0.9099 H   0  0  0  0  0  0  0  0  0  0  0  0
    4.2486    1.3604   -1.5523 C   0  0  0  0  0  0  0  0  0  0  0  0
    5.0912    1.7575   -2.1173 H   0  0  0  0  0  0  0  0  0  0  0  0
    4.6051    0.6953   -0.7686 H   0  0  0  0  0  0  0  0  0  0  0  0
    3.5927    0.8029   -2.2191 H   0  0  0  0  0  0  0  0  0  0  0  0
    3.0429    3.8215   -2.2513 C   0  0  0  0  0  0  0  0  0  0  0  0
    3.9849    4.0233   -2.7593 H   0  0  0  0  0  0  0  0  0  0  0  0
    2.3513    3.3362   -2.9368 H   0  0  0  0  0  0  0  0  0  0  0  0
    2.5933    4.7565   -1.9238 H   0  0  0  0  0  0  0  0  0  0  0  0
    0.3911    0.3505    3.1161 C   0  0  0  0  0  0  0  0  0  0  0  0
   -0.5203    0.1524    3.6793 H   0  0  0  0  0  0  0  0  0  0  0  0
    0.7854   -0.5785    2.7082 H   0  0  0  0  0  0  0  0  0  0  0  0
    1.1474    0.7820    3.7691 H   0  0  0  0  0  0  0  0  0  0  0  0
   -1.3933    0.7011    0.9444 C   0  0  0  0  0  0  0  0  0  0  0  0
   -2.1557    0.4689    1.6866 H   0  0  0  0  0  0  0  0  0  0  0  0
   -1.7995    1.3697    0.1886 H   0  0  0  0  0  0  0  0  0  0  0  0
   -1.0661   -0.2172    0.4602 H   0  0  0  0  0  0  0  0  0  0  0  0
   -0.7773    2.8885    2.6350 C   0  0  0  0  0  0  0  0  0  0  0  0
   -1.5855    2.5058    3.2567 H   0  0  0  0  0  0  0  0  0  0  0  0
   -0.0474    3.3990    3.2608 H   0  0  0  0  0  0  0  0  0  0  0  0
   -1.1696    3.5948    1.9061 H   0  0  0  0  0  0  0  0  0  0  0  0
    0.4270    3.0536   -0.5397 C   0  0  0  0  0  0  0  0  0  0  0  0
   -0.4132    3.6550   -1.1797 C   0  0  0  0  0  0  0  0  0  0  0  0
   -1.3876    4.3542   -1.9316 C   0  0  0  0  0  0  0  0  0  0  0  0
   -1.5833    5.7231   -1.7385 C   0  0  0  0  0  0  0  0  0  0  0  0
   -2.5408    6.3975   -2.4705 C   0  0  0  0  0  0  0  0  0  0  0  0
   -3.3140    5.7221   -3.4015 C   0  0  0  0  0  0  0  0  0  0  0  0
   -3.1248    4.3633   -3.5984 C   0  0  0  0  0  0  0  0  0  0  0  0
   -2.1703    3.6799   -2.8711 C   0  0  0  0  0  0  0  0  0  0  0  0
   -0.9783    6.2460   -1.0110 H   0  0  0  0  0  0  0  0  0  0  0  0
   -2.6866    7.4574   -2.3156 H   0  0  0  0  0  0  0  0  0  0  0  0
   -4.0620    6.2532   -3.9721 H   0  0  0  0  0  0  0  0  0  0  0  0
   -3.7267    3.8346   -4.3242 H   0  0  0  0  0  0  0  0  0  0  0  0
   -2.0186    2.6203   -3.0222 H   0  0  0  0  0  0  0  0  0  0  0  0
  1  2  1  0  0  0  0
  1  4  1  0  0  0  0
  3  5  1  0  0  0  0
  3  1  1  0  0  0  0
  4 25  1  0  0  0  0
  4 17  1  0  0  0  0
  5  7  1  0  0  0  0
  5  8  1  0  0  0  0
  6  5  1  0  0  0  0
  9  3  1  0  0  0  0
  9 11  1  0  0  0  0
 10  9  1  0  0  0  0
 12  9  1  0  0  0  0
 13 16  1  0  0  0  0
 13  3  1  0  0  0  0
 14 13  1  0  0  0  0
 15 13  1  0  0  0  0
 17 18  1  0  0  0  0
 17 20  1  0  0  0  0
 19 17  1  0  0  0  0
 21 22  1  0  0  0  0
 21  4  1  0  0  0  0
 23 21  1  0  0  0  0
 24 21  1  0  0  0  0
 25 26  1  0  0  0  0
 25 27  1  0  0  0  0
 28 25  1  0  0  0  0
 29  1  1  0  0  0  0
 30 29  3  0  0  0  0
 31 32  1  0  0  0  0
 31 30  1  0  0  0  0
 32 37  1  0  0  0  0
 33 38  1  0  0  0  0
 33 32  2  0  0  0  0
 34 33  1  0  0  0  0
 35 34  2  0  0  0  0
 35 36  1  0  0  0  0
 36 31  2  0  0  0  0
 39 34  1  0  0  0  0
 40 35  1  0  0  0  0
 41 36  1  0  0  0  0
M  END
$$$$
