CSD_code = HEYZUI | q = 0 | S = 0 | Stoichiometry = C20H29ClN4PtSi2 | MND = 4
 OpenBabel04212202043D

 57 61  0  0  1  0  0  0  0  0999 V2000
    1.6676    4.9341    4.0264 C   0  0  2  0  0  3  0  0  0  0  0  0
    3.5508    4.6323    2.8899 C   0  0  0  0  0  0  0  0  0  0  0  0
    4.4300    4.9209    2.3511 H   0  0  0  0  0  0  0  0  0  0  0  0
    3.0862    3.3985    3.2168 C   0  0  0  0  0  0  0  0  0  0  0  0
    3.4889    2.4286    3.0093 H   0  0  0  0  0  0  0  0  0  0  0  0
    0.9483    2.6975    4.3714 C   0  0  0  0  0  0  0  0  0  0  0  0
   -0.1580    3.3805    4.8554 C   0  0  0  0  0  0  0  0  0  0  0  0
   -0.1581    0.6426    4.8552 C   0  0  0  0  0  0  0  0  0  0  0  0
   -0.1582   -0.4372    4.8550 H   0  0  0  0  0  0  0  0  0  0  0  0
    0.9604    1.3112    4.3696 C   0  0  0  0  0  0  0  0  0  0  0  0
    1.8076    0.7504    4.0035 H   0  0  0  0  0  0  0  0  0  0  0  0
    2.7069    6.9598    3.1325 C   0  0  0  0  0  0  0  0  0  0  0  0
    3.7429    7.2697    2.9965 H   0  0  0  0  0  0  0  0  0  0  0  0
    2.3028    7.4774    4.0019 H   0  0  0  0  0  0  0  0  0  0  0  0
    0.1295    6.1811    1.5150 C   0  0  0  0  0  0  0  0  0  0  0  0
   -0.6407    6.5413    0.8397 H   0  0  0  0  0  0  0  0  0  0  0  0
   -0.3346    6.0692    2.5038 H   0  0  0  0  0  0  0  0  0  0  0  0
    0.4282    5.1918    1.1759 H   0  0  0  0  0  0  0  0  0  0  0  0
    1.0667    9.2007    1.7477 C   0  0  0  0  0  0  0  0  0  0  0  0
    0.4692    9.5121    0.8967 H   0  0  0  0  0  0  0  0  0  0  0  0
    1.9205    9.8685    1.8149 H   0  0  0  0  0  0  0  0  0  0  0  0
    0.4693    9.3320    2.6446 H   0  0  0  0  0  0  0  0  0  0  0  0
    2.7064    7.0995    0.0546 C   0  0  0  0  0  0  0  0  0  0  0  0
    3.0607    6.0745   -0.0071 H   0  0  0  0  0  0  0  0  0  0  0  0
    3.5756    7.7498    0.0637 H   0  0  0  0  0  0  0  0  0  0  0  0
    2.1563    7.3072   -0.8569 H   0  0  0  0  0  0  0  0  0  0  0  0
    2.6717    5.5503    3.3929 N   0  0  0  0  0  0  0  0  0  0  0  0
    1.9258    3.5933    3.9056 N   0  0  0  0  0  0  0  0  0  0  0  0
   -0.1575    5.3330    4.8565 Pt  0  0  1  0  0  0  0  0  0  0  0  0
   -0.1582    7.7068    4.8553 Cl  0  0  0  0  0  0  0  0  0  0  0  0
    1.6024    7.3860    1.5894 Si  0  0  0  0  0  0  0  0  0  0  0  0
   -1.9838    4.9341    5.6841 C   0  0  0  0  0  0  0  0  0  0  0  0
   -3.8670    4.6323    6.8205 C   0  0  0  0  0  0  0  0  0  0  0  0
   -4.7463    4.9209    7.3593 H   0  0  0  0  0  0  0  0  0  0  0  0
   -3.4023    3.3985    6.4938 C   0  0  0  0  0  0  0  0  0  0  0  0
   -3.8049    2.4286    6.7016 H   0  0  0  0  0  0  0  0  0  0  0  0
   -1.2644    2.6975    5.3393 C   0  0  0  0  0  0  0  0  0  0  0  0
   -1.2766    1.3112    5.3408 C   0  0  0  0  0  0  0  0  0  0  0  0
   -2.1239    0.7504    5.7068 H   0  0  0  0  0  0  0  0  0  0  0  0
   -3.0231    6.9598    6.5778 C   0  0  0  0  0  0  0  0  0  0  0  0
   -4.0592    7.2696    6.7141 H   0  0  0  0  0  0  0  0  0  0  0  0
   -2.6193    7.4774    5.7083 H   0  0  0  0  0  0  0  0  0  0  0  0
   -0.4455    6.1814    8.1956 C   0  0  0  0  0  0  0  0  0  0  0  0
    0.3247    6.5423    8.8705 H   0  0  0  0  0  0  0  0  0  0  0  0
    0.0185    6.0690    7.2068 H   0  0  0  0  0  0  0  0  0  0  0  0
   -0.7438    5.1921    8.5354 H   0  0  0  0  0  0  0  0  0  0  0  0
   -1.3827    9.2005    7.9627 C   0  0  0  0  0  0  0  0  0  0  0  0
   -0.7853    9.5119    8.8137 H   0  0  0  0  0  0  0  0  0  0  0  0
   -2.2364    9.8686    7.8953 H   0  0  0  0  0  0  0  0  0  0  0  0
   -0.7851    9.3318    7.0659 H   0  0  0  0  0  0  0  0  0  0  0  0
   -3.0231    7.0994    9.6554 C   0  0  0  0  0  0  0  0  0  0  0  0
   -3.3777    6.0745    9.7168 H   0  0  0  0  0  0  0  0  0  0  0  0
   -3.8920    7.7499    9.6462 H   0  0  0  0  0  0  0  0  0  0  0  0
   -2.4731    7.3067   10.5671 H   0  0  0  0  0  0  0  0  0  0  0  0
   -2.9880    5.5503    6.3173 N   0  0  0  0  0  0  0  0  0  0  0  0
   -2.2419    3.5933    5.8050 N   0  0  0  0  0  0  0  0  0  0  0  0
   -1.9186    7.3859    8.1209 Si  0  0  0  0  0  0  0  0  0  0  0  0
  1 27  1  6  0  0  0
  1 29  1  0  0  0  0
  2  4  2  0  0  0  0
  2 27  1  0  0  0  0
  3  2  1  0  0  0  0
  4 28  1  0  0  0  0
  5  4  1  0  0  0  0
  6  7  1  0  0  0  0
  7 29  1  0  0  0  0
  7 37  2  0  0  0  0
  8 38  2  0  0  0  0
  9  8  1  0  0  0  0
 10  6  2  0  0  0  0
 10  8  1  0  0  0  0
 11 10  1  0  0  0  0
 12 27  1  0  0  0  0
 12 14  1  0  0  0  0
 13 12  1  0  0  0  0
 15 31  1  0  0  0  0
 15 17  1  0  0  0  0
 16 15  1  0  0  0  0
 18 15  1  0  0  0  0
 19 21  1  0  0  0  0
 19 22  1  0  0  0  0
 20 19  1  0  0  0  0
 23 25  1  0  0  0  0
 23 31  1  0  0  0  0
 24 23  1  0  0  0  0
 26 23  1  0  0  0  0
 28  1  1  0  0  0  0
 28  6  1  0  0  0  0
 29 30  1  1  0  0  0
 29 32  2  0  0  0  0
 31 19  1  0  0  0  0
 31 12  1  0  0  0  0
 32 56  1  0  0  0  0
 32 55  1  0  0  0  0
 33 34  1  0  0  0  0
 35 36  1  0  0  0  0
 35 33  2  0  0  0  0
 37 38  1  0  0  0  0
 37 56  1  0  0  0  0
 38 39  1  0  0  0  0
 40 41  1  0  0  0  0
 40 57  1  0  0  0  0
 42 40  1  0  0  0  0
 43 46  1  0  0  0  0
 43 44  1  0  0  0  0
 45 43  1  0  0  0  0
 47 57  1  0  0  0  0
 47 48  1  0  0  0  0
 49 47  1  0  0  0  0
 50 47  1  0  0  0  0
 51 52  1  0  0  0  0
 51 54  1  0  0  0  0
 53 51  1  0  0  0  0
 55 40  1  0  0  0  0
 55 33  1  0  0  0  0
 56 35  1  0  0  0  0
 57 43  1  0  0  0  0
 57 51  1  0  0  0  0
M  END
$$$$
