CSD_code = HEZBOF | q = 1 | S = 0 | Stoichiometry = C31H27Cl2N4Ru(1+) | MND = 9
 OpenBabel04212202043D

 65 72  0  0  1  0  0  0  0  0999 V2000
    1.9134    6.7206    2.4218 Ru  0  0  0  0  0  0  0  0  0  0  0  0
    2.2418    6.5154    0.1313 Cl  0  0  0  0  0  0  0  0  0  0  0  0
    8.6944   12.5900    4.2403 Cl  0  0  0  0  0  0  0  0  0  0  0  0
    7.9312    7.9732    5.8756 N   0  0  0  0  0  0  0  0  0  0  0  0
    7.6101    7.0297    6.0119 H   0  0  0  0  0  0  0  0  0  0  0  0
    6.9419   10.9875    3.2595 N   0  0  0  0  0  0  0  0  0  0  0  0
    3.8333    6.4527    2.6492 N   0  0  0  0  0  0  0  0  0  0  0  0
    2.0396    4.7400    2.3857 N   0  0  0  0  0  0  0  0  0  0  0  0
    4.6765    7.5464    2.8235 C   0  0  0  0  0  0  0  0  0  0  0  0
    5.6625    7.5638    3.7950 C   0  0  0  0  0  0  0  0  0  0  0  0
    5.7945    6.7043    4.4382 H   0  0  0  0  0  0  0  0  0  0  0  0
    6.4520    8.7052    3.9757 C   0  0  0  0  0  0  0  0  0  0  0  0
    7.4728    8.8500    4.9457 C   0  0  0  0  0  0  0  0  0  0  0  0
    8.9452    8.5631    6.5986 C   0  0  0  0  0  0  0  0  0  0  0  0
    9.7012    8.0441    7.6383 C   0  0  0  0  0  0  0  0  0  0  0  0
    9.5442    7.0382    7.9970 H   0  0  0  0  0  0  0  0  0  0  0  0
   10.6627    8.8638    8.1951 C   0  0  0  0  0  0  0  0  0  0  0  0
   11.2698    8.4925    9.0061 H   0  0  0  0  0  0  0  0  0  0  0  0
   10.8663   10.1641    7.7309 C   0  0  0  0  0  0  0  0  0  0  0  0
   11.6279   10.7713    8.1947 H   0  0  0  0  0  0  0  0  0  0  0  0
   10.1182   10.6856    6.6961 C   0  0  0  0  0  0  0  0  0  0  0  0
   10.2809   11.6898    6.3409 H   0  0  0  0  0  0  0  0  0  0  0  0
    9.1429    9.8783    6.1178 C   0  0  0  0  0  0  0  0  0  0  0  0
    8.1973   10.0557    5.0558 C   0  0  0  0  0  0  0  0  0  0  0  0
    7.8705   11.0953    4.1686 C   0  0  0  0  0  0  0  0  0  0  0  0
    6.2445    9.8462    3.1383 C   0  0  0  0  0  0  0  0  0  0  0  0
    5.2635    9.7767    2.1275 C   0  0  0  0  0  0  0  0  0  0  0  0
    5.1541   10.6308    1.4794 H   0  0  0  0  0  0  0  0  0  0  0  0
    4.4926    8.6610    1.9753 C   0  0  0  0  0  0  0  0  0  0  0  0
    3.7714    8.5791    1.1720 H   0  0  0  0  0  0  0  0  0  0  0  0
    4.2905    5.2331    2.6178 C   0  0  0  0  0  0  0  0  0  0  0  0
    5.3479    5.0070    2.6800 H   0  0  0  0  0  0  0  0  0  0  0  0
    3.2965    4.2243    2.4388 C   0  0  0  0  0  0  0  0  0  0  0  0
    3.5307    2.8527    2.2952 C   0  0  0  0  0  0  0  0  0  0  0  0
    4.5427    2.4837    2.3355 H   0  0  0  0  0  0  0  0  0  0  0  0
    2.4616    2.0093    2.0813 C   0  0  0  0  0  0  0  0  0  0  0  0
    2.6120    0.9489    1.9583 H   0  0  0  0  0  0  0  0  0  0  0  0
    1.1814    2.5547    2.0074 C   0  0  0  0  0  0  0  0  0  0  0  0
    0.3230    1.9302    1.8233 H   0  0  0  0  0  0  0  0  0  0  0  0
    1.0187    3.9183    2.1577 C   0  0  0  0  0  0  0  0  0  0  0  0
    0.0382    4.3694    2.0747 H   0  0  0  0  0  0  0  0  0  0  0  0
    0.3478    8.5163    1.8392 C   0  0  0  0  0  0  0  0  0  0  0  0
   -0.3412    7.3753    2.3147 C   0  0  0  0  0  3  0  0  0  0  0  0
   -1.1660    6.9784    1.7325 H   0  0  0  0  0  0  0  0  0  0  0  0
   -0.0721    6.8463    3.5918 C   0  0  2  0  0  0  0  0  0  0  0  0
   -0.7026    6.0504    3.9711 H   0  0  0  0  0  0  0  0  0  0  0  0
    0.9137    7.4133    4.4299 C   0  0  1  0  0  3  0  0  0  0  0  0
    1.6614    8.4946    3.9072 C   0  0  2  0  0  0  0  0  0  0  0  0
    2.3932    8.9874    4.5402 H   0  0  0  0  0  0  0  0  0  0  0  0
    1.3678    9.0539    2.6488 C   0  0  0  0  0  0  0  0  0  0  0  0
    1.8768    9.9587    2.3391 H   0  0  0  0  0  0  0  0  0  0  0  0
   -0.0018    9.1275    0.5253 C   0  0  0  0  0  0  0  0  0  0  0  0
    0.5200    8.5915   -0.2721 H   0  0  0  0  0  0  0  0  0  0  0  0
    0.3010   10.1710    0.4844 H   0  0  0  0  0  0  0  0  0  0  0  0
   -1.0695    9.0494    0.3317 H   0  0  0  0  0  0  0  0  0  0  0  0
    1.1874    6.9282    5.8370 C   0  0  0  0  0  0  0  0  0  0  0  0
    1.3573    7.8143    6.4600 H   0  0  0  0  0  0  0  0  0  0  0  0
    0.0364    6.1300    6.4448 C   0  0  0  0  0  0  0  0  0  0  0  0
    0.2405    5.9480    7.4964 H   0  0  0  0  0  0  0  0  0  0  0  0
   -0.0759    5.1640    5.9573 H   0  0  0  0  0  0  0  0  0  0  0  0
   -0.8994    6.6788    6.3744 H   0  0  0  0  0  0  0  0  0  0  0  0
    2.4734    6.0917    5.8365 C   0  0  0  0  0  0  0  0  0  0  0  0
    2.6884    5.7373    6.8413 H   0  0  0  0  0  0  0  0  0  0  0  0
    3.3197    6.6846    5.4919 H   0  0  0  0  0  0  0  0  0  0  0  0
    2.3562    5.2242    5.1829 H   0  0  0  0  0  0  0  0  0  0  0  0
  1  7  1  0  0  0  0
  1 45  1  0  0  0  0
  1 48  1  0  0  0  0
  2  1  1  0  0  0  0
  4  5  1  0  0  0  0
  4 14  1  0  0  0  0
  6 25  1  0  0  0  0
  7  9  1  0  0  0  0
  8  1  1  0  0  0  0
  8 33  1  0  0  0  0
  9 10  2  0  0  0  0
 10 12  1  0  0  0  0
 10 11  1  0  0  0  0
 12 13  2  0  0  0  0
 13 24  1  0  0  0  0
 13  4  1  0  0  0  0
 14 15  1  0  0  0  0
 15 16  1  0  0  0  0
 15 17  2  0  0  0  0
 17 18  1  0  0  0  0
 19 20  1  0  0  0  0
 19 17  1  0  0  0  0
 21 19  2  0  0  0  0
 22 21  1  0  0  0  0
 23 14  2  0  0  0  0
 23 21  1  0  0  0  0
 24 23  1  0  0  0  0
 25  3  1  0  0  0  0
 25 24  2  0  0  0  0
 26  6  2  0  0  0  0
 26 12  1  0  0  0  0
 27 26  1  0  0  0  0
 28 27  1  0  0  0  0
 29 27  2  0  0  0  0
 29  9  1  0  0  0  0
 30 29  1  0  0  0  0
 31  7  1  0  0  0  0
 31 32  1  0  0  0  0
 33 31  2  0  0  0  0
 34 35  1  0  0  0  0
 34 33  1  0  0  0  0
 36 34  2  0  0  0  0
 37 36  1  0  0  0  0
 38 36  1  0  0  0  0
 38 40  2  0  0  0  0
 39 38  1  0  0  0  0
 40  8  1  0  0  0  0
 41 40  1  0  0  0  0
 42 43  1  0  0  0  0
 42 50  2  0  0  0  0
 43 45  1  0  0  0  0
 44 43  1  0  0  0  0
 45 46  1  1  0  0  0
 45 47  1  0  0  0  0
 47 56  1  1  0  0  0
 48 47  1  0  0  0  0
 48 49  1  1  0  0  0
 50 48  1  0  0  0  0
 51 50  1  0  0  0  0
 52 42  1  0  0  0  0
 53 52  1  0  0  0  0
 54 52  1  0  0  0  0
 55 52  1  0  0  0  0
 56 58  1  0  0  0  0
 56 57  1  0  0  0  0
 58 59  1  0  0  0  0
 60 58  1  0  0  0  0
 61 58  1  0  0  0  0
 62 56  1  0  0  0  0
 62 63  1  0  0  0  0
 64 62  1  0  0  0  0
 65 62  1  0  0  0  0
M  END
$$$$
