CSD_code = HEZBUL | q = 1 | S = 0 | Stoichiometry = C31H28ClN4ORu(1+) | MND = 9
 OpenBabel04212202043D

 66 73  0  0  1  0  0  0  0  0999 V2000
   11.1414   -1.1864    3.9573 Ru  0  0  0  0  0  0  0  0  0  0  0  0
   13.2603   -0.9115    4.8759 Cl  0  0  0  0  0  0  0  0  0  0  0  0
    9.4934    2.5256    4.3934 C   0  0  0  0  0  0  0  0  0  0  0  0
    9.2856    2.7196    3.3509 H   0  0  0  0  0  0  0  0  0  0  0  0
   10.3901    1.5194    4.7366 C   0  0  0  0  0  0  0  0  0  0  0  0
   10.6611    1.2554    6.0888 C   0  0  0  0  0  0  0  0  0  0  0  0
   11.4140    0.5177    6.3323 H   0  0  0  0  0  0  0  0  0  0  0  0
   10.0393    1.9821    7.0727 C   0  0  0  0  0  0  0  0  0  0  0  0
   10.2703    1.7967    8.1106 H   0  0  0  0  0  0  0  0  0  0  0  0
    9.1114    2.9810    6.7487 C   0  0  0  0  0  0  0  0  0  0  0  0
    8.4831    3.6816    7.7262 N   0  0  0  0  0  0  0  0  0  0  0  0
    8.7113    3.4681    8.6909 H   0  0  0  0  0  0  0  0  0  0  0  0
    7.5375    4.7067    7.5653 C   0  0  0  0  0  0  0  0  0  0  0  0
    7.0588    5.2326    8.5427 O   0  0  0  0  0  0  0  0  0  0  0  0
    7.2655    4.9869    6.1792 C   0  0  0  0  0  0  0  0  0  0  0  0
    6.3941    5.9471    5.5841 C   0  0  0  0  0  0  0  0  0  0  0  0
    5.5294    6.9119    6.0979 C   0  0  0  0  0  0  0  0  0  0  0  0
    5.4302    7.0309    7.1647 H   0  0  0  0  0  0  0  0  0  0  0  0
    4.8256    7.6882    5.2050 C   0  0  0  0  0  0  0  0  0  0  0  0
    4.1487    8.4441    5.5718 H   0  0  0  0  0  0  0  0  0  0  0  0
    4.9669    7.5219    3.8235 C   0  0  0  0  0  0  0  0  0  0  0  0
    4.3970    8.1522    3.1583 H   0  0  0  0  0  0  0  0  0  0  0  0
    5.8168    6.5740    3.2920 C   0  0  0  0  0  0  0  0  0  0  0  0
    5.9239    6.4503    2.2249 H   0  0  0  0  0  0  0  0  0  0  0  0
    6.5305    5.7871    4.1851 C   0  0  0  0  0  0  0  0  0  0  0  0
    7.4354    4.7791    3.9505 N   0  0  0  0  0  0  0  0  0  0  0  0
    7.7266    4.4753    3.0370 H   0  0  0  0  0  0  0  0  0  0  0  0
    7.8863    4.2940    5.1418 C   0  0  0  0  0  0  0  0  0  0  0  0
    8.8364    3.2549    5.3819 C   0  0  0  0  0  0  0  0  0  0  0  0
   11.0484    0.7557    3.7767 N   0  0  0  0  0  0  0  0  0  0  0  0
   11.6289    1.3045    2.7470 C   0  0  0  0  0  0  0  0  0  0  0  0
   11.6613    2.3776    2.6029 H   0  0  0  0  0  0  0  0  0  0  0  0
   12.2670    0.3873    1.8580 C   0  0  0  0  0  0  0  0  0  0  0  0
   12.0959   -0.9056    2.2400 N   0  0  0  0  0  0  0  0  0  0  0  0
   12.6882   -1.8664    1.5369 C   0  0  0  0  0  0  0  0  0  0  0  0
   12.5645   -2.8802    1.8960 H   0  0  0  0  0  0  0  0  0  0  0  0
   13.4462   -1.6040    0.4118 C   0  0  0  0  0  0  0  0  0  0  0  0
   13.9061   -2.4171   -0.1249 H   0  0  0  0  0  0  0  0  0  0  0  0
   13.6156   -0.2844   -0.0021 C   0  0  0  0  0  0  0  0  0  0  0  0
   14.2112   -0.0565   -0.8714 H   0  0  0  0  0  0  0  0  0  0  0  0
   13.0236    0.7224    0.7303 C   0  0  0  0  0  0  0  0  0  0  0  0
   13.1451    1.7602    0.4658 H   0  0  0  0  0  0  0  0  0  0  0  0
   10.8740   -2.9806    5.5862 C   0  0  0  0  0  0  0  0  0  0  0  0
    9.9654   -1.9390    5.8797 C   0  0  0  0  0  0  0  0  0  0  0  0
    9.9073   -1.5563    6.8919 H   0  0  0  0  0  0  0  0  0  0  0  0
    9.0473   -1.4787    4.9171 C   0  0  2  0  0  0  0  0  0  0  0  0
    8.3085   -0.7448    5.2168 H   0  0  0  0  0  0  0  0  0  0  0  0
    8.9911   -2.0504    3.6257 C   0  0  1  0  0  3  0  0  0  0  0  0
    9.9515   -3.0416    3.3166 C   0  0  2  0  0  0  0  0  0  0  0  0
    9.8996   -3.5369    2.3513 H   0  0  0  0  0  0  0  0  0  0  0  0
   10.8750   -3.5045    4.2760 C   0  0  0  0  0  3  0  0  0  0  0  0
   11.5222   -4.3423    4.0403 H   0  0  0  0  0  0  0  0  0  0  0  0
   11.8002   -3.5072    6.6289 C   0  0  0  0  0  0  0  0  0  0  0  0
   12.7331   -2.9378    6.6029 H   0  0  0  0  0  0  0  0  0  0  0  0
   12.0428   -4.5515    6.4468 H   0  0  0  0  0  0  0  0  0  0  0  0
   11.3713   -3.4005    7.6225 H   0  0  0  0  0  0  0  0  0  0  0  0
    7.9640   -1.6579    2.5858 C   0  0  0  0  0  0  0  0  0  0  0  0
    7.6403   -2.5761    2.0817 H   0  0  0  0  0  0  0  0  0  0  0  0
    6.7309   -0.9759    3.1745 C   0  0  0  0  0  0  0  0  0  0  0  0
    5.9808   -0.8540    2.3977 H   0  0  0  0  0  0  0  0  0  0  0  0
    6.9736    0.0113    3.5626 H   0  0  0  0  0  0  0  0  0  0  0  0
    6.2963   -1.5752    3.9709 H   0  0  0  0  0  0  0  0  0  0  0  0
    8.6237   -0.7468    1.5423 C   0  0  0  0  0  0  0  0  0  0  0  0
    7.9009   -0.4671    0.7804 H   0  0  0  0  0  0  0  0  0  0  0  0
    9.4583   -1.2471    1.0525 H   0  0  0  0  0  0  0  0  0  0  0  0
    8.9903    0.1626    2.0215 H   0  0  0  0  0  0  0  0  0  0  0  0
  1  2  1  0  0  0  0
  1 46  1  0  0  0  0
  3  5  2  0  0  0  0
  3 29  1  0  0  0  0
  4  3  1  0  0  0  0
  5  6  1  0  0  0  0
  6  7  1  0  0  0  0
  6  8  2  0  0  0  0
  8  9  1  0  0  0  0
 10  8  1  0  0  0  0
 10 11  1  0  0  0  0
 11 12  1  0  0  0  0
 13 11  1  0  0  0  0
 13 14  2  0  0  0  0
 15 13  1  0  0  0  0
 16 17  1  0  0  0  0
 16 15  1  0  0  0  0
 17 18  1  0  0  0  0
 19 20  1  0  0  0  0
 19 17  2  0  0  0  0
 21 19  1  0  0  0  0
 22 21  1  0  0  0  0
 23 21  2  0  0  0  0
 23 25  1  0  0  0  0
 24 23  1  0  0  0  0
 25 16  2  0  0  0  0
 26 25  1  0  0  0  0
 26 28  1  0  0  0  0
 27 26  1  0  0  0  0
 28 29  1  0  0  0  0
 28 15  2  0  0  0  0
 29 10  2  0  0  0  0
 30  1  1  0  0  0  0
 30  5  1  0  0  0  0
 31 30  1  0  0  0  0
 32 31  1  0  0  0  0
 33 34  1  0  0  0  0
 33 31  2  0  0  0  0
 34  1  1  0  0  0  0
 35 36  1  0  0  0  0
 35 34  1  0  0  0  0
 37 35  2  0  0  0  0
 38 37  1  0  0  0  0
 39 37  1  0  0  0  0
 39 41  2  0  0  0  0
 40 39  1  0  0  0  0
 41 33  1  0  0  0  0
 42 41  1  0  0  0  0
 43 44  2  0  0  0  0
 43 53  1  0  0  0  0
 44 45  1  0  0  0  0
 46 47  1  1  0  0  0
 46 44  1  0  0  0  0
 48 57  1  1  0  0  0
 48 46  1  0  0  0  0
 49 50  1  6  0  0  0
 49 48  1  0  0  0  0
 49  1  1  0  0  0  0
 49 51  1  0  0  0  0
 51 43  1  0  0  0  0
 52 51  1  0  0  0  0
 53 56  1  0  0  0  0
 54 53  1  0  0  0  0
 55 53  1  0  0  0  0
 57 59  1  0  0  0  0
 58 57  1  0  0  0  0
 59 61  1  0  0  0  0
 59 62  1  0  0  0  0
 60 59  1  0  0  0  0
 63 66  1  0  0  0  0
 63 57  1  0  0  0  0
 64 63  1  0  0  0  0
 65 63  1  0  0  0  0
M  END
$$$$
