CSD_code = HEZDEV | q = 0 | S = 0 | Stoichiometry = C17H29Cl2NO7PdS | MND = 4
 OpenBabel04212202043D

 58 61  0  0  1  0  0  0  0  0999 V2000
    5.1087    1.5887   21.3876 Pd  0  0  0  0  0  0  0  0  0  0  0  0
    4.2964    2.4066   23.2999 Cl  0  0  0  0  0  0  0  0  0  0  0  0
    4.8911    3.5482   20.3331 Cl  0  0  0  0  0  0  0  0  0  0  0  0
    5.4401   -0.3786   22.6089 S   0  0  2  0  0  3  0  0  0  0  0  0
    5.9684    0.8498   19.5471 N   0  0  0  0  0  4  0  0  0  0  0  0
    7.0668    0.1615   23.2207 C   0  0  0  0  0  0  0  0  0  0  0  0
    5.9213   -1.7995   21.5491 C   0  0  0  0  0  0  0  0  0  0  0  0
    6.5557   -1.4967   20.1929 C   0  0  0  0  0  0  0  0  0  0  0  0
    5.7395   -0.5674   19.2690 C   0  0  1  0  0  0  0  0  0  0  0  0
    4.2464   -0.8260   19.4460 C   0  0  0  0  0  0  0  0  0  0  0  0
    3.4769   -0.0451   19.9398 O   0  0  0  0  0  0  0  0  0  0  0  0
    3.8786   -2.0221   18.9940 O   0  0  0  0  0  0  0  0  0  0  0  0
    7.2983    1.3763   19.2564 C   0  0  0  0  0  0  0  0  0  0  0  0
    7.7339    1.1108   17.8069 C   0  0  2  0  0  0  0  0  0  0  0  0
    8.8699    2.0627   17.3694 C   0  0  1  0  0  0  0  0  0  0  0  0
    8.8609    2.2633   15.8399 C   0  0  1  0  0  0  0  0  0  0  0  0
    8.1252    1.1652   15.0704 C   0  0  2  0  0  0  0  0  0  0  0  0
    6.7643    0.7850   15.7016 C   0  0  2  0  0  0  0  0  0  0  0  0
    6.5868    1.2793   16.9828 O   0  0  0  0  0  0  0  0  0  0  0  0
    8.2172    3.4934   15.6502 O   0  0  0  0  0  0  0  0  0  0  0  0
    8.7346    3.3616   17.8699 O   0  0  0  0  0  0  0  0  0  0  0  0
    8.1232    4.1956   16.8929 C   0  0  0  0  0  0  0  0  0  0  0  0
    8.9209    5.4975   16.8173 C   0  0  0  0  0  0  0  0  0  0  0  0
    6.6547    4.4608   17.2206 C   0  0  0  0  0  0  0  0  0  0  0  0
    8.8655   -0.0318   15.1152 O   0  0  0  0  0  0  0  0  0  0  0  0
    6.7692   -0.6237   15.7178 O   0  0  0  0  0  0  0  0  0  0  0  0
    7.9413   -1.1013   15.0632 C   0  0  0  0  0  0  0  0  0  0  0  0
    8.5083   -2.2930   15.8286 C   0  0  0  0  0  0  0  0  0  0  0  0
    7.6085   -1.4831   13.6170 C   0  0  0  0  0  0  0  0  0  0  0  0
    5.3239    1.3977   18.9645 H   0  0  0  0  0  0  0  0  0  0  0  0
    7.5321   -0.6491   23.7767 H   0  0  0  0  0  0  0  0  0  0  0  0
    7.7052    0.4901   22.4008 H   0  0  0  0  0  0  0  0  0  0  0  0
    6.8570    1.0007   23.8839 H   0  0  0  0  0  0  0  0  0  0  0  0
    4.9942   -2.3582   21.4200 H   0  0  0  0  0  0  0  0  0  0  0  0
    6.6034   -2.4086   22.1435 H   0  0  0  0  0  0  0  0  0  0  0  0
    6.6899   -2.4525   19.6815 H   0  0  0  0  0  0  0  0  0  0  0  0
    7.5445   -1.0607   20.3409 H   0  0  0  0  0  0  0  0  0  0  0  0
    5.9780   -0.8123   18.2227 H   0  0  0  0  0  0  0  0  0  0  0  0
    2.9221   -2.1511   19.1079 H   0  0  0  0  0  0  0  0  0  0  0  0
    8.0526    0.9604   19.9309 H   0  0  0  0  0  0  0  0  0  0  0  0
    7.2500    2.4606   19.4121 H   0  0  0  0  0  0  0  0  0  0  0  0
    8.1014    0.0803   17.6927 H   0  0  0  0  0  0  0  0  0  0  0  0
    9.8247    1.6642   17.7283 H   0  0  0  0  0  0  0  0  0  0  0  0
    9.8909    2.3078   15.4533 H   0  0  0  0  0  0  0  0  0  0  0  0
    7.9843    1.5075   14.0364 H   0  0  0  0  0  0  0  0  0  0  0  0
    5.9080    1.1576   15.1279 H   0  0  0  0  0  0  0  0  0  0  0  0
    9.9664    5.2778   16.6178 H   0  0  0  0  0  0  0  0  0  0  0  0
    8.5254    6.1168   16.0190 H   0  0  0  0  0  0  0  0  0  0  0  0
    8.8393    6.0193   17.7650 H   0  0  0  0  0  0  0  0  0  0  0  0
    6.0856    3.5387   17.1534 H   0  0  0  0  0  0  0  0  0  0  0  0
    6.5651    4.8503   18.2302 H   0  0  0  0  0  0  0  0  0  0  0  0
    6.2503    5.1781   16.5139 H   0  0  0  0  0  0  0  0  0  0  0  0
    8.7777   -1.9937   16.8379 H   0  0  0  0  0  0  0  0  0  0  0  0
    7.7607   -3.0784   15.8725 H   0  0  0  0  0  0  0  0  0  0  0  0
    9.3961   -2.6543   15.3206 H   0  0  0  0  0  0  0  0  0  0  0  0
    7.1775   -0.6336   13.0938 H   0  0  0  0  0  0  0  0  0  0  0  0
    8.5165   -1.7917   13.1080 H   0  0  0  0  0  0  0  0  0  0  0  0
    6.8905   -2.2973   13.6154 H   0  0  0  0  0  0  0  0  0  0  0  0
  1  4  1  0  0  0  0
  1  2  1  0  0  0  0
  3  1  1  0  0  0  0
  4  6  1  1  0  0  0
  5  1  1  0  0  0  0
  6 31  1  0  0  0  0
  6 33  1  0  0  0  0
  7 35  1  0  0  0  0
  7  4  1  0  0  0  0
  8 37  1  0  0  0  0
  8  7  1  0  0  0  0
  9 38  1  6  0  0  0
  9 10  1  0  0  0  0
  9  5  1  0  0  0  0
  9  8  1  0  0  0  0
 10 11  2  0  0  0  0
 12 39  1  0  0  0  0
 12 10  1  0  0  0  0
 13 41  1  0  0  0  0
 13  5  1  0  0  0  0
 13 40  1  0  0  0  0
 14 42  1  6  0  0  0
 14 13  1  0  0  0  0
 15 43  1  1  0  0  0
 15 14  1  0  0  0  0
 15 21  1  0  0  0  0
 16 44  1  6  0  0  0
 16 15  1  0  0  0  0
 17 45  1  6  0  0  0
 17 25  1  0  0  0  0
 17 18  1  0  0  0  0
 17 16  1  0  0  0  0
 18 46  1  6  0  0  0
 18 26  1  0  0  0  0
 18 19  1  0  0  0  0
 19 14  1  0  0  0  0
 20 16  1  0  0  0  0
 20 22  1  0  0  0  0
 22 24  1  0  0  0  0
 22 21  1  0  0  0  0
 23 22  1  0  0  0  0
 23 49  1  0  0  0  0
 24 51  1  0  0  0  0
 27 25  1  0  0  0  0
 27 26  1  0  0  0  0
 27 28  1  0  0  0  0
 28 54  1  0  0  0  0
 28 53  1  0  0  0  0
 29 27  1  0  0  0  0
 30  5  1  0  0  0  0
 32  6  1  0  0  0  0
 34  7  1  0  0  0  0
 36  8  1  0  0  0  0
 47 23  1  0  0  0  0
 48 23  1  0  0  0  0
 50 24  1  0  0  0  0
 52 24  1  0  0  0  0
 55 28  1  0  0  0  0
 56 29  1  0  0  0  0
 57 29  1  0  0  0  0
 58 29  1  0  0  0  0
M  END
$$$$
