CSD_code = HEZYOD | q = 1 | S = 0 | Stoichiometry = C12H29BrN3Pd(1+) | MND = 4
 OpenBabel04212202043D

 46 47  0  0  1  0  0  0  0  0999 V2000
    2.6052    1.9271    2.5911 Pd  0  0  1  0  0  0  0  0  0  0  0  0
    0.2975    1.3413    2.4736 Br  0  0  0  0  0  0  0  0  0  0  0  0
    2.9261    1.7990    0.5148 N   0  0  0  0  0  4  0  0  0  0  0  0
    4.6460    2.4089    2.6952 N   0  0  2  0  0  4  0  0  0  0  0  0
    4.7755    3.4235    2.6993 H   0  0  0  0  0  0  0  0  0  0  0  0
    2.7120    1.8043    4.6895 N   0  0  0  0  0  4  0  0  0  0  0  0
    4.3210    2.2487    0.3054 C   0  0  0  0  0  0  0  0  0  0  0  0
    4.3200    3.3397    0.2297 H   0  0  0  0  0  0  0  0  0  0  0  0
    4.7170    1.8518   -0.6345 H   0  0  0  0  0  0  0  0  0  0  0  0
    5.2287    1.8524    1.4733 C   0  0  0  0  0  0  0  0  0  0  0  0
    5.2784    0.7626    1.5734 H   0  0  0  0  0  0  0  0  0  0  0  0
    6.2481    2.2190    1.2933 H   0  0  0  0  0  0  0  0  0  0  0  0
    5.1009    1.8585    3.9729 C   0  0  0  0  0  0  0  0  0  0  0  0
    6.0957    2.2282    4.2552 H   0  0  0  0  0  0  0  0  0  0  0  0
    5.1627    0.7684    3.8829 H   0  0  0  0  0  0  0  0  0  0  0  0
    4.0773    2.2574    5.0396 C   0  0  0  0  0  0  0  0  0  0  0  0
    4.3750    1.8649    6.0169 H   0  0  0  0  0  0  0  0  0  0  0  0
    4.0667    3.3487    5.1103 H   0  0  0  0  0  0  0  0  0  0  0  0
    2.0018    2.6086   -0.3017 C   0  0  0  0  0  0  0  0  0  0  0  0
    1.0396    2.0920   -0.3264 H   0  0  0  0  0  0  0  0  0  0  0  0
    2.3796    2.6946   -1.3264 H   0  0  0  0  0  0  0  0  0  0  0  0
    1.7855    4.0002    0.2871 C   0  0  0  0  0  0  0  0  0  0  0  0
    0.9445    4.4706   -0.2139 H   0  0  0  0  0  0  0  0  0  0  0  0
    2.6498    4.6499    0.1617 H   0  0  0  0  0  0  0  0  0  0  0  0
    1.5369    3.9253    1.3564 H   0  0  0  0  0  0  0  0  0  0  0  0
    2.7619    0.3493    0.2483 C   0  0  0  0  0  0  0  0  0  0  0  0
    1.7104    0.1051    0.4283 H   0  0  0  0  0  0  0  0  0  0  0  0
    3.3661   -0.2110    0.9796 H   0  0  0  0  0  0  0  0  0  0  0  0
    3.1212   -0.1218   -1.1594 C   0  0  0  0  0  0  0  0  0  0  0  0
    2.5701    0.4315   -1.9142 H   0  0  0  0  0  0  0  0  0  0  0  0
    2.8425   -1.1682   -1.2476 H   0  0  0  0  0  0  0  0  0  0  0  0
    4.1852   -0.0490   -1.3701 H   0  0  0  0  0  0  0  0  0  0  0  0
    2.5240    0.3548    4.9407 C   0  0  0  0  0  0  0  0  0  0  0  0
    3.2005   -0.2057    4.2759 H   0  0  0  0  0  0  0  0  0  0  0  0
    1.4966    0.1083    4.6549 H   0  0  0  0  0  0  0  0  0  0  0  0
    2.7389   -0.1132    6.3786 C   0  0  0  0  0  0  0  0  0  0  0  0
    3.7759   -0.0384    6.6961 H   0  0  0  0  0  0  0  0  0  0  0  0
    2.4539   -1.1598    6.4401 H   0  0  0  0  0  0  0  0  0  0  0  0
    2.1132    0.4407    7.0723 H   0  0  0  0  0  0  0  0  0  0  0  0
    1.7075    2.6136    5.4055 C   0  0  0  0  0  0  0  0  0  0  0  0
    1.9768    2.7001    6.4638 H   0  0  0  0  0  0  0  0  0  0  0  0
    0.7484    2.0960    5.3305 H   0  0  0  0  0  0  0  0  0  0  0  0
    1.5525    4.0048    4.7969 C   0  0  0  0  0  0  0  0  0  0  0  0
    0.6599    4.4721    5.2025 H   0  0  0  0  0  0  0  0  0  0  0  0
    1.4233    3.9297    3.7066 H   0  0  0  0  0  0  0  0  0  0  0  0
    2.3955    4.6572    5.0167 H   0  0  0  0  0  0  0  0  0  0  0  0
  1  2  1  6  0  0  0
  1  4  1  0  0  0  0
  1  6  1  0  0  0  0
  3  1  1  0  0  0  0
  4  5  1  1  0  0  0
  4 13  1  0  0  0  0
  6 33  1  0  0  0  0
  6 16  1  0  0  0  0
  6 40  1  0  0  0  0
  7  3  1  0  0  0  0
  7 10  1  0  0  0  0
  8  7  1  0  0  0  0
  9  7  1  0  0  0  0
 10 11  1  0  0  0  0
 10  4  1  0  0  0  0
 12 10  1  0  0  0  0
 13 14  1  0  0  0  0
 13 16  1  0  0  0  0
 15 13  1  0  0  0  0
 16 18  1  0  0  0  0
 16 17  1  0  0  0  0
 19 22  1  0  0  0  0
 19  3  1  0  0  0  0
 20 19  1  0  0  0  0
 21 19  1  0  0  0  0
 22 25  1  0  0  0  0
 23 22  1  0  0  0  0
 24 22  1  0  0  0  0
 26 27  1  0  0  0  0
 26  3  1  0  0  0  0
 26 28  1  0  0  0  0
 29 26  1  0  0  0  0
 30 29  1  0  0  0  0
 31 29  1  0  0  0  0
 32 29  1  0  0  0  0
 33 36  1  0  0  0  0
 34 33  1  0  0  0  0
 35 33  1  0  0  0  0
 36 38  1  0  0  0  0
 36 37  1  0  0  0  0
 36 39  1  0  0  0  0
 40 41  1  0  0  0  0
 42 40  1  0  0  0  0
 43 46  1  0  0  0  0
 43 44  1  0  0  0  0
 43 40  1  0  0  0  0
 45 43  1  0  0  0  0
M  END
$$$$
