CSD_code = HEZZIY | q = -1 | S = 0 | Stoichiometry = C12H17Cl5NW(1-) | MND = 6
 OpenBabel04212202043D

 36 36  0  0  0  0  0  0  0  0999 V2000
    2.5387    7.2264    6.4976 W   0  0  0  0  0  0  0  0  0  0  0  0
    4.7389    6.3120    6.7290 Cl  0  0  0  0  0  0  0  0  0  0  0  0
    2.9915    7.5041    4.1637 Cl  0  0  0  0  0  0  0  0  0  0  0  0
    0.4918    8.4528    6.3140 Cl  0  0  0  0  0  0  0  0  0  0  0  0
    2.2646    7.2685    8.8712 Cl  0  0  0  0  0  0  0  0  0  0  0  0
    3.5449    9.2842    6.7542 Cl  0  0  0  0  0  0  0  0  0  0  0  0
    1.7452    5.6535    6.3045 N   0  0  0  0  0  2  0  0  0  0  0  0
    1.1073    4.4890    6.1806 C   0  0  0  0  0  0  0  0  0  0  0  0
    0.1321    4.3153    5.1677 C   0  0  0  0  0  0  0  0  0  0  0  0
   -0.5379    3.1093    5.0820 C   0  0  0  0  0  0  0  0  0  0  0  0
   -1.2902    2.9715    4.3183 H   0  0  0  0  0  0  0  0  0  0  0  0
   -0.2660    2.0740    5.9602 C   0  0  0  0  0  0  0  0  0  0  0  0
   -0.8038    1.1394    5.8793 H   0  0  0  0  0  0  0  0  0  0  0  0
    0.6955    2.2380    6.9434 C   0  0  0  0  0  0  0  0  0  0  0  0
    0.8985    1.4245    7.6252 H   0  0  0  0  0  0  0  0  0  0  0  0
    1.3951    3.4231    7.0690 C   0  0  0  0  0  0  0  0  0  0  0  0
   -0.1658    5.4553    4.2245 C   0  0  0  0  0  0  0  0  0  0  0  0
    0.5539    6.2612    4.4313 H   0  0  0  0  0  0  0  0  0  0  0  0
   -1.5703    6.0054    4.4812 C   0  0  0  0  0  0  0  0  0  0  0  0
   -2.3250    5.2364    4.3235 H   0  0  0  0  0  0  0  0  0  0  0  0
   -1.7711    6.8384    3.8118 H   0  0  0  0  0  0  0  0  0  0  0  0
   -1.6416    6.3666    5.5042 H   0  0  0  0  0  0  0  0  0  0  0  0
    0.0066    5.0331    2.7649 C   0  0  0  0  0  0  0  0  0  0  0  0
    1.0062    4.6349    2.6085 H   0  0  0  0  0  0  0  0  0  0  0  0
   -0.1241    5.8948    2.1146 H   0  0  0  0  0  0  0  0  0  0  0  0
   -0.7210    4.2735    2.4847 H   0  0  0  0  0  0  0  0  0  0  0  0
    2.4279    3.6288    8.1499 C   0  0  0  0  0  0  0  0  0  0  0  0
    2.9679    4.5610    7.9257 H   0  0  0  0  0  0  0  0  0  0  0  0
    1.7343    3.8028    9.5034 C   0  0  0  0  0  0  0  0  0  0  0  0
    1.0756    4.6671    9.4696 H   0  0  0  0  0  0  0  0  0  0  0  0
    2.4736    3.9699   10.2830 H   0  0  0  0  0  0  0  0  0  0  0  0
    1.1484    2.9193    9.7534 H   0  0  0  0  0  0  0  0  0  0  0  0
    3.4470    2.4901    8.1956 C   0  0  0  0  0  0  0  0  0  0  0  0
    2.9860    1.5588    8.5191 H   0  0  0  0  0  0  0  0  0  0  0  0
    4.2434    2.7392    8.8929 H   0  0  0  0  0  0  0  0  0  0  0  0
    3.8862    2.3400    7.2123 H   0  0  0  0  0  0  0  0  0  0  0  0
  1  2  1  0  0  0  0
  1  6  1  0  0  0  0
  1  5  1  0  0  0  0
  3  1  1  0  0  0  0
  4  1  1  0  0  0  0
  7  1  1  0  0  0  0
  8  7  1  0  0  0  0
  8 16  1  0  0  0  0
  9  8  2  0  0  0  0
 10  9  1  0  0  0  0
 10 12  2  0  0  0  0
 11 10  1  0  0  0  0
 12 14  1  0  0  0  0
 13 12  1  0  0  0  0
 14 16  2  0  0  0  0
 14 15  1  0  0  0  0
 16 27  1  0  0  0  0
 17 18  1  0  0  0  0
 17 19  1  0  0  0  0
 17  9  1  0  0  0  0
 19 22  1  0  0  0  0
 20 19  1  0  0  0  0
 21 19  1  0  0  0  0
 23 17  1  0  0  0  0
 24 23  1  0  0  0  0
 25 23  1  0  0  0  0
 26 23  1  0  0  0  0
 27 33  1  0  0  0  0
 27 29  1  0  0  0  0
 28 27  1  0  0  0  0
 29 32  1  0  0  0  0
 29 31  1  0  0  0  0
 30 29  1  0  0  0  0
 33 34  1  0  0  0  0
 33 35  1  0  0  0  0
 36 33  1  0  0  0  0
M  END
$$$$
