CSD_code = HGTXZO | q = 0 | S = 0 | Stoichiometry = C12HgI2N2O4 | MND = 8
 OpenBabel04212202043D

 21 20  0  0  0  0  0  0  0  0999 V2000
    0.0003    0.0020    0.0007 Hg  0  0  0  0  0  0  0  0  0  0  0  0
    1.0502    2.3858    0.1944 I   0  0  0  0  0  0  0  0  0  0  0  0
   -1.7147    0.5178    2.8491 N   0  0  0  0  0  2  0  0  0  0  0  0
   -0.5471   -0.0016    2.9463 C   0  0  0  0  0  0  0  0  0  0  0  0
    0.4909   -0.4948    3.3931 C   0  0  0  0  0  0  0  0  0  0  0  0
    1.6784   -1.0307    3.4458 O   0  0  0  0  0  0  0  0  0  0  0  0
    2.3176   -1.2407    2.3345 C   0  0  0  0  0  0  0  0  0  0  0  0
    2.9528   -1.3804    1.3141 C   0  0  0  0  0  0  0  0  0  0  0  0
    3.6225   -1.6060    0.2239 O   0  0  0  0  0  0  0  0  0  0  0  0
    3.0846   -1.2835   -0.9192 C   0  0  0  0  0  0  0  0  0  0  0  0
   -2.2777    0.8548    1.7482 C   0  0  0  0  0  0  0  0  0  0  0  0
   -1.0488   -2.3824   -0.1940 I   0  0  0  0  0  0  0  0  0  0  0  0
    1.7132   -0.5177   -2.8471 N   0  0  0  0  0  2  0  0  0  0  0  0
   -1.6763    1.0355   -3.4462 O   0  0  0  0  0  0  0  0  0  0  0  0
   -3.6245    1.5989   -0.2251 O   0  0  0  0  0  0  0  0  0  0  0  0
    2.2754   -0.8580   -1.7469 C   0  0  0  0  0  0  0  0  0  0  0  0
   -3.0850    1.2776    0.9176 C   0  0  0  0  0  0  0  0  0  0  0  0
    0.5472    0.0048   -2.9443 C   0  0  0  0  0  0  0  0  0  0  0  0
   -0.4891    0.4989   -3.3949 C   0  0  0  0  0  0  0  0  0  0  0  0
   -2.3143    1.2457   -2.3341 C   0  0  0  0  0  0  0  0  0  0  0  0
   -2.9556    1.3740   -1.3159 C   0  0  0  0  0  0  0  0  0  0  0  0
  1  2  1  0  0  0  0
  3  4  1  0  0  0  0
  4  5  3  0  0  0  0
  5  6  1  0  0  0  0
  7  6  1  0  0  0  0
  8  7  3  0  0  0  0
  9  8  1  0  0  0  0
 10  9  1  0  0  0  0
 11  3  1  0  0  0  0
 12  1  1  0  0  0  0
 13 16  1  0  0  0  0
 14 19  1  0  0  0  0
 14 20  1  0  0  0  0
 15 17  1  0  0  0  0
 16 10  3  0  0  0  0
 17 11  3  0  0  0  0
 18 13  1  0  0  0  0
 19 18  3  0  0  0  0
 20 21  3  0  0  0  0
 21 15  1  0  0  0  0
M  END
$$$$
