CSD_code = HIBPAK | q = 0 | S = 0 | Stoichiometry = C13H16AgClN2 | MND = 2
 OpenBabel04212202043D

 33 34  0  0  1  0  0  0  0  0999 V2000
    2.3116    0.4400    2.8716 Ag  0  0  0  0  0  0  0  0  0  0  0  0
    3.2823   -1.3944    2.0313 Cl  0  0  0  0  0  0  0  0  0  0  0  0
    0.1324    2.5923    3.6510 N   0  0  0  0  0  0  0  0  0  0  0  0
    1.9056    2.8622    4.8208 N   0  0  0  0  0  0  0  0  0  0  0  0
    1.3911    2.1351    3.8081 C   0  0  1  0  0  3  0  0  0  0  0  0
   -0.1365    3.5835    4.5533 C   0  0  0  0  0  0  0  0  0  0  0  0
   -1.0776    4.0898    4.6037 H   0  0  0  0  0  0  0  0  0  0  0  0
    0.9835    3.7514    5.2951 C   0  0  0  0  0  0  0  0  0  0  0  0
    1.1891    4.4213    6.1042 H   0  0  0  0  0  0  0  0  0  0  0  0
    3.2258    2.6857    5.3797 C   0  0  0  0  0  0  0  0  0  0  0  0
    3.6356    3.6672    5.6332 H   0  0  0  0  0  0  0  0  0  0  0  0
    3.8522    2.2163    4.6117 H   0  0  0  0  0  0  0  0  0  0  0  0
   -0.8031    2.0945    2.6640 C   0  0  0  0  0  0  0  0  0  0  0  0
   -0.2519    1.3396    2.0834 H   0  0  0  0  0  0  0  0  0  0  0  0
   -1.2468    3.2188    1.7318 C   0  0  0  0  0  0  0  0  0  0  0  0
   -0.3811    3.7043    1.2873 H   0  0  0  0  0  0  0  0  0  0  0  0
   -1.8299    3.9643    2.2679 H   0  0  0  0  0  0  0  0  0  0  0  0
   -1.8613    2.8120    0.9340 H   0  0  0  0  0  0  0  0  0  0  0  0
   -1.9884    1.4231    3.3533 C   0  0  0  0  0  0  0  0  0  0  0  0
   -1.6390    0.6317    4.0126 H   0  0  0  0  0  0  0  0  0  0  0  0
   -2.6481    0.9865    2.6092 H   0  0  0  0  0  0  0  0  0  0  0  0
   -2.5564    2.1424    3.9394 H   0  0  0  0  0  0  0  0  0  0  0  0
    3.1661    1.8026    6.6028 C   0  0  0  0  0  0  0  0  0  0  0  0
    3.1536    2.3515    7.8777 C   0  0  0  0  0  0  0  0  0  0  0  0
    3.2258    3.4228    8.0044 H   0  0  0  0  0  0  0  0  0  0  0  0
    3.0606    1.5323    8.9899 C   0  0  0  0  0  0  0  0  0  0  0  0
    3.0566    1.9677    9.9782 H   0  0  0  0  0  0  0  0  0  0  0  0
    2.9745    0.1597    8.8347 C   0  0  0  0  0  0  0  0  0  0  0  0
    2.9029   -0.4786    9.7024 H   0  0  0  0  0  0  0  0  0  0  0  0
    2.9845   -0.3939    7.5645 C   0  0  0  0  0  0  0  0  0  0  0  0
    2.9225   -1.4638    7.4377 H   0  0  0  0  0  0  0  0  0  0  0  0
    3.0800    0.4246    6.4543 C   0  0  0  0  0  0  0  0  0  0  0  0
    3.0954   -0.0088    5.4551 H   0  0  0  0  0  0  0  0  0  0  0  0
  2  1  1  0  0  0  0
  3  5  1  0  0  0  0
  3  6  1  0  0  0  0
  4  8  1  0  0  0  0
  4 10  1  0  0  0  0
  5  1  1  1  0  0  0
  5  4  1  0  0  0  0
  6  7  1  0  0  0  0
  6  8  2  0  0  0  0
  8  9  1  0  0  0  0
 10 11  1  0  0  0  0
 10 23  1  0  0  0  0
 12 10  1  0  0  0  0
 13 19  1  0  0  0  0
 13  3  1  0  0  0  0
 14 13  1  0  0  0  0
 15 17  1  0  0  0  0
 15 13  1  0  0  0  0
 16 15  1  0  0  0  0
 18 15  1  0  0  0  0
 19 22  1  0  0  0  0
 19 20  1  0  0  0  0
 21 19  1  0  0  0  0
 23 24  1  0  0  0  0
 24 25  1  0  0  0  0
 24 26  2  0  0  0  0
 26 27  1  0  0  0  0
 28 26  1  0  0  0  0
 28 29  1  0  0  0  0
 30 28  2  0  0  0  0
 31 30  1  0  0  0  0
 32 23  2  0  0  0  0
 32 30  1  0  0  0  0
 33 32  1  0  0  0  0
M  END
$$$$
