CSD_code = HIBRIT | q = 0 | S = 0 | Stoichiometry = C8H14Cl2N6O2Zn | MND = 4
 OpenBabel04212202043D

 33 34  0  0  1  0  0  0  0  0999 V2000
    6.1183    2.8795    1.8251 Zn  0  0  0  0  0  0  0  0  0  0  0  0
    4.8719    2.3529    3.6066 Cl  0  0  0  0  0  0  0  0  0  0  0  0
    5.0159    2.6191   -0.1038 Cl  0  0  0  0  0  0  0  0  0  0  0  0
    8.2716    4.4801    3.4020 O   0  0  0  0  0  0  0  0  0  0  0  0
    8.9599    2.9615    0.5635 O   0  0  0  0  0  0  0  0  0  0  0  0
    7.9884    6.3583    0.4896 N   0  0  0  0  0  0  0  0  0  0  0  0
    9.5422    1.1922    3.4998 N   0  0  0  0  0  0  0  0  0  0  0  0
    6.1314    5.3343   -0.5383 N   0  0  0  0  0  0  0  0  0  0  0  0
    7.3420    0.8491    4.2721 N   0  0  0  0  0  0  0  0  0  0  0  0
    6.9101    4.7392    1.5821 N   0  0  0  0  0  0  0  0  0  0  0  0
    7.8371    1.8669    2.2289 N   0  0  0  0  0  0  0  0  0  0  0  0
    7.9761    5.0323    2.3694 C   0  0  0  0  0  0  0  0  0  0  0  0
    8.9439    2.3068    1.5782 C   0  0  0  0  0  0  0  0  0  0  0  0
    8.7608    6.1585    1.6866 C   0  0  0  0  0  0  0  0  0  0  0  0
   10.1660    1.8621    2.3899 C   0  0  0  0  0  0  0  0  0  0  0  0
    8.4255    7.1811   -0.6067 C   0  0  0  0  0  0  0  0  0  0  0  0
   10.2612    0.7710    4.6726 C   0  0  0  0  0  0  0  0  0  0  0  0
    6.9878    5.4608    0.4560 C   0  0  2  0  0  3  0  0  0  0  0  0
    8.2069    1.3008    3.3855 C   0  0  2  0  0  3  0  0  0  0  0  0
    6.3274    5.7785   -1.4191 H   0  0  0  0  0  0  0  0  0  0  0  0
    7.6642    0.5849    5.1874 H   0  0  0  0  0  0  0  0  0  0  0  0
    5.5521    4.4700   -0.5375 H   0  0  0  0  0  0  0  0  0  0  0  0
    6.3631    1.1871    4.1713 H   0  0  0  0  0  0  0  0  0  0  0  0
   10.8078    1.1948    1.8078 H   0  0  0  0  0  0  0  0  0  0  0  0
    9.8482   -0.1641    5.0525 H   0  0  0  0  0  0  0  0  0  0  0  0
   10.7448    2.7330    2.7111 H   0  0  0  0  0  0  0  0  0  0  0  0
   11.3002    0.6005    4.3987 H   0  0  0  0  0  0  0  0  0  0  0  0
   10.2235    1.5305    5.4594 H   0  0  0  0  0  0  0  0  0  0  0  0
    8.7965    7.0538    2.3138 H   0  0  0  0  0  0  0  0  0  0  0  0
    9.7805    5.8300    1.4653 H   0  0  0  0  0  0  0  0  0  0  0  0
    8.9303    6.5884   -1.3755 H   0  0  0  0  0  0  0  0  0  0  0  0
    7.5757    7.7006   -1.0506 H   0  0  0  0  0  0  0  0  0  0  0  0
    9.1209    7.9253   -0.2248 H   0  0  0  0  0  0  0  0  0  0  0  0
  1 11  1  0  0  0  0
  1  2  1  0  0  0  0
  3  1  1  0  0  0  0
  5 13  2  0  0  0  0
  6 14  1  0  0  0  0
  7 17  1  0  0  0  0
  8 22  1  0  0  0  0
  9 21  1  0  0  0  0
 10  1  1  0  0  0  0
 10 12  1  0  0  0  0
 11 19  1  0  0  0  0
 12  4  2  0  0  0  0
 13 11  1  0  0  0  0
 13 15  1  0  0  0  0
 14 29  1  0  0  0  0
 14 12  1  0  0  0  0
 15 26  1  0  0  0  0
 15  7  1  0  0  0  0
 16 33  1  0  0  0  0
 16  6  1  0  0  0  0
 17 25  1  0  0  0  0
 17 28  1  0  0  0  0
 18  8  1  1  0  0  0
 18  6  1  0  0  0  0
 18 10  1  0  0  0  0
 19  7  1  0  0  0  0
 19  9  1  6  0  0  0
 20  8  1  0  0  0  0
 23  9  1  0  0  0  0
 24 15  1  0  0  0  0
 27 17  1  0  0  0  0
 30 14  1  0  0  0  0
 31 16  1  0  0  0  0
 32 16  1  0  0  0  0
M  END
$$$$
