CSD_code = HIBSOB | q = 0 | S = 0 | Stoichiometry = C12H15Cl2N3OZn | MND = 4
 OpenBabel04212202043D

 34 36  0  0  1  0  0  0  0  0999 V2000
   10.9083    7.4776    3.5312 Zn  0  0  0  0  0  0  0  0  0  0  0  0
    9.4771    8.9783    2.8596 Cl  0  0  0  0  0  0  0  0  0  0  0  0
   12.5799    7.4787    5.0026 Cl  0  0  0  0  0  0  0  0  0  0  0  0
    9.7011    5.8369    4.2346 N   0  0  0  0  0  0  0  0  0  0  0  0
   11.5703    6.1425    2.0434 N   0  0  2  0  0  0  0  0  0  0  0  0
   11.6727    4.5270    3.8390 C   0  0  0  0  0  0  0  0  0  0  0  0
   12.2771    5.2439    4.4169 H   0  0  0  0  0  0  0  0  0  0  0  0
   12.0714    3.5217    3.9582 H   0  0  0  0  0  0  0  0  0  0  0  0
    8.4627    6.0361    4.6550 C   0  0  0  0  0  3  0  0  0  0  0  0
    8.0842    7.0426    4.5425 H   0  0  0  0  0  0  0  0  0  0  0  0
   11.6993    6.1503    0.7259 C   0  0  0  0  0  3  0  0  0  0  0  0
   11.5838    7.0612    0.1730 H   0  0  0  0  0  0  0  0  0  0  0  0
   10.2517    4.6291    4.3400 C   0  0  0  0  0  0  0  0  0  0  0  0
   11.7620    4.8906    2.4482 N   0  0  0  0  0  0  0  0  0  0  0  0
   11.9860    4.8657    0.2671 C   0  0  0  0  0  0  0  0  0  0  0  0
   12.1512    4.5529   -0.7425 H   0  0  0  0  0  0  0  0  0  0  0  0
    6.3027    5.3499    5.7128 C   0  0  0  0  0  0  0  0  0  0  0  0
    6.2779    6.3620    6.1085 H   0  0  0  0  0  0  0  0  0  0  0  0
    6.0174    4.6528    6.4972 H   0  0  0  0  0  0  0  0  0  0  0  0
    5.5721    5.2931    4.9054 H   0  0  0  0  0  0  0  0  0  0  0  0
    7.5480    2.7131    5.8592 O   0  0  0  0  0  0  0  0  0  0  0  0
   12.0138    4.0871    1.4050 C   0  0  0  0  0  0  0  0  0  0  0  0
   12.2028    3.0393    1.5266 H   0  0  0  0  0  0  0  0  0  0  0  0
    7.6753    5.0373    5.2083 C   0  0  0  0  0  0  0  0  0  0  0  0
    9.5591    3.5458    4.8765 C   0  0  0  0  0  0  0  0  0  0  0  0
   10.1781    2.1882    5.0162 C   0  0  0  0  0  0  0  0  0  0  0  0
   10.4436    1.7787    4.0423 H   0  0  0  0  0  0  0  0  0  0  0  0
    9.4743    1.5164    5.4995 H   0  0  0  0  0  0  0  0  0  0  0  0
   11.0753    2.2398    5.6299 H   0  0  0  0  0  0  0  0  0  0  0  0
    8.2392    3.7596    5.3024 C   0  0  0  0  0  0  0  0  0  0  0  0
    6.5191    2.1607    5.0577 C   0  0  0  0  0  0  0  0  0  0  0  0
    5.7941    2.9118    4.7376 H   0  0  0  0  0  0  0  0  0  0  0  0
    6.0241    1.4186    5.6810 H   0  0  0  0  0  0  0  0  0  0  0  0
    6.9387    1.6717    4.1717 H   0  0  0  0  0  0  0  0  0  0  0  0
  1  4  1  0  0  0  0
  1  3  1  0  0  0  0
  2  1  1  0  0  0  0
  4 13  1  0  0  0  0
  4  9  1  0  0  0  0
  5 11  1  6  0  0  0
  5 14  1  0  0  0  0
  5  1  1  0  0  0  0
  6  8  1  0  0  0  0
  6 13  1  0  0  0  0
  6  7  1  0  0  0  0
  9 24  1  0  0  0  0
 10  9  1  0  0  0  0
 12 11  1  0  0  0  0
 13 25  2  0  0  0  0
 14  6  1  0  0  0  0
 15 11  1  0  0  0  0
 15 22  2  0  0  0  0
 16 15  1  0  0  0  0
 17 18  1  0  0  0  0
 17 19  1  0  0  0  0
 20 17  1  0  0  0  0
 22 23  1  0  0  0  0
 22 14  1  0  0  0  0
 24 30  2  0  0  0  0
 24 17  1  0  0  0  0
 25 26  1  0  0  0  0
 25 30  1  0  0  0  0
 26 28  1  0  0  0  0
 26 29  1  0  0  0  0
 27 26  1  0  0  0  0
 30 21  1  0  0  0  0
 31 33  1  0  0  0  0
 31 21  1  0  0  0  0
 32 31  1  0  0  0  0
 34 31  1  0  0  0  0
M  END
$$$$
