CSD_code = HICMAH | q = 0 | S = 0 | Stoichiometry = C10H20Cl4N4O2Pt | MND = 6
 OpenBabel04212202043D

 41 40  0  0  1  0  0  0  0  0999 V2000
   -0.7584    3.2153    2.9637 Pt  0  0  0  0  0  0  0  0  0  0  0  0
   -0.7578    5.5796    2.9627 Cl  0  0  0  0  0  0  0  0  0  0  0  0
    1.2762    3.2576    1.7463 Cl  0  0  0  0  0  0  0  0  0  0  0  0
   -0.7564    0.8400    2.9610 Cl  0  0  0  0  0  0  0  0  0  0  0  0
    1.2303    3.0164    6.7206 O   0  0  0  0  0  0  0  0  0  0  0  0
    0.3708    3.3002    4.6260 N   0  0  0  0  0  0  0  0  0  0  0  0
    2.1550    4.0266    6.3541 N   0  0  0  0  0  0  0  0  0  0  0  0
    0.3532    2.7176    5.7622 C   0  0  1  0  0  3  0  0  0  0  0  0
   -0.6049    1.6636    6.1706 C   0  0  0  0  0  0  0  0  0  0  0  0
    2.9837    4.3654    7.2501 C   0  0  0  0  0  0  0  0  0  0  0  0
    3.0522    3.7797    8.6211 C   0  0  0  0  0  0  0  0  0  0  0  0
    3.9603    5.4241    6.8761 C   0  0  0  0  0  0  0  0  0  0  0  0
    1.1208    4.0002    4.5576 H   0  0  0  0  0  0  0  0  0  0  0  0
   -1.6229    2.0377    6.0596 H   0  0  0  0  0  0  0  0  0  0  0  0
   -0.5093    0.8075    5.5029 H   0  0  0  0  0  0  0  0  0  0  0  0
   -0.4151    1.3662    7.1975 H   0  0  0  0  0  0  0  0  0  0  0  0
    3.4550    2.7688    8.5578 H   0  0  0  0  0  0  0  0  0  0  0  0
    2.0524    3.7023    9.0451 H   0  0  0  0  0  0  0  0  0  0  0  0
    3.6856    4.3738    9.2720 H   0  0  0  0  0  0  0  0  0  0  0  0
    4.9737    5.0541    7.0217 H   0  0  0  0  0  0  0  0  0  0  0  0
    3.8222    6.2901    7.5215 H   0  0  0  0  0  0  0  0  0  0  0  0
    3.8246    5.7207    5.8406 H   0  0  0  0  0  0  0  0  0  0  0  0
   -2.7924    3.2563    4.1807 Cl  0  0  0  0  0  0  0  0  0  0  0  0
   -1.8857    3.3002    1.3003 N   0  0  0  0  0  0  0  0  0  0  0  0
   -1.8681    2.7174    0.1642 C   0  0  2  0  0  3  0  0  0  0  0  0
   -2.7453    3.0160   -0.7942 O   0  0  0  0  0  0  0  0  0  0  0  0
   -3.6699    4.0263   -0.4278 N   0  0  0  0  0  0  0  0  0  0  0  0
   -4.4986    4.3653   -1.3237 C   0  0  0  0  0  0  0  0  0  0  0  0
   -4.5674    3.7797   -2.6946 C   0  0  0  0  0  0  0  0  0  0  0  0
   -4.9702    2.7689   -2.6314 H   0  0  0  0  0  0  0  0  0  0  0  0
   -3.5676    3.7023   -3.1188 H   0  0  0  0  0  0  0  0  0  0  0  0
   -5.2009    4.3739   -3.3454 H   0  0  0  0  0  0  0  0  0  0  0  0
   -5.4750    5.4242   -0.9495 C   0  0  0  0  0  0  0  0  0  0  0  0
   -6.4885    5.0544   -1.0949 H   0  0  0  0  0  0  0  0  0  0  0  0
   -5.3368    6.2902   -1.5949 H   0  0  0  0  0  0  0  0  0  0  0  0
   -5.3390    5.7208    0.0860 H   0  0  0  0  0  0  0  0  0  0  0  0
   -0.9102    1.6631   -0.2439 C   0  0  0  0  0  0  0  0  0  0  0  0
    0.1079    2.0371   -0.1326 H   0  0  0  0  0  0  0  0  0  0  0  0
   -1.0061    0.8071    0.4238 H   0  0  0  0  0  0  0  0  0  0  0  0
   -1.0997    1.3658   -1.2709 H   0  0  0  0  0  0  0  0  0  0  0  0
   -2.6359    4.0001    1.3685 H   0  0  0  0  0  0  0  0  0  0  0  0
  1 23  1  0  0  0  0
  1  6  1  0  0  0  0
  2  1  1  0  0  0  0
  3  1  1  0  0  0  0
  4  1  1  0  0  0  0
  6  8  1  0  0  0  0
  7  5  1  0  0  0  0
  7 10  2  0  0  0  0
  8  9  1  0  0  0  0
  8  5  1  6  0  0  0
  9 16  1  0  0  0  0
 10 11  1  0  0  0  0
 11 18  1  0  0  0  0
 11 19  1  0  0  0  0
 12 20  1  0  0  0  0
 12 10  1  0  0  0  0
 12 21  1  0  0  0  0
 13  6  1  0  0  0  0
 14  9  1  0  0  0  0
 15  9  1  0  0  0  0
 17 11  1  0  0  0  0
 22 12  1  0  0  0  0
 24 41  1  0  0  0  0
 24  1  1  0  0  0  0
 25 26  1  1  0  0  0
 25 24  1  0  0  0  0
 26 27  1  0  0  0  0
 28 33  1  0  0  0  0
 28 27  2  0  0  0  0
 29 30  1  0  0  0  0
 29 28  1  0  0  0  0
 31 29  1  0  0  0  0
 32 29  1  0  0  0  0
 33 36  1  0  0  0  0
 34 33  1  0  0  0  0
 35 33  1  0  0  0  0
 37 38  1  0  0  0  0
 37 25  1  0  0  0  0
 37 39  1  0  0  0  0
 40 37  1  0  0  0  0
M  END
$$$$
