CSD_code = HICNIQ | q = 0 | S = 0 | Stoichiometry = C16H28Cl4N4O2Pt | MND = 6
 OpenBabel04212202043D

 55 56  0  0  1  0  0  0  0  0999 V2000
    0.0001    6.3074    8.9219 Pt  0  0  0  0  0  0  0  0  0  0  0  0
    1.1662    5.0605    7.2752 Cl  0  0  0  0  0  0  0  0  0  0  0  0
    0.0215    8.1686    7.4526 Cl  0  0  0  0  0  0  0  0  0  0  0  0
    3.6039    7.7813   10.6279 O   0  0  0  0  0  0  0  0  0  0  0  0
    1.8057    6.7265    9.7000 N   0  0  0  0  0  0  0  0  0  0  0  0
    4.2096    6.4970   10.6202 N   0  0  0  0  0  0  0  0  0  0  0  0
    2.3677    7.7897   10.1302 C   0  0  1  0  0  3  0  0  0  0  0  0
    1.7510    9.1368   10.1422 C   0  0  0  0  0  0  0  0  0  0  0  0
    5.3685    6.4116   11.1192 C   0  0  0  0  0  0  0  0  0  0  0  0
    6.1684    7.5041   11.7492 C   0  0  0  0  0  0  0  0  0  0  0  0
    6.5504    7.0949   13.1769 C   0  0  0  0  0  0  0  0  0  0  0  0
    7.2619    5.7461   13.1788 C   0  0  0  0  0  0  0  0  0  0  0  0
    6.3706    4.6745   12.5594 C   0  0  0  0  0  0  0  0  0  0  0  0
    5.9928    5.0551   11.1239 C   0  0  0  0  0  0  0  0  0  0  0  0
    2.4133    5.9009    9.7813 H   0  0  0  0  0  0  0  0  0  0  0  0
    1.4792    9.4190    9.1251 H   0  0  0  0  0  0  0  0  0  0  0  0
    0.8251    9.1054   10.7167 H   0  0  0  0  0  0  0  0  0  0  0  0
    2.4416    9.8589   10.5674 H   0  0  0  0  0  0  0  0  0  0  0  0
    5.6055    8.4381   11.7547 H   0  0  0  0  0  0  0  0  0  0  0  0
    7.0779    7.6499   11.1602 H   0  0  0  0  0  0  0  0  0  0  0  0
    5.6450    7.0294   13.7845 H   0  0  0  0  0  0  0  0  0  0  0  0
    7.1915    7.8631   13.6123 H   0  0  0  0  0  0  0  0  0  0  0  0
    7.5158    5.4672   14.2029 H   0  0  0  0  0  0  0  0  0  0  0  0
    8.1928    5.8217   12.6117 H   0  0  0  0  0  0  0  0  0  0  0  0
    5.4601    4.5677   13.1521 H   0  0  0  0  0  0  0  0  0  0  0  0
    6.8828    3.7115   12.5537 H   0  0  0  0  0  0  0  0  0  0  0  0
    6.8959    5.0863   10.5094 H   0  0  0  0  0  0  0  0  0  0  0  0
    5.3029    4.3286   10.6955 H   0  0  0  0  0  0  0  0  0  0  0  0
   -1.1665    7.5538   10.5686 Cl  0  0  0  0  0  0  0  0  0  0  0  0
   -0.0219    4.4467   10.3915 Cl  0  0  0  0  0  0  0  0  0  0  0  0
   -1.8056    5.8885    8.1441 N   0  0  0  0  0  0  0  0  0  0  0  0
   -2.3677    4.8253    7.7139 C   0  0  1  0  0  3  0  0  0  0  0  0
   -3.6039    4.8337    7.2160 O   0  0  0  0  0  0  0  0  0  0  0  0
   -4.2095    6.1180    7.2237 N   0  0  0  0  0  0  0  0  0  0  0  0
   -5.3685    6.2034    6.7248 C   0  0  0  0  0  0  0  0  0  0  0  0
   -6.1684    5.1109    6.0948 C   0  0  0  0  0  0  0  0  0  0  0  0
   -6.5504    5.5201    4.6671 C   0  0  0  0  0  0  0  0  0  0  0  0
   -7.2619    6.8689    4.6652 C   0  0  0  0  0  0  0  0  0  0  0  0
   -6.3707    7.9405    5.2846 C   0  0  0  0  0  0  0  0  0  0  0  0
   -5.9928    7.5599    6.7200 C   0  0  0  0  0  0  0  0  0  0  0  0
   -6.8958    7.5287    7.3346 H   0  0  0  0  0  0  0  0  0  0  0  0
   -5.3028    8.2864    7.1484 H   0  0  0  0  0  0  0  0  0  0  0  0
   -5.4601    8.0473    4.6918 H   0  0  0  0  0  0  0  0  0  0  0  0
   -6.8829    8.9035    5.2903 H   0  0  0  0  0  0  0  0  0  0  0  0
   -7.5158    7.1478    3.6411 H   0  0  0  0  0  0  0  0  0  0  0  0
   -8.1928    6.7933    5.2323 H   0  0  0  0  0  0  0  0  0  0  0  0
   -5.6450    5.5856    4.0595 H   0  0  0  0  0  0  0  0  0  0  0  0
   -7.1915    4.7519    4.2316 H   0  0  0  0  0  0  0  0  0  0  0  0
   -5.6055    4.1769    6.0893 H   0  0  0  0  0  0  0  0  0  0  0  0
   -7.0779    4.9652    6.6838 H   0  0  0  0  0  0  0  0  0  0  0  0
   -1.7510    3.4782    7.7019 C   0  0  0  0  0  0  0  0  0  0  0  0
   -1.4794    3.1960    8.7190 H   0  0  0  0  0  0  0  0  0  0  0  0
   -0.8249    3.5097    7.1276 H   0  0  0  0  0  0  0  0  0  0  0  0
   -2.4414    2.7561    7.2765 H   0  0  0  0  0  0  0  0  0  0  0  0
   -2.4132    6.7141    8.0627 H   0  0  0  0  0  0  0  0  0  0  0  0
  1  5  1  0  0  0  0
  1 30  1  0  0  0  0
  1 29  1  0  0  0  0
  2  1  1  0  0  0  0
  3  1  1  0  0  0  0
  5 15  1  0  0  0  0
  5  7  1  0  0  0  0
  6  4  1  0  0  0  0
  6  9  2  0  0  0  0
  7  8  1  0  0  0  0
  7  4  1  1  0  0  0
  8 18  1  0  0  0  0
  8 17  1  0  0  0  0
  9 14  1  0  0  0  0
  9 10  1  0  0  0  0
 10 19  1  0  0  0  0
 10 11  1  0  0  0  0
 11 12  1  0  0  0  0
 11 22  1  0  0  0  0
 11 21  1  0  0  0  0
 12 23  1  0  0  0  0
 13 25  1  0  0  0  0
 13 12  1  0  0  0  0
 14 13  1  0  0  0  0
 16  8  1  0  0  0  0
 20 10  1  0  0  0  0
 24 12  1  0  0  0  0
 26 13  1  0  0  0  0
 27 14  1  0  0  0  0
 28 14  1  0  0  0  0
 31  1  1  0  0  0  0
 32 33  1  6  0  0  0
 32 31  1  0  0  0  0
 33 34  1  0  0  0  0
 35 34  2  0  0  0  0
 36 50  1  0  0  0  0
 36 35  1  0  0  0  0
 37 36  1  0  0  0  0
 38 37  1  0  0  0  0
 38 46  1  0  0  0  0
 38 39  1  0  0  0  0
 39 44  1  0  0  0  0
 39 40  1  0  0  0  0
 40 35  1  0  0  0  0
 40 42  1  0  0  0  0
 40 41  1  0  0  0  0
 43 39  1  0  0  0  0
 45 38  1  0  0  0  0
 47 37  1  0  0  0  0
 48 37  1  0  0  0  0
 49 36  1  0  0  0  0
 51 32  1  0  0  0  0
 51 52  1  0  0  0  0
 53 51  1  0  0  0  0
 54 51  1  0  0  0  0
 55 31  1  0  0  0  0
M  END
$$$$
