CSD_code = HICSUH | q = 0 | S = 0 | Stoichiometry = C12H12Cl2N5O3Rh | MND = 6
 OpenBabel04212202043D

 35 37  0  0  0  0  0  0  0  0999 V2000
    2.4982    9.5617    8.2404 Rh  0  0  0  0  0  0  0  0  0  0  0  0
    4.0618   11.3145    8.4850 Cl  0  0  0  0  0  0  0  0  0  0  0  0
    0.7083    8.5081    7.5278 Cl  0  0  0  0  0  0  0  0  0  0  0  0
    0.1849   14.4455    7.7837 N   0  0  0  0  0  0  0  0  0  0  0  0
    0.0566   13.1111    9.7086 N   0  0  0  0  0  0  0  0  0  0  0  0
    1.1152   13.6451    5.8051 N   0  0  0  0  0  0  0  0  0  0  0  0
    1.7294   11.1980    7.1134 N   0  0  0  0  0  0  0  0  0  0  0  0
    2.0461   11.2715    5.8807 N   0  0  0  0  0  2  0  0  0  0  0  0
   -0.7343   15.2364    9.7017 O   0  0  0  0  0  0  0  0  0  0  0  0
    0.8385   11.0004    9.7283 O   0  0  0  0  0  0  0  0  0  0  0  0
    3.2179    8.9431    9.5787 O   0  0  0  0  0  1  0  0  0  0  0  0
   -0.0821   15.7245    7.1507 C   0  0  0  0  0  0  0  0  0  0  0  0
   -0.2020   14.3189    9.1260 C   0  0  0  0  0  0  0  0  0  0  0  0
   -0.3052   12.9294   11.1066 C   0  0  0  0  0  0  0  0  0  0  0  0
    0.6657   12.0257    9.0936 C   0  0  0  0  0  0  0  0  0  0  0  0
    1.0457   12.2169    7.7076 C   0  0  0  0  0  0  0  0  0  0  0  0
    0.7876   13.4508    7.0803 C   0  0  0  0  0  0  0  0  0  0  0  0
    2.8125   10.2274    5.4405 C   0  0  0  0  0  0  0  0  0  0  0  0
    3.1855    9.2412    6.3731 C   0  0  0  0  0  0  0  0  0  0  0  0
    3.9700    8.1822    5.9649 C   0  0  0  0  0  0  0  0  0  0  0  0
    4.3894    8.1085    4.6411 C   0  0  0  0  0  0  0  0  0  0  0  0
    4.0210    9.0815    3.7219 C   0  0  0  0  0  0  0  0  0  0  0  0
    3.2329   10.1440    4.1111 C   0  0  0  0  0  0  0  0  0  0  0  0
    0.8491   16.2157    6.8637 H   0  0  0  0  0  0  0  0  0  0  0  0
   -0.7294   15.5944    6.2826 H   0  0  0  0  0  0  0  0  0  0  0  0
   -0.5929   16.3438    7.8870 H   0  0  0  0  0  0  0  0  0  0  0  0
   -0.6536   13.8812   11.4976 H   0  0  0  0  0  0  0  0  0  0  0  0
   -1.0888   12.1764   11.1858 H   0  0  0  0  0  0  0  0  0  0  0  0
    0.5684   12.5813   11.6560 H   0  0  0  0  0  0  0  0  0  0  0  0
    1.6181   12.8509    5.3806 H   0  0  0  0  0  0  0  0  0  0  0  0
    1.0737   14.5548    5.3810 H   0  0  0  0  0  0  0  0  0  0  0  0
    4.2619    7.4127    6.6671 H   0  0  0  0  0  0  0  0  0  0  0  0
    5.0079    7.2807    4.3288 H   0  0  0  0  0  0  0  0  0  0  0  0
    4.3528    9.0051    2.6977 H   0  0  0  0  0  0  0  0  0  0  0  0
    2.9315   10.9093    3.4127 H   0  0  0  0  0  0  0  0  0  0  0  0
  1  2  1  0  0  0  0
  1 11  1  0  0  0  0
  3  1  1  0  0  0  0
  4 13  1  0  0  0  0
  5 14  1  0  0  0  0
  6 17  1  0  0  0  0
  7 16  1  0  0  0  0
  7  1  1  0  0  0  0
  8  7  1  0  0  0  0
 12  4  1  0  0  0  0
 12 26  1  0  0  0  0
 13  9  2  0  0  0  0
 13  5  1  0  0  0  0
 14 28  1  0  0  0  0
 14 27  1  0  0  0  0
 14 29  1  0  0  0  0
 15  5  1  0  0  0  0
 15 10  2  0  0  0  0
 16 15  1  0  0  0  0
 17 16  2  0  0  0  0
 17  4  1  0  0  0  0
 18  8  1  0  0  0  0
 18 19  1  0  0  0  0
 19  1  1  0  0  0  0
 20 19  2  0  0  0  0
 20 32  1  0  0  0  0
 21 20  1  0  0  0  0
 22 23  1  0  0  0  0
 22 21  2  0  0  0  0
 23 18  2  0  0  0  0
 24 12  1  0  0  0  0
 25 12  1  0  0  0  0
 30  6  1  0  0  0  0
 31  6  1  0  0  0  0
 33 21  1  0  0  0  0
 34 22  1  0  0  0  0
 35 23  1  0  0  0  0
M  END
$$$$
