CSD_code = HICXEY | q = 0 | S = 0 | Stoichiometry = C28H29BrN2O2Pd | MND = 4
 OpenBabel04212202043D

 63 67  0  0  0  0  0  0  0  0999 V2000
    9.9301    4.1890   12.9799 Pd  0  0  2  0  0  0  0  0  0  0  0  0
    8.8905    2.6532   13.9575 N   0  0  0  0  0  4  0  0  0  0  0  0
    9.3739    2.5122   14.8493 H   0  0  0  0  0  0  0  0  0  0  0  0
    7.9296    2.9434   14.1508 H   0  0  0  0  0  0  0  0  0  0  0  0
   10.9761    5.6158   12.1412 N   0  0  0  0  0  0  0  0  0  0  0  0
   11.9660    2.7352   12.8663 Br  0  0  0  0  0  0  0  0  0  0  0  0
    8.4430    5.5283   13.3312 C   0  0  0  0  0  0  0  0  0  0  0  0
    8.1297    5.9286   14.6260 C   0  0  0  0  0  0  0  0  0  0  0  0
    8.5734    5.4179   15.4802 H   0  0  0  0  0  0  0  0  0  0  0  0
    7.2549    6.9810   14.8610 C   0  0  0  0  0  0  0  0  0  0  0  0
    7.0172    7.2683   15.8761 H   0  0  0  0  0  0  0  0  0  0  0  0
    6.6973    7.6699   13.7987 C   0  0  0  0  0  0  0  0  0  0  0  0
    6.0252    8.4968   13.9802 H   0  0  0  0  0  0  0  0  0  0  0  0
    7.0048    7.2981   12.5014 C   0  0  0  0  0  0  0  0  0  0  0  0
    6.5734    7.8313   11.6637 H   0  0  0  0  0  0  0  0  0  0  0  0
    7.8577    6.2277   12.2684 C   0  0  0  0  0  0  0  0  0  0  0  0
    8.1991    5.7769   10.9024 C   0  0  0  0  0  0  0  0  0  0  0  0
    8.8659    6.6089   10.0123 C   0  0  0  0  0  0  0  0  0  0  0  0
    9.0674    7.6325   10.2985 H   0  0  0  0  0  0  0  0  0  0  0  0
    9.2852    6.1335    8.7814 C   0  0  0  0  0  0  0  0  0  0  0  0
    9.8001    6.7914    8.0966 H   0  0  0  0  0  0  0  0  0  0  0  0
    9.0530    4.8127    8.4370 C   0  0  0  0  0  0  0  0  0  0  0  0
    9.3929    4.4334    7.4845 H   0  0  0  0  0  0  0  0  0  0  0  0
    8.3565    3.9827    9.2991 C   0  0  0  0  0  0  0  0  0  0  0  0
    8.1234    2.9696    9.0035 H   0  0  0  0  0  0  0  0  0  0  0  0
    7.9091    4.4514   10.5324 C   0  0  0  0  0  0  0  0  0  0  0  0
    6.9220    3.6638   11.3098 C   0  0  0  0  0  0  0  0  0  0  0  0
    5.6769    4.2748   11.5002 C   0  0  0  0  0  0  0  0  0  0  0  0
    5.5521    5.2860   11.1501 H   0  0  0  0  0  0  0  0  0  0  0  0
    4.6241    3.6200   12.1037 C   0  0  0  0  0  0  0  0  0  0  0  0
    4.7883    2.2694   12.4849 C   0  0  0  0  0  0  0  0  0  0  0  0
    6.0200    1.6728   12.3035 C   0  0  0  0  0  0  0  0  0  0  0  0
    6.1657    0.6454   12.5996 H   0  0  0  0  0  0  0  0  0  0  0  0
    7.1022    2.3569   11.7436 C   0  0  0  0  0  0  0  0  0  0  0  0
    3.2251    5.5352   12.0853 C   0  0  0  0  0  0  0  0  0  0  0  0
    3.9579    6.1491   12.6200 H   0  0  0  0  0  0  0  0  0  0  0  0
    2.2233    5.7757   12.4377 H   0  0  0  0  0  0  0  0  0  0  0  0
    3.2897    5.7460   11.0123 H   0  0  0  0  0  0  0  0  0  0  0  0
    3.4037    4.1675   12.3565 O   0  0  0  0  0  0  0  0  0  0  0  0
    3.7778    0.3069   13.3663 C   0  0  0  0  0  0  0  0  0  0  0  0
    4.0344   -0.3141   12.5014 H   0  0  0  0  0  0  0  0  0  0  0  0
    2.7877    0.0311   13.7251 H   0  0  0  0  0  0  0  0  0  0  0  0
    4.5088    0.1358   14.1646 H   0  0  0  0  0  0  0  0  0  0  0  0
    3.6913    1.6656   13.0222 O   0  0  0  0  0  0  0  0  0  0  0  0
    8.4492    1.6835   11.7506 C   0  0  0  0  0  0  0  0  0  0  0  0
    9.2090    2.3401   11.2958 H   0  0  0  0  0  0  0  0  0  0  0  0
    8.4210    0.7431   11.1959 H   0  0  0  0  0  0  0  0  0  0  0  0
    8.8807    1.3969   13.1955 C   0  0  0  0  0  0  0  0  0  0  0  0
    8.2059    0.6677   13.6623 H   0  0  0  0  0  0  0  0  0  0  0  0
    9.8921    0.9816   13.1917 H   0  0  0  0  0  0  0  0  0  0  0  0
   11.3482    6.7160   12.7918 C   0  0  0  0  0  3  0  0  0  0  0  0
   10.8962    6.8866   13.7646 H   0  0  0  0  0  0  0  0  0  0  0  0
   12.2656    7.6093   12.2716 C   0  0  0  0  0  0  0  0  0  0  0  0
   12.5405    8.4836   12.8415 H   0  0  0  0  0  0  0  0  0  0  0  0
   12.8322    7.3724   11.0233 C   0  0  0  0  0  0  0  0  0  0  0  0
   12.4285    6.2189   10.3562 C   0  0  0  0  0  0  0  0  0  0  0  0
   12.8351    5.9743    9.3876 H   0  0  0  0  0  0  0  0  0  0  0  0
   11.5110    5.3730   10.9444 C   0  0  0  0  0  0  0  0  0  0  0  0
   11.1997    4.4591   10.4452 H   0  0  0  0  0  0  0  0  0  0  0  0
   13.8485    8.2939   10.4348 C   0  0  0  0  0  0  0  0  0  0  0  0
   14.8487    7.9135   10.6440 H   0  0  0  0  0  0  0  0  0  0  0  0
   13.7678    9.2897   10.8632 H   0  0  0  0  0  0  0  0  0  0  0  0
   13.7346    8.3556    9.3550 H   0  0  0  0  0  0  0  0  0  0  0  0
  1  6  1  1  0  0  0
  1  7  1  0  0  0  0
  1  2  1  0  0  0  0
  2  4  1  0  0  0  0
  2  3  1  0  0  0  0
  5 51  1  0  0  0  0
  5  1  1  0  0  0  0
  7  8  1  0  0  0  0
  8 10  2  0  0  0  0
  8  9  1  0  0  0  0
 10 11  1  0  0  0  0
 12 13  1  0  0  0  0
 12 10  1  0  0  0  0
 14 12  2  0  0  0  0
 15 14  1  0  0  0  0
 16 14  1  0  0  0  0
 16  7  2  0  0  0  0
 17 16  1  0  0  0  0
 18 19  1  0  0  0  0
 18 17  2  0  0  0  0
 20 18  1  0  0  0  0
 21 20  1  0  0  0  0
 22 20  2  0  0  0  0
 22 24  1  0  0  0  0
 23 22  1  0  0  0  0
 24 26  2  0  0  0  0
 25 24  1  0  0  0  0
 26 17  1  0  0  0  0
 26 27  1  0  0  0  0
 27 28  2  0  0  0  0
 27 34  1  0  0  0  0
 28 30  1  0  0  0  0
 29 28  1  0  0  0  0
 30 39  1  0  0  0  0
 30 31  2  0  0  0  0
 31 44  1  0  0  0  0
 32 31  1  0  0  0  0
 32 33  1  0  0  0  0
 34 45  1  0  0  0  0
 34 32  2  0  0  0  0
 35 39  1  0  0  0  0
 35 37  1  0  0  0  0
 35 36  1  0  0  0  0
 38 35  1  0  0  0  0
 40 42  1  0  0  0  0
 40 43  1  0  0  0  0
 41 40  1  0  0  0  0
 44 40  1  0  0  0  0
 45 48  1  0  0  0  0
 46 45  1  0  0  0  0
 47 45  1  0  0  0  0
 48 49  1  0  0  0  0
 48  2  1  0  0  0  0
 50 48  1  0  0  0  0
 51 52  1  0  0  0  0
 53 51  1  0  0  0  0
 53 54  1  0  0  0  0
 55 53  2  0  0  0  0
 56 58  2  0  0  0  0
 56 55  1  0  0  0  0
 57 56  1  0  0  0  0
 58  5  1  0  0  0  0
 59 58  1  0  0  0  0
 60 61  1  0  0  0  0
 60 62  1  0  0  0  0
 60 55  1  0  0  0  0
 63 60  1  0  0  0  0
M  END
$$$$
