CSD_code = HIDKEL | q = 0 | S = 0 | Stoichiometry = C23H23I2N4O2Rh | MND = 6
 OpenBabel04212202043D

 55 58  0  0  1  0  0  0  0  0999 V2000
    8.4278   11.5813    5.3733 I   0  0  0  0  0 15  0  0  0  0  0  0
    5.5007    7.2969    4.0806 I   0  0  0  0  0 15  0  0  0  0  0  0
    6.9663    9.4441    4.7237 Rh  0  0  2  0  0  0  0  0  0  0  0  0
    8.3017    8.2232    5.8478 O   0  0  0  0  0  0  0  0  0  0  0  0
    6.5702    9.1224    6.7923 O   0  0  0  0  0  0  0  0  0  0  0  0
    4.2611   10.7411    4.5476 N   0  0  0  0  0  0  0  0  0  0  0  0
    5.5448   11.4144    2.9615 N   0  0  0  0  0  0  0  0  0  0  0  0
    8.4535    8.5686    2.2619 N   0  0  0  0  0  0  0  0  0  0  0  0
    7.4385   10.4333    1.9298 N   0  0  0  0  0  0  0  0  0  0  0  0
    5.5025   10.6144    4.0526 C   0  0  0  0  0  0  0  0  0  0  0  0
    3.5346   11.6136    3.7844 C   0  0  0  0  0  0  0  0  0  0  0  0
    4.3360   12.0376    2.7838 C   0  0  0  0  0  0  0  0  0  0  0  0
    7.6806    9.4856    2.8656 C   0  0  1  0  0  3  0  0  0  0  0  0
    8.7008    8.9371    0.9680 C   0  0  0  0  0  0  0  0  0  0  0  0
    8.0623   10.1073    0.7526 C   0  0  0  0  0  0  0  0  0  0  0  0
    6.7188   11.6545    2.1678 C   0  0  0  0  0  0  0  0  0  0  0  0
    3.7260   10.1451    5.7555 C   0  0  0  0  0  0  0  0  0  0  0  0
    3.4562   11.2273    6.7692 C   0  0  0  0  0  0  0  0  0  0  0  0
    4.5292   11.9051    7.3342 C   0  0  0  0  0  0  0  0  0  0  0  0
    4.3102   12.9267    8.2390 C   0  0  0  0  0  0  0  0  0  0  0  0
    3.0158   13.2760    8.5886 C   0  0  0  0  0  0  0  0  0  0  0  0
    1.9434   12.6000    8.0329 C   0  0  0  0  0  0  0  0  0  0  0  0
    2.1622   11.5812    7.1210 C   0  0  0  0  0  0  0  0  0  0  0  0
    9.0499    7.3872    2.8532 C   0  0  0  0  0  0  0  0  0  0  0  0
   10.5446    7.5676    2.9273 C   0  0  0  0  0  0  0  0  0  0  0  0
   11.0698    8.4835    3.8301 C   0  0  0  0  0  0  0  0  0  0  0  0
   12.4338    8.6983    3.8918 C   0  0  0  0  0  0  0  0  0  0  0  0
   13.2836    7.9963    3.0525 C   0  0  0  0  0  0  0  0  0  0  0  0
   12.7659    7.0787    2.1548 C   0  0  0  0  0  0  0  0  0  0  0  0
   11.3990    6.8680    2.0881 C   0  0  0  0  0  0  0  0  0  0  0  0
    7.5993    8.4042    6.8752 C   0  0  1  0  0  3  0  0  0  0  0  0
    7.9736    7.7552    8.1788 C   0  0  0  0  0  0  0  0  0  0  0  0
    2.5193   11.8588    4.0170 H   0  0  0  0  0  0  0  0  0  0  0  0
    4.1567   12.7190    1.9785 H   0  0  0  0  0  0  0  0  0  0  0  0
    9.3065    8.3428    0.3160 H   0  0  0  0  0  0  0  0  0  0  0  0
    8.0021   10.7270   -0.1175 H   0  0  0  0  0  0  0  0  0  0  0  0
    7.3763   12.3649    2.6990 H   0  0  0  0  0  0  0  0  0  0  0  0
    6.4203   12.0878    1.2079 H   0  0  0  0  0  0  0  0  0  0  0  0
    2.8126    9.5993    5.5032 H   0  0  0  0  0  0  0  0  0  0  0  0
    4.4603    9.4441    6.1584 H   0  0  0  0  0  0  0  0  0  0  0  0
    5.5369   11.6187    7.0715 H   0  0  0  0  0  0  0  0  0  0  0  0
    5.1497   13.4486    8.6729 H   0  0  0  0  0  0  0  0  0  0  0  0
    2.8428   14.0725    9.2972 H   0  0  0  0  0  0  0  0  0  0  0  0
    0.9331   12.8665    8.3073 H   0  0  0  0  0  0  0  0  0  0  0  0
    1.3225   11.0530    6.6902 H   0  0  0  0  0  0  0  0  0  0  0  0
    8.6484    7.2550    3.8601 H   0  0  0  0  0  0  0  0  0  0  0  0
    8.7832    6.5184    2.2450 H   0  0  0  0  0  0  0  0  0  0  0  0
   10.4050    9.0163    4.4934 H   0  0  0  0  0  0  0  0  0  0  0  0
   12.8335    9.4122    4.5962 H   0  0  0  0  0  0  0  0  0  0  0  0
   14.3498    8.1613    3.1009 H   0  0  0  0  0  0  0  0  0  0  0  0
   13.4265    6.5259    1.5030 H   0  0  0  0  0  0  0  0  0  0  0  0
   10.9977    6.1478    1.3881 H   0  0  0  0  0  0  0  0  0  0  0  0
    7.4629    6.7952    8.2445 H   0  0  0  0  0  0  0  0  0  0  0  0
    7.6523    8.3811    9.0069 H   0  0  0  0  0  0  0  0  0  0  0  0
    9.0467    7.5879    8.2121 H   0  0  0  0  0  0  0  0  0  0  0  0
  3 10  2  6  0  0  0
  3  4  1  0  0  0  0
  3  5  1  0  0  0  0
  4 31  1  0  0  0  0
  5 31  1  0  0  0  0
  6 17  1  0  0  0  0
  7 10  1  0  0  0  0
  8 24  1  0  0  0  0
  8 13  1  0  0  0  0
  9 16  1  0  0  0  0
 10  6  1  0  0  0  0
 11 33  1  0  0  0  0
 11  6  1  0  0  0  0
 12  7  1  0  0  0  0
 12 11  2  0  0  0  0
 13  9  1  6  0  0  0
 13  3  1  0  0  0  0
 14  8  1  0  0  0  0
 15 14  2  0  0  0  0
 15  9  1  0  0  0  0
 16 37  1  0  0  0  0
 16  7  1  0  0  0  0
 17 40  1  0  0  0  0
 17 18  1  0  0  0  0
 18 23  2  0  0  0  0
 18 19  1  0  0  0  0
 19 20  2  0  0  0  0
 20 21  1  0  0  0  0
 20 42  1  0  0  0  0
 21 43  1  0  0  0  0
 22 44  1  0  0  0  0
 22 21  2  0  0  0  0
 23 22  1  0  0  0  0
 24 25  1  0  0  0  0
 24 46  1  0  0  0  0
 25 26  1  0  0  0  0
 26 27  2  0  0  0  0
 26 48  1  0  0  0  0
 27 49  1  0  0  0  0
 28 50  1  0  0  0  0
 28 27  1  0  0  0  0
 29 28  2  0  0  0  0
 30 29  1  0  0  0  0
 30 25  2  0  0  0  0
 31 32  1  6  0  0  0
 32 55  1  0  0  0  0
 32 53  1  0  0  0  0
 32 54  1  0  0  0  0
 34 12  1  0  0  0  0
 35 14  1  0  0  0  0
 36 15  1  0  0  0  0
 38 16  1  0  0  0  0
 39 17  1  0  0  0  0
 41 19  1  0  0  0  0
 45 23  1  0  0  0  0
 47 24  1  0  0  0  0
 51 29  1  0  0  0  0
 52 30  1  0  0  0  0
M  END
$$$$
