CSD_code = HIDLIR | q = 0 | S = 0 | Stoichiometry = C21H28ClNO2PtS | MND = 4
 OpenBabel04212202043D

 55 57  0  0  1  0  0  0  0  0999 V2000
    3.7913   12.7322   -2.7294 Pt  0  0  1  0  0  0  0  0  0  0  0  0
    2.7974   14.2436   -1.3457 Cl  0  0  0  0  0  0  0  0  0  0  0  0
    1.8102   12.6029   -3.8257 S   0  0  0  0  0  0  0  0  0  0  0  0
    4.5070   11.4501   -4.1567 O   0  0  0  0  0  0  0  0  0  0  0  0
    5.5211   12.7486   -1.7771 N   0  0  0  0  0  0  0  0  0  0  0  0
    5.7069   10.9905   -4.2281 C   0  0  1  0  0  3  0  0  0  0  0  0
    1.0308   11.4376   -3.4568 O   0  0  0  0  0  1  0  0  0  0  0  0
    6.0167   10.1220   -5.3065 C   0  0  0  0  0  0  0  0  0  0  0  0
    5.2185    9.8908   -5.9958 H   0  0  0  0  0  0  0  0  0  0  0  0
    7.2660    9.5930   -5.4726 C   0  0  0  0  0  0  0  0  0  0  0  0
    7.4632    8.9349   -6.3062 H   0  0  0  0  0  0  0  0  0  0  0  0
    8.2931    9.8947   -4.5709 C   0  0  0  0  0  0  0  0  0  0  0  0
    9.2761    9.4728   -4.7099 H   0  0  0  0  0  0  0  0  0  0  0  0
    8.0330   10.7236   -3.5152 C   0  0  0  0  0  0  0  0  0  0  0  0
    8.8164   10.9613   -2.8090 H   0  0  0  0  0  0  0  0  0  0  0  0
    6.7572   11.2908   -3.3079 C   0  0  0  0  0  0  0  0  0  0  0  0
    6.5843   12.1152   -2.1654 C   0  0  0  0  0  0  0  0  0  0  0  0
    7.4669   12.2153   -1.5308 H   0  0  0  0  0  0  0  0  0  0  0  0
    5.6000   13.4388   -0.5329 C   0  0  0  0  0  0  0  0  0  0  0  0
    5.1308   12.7929    0.6167 C   0  0  0  0  0  0  0  0  0  0  0  0
    5.2935   13.4319    1.8365 C   0  0  0  0  0  0  0  0  0  0  0  0
    4.9551   12.9530    2.7411 H   0  0  0  0  0  0  0  0  0  0  0  0
    5.8814   14.6815    1.9088 C   0  0  0  0  0  0  0  0  0  0  0  0
    6.0059   15.1617    2.8680 H   0  0  0  0  0  0  0  0  0  0  0  0
    6.2845   15.3284    0.7573 C   0  0  0  0  0  0  0  0  0  0  0  0
    6.7094   16.3179    0.8233 H   0  0  0  0  0  0  0  0  0  0  0  0
    6.1456   14.7227   -0.4841 C   0  0  0  0  0  0  0  0  0  0  0  0
    4.4667   11.4389    0.5071 C   0  0  0  0  0  0  0  0  0  0  0  0
    4.0585   11.3377   -0.5153 H   0  0  0  0  0  0  0  0  0  0  0  0
    5.4944   10.3259    0.7281 C   0  0  0  0  0  0  0  0  0  0  0  0
    5.0117    9.3534    0.6678 H   0  0  0  0  0  0  0  0  0  0  0  0
    5.9521   10.4264    1.7104 H   0  0  0  0  0  0  0  0  0  0  0  0
    6.2794   10.3659   -0.0245 H   0  0  0  0  0  0  0  0  0  0  0  0
    3.2909   11.2916    1.4712 C   0  0  0  0  0  0  0  0  0  0  0  0
    2.7244   10.3972    1.2229 H   0  0  0  0  0  0  0  0  0  0  0  0
    2.6321   12.1518    1.3870 H   0  0  0  0  0  0  0  0  0  0  0  0
    3.6279   11.2021    2.5010 H   0  0  0  0  0  0  0  0  0  0  0  0
    6.5192   15.4570   -1.7505 C   0  0  0  0  0  0  0  0  0  0  0  0
    6.2440   14.8343   -2.6111 H   0  0  0  0  0  0  0  0  0  0  0  0
    5.7145   16.7544   -1.8538 C   0  0  0  0  0  0  0  0  0  0  0  0
    5.8913   17.2286   -2.8167 H   0  0  0  0  0  0  0  0  0  0  0  0
    5.9937   17.4535   -1.0703 H   0  0  0  0  0  0  0  0  0  0  0  0
    4.6544   16.5327   -1.7592 H   0  0  0  0  0  0  0  0  0  0  0  0
    8.0230   15.7286   -1.8112 C   0  0  0  0  0  0  0  0  0  0  0  0
    8.2734   16.2463   -2.7345 H   0  0  0  0  0  0  0  0  0  0  0  0
    8.5840   14.7968   -1.7765 H   0  0  0  0  0  0  0  0  0  0  0  0
    8.3361   16.3481   -0.9745 H   0  0  0  0  0  0  0  0  0  0  0  0
    0.6852   14.0355   -3.7802 C   0  0  0  0  0  0  0  0  0  0  0  0
    0.3970   14.1998   -2.7478 H   0  0  0  0  0  0  0  0  0  0  0  0
   -0.1839   13.8033   -4.3846 H   0  0  0  0  0  0  0  0  0  0  0  0
    1.2174   14.9014   -4.1556 H   0  0  0  0  0  0  0  0  0  0  0  0
    2.0487   12.5379   -5.6311 C   0  0  0  0  0  0  0  0  0  0  0  0
    2.7376   11.7252   -5.8339 H   0  0  0  0  0  0  0  0  0  0  0  0
    2.4749   13.4808   -5.9537 H   0  0  0  0  0  0  0  0  0  0  0  0
    1.0924   12.3498   -6.1048 H   0  0  0  0  0  0  0  0  0  0  0  0
  1  5  1  0  0  0  0
  1  2  1  6  0  0  0
  3 48  1  0  0  0  0
  3  7  1  0  0  0  0
  3  1  1  0  0  0  0
  4  1  1  0  0  0  0
  5 19  1  0  0  0  0
  6  8  1  6  0  0  0
  6  4  1  0  0  0  0
  6 16  1  0  0  0  0
  9  8  1  0  0  0  0
 10  8  2  0  0  0  0
 10 12  1  0  0  0  0
 11 10  1  0  0  0  0
 12 14  2  0  0  0  0
 13 12  1  0  0  0  0
 14 16  1  0  0  0  0
 14 15  1  0  0  0  0
 16 17  2  0  0  0  0
 17  5  1  0  0  0  0
 17 18  1  0  0  0  0
 19 27  2  0  0  0  0
 19 20  1  0  0  0  0
 20 21  2  0  0  0  0
 21 23  1  0  0  0  0
 21 22  1  0  0  0  0
 23 24  1  0  0  0  0
 25 26  1  0  0  0  0
 25 23  2  0  0  0  0
 27 25  1  0  0  0  0
 28 20  1  0  0  0  0
 28 30  1  0  0  0  0
 28 34  1  0  0  0  0
 29 28  1  0  0  0  0
 30 32  1  0  0  0  0
 31 30  1  0  0  0  0
 33 30  1  0  0  0  0
 34 37  1  0  0  0  0
 35 34  1  0  0  0  0
 36 34  1  0  0  0  0
 38 27  1  0  0  0  0
 39 38  1  0  0  0  0
 40 43  1  0  0  0  0
 40 38  1  0  0  0  0
 40 42  1  0  0  0  0
 41 40  1  0  0  0  0
 44 46  1  0  0  0  0
 44 38  1  0  0  0  0
 44 47  1  0  0  0  0
 45 44  1  0  0  0  0
 48 49  1  0  0  0  0
 50 48  1  0  0  0  0
 51 48  1  0  0  0  0
 52  3  1  0  0  0  0
 53 52  1  0  0  0  0
 54 52  1  0  0  0  0
 55 52  1  0  0  0  0
M  END
$$$$
