CSD_code = HIDLOX | q = 0 | S = 0 | Stoichiometry = C15H16ClNO2PtS | MND = 4
 OpenBabel04212202043D

 37 39  0  0  0  0  0  0  0  0999 V2000
    1.0872    2.0511    2.0943 Pt  0  0  2  0  0  0  0  0  0  0  0  0
    1.2652    0.6081    3.8197 Cl  0  0  0  0  0  0  0  0  0  0  0  0
    3.1991    1.3616    1.5987 S   0  0  0  0  0  0  0  0  0  0  0  0
   -0.6547    2.7116    2.8768 O   0  0  0  0  0  0  0  0  0  0  0  0
    3.9181    1.9943    0.5018 O   0  0  0  0  0  1  0  0  0  0  0  0
    0.8207    3.2539    0.5066 N   0  0  0  0  0  0  0  0  0  0  0  0
    0.0553    4.2993    0.4955 C   0  0  0  0  0  0  0  0  0  0  0  0
    0.0300    4.8986   -0.4161 H   0  0  0  0  0  0  0  0  0  0  0  0
   -0.8344    4.7092    1.5219 C   0  0  0  0  0  0  0  0  0  0  0  0
   -1.4951    5.9469    1.3742 C   0  0  0  0  0  3  0  0  0  0  0  0
   -1.2355    6.5645    0.5257 H   0  0  0  0  0  0  0  0  0  0  0  0
   -2.4318    6.3760    2.2732 C   0  0  0  0  0  0  0  0  0  0  0  0
   -2.9166    7.3315    2.1482 H   0  0  0  0  0  0  0  0  0  0  0  0
   -2.7651    5.5562    3.3580 C   0  0  0  0  0  0  0  0  0  0  0  0
   -3.5110    5.8857    4.0662 H   0  0  0  0  0  0  0  0  0  0  0  0
   -2.1576    4.3430    3.5278 C   0  0  0  0  0  0  0  0  0  0  0  0
   -2.4067    3.7000    4.3573 H   0  0  0  0  0  0  0  0  0  0  0  0
   -1.1603    3.8741    2.6355 C   0  0  0  0  0  0  0  0  0  0  0  0
    1.4896    2.8742   -0.6660 C   0  0  0  0  0  0  0  0  0  0  0  0
    2.2231    3.7710   -1.4347 C   0  0  0  0  0  0  0  0  0  0  0  0
    2.3222    4.7971   -1.1129 H   0  0  0  0  0  0  0  0  0  0  0  0
    2.8666    3.3292   -2.5755 C   0  0  0  0  0  0  0  0  0  0  0  0
    3.4528    4.0232   -3.1588 H   0  0  0  0  0  0  0  0  0  0  0  0
    2.7708    2.0050   -2.9665 C   0  0  0  0  0  0  0  0  0  0  0  0
    3.2785    1.6659   -3.8566 H   0  0  0  0  0  0  0  0  0  0  0  0
    2.0302    1.1123   -2.2089 C   0  0  0  0  0  0  0  0  0  0  0  0
    1.9514    0.0790   -2.5131 H   0  0  0  0  0  0  0  0  0  0  0  0
    1.3935    1.5411   -1.0617 C   0  0  0  0  0  0  0  0  0  0  0  0
    0.7964    0.8610   -0.4617 H   0  0  0  0  0  0  0  0  0  0  0  0
    3.3682   -0.4380    1.3936 C   0  0  0  0  0  0  0  0  0  0  0  0
    2.8910   -0.7140    0.4600 H   0  0  0  0  0  0  0  0  0  0  0  0
    2.8706   -0.9049    2.2360 H   0  0  0  0  0  0  0  0  0  0  0  0
    4.4224   -0.6854    1.3591 H   0  0  0  0  0  0  0  0  0  0  0  0
    4.2546    1.5603    3.0655 C   0  0  0  0  0  0  0  0  0  0  0  0
    4.2575    2.6132    3.3294 H   0  0  0  0  0  0  0  0  0  0  0  0
    5.2569    1.2413    2.8026 H   0  0  0  0  0  0  0  0  0  0  0  0
    3.8326    0.9697    3.8702 H   0  0  0  0  0  0  0  0  0  0  0  0
  1  4  1  0  0  0  0
  1  2  1  6  0  0  0
  3  1  1  0  0  0  0
  3 34  1  0  0  0  0
  5  3  1  0  0  0  0
  6  1  1  0  0  0  0
  7  6  1  0  0  0  0
  7  9  2  0  0  0  0
  8  7  1  0  0  0  0
  9 18  1  0  0  0  0
 10  9  1  0  0  0  0
 10 12  1  0  0  0  0
 11 10  1  0  0  0  0
 12 14  2  0  0  0  0
 13 12  1  0  0  0  0
 14 16  1  0  0  0  0
 14 15  1  0  0  0  0
 16 17  1  0  0  0  0
 18  4  1  0  0  0  0
 18 16  2  0  0  0  0
 19  6  1  0  0  0  0
 20 21  1  0  0  0  0
 20 19  2  0  0  0  0
 22 20  1  0  0  0  0
 23 22  1  0  0  0  0
 24 22  2  0  0  0  0
 24 26  1  0  0  0  0
 25 24  1  0  0  0  0
 26 28  2  0  0  0  0
 27 26  1  0  0  0  0
 28 19  1  0  0  0  0
 28 29  1  0  0  0  0
 30  3  1  0  0  0  0
 30 32  1  0  0  0  0
 31 30  1  0  0  0  0
 33 30  1  0  0  0  0
 34 35  1  0  0  0  0
 34 37  1  0  0  0  0
 36 34  1  0  0  0  0
M  END
$$$$
