CSD_code = HIDMIT | q = 0 | S = 0 | Stoichiometry = C13H12Cl2N4OZn | MND = 5
 OpenBabel04212202043D

 33 36  0  0  1  0  0  0  0  0999 V2000
    7.4839   12.1604    9.7975 Zn  0  0  0  0  0  0  0  0  0  0  0  0
    6.8423   14.2411    9.6410 Cl  0  0  0  0  0  0  0  0  0  0  0  0
    7.8165   10.8574   11.6243 Cl  0  0  0  0  0  0  0  0  0  0  0  0
    5.6303   11.2453    8.9551 N   0  0  0  0  0  0  0  0  0  0  0  0
    4.4750   11.8700    8.8262 C   0  0  0  0  0  3  0  0  0  0  0  0
    4.4611   12.8972    9.1637 H   0  0  0  0  0  0  0  0  0  0  0  0
    3.3547   11.2550    8.2844 C   0  0  0  0  0  0  0  0  0  0  0  0
    2.4248   11.7936    8.2013 H   0  0  0  0  0  0  0  0  0  0  0  0
    3.4681    9.9457    7.8449 C   0  0  0  0  0  0  0  0  0  0  0  0
    2.6259    9.4386    7.3979 H   0  0  0  0  0  0  0  0  0  0  0  0
    4.6834    9.2935    7.9780 C   0  0  0  0  0  0  0  0  0  0  0  0
    4.8138    8.2852    7.6164 H   0  0  0  0  0  0  0  0  0  0  0  0
    5.7500    9.9770    8.5576 C   0  0  0  0  0  0  0  0  0  0  0  0
    7.0879    9.3943    8.7341 C   0  0  2  0  0  3  0  0  0  0  0  0
    8.5072    7.4734    8.8331 N   0  0  0  0  0  0  0  0  0  0  0  0
    8.7552    6.2194    9.1622 C   0  0  0  0  0  0  0  0  0  0  0  0
    9.7624    5.8788    8.9602 H   0  0  0  0  0  0  0  0  0  0  0  0
    7.8103    5.3803    9.7308 C   0  0  0  0  0  0  0  0  0  0  0  0
    8.0572    4.3598    9.9756 H   0  0  0  0  0  0  0  0  0  0  0  0
    6.5534    5.9025    9.9970 C   0  0  0  0  0  0  0  0  0  0  0  0
    5.7961    5.2962   10.4714 H   0  0  0  0  0  0  0  0  0  0  0  0
    6.2823    7.2160    9.6577 C   0  0  0  0  0  0  0  0  0  0  0  0
    5.3291    7.6605    9.8926 H   0  0  0  0  0  0  0  0  0  0  0  0
    7.2856    7.9752    9.0494 C   0  0  0  0  0  0  0  0  0  0  0  0
    8.0269   10.2706    8.7133 N   0  0  2  0  0  0  0  0  0  0  0  0
    9.3151    9.9936    8.8832 N   0  0  0  0  0  0  0  0  0  0  0  0
    9.5715    9.0015    8.9813 H   0  0  0  0  0  0  0  0  0  0  0  0
   10.1255   11.0387    9.2383 C   0  0  1  0  0  3  0  0  0  0  0  0
    9.6958   12.1724    9.3184 O   0  0  0  0  0  0  0  0  0  0  0  0
   11.5455   10.6538    9.5211 C   0  0  0  0  0  0  0  0  0  0  0  0
   11.9001    9.9105    8.8125 H   0  0  0  0  0  0  0  0  0  0  0  0
   11.5920   10.2344   10.5255 H   0  0  0  0  0  0  0  0  0  0  0  0
   12.1748   11.5383    9.4893 H   0  0  0  0  0  0  0  0  0  0  0  0
  1  3  1  0  0  0  0
  2  1  1  0  0  0  0
  4  1  1  0  0  0  0
  5  4  1  0  0  0  0
  5  6  1  0  0  0  0
  7  5  1  0  0  0  0
  8  7  1  0  0  0  0
  9 11  1  0  0  0  0
  9  7  2  0  0  0  0
 10  9  1  0  0  0  0
 11 13  2  0  0  0  0
 12 11  1  0  0  0  0
 13 14  1  0  0  0  0
 13  4  1  0  0  0  0
 14 24  1  1  0  0  0
 15 24  2  0  0  0  0
 15 16  1  0  0  0  0
 16 18  2  0  0  0  0
 17 16  1  0  0  0  0
 18 19  1  0  0  0  0
 18 20  1  0  0  0  0
 20 21  1  0  0  0  0
 22 23  1  0  0  0  0
 22 20  2  0  0  0  0
 24 22  1  0  0  0  0
 25 14  1  0  0  0  0
 25 26  1  1  0  0  0
 25  1  1  0  0  0  0
 26 27  1  0  0  0  0
 26 28  1  0  0  0  0
 28 29  1  0  0  0  0
 28 30  1  1  0  0  0
 29  1  1  0  0  0  0
 30 32  1  0  0  0  0
 31 30  1  0  0  0  0
 33 30  1  0  0  0  0
M  END
$$$$
