CSD_code = HIDYAV | q = 0 | S = 0 | Stoichiometry = C13H21Cl3Ti | MND = 8
 OpenBabel04212202043D

 38 38  0  0  1  0  0  0  0  0999 V2000
   13.5747    0.5716   11.6143 Ti  0  0  0  0  0  0  0  0  0  0  0  0
   14.6082   -0.4775   10.0384 Cl  0  0  0  0  0  0  0  0  0  0  0  0
   14.2434   -0.6047   13.2940 Cl  0  0  0  0  0  0  0  0  0  0  0  0
   14.9250    2.2440   11.8105 Cl  0  0  0  0  0  0  0  0  0  0  0  0
   11.9319    1.6414   10.5025 C   0  0  1  0  0  0  0  0  0  0  0  0
   11.6653    0.2414   10.4316 C   0  0  0  0  0  0  0  0  0  0  0  0
   11.4593   -0.2348   11.7593 C   0  0  0  0  0  0  0  0  0  0  0  0
   11.5719    0.8727   12.6496 C   0  0  0  0  0  0  0  0  0  0  0  0
   11.8594    2.0316   11.8738 C   0  0  0  0  0  0  0  0  0  0  0  0
   12.1702    2.5734    9.3468 C   0  0  0  0  0  0  0  0  0  0  0  0
   12.4766    2.0004    8.4672 H   0  0  0  0  0  0  0  0  0  0  0  0
   12.9869    3.2601    9.5963 H   0  0  0  0  0  0  0  0  0  0  0  0
   10.9142    3.3907    9.0066 C   0  0  0  0  0  0  0  0  0  0  0  0
   10.6247    3.9847    9.8751 H   0  0  0  0  0  0  0  0  0  0  0  0
   11.1513    4.0797    8.1932 H   0  0  0  0  0  0  0  0  0  0  0  0
    9.7404    2.5059    8.5954 C   0  0  0  0  0  0  0  0  0  0  0  0
    9.5059    1.8217    9.4136 H   0  0  0  0  0  0  0  0  0  0  0  0
   10.0242    1.9079    7.7269 H   0  0  0  0  0  0  0  0  0  0  0  0
    8.5065    3.3332    8.2563 C   0  0  0  0  0  0  0  0  0  0  0  0
    8.1950    3.9242    9.1149 H   0  0  0  0  0  0  0  0  0  0  0  0
    7.6805    2.6880    7.9668 H   0  0  0  0  0  0  0  0  0  0  0  0
    8.7156    4.0122    7.4325 H   0  0  0  0  0  0  0  0  0  0  0  0
   11.4908   -0.5874    9.1938 C   0  0  0  0  0  0  0  0  0  0  0  0
   11.9654   -1.5623    9.3080 H   0  0  0  0  0  0  0  0  0  0  0  0
   11.9298   -0.0968    8.3280 H   0  0  0  0  0  0  0  0  0  0  0  0
   10.4275   -0.7457    9.0007 H   0  0  0  0  0  0  0  0  0  0  0  0
   11.0964   -1.6427   12.1256 C   0  0  0  0  0  0  0  0  0  0  0  0
   10.0190   -1.7937   12.0268 H   0  0  0  0  0  0  0  0  0  0  0  0
   11.3817   -1.8614   13.1536 H   0  0  0  0  0  0  0  0  0  0  0  0
   11.6022   -2.3523   11.4699 H   0  0  0  0  0  0  0  0  0  0  0  0
   11.3222    0.8597   14.1278 C   0  0  0  0  0  0  0  0  0  0  0  0
   11.9558    1.5891   14.6325 H   0  0  0  0  0  0  0  0  0  0  0  0
   11.5287   -0.1226   14.5492 H   0  0  0  0  0  0  0  0  0  0  0  0
   10.2792    1.1113   14.3334 H   0  0  0  0  0  0  0  0  0  0  0  0
   11.9482    3.4282   12.4130 C   0  0  0  0  0  0  0  0  0  0  0  0
   10.9453    3.8225   12.5941 H   0  0  0  0  0  0  0  0  0  0  0  0
   12.4593    4.0843   11.7112 H   0  0  0  0  0  0  0  0  0  0  0  0
   12.4952    3.4456   13.3566 H   0  0  0  0  0  0  0  0  0  0  0  0
  1  4  1  0  0  0  0
  1  3  1  0  0  0  0
  2  1  1  0  0  0  0
  5 10  1  6  0  0  0
  5  1  1  0  0  0  0
  5  9  1  0  0  0  0
  6  5  1  0  0  0  0
  6  7  2  0  0  0  0
  7 27  1  0  0  0  0
  7  8  1  0  0  0  0
  8 31  1  0  0  0  0
  9 35  1  0  0  0  0
  9  8  2  0  0  0  0
 10 12  1  0  0  0  0
 11 10  1  0  0  0  0
 13 10  1  0  0  0  0
 13 14  1  0  0  0  0
 15 13  1  0  0  0  0
 16 13  1  0  0  0  0
 16 17  1  0  0  0  0
 18 16  1  0  0  0  0
 19 16  1  0  0  0  0
 19 20  1  0  0  0  0
 21 19  1  0  0  0  0
 22 19  1  0  0  0  0
 23 24  1  0  0  0  0
 23  6  1  0  0  0  0
 25 23  1  0  0  0  0
 26 23  1  0  0  0  0
 27 29  1  0  0  0  0
 28 27  1  0  0  0  0
 30 27  1  0  0  0  0
 31 34  1  0  0  0  0
 31 33  1  0  0  0  0
 31 32  1  0  0  0  0
 35 36  1  0  0  0  0
 35 38  1  0  0  0  0
 37 35  1  0  0  0  0
M  END
$$$$
