CSD_code = HIFFUY | q = 0 | S = 0 | Stoichiometry = C21H17Cl3MnN5O3 | MND = 6
 OpenBabel04212202043D

 50 55  0  0  1  0  0  0  0  0999 V2000
   -0.8044    4.6812    8.2061 Mn  0  0  0  0  0  0  0  0  0  0  0  0
   -2.4398    4.8314    6.8664 Cl  0  0  0  0  0  0  0  0  0  0  0  0
    2.0450   -1.0343    6.0264 Cl  0  0  0  0  0  0  0  0  0  0  0  0
    0.3172   -1.9648    8.4515 Cl  0  0  0  0  0  0  0  0  0  0  0  0
   -1.2377    2.0972   11.1037 O   0  0  0  0  0  0  0  0  0  0  0  0
    2.1336    3.9863    5.5879 O   0  0  0  0  0  0  0  0  0  0  0  0
    0.7166    4.8863    9.7318 O   0  0  0  0  0  0  0  0  0  0  0  0
   -1.0498    2.9893    8.9695 N   0  0  0  0  0  0  0  0  0  0  0  0
   -2.0178    5.2351    9.6549 N   0  0  0  0  0  0  0  0  0  0  0  0
    0.3810    3.7454    7.0903 N   0  0  0  0  0  0  0  0  0  0  0  0
    0.0297    6.2611    7.3215 N   0  0  0  0  0  0  0  0  0  0  0  0
    1.6119    3.5906   11.3571 N   0  0  0  0  0  0  0  0  0  0  0  0
   -0.3876    1.9467    8.3551 C   0  0  0  0  0  0  0  0  0  0  0  0
    0.4119    2.3776    7.2594 C   0  0  0  0  0  0  0  0  0  0  0  0
    1.1649    1.4494    6.5465 C   0  0  0  0  0  0  0  0  0  0  0  0
    1.7706    1.7693    5.7142 H   0  0  0  0  0  0  0  0  0  0  0  0
    1.1211    0.1157    6.9175 C   0  0  0  0  0  0  0  0  0  0  0  0
    0.3465   -0.3019    8.0004 C   0  0  0  0  0  0  0  0  0  0  0  0
   -0.4056    0.6080    8.7255 C   0  0  0  0  0  0  0  0  0  0  0  0
   -1.0034    0.2823    9.5609 H   0  0  0  0  0  0  0  0  0  0  0  0
   -1.4330    2.9723   10.2654 C   0  0  0  0  0  0  0  0  0  0  0  0
   -2.1247    4.2582   10.5836 C   0  0  2  0  0  3  0  0  0  0  0  0
   -2.8778    4.3976   11.7417 C   0  0  0  0  0  0  0  0  0  0  0  0
   -2.8998    3.5735   12.4382 H   0  0  0  0  0  0  0  0  0  0  0  0
   -3.5898    5.5632   11.9505 C   0  0  0  0  0  0  0  0  0  0  0  0
   -4.1880    5.6999   12.8378 H   0  0  0  0  0  0  0  0  0  0  0  0
   -3.5366    6.5420   10.9644 C   0  0  0  0  0  0  0  0  0  0  0  0
   -4.1057    7.4534   11.0573 H   0  0  0  0  0  0  0  0  0  0  0  0
   -2.7475    6.3378    9.8493 C   0  0  0  0  0  0  0  0  0  0  0  0
   -2.7145    7.0766    9.0588 H   0  0  0  0  0  0  0  0  0  0  0  0
    1.2388    4.4269    6.2949 C   0  0  0  0  0  0  0  0  0  0  0  0
    0.9756    5.8939    6.4329 C   0  0  2  0  0  3  0  0  0  0  0  0
    1.7080    6.8100    5.6884 C   0  0  0  0  0  0  0  0  0  0  0  0
    2.4461    6.4267    5.0007 H   0  0  0  0  0  0  0  0  0  0  0  0
    1.4645    8.1603    5.8468 C   0  0  0  0  0  0  0  0  0  0  0  0
    2.0070    8.8961    5.2737 H   0  0  0  0  0  0  0  0  0  0  0  0
    0.4980    8.5422    6.7691 C   0  0  0  0  0  0  0  0  0  0  0  0
    0.2689    9.5831    6.9349 H   0  0  0  0  0  0  0  0  0  0  0  0
   -0.1834    7.5692    7.4758 C   0  0  0  0  0  0  0  0  0  0  0  0
   -0.9368    7.8509    8.1993 H   0  0  0  0  0  0  0  0  0  0  0  0
    1.4479    3.9602   10.0993 C   0  0  0  0  0  3  0  0  0  0  0  0
    2.0498    3.3806    9.3805 H   0  0  0  0  0  0  0  0  0  0  0  0
    2.3611    2.4145   11.7195 C   0  0  0  0  0  0  0  0  0  0  0  0
    2.9230    2.0462   10.8642 H   0  0  0  0  0  0  0  0  0  0  0  0
    1.6729    1.6337   12.0522 H   0  0  0  0  0  0  0  0  0  0  0  0
    3.0514    2.6491   12.5311 H   0  0  0  0  0  0  0  0  0  0  0  0
    0.8576    4.2121   12.4220 C   0  0  0  0  0  0  0  0  0  0  0  0
    0.3809    5.1112   12.0364 H   0  0  0  0  0  0  0  0  0  0  0  0
    1.5267    4.4732   13.2421 H   0  0  0  0  0  0  0  0  0  0  0  0
    0.0923    3.5215   12.7820 H   0  0  0  0  0  0  0  0  0  0  0  0
  1  8  1  0  0  0  0
  1  9  1  0  0  0  0
  1  7  1  0  0  0  0
  2  1  1  0  0  0  0
  3 17  1  0  0  0  0
  6 31  2  0  0  0  0
  7 41  1  0  0  0  0
  8 21  1  0  0  0  0
  9 29  1  0  0  0  0
  9 22  1  0  0  0  0
 10 14  1  0  0  0  0
 10  1  1  0  0  0  0
 11 39  1  0  0  0  0
 11  1  1  0  0  0  0
 12 43  1  0  0  0  0
 12 47  1  0  0  0  0
 13 19  1  0  0  0  0
 13  8  1  0  0  0  0
 14 13  2  0  0  0  0
 15 17  2  0  0  0  0
 15 14  1  0  0  0  0
 16 15  1  0  0  0  0
 17 18  1  0  0  0  0
 18  4  1  0  0  0  0
 18 19  2  0  0  0  0
 19 20  1  0  0  0  0
 21  5  2  0  0  0  0
 22 21  1  6  0  0  0
 22 23  1  0  0  0  0
 23 25  2  0  0  0  0
 23 24  1  0  0  0  0
 25 26  1  0  0  0  0
 27 28  1  0  0  0  0
 27 25  1  0  0  0  0
 29 27  2  0  0  0  0
 30 29  1  0  0  0  0
 31 32  1  0  0  0  0
 31 10  1  0  0  0  0
 32 33  1  1  0  0  0
 32 11  1  0  0  0  0
 33 35  2  0  0  0  0
 34 33  1  0  0  0  0
 35 37  1  0  0  0  0
 36 35  1  0  0  0  0
 37 38  1  0  0  0  0
 37 39  2  0  0  0  0
 39 40  1  0  0  0  0
 41 12  1  0  0  0  0
 42 41  1  0  0  0  0
 43 45  1  0  0  0  0
 43 46  1  0  0  0  0
 44 43  1  0  0  0  0
 47 50  1  0  0  0  0
 47 49  1  0  0  0  0
 48 47  1  0  0  0  0
M  END
$$$$
