CSD_code = HIFHIN | q = 1 | S = 0 | Stoichiometry = C13H16ClN4PtS(1+) | MND = 4
 OpenBabel04212202043D

 36 39  0  0  1  0  0  0  0  0999 V2000
    0.1212    2.6193    1.5986 Pt  0  0  0  0  0  0  0  0  0  0  0  0
   -2.0301    3.2726    1.5081 Cl  0  0  0  0  0  0  0  0  0  0  0  0
    2.2181    2.0325    1.4267 N   0  0  0  0  0  4  0  0  0  0  0  0
    2.7604    2.7760    1.8684 H   0  0  0  0  0  0  0  0  0  0  0  0
    2.4700    1.1589    1.8840 H   0  0  0  0  0  0  0  0  0  0  0  0
    2.5148    1.9715   -0.0150 C   0  0  0  0  0  0  0  0  0  0  0  0
    2.1430    1.0192   -0.4037 H   0  0  0  0  0  0  0  0  0  0  0  0
    3.5904    2.0296   -0.2119 H   0  0  0  0  0  0  0  0  0  0  0  0
    1.7897    3.1241   -0.7125 C   0  0  0  0  0  0  0  0  0  0  0  0
    2.1664    4.0774   -0.3288 H   0  0  0  0  0  0  0  0  0  0  0  0
    1.9727    3.0867   -1.7914 H   0  0  0  0  0  0  0  0  0  0  0  0
    0.3554    3.0277   -0.3957 N   0  0  0  0  0  4  0  0  0  0  0  0
   -0.0775    2.2618   -0.9202 H   0  0  0  0  0  0  0  0  0  0  0  0
   -0.1467    3.8799   -0.6596 H   0  0  0  0  0  0  0  0  0  0  0  0
   -0.1379    2.2069    3.5334 N   0  0  0  0  0  0  0  0  0  0  0  0
   -1.0842    1.4463    4.0723 C   0  0  1  0  0  3  0  0  0  0  0  0
   -2.3565    0.4385    3.5125 S   0  0  0  0  0  0  0  0  0  0  0  0
   -2.7507    0.0751    5.1673 C   0  0  0  0  0  0  0  0  0  0  0  0
   -3.5691   -0.5816    5.3813 H   0  0  0  0  0  0  0  0  0  0  0  0
   -1.9513    0.6960    6.0541 C   0  0  0  0  0  0  0  0  0  0  0  0
   -1.9959    0.6392    7.1251 H   0  0  0  0  0  0  0  0  0  0  0  0
   -1.0050    1.4693    5.4306 N   0  0  0  0  0  0  0  0  0  0  0  0
    0.0347    2.2884    5.7697 C   0  0  0  0  0  0  0  0  0  0  0  0
    0.3018    2.5033    6.7825 H   0  0  0  0  0  0  0  0  0  0  0  0
    0.5591    2.7527    4.5891 C   0  0  0  0  0  0  0  0  0  0  0  0
    1.6573    3.6889    4.3637 C   0  0  0  0  0  0  0  0  0  0  0  0
    1.5501    4.6540    3.3587 C   0  0  0  0  0  0  0  0  0  0  0  0
    0.6160    4.7620    2.8100 H   0  0  0  0  0  0  0  0  0  0  0  0
    2.5960    5.5313    3.1276 C   0  0  0  0  0  0  0  0  0  0  0  0
    2.5037    6.2875    2.3628 H   0  0  0  0  0  0  0  0  0  0  0  0
    3.7492    5.4600    3.8937 C   0  0  0  0  0  0  0  0  0  0  0  0
    4.5600    6.1488    3.7147 H   0  0  0  0  0  0  0  0  0  0  0  0
    3.8507    4.5171    4.9046 C   0  0  0  0  0  0  0  0  0  0  0  0
    4.7408    4.4721    5.5124 H   0  0  0  0  0  0  0  0  0  0  0  0
    2.8120    3.6347    5.1414 C   0  0  0  0  0  0  0  0  0  0  0  0
    2.8929    2.8962    5.9240 H   0  0  0  0  0  0  0  0  0  0  0  0
  1 15  1  0  0  0  0
  2  1  1  0  0  0  0
  3  1  1  0  0  0  0
  3  4  1  0  0  0  0
  3  5  1  0  0  0  0
  6  3  1  0  0  0  0
  7  6  1  0  0  0  0
  8  6  1  0  0  0  0
  9 12  1  0  0  0  0
  9 10  1  0  0  0  0
  9  6  1  0  0  0  0
 11  9  1  0  0  0  0
 12  1  1  0  0  0  0
 13 12  1  0  0  0  0
 14 12  1  0  0  0  0
 15 16  1  0  0  0  0
 15 25  1  0  0  0  0
 16 17  1  6  0  0  0
 16 22  1  0  0  0  0
 17 18  1  0  0  0  0
 18 19  1  0  0  0  0
 18 20  2  0  0  0  0
 20 21  1  0  0  0  0
 22 23  1  0  0  0  0
 22 20  1  0  0  0  0
 23 24  1  0  0  0  0
 25 23  2  0  0  0  0
 26 25  1  0  0  0  0
 26 35  1  0  0  0  0
 27 26  2  0  0  0  0
 28 27  1  0  0  0  0
 29 27  1  0  0  0  0
 29 31  2  0  0  0  0
 30 29  1  0  0  0  0
 31 33  1  0  0  0  0
 32 31  1  0  0  0  0
 33 35  2  0  0  0  0
 33 34  1  0  0  0  0
 35 36  1  0  0  0  0
M  END
$$$$
