CSD_code = HIFMAL | q = 1 | S = 0 | Stoichiometry = C15H11IN3Pt(1+) | MND = 4
 OpenBabel04212202043D

 31 35  0  0  0  0  0  0  0  0999 V2000
    6.0690    4.0769    4.6776 Pt  0  0  1  0  0  0  0  0  0  0  0  0
    7.9923    3.7838    6.3181 I   0  0  0  0  0  0  0  0  0  0  0  0
    4.7288    2.8179    5.5468 N   0  0  0  0  0  0  0  0  0  0  0  0
    4.6266    4.2976    3.4482 N   0  0  0  0  0  0  0  0  0  0  0  0
    6.9440    5.4079    3.4128 N   0  0  0  0  0  0  0  0  0  0  0  0
    4.8586    2.0798    6.6459 C   0  0  0  0  0  3  0  0  0  0  0  0
    5.8029    2.1376    7.1697 H   0  0  0  0  0  0  0  0  0  0  0  0
    3.8468    1.2628    7.1246 C   0  0  0  0  0  0  0  0  0  0  0  0
    4.0074    0.6866    8.0208 H   0  0  0  0  0  0  0  0  0  0  0  0
    2.6459    1.2061    6.4357 C   0  0  0  0  0  0  0  0  0  0  0  0
    1.8368    0.5820    6.7804 H   0  0  0  0  0  0  0  0  0  0  0  0
    2.5032    1.9708    5.2894 C   0  0  0  0  0  0  0  0  0  0  0  0
    1.5818    1.9482    4.7313 H   0  0  0  0  0  0  0  0  0  0  0  0
    3.5559    2.7710    4.8596 C   0  0  0  0  0  0  0  0  0  0  0  0
    3.4953    3.6125    3.6615 C   0  0  0  0  0  0  0  0  0  0  0  0
    2.4292    3.7545    2.7780 C   0  0  0  0  0  0  0  0  0  0  0  0
    1.5092    3.2151    2.9267 H   0  0  0  0  0  0  0  0  0  0  0  0
    2.5722    4.6090    1.6934 C   0  0  0  0  0  0  0  0  0  0  0  0
    1.7579    4.7319    0.9973 H   0  0  0  0  0  0  0  0  0  0  0  0
    3.7565    5.3066    1.4994 C   0  0  0  0  0  0  0  0  0  0  0  0
    3.8648    5.9689    0.6573 H   0  0  0  0  0  0  0  0  0  0  0  0
    4.7926    5.1303    2.4119 C   0  0  0  0  0  0  0  0  0  0  0  0
    6.1137    5.7641    2.3960 C   0  0  0  0  0  0  0  0  0  0  0  0
    6.5179    6.6713    1.4230 C   0  0  0  0  0  0  0  0  0  0  0  0
    5.8447    6.9419    0.6264 H   0  0  0  0  0  0  0  0  0  0  0  0
    7.7868    7.2239    1.4844 C   0  0  0  0  0  0  0  0  0  0  0  0
    8.1122    7.9296    0.7366 H   0  0  0  0  0  0  0  0  0  0  0  0
    8.6226    6.8497    2.5244 C   0  0  0  0  0  0  0  0  0  0  0  0
    9.6188    7.2501    2.6157 H   0  0  0  0  0  0  0  0  0  0  0  0
    8.1615    5.9415    3.4640 C   0  0  0  0  0  0  0  0  0  0  0  0
    8.7987    5.6375    4.2832 H   0  0  0  0  0  0  0  0  0  0  0  0
  1  3  1  0  0  0  0
  1  2  1  1  0  0  0
  3  6  1  0  0  0  0
  4 15  1  0  0  0  0
  4  1  1  0  0  0  0
  5 30  1  0  0  0  0
  5  1  1  0  0  0  0
  6  8  1  0  0  0  0
  6  7  1  0  0  0  0
  8  9  1  0  0  0  0
 10 11  1  0  0  0  0
 10  8  2  0  0  0  0
 12 10  1  0  0  0  0
 13 12  1  0  0  0  0
 14 12  2  0  0  0  0
 14  3  1  0  0  0  0
 15 14  1  0  0  0  0
 16 17  1  0  0  0  0
 16 15  2  0  0  0  0
 18 16  1  0  0  0  0
 19 18  1  0  0  0  0
 20 18  2  0  0  0  0
 20 22  1  0  0  0  0
 21 20  1  0  0  0  0
 22  4  1  0  0  0  0
 23 22  2  0  0  0  0
 23  5  1  0  0  0  0
 24 26  2  0  0  0  0
 24 23  1  0  0  0  0
 25 24  1  0  0  0  0
 26 28  1  0  0  0  0
 27 26  1  0  0  0  0
 28 29  1  0  0  0  0
 28 30  2  0  0  0  0
 30 31  1  0  0  0  0
M  END
$$$$
