CSD_code = HIGBEF | q = 0 | S = 0 | Stoichiometry = C13H13ClFNOPtS | MND = 4
 OpenBabel04212202043D

 32 34  0  0  0  0  0  0  0  0999 V2000
    7.7374    1.7651    7.6782 Pt  0  0  2  0  0  0  0  0  0  0  0  0
    7.7051    1.7654    5.3241 Cl  0  0  0  0  0  0  0  0  0  0  0  0
    5.7450    1.7653    7.9117 N   0  0  0  0  0  0  0  0  0  0  0  0
    4.8803    1.7653    6.8986 C   0  0  0  0  0  0  0  0  0  0  0  0
    5.3005    1.7653    5.9006 H   0  0  0  0  0  0  0  0  0  0  0  0
    3.5113    1.7653    7.0906 C   0  0  0  0  0  0  0  0  0  0  0  0
    2.8488    1.7653    6.2408 H   0  0  0  0  0  0  0  0  0  0  0  0
    3.0203    1.7653    8.3888 C   0  0  0  0  0  0  0  0  0  0  0  0
    1.9571    1.7653    8.5753 H   0  0  0  0  0  0  0  0  0  0  0  0
    3.9157    1.7653    9.4402 C   0  0  0  0  0  0  0  0  0  0  0  0
    3.5598    1.7653   10.4572 H   0  0  0  0  0  0  0  0  0  0  0  0
    5.2875    1.7653    9.1880 C   0  0  0  0  0  0  0  0  0  0  0  0
    6.3345    1.7653   10.1971 C   0  0  0  0  0  0  0  0  0  0  0  0
    7.6514    1.7653    9.6829 C   0  0  0  0  0  0  0  0  0  0  0  0
    8.7057    1.7653   10.5825 C   0  0  0  0  0  0  0  0  0  0  0  0
    9.7309    1.7654   10.2432 H   0  0  0  0  0  0  0  0  0  0  0  0
    8.4457    1.7653   11.9420 C   0  0  0  0  0  0  0  0  0  0  0  0
    9.4794    1.7654   12.8076 F   0  0  0  0  0  0  0  0  0  0  0  0
    7.1586    1.7653   12.4554 C   0  0  0  0  0  0  0  0  0  0  0  0
    7.0052    1.7653   13.5228 H   0  0  0  0  0  0  0  0  0  0  0  0
    6.0992    1.7653   11.5722 C   0  0  0  0  0  0  0  0  0  0  0  0
    5.0919    1.7654   11.9594 H   0  0  0  0  0  0  0  0  0  0  0  0
    9.9705    1.7653    7.3563 S   0  0  0  0  0  0  0  0  0  0  0  0
   10.8862    1.7653    8.4864 O   0  0  0  0  0  1  0  0  0  0  0  0
   10.4890    3.1503    6.2974 C   0  0  0  0  0  0  0  0  0  0  0  0
   11.5600    3.0742    6.1486 H   0  0  0  0  0  0  0  0  0  0  0  0
   10.2502    4.0706    6.8215 H   0  0  0  0  0  0  0  0  0  0  0  0
    9.9471    3.0959    5.3609 H   0  0  0  0  0  0  0  0  0  0  0  0
   10.4890    0.3803    6.2974 C   0  0  0  0  0  0  0  0  0  0  0  0
   11.5600    0.4565    6.1484 H   0  0  0  0  0  0  0  0  0  0  0  0
   10.2503   -0.5400    6.8215 H   0  0  0  0  0  0  0  0  0  0  0  0
    9.9469    0.4347    5.3609 H   0  0  0  0  0  0  0  0  0  0  0  0
  1  2  1  6  0  0  0
  1  3  1  0  0  0  0
  1 14  2  0  0  0  0
  3 12  1  0  0  0  0
  4  6  2  0  0  0  0
  4  3  1  0  0  0  0
  5  4  1  0  0  0  0
  6  8  1  0  0  0  0
  7  6  1  0  0  0  0
  8  9  1  0  0  0  0
  8 10  2  0  0  0  0
 10 11  1  0  0  0  0
 12 10  1  0  0  0  0
 12 13  2  0  0  0  0
 13 21  1  0  0  0  0
 14 13  1  0  0  0  0
 14 15  1  0  0  0  0
 15 17  2  0  0  0  0
 16 15  1  0  0  0  0
 17 19  1  0  0  0  0
 17 18  1  0  0  0  0
 19 20  1  0  0  0  0
 21 22  1  0  0  0  0
 21 19  2  0  0  0  0
 23  1  1  0  0  0  0
 23 24  1  0  0  0  0
 25 27  1  0  0  0  0
 25 23  1  0  0  0  0
 26 25  1  0  0  0  0
 28 25  1  0  0  0  0
 29 31  1  0  0  0  0
 29 23  1  0  0  0  0
 30 29  1  0  0  0  0
 32 29  1  0  0  0  0
M  END
$$$$
