CSD_code = HIGVIF | q = 0 | S = 0 | Stoichiometry = C20H31BrNiP2 | MND = 4
 OpenBabel04212202043D

 55 59  0  0  1  0  0  0  0  0999 V2000
    3.1737    7.2168    7.0040 Br  0  0  0  0  0  0  0  0  0  0  0  0
    3.5990    5.6492    8.5623 Ni  0  0  2  0  0  0  0  0  0  0  0  0
    2.9958    6.8761   10.1807 P   0  0  1  0  0  4  0  0  0  0  0  0
    4.6400    4.3926    7.2113 P   0  0  2  0  0  4  0  0  0  0  0  0
    5.4131    7.9734   11.2222 C   0  0  0  0  0  0  0  0  0  0  0  0
    5.2034    7.7643   12.2692 H   0  0  0  0  0  0  0  0  0  0  0  0
    6.1130    8.8060   11.1796 H   0  0  0  0  0  0  0  0  0  0  0  0
    5.8944    7.0986   10.7867 H   0  0  0  0  0  0  0  0  0  0  0  0
    4.1423    8.3180   10.4590 C   0  0  2  0  0  0  0  0  0  0  0  0
    4.4193    8.6624    9.4531 H   0  0  0  0  0  0  0  0  0  0  0  0
    3.2733    9.3951   11.1094 C   0  0  0  0  0  0  0  0  0  0  0  0
    3.1317    9.1729   12.1707 H   0  0  0  0  0  0  0  0  0  0  0  0
    3.7432   10.3761   11.0274 H   0  0  0  0  0  0  0  0  0  0  0  0
    1.9322    9.3492   10.3868 C   0  0  0  0  0  0  0  0  0  0  0  0
    2.0680    9.6497    9.3457 H   0  0  0  0  0  0  0  0  0  0  0  0
    1.1991   10.0141   10.8458 H   0  0  0  0  0  0  0  0  0  0  0  0
    1.4583    7.8959   10.4373 C   0  0  1  0  0  0  0  0  0  0  0  0
    1.1112    7.6633   11.4539 H   0  0  0  0  0  0  0  0  0  0  0  0
    0.3524    7.5745    9.4414 C   0  0  0  0  0  0  0  0  0  0  0  0
    0.6767    7.8001    8.4276 H   0  0  0  0  0  0  0  0  0  0  0  0
   -0.5374    8.1634    9.6577 H   0  0  0  0  0  0  0  0  0  0  0  0
    0.0873    6.5185    9.4929 H   0  0  0  0  0  0  0  0  0  0  0  0
    6.8091    6.1264    7.7306 C   0  0  0  0  0  0  0  0  0  0  0  0
    6.1247    6.9670    7.6153 H   0  0  0  0  0  0  0  0  0  0  0  0
    7.8092    6.4624    7.4616 H   0  0  0  0  0  0  0  0  0  0  0  0
    6.8184    5.8214    8.7775 H   0  0  0  0  0  0  0  0  0  0  0  0
    6.3752    4.9647    6.8471 C   0  0  2  0  0  0  0  0  0  0  0  0
    7.0409    4.1094    7.0234 H   0  0  0  0  0  0  0  0  0  0  0  0
    6.3553    5.2910    5.3534 C   0  0  0  0  0  0  0  0  0  0  0  0
    5.8404    6.2412    5.1943 H   0  0  0  0  0  0  0  0  0  0  0  0
    7.3683    5.3742    4.9571 H   0  0  0  0  0  0  0  0  0  0  0  0
    5.5717    4.1700    4.6813 C   0  0  0  0  0  0  0  0  0  0  0  0
    6.1210    3.2289    4.7702 H   0  0  0  0  0  0  0  0  0  0  0  0
    5.4105    4.3708    3.6216 H   0  0  0  0  0  0  0  0  0  0  0  0
    4.2361    4.0683    5.4229 C   0  0  1  0  0  0  0  0  0  0  0  0
    3.6030    4.9107    5.1138 H   0  0  0  0  0  0  0  0  0  0  0  0
    3.4816    2.7706    5.1741 C   0  0  0  0  0  0  0  0  0  0  0  0
    4.0961    1.9052    5.4180 H   0  0  0  0  0  0  0  0  0  0  0  0
    3.2006    2.7014    4.1246 H   0  0  0  0  0  0  0  0  0  0  0  0
    2.5709    2.7350    5.7705 H   0  0  0  0  0  0  0  0  0  0  0  0
    3.0945    5.8079   11.6785 C   0  0  0  0  0  0  0  0  0  0  0  0
    3.4952    6.3271   12.5524 H   0  0  0  0  0  0  0  0  0  0  0  0
    2.0780    5.4746   11.9230 H   0  0  0  0  0  0  0  0  0  0  0  0
    3.9202    4.6170   11.2723 C   0  0  0  0  0  0  0  0  0  0  0  0
    4.4299    3.7580   12.2370 C   0  0  0  0  0  0  0  0  0  0  0  0
    4.2787    3.9867   13.2833 H   0  0  0  0  0  0  0  0  0  0  0  0
    5.1228    2.6199   11.8702 C   0  0  0  0  0  0  0  0  0  0  0  0
    5.5276    1.9629   12.6260 H   0  0  0  0  0  0  0  0  0  0  0  0
    5.2754    2.3159   10.5303 C   0  0  0  0  0  0  0  0  0  0  0  0
    5.7888    1.4110   10.2351 H   0  0  0  0  0  0  0  0  0  0  0  0
    4.7734    3.1644    9.5533 C   0  0  0  0  0  0  0  0  0  0  0  0
    4.8786    2.7958    8.0962 C   0  0  0  0  0  0  0  0  0  0  0  0
    4.0577    2.1176    7.8382 H   0  0  0  0  0  0  0  0  0  0  0  0
    5.8229    2.3027    7.8487 H   0  0  0  0  0  0  0  0  0  0  0  0
    4.1175    4.3536    9.9085 C   0  0  0  0  0  0  0  0  0  0  0  0
  2  1  1  6  0  0  0
  2 55  1  0  0  0  0
  2  3  1  0  0  0  0
  3 17  1  0  0  0  0
  3  9  1  0  0  0  0
  3 41  1  1  0  0  0
  4 52  1  1  0  0  0
  4  2  1  0  0  0  0
  5  6  1  0  0  0  0
  7  5  1  0  0  0  0
  8  5  1  0  0  0  0
  9 10  1  6  0  0  0
  9 11  1  0  0  0  0
  9  5  1  0  0  0  0
 11 12  1  0  0  0  0
 13 11  1  0  0  0  0
 14 17  1  0  0  0  0
 14 16  1  0  0  0  0
 14 11  1  0  0  0  0
 15 14  1  0  0  0  0
 17 18  1  1  0  0  0
 19 22  1  0  0  0  0
 19 21  1  0  0  0  0
 19 17  1  0  0  0  0
 20 19  1  0  0  0  0
 23 26  1  0  0  0  0
 24 23  1  0  0  0  0
 25 23  1  0  0  0  0
 27 28  1  1  0  0  0
 27  4  1  0  0  0  0
 27 23  1  0  0  0  0
 29 27  1  0  0  0  0
 30 29  1  0  0  0  0
 31 29  1  0  0  0  0
 32 33  1  0  0  0  0
 32 29  1  0  0  0  0
 32 35  1  0  0  0  0
 34 32  1  0  0  0  0
 35 36  1  6  0  0  0
 35  4  1  0  0  0  0
 37 38  1  0  0  0  0
 37 35  1  0  0  0  0
 37 40  1  0  0  0  0
 39 37  1  0  0  0  0
 41 43  1  0  0  0  0
 41 42  1  0  0  0  0
 44 41  1  0  0  0  0
 44 45  1  0  0  0  0
 45 46  1  0  0  0  0
 47 45  2  0  0  0  0
 47 48  1  0  0  0  0
 49 47  1  0  0  0  0
 50 49  1  0  0  0  0
 51 55  1  0  0  0  0
 51 49  2  0  0  0  0
 52 51  1  0  0  0  0
 53 52  1  0  0  0  0
 54 52  1  0  0  0  0
 55 44  2  0  0  0  0
M  END
$$$$
