CSD_code = HIHGIP | q = 0 | S = 0 | Stoichiometry = C4H10Cl2N2Zn | MND = 4
 OpenBabel04212202043D

 19 20  0  0  0  0  0  0  0  0999 V2000
   10.6407    1.3941    8.8953 Zn  0  0  0  0  0  0  0  0  0  0  0  0
    9.6852    2.0624   10.7598 Cl  0  0  0  0  0  0  0  0  0  0  0  0
   11.5674    2.2579    7.0987 Cl  0  0  0  0  0  0  0  0  0  0  0  0
   12.1879    0.1017    9.6521 N   0  0  0  0  0  4  0  0  0  0  0  0
   12.9579   -0.0537    9.0066 H   0  0  0  0  0  0  0  0  0  0  0  0
    9.1416    0.1095    8.0338 N   0  0  0  0  0  4  0  0  0  0  0  0
    8.3503   -0.0695    8.6469 H   0  0  0  0  0  0  0  0  0  0  0  0
    8.7610    0.2655    6.6395 C   0  0  0  0  0  0  0  0  0  0  0  0
    7.7053    0.2581    6.4024 H   0  0  0  0  0  0  0  0  0  0  0  0
    9.3511    0.9839    6.0879 H   0  0  0  0  0  0  0  0  0  0  0  0
    9.4086   -0.9721    7.1020 C   0  0  0  0  0  0  0  0  0  0  0  0
   10.4522   -1.1273    6.8690 H   0  0  0  0  0  0  0  0  0  0  0  0
    8.8234   -1.8779    7.1986 H   0  0  0  0  0  0  0  0  0  0  0  0
   11.9602   -1.0079   10.5612 C   0  0  0  0  0  0  0  0  0  0  0  0
   10.9265   -1.1732   10.8284 H   0  0  0  0  0  0  0  0  0  0  0  0
   12.5447   -1.9076   10.4177 H   0  0  0  0  0  0  0  0  0  0  0  0
   12.6192    0.2189   11.0355 C   0  0  0  0  0  0  0  0  0  0  0  0
   13.6831    0.2109   11.2328 H   0  0  0  0  0  0  0  0  0  0  0  0
   12.0463    0.9159   11.6308 H   0  0  0  0  0  0  0  0  0  0  0  0
  1  4  1  0  0  0  0
  1  2  1  0  0  0  0
  3  1  1  0  0  0  0
  4 14  1  0  0  0  0
  4 17  1  0  0  0  0
  5  4  1  0  0  0  0
  6  7  1  0  0  0  0
  6  1  1  0  0  0  0
  8 11  1  0  0  0  0
  8  6  1  0  0  0  0
  9  8  1  0  0  0  0
 10  8  1  0  0  0  0
 11 13  1  0  0  0  0
 11  6  1  0  0  0  0
 12 11  1  0  0  0  0
 14 15  1  0  0  0  0
 14 17  1  0  0  0  0
 16 14  1  0  0  0  0
 17 18  1  0  0  0  0
 17 19  1  0  0  0  0
M  END
$$$$
