CSD_code = HIHRUN | q = 0 | S = 0 | Stoichiometry = C16H9ClF4N2PdS | MND = 4
 OpenBabel04212202043D

 34 37  0  0  0  0  0  0  0  0999 V2000
    4.9971    5.4622    5.0421 Pd  0  0  2  0  0  0  0  0  0  0  0  0
    5.9142    3.4415    4.8420 Cl  0  0  0  0  0  0  0  0  0  0  0  0
    5.5737    5.8500    2.8309 S   0  0  0  0  0  0  0  0  0  0  0  0
    4.5054    5.2164    7.0301 N   0  0  0  0  0  0  0  0  0  0  0  0
    4.1466    7.2464    5.3936 N   0  0  0  0  0  0  0  0  0  0  0  0
    6.2505    4.5641    0.2758 F   0  0  0  0  0  0  0  0  0  0  0  0
    3.0004    4.5123    3.7489 F   0  0  0  0  0  0  0  0  0  0  0  0
    3.9693    8.2158    4.4985 C   0  0  0  0  0  0  0  0  0  0  0  0
    4.3531    8.0235    3.5026 H   0  0  0  0  0  0  0  0  0  0  0  0
    4.7194    4.1342    7.7680 C   0  0  0  0  0  0  0  0  0  0  0  0
    5.1996    3.3029    7.2623 H   0  0  0  0  0  0  0  0  0  0  0  0
    3.3398    9.4090    4.8028 C   0  0  0  0  0  0  0  0  0  0  0  0
    3.2224   10.1650    4.0439 H   0  0  0  0  0  0  0  0  0  0  0  0
    1.7294    2.4887    2.4750 F   0  0  0  0  0  0  0  0  0  0  0  0
    3.9084    6.2960    7.5710 C   0  0  0  0  0  0  0  0  0  0  0  0
    3.6947    7.4211    6.6552 C   0  0  0  0  0  0  0  0  0  0  0  0
    4.9278    2.5526   -0.9700 F   0  0  0  0  0  0  0  0  0  0  0  0
    2.8692    9.6062    6.0940 C   0  0  0  0  0  0  0  0  0  0  0  0
    2.3719   10.5233    6.3689 H   0  0  0  0  0  0  0  0  0  0  0  0
    3.0498    8.6014    7.0258 C   0  0  0  0  0  0  0  0  0  0  0  0
    2.6904    8.7329    8.0329 H   0  0  0  0  0  0  0  0  0  0  0  0
    4.3560    4.0656    9.1026 C   0  0  0  0  0  0  0  0  0  0  0  0
    4.5472    3.1693    9.6695 H   0  0  0  0  0  0  0  0  0  0  0  0
    5.1460    4.0523    0.8357 C   0  0  0  0  0  0  0  0  0  0  0  0
    4.7012    4.5681    2.0636 C   0  0  0  0  0  0  0  0  0  0  0  0
    4.4693    3.0268    0.1979 C   0  0  0  0  0  0  0  0  0  0  0  0
    3.7500    5.1701    9.6844 C   0  0  0  0  0  0  0  0  0  0  0  0
    3.4586    5.1564   10.7235 H   0  0  0  0  0  0  0  0  0  0  0  0
    3.5221    6.2944    8.9121 C   0  0  0  0  0  0  0  0  0  0  0  0
    3.0514    7.1594    9.3493 H   0  0  0  0  0  0  0  0  0  0  0  0
    3.5221    4.0126    2.5795 C   0  0  0  0  0  0  0  0  0  0  0  0
    2.8548    2.9855    1.9379 C   0  0  0  0  0  0  0  0  0  0  0  0
    3.3196    2.4733    0.7394 C   0  0  0  0  0  0  0  0  0  0  0  0
    2.8040    1.6710    0.2411 H   0  0  0  0  0  0  0  0  0  0  0  0
  1  2  1  6  0  0  0
  1  5  1  0  0  0  0
  1  4  1  0  0  0  0
  3  1  1  0  0  0  0
  4 15  1  0  0  0  0
  4 10  1  0  0  0  0
  5 16  1  0  0  0  0
  6 24  1  0  0  0  0
  8 12  2  0  0  0  0
  8  5  1  0  0  0  0
  9  8  1  0  0  0  0
 10 22  2  0  0  0  0
 11 10  1  0  0  0  0
 12 18  1  0  0  0  0
 13 12  1  0  0  0  0
 15 29  1  0  0  0  0
 16 20  1  0  0  0  0
 16 15  2  0  0  0  0
 17 26  1  0  0  0  0
 18 19  1  0  0  0  0
 18 20  2  0  0  0  0
 20 21  1  0  0  0  0
 22 23  1  0  0  0  0
 22 27  1  0  0  0  0
 24 25  1  0  0  0  0
 25 31  2  0  0  0  0
 25  3  1  0  0  0  0
 26 33  1  0  0  0  0
 26 24  2  0  0  0  0
 27 28  1  0  0  0  0
 29 30  1  0  0  0  0
 29 27  2  0  0  0  0
 31  7  1  0  0  0  0
 32 14  1  0  0  0  0
 32 31  1  0  0  0  0
 33 32  2  0  0  0  0
 34 33  1  0  0  0  0
M  END
$$$$
