CSD_code = HIJBUA | q = 0 | S = 0 | Stoichiometry = C34H25AsAuCl | MND = 2
 OpenBabel04212202043D

 62 66  0  0  0  0  0  0  0  0999 V2000
    5.9987    8.6261    1.3798 Au  0  0  0  0  0  0  0  0  0  0  0  0
    7.2387    7.3006    2.8521 As  0  0  0  0  0  0  0  0  0  0  0  0
    4.7438    9.9769    0.0454 Cl  0  0  0  0  0  0  0  0  0  0  0  0
    6.6199    5.5007    3.1021 C   0  0  0  0  0  0  0  0  0  0  0  0
    7.6272    4.6246    2.8258 C   0  0  0  0  0  0  0  0  0  0  0  0
    8.9310    5.2187    2.5121 C   0  0  0  0  0  0  0  0  0  0  0  0
    8.9867    6.5794    2.5106 C   0  0  0  0  0  0  0  0  0  0  0  0
    7.4588    8.1224    4.5837 C   0  0  0  0  0  0  0  0  0  0  0  0
    7.0314    9.4321    4.7698 C   0  0  0  0  0  0  0  0  0  0  0  0
    7.1879   10.0402    6.0040 C   0  0  0  0  0  0  0  0  0  0  0  0
    7.7683    9.3408    7.0495 C   0  0  0  0  0  0  0  0  0  0  0  0
    8.1955    8.0345    6.8662 C   0  0  0  0  0  0  0  0  0  0  0  0
    8.0430    7.4237    5.6344 C   0  0  0  0  0  0  0  0  0  0  0  0
    5.2039    5.2465    3.3174 C   0  0  0  0  0  0  0  0  0  0  0  0
    4.4385    6.2583    3.9082 C   0  0  0  0  0  0  0  0  0  0  0  0
    3.0850    6.0970    4.1206 C   0  0  0  0  0  0  0  0  0  0  0  0
    2.4596    4.9230    3.7304 C   0  0  0  0  0  0  0  0  0  0  0  0
    3.1978    3.9239    3.1181 C   0  0  0  0  0  0  0  0  0  0  0  0
    4.5549    4.0788    2.9094 C   0  0  0  0  0  0  0  0  0  0  0  0
    7.5114    3.1583    2.8827 C   0  0  0  0  0  0  0  0  0  0  0  0
    7.8158    2.3761    1.7721 C   0  0  0  0  0  0  0  0  0  0  0  0
    7.7356    0.9981    1.8480 C   0  0  0  0  0  0  0  0  0  0  0  0
    7.3612    0.3858    3.0322 C   0  0  0  0  0  0  0  0  0  0  0  0
    7.0577    1.1578    4.1417 C   0  0  0  0  0  0  0  0  0  0  0  0
    7.1308    2.5358    4.0691 C   0  0  0  0  0  0  0  0  0  0  0  0
   10.0621    4.3396    2.1733 C   0  0  0  0  0  0  0  0  0  0  0  0
   10.5056    3.3618    3.0590 C   0  0  0  0  0  0  0  0  0  0  0  0
   11.5508    2.5272    2.7088 C   0  0  0  0  0  0  0  0  0  0  0  0
   12.1585    2.6532    1.4712 C   0  0  0  0  0  0  0  0  0  0  0  0
   11.7228    3.6246    0.5846 C   0  0  0  0  0  0  0  0  0  0  0  0
   10.6823    4.4645    0.9323 C   0  0  0  0  0  0  0  0  0  0  0  0
   10.1311    7.4566    2.3390 C   0  0  0  0  0  0  0  0  0  0  0  0
   11.4402    7.0736    2.6430 C   0  0  0  0  0  0  0  0  0  0  0  0
   12.4829    7.9658    2.4849 C   0  0  0  0  0  0  0  0  0  0  0  0
   12.2471    9.2526    2.0286 C   0  0  0  0  0  0  0  0  0  0  0  0
   10.9508    9.6540    1.7452 C   0  0  0  0  0  0  0  0  0  0  0  0
    9.9054    8.7681    1.9067 C   0  0  0  0  0  0  0  0  0  0  0  0
    6.5717    9.9614    3.9367 H   0  0  0  0  0  0  0  0  0  0  0  0
    6.8565   11.0576    6.1498 H   0  0  0  0  0  0  0  0  0  0  0  0
    7.8887    9.8148    8.0121 H   0  0  0  0  0  0  0  0  0  0  0  0
    8.6475    7.4941    7.6853 H   0  0  0  0  0  0  0  0  0  0  0  0
    8.3735    6.4007    5.4762 H   0  0  0  0  0  0  0  0  0  0  0  0
    4.9312    7.1823    4.2136 H   0  0  0  0  0  0  0  0  0  0  0  0
    2.5140    6.8879    4.5832 H   0  0  0  0  0  0  0  0  0  0  0  0
    1.4000    4.7947    3.8910 H   0  0  0  0  0  0  0  0  0  0  0  0
    2.7112    3.0167    2.7920 H   0  0  0  0  0  0  0  0  0  0  0  0
    5.1105    3.3014    2.4084 H   0  0  0  0  0  0  0  0  0  0  0  0
    8.0994    2.8526    0.8450 H   0  0  0  0  0  0  0  0  0  0  0  0
    7.9688    0.4006    0.9793 H   0  0  0  0  0  0  0  0  0  0  0  0
    7.3056   -0.6908    3.0904 H   0  0  0  0  0  0  0  0  0  0  0  0
    6.7668    0.6845    5.0673 H   0  0  0  0  0  0  0  0  0  0  0  0
    6.8953    3.1420    4.9331 H   0  0  0  0  0  0  0  0  0  0  0  0
   10.0383    3.2653    4.0288 H   0  0  0  0  0  0  0  0  0  0  0  0
   11.8893    1.7736    3.4046 H   0  0  0  0  0  0  0  0  0  0  0  0
   12.9704    1.9961    1.1976 H   0  0  0  0  0  0  0  0  0  0  0  0
   12.1933    3.7262   -0.3820 H   0  0  0  0  0  0  0  0  0  0  0  0
   10.3358    5.2213    0.2421 H   0  0  0  0  0  0  0  0  0  0  0  0
   11.6356    6.0810    3.0195 H   0  0  0  0  0  0  0  0  0  0  0  0
   13.4893    7.6545    2.7239 H   0  0  0  0  0  0  0  0  0  0  0  0
   13.0677    9.9425    1.9023 H   0  0  0  0  0  0  0  0  0  0  0  0
   10.7564   10.6580    1.3990 H   0  0  0  0  0  0  0  0  0  0  0  0
    8.8842    9.0784    1.6763 H   0  0  0  0  0  0  0  0  0  0  0  0
  2  4  1  0  0  0  0
  2  8  1  0  0  0  0
  3  1  1  0  0  0  0
  4 14  1  0  0  0  0
  5 20  1  0  0  0  0
  5  4  2  0  0  0  0
  6  5  1  0  0  0  0
  7  6  2  0  0  0  0
  7  2  1  0  0  0  0
  8  9  2  0  0  0  0
  8 13  1  0  0  0  0
  9 10  1  0  0  0  0
 10 39  1  0  0  0  0
 10 11  2  0  0  0  0
 11 40  1  0  0  0  0
 12 11  1  0  0  0  0
 12 41  1  0  0  0  0
 13 12  2  0  0  0  0
 14 15  1  0  0  0  0
 15 16  2  0  0  0  0
 15 43  1  0  0  0  0
 16 44  1  0  0  0  0
 17 45  1  0  0  0  0
 17 16  1  0  0  0  0
 18 17  2  0  0  0  0
 19 18  1  0  0  0  0
 19 14  2  0  0  0  0
 20 25  1  0  0  0  0
 21 22  1  0  0  0  0
 21 20  2  0  0  0  0
 22 23  2  0  0  0  0
 23 50  1  0  0  0  0
 23 24  1  0  0  0  0
 24 51  1  0  0  0  0
 25 24  2  0  0  0  0
 25 52  1  0  0  0  0
 26  6  1  0  0  0  0
 26 27  1  0  0  0  0
 27 53  1  0  0  0  0
 28 27  2  0  0  0  0
 28 54  1  0  0  0  0
 29 28  1  0  0  0  0
 30 31  1  0  0  0  0
 30 29  2  0  0  0  0
 31 26  2  0  0  0  0
 32  7  1  0  0  0  0
 32 33  1  0  0  0  0
 33 58  1  0  0  0  0
 34 33  2  0  0  0  0
 34 59  1  0  0  0  0
 35 34  1  0  0  0  0
 36 37  1  0  0  0  0
 36 35  2  0  0  0  0
 37 32  2  0  0  0  0
 38  9  1  0  0  0  0
 42 13  1  0  0  0  0
 46 18  1  0  0  0  0
 47 19  1  0  0  0  0
 48 21  1  0  0  0  0
 49 22  1  0  0  0  0
 55 29  1  0  0  0  0
 56 30  1  0  0  0  0
 57 31  1  0  0  0  0
 60 35  1  0  0  0  0
 61 36  1  0  0  0  0
 62 37  1  0  0  0  0
M  END
$$$$
