CSD_code = HIJDAH | q = 0 | S = 0 | Stoichiometry = C24H23ClN3O3PRuS | MND = 6
 OpenBabel04212202043D

 57 60  0  0  0  0  0  0  0  0999 V2000
   18.6920    9.3669   11.2816 Ru  0  0  0  0  0  0  0  0  0  0  0  0
   19.6787    8.0059   12.9384 Cl  0  0  0  0  0  0  0  0  0  0  0  0
   17.0856    8.4550   11.7459 N   0  0  0  0  0  2  0  0  0  0  0  0
   16.4952    7.5088   12.0320 C   0  0  0  0  0  2  0  0  0  0  0  0
   15.7120    6.3703   12.4119 C   0  0  0  0  0  0  0  0  0  0  0  0
   16.2595    5.8046   13.1661 H   0  0  0  0  0  0  0  0  0  0  0  0
   15.5419    5.7355   11.5424 H   0  0  0  0  0  0  0  0  0  0  0  0
   14.7547    6.6913   12.8234 H   0  0  0  0  0  0  0  0  0  0  0  0
   18.4730   10.7210   12.5695 N   0  0  0  0  0  2  0  0  0  0  0  0
   18.3420   11.4617   13.4453 C   0  0  0  0  0  2  0  0  0  0  0  0
   18.1507   12.4143   14.5021 C   0  0  0  0  0  0  0  0  0  0  0  0
   18.9803   13.1207   14.5176 H   0  0  0  0  0  0  0  0  0  0  0  0
   18.1078   11.8950   15.4591 H   0  0  0  0  0  0  0  0  0  0  0  0
   17.2181   12.9555   14.3400 H   0  0  0  0  0  0  0  0  0  0  0  0
   20.4899    9.8732   10.8084 N   0  0  0  0  0  2  0  0  0  0  0  0
   21.4567    9.5880   10.2570 C   0  0  0  0  0  2  0  0  0  0  0  0
   22.6620    9.2837    9.5511 C   0  0  0  0  0  0  0  0  0  0  0  0
   23.2552   10.1867    9.4071 H   0  0  0  0  0  0  0  0  0  0  0  0
   22.3797    8.8720    8.5808 H   0  0  0  0  0  0  0  0  0  0  0  0
   23.2397    8.5457   10.1075 H   0  0  0  0  0  0  0  0  0  0  0  0
   17.6783   10.6111    9.5857 P   0  0  0  0  0  4  0  0  0  0  0  0
   16.3728   11.5638   10.4751 C   0  0  0  0  0  0  0  0  0  0  0  0
   16.5313   12.9167   10.7565 C   0  0  0  0  0  0  0  0  0  0  0  0
   17.3640   13.4575   10.3301 H   0  0  0  0  0  0  0  0  0  0  0  0
   15.6309   13.5797   11.5731 C   0  0  0  0  0  0  0  0  0  0  0  0
   15.7670   14.6325   11.7771 H   0  0  0  0  0  0  0  0  0  0  0  0
   14.5602   12.9001   12.1268 C   0  0  0  0  0  0  0  0  0  0  0  0
   13.8581   13.4170   12.7648 H   0  0  0  0  0  0  0  0  0  0  0  0
   14.3934   11.5506   11.8574 C   0  0  0  0  0  0  0  0  0  0  0  0
   13.5586   11.0147   12.2860 H   0  0  0  0  0  0  0  0  0  0  0  0
   15.2946   10.8893   11.0458 C   0  0  0  0  0  0  0  0  0  0  0  0
   15.1612    9.8352   10.8409 H   0  0  0  0  0  0  0  0  0  0  0  0
   18.4053   11.9466    8.5941 C   0  0  0  0  0  0  0  0  0  0  0  0
   17.9125   12.2985    7.3459 C   0  0  0  0  0  0  0  0  0  0  0  0
   17.0737   11.7632    6.9246 H   0  0  0  0  0  0  0  0  0  0  0  0
   18.5102   13.3274    6.6385 C   0  0  0  0  0  0  0  0  0  0  0  0
   18.1315   13.5987    5.6635 H   0  0  0  0  0  0  0  0  0  0  0  0
   19.5931   14.0058    7.1722 C   0  0  0  0  0  0  0  0  0  0  0  0
   20.0579   14.8053    6.6138 H   0  0  0  0  0  0  0  0  0  0  0  0
   20.0854   13.6537    8.4190 C   0  0  0  0  0  0  0  0  0  0  0  0
   20.9335   14.1802    8.8334 H   0  0  0  0  0  0  0  0  0  0  0  0
   19.4942   12.6251    9.1291 C   0  0  0  0  0  0  0  0  0  0  0  0
   19.8712   12.3278   10.1007 H   0  0  0  0  0  0  0  0  0  0  0  0
   16.6446    9.6138    8.4628 C   0  0  0  0  0  0  0  0  0  0  0  0
   15.3461    9.9440    8.0796 C   0  0  0  0  0  0  0  0  0  0  0  0
   14.9101   10.8816    8.3952 H   0  0  0  0  0  0  0  0  0  0  0  0
   14.6210    9.0710    7.2843 C   0  0  0  0  0  0  0  0  0  0  0  0
   13.6198    9.3381    6.9780 H   0  0  0  0  0  0  0  0  0  0  0  0
   15.1668    7.8631    6.8758 C   0  0  0  0  0  0  0  0  0  0  0  0
   14.5900    7.1906    6.2586 H   0  0  0  0  0  0  0  0  0  0  0  0
   16.4618    7.5300    7.2471 C   0  0  0  0  0  0  0  0  0  0  0  0
   16.9323    6.6132    6.9279 H   0  0  0  0  0  0  0  0  0  0  0  0
   17.1790    8.4075    8.0298 C   0  0  0  0  0  0  0  0  0  0  0  0
   18.9036    8.1906    8.4594 S   0  0  0  0  0  0  0  0  0  0  0  0
   18.9314    7.7670    9.8724 O   0  0  0  0  0  0  0  0  0  0  0  0
   19.4039    9.5624    8.2998 O   0  0  0  0  0  1  0  0  0  0  0  0
   19.4985    7.2245    7.5805 O   0  0  0  0  0  1  0  0  0  0  0  0
  1  3  1  0  0  0  0
  1  9  1  0  0  0  0
  1  2  1  0  0  0  0
  3  4  1  0  0  0  0
  4  5  1  0  0  0  0
  5  8  1  0  0  0  0
  5  6  1  0  0  0  0
  7  5  1  0  0  0  0
  9 10  1  0  0  0  0
 10 11  1  0  0  0  0
 11 12  1  0  0  0  0
 11 13  1  0  0  0  0
 14 11  1  0  0  0  0
 15  1  1  0  0  0  0
 16 15  1  0  0  0  0
 17 20  1  0  0  0  0
 17 16  1  0  0  0  0
 18 17  1  0  0  0  0
 19 17  1  0  0  0  0
 21 22  1  0  0  0  0
 21  1  1  0  0  0  0
 22 23  2  0  0  0  0
 22 31  1  0  0  0  0
 23 25  1  0  0  0  0
 24 23  1  0  0  0  0
 25 26  1  0  0  0  0
 25 27  2  0  0  0  0
 27 28  1  0  0  0  0
 29 27  1  0  0  0  0
 29 30  1  0  0  0  0
 31 29  2  0  0  0  0
 32 31  1  0  0  0  0
 33 42  1  0  0  0  0
 33 21  1  0  0  0  0
 34 33  2  0  0  0  0
 35 34  1  0  0  0  0
 36 38  2  0  0  0  0
 36 34  1  0  0  0  0
 37 36  1  0  0  0  0
 38 40  1  0  0  0  0
 39 38  1  0  0  0  0
 40 41  1  0  0  0  0
 40 42  2  0  0  0  0
 42 43  1  0  0  0  0
 44 21  1  0  0  0  0
 45 46  1  0  0  0  0
 45 44  1  0  0  0  0
 47 45  2  0  0  0  0
 48 47  1  0  0  0  0
 49 51  2  0  0  0  0
 49 47  1  0  0  0  0
 50 49  1  0  0  0  0
 51 53  1  0  0  0  0
 52 51  1  0  0  0  0
 53 54  1  0  0  0  0
 53 44  2  0  0  0  0
 54 55  1  0  0  0  0
 55  1  1  0  0  0  0
 56 54  1  0  0  0  0
 57 54  1  0  0  0  0
M  END
$$$$
