CSD_code = HIJGUC | q = 0 | S = 0 | Stoichiometry = C16H24Cl4MoSSe | MND = 7
 OpenBabel04212202043D

 47 42  0  0  0  0  0  0  0  0999 V2000
    0.4289    1.0628    3.8946 Mo  0  0  0  0  0  0  0  0  0  0  0  0
   -0.1928    0.6545    7.6085 Se  0  0  0  0  0  0  0  0  0  0  0  0
    1.9143    2.6161    4.7948 Cl  0  0  0  0  0 15  0  0  0  0  0  0
    1.8385   -0.7390    4.4897 Cl  0  0  0  0  0 15  0  0  0  0  0  0
   -0.4665   -0.4045    2.2839 Cl  0  0  0  0  0 15  0  0  0  0  0  0
   -0.5412    2.8932    2.7970 Cl  0  0  0  0  0 15  0  0  0  0  0  0
    2.3610    1.2499    1.8119 S   0  0  0  0  0  0  0  0  0  0  0  0
   -1.3539    0.8444    4.9062 C   0  0  0  0  0  0  0  0  0  0  0  0
   -0.3735    0.8408    5.8058 C   0  0  0  0  0  3  0  0  0  0  0  0
    1.7615    0.9125    7.7631 C   0  0  0  0  0  0  0  0  0  0  0  0
    2.2006    0.4601    6.8725 H   0  0  0  0  0  0  0  0  0  0  0  0
    1.9420    1.9881    7.7475 H   0  0  0  0  0  0  0  0  0  0  0  0
    2.2979    0.2794    9.0335 C   0  0  0  0  0  0  0  0  0  0  0  0
    1.8104    0.7280    9.9044 H   0  0  0  0  0  0  0  0  0  0  0  0
    2.0674   -0.7892    9.0356 H   0  0  0  0  0  0  0  0  0  0  0  0
    3.8094    0.4731    9.1393 C   0  0  0  0  0  0  0  0  0  0  0  0
    4.0381    1.5409    9.1201 H   0  0  0  0  0  0  0  0  0  0  0  0
    4.2901    0.0157    8.2720 H   0  0  0  0  0  0  0  0  0  0  0  0
    4.3658   -0.1437   10.4166 C   0  0  0  0  0  0  0  0  0  0  0  0
    5.4414    0.0034   10.4736 H   0  0  0  0  0  0  0  0  0  0  0  0
    4.1632   -1.2120   10.4442 H   0  0  0  0  0  0  0  0  0  0  0  0
    3.9097    0.3138   11.2918 H   0  0  0  0  0  0  0  0  0  0  0  0
    2.6278   -0.4662    1.2130 C   0  0  0  0  0  0  0  0  0  0  0  0
    2.4221   -1.1267    2.0563 H   0  0  0  0  0  0  0  0  0  0  0  0
    1.8944   -0.6490    0.4293 H   0  0  0  0  0  0  0  0  0  0  0  0
    4.0530   -0.6580    0.7311 C   0  0  0  0  0  0  0  0  0  0  0  0
    4.1879   -1.6831    0.3925 H   0  0  0  0  0  0  0  0  0  0  0  0
    4.7502   -0.4671    1.5430 H   0  0  0  0  0  0  0  0  0  0  0  0
    4.2883    0.0146   -0.0895 H   0  0  0  0  0  0  0  0  0  0  0  0
    1.4267    1.9703    0.4125 C   0  0  0  0  0  0  0  0  0  0  0  0
    0.5276    1.3672    0.2744 H   0  0  0  0  0  0  0  0  0  0  0  0
    1.1436    2.9644    0.7603 H   0  0  0  0  0  0  0  0  0  0  0  0
    2.2552    2.0628   -0.8531 C   0  0  0  0  0  0  0  0  0  0  0  0
    1.6939    2.6076   -1.6093 H   0  0  0  0  0  0  0  0  0  0  0  0
    2.4882    1.0775   -1.2488 H   0  0  0  0  0  0  0  0  0  0  0  0
    3.1836    2.5955   -0.6608 H   0  0  0  0  0  0  0  0  0  0  0  0
   -2.7801    0.7762    4.8667 C   0  0  0  0  0  0  0  0  0  0  0  0
   -3.4628    0.9435    3.6561 C   0  0  0  0  0  0  0  0  0  0  0  0
   -2.8974    1.1291    2.7532 H   0  0  0  0  0  0  0  0  0  0  0  0
   -4.8414    0.8779    3.6250 C   0  0  0  0  0  0  0  0  0  0  0  0
   -5.3649    1.0096    2.6898 H   0  0  0  0  0  0  0  0  0  0  0  0
   -5.5553    0.6424    4.7905 C   0  0  0  0  0  0  0  0  0  0  0  0
   -6.6335    0.5901    4.7613 H   0  0  0  0  0  0  0  0  0  0  0  0
   -4.8874    0.4739    5.9953 C   0  0  0  0  0  0  0  0  0  0  0  0
   -5.4459    0.2906    6.9011 H   0  0  0  0  0  0  0  0  0  0  0  0
   -3.5107    0.5411    6.0387 C   0  0  0  0  0  0  0  0  0  0  0  0
   -2.9763    0.4102    6.9724 H   0  0  0  0  0  0  0  0  0  0  0  0
  1  8  1  0  0  0  0
  2 10  1  0  0  0  0
  8  9  2  0  0  0  0
  9  2  1  0  0  0  0
 10 13  1  0  0  0  0
 11 10  1  0  0  0  0
 12 10  1  0  0  0  0
 13 15  1  0  0  0  0
 13 16  1  0  0  0  0
 13 14  1  0  0  0  0
 16 19  1  0  0  0  0
 17 16  1  0  0  0  0
 18 16  1  0  0  0  0
 19 21  1  0  0  0  0
 19 20  1  0  0  0  0
 19 22  1  0  0  0  0
 23  7  1  0  0  0  0
 23 24  1  0  0  0  0
 25 23  1  0  0  0  0
 26 23  1  0  0  0  0
 26 28  1  0  0  0  0
 27 26  1  0  0  0  0
 29 26  1  0  0  0  0
 30 32  1  0  0  0  0
 30  7  1  0  0  0  0
 31 30  1  0  0  0  0
 33 36  1  0  0  0  0
 33 30  1  0  0  0  0
 34 33  1  0  0  0  0
 35 33  1  0  0  0  0
 37  8  1  0  0  0  0
 37 46  1  0  0  0  0
 38 37  2  0  0  0  0
 39 38  1  0  0  0  0
 40 38  1  0  0  0  0
 40 42  2  0  0  0  0
 41 40  1  0  0  0  0
 42 44  1  0  0  0  0
 43 42  1  0  0  0  0
 44 46  2  0  0  0  0
 44 45  1  0  0  0  0
 46 47  1  0  0  0  0
M  END
$$$$
