CSD_code = HIJMOC | q = 0 | S = 0 | Stoichiometry = C15H16BrN2O4ReS | MND = 6
 OpenBabel04212202043D

 40 41  0  0  1  0  0  0  0  0999 V2000
    1.9720    3.8853    3.1685 Re  0  0  0  0  0  0  0  0  0  0  0  0
    0.4853    3.2522    1.3441 Br  0  0  0  0  0  0  0  0  0  0  0  0
    2.1457    1.0368    3.8324 S   0  0  0  0  0  0  0  0  0  0  0  0
   -0.4418    4.5906    4.9577 O   0  0  0  0  0  1  0  0  0  0  0  0
    2.7018    6.8013    2.4513 O   0  0  0  0  0  1  0  0  0  0  0  0
    3.9899    3.6393    5.4851 O   0  0  0  0  0  1  0  0  0  0  0  0
    3.4909    3.0162    1.7855 O   0  0  0  0  0  0  0  0  0  0  0  0
    0.4851    4.3817    4.3204 C   0  0  0  0  0  2  0  0  0  0  0  0
    2.4332    5.7315    2.7638 C   0  0  0  0  0  2  0  0  0  0  0  0
    3.2286    3.7925    4.6336 C   0  0  0  0  0  2  0  0  0  0  0  0
    4.4691    1.0846    2.5420 N   0  0  0  0  0  0  0  0  0  0  0  0
    5.2643    0.4905    2.3482 H   0  0  0  0  0  0  0  0  0  0  0  0
    4.5321    0.4582    4.7872 N   0  0  0  0  0  0  0  0  0  0  0  0
    3.8040    0.8813    3.7460 C   0  0  2  0  0  3  0  0  0  0  0  0
    4.2006    2.0456    1.5877 C   0  0  2  0  0  3  0  0  0  0  0  0
    3.8918    0.2486    6.0736 C   0  0  0  0  0  0  0  0  0  0  0  0
    3.0287    0.9151    6.1423 H   0  0  0  0  0  0  0  0  0  0  0  0
    4.6043    0.5239    6.8533 H   0  0  0  0  0  0  0  0  0  0  0  0
    3.4367   -1.1962    6.2435 C   0  0  0  0  0  0  0  0  0  0  0  0
    2.9855   -1.3230    7.2229 H   0  0  0  0  0  0  0  0  0  0  0  0
    4.2760   -1.8829    6.1541 H   0  0  0  0  0  0  0  0  0  0  0  0
    2.6966   -1.4451    5.4876 H   0  0  0  0  0  0  0  0  0  0  0  0
    5.9744    0.3035    4.7369 C   0  0  0  0  0  0  0  0  0  0  0  0
    6.2686   -0.2713    3.8509 H   0  0  0  0  0  0  0  0  0  0  0  0
    6.2645   -0.2859    5.6083 H   0  0  0  0  0  0  0  0  0  0  0  0
    6.6957    1.6497    4.7648 C   0  0  0  0  0  0  0  0  0  0  0  0
    7.7702    1.4930    4.8022 H   0  0  0  0  0  0  0  0  0  0  0  0
    6.3932    2.2167    5.6414 H   0  0  0  0  0  0  0  0  0  0  0  0
    6.4619    2.2431    3.8841 H   0  0  0  0  0  0  0  0  0  0  0  0
    4.8937    1.8655    0.2964 C   0  0  0  0  0  0  0  0  0  0  0  0
    5.0749    2.9943   -0.5037 C   0  0  0  0  0  0  0  0  0  0  0  0
    4.7252    3.9506   -0.1445 H   0  0  0  0  0  0  0  0  0  0  0  0
    5.6920    2.8830   -1.7340 C   0  0  0  0  0  0  0  0  0  0  0  0
    5.8305    3.7607   -2.3463 H   0  0  0  0  0  0  0  0  0  0  0  0
    6.1237    1.6450   -2.1830 C   0  0  0  0  0  0  0  0  0  0  0  0
    6.6019    1.5554   -3.1465 H   0  0  0  0  0  0  0  0  0  0  0  0
    5.9283    0.5165   -1.4023 C   0  0  0  0  0  0  0  0  0  0  0  0
    6.2457   -0.4509   -1.7615 H   0  0  0  0  0  0  0  0  0  0  0  0
    5.3174    0.6202   -0.1667 C   0  0  0  0  0  0  0  0  0  0  0  0
    5.1362   -0.2782    0.4073 H   0  0  0  0  0  0  0  0  0  0  0  0
  1  3  1  0  0  0  0
  1  8  1  0  0  0  0
  1 10  1  0  0  0  0
  2  1  1  0  0  0  0
  5  9  1  0  0  0  0
  7  1  1  0  0  0  0
  8  4  1  0  0  0  0
  9  1  1  0  0  0  0
 10  6  1  0  0  0  0
 11 14  1  0  0  0  0
 12 11  1  0  0  0  0
 13 16  1  0  0  0  0
 14  3  1  0  0  0  0
 14 13  1  6  0  0  0
 15 30  1  1  0  0  0
 15  7  1  0  0  0  0
 15 11  1  0  0  0  0
 16 17  1  0  0  0  0
 16 19  1  0  0  0  0
 16 18  1  0  0  0  0
 19 20  1  0  0  0  0
 21 19  1  0  0  0  0
 22 19  1  0  0  0  0
 23 26  1  0  0  0  0
 23 13  1  0  0  0  0
 23 25  1  0  0  0  0
 24 23  1  0  0  0  0
 26 27  1  0  0  0  0
 26 28  1  0  0  0  0
 29 26  1  0  0  0  0
 31 32  1  0  0  0  0
 31 30  2  0  0  0  0
 33 31  1  0  0  0  0
 34 33  1  0  0  0  0
 35 33  2  0  0  0  0
 35 37  1  0  0  0  0
 36 35  1  0  0  0  0
 37 39  2  0  0  0  0
 38 37  1  0  0  0  0
 39 30  1  0  0  0  0
 39 40  1  0  0  0  0
M  END
$$$$
