CSD_code = HIJTID | q = 0 | S = 0 | Stoichiometry = C7H7I2NOZn | MND = 4
 OpenBabel04212202043D

 19 20  0  0  0  0  0  0  0  0999 V2000
    0.0717    5.3622   13.3120 Zn  0  0  0  0  0  0  0  0  0  0  0  0
   -1.6583    7.0711   13.8967 I   0  0  0  0  0  0  0  0  0  0  0  0
    1.5262    3.4896   14.1118 I   0  0  0  0  0  0  0  0  0  0  0  0
    1.5416    6.5940   12.1661 N   0  0  0  0  0  0  0  0  0  0  0  0
   -0.3282    4.8671   11.2183 O   0  0  0  0  0  0  0  0  0  0  0  0
    1.4331    6.3915   10.8467 C   0  0  0  0  0  0  0  0  0  0  0  0
    2.2464    7.0336    9.9209 C   0  0  0  0  0  0  0  0  0  0  0  0
    2.1271    6.8426    8.8665 H   0  0  0  0  0  0  0  0  0  0  0  0
    3.2050    7.9176   10.3965 C   0  0  0  0  0  0  0  0  0  0  0  0
    3.8581    8.4375    9.7126 H   0  0  0  0  0  0  0  0  0  0  0  0
    3.3075    8.1198   11.7593 C   0  0  0  0  0  0  0  0  0  0  0  0
    4.0413    8.8004   12.1612 H   0  0  0  0  0  0  0  0  0  0  0  0
    2.4524    7.4368   12.6333 C   0  0  0  0  0  0  0  0  0  0  0  0
    0.3951    5.4426   10.4370 C   0  0  0  0  0  0  0  0  0  0  0  0
    0.2988    5.2704    9.3544 H   0  0  0  0  0  0  0  0  0  0  0  0
    2.5270    7.6272   14.1060 C   0  0  0  0  0  0  0  0  0  0  0  0
    1.5801    8.0184   14.4804 H   0  0  0  0  0  0  0  0  0  0  0  0
    3.3212    8.3177   14.3730 H   0  0  0  0  0  0  0  0  0  0  0  0
    2.7094    6.6722   14.6000 H   0  0  0  0  0  0  0  0  0  0  0  0
  1  2  1  0  0  0  0
  1  3  1  0  0  0  0
  4 13  1  0  0  0  0
  4  1  1  0  0  0  0
  5  1  1  0  0  0  0
  6  4  1  0  0  0  0
  7  9  2  0  0  0  0
  7  6  1  0  0  0  0
  8  7  1  0  0  0  0
  9 11  1  0  0  0  0
 10  9  1  0  0  0  0
 11 12  1  0  0  0  0
 11 13  2  0  0  0  0
 13 16  1  0  0  0  0
 14  6  2  0  0  0  0
 14  5  1  0  0  0  0
 15 14  1  0  0  0  0
 16 18  1  0  0  0  0
 16 17  1  0  0  0  0
 16 19  1  0  0  0  0
M  END
$$$$
