CSD_code = HIJTOJ | q = 0 | S = 0 | Stoichiometry = C9H11I2NOZn | MND = 4
 OpenBabel04212202043D

 25 25  0  0  0  0  0  0  0  0999 V2000
   -0.4291    2.3536    6.6729 Zn  0  0  0  0  0  0  0  0  0  0  0  0
   -0.8361    4.7523    7.2833 I   0  0  0  0  0  0  0  0  0  0  0  0
    0.5299    0.8020    4.9818 I   0  0  0  0  0  0  0  0  0  0  0  0
   -2.7660    1.5146    6.8191 N   0  0  0  0  0  0  0  0  0  0  0  0
   -0.5222    1.3695    8.5283 O   0  0  0  0  0  0  0  0  0  0  0  0
   -2.6964    2.0776    9.2059 C   0  0  0  0  0  0  0  0  0  0  0  0
   -3.3285    2.1680    7.9370 C   0  0  0  0  0  0  0  0  0  0  0  0
   -4.4941    2.9283    7.8462 C   0  0  0  0  0  0  0  0  0  0  0  0
   -4.9853    3.0626    6.8975 H   0  0  0  0  0  0  0  0  0  0  0  0
   -5.0564    3.5199    8.9611 C   0  0  0  0  0  0  0  0  0  0  0  0
   -5.9619    4.0964    8.8495 H   0  0  0  0  0  0  0  0  0  0  0  0
   -4.4831    3.3645   10.2158 C   0  0  0  0  0  0  0  0  0  0  0  0
   -4.9376    3.8130   11.0843 H   0  0  0  0  0  0  0  0  0  0  0  0
   -3.3125    2.6532   10.3286 C   0  0  0  0  0  0  0  0  0  0  0  0
   -2.8246    2.5587   11.2873 H   0  0  0  0  0  0  0  0  0  0  0  0
   -1.3464    1.6144    9.3992 C   0  0  0  0  0  3  0  0  0  0  0  0
   -1.0234    1.5651   10.4528 H   0  0  0  0  0  0  0  0  0  0  0  0
   -3.3554    1.8519    5.5249 C   0  0  0  0  0  0  0  0  0  0  0  0
   -2.7590    1.3836    4.7416 H   0  0  0  0  0  0  0  0  0  0  0  0
   -3.3420    2.9308    5.3719 H   0  0  0  0  0  0  0  0  0  0  0  0
   -4.3819    1.4811    5.4300 H   0  0  0  0  0  0  0  0  0  0  0  0
   -2.7460    0.0554    6.9695 C   0  0  0  0  0  0  0  0  0  0  0  0
   -2.2971   -0.2391    7.9137 H   0  0  0  0  0  0  0  0  0  0  0  0
   -2.1644   -0.3842    6.1609 H   0  0  0  0  0  0  0  0  0  0  0  0
   -3.7650   -0.3458    6.9254 H   0  0  0  0  0  0  0  0  0  0  0  0
  1  2  1  0  0  0  0
  1  5  1  0  0  0  0
  3  1  1  0  0  0  0
  4 22  1  0  0  0  0
  4  7  1  0  0  0  0
  5 16  1  0  0  0  0
  6 16  1  0  0  0  0
  6 14  1  0  0  0  0
  7  6  2  0  0  0  0
  8  7  1  0  0  0  0
  8 10  2  0  0  0  0
  9  8  1  0  0  0  0
 10 12  1  0  0  0  0
 11 10  1  0  0  0  0
 12 14  2  0  0  0  0
 12 13  1  0  0  0  0
 14 15  1  0  0  0  0
 16 17  1  0  0  0  0
 18  4  1  0  0  0  0
 19 18  1  0  0  0  0
 20 18  1  0  0  0  0
 21 18  1  0  0  0  0
 22 23  1  0  0  0  0
 24 22  1  0  0  0  0
 25 22  1  0  0  0  0
M  END
$$$$
