CSD_code = HIJXOQ | q = 0 | S = 0 | Stoichiometry = C24H27Cl2N2ORhS | MND = 8
 OpenBabel04212202043D

 58 58  0  0  1  0  0  0  0  0999 V2000
    4.5986   14.3760   13.7721 Rh  0  0  0  0  0  0  0  0  0  0  0  0
    4.9347   15.3044   16.0034 S   0  0  0  0  0  0  0  0  0  0  0  0
    4.9948   12.2071   14.4994 Cl  0  0  0  0  0 15  0  0  0  0  0  0
    6.8638   14.6066   13.3810 Cl  0  0  0  0  0 15  0  0  0  0  0  0
    3.7306   14.1779   11.8060 C   0  0  1  0  0  0  0  0  0  0  0  0
    3.3288   16.0362   13.1181 C   0  0  2  0  0  0  0  0  0  0  0  0
    2.4876   14.9536   13.5944 C   0  0  0  0  0  0  0  0  0  0  0  0
    2.7050   13.8293   12.7585 C   0  0  0  0  0  0  0  0  0  0  0  0
    4.0497   15.5719   11.9884 C   0  0  2  0  0  3  0  0  0  0  0  0
    6.3428   14.7972   16.7736 C   0  0  0  0  0  0  0  0  0  0  0  0
    1.9588   12.5366   12.7741 C   0  0  0  0  0  0  0  0  0  0  0  0
    2.6312   11.6941   12.6233 H   0  0  0  0  0  0  0  0  0  0  0  0
    1.4376   12.3933   13.7170 H   0  0  0  0  0  0  0  0  0  0  0  0
    1.2260   12.5362   11.9652 H   0  0  0  0  0  0  0  0  0  0  0  0
    3.2769   17.4362   13.6371 C   0  0  0  0  0  0  0  0  0  0  0  0
    4.1811   17.9828   13.3810 H   0  0  0  0  0  0  0  0  0  0  0  0
    2.4189   17.9539   13.2044 H   0  0  0  0  0  0  0  0  0  0  0  0
    3.1683   17.4410   14.7199 H   0  0  0  0  0  0  0  0  0  0  0  0
    1.4467   15.0969   14.6563 C   0  0  0  0  0  0  0  0  0  0  0  0
    1.8171   15.6999   15.4831 H   0  0  0  0  0  0  0  0  0  0  0  0
    0.5668   15.5902   14.2387 H   0  0  0  0  0  0  0  0  0  0  0  0
    1.1474   14.1275   15.0466 H   0  0  0  0  0  0  0  0  0  0  0  0
    4.1715   13.3410   10.6489 C   0  0  0  0  0  0  0  0  0  0  0  0
    5.1832   13.6045   10.3483 H   0  0  0  0  0  0  0  0  0  0  0  0
    4.1488   12.2833   10.9017 H   0  0  0  0  0  0  0  0  0  0  0  0
    3.5027   13.5074    9.8016 H   0  0  0  0  0  0  0  0  0  0  0  0
    4.9294   16.3651   11.0793 C   0  0  0  0  0  0  0  0  0  0  0  0
    5.9488   15.9793   11.0907 H   0  0  0  0  0  0  0  0  0  0  0  0
    4.5516   16.2951   10.0589 H   0  0  0  0  0  0  0  0  0  0  0  0
    4.9561   17.4101   11.3755 H   0  0  0  0  0  0  0  0  0  0  0  0
    8.5793   13.4445   17.9382 O   0  0  0  0  0  0  0  0  0  0  0  0
    6.9176   13.6249   16.3817 N   0  0  0  0  0  0  0  0  0  0  0  0
    6.4206   13.1137   15.6271 H   0  0  0  0  0  0  0  0  0  0  0  0
    8.0192   13.0166   16.9368 C   0  0  0  0  0  0  0  0  0  0  0  0
    8.4505   11.7872   16.2456 C   0  0  0  0  0  0  0  0  0  0  0  0
    8.7751   10.4661   14.2709 C   0  0  0  0  0  0  0  0  0  0  0  0
    8.6891   10.3491   13.2014 H   0  0  0  0  0  0  0  0  0  0  0  0
    8.3352   11.6346   14.8649 C   0  0  0  0  0  0  0  0  0  0  0  0
    7.9399   12.4303   14.2527 H   0  0  0  0  0  0  0  0  0  0  0  0
    9.0291   10.7750   17.0104 C   0  0  0  0  0  0  0  0  0  0  0  0
    9.1276   10.9185   18.0761 H   0  0  0  0  0  0  0  0  0  0  0  0
    9.4518    9.6063   16.4087 C   0  0  0  0  0  0  0  0  0  0  0  0
    9.8856    8.8182   17.0062 H   0  0  0  0  0  0  0  0  0  0  0  0
    9.3202    9.4491   15.0379 C   0  0  0  0  0  0  0  0  0  0  0  0
    9.6505    8.5348   14.5667 H   0  0  0  0  0  0  0  0  0  0  0  0
    6.9110   15.4421   17.7917 N   0  0  0  0  0  0  0  0  0  0  0  0
    7.7001   14.9059   18.1943 H   0  0  0  0  0  0  0  0  0  0  0  0
    6.6492   16.6605   18.4152 C   0  0  0  0  0  0  0  0  0  0  0  0
    5.8255   17.6563   17.8998 C   0  0  0  0  0  0  0  0  0  0  0  0
    5.3292   17.5152   16.9555 H   0  0  0  0  0  0  0  0  0  0  0  0
    7.3064   16.8783   19.6282 C   0  0  0  0  0  0  0  0  0  0  0  0
    7.9593   16.1121   20.0200 H   0  0  0  0  0  0  0  0  0  0  0  0
    6.2959   19.0446   19.8089 C   0  0  0  0  0  0  0  0  0  0  0  0
    6.1532   19.9676   20.3496 H   0  0  0  0  0  0  0  0  0  0  0  0
    5.6577   18.8387   18.5982 C   0  0  0  0  0  0  0  0  0  0  0  0
    5.0192   19.6066   18.1878 H   0  0  0  0  0  0  0  0  0  0  0  0
    7.1255   18.0587   20.3199 C   0  0  0  0  0  0  0  0  0  0  0  0
    7.6349   18.2117   21.2593 H   0  0  0  0  0  0  0  0  0  0  0  0
  2 10  2  0  0  0  0
  5 23  1  6  0  0  0
  5  9  1  0  0  0  0
  5  8  1  0  0  0  0
  5  1  1  0  0  0  0
  6  7  1  0  0  0  0
  6 15  1  1  0  0  0
  6  1  1  0  0  0  0
  7 19  1  0  0  0  0
  8 11  1  0  0  0  0
  8  7  2  0  0  0  0
  9 27  1  6  0  0  0
  9  6  1  0  0  0  0
 10 46  1  0  0  0  0
 11 13  1  0  0  0  0
 12 11  1  0  0  0  0
 14 11  1  0  0  0  0
 15 18  1  0  0  0  0
 16 15  1  0  0  0  0
 17 15  1  0  0  0  0
 19 22  1  0  0  0  0
 19 20  1  0  0  0  0
 21 19  1  0  0  0  0
 23 25  1  0  0  0  0
 24 23  1  0  0  0  0
 26 23  1  0  0  0  0
 27 28  1  0  0  0  0
 27 30  1  0  0  0  0
 29 27  1  0  0  0  0
 32 10  1  0  0  0  0
 32 34  1  0  0  0  0
 33 32  1  0  0  0  0
 34 31  2  0  0  0  0
 35 34  1  0  0  0  0
 35 40  1  0  0  0  0
 36 38  1  0  0  0  0
 36 44  2  0  0  0  0
 37 36  1  0  0  0  0
 38 35  2  0  0  0  0
 39 38  1  0  0  0  0
 40 41  1  0  0  0  0
 42 43  1  0  0  0  0
 42 40  2  0  0  0  0
 44 42  1  0  0  0  0
 45 44  1  0  0  0  0
 46 47  1  0  0  0  0
 46 48  1  0  0  0  0
 48 51  1  0  0  0  0
 49 48  2  0  0  0  0
 49 55  1  0  0  0  0
 50 49  1  0  0  0  0
 51 52  1  0  0  0  0
 51 57  2  0  0  0  0
 53 57  1  0  0  0  0
 53 54  1  0  0  0  0
 55 53  2  0  0  0  0
 56 55  1  0  0  0  0
 57 58  1  0  0  0  0
M  END
$$$$
