CSD_code = HIKBUY | q = 0 | S = 0 | Stoichiometry = C16H16Br2O4Zn | MND = 4
 OpenBabel04212202043D

 39 40  0  0  0  0  0  0  0  0999 V2000
   -1.4955    2.2834    3.9424 Zn  0  0  0  0  0  0  0  0  0  0  0  0
   -2.9354    2.7943    5.7112 Br  0  0  0  0  0  0  0  0  0  0  0  0
   -0.2513    0.7762    4.8632 O   0  0  0  0  0  0  0  0  0  0  0  0
    3.8845   -2.9463    7.8784 O   0  0  0  0  0  0  0  0  0  0  0  0
    1.6407   -0.5277    5.3889 C   0  0  0  0  0  0  0  0  0  0  0  0
    2.8843   -0.9894    4.9467 C   0  0  0  0  0  0  0  0  0  0  0  0
    3.2375   -0.7043    3.9665 H   0  0  0  0  0  0  0  0  0  0  0  0
    3.6620   -1.7971    5.7464 C   0  0  0  0  0  0  0  0  0  0  0  0
    4.6179   -2.1378    5.3817 H   0  0  0  0  0  0  0  0  0  0  0  0
    3.2097   -2.1652    7.0180 C   0  0  0  0  0  0  0  0  0  0  0  0
    1.9612   -1.7037    7.4656 C   0  0  0  0  0  0  0  0  0  0  0  0
    1.6345   -1.9984    8.4501 H   0  0  0  0  0  0  0  0  0  0  0  0
    1.1915   -0.8998    6.6669 C   0  0  0  0  0  0  0  0  0  0  0  0
    0.2329   -0.5365    7.0052 H   0  0  0  0  0  0  0  0  0  0  0  0
    0.8416    0.3268    4.5462 C   0  0  0  0  0  3  0  0  0  0  0  0
    1.2831    0.5708    3.5657 H   0  0  0  0  0  0  0  0  0  0  0  0
    5.1561   -3.4411    7.5175 C   0  0  0  0  0  0  0  0  0  0  0  0
    5.4951   -4.0254    8.3709 H   0  0  0  0  0  0  0  0  0  0  0  0
    5.8631   -2.6274    7.3318 H   0  0  0  0  0  0  0  0  0  0  0  0
    5.0984   -4.0865    6.6363 H   0  0  0  0  0  0  0  0  0  0  0  0
   -0.0509    2.8038    2.1803 Br  0  0  0  0  0  0  0  0  0  0  0  0
   -2.7451    0.7872    3.0112 O   0  0  0  0  0  0  0  0  0  0  0  0
   -3.8369    0.3360    3.3295 C   0  0  0  0  0  3  0  0  0  0  0  0
   -4.6347   -0.5216    2.4887 C   0  0  0  0  0  0  0  0  0  0  0  0
   -5.8771   -0.9849    2.9322 C   0  0  0  0  0  0  0  0  0  0  0  0
   -6.2302   -0.6993    3.9123 H   0  0  0  0  0  0  0  0  0  0  0  0
   -6.6537   -1.7953    2.1341 C   0  0  0  0  0  0  0  0  0  0  0  0
   -7.6087   -2.1374    2.5000 H   0  0  0  0  0  0  0  0  0  0  0  0
   -6.2015   -2.1644    0.8629 C   0  0  0  0  0  0  0  0  0  0  0  0
   -6.8755   -2.9478    0.0039 O   0  0  0  0  0  0  0  0  0  0  0  0
   -8.1457   -3.4450    0.3665 C   0  0  0  0  0  0  0  0  0  0  0  0
   -8.4837   -4.0318   -0.4856 H   0  0  0  0  0  0  0  0  0  0  0  0
   -8.8544   -2.6328    0.5511 H   0  0  0  0  0  0  0  0  0  0  0  0
   -8.0858   -4.0886    1.2488 H   0  0  0  0  0  0  0  0  0  0  0  0
   -4.9539   -1.7016    0.4141 C   0  0  0  0  0  0  0  0  0  0  0  0
   -4.6272   -1.9972   -0.5702 H   0  0  0  0  0  0  0  0  0  0  0  0
   -4.1853   -0.8951    1.2111 C   0  0  0  0  0  0  0  0  0  0  0  0
   -3.2275   -0.5306    0.8719 H   0  0  0  0  0  0  0  0  0  0  0  0
   -4.2781    0.5801    4.3101 H   0  0  0  0  0  0  0  0  0  0  0  0
  1  3  1  0  0  0  0
  1  2  1  0  0  0  0
  5 13  1  0  0  0  0
  6  5  2  0  0  0  0
  6  8  1  0  0  0  0
  7  6  1  0  0  0  0
  8 10  2  0  0  0  0
  9  8  1  0  0  0  0
 10 11  1  0  0  0  0
 10  4  1  0  0  0  0
 11 12  1  0  0  0  0
 13 14  1  0  0  0  0
 13 11  2  0  0  0  0
 15  3  1  0  0  0  0
 15  5  1  0  0  0  0
 16 15  1  0  0  0  0
 17  4  1  0  0  0  0
 17 18  1  0  0  0  0
 19 17  1  0  0  0  0
 20 17  1  0  0  0  0
 21  1  1  0  0  0  0
 22 23  1  0  0  0  0
 22  1  1  0  0  0  0
 23 39  1  0  0  0  0
 24 25  1  0  0  0  0
 24 23  1  0  0  0  0
 25 26  1  0  0  0  0
 27 28  1  0  0  0  0
 27 25  2  0  0  0  0
 29 27  1  0  0  0  0
 30 31  1  0  0  0  0
 30 29  1  0  0  0  0
 31 33  1  0  0  0  0
 31 34  1  0  0  0  0
 32 31  1  0  0  0  0
 35 29  2  0  0  0  0
 35 37  1  0  0  0  0
 36 35  1  0  0  0  0
 37 24  2  0  0  0  0
 38 37  1  0  0  0  0
M  END
$$$$
