CSD_code = HIKCOT | q = 0 | S = 0 | Stoichiometry = C14H12Br2O2Zn | MND = 4
 OpenBabel04212202043D

 31 32  0  0  0  0  0  0  0  0999 V2000
   -1.0667    0.5428    4.1217 Zn  0  0  0  0  0  0  0  0  0  0  0  0
   -2.7194    1.0105    2.5392 Br  0  0  0  0  0  0  0  0  0  0  0  0
   -2.1906   -0.9957    5.1877 O   0  0  0  0  0  0  0  0  0  0  0  0
   -3.9545   -2.3817    5.9246 C   0  0  0  0  0  0  0  0  0  0  0  0
   -5.2612   -2.8095    5.6696 C   0  0  0  0  0  0  0  0  0  0  0  0
   -5.7875   -2.4272    4.8074 H   0  0  0  0  0  0  0  0  0  0  0  0
   -5.8672   -3.7118    6.5206 C   0  0  0  0  0  0  0  0  0  0  0  0
   -6.8764   -4.0425    6.3276 H   0  0  0  0  0  0  0  0  0  0  0  0
   -5.1800   -4.1932    7.6265 C   0  0  0  0  0  0  0  0  0  0  0  0
   -5.6589   -4.8981    8.2897 H   0  0  0  0  0  0  0  0  0  0  0  0
   -3.8827   -3.7734    7.8866 C   0  0  0  0  0  0  0  0  0  0  0  0
   -3.3558   -4.1511    8.7496 H   0  0  0  0  0  0  0  0  0  0  0  0
   -3.2689   -2.8713    7.0423 C   0  0  0  0  0  0  0  0  0  0  0  0
   -2.2621   -2.5276    7.2269 H   0  0  0  0  0  0  0  0  0  0  0  0
   -3.3207   -1.4275    5.0344 C   0  0  0  0  0  3  0  0  0  0  0  0
   -3.9381   -1.0953    4.1828 H   0  0  0  0  0  0  0  0  0  0  0  0
    0.5859    1.0106    5.7042 Br  0  0  0  0  0  0  0  0  0  0  0  0
    0.0572   -0.9955    3.0556 O   0  0  0  0  0  0  0  0  0  0  0  0
    1.1876   -1.4270    3.2087 C   0  0  0  0  0  3  0  0  0  0  0  0
    1.8211   -2.3817    2.3188 C   0  0  0  0  0  0  0  0  0  0  0  0
    3.1278   -2.8095    2.5739 C   0  0  0  0  0  0  0  0  0  0  0  0
    3.6541   -2.4271    3.4360 H   0  0  0  0  0  0  0  0  0  0  0  0
    3.7338   -3.7118    1.7228 C   0  0  0  0  0  0  0  0  0  0  0  0
    4.7430   -4.0426    1.9159 H   0  0  0  0  0  0  0  0  0  0  0  0
    3.0466   -4.1931    0.6169 C   0  0  0  0  0  0  0  0  0  0  0  0
    3.5254   -4.8981   -0.0462 H   0  0  0  0  0  0  0  0  0  0  0  0
    1.7493   -3.7734    0.3568 C   0  0  0  0  0  0  0  0  0  0  0  0
    1.2223   -4.1511   -0.5062 H   0  0  0  0  0  0  0  0  0  0  0  0
    1.1355   -2.8714    1.2011 C   0  0  0  0  0  0  0  0  0  0  0  0
    0.1287   -2.5275    1.0165 H   0  0  0  0  0  0  0  0  0  0  0  0
    1.8045   -1.0957    4.0610 H   0  0  0  0  0  0  0  0  0  0  0  0
  1  3  1  0  0  0  0
  1 17  1  0  0  0  0
  2  1  1  0  0  0  0
  4 13  1  0  0  0  0
  5  4  2  0  0  0  0
  5  7  1  0  0  0  0
  6  5  1  0  0  0  0
  7  9  2  0  0  0  0
  8  7  1  0  0  0  0
  9 11  1  0  0  0  0
  9 10  1  0  0  0  0
 11 12  1  0  0  0  0
 13 14  1  0  0  0  0
 13 11  2  0  0  0  0
 15  3  1  0  0  0  0
 15  4  1  0  0  0  0
 16 15  1  0  0  0  0
 18 19  1  0  0  0  0
 18  1  1  0  0  0  0
 19 31  1  0  0  0  0
 20 21  1  0  0  0  0
 20 19  1  0  0  0  0
 21 22  1  0  0  0  0
 23 24  1  0  0  0  0
 23 21  2  0  0  0  0
 25 23  1  0  0  0  0
 26 25  1  0  0  0  0
 27 25  2  0  0  0  0
 27 29  1  0  0  0  0
 28 27  1  0  0  0  0
 29 20  2  0  0  0  0
 30 29  1  0  0  0  0
M  END
$$$$
