CSD_code = HIKFEN | q = 0 | S = 0 | Stoichiometry = C17H30Cl2N2Pt | MND = 5
 OpenBabel04212202043D

 52 51  0  0  1  0  0  0  0  0999 V2000
    1.4985    4.6091    2.2965 Pt  0  0  0  0  0  0  0  0  0  0  0  0
    1.8382    6.9674    2.2959 Cl  0  0  0  0  0 15  0  0  0  0  0  0
    3.6721    1.4624    0.3606 N   0  0  0  0  0  0  0  0  0  0  0  0
    0.6693    4.8469    4.2379 C   0  0  0  0  0  3  0  0  0  0  0  0
    0.9895    4.0670    4.9204 H   0  0  0  0  0  0  0  0  0  0  0  0
    0.8383    5.8588    4.5843 H   0  0  0  0  0  0  0  0  0  0  0  0
    2.8070    4.4725    0.4307 Cl  0  0  0  0  0 15  0  0  0  0  0  0
    4.7059    2.5441    1.9602 N   0  0  0  0  0  0  0  0  0  0  0  0
   -0.3511    4.6080    3.3240 C   0  0  2  0  0  0  0  0  0  0  0  0
   -0.9430    5.4538    2.9757 H   0  0  0  0  0  0  0  0  0  0  0  0
   -0.9941    3.2509    3.1562 C   0  0  0  0  0  0  0  0  0  0  0  0
   -1.5067    3.2143    2.1915 H   0  0  0  0  0  0  0  0  0  0  0  0
   -1.7479    3.1033    3.9365 H   0  0  0  0  0  0  0  0  0  0  0  0
    0.0713    2.1563    3.2058 C   0  0  0  0  0  0  0  0  0  0  0  0
   -0.3675    1.1892    2.9313 H   0  0  0  0  0  0  0  0  0  0  0  0
    0.4478    2.0562    4.2263 H   0  0  0  0  0  0  0  0  0  0  0  0
    1.2118    2.5442    2.2527 C   0  0  2  0  0  0  0  0  0  0  0  0
    0.8723    2.3227    1.2324 H   0  0  0  0  0  0  0  0  0  0  0  0
    2.4411    1.6483    2.5662 C   0  0  0  0  0  0  0  0  0  0  0  0
    2.7584    1.8608    3.5825 H   0  0  0  0  0  0  0  0  0  0  0  0
    2.1363    0.5993    2.5428 H   0  0  0  0  0  0  0  0  0  0  0  0
    3.5817    1.8654    1.6430 C   0  0  1  0  0  3  0  0  0  0  0  0
    4.8256    1.9848   -0.1551 C   0  0  0  0  0  0  0  0  0  0  0  0
    5.1141    1.8789   -1.1766 H   0  0  0  0  0  0  0  0  0  0  0  0
    5.4663    2.6424    0.8309 C   0  0  0  0  0  0  0  0  0  0  0  0
    6.3865    3.1773    0.7728 H   0  0  0  0  0  0  0  0  0  0  0  0
    2.7880    0.6820   -0.5306 C   0  0  0  0  0  0  0  0  0  0  0  0
    3.6734   -0.2762   -1.3463 C   0  0  0  0  0  0  0  0  0  0  0  0
    4.3491   -0.8256   -0.6939 H   0  0  0  0  0  0  0  0  0  0  0  0
    4.2566    0.2385   -2.1028 H   0  0  0  0  0  0  0  0  0  0  0  0
    3.0420   -0.9939   -1.8625 H   0  0  0  0  0  0  0  0  0  0  0  0
    2.0743    1.6697   -1.4548 C   0  0  0  0  0  0  0  0  0  0  0  0
    1.5739    2.4375   -0.8719 H   0  0  0  0  0  0  0  0  0  0  0  0
    1.3451    1.1488   -2.0686 H   0  0  0  0  0  0  0  0  0  0  0  0
    2.7845    2.1746   -2.1033 H   0  0  0  0  0  0  0  0  0  0  0  0
    1.7700   -0.1852    0.2085 C   0  0  0  0  0  0  0  0  0  0  0  0
    1.0225    0.4082    0.7197 H   0  0  0  0  0  0  0  0  0  0  0  0
    2.2615   -0.8557    0.9098 H   0  0  0  0  0  0  0  0  0  0  0  0
    1.2489   -0.7968   -0.5243 H   0  0  0  0  0  0  0  0  0  0  0  0
    5.1802    3.0057    3.2848 C   0  0  0  0  0  0  0  0  0  0  0  0
    6.4524    3.8396    3.1056 C   0  0  0  0  0  0  0  0  0  0  0  0
    6.2510    4.7075    2.4832 H   0  0  0  0  0  0  0  0  0  0  0  0
    7.2701    3.2595    2.6846 H   0  0  0  0  0  0  0  0  0  0  0  0
    6.7757    4.1918    4.0816 H   0  0  0  0  0  0  0  0  0  0  0  0
    5.5314    1.7563    4.1056 C   0  0  0  0  0  0  0  0  0  0  0  0
    4.6694    1.1110    4.2500 H   0  0  0  0  0  0  0  0  0  0  0  0
    5.9006    2.0582    5.0818 H   0  0  0  0  0  0  0  0  0  0  0  0
    6.3092    1.1806    3.6072 H   0  0  0  0  0  0  0  0  0  0  0  0
    4.1521    3.8854    4.0057 C   0  0  0  0  0  0  0  0  0  0  0  0
    3.4817    4.3813    3.2815 H   0  0  0  0  0  0  0  0  0  0  0  0
    4.6558    4.6711    4.5601 H   0  0  0  0  0  0  0  0  0  0  0  0
    3.5520    3.3226    4.7147 H   0  0  0  0  0  0  0  0  0  0  0  0
  1  9  1  0  0  0  0
  3 22  1  0  0  0  0
  4  6  1  0  0  0  0
  4  5  1  0  0  0  0
  8 40  1  0  0  0  0
  9 10  1  6  0  0  0
  9  4  1  0  0  0  0
 11 14  1  0  0  0  0
 11  9  1  0  0  0  0
 11 13  1  0  0  0  0
 12 11  1  0  0  0  0
 14 16  1  0  0  0  0
 15 14  1  0  0  0  0
 17 18  1  6  0  0  0
 17  1  1  0  0  0  0
 17 19  1  0  0  0  0
 17 14  1  0  0  0  0
 19 20  1  0  0  0  0
 21 19  1  0  0  0  0
 22  8  1  0  0  0  0
 22 19  1  6  0  0  0
 23  3  1  0  0  0  0
 23 25  2  0  0  0  0
 24 23  1  0  0  0  0
 25  8  1  0  0  0  0
 26 25  1  0  0  0  0
 27 36  1  0  0  0  0
 27  3  1  0  0  0  0
 28 29  1  0  0  0  0
 28 27  1  0  0  0  0
 30 28  1  0  0  0  0
 31 28  1  0  0  0  0
 32 33  1  0  0  0  0
 32 27  1  0  0  0  0
 34 32  1  0  0  0  0
 35 32  1  0  0  0  0
 36 37  1  0  0  0  0
 36 38  1  0  0  0  0
 39 36  1  0  0  0  0
 40 49  1  0  0  0  0
 40 45  1  0  0  0  0
 41 40  1  0  0  0  0
 41 44  1  0  0  0  0
 42 41  1  0  0  0  0
 43 41  1  0  0  0  0
 45 46  1  0  0  0  0
 45 47  1  0  0  0  0
 48 45  1  0  0  0  0
 49 51  1  0  0  0  0
 49 52  1  0  0  0  0
 50 49  1  0  0  0  0
M  END
$$$$
