CSD_code = HIKHUG | q = 0 | S = 0 | Stoichiometry = C25H30Cl2N6Pd | MND = 4
 OpenBabel04212202043D

 64 69  0  0  1  0  0  0  0  0999 V2000
   10.9229    9.9123    1.0076 C   0  0  0  0  0  0  0  0  0  0  0  0
   11.4991   10.5859    1.6543 H   0  0  0  0  0  0  0  0  0  0  0  0
   10.4774   10.5008    0.2008 H   0  0  0  0  0  0  0  0  0  0  0  0
   11.5858    9.1618    0.5859 H   0  0  0  0  0  0  0  0  0  0  0  0
    9.8412    9.2740    1.8051 C   0  0  1  0  0  3  0  0  0  0  0  0
    9.5012    7.9252    1.9719 C   0  0  0  0  0  0  0  0  0  0  0  0
    9.9766    7.0784    1.5211 H   0  0  0  0  0  0  0  0  0  0  0  0
    8.4276    7.9098    2.8387 C   0  0  0  0  0  0  0  0  0  0  0  0
    7.6705    6.7597    3.3967 C   0  0  0  0  0  0  0  0  0  0  0  0
    7.7580    6.7267    4.4825 H   0  0  0  0  0  0  0  0  0  0  0  0
    8.0710    5.8361    2.9889 H   0  0  0  0  0  0  0  0  0  0  0  0
    6.6130    6.8178    3.1395 H   0  0  0  0  0  0  0  0  0  0  0  0
    7.1995    9.7294    4.0978 C   0  0  0  0  0  0  0  0  0  0  0  0
    6.4394    8.9539    4.2747 H   0  0  0  0  0  0  0  0  0  0  0  0
    7.7264    9.9432    5.0385 H   0  0  0  0  0  0  0  0  0  0  0  0
    5.7379   10.9668    2.5479 C   0  0  0  0  0  0  0  0  0  0  0  0
    5.3032    9.8279    1.9090 C   0  0  0  0  0  0  0  0  0  0  0  0
    5.6654    8.8531    2.1938 H   0  0  0  0  0  0  0  0  0  0  0  0
    4.3948    9.9149    0.8476 C   0  0  0  0  0  0  0  0  0  0  0  0
    4.0649    9.0022    0.3725 H   0  0  0  0  0  0  0  0  0  0  0  0
    3.9365   11.1242    0.4102 C   0  0  0  0  0  0  0  0  0  0  0  0
    3.2435   11.1871   -0.4154 H   0  0  0  0  0  0  0  0  0  0  0  0
    4.4019   12.3175    0.9996 C   0  0  0  0  0  0  0  0  0  0  0  0
    5.2981   12.2395    2.0909 C   0  0  0  0  0  0  0  0  0  0  0  0
    5.8358   13.4345    2.6432 C   0  0  0  0  0  0  0  0  0  0  0  0
    5.4961   14.6504    2.0937 C   0  0  0  0  0  0  0  0  0  0  0  0
    5.9284   15.5682    2.4588 H   0  0  0  0  0  0  0  0  0  0  0  0
    4.5893   14.7179    1.0301 C   0  0  0  0  0  0  0  0  0  0  0  0
    4.3347   15.6875    0.6268 H   0  0  0  0  0  0  0  0  0  0  0  0
    4.0373   13.5856    0.5028 C   0  0  0  0  0  0  0  0  0  0  0  0
    3.3451   13.6414   -0.3239 H   0  0  0  0  0  0  0  0  0  0  0  0
    7.4807   14.3981    4.2108 C   0  0  0  0  0  0  0  0  0  0  0  0
    8.0146   14.0634    5.1107 H   0  0  0  0  0  0  0  0  0  0  0  0
    6.8559   15.2676    4.4613 H   0  0  0  0  0  0  0  0  0  0  0  0
    8.2438   17.3167    3.5546 C   0  0  0  0  0  0  0  0  0  0  0  0
    8.3374   17.3023    4.6406 H   0  0  0  0  0  0  0  0  0  0  0  0
    7.1864   17.3959    3.3010 H   0  0  0  0  0  0  0  0  0  0  0  0
    8.7512   18.1991    3.1751 H   0  0  0  0  0  0  0  0  0  0  0  0
    8.8569   16.1052    2.9510 C   0  0  1  0  0  3  0  0  0  0  0  0
    9.9008   16.0011    2.0551 C   0  0  0  0  0  0  0  0  0  0  0  0
   10.4513   16.8050    1.6116 H   0  0  0  0  0  0  0  0  0  0  0  0
   10.0948   14.6291    1.8484 C   0  0  0  0  0  0  0  0  0  0  0  0
   11.0847   13.9077    1.0041 C   0  0  0  0  0  0  0  0  0  0  0  0
   11.4991   13.0656    1.5746 H   0  0  0  0  0  0  0  0  0  0  0  0
   11.8878   14.5729    0.6979 H   0  0  0  0  0  0  0  0  0  0  0  0
   10.5847   13.5103    0.1179 H   0  0  0  0  0  0  0  0  0  0  0  0
    6.5582   12.0964    4.5094 C   0  0  1  0  0  0  0  0  0  0  0  0
    7.3985   12.0409    5.2139 H   0  0  0  0  0  0  0  0  0  0  0  0
    5.2280   12.0841    5.2889 C   0  0  0  0  0  0  0  0  0  0  0  0
    5.1455   11.1188    5.7933 H   0  0  0  0  0  0  0  0  0  0  0  0
    4.3976   12.1697    4.5860 H   0  0  0  0  0  0  0  0  0  0  0  0
    5.1508   13.2042    6.3181 C   0  0  0  0  0  0  0  0  0  0  0  0
    4.2485   13.1019    6.9157 H   0  0  0  0  0  0  0  0  0  0  0  0
    5.1235   14.1749    5.8304 H   0  0  0  0  0  0  0  0  0  0  0  0
    6.0092   13.1722    6.9858 H   0  0  0  0  0  0  0  0  0  0  0  0
    9.0183   10.0163    2.5277 N   0  0  2  0  0  0  0  0  0  0  0  0
    8.1604    9.2004    3.1464 N   0  0  0  0  0  0  0  0  0  0  0  0
    6.6463   10.9572    3.6089 N   0  0  0  0  0  0  0  0  0  0  0  0
    6.7251   13.2920    3.7065 N   0  0  0  0  0  0  0  0  0  0  0  0
    8.4632   14.8416    3.2361 N   0  0  1  0  0  0  0  0  0  0  0  0
    9.2171   13.9577    2.5762 N   0  0  0  0  0  0  0  0  0  0  0  0
    8.2002   12.0649    0.4553 Cl  0  0  0  0  0  0  0  0  0  0  0  0
    9.9331   11.9181    4.7179 Cl  0  0  0  0  0  0  0  0  0  0  0  0
    9.0733   11.9906    2.5686 Pd  0  0  0  0  0  0  0  0  0  0  0  0
  1  2  1  0  0  0  0
  3  1  1  0  0  0  0
  4  1  1  0  0  0  0
  5  1  1  1  0  0  0
  5  6  1  0  0  0  0
  5 56  1  0  0  0  0
  6  8  2  0  0  0  0
  7  6  1  0  0  0  0
  8 57  1  0  0  0  0
  8  9  1  0  0  0  0
  9 10  1  0  0  0  0
 11  9  1  0  0  0  0
 12  9  1  0  0  0  0
 13 14  1  0  0  0  0
 13 15  1  0  0  0  0
 16 58  1  0  0  0  0
 17 18  1  0  0  0  0
 17 16  2  0  0  0  0
 19 17  1  0  0  0  0
 20 19  1  0  0  0  0
 21 19  2  0  0  0  0
 21 23  1  0  0  0  0
 22 21  1  0  0  0  0
 23 24  1  0  0  0  0
 24 16  1  0  0  0  0
 24 25  2  0  0  0  0
 25 59  1  0  0  0  0
 26 27  1  0  0  0  0
 26 25  1  0  0  0  0
 28 26  2  0  0  0  0
 29 28  1  0  0  0  0
 30 23  2  0  0  0  0
 30 28  1  0  0  0  0
 31 30  1  0  0  0  0
 32 34  1  0  0  0  0
 32 33  1  0  0  0  0
 35 36  1  0  0  0  0
 37 35  1  0  0  0  0
 38 35  1  0  0  0  0
 39 60  1  0  0  0  0
 39 35  1  1  0  0  0
 40 39  1  0  0  0  0
 41 40  1  0  0  0  0
 42 40  2  0  0  0  0
 42 61  1  0  0  0  0
 43 44  1  0  0  0  0
 43 42  1  0  0  0  0
 45 43  1  0  0  0  0
 46 43  1  0  0  0  0
 47 48  1  1  0  0  0
 47 49  1  0  0  0  0
 49 50  1  0  0  0  0
 49 52  1  0  0  0  0
 51 49  1  0  0  0  0
 52 53  1  0  0  0  0
 52 55  1  0  0  0  0
 54 52  1  0  0  0  0
 56 64  1  0  0  0  0
 56 57  1  6  0  0  0
 57 13  1  0  0  0  0
 58 13  1  0  0  0  0
 58 47  1  0  0  0  0
 59 32  1  0  0  0  0
 59 47  1  0  0  0  0
 60 61  1  1  0  0  0
 60 32  1  0  0  0  0
 62 64  1  0  0  0  0
 64 61  1  0  0  0  0
 64 63  1  0  0  0  0
M  END
$$$$
