CSD_code = HILDIQ | q = 0 | S = 0 | Stoichiometry = C25H24Br2N4Ni | MND = 5
 OpenBabel04212202043D

 56 61  0  0  1  0  0  0  0  0999 V2000
    5.7195    7.3738    3.0444 Br  0  0  0  0  0  0  0  0  0  0  0  0
    8.7464    6.7667    1.4195 N   0  0  0  0  0  0  0  0  0  0  0  0
    7.8941    7.6121    3.2858 Ni  0  0  0  0  0  0  0  0  0  0  0  0
    9.6880    7.9761    3.5166 N   0  0  0  0  0  0  0  0  0  0  0  0
    8.1269    5.7076    4.6606 Br  0  0  0  0  0  0  0  0  0  0  0  0
   10.0148    6.4899    1.7306 C   0  0  0  0  0  0  0  0  0  0  0  0
   10.1829    4.7269    0.1397 N   0  0  0  0  0  0  0  0  0  0  0  0
   10.5926    7.3114    2.7891 C   0  0  1  0  0  3  0  0  0  0  0  0
    8.1839    6.0614    0.4098 C   0  0  0  0  0  0  0  0  0  0  0  0
    7.8187    9.3303    4.5946 N   0  0  0  0  0  0  0  0  0  0  0  0
   10.0743    8.8206    4.4856 C   0  0  0  0  0  0  0  0  0  0  0  0
    8.9189    5.0153   -0.2286 C   0  0  0  0  0  0  0  0  0  0  0  0
    6.8890    6.3645   -0.0540 C   0  0  0  0  0  0  0  0  0  0  0  0
    6.3430    7.1697    0.4104 H   0  0  0  0  0  0  0  0  0  0  0  0
    8.3187    4.2787   -1.2660 C   0  0  0  0  0  3  0  0  0  0  0  0
    8.8933    3.4851   -1.7167 H   0  0  0  0  0  0  0  0  0  0  0  0
    6.6432    9.9484    5.0296 C   0  0  0  0  0  0  0  0  0  0  0  0
   12.3663    8.2766    4.0687 C   0  0  0  0  0  0  0  0  0  0  0  0
   13.4162    8.3832    4.2939 H   0  0  0  0  0  0  0  0  0  0  0  0
    8.9716    9.5357    5.1239 C   0  0  1  0  0  3  0  0  0  0  0  0
    7.0473    4.5798   -1.6702 C   0  0  0  0  0  0  0  0  0  0  0  0
    6.5816    4.0122   -2.4618 H   0  0  0  0  0  0  0  0  0  0  0  0
    6.0305   10.8302    4.1215 C   0  0  0  0  0  0  0  0  0  0  0  0
   11.9549    7.4451    3.0401 C   0  0  0  0  0  0  0  0  0  0  0  0
   12.6745    6.9138    2.4395 H   0  0  0  0  0  0  0  0  0  0  0  0
    6.3375    5.6323   -1.0687 C   0  0  0  0  0  0  0  0  0  0  0  0
    5.3411    5.8638   -1.4123 H   0  0  0  0  0  0  0  0  0  0  0  0
   10.7153    5.4498    1.0808 C   0  0  0  0  0  0  0  0  0  0  0  0
   11.7265    5.1989    1.3680 H   0  0  0  0  0  0  0  0  0  0  0  0
   11.4213    8.9786    4.7985 C   0  0  0  0  0  0  0  0  0  0  0  0
   11.7214    9.6375    5.5965 H   0  0  0  0  0  0  0  0  0  0  0  0
    6.0592    9.6528    6.2666 C   0  0  0  0  0  0  0  0  0  0  0  0
    9.2398   10.4694    6.2602 C   0  0  0  0  0  0  0  0  0  0  0  0
    8.3278   10.9867    6.5485 H   0  0  0  0  0  0  0  0  0  0  0  0
    9.9890   11.2043    5.9681 H   0  0  0  0  0  0  0  0  0  0  0  0
    9.6178    9.9180    7.1203 H   0  0  0  0  0  0  0  0  0  0  0  0
    4.8900   10.3179    6.6100 C   0  0  0  0  0  0  0  0  0  0  0  0
    4.4356   10.1111    7.5674 H   0  0  0  0  0  0  0  0  0  0  0  0
    6.5840    8.5704    7.1677 C   0  0  0  0  0  0  0  0  0  0  0  0
    7.5742    8.2373    6.8551 H   0  0  0  0  0  0  0  0  0  0  0  0
    6.6599    8.9500    8.1907 H   0  0  0  0  0  0  0  0  0  0  0  0
    4.8641   11.4667    4.5054 C   0  0  0  0  0  0  0  0  0  0  0  0
    4.3792   12.1549    3.8330 H   0  0  0  0  0  0  0  0  0  0  0  0
    4.3058   11.2259    5.7497 C   0  0  0  0  0  0  0  0  0  0  0  0
    3.3996   11.7365    6.0388 H   0  0  0  0  0  0  0  0  0  0  0  0
    6.6926   11.0451    2.7869 C   0  0  0  0  0  0  0  0  0  0  0  0
    7.6100   11.6288    2.9314 H   0  0  0  0  0  0  0  0  0  0  0  0
    7.0033   10.0601    2.4054 H   0  0  0  0  0  0  0  0  0  0  0  0
    5.8223   11.7182    1.7357 C   0  0  0  0  0  0  0  0  0  0  0  0
    6.3441   11.7307    0.7809 H   0  0  0  0  0  0  0  0  0  0  0  0
    5.5969   12.7466    2.0085 H   0  0  0  0  0  0  0  0  0  0  0  0
    4.8915   11.1703    1.6114 H   0  0  0  0  0  0  0  0  0  0  0  0
    5.6447    7.3626    7.1365 C   0  0  0  0  0  0  0  0  0  0  0  0
    6.0425    6.5646    7.7579 H   0  0  0  0  0  0  0  0  0  0  0  0
    5.5505    6.9883    6.1211 H   0  0  0  0  0  0  0  0  0  0  0  0
    4.6534    7.6301    7.4929 H   0  0  0  0  0  0  0  0  0  0  0  0
  1  3  1  0  0  0  0
  2  6  1  0  0  0  0
  2  3  1  0  0  0  0
  3  4  1  0  0  0  0
  3 10  1  0  0  0  0
  3  5  1  0  0  0  0
  4 11  1  0  0  0  0
  7 28  1  0  0  0  0
  8  6  1  6  0  0  0
  8 24  1  0  0  0  0
  8  4  1  0  0  0  0
  9  2  1  0  0  0  0
 10 17  1  0  0  0  0
 10 20  1  0  0  0  0
 11 30  2  0  0  0  0
 11 20  1  0  0  0  0
 12  7  2  0  0  0  0
 12  9  1  0  0  0  0
 13  9  2  0  0  0  0
 13 14  1  0  0  0  0
 15 12  1  0  0  0  0
 16 15  1  0  0  0  0
 17 32  1  0  0  0  0
 18 19  1  0  0  0  0
 18 30  1  0  0  0  0
 20 33  1  6  0  0  0
 21 15  1  0  0  0  0
 21 26  2  0  0  0  0
 22 21  1  0  0  0  0
 23 42  1  0  0  0  0
 23 17  2  0  0  0  0
 24 18  2  0  0  0  0
 25 24  1  0  0  0  0
 26 13  1  0  0  0  0
 27 26  1  0  0  0  0
 28 29  1  0  0  0  0
 28  6  2  0  0  0  0
 30 31  1  0  0  0  0
 32 37  2  0  0  0  0
 32 39  1  0  0  0  0
 33 34  1  0  0  0  0
 33 36  1  0  0  0  0
 35 33  1  0  0  0  0
 37 38  1  0  0  0  0
 39 41  1  0  0  0  0
 40 39  1  0  0  0  0
 42 44  2  0  0  0  0
 43 42  1  0  0  0  0
 44 45  1  0  0  0  0
 44 37  1  0  0  0  0
 46 47  1  0  0  0  0
 46 23  1  0  0  0  0
 48 46  1  0  0  0  0
 49 51  1  0  0  0  0
 49 46  1  0  0  0  0
 50 49  1  0  0  0  0
 52 49  1  0  0  0  0
 53 39  1  0  0  0  0
 53 56  1  0  0  0  0
 53 54  1  0  0  0  0
 55 53  1  0  0  0  0
M  END
$$$$
