CSD_code = HILDEM | q = 0 | S = 0 | Stoichiometry = C27H28Cl2N4Ni | MND = 5
 OpenBabel04212202043D

 62 67  0  0  1  0  0  0  0  0999 V2000
   -7.3357   14.8787   11.0405 Ni  0  0  0  0  0  0  0  0  0  0  0  0
   -9.5175   15.4261   11.1024 Cl  0  0  0  0  0  0  0  0  0  0  0  0
   -7.4926   13.0830   12.0850 N   0  0  0  0  0  0  0  0  0  0  0  0
   -6.7738   16.1937   12.5184 Cl  0  0  0  0  0  0  0  0  0  0  0  0
   -7.7808   13.8151    9.6793 N   0  0  0  0  0  0  0  0  0  0  0  0
   -8.3584   12.6381    9.9429 C   0  0  2  0  0  3  0  0  0  0  0  0
   -7.6898   14.2900    8.4278 C   0  0  0  0  0  0  0  0  0  0  0  0
   -6.9940   15.5667    8.3695 C   0  0  1  0  0  3  0  0  0  0  0  0
   -6.5468   15.9736    9.5104 N   0  0  0  0  0  0  0  0  0  0  0  0
   -8.2330   13.5763    7.3637 C   0  0  0  0  0  0  0  0  0  0  0  0
   -8.1804   13.9669    6.3603 H   0  0  0  0  0  0  0  0  0  0  0  0
   -7.3769   12.7943   13.4052 C   0  0  1  0  0  3  0  0  0  0  0  0
   -8.3106   12.3070   11.3587 C   0  0  0  0  0  0  0  0  0  0  0  0
   -5.8385   17.1668    9.6860 C   0  0  0  0  0  0  0  0  0  0  0  0
   -9.0730   11.2846   11.9617 C   0  0  0  0  0  0  0  0  0  0  0  0
   -9.7578   10.6894   11.3740 H   0  0  0  0  0  0  0  0  0  0  0  0
   -8.1639   11.7506   13.9824 C   0  0  0  0  0  0  0  0  0  0  0  0
   -8.9093   11.8760    8.9181 C   0  0  0  0  0  0  0  0  0  0  0  0
   -9.3734   10.9268    9.1305 H   0  0  0  0  0  0  0  0  0  0  0  0
   -6.4478   18.4196    9.5222 C   0  0  0  0  0  0  0  0  0  0  0  0
   -8.8486   12.3611    7.6200 C   0  0  0  0  0  0  0  0  0  0  0  0
   -9.2792   11.7918    6.8106 H   0  0  0  0  0  0  0  0  0  0  0  0
   -9.0140   11.0181   13.2336 N   0  0  0  0  0  0  0  0  0  0  0  0
   -5.6672   19.5506    9.7146 C   0  0  0  0  0  0  0  0  0  0  0  0
   -6.1124   20.5264    9.5983 H   0  0  0  0  0  0  0  0  0  0  0  0
   -7.9334   18.5532    9.2869 C   0  0  0  0  0  0  0  0  0  0  0  0
   -8.3611   17.5726    9.0605 H   0  0  0  0  0  0  0  0  0  0  0  0
   -6.4541   13.4808   14.2176 C   0  0  0  0  0  0  0  0  0  0  0  0
   -5.8575   14.2610   13.7703 H   0  0  0  0  0  0  0  0  0  0  0  0
   -4.3339   19.4504   10.0611 C   0  0  0  0  0  0  0  0  0  0  0  0
   -3.7417   20.3445   10.1884 H   0  0  0  0  0  0  0  0  0  0  0  0
   -3.7647   18.2091   10.2836 C   0  0  0  0  0  0  0  0  0  0  0  0
   -2.7343   18.1479   10.5939 H   0  0  0  0  0  0  0  0  0  0  0  0
   -4.5081   17.0523   10.1256 C   0  0  0  0  0  0  0  0  0  0  0  0
   -6.3535   13.1752   15.5476 C   0  0  0  0  0  0  0  0  0  0  0  0
   -5.6504   13.7109   16.1669 H   0  0  0  0  0  0  0  0  0  0  0  0
   -3.9326   15.6802   10.3842 C   0  0  0  0  0  0  0  0  0  0  0  0
   -4.7640   15.0309   10.7137 H   0  0  0  0  0  0  0  0  0  0  0  0
   -7.1531   12.1740   16.1216 C   0  0  0  0  0  0  0  0  0  0  0  0
   -7.0598   11.9605   17.1760 H   0  0  0  0  0  0  0  0  0  0  0  0
   -6.7965   16.2727    7.0675 C   0  0  0  0  0  0  0  0  0  0  0  0
   -6.1209   17.1156    7.1934 H   0  0  0  0  0  0  0  0  0  0  0  0
   -7.7502   16.6388    6.6895 H   0  0  0  0  0  0  0  0  0  0  0  0
   -6.3807   15.5851    6.3320 H   0  0  0  0  0  0  0  0  0  0  0  0
   -8.0390   11.4676   15.3544 C   0  0  0  0  0  0  0  0  0  0  0  0
   -8.6578   10.6857   15.7653 H   0  0  0  0  0  0  0  0  0  0  0  0
   -2.8908   15.6765   11.4997 C   0  0  0  0  0  0  0  0  0  0  0  0
   -3.2858   16.1841   12.3759 H   0  0  0  0  0  0  0  0  0  0  0  0
   -1.9699   16.1644   11.1887 H   0  0  0  0  0  0  0  0  0  0  0  0
   -2.6502   14.6509   11.7725 H   0  0  0  0  0  0  0  0  0  0  0  0
   -8.2597   19.5004    8.1309 C   0  0  0  0  0  0  0  0  0  0  0  0
   -7.7150   19.2255    7.2292 H   0  0  0  0  0  0  0  0  0  0  0  0
   -8.0043   20.5263    8.3832 H   0  0  0  0  0  0  0  0  0  0  0  0
   -9.3254   19.4634    7.9164 H   0  0  0  0  0  0  0  0  0  0  0  0
   -3.3486   15.0977    9.0938 C   0  0  0  0  0  0  0  0  0  0  0  0
   -4.1066   15.0332    8.3152 H   0  0  0  0  0  0  0  0  0  0  0  0
   -2.9552   14.0994    9.2739 H   0  0  0  0  0  0  0  0  0  0  0  0
   -2.5384   15.7279    8.7315 H   0  0  0  0  0  0  0  0  0  0  0  0
   -8.5880   19.0316   10.5864 C   0  0  0  0  0  0  0  0  0  0  0  0
   -9.6662   19.0899   10.4599 H   0  0  0  0  0  0  0  0  0  0  0  0
   -8.2108   20.0092   10.8772 H   0  0  0  0  0  0  0  0  0  0  0  0
   -8.3769   18.3271   11.3869 H   0  0  0  0  0  0  0  0  0  0  0  0
  1  2  1  0  0  0  0
  1  3  1  0  0  0  0
  1  4  1  0  0  0  0
  3 12  1  0  0  0  0
  5  6  1  0  0  0  0
  5  1  1  0  0  0  0
  6 18  1  6  0  0  0
  6 13  1  0  0  0  0
  7  5  1  0  0  0  0
  8 41  1  6  0  0  0
  8  7  1  0  0  0  0
  8  9  1  0  0  0  0
  9 14  1  0  0  0  0
  9  1  1  0  0  0  0
 10 21  1  0  0  0  0
 10  7  2  0  0  0  0
 11 10  1  0  0  0  0
 12 17  1  6  0  0  0
 12 28  1  0  0  0  0
 13 15  2  0  0  0  0
 13  3  1  0  0  0  0
 14 34  1  0  0  0  0
 15 23  1  0  0  0  0
 16 15  1  0  0  0  0
 17 45  1  0  0  0  0
 18 19  1  0  0  0  0
 20 14  2  0  0  0  0
 20 24  1  0  0  0  0
 21 18  2  0  0  0  0
 22 21  1  0  0  0  0
 23 17  2  0  0  0  0
 24 30  2  0  0  0  0
 25 24  1  0  0  0  0
 26 20  1  0  0  0  0
 26 59  1  0  0  0  0
 27 26  1  0  0  0  0
 28 35  2  0  0  0  0
 29 28  1  0  0  0  0
 30 31  1  0  0  0  0
 30 32  1  0  0  0  0
 32 33  1  0  0  0  0
 34 32  2  0  0  0  0
 34 37  1  0  0  0  0
 35 39  1  0  0  0  0
 35 36  1  0  0  0  0
 37 38  1  0  0  0  0
 37 47  1  0  0  0  0
 39 40  1  0  0  0  0
 41 42  1  0  0  0  0
 43 41  1  0  0  0  0
 44 41  1  0  0  0  0
 45 46  1  0  0  0  0
 45 39  2  0  0  0  0
 47 50  1  0  0  0  0
 47 48  1  0  0  0  0
 49 47  1  0  0  0  0
 51 53  1  0  0  0  0
 51 26  1  0  0  0  0
 52 51  1  0  0  0  0
 54 51  1  0  0  0  0
 55 57  1  0  0  0  0
 55 37  1  0  0  0  0
 56 55  1  0  0  0  0
 58 55  1  0  0  0  0
 59 61  1  0  0  0  0
 59 62  1  0  0  0  0
 60 59  1  0  0  0  0
M  END
$$$$
