CSD_code = HILFIT | q = 0 | S = 0 | Stoichiometry = C12H12Cl2N2Zn | MND = 4
 OpenBabel04212202043D

 29 31  0  0  1  0  0  0  0  0999 V2000
    3.6906    3.5919    3.3824 Zn  0  0  0  0  0  0  0  0  0  0  0  0
    5.4078    4.8725    2.9683 Cl  0  0  0  0  0  0  0  0  0  0  0  0
    3.2388    1.4718    3.8311 Cl  0  0  0  0  0  0  0  0  0  0  0  0
    2.1610    3.9568    1.9132 N   0  0  0  0  0  0  0  0  0  0  0  0
    2.0992    4.6559    4.5228 N   0  0  0  0  0  4  0  0  0  0  0  0
    0.9537    3.9766    2.4686 C   0  0  1  0  0  3  0  0  0  0  0  0
   -0.2023    3.9092    1.6990 C   0  0  0  0  0  0  0  0  0  0  0  0
   -0.0875    3.8181    0.3231 C   0  0  0  0  0  0  0  0  0  0  0  0
    1.1783    3.8084   -0.2447 C   0  0  0  0  0  0  0  0  0  0  0  0
    2.2761    3.8784    0.5934 C   0  0  0  0  0  0  0  0  0  0  0  0
    0.8937    4.0416    3.9683 C   0  0  0  0  0  0  0  0  0  0  0  0
    2.2064    4.6331    5.9479 C   0  0  0  0  0  0  0  0  0  0  0  0
    2.1426    3.4347    6.6489 C   0  0  0  0  0  0  0  0  0  0  0  0
    2.2884    3.4354    8.0241 C   0  0  0  0  0  0  0  0  0  0  0  0
    2.4992    4.6205    8.7091 C   0  0  0  0  0  0  0  0  0  0  0  0
    2.5729    5.8125    8.0102 C   0  0  0  0  0  0  0  0  0  0  0  0
    2.4213    5.8212    6.6349 C   0  0  0  0  0  0  0  0  0  0  0  0
   -1.1696    3.9223    2.1768 H   0  0  0  0  0  0  0  0  0  0  0  0
    2.1518    5.6259    4.2121 H   0  0  0  0  0  0  0  0  0  0  0  0
   -0.9696    3.7588   -0.2963 H   0  0  0  0  0  0  0  0  0  0  0  0
    1.3114    3.7448   -1.3123 H   0  0  0  0  0  0  0  0  0  0  0  0
    3.2861    3.8787    0.2088 H   0  0  0  0  0  0  0  0  0  0  0  0
    0.8393    3.0113    4.3351 H   0  0  0  0  0  0  0  0  0  0  0  0
   -0.0141    4.5727    4.2865 H   0  0  0  0  0  0  0  0  0  0  0  0
    2.0172    2.5018    6.1216 H   0  0  0  0  0  0  0  0  0  0  0  0
    2.2447    2.5003    8.5614 H   0  0  0  0  0  0  0  0  0  0  0  0
    2.6152    4.6138    9.7820 H   0  0  0  0  0  0  0  0  0  0  0  0
    2.7470    6.7404    8.5336 H   0  0  0  0  0  0  0  0  0  0  0  0
    2.4899    6.7527    6.0894 H   0  0  0  0  0  0  0  0  0  0  0  0
  1  3  1  0  0  0  0
  1  5  1  0  0  0  0
  2  1  1  0  0  0  0
  4  6  1  0  0  0  0
  4  1  1  0  0  0  0
  5 12  1  0  0  0  0
  6  7  1  1  0  0  0
  6 11  1  0  0  0  0
  7 18  1  0  0  0  0
  8  7  2  0  0  0  0
  9  8  1  0  0  0  0
  9 10  2  0  0  0  0
 10  4  1  0  0  0  0
 11 24  1  0  0  0  0
 11 23  1  0  0  0  0
 11  5  1  0  0  0  0
 12 17  2  0  0  0  0
 12 13  1  0  0  0  0
 13 14  2  0  0  0  0
 14 26  1  0  0  0  0
 14 15  1  0  0  0  0
 15 27  1  0  0  0  0
 16 28  1  0  0  0  0
 16 15  2  0  0  0  0
 17 16  1  0  0  0  0
 19  5  1  0  0  0  0
 20  8  1  0  0  0  0
 21  9  1  0  0  0  0
 22 10  1  0  0  0  0
 25 13  1  0  0  0  0
 29 17  1  0  0  0  0
M  END
$$$$
