CSD_code = HILHUG | q = 0 | S = 0 | Stoichiometry = C27H20Br2N4Ni | MND = 5
 OpenBabel04212202043D

 54 61  0  0  1  0  0  0  0  0999 V2000
   10.1026   -0.7018    2.7294 Br  0  0  0  0  0  0  0  0  0  0  0  0
    8.1535   -1.5779    3.7696 Ni  0  0  0  0  0  0  0  0  0  0  0  0
    8.0192   -3.9867    3.9106 Br  0  0  0  0  0  0  0  0  0  0  0  0
    7.1453   -1.5449    2.1954 N   0  0  0  0  0  0  0  0  0  0  0  0
    6.6363   -0.5901    4.3516 N   0  0  0  0  0  0  0  0  0  0  0  0
    8.7436   -1.3168    5.6376 N   0  0  0  0  0  0  0  0  0  0  0  0
    5.5514    0.4279    6.2234 C   0  0  0  0  0  0  0  0  0  0  0  0
    5.2882   -1.0260    1.0771 N   0  0  0  0  0  0  0  0  0  0  0  0
    5.9488   -0.9429    2.2620 C   0  0  1  0  0  3  0  0  0  0  0  0
    5.6011   -0.3699    3.5409 C   0  0  0  0  0  0  0  0  0  0  0  0
    7.2711   -2.0523    0.9359 C   0  0  0  0  0  0  0  0  0  0  0  0
    6.6344   -0.2402    5.6296 C   0  0  0  0  0  0  0  0  0  0  0  0
    3.9545   -0.5601    0.8099 C   0  0  0  0  0  0  0  0  0  0  0  0
    3.7672   -0.6947   -0.2600 H   0  0  0  0  0  0  0  0  0  0  0  0
    3.8947    0.5138    1.0241 H   0  0  0  0  0  0  0  0  0  0  0  0
    6.0957   -1.7360    0.2185 C   0  0  0  0  0  0  0  0  0  0  0  0
    7.8027   -0.6268    6.3358 C   0  0  0  0  0  0  0  0  0  0  0  0
    5.9335   -2.1391   -1.0997 C   0  0  0  0  0  0  0  0  0  0  0  0
    5.0395   -1.9099   -1.6596 H   0  0  0  0  0  0  0  0  0  0  0  0
    4.4682    0.2879    4.0509 C   0  0  0  0  0  0  0  0  0  0  0  0
    3.6092    0.4710    3.4268 H   0  0  0  0  0  0  0  0  0  0  0  0
    4.4555    0.6863    5.3720 C   0  0  0  0  0  0  0  0  0  0  0  0
    3.5887    1.1950    5.7678 H   0  0  0  0  0  0  0  0  0  0  0  0
    7.8896   -0.2997    7.6981 C   0  0  0  0  0  0  0  0  0  0  0  0
    2.9055   -1.3069    1.6049 C   0  0  0  0  0  0  0  0  0  0  0  0
    8.1277   -3.1713   -0.9590 C   0  0  0  0  0  0  0  0  0  0  0  0
    8.9033   -3.7372   -1.4502 H   0  0  0  0  0  0  0  0  0  0  0  0
    5.6807    0.7497    7.6013 C   0  0  0  0  0  0  0  0  0  0  0  0
    4.8721    1.2710    8.0917 H   0  0  0  0  0  0  0  0  0  0  0  0
    6.9647   -2.8564   -1.6693 C   0  0  0  0  0  0  0  0  0  0  0  0
    6.8700   -3.1869   -2.6925 H   0  0  0  0  0  0  0  0  0  0  0  0
   10.8685   -2.4931    5.5714 C   0  0  0  0  0  0  0  0  0  0  0  0
   11.3565   -1.8600    4.8273 H   0  0  0  0  0  0  0  0  0  0  0  0
   10.4071   -3.3147    5.0204 H   0  0  0  0  0  0  0  0  0  0  0  0
   11.6144   -2.8850    6.2556 H   0  0  0  0  0  0  0  0  0  0  0  0
   10.0017   -1.4089    7.6555 C   0  0  0  0  0  0  0  0  0  0  0  0
   10.9056   -1.7447    8.1393 H   0  0  0  0  0  0  0  0  0  0  0  0
    8.3026   -2.7793    0.3479 C   0  0  0  0  0  0  0  0  0  0  0  0
    9.1923   -3.0175    0.9090 H   0  0  0  0  0  0  0  0  0  0  0  0
    9.8321   -1.7169    6.2889 C   0  0  0  0  0  0  0  0  0  0  0  0
    6.8012    0.4026    8.2944 C   0  0  0  0  0  0  0  0  0  0  0  0
    6.8857    0.6517    9.3423 H   0  0  0  0  0  0  0  0  0  0  0  0
    3.1282   -2.6013    2.0536 C   0  0  0  0  0  0  0  0  0  0  0  0
    4.0593   -3.1043    1.8363 H   0  0  0  0  0  0  0  0  0  0  0  0
    9.0573   -0.7123    8.3630 C   0  0  0  0  0  0  0  0  0  0  0  0
    9.1955   -0.4874    9.4102 H   0  0  0  0  0  0  0  0  0  0  0  0
    0.9534   -2.6391    3.0680 C   0  0  0  0  0  0  0  0  0  0  0  0
    0.1973   -3.1551    3.6401 H   0  0  0  0  0  0  0  0  0  0  0  0
    2.1566   -3.2617    2.7859 C   0  0  0  0  0  0  0  0  0  0  0  0
    2.3453   -4.2654    3.1346 H   0  0  0  0  0  0  0  0  0  0  0  0
    0.7207   -1.3523    2.6118 C   0  0  0  0  0  0  0  0  0  0  0  0
   -0.2176   -0.8620    2.8243 H   0  0  0  0  0  0  0  0  0  0  0  0
    1.6932   -0.6885    1.8862 C   0  0  0  0  0  0  0  0  0  0  0  0
    1.5108    0.3172    1.5325 H   0  0  0  0  0  0  0  0  0  0  0  0
  1  2  1  0  0  0  0
  2  3  1  0  0  0  0
  2  5  1  0  0  0  0
  2  6  1  0  0  0  0
  4  9  1  0  0  0  0
  4  2  1  0  0  0  0
  5 12  1  0  0  0  0
  6 40  1  0  0  0  0
  6 17  1  0  0  0  0
  7 28  1  0  0  0  0
  8  9  1  0  0  0  0
  9 10  1  1  0  0  0
 10 20  2  0  0  0  0
 10  5  1  0  0  0  0
 11  4  1  0  0  0  0
 12  7  1  0  0  0  0
 12 17  2  0  0  0  0
 13 15  1  0  0  0  0
 13  8  1  0  0  0  0
 13 25  1  0  0  0  0
 14 13  1  0  0  0  0
 16 11  2  0  0  0  0
 16  8  1  0  0  0  0
 17 24  1  0  0  0  0
 18 16  1  0  0  0  0
 19 18  1  0  0  0  0
 20 22  1  0  0  0  0
 21 20  1  0  0  0  0
 22 23  1  0  0  0  0
 22  7  2  0  0  0  0
 24 41  1  0  0  0  0
 24 45  2  0  0  0  0
 25 53  2  0  0  0  0
 25 43  1  0  0  0  0
 26 38  2  0  0  0  0
 27 26  1  0  0  0  0
 28 29  1  0  0  0  0
 28 41  2  0  0  0  0
 30 18  2  0  0  0  0
 30 26  1  0  0  0  0
 31 30  1  0  0  0  0
 32 35  1  0  0  0  0
 32 40  1  0  0  0  0
 33 32  1  0  0  0  0
 34 32  1  0  0  0  0
 36 37  1  0  0  0  0
 36 45  1  0  0  0  0
 38 39  1  0  0  0  0
 38 11  1  0  0  0  0
 40 36  2  0  0  0  0
 41 42  1  0  0  0  0
 43 49  2  0  0  0  0
 44 43  1  0  0  0  0
 45 46  1  0  0  0  0
 47 48  1  0  0  0  0
 49 47  1  0  0  0  0
 49 50  1  0  0  0  0
 51 52  1  0  0  0  0
 51 47  2  0  0  0  0
 53 51  1  0  0  0  0
 54 53  1  0  0  0  0
M  END
$$$$
