CSD_code = HILREB | q = 0 | S = 0 | Stoichiometry = C22H18I2N2Pt | MND = 4
 OpenBabel04212202043D

 45 48  0  0  0  0  0  0  0  0999 V2000
    6.4977   -0.0002   -0.0002 Pt  0  0  0  0  0  0  0  0  0  0  0  0
    5.0498   -2.0856    0.6159 I   0  0  0  0  0  0  0  0  0  0  0  0
    5.2975    1.1429    1.0354 N   0  0  0  0  0  0  0  0  0  0  0  0
    5.6126    1.4759    2.2824 C   0  0  0  0  0  3  0  0  0  0  0  0
    6.5372    1.0615    2.6758 H   0  0  0  0  0  0  0  0  0  0  0  0
    4.8124    2.2953    3.0707 C   0  0  0  0  0  0  0  0  0  0  0  0
    3.6271    2.7710    2.5085 C   0  0  0  0  0  0  0  0  0  0  0  0
    2.9809    3.4213    3.0777 H   0  0  0  0  0  0  0  0  0  0  0  0
    3.3068    2.4199    1.2087 C   0  0  0  0  0  0  0  0  0  0  0  0
    2.4016    2.7762    0.7439 H   0  0  0  0  0  0  0  0  0  0  0  0
    4.1687    1.6040    0.5006 C   0  0  0  0  0  0  0  0  0  0  0  0
    3.9561    1.3058   -0.5218 H   0  0  0  0  0  0  0  0  0  0  0  0
    5.2169    2.6425    4.4385 C   0  0  0  0  0  0  0  0  0  0  0  0
    6.5434    2.9596    4.7224 C   0  0  0  0  0  0  0  0  0  0  0  0
    7.2740    2.9727    3.9271 H   0  0  0  0  0  0  0  0  0  0  0  0
    6.9200    3.2930    6.0100 C   0  0  0  0  0  0  0  0  0  0  0  0
    7.9490    3.5452    6.2185 H   0  0  0  0  0  0  0  0  0  0  0  0
    5.9821    3.3056    7.0291 C   0  0  0  0  0  0  0  0  0  0  0  0
    6.2790    3.5627    8.0348 H   0  0  0  0  0  0  0  0  0  0  0  0
    4.6619    2.9884    6.7551 C   0  0  0  0  0  0  0  0  0  0  0  0
    3.9284    2.9933    7.5476 H   0  0  0  0  0  0  0  0  0  0  0  0
    4.2786    2.6632    5.4674 C   0  0  0  0  0  0  0  0  0  0  0  0
    3.2519    2.3985    5.2606 H   0  0  0  0  0  0  0  0  0  0  0  0
    7.9454    2.0859   -0.6151 I   0  0  0  0  0  0  0  0  0  0  0  0
    7.6981   -1.1433   -1.0352 N   0  0  0  0  0  0  0  0  0  0  0  0
    7.3829   -1.4761   -2.2822 C   0  0  0  0  0  3  0  0  0  0  0  0
    6.4582   -1.0616   -2.6756 H   0  0  0  0  0  0  0  0  0  0  0  0
    8.1830   -2.2955   -3.0707 C   0  0  0  0  0  0  0  0  0  0  0  0
    9.3682   -2.7713   -2.5087 C   0  0  0  0  0  0  0  0  0  0  0  0
   10.0143   -3.4216   -3.0781 H   0  0  0  0  0  0  0  0  0  0  0  0
    9.6887   -2.4204   -1.2089 C   0  0  0  0  0  0  0  0  0  0  0  0
   10.5939   -2.7769   -0.7441 H   0  0  0  0  0  0  0  0  0  0  0  0
    8.8269   -1.6045   -0.5006 C   0  0  0  0  0  0  0  0  0  0  0  0
    9.0396   -1.3065    0.5218 H   0  0  0  0  0  0  0  0  0  0  0  0
    7.7782   -2.6424   -4.4385 C   0  0  0  0  0  0  0  0  0  0  0  0
    6.4517   -2.9593   -4.7223 C   0  0  0  0  0  0  0  0  0  0  0  0
    5.7211   -2.9725   -3.9270 H   0  0  0  0  0  0  0  0  0  0  0  0
    6.0749   -3.2926   -6.0100 C   0  0  0  0  0  0  0  0  0  0  0  0
    5.0459   -3.5447   -6.2184 H   0  0  0  0  0  0  0  0  0  0  0  0
    7.0128   -3.3051   -7.0291 C   0  0  0  0  0  0  0  0  0  0  0  0
    6.7158   -3.5620   -8.0348 H   0  0  0  0  0  0  0  0  0  0  0  0
    8.3329   -2.9880   -6.7552 C   0  0  0  0  0  0  0  0  0  0  0  0
    9.0664   -2.9929   -7.5477 H   0  0  0  0  0  0  0  0  0  0  0  0
    8.7165   -2.6631   -5.4675 C   0  0  0  0  0  0  0  0  0  0  0  0
    9.7432   -2.3985   -5.2607 H   0  0  0  0  0  0  0  0  0  0  0  0
  1  2  1  0  0  0  0
  1  3  1  0  0  0  0
  3  4  1  0  0  0  0
  4  5  1  0  0  0  0
  4  6  1  0  0  0  0
  6 13  1  0  0  0  0
  7  6  2  0  0  0  0
  7  8  1  0  0  0  0
  9  7  1  0  0  0  0
 10  9  1  0  0  0  0
 11  3  1  0  0  0  0
 11  9  2  0  0  0  0
 12 11  1  0  0  0  0
 13 14  2  0  0  0  0
 13 22  1  0  0  0  0
 14 16  1  0  0  0  0
 15 14  1  0  0  0  0
 16 17  1  0  0  0  0
 16 18  2  0  0  0  0
 18 19  1  0  0  0  0
 20 18  1  0  0  0  0
 20 21  1  0  0  0  0
 22 20  2  0  0  0  0
 23 22  1  0  0  0  0
 24  1  1  0  0  0  0
 25 33  1  0  0  0  0
 25  1  1  0  0  0  0
 26 25  1  0  0  0  0
 27 26  1  0  0  0  0
 28 29  2  0  0  0  0
 28 26  1  0  0  0  0
 29 31  1  0  0  0  0
 30 29  1  0  0  0  0
 31 32  1  0  0  0  0
 31 33  2  0  0  0  0
 33 34  1  0  0  0  0
 35 28  1  0  0  0  0
 36 35  1  0  0  0  0
 36 37  1  0  0  0  0
 38 36  2  0  0  0  0
 39 38  1  0  0  0  0
 40 42  2  0  0  0  0
 40 38  1  0  0  0  0
 41 40  1  0  0  0  0
 42 44  1  0  0  0  0
 43 42  1  0  0  0  0
 44 45  1  0  0  0  0
 44 35  2  0  0  0  0
M  END
$$$$
