CSD_code = HILWUU | q = 1 | S = 0 | Stoichiometry = C15H11Cl2N4OsS(1+) | MND = 6
 OpenBabel04212202043D

 34 38  0  0  1  0  0  0  0  0999 V2000
   14.6080    1.5754    3.0034 Os  0  0  0  0  0  0  0  0  0  0  0  0
   16.0135    1.3121    1.1465 Cl  0  0  0  0  0  0  0  0  0  0  0  0
   13.4925    1.4996    5.0659 Cl  0  0  0  0  0  0  0  0  0  0  0  0
   12.6680    3.8193    1.6736 S   0  0  0  0  0  1  0  0  0  0  0  0
   13.5585    2.7934    2.2767 N   0  0  0  0  0  2  0  0  0  0  0  0
   16.0371    2.7791    3.8629 N   0  0  0  0  0  0  0  0  0  0  0  0
   16.1025    4.1055    3.8288 C   0  0  0  0  0  3  0  0  0  0  0  0
   17.1167    4.8221    4.4431 C   0  0  0  0  0  0  0  0  0  0  0  0
   18.1064    4.1302    5.1234 C   0  0  0  0  0  0  0  0  0  0  0  0
   18.0434    2.7471    5.1616 C   0  0  0  0  0  0  0  0  0  0  0  0
   16.9973    2.0897    4.5223 C   0  0  0  0  0  0  0  0  0  0  0  0
   16.8448    0.6269    4.5031 C   0  0  1  0  0  3  0  0  0  0  0  0
   17.6822   -0.3098    5.1048 C   0  0  0  0  0  0  0  0  0  0  0  0
   17.3711   -1.6555    4.9759 C   0  0  0  0  0  0  0  0  0  0  0  0
   16.2497   -2.0500    4.2610 C   0  0  0  0  0  0  0  0  0  0  0  0
   15.4505   -1.0668    3.6817 C   0  0  0  0  0  0  0  0  0  0  0  0
   15.7687    0.2244    3.8193 N   0  0  0  0  0  0  0  0  0  0  0  0
   14.2272   -1.2745    2.8920 C   0  0  2  0  0  3  0  0  0  0  0  0
   13.7010   -2.5291    2.6018 C   0  0  0  0  0  0  0  0  0  0  0  0
   12.5428   -2.6269    1.8485 C   0  0  0  0  0  0  0  0  0  0  0  0
   11.9386   -1.4613    1.4040 C   0  0  0  0  0  0  0  0  0  0  0  0
   12.5154   -0.2442    1.7287 C   0  0  0  0  0  0  0  0  0  0  0  0
   13.6264   -0.1449    2.4502 N   0  0  0  0  0  0  0  0  0  0  0  0
   15.3150    4.6164    3.2898 H   0  0  0  0  0  0  0  0  0  0  0  0
   17.1249    5.8983    4.3859 H   0  0  0  0  0  0  0  0  0  0  0  0
   18.9113    4.6543    5.6141 H   0  0  0  0  0  0  0  0  0  0  0  0
   18.7993    2.1826    5.6820 H   0  0  0  0  0  0  0  0  0  0  0  0
   18.5527   -0.0044    5.6604 H   0  0  0  0  0  0  0  0  0  0  0  0
   18.0043   -2.3991    5.4342 H   0  0  0  0  0  0  0  0  0  0  0  0
   16.0085   -3.0949    4.1618 H   0  0  0  0  0  0  0  0  0  0  0  0
   14.1930   -3.4181    2.9603 H   0  0  0  0  0  0  0  0  0  0  0  0
   12.1231   -3.5926    1.6144 H   0  0  0  0  0  0  0  0  0  0  0  0
   11.0363   -1.4884    0.8153 H   0  0  0  0  0  0  0  0  0  0  0  0
   12.0681    0.6838    1.3963 H   0  0  0  0  0  0  0  0  0  0  0  0
  1 17  1  0  0  0  0
  1  6  1  0  0  0  0
  1  3  1  0  0  0  0
  2  1  1  0  0  0  0
  4  5  1  0  0  0  0
  5  1  1  0  0  0  0
  6 11  1  0  0  0  0
  7  6  1  0  0  0  0
  7  8  1  0  0  0  0
  8  9  2  0  0  0  0
  9 10  1  0  0  0  0
  9 26  1  0  0  0  0
 10 27  1  0  0  0  0
 11 10  2  0  0  0  0
 12 11  1  1  0  0  0
 12 13  1  0  0  0  0
 13 28  1  0  0  0  0
 14 13  2  0  0  0  0
 14 29  1  0  0  0  0
 15 14  1  0  0  0  0
 16 17  1  0  0  0  0
 16 15  2  0  0  0  0
 17 12  1  0  0  0  0
 18 19  1  6  0  0  0
 18 16  1  0  0  0  0
 19 31  1  0  0  0  0
 20 19  2  0  0  0  0
 21 22  2  0  0  0  0
 21 20  1  0  0  0  0
 22 23  1  0  0  0  0
 23 18  1  0  0  0  0
 23  1  1  0  0  0  0
 24  7  1  0  0  0  0
 25  8  1  0  0  0  0
 30 15  1  0  0  0  0
 32 20  1  0  0  0  0
 33 21  1  0  0  0  0
 34 22  1  0  0  0  0
M  END
$$$$
