CSD_code = HIMXIM | q = 0 | S = 0 | Stoichiometry = C25H26AgClN2 | MND = 2
 OpenBabel04212202043D

 55 58  0  0  1  0  0  0  0  0999 V2000
   11.8194    1.7507    3.2603 Ag  0  0  0  0  0  0  0  0  0  0  0  0
   12.3581   -0.3100    4.0386 Cl  0  0  0  0  0  0  0  0  0  0  0  0
   10.3453    3.6896    1.2722 N   0  0  0  0  0  0  0  0  0  0  0  0
   10.7303    4.7021    3.1476 N   0  0  0  0  0  0  0  0  0  0  0  0
    9.6985    4.8994    1.1877 C   0  0  0  0  0  0  0  0  0  0  0  0
   14.6241    2.8867    5.8322 C   0  0  0  0  0  0  0  0  0  0  0  0
   15.4997    2.3736    6.2041 H   0  0  0  0  0  0  0  0  0  0  0  0
    9.9512    5.5575    2.4034 C   0  0  0  0  0  0  0  0  0  0  0  0
    8.9343    5.4952    0.1956 C   0  0  0  0  0  0  0  0  0  0  0  0
    8.7274    4.9938   -0.7354 H   0  0  0  0  0  0  0  0  0  0  0  0
    9.0056    1.9533    0.2138 C   0  0  0  0  0  0  0  0  0  0  0  0
   10.3280    2.6801    0.2404 C   0  0  0  0  0  0  0  0  0  0  0  0
   11.1346    1.9694    0.4690 H   0  0  0  0  0  0  0  0  0  0  0  0
   10.5279    3.1545   -0.7248 H   0  0  0  0  0  0  0  0  0  0  0  0
    8.6467    1.1524    1.2908 C   0  0  0  0  0  0  0  0  0  0  0  0
    9.3411    1.0337    2.1217 H   0  0  0  0  0  0  0  0  0  0  0  0
   12.2363    3.1298    5.7907 C   0  0  0  0  0  0  0  0  0  0  0  0
    9.4485    6.8260    2.6539 C   0  0  0  0  0  0  0  0  0  0  0  0
    9.6344    7.3344    3.5868 H   0  0  0  0  0  0  0  0  0  0  0  0
   13.6629    4.5931    4.4542 C   0  0  0  0  0  0  0  0  0  0  0  0
   14.7912    3.9237    4.9284 C   0  0  0  0  0  0  0  0  0  0  0  0
   10.9692    3.5603    2.4661 C   0  0  1  0  0  3  0  0  0  0  0  0
    8.4397    6.7591    0.4527 C   0  0  0  0  0  0  0  0  0  0  0  0
    7.8412    7.2541   -0.2964 H   0  0  0  0  0  0  0  0  0  0  0  0
    6.9164    1.4214   -0.8508 C   0  0  0  0  0  0  0  0  0  0  0  0
    6.2460    1.5238   -1.6913 H   0  0  0  0  0  0  0  0  0  0  0  0
   12.3957    4.2102    4.9114 C   0  0  0  0  0  0  0  0  0  0  0  0
    7.4302    0.4964    1.3002 C   0  0  0  0  0  0  0  0  0  0  0  0
    7.1630   -0.1270    2.1397 H   0  0  0  0  0  0  0  0  0  0  0  0
    8.6925    7.4127    1.6578 C   0  0  0  0  0  0  0  0  0  0  0  0
    8.2852    8.3995    1.8156 H   0  0  0  0  0  0  0  0  0  0  0  0
    8.1343    2.0800   -0.8582 C   0  0  0  0  0  0  0  0  0  0  0  0
    8.4112    2.6840   -1.7111 H   0  0  0  0  0  0  0  0  0  0  0  0
   13.3764    2.4736    6.2702 C   0  0  0  0  0  0  0  0  0  0  0  0
   13.2737    1.3257    7.2250 C   0  0  0  0  0  0  0  0  0  0  0  0
   12.8671    0.4589    6.7031 H   0  0  0  0  0  0  0  0  0  0  0  0
   12.6244    1.5612    8.0660 H   0  0  0  0  0  0  0  0  0  0  0  0
   14.2564    1.0587    7.6049 H   0  0  0  0  0  0  0  0  0  0  0  0
   11.2034    5.0304    4.4788 C   0  0  0  0  0  0  0  0  0  0  0  0
   10.3771    4.9111    5.1857 H   0  0  0  0  0  0  0  0  0  0  0  0
   11.4793    6.0897    4.4780 H   0  0  0  0  0  0  0  0  0  0  0  0
   13.8102    5.7337    3.4841 C   0  0  0  0  0  0  0  0  0  0  0  0
   13.7945    6.6893    4.0124 H   0  0  0  0  0  0  0  0  0  0  0  0
   13.0130    5.7373    2.7447 H   0  0  0  0  0  0  0  0  0  0  0  0
   14.7523    5.6650    2.9497 H   0  0  0  0  0  0  0  0  0  0  0  0
    6.5605    0.6341    0.2300 C   0  0  0  0  0  0  0  0  0  0  0  0
    5.6102    0.1217    0.2355 H   0  0  0  0  0  0  0  0  0  0  0  0
   16.1773    4.3074    4.4991 C   0  0  0  0  0  0  0  0  0  0  0  0
   16.9140    3.7202    5.0412 H   0  0  0  0  0  0  0  0  0  0  0  0
   16.3681    5.3624    4.6923 H   0  0  0  0  0  0  0  0  0  0  0  0
   16.3182    4.1237    3.4340 H   0  0  0  0  0  0  0  0  0  0  0  0
   10.8818    2.6856    6.2770 C   0  0  0  0  0  0  0  0  0  0  0  0
   10.8824    1.6105    6.4344 H   0  0  0  0  0  0  0  0  0  0  0  0
   10.0901    2.9111    5.5645 H   0  0  0  0  0  0  0  0  0  0  0  0
   10.6416    3.1657    7.2277 H   0  0  0  0  0  0  0  0  0  0  0  0
  1  2  1  0  0  0  0
  3 22  1  0  0  0  0
  4 39  1  0  0  0  0
  5  3  1  0  0  0  0
  5  8  1  0  0  0  0
  6  7  1  0  0  0  0
  6 34  1  0  0  0  0
  8 18  2  0  0  0  0
  8  4  1  0  0  0  0
  9 23  1  0  0  0  0
  9  5  2  0  0  0  0
 10  9  1  0  0  0  0
 11 12  1  0  0  0  0
 11 15  1  0  0  0  0
 12 13  1  0  0  0  0
 12  3  1  0  0  0  0
 14 12  1  0  0  0  0
 15 28  2  0  0  0  0
 15 16  1  0  0  0  0
 17 34  2  0  0  0  0
 17 52  1  0  0  0  0
 18 19  1  0  0  0  0
 20 27  2  0  0  0  0
 20 21  1  0  0  0  0
 21  6  2  0  0  0  0
 22  4  1  0  0  0  0
 22  1  1  1  0  0  0
 23 30  2  0  0  0  0
 24 23  1  0  0  0  0
 25 46  2  0  0  0  0
 26 25  1  0  0  0  0
 27 17  1  0  0  0  0
 28 29  1  0  0  0  0
 30 31  1  0  0  0  0
 30 18  1  0  0  0  0
 32 25  1  0  0  0  0
 32 11  2  0  0  0  0
 33 32  1  0  0  0  0
 34 35  1  0  0  0  0
 35 38  1  0  0  0  0
 35 37  1  0  0  0  0
 36 35  1  0  0  0  0
 39 27  1  0  0  0  0
 39 40  1  0  0  0  0
 41 39  1  0  0  0  0
 42 43  1  0  0  0  0
 42 20  1  0  0  0  0
 44 42  1  0  0  0  0
 45 42  1  0  0  0  0
 46 47  1  0  0  0  0
 46 28  1  0  0  0  0
 48 50  1  0  0  0  0
 48 21  1  0  0  0  0
 48 49  1  0  0  0  0
 51 48  1  0  0  0  0
 52 53  1  0  0  0  0
 52 55  1  0  0  0  0
 54 52  1  0  0  0  0
M  END
$$$$
