CSD_code = HINCIR | q = 0 | S = 0 | Stoichiometry = C15H27Cl2N2PPd | MND = 4
 OpenBabel04212202043D

 48 49  0  0  1  0  0  0  0  0999 V2000
   -0.8875    3.5004    7.7438 Pd  0  0  0  0  0  0  0  0  0  0  0  0
   -1.3737    2.4803    5.7520 Cl  0  0  0  0  0  0  0  0  0  0  0  0
    0.7759    4.5929    6.7311 Cl  0  0  0  0  0  0  0  0  0  0  0  0
   -0.3326    4.1212    9.8118 P   0  0  0  0  0  4  0  0  0  0  0  0
   -1.4301    3.0747   10.9100 C   0  0  0  0  0  0  0  0  0  0  0  0
   -1.0336    3.0292   11.9242 H   0  0  0  0  0  0  0  0  0  0  0  0
   -2.4127    3.5633   10.9419 H   0  0  0  0  0  0  0  0  0  0  0  0
   -1.5746    1.7243   10.3963 N   0  0  0  0  0  0  0  0  0  0  0  0
   -2.4410    1.5373    9.3426 C   0  0  2  0  0  3  0  0  0  0  0  0
   -2.6029    2.5766    8.5089 N   0  0  0  0  0  0  0  0  0  0  0  0
   -3.5494    2.5332    7.5660 C   0  0  0  0  0  0  0  0  0  0  0  0
   -3.6737    3.4351    6.9746 H   0  0  0  0  0  0  0  0  0  0  0  0
   -4.3548    1.4292    7.3713 C   0  0  0  0  0  0  0  0  0  0  0  0
   -5.1125    1.4334    6.6063 H   0  0  0  0  0  0  0  0  0  0  0  0
   -4.1153    0.3036    8.1491 C   0  0  0  0  0  0  0  0  0  0  0  0
   -4.6816   -0.6018    7.9901 H   0  0  0  0  0  0  0  0  0  0  0  0
   -3.1720    0.3536    9.1542 C   0  0  0  0  0  0  0  0  0  0  0  0
   -3.0084   -0.5066    9.7800 H   0  0  0  0  0  0  0  0  0  0  0  0
   -1.3506    0.6370   11.3221 C   0  0  0  0  0  0  0  0  0  0  0  0
   -2.2387    0.4130   11.9259 H   0  0  0  0  0  0  0  0  0  0  0  0
   -0.5355    0.8991   11.9942 H   0  0  0  0  0  0  0  0  0  0  0  0
   -1.0578   -0.2598   10.7764 H   0  0  0  0  0  0  0  0  0  0  0  0
   -0.8699    5.8773   10.2370 C   0  0  0  0  0  0  0  0  0  0  0  0
   -2.2318    6.0079    9.5396 C   0  0  0  0  0  0  0  0  0  0  0  0
   -2.5773    7.0392    9.5870 H   0  0  0  0  0  0  0  0  0  0  0  0
   -2.9943    5.3797    9.9985 H   0  0  0  0  0  0  0  0  0  0  0  0
   -2.1330    5.7283    8.4771 H   0  0  0  0  0  0  0  0  0  0  0  0
    0.0886    6.8587    9.5625 C   0  0  0  0  0  0  0  0  0  0  0  0
   -0.3749    7.8417    9.4956 H   0  0  0  0  0  0  0  0  0  0  0  0
    0.3240    6.5189    8.5526 H   0  0  0  0  0  0  0  0  0  0  0  0
    1.0123    6.9647   10.1222 H   0  0  0  0  0  0  0  0  0  0  0  0
   -0.9864    6.1707   11.7295 C   0  0  0  0  0  0  0  0  0  0  0  0
   -1.3517    7.1872   11.8698 H   0  0  0  0  0  0  0  0  0  0  0  0
   -0.0174    6.0967   12.2171 H   0  0  0  0  0  0  0  0  0  0  0  0
   -1.6792    5.4932   12.2240 H   0  0  0  0  0  0  0  0  0  0  0  0
    1.4093    3.5999   10.3247 C   0  0  0  0  0  0  0  0  0  0  0  0
    2.4373    4.5855    9.7715 C   0  0  0  0  0  0  0  0  0  0  0  0
    3.4228    4.1225    9.7783 H   0  0  0  0  0  0  0  0  0  0  0  0
    2.4888    5.4851   10.3782 H   0  0  0  0  0  0  0  0  0  0  0  0
    2.1925    4.8496    8.7432 H   0  0  0  0  0  0  0  0  0  0  0  0
    1.6192    3.4297   11.8293 C   0  0  0  0  0  0  0  0  0  0  0  0
    2.6773    3.2558   12.0192 H   0  0  0  0  0  0  0  0  0  0  0  0
    1.0739    2.5774   12.2276 H   0  0  0  0  0  0  0  0  0  0  0  0
    1.3246    4.3220   12.3768 H   0  0  0  0  0  0  0  0  0  0  0  0
    1.5812    2.2572    9.5998 C   0  0  0  0  0  0  0  0  0  0  0  0
    2.5898    1.8759    9.7512 H   0  0  0  0  0  0  0  0  0  0  0  0
    1.4255    2.3893    8.5180 H   0  0  0  0  0  0  0  0  0  0  0  0
    0.8757    1.5120    9.9656 H   0  0  0  0  0  0  0  0  0  0  0  0
  1 10  1  0  0  0  0
  1  4  1  0  0  0  0
  2  1  1  0  0  0  0
  3  1  1  0  0  0  0
  4 23  1  0  0  0  0
  4 36  1  0  0  0  0
  4  5  1  0  0  0  0
  5  7  1  0  0  0  0
  5  6  1  0  0  0  0
  8  5  1  0  0  0  0
  8 19  1  0  0  0  0
  9 17  1  1  0  0  0
  9  8  1  0  0  0  0
 10  9  1  0  0  0  0
 11 10  1  0  0  0  0
 12 11  1  0  0  0  0
 13 11  2  0  0  0  0
 13 15  1  0  0  0  0
 14 13  1  0  0  0  0
 15 17  2  0  0  0  0
 16 15  1  0  0  0  0
 17 18  1  0  0  0  0
 19 20  1  0  0  0  0
 19 21  1  0  0  0  0
 22 19  1  0  0  0  0
 23 32  1  0  0  0  0
 24 25  1  0  0  0  0
 24 26  1  0  0  0  0
 24 23  1  0  0  0  0
 27 24  1  0  0  0  0
 28 31  1  0  0  0  0
 28 23  1  0  0  0  0
 29 28  1  0  0  0  0
 30 28  1  0  0  0  0
 32 33  1  0  0  0  0
 32 34  1  0  0  0  0
 32 35  1  0  0  0  0
 36 41  1  0  0  0  0
 37 38  1  0  0  0  0
 37 36  1  0  0  0  0
 37 39  1  0  0  0  0
 40 37  1  0  0  0  0
 41 42  1  0  0  0  0
 41 43  1  0  0  0  0
 41 44  1  0  0  0  0
 45 46  1  0  0  0  0
 45 48  1  0  0  0  0
 45 36  1  0  0  0  0
 47 45  1  0  0  0  0
M  END
$$$$
