CSD_code = HINFOC | q = 0 | S = 0 | Stoichiometry = C28H35AuClP | MND = 2
 OpenBabel04212202043D

 66 68  0  0  0  0  0  0  0  0999 V2000
   -1.2634   13.0875    3.9501 Au  0  0  0  0  0  0  0  0  0  0  0  0
    0.9502   13.2816    4.2447 P   0  0  1  0  0  4  0  0  0  0  0  0
   -3.5000   12.8347    3.6891 Cl  0  0  0  0  0  0  0  0  0  0  0  0
    1.5868   14.7707    5.0768 C   0  0  0  0  0  0  0  0  0  0  0  0
    0.7941   15.3740    6.0637 C   0  0  0  0  0  0  0  0  0  0  0  0
    1.2035   16.5809    6.6221 C   0  0  0  0  0  0  0  0  0  0  0  0
    0.5809   17.0436    7.3740 H   0  0  0  0  0  0  0  0  0  0  0  0
    2.3928   17.1716    6.2408 C   0  0  0  0  0  0  0  0  0  0  0  0
    2.7008   18.1052    6.6873 H   0  0  0  0  0  0  0  0  0  0  0  0
    3.1912   16.5606    5.2872 C   0  0  0  0  0  0  0  0  0  0  0  0
    4.1263   17.0127    4.9906 H   0  0  0  0  0  0  0  0  0  0  0  0
    2.7857   15.3762    4.7019 C   0  0  0  0  0  0  0  0  0  0  0  0
    3.4102   14.9285    3.9427 H   0  0  0  0  0  0  0  0  0  0  0  0
    1.7460   11.9042    5.1221 C   0  0  0  0  0  0  0  0  0  0  0  0
    1.0251   10.7275    5.2954 C   0  0  0  0  0  0  0  0  0  0  0  0
    0.0020   10.6786    4.9428 H   0  0  0  0  0  0  0  0  0  0  0  0
    1.6073    9.6454    5.9296 C   0  0  0  0  0  0  0  0  0  0  0  0
    1.0458    8.7323    6.0613 H   0  0  0  0  0  0  0  0  0  0  0  0
    2.9075    9.7372    6.3998 C   0  0  0  0  0  0  0  0  0  0  0  0
    3.3622    8.8933    6.8967 H   0  0  0  0  0  0  0  0  0  0  0  0
    3.6223   10.9140    6.2432 C   0  0  0  0  0  0  0  0  0  0  0  0
    4.6321   10.9869    6.6197 H   0  0  0  0  0  0  0  0  0  0  0  0
    3.0461   11.9983    5.6069 C   0  0  0  0  0  0  0  0  0  0  0  0
    3.5989   12.9213    5.4961 H   0  0  0  0  0  0  0  0  0  0  0  0
    1.8049   13.2294    2.6023 C   0  0  0  0  0  0  0  0  0  0  0  0
    2.8879   13.2613    2.7615 H   0  0  0  0  0  0  0  0  0  0  0  0
    1.3323   14.4575    1.8180 C   0  0  0  0  0  0  0  0  0  0  0  0
    1.4800   15.3580    2.4238 H   0  0  0  0  0  0  0  0  0  0  0  0
    0.2535   14.3551    1.6582 H   0  0  0  0  0  0  0  0  0  0  0  0
    2.0214   14.6654    0.4649 C   0  0  0  0  0  0  0  0  0  0  0  0
    1.9541   13.7387   -0.1136 H   0  0  0  0  0  0  0  0  0  0  0  0
    1.2980   15.7662   -0.3086 C   0  0  0  0  0  0  0  0  0  0  0  0
    1.3379   16.7048    0.2405 H   0  0  0  0  0  0  0  0  0  0  0  0
    0.2539   15.5049   -0.4638 H   0  0  0  0  0  0  0  0  0  0  0  0
    1.7613   15.9174   -1.2807 H   0  0  0  0  0  0  0  0  0  0  0  0
    3.4938   15.0338    0.6358 C   0  0  0  0  0  0  0  0  0  0  0  0
    3.5904   15.9364    1.2366 H   0  0  0  0  0  0  0  0  0  0  0  0
    3.9490   15.2204   -0.3341 H   0  0  0  0  0  0  0  0  0  0  0  0
    4.0527   14.2343    1.1171 H   0  0  0  0  0  0  0  0  0  0  0  0
    1.4241   11.9030    1.9254 C   0  0  0  0  0  0  0  0  0  0  0  0
    0.6600   12.1010    1.1713 H   0  0  0  0  0  0  0  0  0  0  0  0
    0.9706   11.2253    2.6586 H   0  0  0  0  0  0  0  0  0  0  0  0
    2.5991   11.1662    1.2699 C   0  0  0  0  0  0  0  0  0  0  0  0
    3.1815   11.8809    0.6782 H   0  0  0  0  0  0  0  0  0  0  0  0
    3.5162   10.5383    2.3169 C   0  0  0  0  0  0  0  0  0  0  0  0
    2.9695    9.8067    2.9089 H   0  0  0  0  0  0  0  0  0  0  0  0
    3.9196   11.2851    2.9971 H   0  0  0  0  0  0  0  0  0  0  0  0
    4.3510   10.0345    1.8349 H   0  0  0  0  0  0  0  0  0  0  0  0
    2.0679   10.0841    0.3320 C   0  0  0  0  0  0  0  0  0  0  0  0
    2.8897    9.5451   -0.1335 H   0  0  0  0  0  0  0  0  0  0  0  0
    1.4558   10.5202   -0.4541 H   0  0  0  0  0  0  0  0  0  0  0  0
    1.4593    9.3718    0.8847 H   0  0  0  0  0  0  0  0  0  0  0  0
   -0.4518   14.7409    6.5207 C   0  0  0  0  0  0  0  0  0  0  0  0
   -1.6663   15.4135    6.4432 C   0  0  0  0  0  0  0  0  0  0  0  0
   -1.6975   16.4156    6.0406 H   0  0  0  0  0  0  0  0  0  0  0  0
   -2.8295   14.7800    6.8427 C   0  0  0  0  0  0  0  0  0  0  0  0
   -3.7756   15.2921    6.7578 H   0  0  0  0  0  0  0  0  0  0  0  0
   -2.7883   13.4870    7.3302 C   0  0  0  0  0  0  0  0  0  0  0  0
   -3.7029   12.9929    7.6212 H   0  0  0  0  0  0  0  0  0  0  0  0
   -1.5799   12.8077    7.4408 C   0  0  0  0  0  0  0  0  0  0  0  0
   -0.4181   13.4474    7.0363 C   0  0  0  0  0  0  0  0  0  0  0  0
    0.5377   12.9505    7.1494 H   0  0  0  0  0  0  0  0  0  0  0  0
   -1.5443   11.4058    7.9666 C   0  0  0  0  0  0  0  0  0  0  0  0
   -2.1586   10.7608    7.3397 H   0  0  0  0  0  0  0  0  0  0  0  0
   -1.9476   11.3672    8.9777 H   0  0  0  0  0  0  0  0  0  0  0  0
   -0.5281   11.0176    7.9792 H   0  0  0  0  0  0  0  0  0  0  0  0
  2  1  1  6  0  0  0
  2  4  1  0  0  0  0
  2 14  1  0  0  0  0
  3  1  1  0  0  0  0
  4  5  1  0  0  0  0
  5 53  1  0  0  0  0
  5  6  2  0  0  0  0
  6  7  1  0  0  0  0
  8  6  1  0  0  0  0
  8  9  1  0  0  0  0
 10  8  2  0  0  0  0
 11 10  1  0  0  0  0
 12  4  2  0  0  0  0
 12 10  1  0  0  0  0
 13 12  1  0  0  0  0
 14 15  2  0  0  0  0
 14 23  1  0  0  0  0
 15 17  1  0  0  0  0
 16 15  1  0  0  0  0
 17 18  1  0  0  0  0
 17 19  2  0  0  0  0
 19 20  1  0  0  0  0
 21 19  1  0  0  0  0
 21 22  1  0  0  0  0
 23 21  2  0  0  0  0
 24 23  1  0  0  0  0
 25 26  1  0  0  0  0
 25  2  1  0  0  0  0
 27 28  1  0  0  0  0
 27 25  1  0  0  0  0
 29 27  1  0  0  0  0
 30 36  1  0  0  0  0
 30 27  1  0  0  0  0
 31 30  1  0  0  0  0
 32 33  1  0  0  0  0
 32 30  1  0  0  0  0
 34 32  1  0  0  0  0
 35 32  1  0  0  0  0
 36 39  1  0  0  0  0
 36 37  1  0  0  0  0
 38 36  1  0  0  0  0
 40 25  1  0  0  0  0
 40 42  1  0  0  0  0
 41 40  1  0  0  0  0
 43 40  1  0  0  0  0
 43 45  1  0  0  0  0
 44 43  1  0  0  0  0
 45 46  1  0  0  0  0
 45 47  1  0  0  0  0
 48 45  1  0  0  0  0
 49 52  1  0  0  0  0
 49 43  1  0  0  0  0
 50 49  1  0  0  0  0
 51 49  1  0  0  0  0
 53 61  1  0  0  0  0
 54 53  2  0  0  0  0
 54 56  1  0  0  0  0
 55 54  1  0  0  0  0
 56 58  2  0  0  0  0
 57 56  1  0  0  0  0
 58 60  1  0  0  0  0
 58 59  1  0  0  0  0
 60 63  1  0  0  0  0
 61 62  1  0  0  0  0
 61 60  2  0  0  0  0
 63 66  1  0  0  0  0
 63 65  1  0  0  0  0
 64 63  1  0  0  0  0
M  END
$$$$
