CSD_code = HINSAZ | q = 0 | S = 0 | Stoichiometry = C18H42ClP2Rh | MND = 5
 OpenBabel04212202043D

 64 60  0  0  0  0  0  0  0  0999 V2000
   -0.2392    8.7725    0.0009 Rh  0  0  0  0  0  0  0  0  0  0  0  0
    1.3731   10.3853   -0.0007 Cl  0  0  0  0  0 15  0  0  0  0  0  0
    1.4123    7.2133    0.1690 P   0  0  0  0  0  0  0  0  0  0  0  0
    0.9861    5.8751    0.1649 H   0  0  0  0  0  0  0  0  0  0  0  0
   -1.7063    7.3957    0.6932 C   0  0  0  0  0  0  0  0  0  0  0  0
   -1.2788    6.6128    1.3103 H   0  0  0  0  0  0  0  0  0  0  0  0
   -2.5599    7.8955    1.1407 H   0  0  0  0  0  0  0  0  0  0  0  0
    2.3588    7.0712    1.7907 C   0  0  0  0  0  0  0  0  0  0  0  0
    3.1450    8.3391    2.1118 C   0  0  0  0  0  0  0  0  0  0  0  0
    3.4807    8.3130    3.1482 H   0  0  0  0  0  0  0  0  0  0  0  0
    2.5215    9.2200    1.9752 H   0  0  0  0  0  0  0  0  0  0  0  0
    4.0195    8.4429    1.4763 H   0  0  0  0  0  0  0  0  0  0  0  0
    1.2372    6.9199    2.8257 C   0  0  0  0  0  0  0  0  0  0  0  0
    0.6818    5.9956    2.6657 H   0  0  0  0  0  0  0  0  0  0  0  0
    0.5455    7.7634    2.7544 H   0  0  0  0  0  0  0  0  0  0  0  0
    1.6494    6.8994    3.8337 H   0  0  0  0  0  0  0  0  0  0  0  0
    3.2704    5.8487    1.8458 C   0  0  0  0  0  0  0  0  0  0  0  0
    3.6222    5.7038    2.8673 H   0  0  0  0  0  0  0  0  0  0  0  0
    4.1437    5.9774    1.2112 H   0  0  0  0  0  0  0  0  0  0  0  0
    2.7395    4.9481    1.5397 H   0  0  0  0  0  0  0  0  0  0  0  0
    2.5269    7.0756   -1.3476 C   0  0  0  0  0  0  0  0  0  0  0  0
    2.9864    5.6413   -1.6057 C   0  0  0  0  0  0  0  0  0  0  0  0
    3.5294    5.6003   -2.5498 H   0  0  0  0  0  0  0  0  0  0  0  0
    2.1338    4.9673   -1.6773 H   0  0  0  0  0  0  0  0  0  0  0  0
    3.6473    5.2794   -0.8237 H   0  0  0  0  0  0  0  0  0  0  0  0
    1.6266    7.5230   -2.5063 C   0  0  0  0  0  0  0  0  0  0  0  0
    1.2399    8.5289   -2.3153 H   0  0  0  0  0  0  0  0  0  0  0  0
    0.7848    6.8407   -2.6267 H   0  0  0  0  0  0  0  0  0  0  0  0
    2.1867    7.5425   -3.4402 H   0  0  0  0  0  0  0  0  0  0  0  0
    3.7231    8.0185   -1.2536 C   0  0  0  0  0  0  0  0  0  0  0  0
    4.2054    8.1048   -2.2270 H   0  0  0  0  0  0  0  0  0  0  0  0
    4.4621    7.6484   -0.5464 H   0  0  0  0  0  0  0  0  0  0  0  0
    3.3990    9.0103   -0.9434 H   0  0  0  0  0  0  0  0  0  0  0  0
   -1.7979   10.4236   -0.1693 P   0  0  0  0  0  0  0  0  0  0  0  0
   -3.1359    9.9971   -0.1648 H   0  0  0  0  0  0  0  0  0  0  0  0
   -1.6154    7.3049   -0.6934 C   0  0  0  0  0  3  0  0  0  0  0  0
   -2.3987    7.7319   -1.3104 H   0  0  0  0  0  0  0  0  0  0  0  0
   -1.1160    6.4509   -1.1408 H   0  0  0  0  0  0  0  0  0  0  0  0
   -1.9401   11.3701   -1.7909 C   0  0  0  0  0  0  0  0  0  0  0  0
   -0.6721   12.1564   -2.1116 C   0  0  0  0  0  0  0  0  0  0  0  0
   -0.6980   12.4921   -3.1481 H   0  0  0  0  0  0  0  0  0  0  0  0
    0.2087   11.5328   -1.9747 H   0  0  0  0  0  0  0  0  0  0  0  0
   -0.5686   13.0308   -1.4762 H   0  0  0  0  0  0  0  0  0  0  0  0
   -2.0912   10.2484   -2.8257 C   0  0  0  0  0  0  0  0  0  0  0  0
   -3.0155    9.6931   -2.6658 H   0  0  0  0  0  0  0  0  0  0  0  0
   -1.2478    9.5567   -2.7542 H   0  0  0  0  0  0  0  0  0  0  0  0
   -2.1116   10.6605   -3.8338 H   0  0  0  0  0  0  0  0  0  0  0  0
   -3.1627   12.2816   -1.8460 C   0  0  0  0  0  0  0  0  0  0  0  0
   -3.3077   12.6333   -2.8674 H   0  0  0  0  0  0  0  0  0  0  0  0
   -3.0341   13.1549   -1.2114 H   0  0  0  0  0  0  0  0  0  0  0  0
   -4.0632   11.7506   -1.5398 H   0  0  0  0  0  0  0  0  0  0  0  0
   -1.9354   11.5380    1.3475 C   0  0  0  0  0  0  0  0  0  0  0  0
   -3.3697   11.9976    1.6057 C   0  0  0  0  0  0  0  0  0  0  0  0
   -3.4107   12.5406    2.5498 H   0  0  0  0  0  0  0  0  0  0  0  0
   -4.0438   11.1451    1.6773 H   0  0  0  0  0  0  0  0  0  0  0  0
   -3.7316   12.6586    0.8238 H   0  0  0  0  0  0  0  0  0  0  0  0
   -1.4881   10.6377    2.5063 C   0  0  0  0  0  0  0  0  0  0  0  0
   -0.4822   10.2511    2.3153 H   0  0  0  0  0  0  0  0  0  0  0  0
   -2.1704    9.7959    2.6266 H   0  0  0  0  0  0  0  0  0  0  0  0
   -1.4687   11.1978    3.4403 H   0  0  0  0  0  0  0  0  0  0  0  0
   -0.9926   12.7342    1.2536 C   0  0  0  0  0  0  0  0  0  0  0  0
   -0.9062   13.2165    2.2271 H   0  0  0  0  0  0  0  0  0  0  0  0
   -1.3627   13.4733    0.5466 H   0  0  0  0  0  0  0  0  0  0  0  0
   -0.0009   12.4102    0.9433 H   0  0  0  0  0  0  0  0  0  0  0  0
  1  5  1  0  0  0  0
  3  8  1  0  0  0  0
  4  3  1  0  0  0  0
  5  7  1  0  0  0  0
  5  6  1  0  0  0  0
  8 17  1  0  0  0  0
  8  9  1  0  0  0  0
  8 13  1  0  0  0  0
  9 10  1  0  0  0  0
 11  9  1  0  0  0  0
 12  9  1  0  0  0  0
 13 16  1  0  0  0  0
 14 13  1  0  0  0  0
 15 13  1  0  0  0  0
 17 18  1  0  0  0  0
 19 17  1  0  0  0  0
 20 17  1  0  0  0  0
 21 30  1  0  0  0  0
 21  3  1  0  0  0  0
 22 21  1  0  0  0  0
 22 25  1  0  0  0  0
 23 22  1  0  0  0  0
 24 22  1  0  0  0  0
 26 27  1  0  0  0  0
 26 21  1  0  0  0  0
 28 26  1  0  0  0  0
 29 26  1  0  0  0  0
 30 33  1  0  0  0  0
 30 32  1  0  0  0  0
 31 30  1  0  0  0  0
 34 35  1  0  0  0  0
 34 52  1  0  0  0  0
 36  5  1  0  0  0  0
 37 36  1  0  0  0  0
 38 36  1  0  0  0  0
 39 34  1  0  0  0  0
 40 42  1  0  0  0  0
 40 39  1  0  0  0  0
 40 43  1  0  0  0  0
 41 40  1  0  0  0  0
 44 46  1  0  0  0  0
 44 45  1  0  0  0  0
 44 39  1  0  0  0  0
 47 44  1  0  0  0  0
 48 39  1  0  0  0  0
 48 51  1  0  0  0  0
 48 50  1  0  0  0  0
 49 48  1  0  0  0  0
 52 53  1  0  0  0  0
 52 57  1  0  0  0  0
 53 55  1  0  0  0  0
 53 54  1  0  0  0  0
 56 53  1  0  0  0  0
 57 59  1  0  0  0  0
 57 60  1  0  0  0  0
 58 57  1  0  0  0  0
 61 52  1  0  0  0  0
 61 62  1  0  0  0  0
 63 61  1  0  0  0  0
 64 61  1  0  0  0  0
M  END
$$$$
