CSD_code = HINSIJ | q = 0 | S = 0 | Stoichiometry = C22H18Cl4N2Pt | MND = 6
 OpenBabel04212202043D

 47 50  0  0  0  0  0  0  0  0999 V2000
   -0.0836    2.6137   -1.2731 C   0  0  0  0  0  3  0  0  0  0  0  0
   -0.1691    2.9130   -0.2365 H   0  0  0  0  0  0  0  0  0  0  0  0
   -0.0480    0.8833   -2.7911 C   0  0  0  0  0  0  0  0  0  0  0  0
   -0.0756   -0.1855   -2.9556 H   0  0  0  0  0  0  0  0  0  0  0  0
    0.0484    1.7712   -3.8485 C   0  0  0  0  0  0  0  0  0  0  0  0
    0.0982    1.3911   -4.8562 H   0  0  0  0  0  0  0  0  0  0  0  0
    0.0951    3.1297   -3.5941 C   0  0  0  0  0  0  0  0  0  0  0  0
    0.2018    3.8375   -4.4022 H   0  0  0  0  0  0  0  0  0  0  0  0
    0.0259    3.5762   -2.2745 C   0  0  0  0  0  0  0  0  0  0  0  0
    0.0784    5.0002   -1.9238 C   0  0  0  0  0  0  0  0  0  0  0  0
    0.7754    5.4189   -0.7913 C   0  0  0  0  0  0  0  0  0  0  0  0
    1.2922    4.6938   -0.1811 H   0  0  0  0  0  0  0  0  0  0  0  0
    0.8315    6.7612   -0.4655 C   0  0  0  0  0  0  0  0  0  0  0  0
    1.3780    7.0760    0.4107 H   0  0  0  0  0  0  0  0  0  0  0  0
    0.1896    7.6994   -1.2572 C   0  0  0  0  0  0  0  0  0  0  0  0
    0.2316    8.7465   -0.9975 H   0  0  0  0  0  0  0  0  0  0  0  0
   -0.5083    7.2906   -2.3816 C   0  0  0  0  0  0  0  0  0  0  0  0
   -1.0142    8.0183   -2.9985 H   0  0  0  0  0  0  0  0  0  0  0  0
   -0.5613    5.9505   -2.7169 C   0  0  0  0  0  0  0  0  0  0  0  0
   -1.1252    5.6353   -3.5825 H   0  0  0  0  0  0  0  0  0  0  0  0
   -0.1058    1.3101   -1.5301 N   0  0  0  0  0  0  0  0  0  0  0  0
   -0.1245   -0.0000   -0.0000 Pt  0  0  0  0  0  0  0  0  0  0  0  0
   -1.8298   -1.2443   -1.0818 Cl  0  0  0  0  0  0  0  0  0  0  0  0
    1.5924   -1.2611   -1.0600 Cl  0  0  0  0  0  0  0  0  0  0  0  0
   -0.0836   -2.6137    1.2731 C   0  0  0  0  0  3  0  0  0  0  0  0
   -0.1691   -2.9130    0.2365 H   0  0  0  0  0  0  0  0  0  0  0  0
   -0.0480   -0.8833    2.7911 C   0  0  0  0  0  0  0  0  0  0  0  0
   -0.0756    0.1855    2.9556 H   0  0  0  0  0  0  0  0  0  0  0  0
    0.0484   -1.7712    3.8485 C   0  0  0  0  0  0  0  0  0  0  0  0
    0.0982   -1.3911    4.8562 H   0  0  0  0  0  0  0  0  0  0  0  0
    0.0951   -3.1297    3.5941 C   0  0  0  0  0  0  0  0  0  0  0  0
    0.2018   -3.8375    4.4022 H   0  0  0  0  0  0  0  0  0  0  0  0
    0.0259   -3.5762    2.2745 C   0  0  0  0  0  0  0  0  0  0  0  0
    0.0784   -5.0002    1.9238 C   0  0  0  0  0  0  0  0  0  0  0  0
    0.7754   -5.4189    0.7913 C   0  0  0  0  0  0  0  0  0  0  0  0
    1.2922   -4.6938    0.1811 H   0  0  0  0  0  0  0  0  0  0  0  0
    0.8315   -6.7612    0.4655 C   0  0  0  0  0  0  0  0  0  0  0  0
    1.3780   -7.0760   -0.4107 H   0  0  0  0  0  0  0  0  0  0  0  0
    0.1896   -7.6994    1.2572 C   0  0  0  0  0  0  0  0  0  0  0  0
    0.2316   -8.7465    0.9975 H   0  0  0  0  0  0  0  0  0  0  0  0
   -0.5083   -7.2906    2.3816 C   0  0  0  0  0  0  0  0  0  0  0  0
   -1.0142   -8.0183    2.9985 H   0  0  0  0  0  0  0  0  0  0  0  0
   -0.5613   -5.9505    2.7169 C   0  0  0  0  0  0  0  0  0  0  0  0
   -1.1252   -5.6353    3.5825 H   0  0  0  0  0  0  0  0  0  0  0  0
   -0.1058   -1.3101    1.5301 N   0  0  0  0  0  0  0  0  0  0  0  0
   -1.8298    1.2443    1.0818 Cl  0  0  0  0  0  0  0  0  0  0  0  0
    1.5924    1.2611    1.0600 Cl  0  0  0  0  0  0  0  0  0  0  0  0
  1  2  1  0  0  0  0
  3 21  1  0  0  0  0
  4  3  1  0  0  0  0
  5  7  1  0  0  0  0
  5  3  2  0  0  0  0
  6  5  1  0  0  0  0
  7  9  2  0  0  0  0
  8  7  1  0  0  0  0
  9 10  1  0  0  0  0
  9  1  1  0  0  0  0
 10 11  1  0  0  0  0
 11 13  2  0  0  0  0
 11 12  1  0  0  0  0
 13 14  1  0  0  0  0
 15 16  1  0  0  0  0
 15 13  1  0  0  0  0
 17 15  2  0  0  0  0
 18 17  1  0  0  0  0
 19 17  1  0  0  0  0
 19 10  2  0  0  0  0
 20 19  1  0  0  0  0
 21  1  1  0  0  0  0
 21 22  1  0  0  0  0
 22 47  1  0  0  0  0
 22 46  1  0  0  0  0
 22 45  1  0  0  0  0
 23 22  1  0  0  0  0
 24 22  1  0  0  0  0
 25 45  1  0  0  0  0
 25 33  1  0  0  0  0
 26 25  1  0  0  0  0
 27 28  1  0  0  0  0
 27 29  2  0  0  0  0
 29 30  1  0  0  0  0
 31 29  1  0  0  0  0
 31 32  1  0  0  0  0
 33 31  2  0  0  0  0
 34 33  1  0  0  0  0
 34 43  1  0  0  0  0
 35 34  2  0  0  0  0
 36 35  1  0  0  0  0
 37 35  1  0  0  0  0
 37 39  2  0  0  0  0
 38 37  1  0  0  0  0
 39 41  1  0  0  0  0
 40 39  1  0  0  0  0
 41 43  2  0  0  0  0
 41 42  1  0  0  0  0
 43 44  1  0  0  0  0
 45 27  1  0  0  0  0
M  END
$$$$
