CSD_code = HINWAF | q = 0 | S = 0 | Stoichiometry = C24H31BrCuN2P | MND = 4
 OpenBabel04212202043D

 60 63  0  0  0  0  0  0  0  0999 V2000
    1.7458    4.0186    4.2038 Cu  0  0  0  0  0  0  0  0  0  0  0  0
    2.3593    2.7321    2.3938 Br  0  0  0  0  0  0  0  0  0  0  0  0
    1.9228    6.2490    4.4582 P   0  0  0  0  0  4  0  0  0  0  0  0
   -0.2234    3.3621    4.9518 N   0  0  0  0  0  4  0  0  0  0  0  0
    2.4911    2.9953    6.0097 N   0  0  0  0  0  4  0  0  0  0  0  0
    0.0315    2.8650    6.2998 C   0  0  0  0  0  0  0  0  0  0  0  0
    0.0354    3.7183    6.9826 H   0  0  0  0  0  0  0  0  0  0  0  0
   -0.7657    2.1793    6.6282 H   0  0  0  0  0  0  0  0  0  0  0  0
    1.3745    2.1370    6.3906 C   0  0  0  0  0  0  0  0  0  0  0  0
    1.5016    1.7485    7.4141 H   0  0  0  0  0  0  0  0  0  0  0  0
    1.3644    1.2844    5.7087 H   0  0  0  0  0  0  0  0  0  0  0  0
   -0.7033    2.3047    4.0730 C   0  0  0  0  0  0  0  0  0  0  0  0
   -1.6608    1.8930    4.4216 H   0  0  0  0  0  0  0  0  0  0  0  0
    0.0258    1.5010    4.0129 H   0  0  0  0  0  0  0  0  0  0  0  0
   -0.8364    2.7028    3.0688 H   0  0  0  0  0  0  0  0  0  0  0  0
   -1.1741    4.4611    4.9621 C   0  0  0  0  0  0  0  0  0  0  0  0
   -1.2909    4.8434    3.9482 H   0  0  0  0  0  0  0  0  0  0  0  0
   -0.8047    5.2699    5.5937 H   0  0  0  0  0  0  0  0  0  0  0  0
   -2.1607    4.1485    5.3324 H   0  0  0  0  0  0  0  0  0  0  0  0
    2.8277    3.9468    7.0533 C   0  0  0  0  0  0  0  0  0  0  0  0
    1.9654    4.5666    7.2938 H   0  0  0  0  0  0  0  0  0  0  0  0
    3.6298    4.5952    6.6985 H   0  0  0  0  0  0  0  0  0  0  0  0
    3.1654    3.4427    7.9711 H   0  0  0  0  0  0  0  0  0  0  0  0
    3.6632    2.2000    5.6705 C   0  0  0  0  0  0  0  0  0  0  0  0
    4.4776    2.8655    5.3878 H   0  0  0  0  0  0  0  0  0  0  0  0
    3.4422    1.5569    4.8207 H   0  0  0  0  0  0  0  0  0  0  0  0
    3.9929    1.5789    6.5143 H   0  0  0  0  0  0  0  0  0  0  0  0
    1.4604    7.0808    2.8977 C   0  0  0  0  0  0  0  0  0  0  0  0
    0.9727    6.3056    1.8530 C   0  0  0  0  0  0  0  0  0  0  0  0
    0.8651    5.2375    1.9863 H   0  0  0  0  0  0  0  0  0  0  0  0
    0.6438    6.8935    0.6442 C   0  0  0  0  0  0  0  0  0  0  0  0
    0.2719    6.2835   -0.1653 H   0  0  0  0  0  0  0  0  0  0  0  0
    0.8009    8.2583    0.4755 C   0  0  0  0  0  0  0  0  0  0  0  0
    0.5465    8.7199   -0.4672 H   0  0  0  0  0  0  0  0  0  0  0  0
    1.2907    9.0353    1.5147 C   0  0  0  0  0  0  0  0  0  0  0  0
    1.4171   10.1001    1.3804 H   0  0  0  0  0  0  0  0  0  0  0  0
    1.6236    8.4522    2.7219 C   0  0  0  0  0  0  0  0  0  0  0  0
    2.0081    9.0588    3.5301 H   0  0  0  0  0  0  0  0  0  0  0  0
    1.1318    7.3306    5.6945 C   0  0  0  0  0  0  0  0  0  0  0  0
    1.6615    7.4263    6.9808 C   0  0  0  0  0  0  0  0  0  0  0  0
    2.6099    6.9564    7.2049 H   0  0  0  0  0  0  0  0  0  0  0  0
    0.9928    8.1332    7.9623 C   0  0  0  0  0  0  0  0  0  0  0  0
    1.4198    8.2125    8.9518 H   0  0  0  0  0  0  0  0  0  0  0  0
   -0.2227    8.7368    7.6807 C   0  0  0  0  0  0  0  0  0  0  0  0
   -0.7436    9.2890    8.4485 H   0  0  0  0  0  0  0  0  0  0  0  0
   -0.7688    8.6251    6.4121 C   0  0  0  0  0  0  0  0  0  0  0  0
   -1.7191    9.0883    6.1897 H   0  0  0  0  0  0  0  0  0  0  0  0
   -0.1026    7.9203    5.4271 C   0  0  0  0  0  0  0  0  0  0  0  0
   -0.5335    7.8317    4.4388 H   0  0  0  0  0  0  0  0  0  0  0  0
    3.6811    6.7378    4.5295 C   0  0  0  0  0  0  0  0  0  0  0  0
    4.5794    5.8371    3.9626 C   0  0  0  0  0  0  0  0  0  0  0  0
    4.2065    4.9105    3.5444 H   0  0  0  0  0  0  0  0  0  0  0  0
    5.9308    6.1242    3.9279 C   0  0  0  0  0  0  0  0  0  0  0  0
    6.6191    5.4208    3.4836 H   0  0  0  0  0  0  0  0  0  0  0  0
    6.3963    7.3142    4.4635 C   0  0  0  0  0  0  0  0  0  0  0  0
    7.4519    7.5415    4.4419 H   0  0  0  0  0  0  0  0  0  0  0  0
    5.5065    8.2156    5.0248 C   0  0  0  0  0  0  0  0  0  0  0  0
    5.8687    9.1459    5.4385 H   0  0  0  0  0  0  0  0  0  0  0  0
    4.1523    7.9350    5.0572 C   0  0  0  0  0  0  0  0  0  0  0  0
    3.4684    8.6458    5.5000 H   0  0  0  0  0  0  0  0  0  0  0  0
  1  3  1  0  0  0  0
  1  4  1  0  0  0  0
  1  5  1  0  0  0  0
  2  1  1  0  0  0  0
  3 50  1  0  0  0  0
  3 39  1  0  0  0  0
  4 16  1  0  0  0  0
  4  6  1  0  0  0  0
  5  9  1  0  0  0  0
  5 20  1  0  0  0  0
  6  9  1  0  0  0  0
  6  8  1  0  0  0  0
  6  7  1  0  0  0  0
  9 10  1  0  0  0  0
 11  9  1  0  0  0  0
 12 13  1  0  0  0  0
 12  4  1  0  0  0  0
 14 12  1  0  0  0  0
 15 12  1  0  0  0  0
 16 19  1  0  0  0  0
 16 18  1  0  0  0  0
 17 16  1  0  0  0  0
 20 21  1  0  0  0  0
 20 23  1  0  0  0  0
 22 20  1  0  0  0  0
 24  5  1  0  0  0  0
 24 27  1  0  0  0  0
 25 24  1  0  0  0  0
 26 24  1  0  0  0  0
 28  3  1  0  0  0  0
 29 30  1  0  0  0  0
 29 28  2  0  0  0  0
 31 29  1  0  0  0  0
 32 31  1  0  0  0  0
 33 31  2  0  0  0  0
 33 35  1  0  0  0  0
 34 33  1  0  0  0  0
 35 37  2  0  0  0  0
 36 35  1  0  0  0  0
 37 28  1  0  0  0  0
 37 38  1  0  0  0  0
 39 40  1  0  0  0  0
 40 41  1  0  0  0  0
 40 42  2  0  0  0  0
 42 43  1  0  0  0  0
 44 42  1  0  0  0  0
 44 45  1  0  0  0  0
 46 44  2  0  0  0  0
 47 46  1  0  0  0  0
 48 39  2  0  0  0  0
 48 46  1  0  0  0  0
 49 48  1  0  0  0  0
 50 59  1  0  0  0  0
 51 50  2  0  0  0  0
 52 51  1  0  0  0  0
 53 51  1  0  0  0  0
 53 55  2  0  0  0  0
 54 53  1  0  0  0  0
 55 57  1  0  0  0  0
 56 55  1  0  0  0  0
 57 59  2  0  0  0  0
 57 58  1  0  0  0  0
 59 60  1  0  0  0  0
M  END
$$$$
