CSD_code = HIPBAK | q = 0 | S = 0 | Stoichiometry = C16H24Cl2N2PdSi2 | MND = 4
 OpenBabel04212202043D

 47 49  0  0  1  0  0  0  0  0999 V2000
    4.2191    0.8427   11.5351 Pd  0  0  0  0  0  0  0  0  0  0  0  0
    4.8593   -0.4275    9.7042 Cl  0  0  0  0  0  0  0  0  0  0  0  0
    3.4351    1.6942   13.5434 Cl  0  0  0  0  0  0  0  0  0  0  0  0
    3.6089    2.7692    8.7733 Si  0  0  0  0  0  0  0  0  0  0  0  0
    6.3673    3.3624   12.4035 Si  0  0  0  0  0  0  0  0  0  0  0  0
    2.4770    0.9932   10.7075 N   0  0  0  0  0  0  0  0  0  0  0  0
    5.9099    0.5401   12.4250 N   0  0  0  0  0  0  0  0  0  0  0  0
    2.2317    1.7162    9.6126 C   0  0  2  0  0  3  0  0  0  0  0  0
    0.9749    1.6569    9.0144 C   0  0  0  0  0  0  0  0  0  0  0  0
    0.7898    2.2478    8.1317 H   0  0  0  0  0  0  0  0  0  0  0  0
   -0.0174    0.8487    9.5365 C   0  0  0  0  0  0  0  0  0  0  0  0
   -0.9917    0.7971    9.0737 H   0  0  0  0  0  0  0  0  0  0  0  0
    0.2719    0.0973   10.6657 C   0  0  0  0  0  0  0  0  0  0  0  0
   -0.4615   -0.5574   11.1090 H   0  0  0  0  0  0  0  0  0  0  0  0
    1.5338    0.2013   11.2184 C   0  0  0  0  0  0  0  0  0  0  0  0
    1.8007   -0.3658   12.1106 H   0  0  0  0  0  0  0  0  0  0  0  0
    6.7459    1.5140   12.7912 C   0  0  2  0  0  3  0  0  0  0  0  0
    7.8818    1.2038   13.5357 C   0  0  0  0  0  0  0  0  0  0  0  0
    8.5501    1.9999   13.8227 H   0  0  0  0  0  0  0  0  0  0  0  0
    8.1464   -0.1006   13.9087 C   0  0  0  0  0  0  0  0  0  0  0  0
    9.0242   -0.3448   14.4883 H   0  0  0  0  0  0  0  0  0  0  0  0
    7.2508   -1.0886   13.5277 C   0  0  0  0  0  0  0  0  0  0  0  0
    7.4025   -2.1210   13.8001 H   0  0  0  0  0  0  0  0  0  0  0  0
    6.1449   -0.7220   12.7853 C   0  0  0  0  0  0  0  0  0  0  0  0
    5.4199   -1.4679   12.4584 H   0  0  0  0  0  0  0  0  0  0  0  0
    3.9816    1.9297    7.1031 C   0  0  0  0  0  0  0  0  0  0  0  0
    3.0793    1.7970    6.5143 H   0  0  0  0  0  0  0  0  0  0  0  0
    4.4261    0.9513    7.2575 H   0  0  0  0  0  0  0  0  0  0  0  0
    4.6745    2.5244    6.5169 H   0  0  0  0  0  0  0  0  0  0  0  0
    2.8021    4.4857    8.5122 C   0  0  0  0  0  0  0  0  0  0  0  0
    2.4241    4.9095    9.4374 H   0  0  0  0  0  0  0  0  0  0  0  0
    1.9742    4.4328    7.8139 H   0  0  0  0  0  0  0  0  0  0  0  0
    3.5241    5.1827    8.1012 H   0  0  0  0  0  0  0  0  0  0  0  0
    5.2179    3.0430    9.7732 C   0  0  0  0  0  0  0  0  0  0  0  0
    5.7306    2.0818    9.8988 H   0  0  0  0  0  0  0  0  0  0  0  0
    5.8988    3.6689    9.1945 H   0  0  0  0  0  0  0  0  0  0  0  0
    4.9712    3.7094   11.1409 C   0  0  0  0  0  0  0  0  0  0  0  0
    4.0143    3.3807   11.5638 H   0  0  0  0  0  0  0  0  0  0  0  0
    4.8769    4.7866   10.9955 H   0  0  0  0  0  0  0  0  0  0  0  0
    7.9942    4.0355   11.6518 C   0  0  0  0  0  0  0  0  0  0  0  0
    8.3182    3.4631   10.7881 H   0  0  0  0  0  0  0  0  0  0  0  0
    8.8016    4.0215   12.3756 H   0  0  0  0  0  0  0  0  0  0  0  0
    7.8653    5.0648   11.3354 H   0  0  0  0  0  0  0  0  0  0  0  0
    5.9945    4.1945   14.0773 C   0  0  0  0  0  0  0  0  0  0  0  0
    5.0779    3.7999   14.5050 H   0  0  0  0  0  0  0  0  0  0  0  0
    5.8752    5.2665   13.9588 H   0  0  0  0  0  0  0  0  0  0  0  0
    6.7948    4.0277   14.7916 H   0  0  0  0  0  0  0  0  0  0  0  0
  1  7  1  0  0  0  0
  1  3  1  0  0  0  0
  2  1  1  0  0  0  0
  4  8  1  0  0  0  0
  4 34  1  0  0  0  0
  5 17  1  0  0  0  0
  5 44  1  0  0  0  0
  6 15  1  0  0  0  0
  6  1  1  0  0  0  0
  7 24  1  0  0  0  0
  7 17  1  0  0  0  0
  8  9  1  6  0  0  0
  8  6  1  0  0  0  0
  9 11  2  0  0  0  0
 10  9  1  0  0  0  0
 11 13  1  0  0  0  0
 12 11  1  0  0  0  0
 13 14  1  0  0  0  0
 13 15  2  0  0  0  0
 15 16  1  0  0  0  0
 17 18  1  1  0  0  0
 18 19  1  0  0  0  0
 18 20  2  0  0  0  0
 20 21  1  0  0  0  0
 22 23  1  0  0  0  0
 22 20  1  0  0  0  0
 24 22  2  0  0  0  0
 25 24  1  0  0  0  0
 26 28  1  0  0  0  0
 26  4  1  0  0  0  0
 27 26  1  0  0  0  0
 29 26  1  0  0  0  0
 30  4  1  0  0  0  0
 30 31  1  0  0  0  0
 32 30  1  0  0  0  0
 33 30  1  0  0  0  0
 34 35  1  0  0  0  0
 34 37  1  0  0  0  0
 36 34  1  0  0  0  0
 37 38  1  0  0  0  0
 37  5  1  0  0  0  0
 39 37  1  0  0  0  0
 40 42  1  0  0  0  0
 40  5  1  0  0  0  0
 41 40  1  0  0  0  0
 43 40  1  0  0  0  0
 44 45  1  0  0  0  0
 44 47  1  0  0  0  0
 46 44  1  0  0  0  0
M  END
$$$$
