CSD_code = HIPBUE | q = 0 | S = 0 | Stoichiometry = C18H14Cl2N4Pt | MND = 4
 OpenBabel04212202043D

 39 43  0  0  1  0  0  0  0  0999 V2000
    4.4353   12.5934   -2.0751 C   0  0  2  0  0  3  0  0  0  0  0  0
    4.8641   11.3721   -2.4201 N   0  0  0  0  0  0  0  0  0  0  0  0
    8.2973    8.8406   -0.0091 C   0  0  0  0  0  0  0  0  0  0  0  0
    7.4747    9.9702    0.2044 N   0  0  0  0  0  0  0  0  0  0  0  0
    5.8219   12.2544   -0.0965 N   0  0  1  0  0  0  0  0  0  0  0  0
    7.1040   11.6001    1.8358 C   0  0  0  0  0  0  0  0  0  0  0  0
    7.6424   10.4767    1.3633 N   0  0  0  0  0  0  0  0  0  0  0  0
    4.9202   13.1580   -0.7708 C   0  0  0  0  0  0  0  0  0  0  0  0
    5.4149   14.1216   -0.9698 H   0  0  0  0  0  0  0  0  0  0  0  0
    4.0390   13.3653   -0.1442 H   0  0  0  0  0  0  0  0  0  0  0  0
    6.2335   12.5188    1.1377 C   0  0  1  0  0  3  0  0  0  0  0  0
    8.4030    7.8486    0.9612 C   0  0  0  0  0  0  0  0  0  0  0  0
    7.8258    7.9380    1.8685 H   0  0  0  0  0  0  0  0  0  0  0  0
    9.0475    8.7478   -1.1797 C   0  0  0  0  0  0  0  0  0  0  0  0
    8.9812    9.5382   -1.9158 H   0  0  0  0  0  0  0  0  0  0  0  0
    4.4462   10.8414   -3.5727 C   0  0  0  0  0  0  0  0  0  0  0  0
    4.8232    9.8516   -3.7974 H   0  0  0  0  0  0  0  0  0  0  0  0
    3.5680   13.3171   -2.8842 C   0  0  0  0  0  0  0  0  0  0  0  0
    3.2433   14.2980   -2.5723 H   0  0  0  0  0  0  0  0  0  0  0  0
    5.8635   13.6957    1.8457 C   0  0  0  0  0  0  0  0  0  0  0  0
    5.2333   14.4251    1.3612 H   0  0  0  0  0  0  0  0  0  0  0  0
    9.9407    6.6620   -0.4300 C   0  0  0  0  0  0  0  0  0  0  0  0
    3.5846   11.5025   -4.4249 C   0  0  0  0  0  0  0  0  0  0  0  0
    3.2737   11.0332   -5.3439 H   0  0  0  0  0  0  0  0  0  0  0  0
    3.1332   12.7684   -4.0767 C   0  0  0  0  0  0  0  0  0  0  0  0
    2.4589   13.3138   -4.7187 H   0  0  0  0  0  0  0  0  0  0  0  0
    7.1010   13.0278    3.8042 C   0  0  0  0  0  0  0  0  0  0  0  0
    7.4137   13.2349    4.8154 H   0  0  0  0  0  0  0  0  0  0  0  0
    9.2171    6.7529    0.7487 C   0  0  0  0  0  0  0  0  0  0  0  0
    9.2883    5.9717    1.4889 H   0  0  0  0  0  0  0  0  0  0  0  0
    7.5037   11.8953    3.1625 C   0  0  0  0  0  0  0  0  0  0  0  0
    8.1500   11.1757    3.6399 H   0  0  0  0  0  0  0  0  0  0  0  0
    6.2744   13.9360    3.1251 C   0  0  0  0  0  0  0  0  0  0  0  0
    5.9593   14.8423    3.6219 H   0  0  0  0  0  0  0  0  0  0  0  0
    9.8668    7.6582   -1.3930 C   0  0  0  0  0  0  0  0  0  0  0  0
   10.4438    7.5773   -2.3003 H   0  0  0  0  0  0  0  0  0  0  0  0
   10.9585    5.2940   -0.6990 Cl  0  0  0  0  0  0  0  0  0  0  0  0
    6.1865   10.5785   -1.1137 Pt  0  0  1  0  0  0  0  0  0  0  0  0
    6.2847    8.6144   -2.2910 Cl  0  0  0  0  0  0  0  0  0  0  0  0
  1 18  1  1  0  0  0
  1  8  1  0  0  0  0
  2  1  1  0  0  0  0
  2 38  1  0  0  0  0
  3  4  1  0  0  0  0
  3 12  1  0  0  0  0
  4  7  1  0  0  0  0
  5  8  1  1  0  0  0
  5 11  1  0  0  0  0
  6 31  1  0  0  0  0
  7  6  2  0  0  0  0
  8 10  1  0  0  0  0
  9  8  1  0  0  0  0
 11  6  1  6  0  0  0
 11 20  1  0  0  0  0
 12 13  1  0  0  0  0
 14  3  2  0  0  0  0
 15 14  1  0  0  0  0
 16  2  1  0  0  0  0
 17 16  1  0  0  0  0
 18 19  1  0  0  0  0
 20 33  2  0  0  0  0
 21 20  1  0  0  0  0
 22 29  1  0  0  0  0
 23 25  1  0  0  0  0
 23 16  2  0  0  0  0
 24 23  1  0  0  0  0
 25 18  2  0  0  0  0
 26 25  1  0  0  0  0
 27 28  1  0  0  0  0
 29 12  2  0  0  0  0
 29 30  1  0  0  0  0
 31 32  1  0  0  0  0
 31 27  2  0  0  0  0
 33 34  1  0  0  0  0
 33 27  1  0  0  0  0
 35 14  1  0  0  0  0
 35 22  2  0  0  0  0
 36 35  1  0  0  0  0
 37 22  1  0  0  0  0
 38 39  1  1  0  0  0
 38  5  1  0  0  0  0
 38  4  1  0  0  0  0
M  END
$$$$
