CSD_code = HIPCOZ | q = 0 | S = 0 | Stoichiometry = C16H9Cl2NO5Ru | MND = 6
 OpenBabel04212202043D

 34 37  0  0  1  0  0  0  0  0999 V2000
    5.7590    9.2704    2.1532 Ru  0  0  0  0  0  0  0  0  0  0  0  0
    7.1224   10.0837    0.3834 Cl  0  0  0  0  0  0  0  0  0  0  0  0
    4.5389    8.8696    4.1542 Cl  0  0  0  0  0  0  0  0  0  0  0  0
    7.7028    7.0726    2.7738 O   0  0  0  0  0  1  0  0  0  0  0  0
    4.0756    7.4890    0.4277 O   0  0  0  0  0  1  0  0  0  0  0  0
    4.5082   10.8031    1.7903 O   0  0  0  0  0  0  0  0  0  0  0  0
    6.0245   15.3293    4.2902 O   0  0  0  0  0  0  0  0  0  0  0  0
    4.0366   16.5439    3.3286 O   0  0  0  0  0  0  0  0  0  0  0  0
    6.6807   10.7422    3.2595 N   0  0  0  0  0  0  0  0  0  0  0  0
    6.9641    7.9041    2.5375 C   0  0  0  0  0  2  0  0  0  0  0  0
    4.7403    8.1273    1.0879 C   0  0  0  0  0  2  0  0  0  0  0  0
    7.7786   10.7009    3.9996 C   0  0  0  0  0  3  0  0  0  0  0  0
    8.2997    9.7534    4.0502 H   0  0  0  0  0  0  0  0  0  0  0  0
    8.2569   11.8108    4.6875 C   0  0  0  0  0  0  0  0  0  0  0  0
    9.1558   11.7232    5.2765 H   0  0  0  0  0  0  0  0  0  0  0  0
    7.5724   13.0102    4.6058 C   0  0  0  0  0  0  0  0  0  0  0  0
    7.9024   13.9000    5.1207 H   0  0  0  0  0  0  0  0  0  0  0  0
    6.4164   13.0669    3.8306 C   0  0  0  0  0  0  0  0  0  0  0  0
    5.6404   14.3347    3.7083 C   0  0  0  0  0  0  0  0  0  0  0  0
    4.4354   14.2760    2.8653 C   0  0  0  0  0  0  0  0  0  0  0  0
    3.6402   15.4370    2.6981 C   0  0  0  0  0  0  0  0  0  0  0  0
    2.4948   15.3733    1.8942 C   0  0  0  0  0  0  0  0  0  0  0  0
    1.8825   16.2505    1.7607 H   0  0  0  0  0  0  0  0  0  0  0  0
    2.1299   14.1999    1.2636 C   0  0  0  0  0  0  0  0  0  0  0  0
    1.2425   14.1790    0.6498 H   0  0  0  0  0  0  0  0  0  0  0  0
    2.8935   13.0586    1.4156 C   0  0  0  0  0  0  0  0  0  0  0  0
    2.6232   12.1337    0.9306 H   0  0  0  0  0  0  0  0  0  0  0  0
    4.0382   13.0918    2.2096 C   0  0  0  0  0  0  0  0  0  0  0  0
    4.8162   11.8687    2.3460 C   0  0  1  0  0  3  0  0  0  0  0  0
    6.0121   11.9047    3.1772 C   0  0  0  0  0  0  0  0  0  0  0  0
    3.2933   17.7357    3.2064 C   0  0  0  0  0  0  0  0  0  0  0  0
    2.2782   17.6187    3.5973 H   0  0  0  0  0  0  0  0  0  0  0  0
    3.2529   18.0802    2.1688 H   0  0  0  0  0  0  0  0  0  0  0  0
    3.8287   18.4677    3.8082 H   0  0  0  0  0  0  0  0  0  0  0  0
  1 10  1  0  0  0  0
  1  9  1  0  0  0  0
  1  3  1  0  0  0  0
  2  1  1  0  0  0  0
  5 11  1  0  0  0  0
  6  1  1  0  0  0  0
  9 12  1  0  0  0  0
 10  4  1  0  0  0  0
 11  1  1  0  0  0  0
 12 13  1  0  0  0  0
 12 14  1  0  0  0  0
 14 15  1  0  0  0  0
 16 14  2  0  0  0  0
 16 17  1  0  0  0  0
 18 16  1  0  0  0  0
 19 18  1  0  0  0  0
 19  7  2  0  0  0  0
 20 19  1  0  0  0  0
 21 20  1  0  0  0  0
 21  8  1  0  0  0  0
 22 21  2  0  0  0  0
 23 22  1  0  0  0  0
 24 26  2  0  0  0  0
 24 22  1  0  0  0  0
 25 24  1  0  0  0  0
 26 28  1  0  0  0  0
 27 26  1  0  0  0  0
 28 29  1  0  0  0  0
 28 20  2  0  0  0  0
 29  6  1  1  0  0  0
 29 30  1  0  0  0  0
 30  9  1  0  0  0  0
 30 18  2  0  0  0  0
 31  8  1  0  0  0  0
 31 32  1  0  0  0  0
 31 34  1  0  0  0  0
 33 31  1  0  0  0  0
M  END
$$$$
