CSD_code = HIPRED | q = 0 | S = 0 | Stoichiometry = C3H5Cl5NTa | MND = 6
 OpenBabel04212202043D

 15 14  0  0  0  0  0  0  0  0999 V2000
    2.2262    1.2188    6.7839 Ta  0  0  0  0  0  0  0  0  0  0  0  0
    1.5032    0.2141    4.7935 Cl  0  0  0  0  0  0  0  0  0  0  0  0
    3.9291   -0.3770    6.8116 Cl  0  0  0  0  0  0  0  0  0  0  0  0
    0.1479    2.1907    6.9604 Cl  0  0  0  0  0  0  0  0  0  0  0  0
    3.3540    2.9169    5.9198 Cl  0  0  0  0  0  0  0  0  0  0  0  0
    2.6083    1.6004    9.0150 Cl  0  0  0  0  0  0  0  0  0  0  0  0
    1.0101   -0.7416    7.6510 N   0  0  0  0  0  2  0  0  0  0  0  0
    0.7215   -1.8400    7.4968 C   0  0  0  0  0  2  0  0  0  0  0  0
    0.4262   -3.2041    7.2102 C   0  0  0  0  0  0  0  0  0  0  0  0
    0.7142   -3.8233    8.0635 H   0  0  0  0  0  0  0  0  0  0  0  0
   -0.6496   -3.3074    7.0468 H   0  0  0  0  0  0  0  0  0  0  0  0
    1.2113   -3.6032    5.9519 C   0  0  0  0  0  0  0  0  0  0  0  0
    0.9828   -4.6334    5.6933 H   0  0  0  0  0  0  0  0  0  0  0  0
    2.2798   -3.5086    6.1259 H   0  0  0  0  0  0  0  0  0  0  0  0
    0.9442   -2.9585    5.1186 H   0  0  0  0  0  0  0  0  0  0  0  0
  1  3  1  0  0  0  0
  1  4  1  0  0  0  0
  1  7  1  0  0  0  0
  1  6  1  0  0  0  0
  2  1  1  0  0  0  0
  5  1  1  0  0  0  0
  8  7  1  0  0  0  0
  9  8  1  0  0  0  0
  9 10  1  0  0  0  0
 11  9  1  0  0  0  0
 12 14  1  0  0  0  0
 12  9  1  0  0  0  0
 13 12  1  0  0  0  0
 15 12  1  0  0  0  0
M  END
$$$$
