CSD_code = HIPRIH | q = 0 | S = 0 | Stoichiometry = C3H5Cl5NNb | MND = 6
 OpenBabel04212202043D

 15 14  0  0  0  0  0  0  0  0999 V2000
    2.1782    1.1431    6.7923 Nb  0  0  0  0  0  0  0  0  0  0  0  0
    1.3374    0.1860    4.8062 Cl  0  0  0  0  0  0  0  0  0  0  0  0
    3.7835   -0.5872    6.7699 Cl  0  0  0  0  0  0  0  0  0  0  0  0
    0.1666    2.2485    7.0337 Cl  0  0  0  0  0  0  0  0  0  0  0  0
    3.4036    2.7486    5.9001 Cl  0  0  0  0  0  0  0  0  0  0  0  0
    2.6513    1.4606    9.0295 Cl  0  0  0  0  0  0  0  0  0  0  0  0
    0.8857   -0.6743    7.6858 N   0  0  0  0  0  2  0  0  0  0  0  0
    0.6501   -1.7882    7.5517 C   0  0  0  0  0  2  0  0  0  0  0  0
    0.4473   -3.1722    7.2746 C   0  0  0  0  0  0  0  0  0  0  0  0
    0.7330   -3.7625    8.1487 H   0  0  0  0  0  0  0  0  0  0  0  0
   -0.6093   -3.3482    7.0587 H   0  0  0  0  0  0  0  0  0  0  0  0
    1.3230   -3.5251    6.0622 C   0  0  0  0  0  0  0  0  0  0  0  0
    1.1993   -4.5764    5.8178 H   0  0  0  0  0  0  0  0  0  0  0  0
    2.3696   -3.3299    6.2828 H   0  0  0  0  0  0  0  0  0  0  0  0
    1.0390   -2.9223    5.2031 H   0  0  0  0  0  0  0  0  0  0  0  0
  1  4  1  0  0  0  0
  1  7  1  0  0  0  0
  1  6  1  0  0  0  0
  2  1  1  0  0  0  0
  3  1  1  0  0  0  0
  5  1  1  0  0  0  0
  8  7  1  0  0  0  0
  9  8  1  0  0  0  0
  9 10  1  0  0  0  0
 11  9  1  0  0  0  0
 12 14  1  0  0  0  0
 12  9  1  0  0  0  0
 13 12  1  0  0  0  0
 15 12  1  0  0  0  0
M  END
$$$$
