CSD_code = HIQFUI | q = 0 | S = 0 | Stoichiometry = C22H25ClO2P2PdS2 | MND = 4
 OpenBabel04212202043D

 55 59  0  0  0  0  0  0  0  0999 V2000
   -2.5289    1.3045   19.4211 Pd  0  0  0  0  0  0  0  0  0  0  0  0
   -0.5056    1.0731   20.7238 S   0  0  0  0  0  0  0  0  0  0  0  0
   -3.1084   -0.9148   20.2167 S   0  0  0  0  0  0  0  0  0  0  0  0
   -2.0039    3.4042   18.7909 Cl  0  0  0  0  0  0  0  0  0  0  0  0
   -4.6058    1.7614   18.6676 P   0  0  0  0  0  4  0  0  0  0  0  0
   -1.1054   -0.7287   20.0680 P   0  0  0  0  0  0  0  0  0  0  0  0
   -0.5700   -1.1183   18.6098 O   0  0  0  0  0  0  0  0  0  0  0  0
   -0.3574   -1.9438   20.7714 O   0  0  0  0  0  0  0  0  0  0  0  0
   -0.8933   -0.4081   17.4175 C   0  0  0  0  0  0  0  0  0  0  0  0
   -0.7838   -1.1484   16.6186 H   0  0  0  0  0  0  0  0  0  0  0  0
   -1.9571   -0.0603   17.4375 H   0  0  0  0  0  0  0  0  0  0  0  0
    0.0307    0.7819   17.1905 C   0  0  0  0  0  0  0  0  0  0  0  0
   -0.1235    1.1717   16.1872 H   0  0  0  0  0  0  0  0  0  0  0  0
    1.0677    0.4733   17.3015 H   0  0  0  0  0  0  0  0  0  0  0  0
   -0.1830    1.5816   17.9081 H   0  0  0  0  0  0  0  0  0  0  0  0
   -0.5577   -2.2214   22.1537 C   0  0  0  0  0  0  0  0  0  0  0  0
   -1.5662   -1.9073   22.4510 H   0  0  0  0  0  0  0  0  0  0  0  0
   -0.4902   -3.3095   22.2427 H   0  0  0  0  0  0  0  0  0  0  0  0
    0.4937   -1.5413   23.0124 C   0  0  0  0  0  0  0  0  0  0  0  0
    0.3566   -1.8276   24.0516 H   0  0  0  0  0  0  0  0  0  0  0  0
    0.4104   -0.4601   22.9268 H   0  0  0  0  0  0  0  0  0  0  0  0
    1.4868   -1.8396   22.6863 H   0  0  0  0  0  0  0  0  0  0  0  0
   -4.9410    3.3933   17.9548 C   0  0  0  0  0  0  0  0  0  0  0  0
   -4.5926    3.5931   16.6215 C   0  0  0  0  0  0  0  0  0  0  0  0
   -4.1536    2.7761   16.0625 H   0  0  0  0  0  0  0  0  0  0  0  0
   -4.7932    4.8256   16.0331 C   0  0  0  0  0  0  0  0  0  0  0  0
   -4.5188    4.9819   15.0004 H   0  0  0  0  0  0  0  0  0  0  0  0
   -5.3370    5.8648   16.7728 C   0  0  0  0  0  0  0  0  0  0  0  0
   -5.4883    6.8306   16.3141 H   0  0  0  0  0  0  0  0  0  0  0  0
   -5.6755    5.6698   18.1008 C   0  0  0  0  0  0  0  0  0  0  0  0
   -6.0904    6.4827   18.6783 H   0  0  0  0  0  0  0  0  0  0  0  0
   -5.4764    4.4370   18.6978 C   0  0  0  0  0  0  0  0  0  0  0  0
   -5.7298    4.2861   19.7379 H   0  0  0  0  0  0  0  0  0  0  0  0
   -5.5819    0.6689   17.5885 C   0  0  0  0  0  0  0  0  0  0  0  0
   -5.1469   -0.6245   17.3253 C   0  0  0  0  0  0  0  0  0  0  0  0
   -4.2254   -0.9783   17.7693 H   0  0  0  0  0  0  0  0  0  0  0  0
   -5.8971   -1.4585   16.5153 C   0  0  0  0  0  0  0  0  0  0  0  0
   -5.5558   -2.4633   16.3156 H   0  0  0  0  0  0  0  0  0  0  0  0
   -7.0828   -1.0046   15.9624 C   0  0  0  0  0  0  0  0  0  0  0  0
   -7.6684   -1.6549   15.3298 H   0  0  0  0  0  0  0  0  0  0  0  0
   -7.5175    0.2869   16.2172 C   0  0  0  0  0  0  0  0  0  0  0  0
   -8.4412    0.6422   15.7842 H   0  0  0  0  0  0  0  0  0  0  0  0
   -6.7711    1.1255   17.0237 C   0  0  0  0  0  0  0  0  0  0  0  0
   -7.1023    2.1375   17.2127 H   0  0  0  0  0  0  0  0  0  0  0  0
   -5.4672    1.7675   20.2774 C   0  0  0  0  0  0  0  0  0  0  0  0
   -6.8028    1.4142   20.4297 C   0  0  0  0  0  0  0  0  0  0  0  0
   -7.3873    1.1269   19.5674 H   0  0  0  0  0  0  0  0  0  0  0  0
   -7.3767    1.4155   21.6896 C   0  0  0  0  0  0  0  0  0  0  0  0
   -8.4132    1.1346   21.8054 H   0  0  0  0  0  0  0  0  0  0  0  0
   -6.6257    1.7670   22.7985 C   0  0  0  0  0  0  0  0  0  0  0  0
   -7.0769    1.7606   23.7795 H   0  0  0  0  0  0  0  0  0  0  0  0
   -5.2925    2.1196   22.6527 C   0  0  0  0  0  0  0  0  0  0  0  0
   -4.7070    2.3902   23.5190 H   0  0  0  0  0  0  0  0  0  0  0  0
   -4.7076    2.1167   21.3995 C   0  0  0  0  0  0  0  0  0  0  0  0
   -3.6476    2.4049   21.2913 H   0  0  0  0  0  0  0  0  0  0  0  0
  1  6  1  0  0  0  0
  1  3  1  0  0  0  0
  1  2  1  0  0  0  0
  4  1  1  0  0  0  0
  5  1  1  0  0  0  0
  5 45  1  0  0  0  0
  6  3  1  0  0  0  0
  6  2  1  0  0  0  0
  6  8  1  0  0  0  0
  7  6  1  0  0  0  0
  8 16  1  0  0  0  0
  9 11  1  0  0  0  0
  9  7  1  0  0  0  0
 10  9  1  0  0  0  0
 12 14  1  0  0  0  0
 12  9  1  0  0  0  0
 12 15  1  0  0  0  0
 13 12  1  0  0  0  0
 16 18  1  0  0  0  0
 16 17  1  0  0  0  0
 16 19  1  0  0  0  0
 19 20  1  0  0  0  0
 21 19  1  0  0  0  0
 22 19  1  0  0  0  0
 23  5  1  0  0  0  0
 23 32  1  0  0  0  0
 24 23  2  0  0  0  0
 25 24  1  0  0  0  0
 26 24  1  0  0  0  0
 26 28  2  0  0  0  0
 27 26  1  0  0  0  0
 28 30  1  0  0  0  0
 29 28  1  0  0  0  0
 30 31  1  0  0  0  0
 30 32  2  0  0  0  0
 32 33  1  0  0  0  0
 34  5  1  0  0  0  0
 35 34  1  0  0  0  0
 35 36  1  0  0  0  0
 37 35  2  0  0  0  0
 38 37  1  0  0  0  0
 39 41  2  0  0  0  0
 39 37  1  0  0  0  0
 40 39  1  0  0  0  0
 41 43  1  0  0  0  0
 42 41  1  0  0  0  0
 43 44  1  0  0  0  0
 43 34  2  0  0  0  0
 45 46  2  0  0  0  0
 45 54  1  0  0  0  0
 46 48  1  0  0  0  0
 47 46  1  0  0  0  0
 48 49  1  0  0  0  0
 48 50  2  0  0  0  0
 50 51  1  0  0  0  0
 52 50  1  0  0  0  0
 52 53  1  0  0  0  0
 54 52  2  0  0  0  0
 55 54  1  0  0  0  0
M  END
$$$$
