CSD_code = HIQKAU | q = 0 | S = 0 | Stoichiometry = C20H18ClMnN4O3 | MND = 6
 OpenBabel04212202043D

 47 51  0  0  1  0  0  0  0  0999 V2000
    2.0208    0.5079    8.5867 Mn  0  0  0  0  0  0  0  0  0  0  0  0
    3.4662    1.9856    8.1128 Cl  0  0  0  0  0  0  0  0  0  0  0  0
   -1.4669    1.4467    6.9901 O   0  0  0  0  0  0  0  0  0  0  0  0
    0.6838   -1.3557    8.9463 O   0  0  0  0  0  0  0  0  0  0  0  0
   -0.1929   -1.2607    8.5512 H   0  0  0  0  0  0  0  0  0  0  0  0
    0.5499   -1.5110    9.8903 H   0  0  0  0  0  0  0  0  0  0  0  0
    2.2458    0.3894   12.5737 O   0  0  0  0  0  0  0  0  0  0  0  0
    0.4196    1.4218    8.3445 N   0  0  0  0  0  0  0  0  0  0  0  0
    1.8104    0.1218    6.6591 N   0  0  0  0  0  0  0  0  0  0  0  0
    3.4614   -0.6281    9.3950 N   0  0  0  0  0  0  0  0  0  0  0  0
    1.7135    0.9538   10.3852 N   0  0  0  0  0  0  0  0  0  0  0  0
   -0.0763    2.1036    9.4427 C   0  0  0  0  0  0  0  0  0  0  0  0
    0.6764    1.8398   10.6191 C   0  0  0  0  0  0  0  0  0  0  0  0
    0.3026    2.4219   11.8260 C   0  0  0  0  0  0  0  0  0  0  0  0
    0.8781    2.2223   12.7152 H   0  0  0  0  0  0  0  0  0  0  0  0
   -0.7968    3.2607   11.8547 C   0  0  0  0  0  0  0  0  0  0  0  0
   -1.0820    3.7261   12.7865 H   0  0  0  0  0  0  0  0  0  0  0  0
   -1.5329    3.5158   10.7049 C   0  0  0  0  0  0  0  0  0  0  0  0
   -2.3852    4.1773   10.7501 H   0  0  0  0  0  0  0  0  0  0  0  0
   -1.1860    2.9390    9.4963 C   0  0  0  0  0  0  0  0  0  0  0  0
   -1.7515    3.1350    8.5997 H   0  0  0  0  0  0  0  0  0  0  0  0
   -0.2921    1.1851    7.2181 C   0  0  0  0  0  0  0  0  0  0  0  0
    0.5852    0.4908    6.2223 C   0  0  1  0  0  3  0  0  0  0  0  0
    0.1587    0.3062    4.9176 C   0  0  0  0  0  0  0  0  0  0  0  0
   -0.8422    0.6220    4.6641 H   0  0  0  0  0  0  0  0  0  0  0  0
    1.0151   -0.2497    3.9768 C   0  0  0  0  0  0  0  0  0  0  0  0
    2.2959   -0.5753    4.4207 C   0  0  0  0  0  0  0  0  0  0  0  0
    3.0260   -0.9770    3.7348 H   0  0  0  0  0  0  0  0  0  0  0  0
    2.6423   -0.3770    5.7422 C   0  0  0  0  0  0  0  0  0  0  0  0
    3.6443   -0.6073    6.0784 H   0  0  0  0  0  0  0  0  0  0  0  0
    2.4100    0.3322   11.3610 C   0  0  0  0  0  0  0  0  0  0  0  0
    3.4583   -0.5415   10.7423 C   0  0  1  0  0  3  0  0  0  0  0  0
    4.3654   -1.2143   11.5457 C   0  0  0  0  0  0  0  0  0  0  0  0
    4.2822   -1.0845   12.6143 H   0  0  0  0  0  0  0  0  0  0  0  0
    5.3479   -2.0094   10.9737 C   0  0  0  0  0  0  0  0  0  0  0  0
    5.3471   -2.0911    9.5818 C   0  0  0  0  0  0  0  0  0  0  0  0
    6.0874   -2.6851    9.0682 H   0  0  0  0  0  0  0  0  0  0  0  0
    4.4031   -1.3993    8.8496 C   0  0  0  0  0  0  0  0  0  0  0  0
    4.4071   -1.4645    7.7704 H   0  0  0  0  0  0  0  0  0  0  0  0
    0.5958   -0.4430    2.5580 C   0  0  0  0  0  0  0  0  0  0  0  0
    0.6514    0.5076    2.0274 H   0  0  0  0  0  0  0  0  0  0  0  0
   -0.4333   -0.7911    2.5061 H   0  0  0  0  0  0  0  0  0  0  0  0
    1.2431   -1.1547    2.0521 H   0  0  0  0  0  0  0  0  0  0  0  0
    6.3399   -2.7490   11.8073 C   0  0  0  0  0  0  0  0  0  0  0  0
    7.2321   -2.9863   11.2335 H   0  0  0  0  0  0  0  0  0  0  0  0
    5.9010   -3.6836   12.1579 H   0  0  0  0  0  0  0  0  0  0  0  0
    6.6176   -2.1640   12.6805 H   0  0  0  0  0  0  0  0  0  0  0  0
  1 10  1  0  0  0  0
  1 11  1  0  0  0  0
  2  1  1  0  0  0  0
  3 22  2  0  0  0  0
  4  6  1  0  0  0  0
  5  4  1  0  0  0  0
  8  1  1  0  0  0  0
  8 12  1  0  0  0  0
  9  1  1  0  0  0  0
 10 32  1  0  0  0  0
 11 13  1  0  0  0  0
 11 31  1  0  0  0  0
 12 20  2  0  0  0  0
 12 13  1  0  0  0  0
 13 14  2  0  0  0  0
 14 16  1  0  0  0  0
 14 15  1  0  0  0  0
 16 17  1  0  0  0  0
 18 19  1  0  0  0  0
 18 16  2  0  0  0  0
 20 18  1  0  0  0  0
 21 20  1  0  0  0  0
 22  8  1  0  0  0  0
 23 24  1  6  0  0  0
 23  9  1  0  0  0  0
 23 22  1  0  0  0  0
 25 24  1  0  0  0  0
 26 27  1  0  0  0  0
 26 24  2  0  0  0  0
 27 29  2  0  0  0  0
 28 27  1  0  0  0  0
 29 30  1  0  0  0  0
 29  9  1  0  0  0  0
 31  7  2  0  0  0  0
 32 31  1  1  0  0  0
 32 33  1  0  0  0  0
 33 34  1  0  0  0  0
 35 33  2  0  0  0  0
 35 44  1  0  0  0  0
 36 35  1  0  0  0  0
 37 36  1  0  0  0  0
 38 10  1  0  0  0  0
 38 36  2  0  0  0  0
 39 38  1  0  0  0  0
 40 26  1  0  0  0  0
 41 40  1  0  0  0  0
 42 40  1  0  0  0  0
 43 40  1  0  0  0  0
 44 46  1  0  0  0  0
 44 47  1  0  0  0  0
 45 44  1  0  0  0  0
M  END
$$$$
