CSD_code = HIQWUA | q = 0 | S = 0 | Stoichiometry = C12H14CdCl2N6O2 | MND = 6
 OpenBabel04212202043D

 37 38  0  0  1  0  0  0  0  0999 V2000
    2.1675   -0.1851    6.8766 C   0  0  0  0  0  0  0  0  0  0  0  0
    3.3703    0.4444    6.5745 C   0  0  0  0  0  0  0  0  0  0  0  0
    3.5658    0.7460    5.5579 H   0  0  0  0  0  0  0  0  0  0  0  0
    4.2696    0.6709    7.6041 C   0  0  0  0  0  0  0  0  0  0  0  0
    5.2116    1.1628    7.4121 H   0  0  0  0  0  0  0  0  0  0  0  0
    3.9350    0.2579    8.8839 C   0  0  0  0  0  0  0  0  0  0  0  0
    4.6045    0.4166    9.7146 H   0  0  0  0  0  0  0  0  0  0  0  0
    2.7079   -0.3638    9.0783 C   0  0  0  0  0  0  0  0  0  0  0  0
    2.4001   -0.7018   10.0591 H   0  0  0  0  0  0  0  0  0  0  0  0
    1.1596   -0.4183    5.8012 C   0  0  2  0  0  3  0  0  0  0  0  0
    1.8433   -0.5802    8.1063 N   0  0  0  0  0  0  0  0  0  0  0  0
    0.0160   -0.9525    6.2515 N   0  0  0  0  0  0  0  0  0  0  0  0
   -0.0791   -0.9986    7.2657 H   0  0  0  0  0  0  0  0  0  0  0  0
   -1.1031   -1.0847    5.4217 N   0  0  0  0  0  0  0  0  0  0  0  0
   -1.7964   -0.3677    5.6607 H   0  0  0  0  0  0  0  0  0  0  0  0
   -1.5067   -2.0144    5.5121 H   0  0  0  0  0  0  0  0  0  0  0  0
    1.3963   -0.1700    4.6214 O   0  0  0  0  0  0  0  0  0  0  0  0
    0.2246    1.9365    1.6913 Cl  0  0  0  0  0  0  0  0  0  0  0  0
   -0.5122    0.6661    3.5458 Cd  0  0  0  0  0  0  0  0  0  0  0  0
   -3.1923   -0.1853    0.2155 C   0  0  0  0  0  0  0  0  0  0  0  0
   -4.3949    0.4445    0.5175 C   0  0  0  0  0  0  0  0  0  0  0  0
   -4.5905    0.7463    1.5341 H   0  0  0  0  0  0  0  0  0  0  0  0
   -5.2941    0.6711   -0.5122 C   0  0  0  0  0  0  0  0  0  0  0  0
   -6.2361    1.1631   -0.3203 H   0  0  0  0  0  0  0  0  0  0  0  0
   -4.9595    0.2580   -1.7919 C   0  0  0  0  0  0  0  0  0  0  0  0
   -5.6289    0.4166   -2.6227 H   0  0  0  0  0  0  0  0  0  0  0  0
   -3.7325   -0.3641   -1.9862 C   0  0  0  0  0  0  0  0  0  0  0  0
   -3.4247   -0.7021   -2.9670 H   0  0  0  0  0  0  0  0  0  0  0  0
   -2.1844   -0.4183    1.2909 C   0  0  2  0  0  3  0  0  0  0  0  0
   -2.8680   -0.5806   -1.0141 N   0  0  0  0  0  0  0  0  0  0  0  0
   -1.0408   -0.9526    0.8408 N   0  0  0  0  0  0  0  0  0  0  0  0
   -0.9459   -0.9992   -0.1734 H   0  0  0  0  0  0  0  0  0  0  0  0
    0.0783   -1.0846    1.6704 N   0  0  0  0  0  0  0  0  0  0  0  0
    0.7717   -0.3676    1.4309 H   0  0  0  0  0  0  0  0  0  0  0  0
    0.4819   -2.0143    1.5806 H   0  0  0  0  0  0  0  0  0  0  0  0
   -2.4210   -0.1697    2.4707 O   0  0  0  0  0  0  0  0  0  0  0  0
   -1.2484    1.9369    5.3998 Cl  0  0  0  0  0  0  0  0  0  0  0  0
  1 11  1  0  0  0  0
  2  1  2  0  0  0  0
  2  4  1  0  0  0  0
  3  2  1  0  0  0  0
  4  6  2  0  0  0  0
  5  4  1  0  0  0  0
  6  8  1  0  0  0  0
  6  7  1  0  0  0  0
  8  9  1  0  0  0  0
 10 17  1  6  0  0  0
 10 12  1  0  0  0  0
 10  1  1  0  0  0  0
 11  8  2  0  0  0  0
 12 13  1  0  0  0  0
 14 16  1  0  0  0  0
 14 15  1  0  0  0  0
 14 12  1  0  0  0  0
 18 19  1  0  0  0  0
 19 17  1  0  0  0  0
 19 37  1  0  0  0  0
 20 21  1  0  0  0  0
 20 29  1  0  0  0  0
 21 22  1  0  0  0  0
 23 24  1  0  0  0  0
 23 21  2  0  0  0  0
 25 23  1  0  0  0  0
 26 25  1  0  0  0  0
 27 25  2  0  0  0  0
 27 30  1  0  0  0  0
 28 27  1  0  0  0  0
 29 36  1  1  0  0  0
 30 20  2  0  0  0  0
 31 29  1  0  0  0  0
 31 33  1  0  0  0  0
 32 31  1  0  0  0  0
 34 33  1  0  0  0  0
 35 33  1  0  0  0  0
 36 19  1  0  0  0  0
M  END
$$$$
