CSD_code = HIQXOV | q = 0 | S = 0 | Stoichiometry = C23H22ClMnN2O5 | MND = 6
 OpenBabel04212202043D

 54 58  0  0  0  0  0  0  0  0999 V2000
    4.9339    4.0484    3.4496 Mn  0  0  0  0  0  0  0  0  0  0  0  0
    3.9591    2.3054    2.5147 Cl  0  0  0  0  0  0  0  0  0  0  0  0
    6.4665    3.1859    3.5525 O   0  0  0  0  0  0  0  0  0  0  0  0
    4.2488    3.9397    5.0576 O   0  0  0  0  0  0  0  0  0  0  0  0
   11.4179    4.0922    1.3938 O   0  0  0  0  0  0  0  0  0  0  0  0
   -0.6899    3.6576    7.3897 O   0  0  0  0  0  0  0  0  0  0  0  0
    6.0280    5.8474    4.5124 O   0  0  0  0  0  0  0  0  0  0  0  0
    6.5383    5.4512    5.2302 H   0  0  0  0  0  0  0  0  0  0  0  0
    5.4624    4.8575    1.7537 N   0  0  0  0  0  0  0  0  0  0  0  0
    3.2265    5.1203    2.9709 N   0  0  0  0  0  0  0  0  0  0  0  0
    7.6330    3.3972    3.0637 C   0  0  0  0  0  0  0  0  0  0  0  0
    8.7778    2.7619    3.5979 C   0  0  0  0  0  0  0  0  0  0  0  0
    8.6359    2.0989    4.4384 H   0  0  0  0  0  0  0  0  0  0  0  0
   10.0268    2.9707    3.0781 C   0  0  0  0  0  0  0  0  0  0  0  0
   10.8689    2.4657    3.5244 H   0  0  0  0  0  0  0  0  0  0  0  0
   10.2078    3.8259    1.9735 C   0  0  0  0  0  0  0  0  0  0  0  0
    9.1148    4.4547    1.4237 C   0  0  0  0  0  0  0  0  0  0  0  0
    9.2633    5.0972    0.5694 H   0  0  0  0  0  0  0  0  0  0  0  0
    7.8159    4.2766    1.9413 C   0  0  0  0  0  0  0  0  0  0  0  0
    6.7230    4.9473    1.3632 C   0  0  0  0  0  3  0  0  0  0  0  0
    6.9604    5.6128    0.5364 H   0  0  0  0  0  0  0  0  0  0  0  0
    3.0696    3.8705    5.5724 C   0  0  0  0  0  0  0  0  0  0  0  0
    2.8633    3.3077    6.8530 C   0  0  0  0  0  0  0  0  0  0  0  0
    3.7197    2.9058    7.3733 H   0  0  0  0  0  0  0  0  0  0  0  0
    1.6161    3.2515    7.4054 C   0  0  0  0  0  0  0  0  0  0  0  0
    1.4555    2.8120    8.3773 H   0  0  0  0  0  0  0  0  0  0  0  0
    0.4930    3.7631    6.7205 C   0  0  0  0  0  0  0  0  0  0  0  0
    0.6590    4.3166    5.4742 C   0  0  0  0  0  0  0  0  0  0  0  0
   -0.1756    4.7210    4.9227 H   0  0  0  0  0  0  0  0  0  0  0  0
    1.9336    4.3821    4.8715 C   0  0  0  0  0  0  0  0  0  0  0  0
    2.0804    4.9320    3.5803 C   0  0  0  0  0  3  0  0  0  0  0  0
    1.1595    5.1960    3.0633 H   0  0  0  0  0  0  0  0  0  0  0  0
    3.2694    5.7220    1.7275 C   0  0  0  0  0  0  0  0  0  0  0  0
    2.2641    6.4958    1.1438 C   0  0  0  0  0  0  0  0  0  0  0  0
    1.3649    6.7293    1.6927 H   0  0  0  0  0  0  0  0  0  0  0  0
    2.4178    6.9776   -0.1402 C   0  0  0  0  0  0  0  0  0  0  0  0
    1.6317    7.5663   -0.5880 H   0  0  0  0  0  0  0  0  0  0  0  0
    3.5684    6.6932   -0.8643 C   0  0  0  0  0  0  0  0  0  0  0  0
    3.6643    7.0408   -1.8815 H   0  0  0  0  0  0  0  0  0  0  0  0
    4.5965    5.9742   -0.2882 C   0  0  0  0  0  0  0  0  0  0  0  0
    5.4757    5.7489   -0.8716 H   0  0  0  0  0  0  0  0  0  0  0  0
    4.4826    5.5188    1.0260 C   0  0  0  0  0  0  0  0  0  0  0  0
   12.5591    3.4316    1.8820 C   0  0  0  0  0  0  0  0  0  0  0  0
   13.3829    3.7695    1.2549 H   0  0  0  0  0  0  0  0  0  0  0  0
   12.4651    2.3442    1.7968 H   0  0  0  0  0  0  0  0  0  0  0  0
   12.7683    3.6992    2.9234 H   0  0  0  0  0  0  0  0  0  0  0  0
   -1.8594    4.1050    6.7494 C   0  0  0  0  0  0  0  0  0  0  0  0
   -2.6724    3.9030    7.4449 H   0  0  0  0  0  0  0  0  0  0  0  0
   -2.0375    3.5624    5.8156 H   0  0  0  0  0  0  0  0  0  0  0  0
   -1.8187    5.1798    6.5436 H   0  0  0  0  0  0  0  0  0  0  0  0
    6.7435    6.9573    4.0044 C   0  0  0  0  0  0  0  0  0  0  0  0
    6.9111    7.6964    4.7938 H   0  0  0  0  0  0  0  0  0  0  0  0
    6.1273    7.4025    3.2253 H   0  0  0  0  0  0  0  0  0  0  0  0
    7.7042    6.6572    3.5748 H   0  0  0  0  0  0  0  0  0  0  0  0
  1  3  1  0  0  0  0
  1  4  1  0  0  0  0
  2  1  1  0  0  0  0
  4 22  1  0  0  0  0
  5 43  1  0  0  0  0
  5 16  1  0  0  0  0
  7  8  1  0  0  0  0
  9  1  1  0  0  0  0
 10  1  1  0  0  0  0
 10 31  1  0  0  0  0
 11  3  1  0  0  0  0
 11 12  1  0  0  0  0
 12 13  1  0  0  0  0
 14 15  1  0  0  0  0
 14 12  2  0  0  0  0
 16 14  1  0  0  0  0
 17 19  1  0  0  0  0
 17 16  2  0  0  0  0
 18 17  1  0  0  0  0
 19 11  2  0  0  0  0
 20  9  1  0  0  0  0
 20 19  1  0  0  0  0
 21 20  1  0  0  0  0
 22 23  1  0  0  0  0
 23 24  1  0  0  0  0
 23 25  2  0  0  0  0
 25 26  1  0  0  0  0
 27  6  1  0  0  0  0
 27 25  1  0  0  0  0
 28 27  2  0  0  0  0
 29 28  1  0  0  0  0
 30 28  1  0  0  0  0
 30 22  2  0  0  0  0
 31 30  1  0  0  0  0
 32 31  1  0  0  0  0
 33 10  1  0  0  0  0
 34 35  1  0  0  0  0
 34 33  1  0  0  0  0
 36 34  2  0  0  0  0
 37 36  1  0  0  0  0
 38 40  2  0  0  0  0
 38 36  1  0  0  0  0
 39 38  1  0  0  0  0
 40 42  1  0  0  0  0
 41 40  1  0  0  0  0
 42 33  2  0  0  0  0
 42  9  1  0  0  0  0
 43 46  1  0  0  0  0
 44 43  1  0  0  0  0
 45 43  1  0  0  0  0
 47  6  1  0  0  0  0
 47 48  1  0  0  0  0
 49 47  1  0  0  0  0
 50 47  1  0  0  0  0
 51  7  1  0  0  0  0
 51 52  1  0  0  0  0
 53 51  1  0  0  0  0
 54 51  1  0  0  0  0
M  END
$$$$
