CSD_code = HIRLOJ | q = 0 | S = 0 | Stoichiometry = C10H9CdI2N3 | MND = 4
 OpenBabel04212202043D

 25 27  0  0  1  0  0  0  0  0999 V2000
   11.6186   -0.3946    6.4816 Cd  0  0  0  0  0  0  0  0  0  0  0  0
   14.0012   -1.1923    5.5698 I   0  0  0  0  0  0  0  0  0  0  0  0
   11.1127    1.4765    5.0910 N   0  0  0  0  0  0  0  0  0  0  0  0
   10.7071    1.0334    3.8985 C   0  0  0  0  0  3  0  0  0  0  0  0
   10.6325   -0.0475    3.7929 H   0  0  0  0  0  0  0  0  0  0  0  0
   10.3907    1.8589    2.8412 C   0  0  0  0  0  0  0  0  0  0  0  0
   10.0687    1.4457    1.9001 H   0  0  0  0  0  0  0  0  0  0  0  0
   10.5014    3.2334    3.0275 C   0  0  0  0  0  0  0  0  0  0  0  0
   10.2669    3.9190    2.2276 H   0  0  0  0  0  0  0  0  0  0  0  0
   10.9153    3.7052    4.2511 C   0  0  0  0  0  0  0  0  0  0  0  0
   11.0115    4.7656    4.4308 H   0  0  0  0  0  0  0  0  0  0  0  0
   11.2174    2.7905    5.2755 C   0  0  0  0  0  0  0  0  0  0  0  0
   11.6187    3.3222    6.4815 N   0  0  0  0  0  0  0  0  0  0  0  0
   11.6185    4.3343    6.4816 H   0  0  0  0  0  0  0  0  0  0  0  0
    9.2355   -1.1902    7.3935 I   0  0  0  0  0  0  0  0  0  0  0  0
   12.0205    2.7905    7.6874 C   0  0  1  0  0  3  0  0  0  0  0  0
   12.1258    1.4765    7.8716 N   0  0  0  0  0  0  0  0  0  0  0  0
   12.5318    1.0335    9.0639 C   0  0  0  0  0  0  0  0  0  0  0  0
   12.6069   -0.0475    9.1694 H   0  0  0  0  0  0  0  0  0  0  0  0
   12.8479    1.8589   10.1214 C   0  0  0  0  0  0  0  0  0  0  0  0
   13.1702    1.4457   11.0624 H   0  0  0  0  0  0  0  0  0  0  0  0
   12.7365    3.2334    9.9353 C   0  0  0  0  0  0  0  0  0  0  0  0
   12.9708    3.9189   10.7353 H   0  0  0  0  0  0  0  0  0  0  0  0
   12.3222    3.7051    8.7118 C   0  0  0  0  0  0  0  0  0  0  0  0
   12.2255    4.7655    8.5323 H   0  0  0  0  0  0  0  0  0  0  0  0
  1 15  1  0  0  0  0
  1 17  1  0  0  0  0
  2  1  1  0  0  0  0
  3 12  1  0  0  0  0
  3  1  1  0  0  0  0
  4  3  1  0  0  0  0
  5  4  1  0  0  0  0
  6  8  2  0  0  0  0
  6  4  1  0  0  0  0
  7  6  1  0  0  0  0
  8 10  1  0  0  0  0
  9  8  1  0  0  0  0
 10 11  1  0  0  0  0
 10 12  2  0  0  0  0
 12 13  1  0  0  0  0
 13 14  1  0  0  0  0
 13 16  1  0  0  0  0
 16 17  1  0  0  0  0
 16 24  1  6  0  0  0
 17 18  1  0  0  0  0
 18 19  1  0  0  0  0
 18 20  2  0  0  0  0
 20 21  1  0  0  0  0
 22 20  1  0  0  0  0
 22 23  1  0  0  0  0
 24 22  2  0  0  0  0
 25 24  1  0  0  0  0
M  END
$$$$
