CSD_code = HISHAS | q = 1 | S = 0 | Stoichiometry = C16H32Cl2O4Sc(1+) | MND = 6
 OpenBabel04212202043D

 55 54  0  0  0  0  0  0  0  0999 V2000
    7.3879   -5.1163   15.4966 Sc  0  0  0  0  0  0  0  0  0  0  0  0
    8.7429   -4.6561   13.6894 Cl  0  0  0  0  0  0  0  0  0  0  0  0
    5.9891   -5.5370   17.2724 Cl  0  0  0  0  0  0  0  0  0  0  0  0
    9.0559   -4.9484   16.8344 O   0  0  0  0  0  0  0  0  0  0  0  0
   10.4522   -5.1742   16.5448 C   0  0  0  0  0  0  0  0  0  0  0  0
   11.1845   -4.1305   17.3725 C   0  0  0  0  0  0  0  0  0  0  0  0
   10.3931   -4.1804   18.6789 C   0  0  0  0  0  0  0  0  0  0  0  0
    8.9672   -4.4914   18.2105 C   0  0  0  0  0  0  0  0  0  0  0  0
    7.7980   -7.2015   15.2880 O   0  0  0  0  0  0  0  0  0  0  0  0
    7.7062   -8.1885   16.3511 C   0  0  0  0  0  0  0  0  0  0  0  0
    8.2211   -9.5037   15.7750 C   0  0  0  0  0  0  0  0  0  0  0  0
    7.9104   -9.3440   14.2898 C   0  0  0  0  0  0  0  0  0  0  0  0
    8.2312   -7.8725   14.0788 C   0  0  0  0  0  0  0  0  0  0  0  0
    5.7300   -5.3066   14.1597 O   0  0  0  0  0  0  0  0  0  0  0  0
    4.6037   -6.2128   14.2956 C   0  0  0  0  0  0  0  0  0  0  0  0
    3.5337   -5.7607   13.2950 C   0  0  0  0  0  0  0  0  0  0  0  0
    3.9927   -4.3557   12.9075 C   0  0  0  0  0  0  0  0  0  0  0  0
    5.5035   -4.5109   12.9768 C   0  0  0  0  0  0  0  0  0  0  0  0
    7.0082   -3.0164   15.7276 O   0  0  0  0  0  0  0  0  0  0  0  0
    5.7826   -2.3948   16.1571 C   0  0  0  0  0  0  0  0  0  0  0  0
    5.5819   -1.1861   15.2340 C   0  0  0  0  0  0  0  0  0  0  0  0
    6.9933   -0.8995   14.6892 C   0  0  0  0  0  0  0  0  0  0  0  0
    7.8760   -1.9090   15.4270 C   0  0  0  0  0  0  0  0  0  0  0  0
   10.5955   -5.0671   15.4670 H   0  0  0  0  0  0  0  0  0  0  0  0
   10.7274   -6.1891   16.8647 H   0  0  0  0  0  0  0  0  0  0  0  0
   12.2359   -4.3676   17.5060 H   0  0  0  0  0  0  0  0  0  0  0  0
   11.0976   -3.1513   16.9000 H   0  0  0  0  0  0  0  0  0  0  0  0
   10.4424   -3.2475   19.2339 H   0  0  0  0  0  0  0  0  0  0  0  0
   10.7685   -4.9798   19.3170 H   0  0  0  0  0  0  0  0  0  0  0  0
    8.3250   -3.6036   18.2215 H   0  0  0  0  0  0  0  0  0  0  0  0
    8.4915   -5.2719   18.8143 H   0  0  0  0  0  0  0  0  0  0  0  0
    6.6539   -8.2617   16.6503 H   0  0  0  0  0  0  0  0  0  0  0  0
    8.2934   -7.8379   17.2067 H   0  0  0  0  0  0  0  0  0  0  0  0
    9.2965   -9.5981   15.9265 H   0  0  0  0  0  0  0  0  0  0  0  0
    7.7274  -10.3619   16.2224 H   0  0  0  0  0  0  0  0  0  0  0  0
    6.8553   -9.5411   14.0968 H   0  0  0  0  0  0  0  0  0  0  0  0
    8.5127   -9.9897   13.6572 H   0  0  0  0  0  0  0  0  0  0  0  0
    9.3109   -7.7160   13.9580 H   0  0  0  0  0  0  0  0  0  0  0  0
    7.7104   -7.4212   13.2293 H   0  0  0  0  0  0  0  0  0  0  0  0
    4.2582   -6.1464   15.3328 H   0  0  0  0  0  0  0  0  0  0  0  0
    4.9441   -7.2358   14.0940 H   0  0  0  0  0  0  0  0  0  0  0  0
    2.5406   -5.7681   13.7362 H   0  0  0  0  0  0  0  0  0  0  0  0
    3.5282   -6.4089   12.4193 H   0  0  0  0  0  0  0  0  0  0  0  0
    3.6496   -4.0570   11.9211 H   0  0  0  0  0  0  0  0  0  0  0  0
    3.6506   -3.6250   13.6418 H   0  0  0  0  0  0  0  0  0  0  0  0
    5.8854   -5.0507   12.0999 H   0  0  0  0  0  0  0  0  0  0  0  0
    6.0528   -3.5723   13.0873 H   0  0  0  0  0  0  0  0  0  0  0  0
    5.8987   -2.0748   17.2010 H   0  0  0  0  0  0  0  0  0  0  0  0
    4.9828   -3.1374   16.1029 H   0  0  0  0  0  0  0  0  0  0  0  0
    4.8925   -1.4177   14.4238 H   0  0  0  0  0  0  0  0  0  0  0  0
    5.1791   -0.3415   15.7874 H   0  0  0  0  0  0  0  0  0  0  0  0
    7.0403   -1.0704   13.6145 H   0  0  0  0  0  0  0  0  0  0  0  0
    7.3131    0.1205   14.8848 H   0  0  0  0  0  0  0  0  0  0  0  0
    8.2492   -1.4847   16.3696 H   0  0  0  0  0  0  0  0  0  0  0  0
    8.7078   -2.2798   14.8235 H   0  0  0  0  0  0  0  0  0  0  0  0
  1  3  1  0  0  0  0
  2  1  1  0  0  0  0
  4  8  1  0  0  0  0
  5  4  1  0  0  0  0
  5 25  1  0  0  0  0
  5  6  1  0  0  0  0
  6 26  1  0  0  0  0
  6  7  1  0  0  0  0
  7 28  1  0  0  0  0
  7 29  1  0  0  0  0
  8 30  1  0  0  0  0
  8  7  1  0  0  0  0
  8 31  1  0  0  0  0
  9 10  1  0  0  0  0
 10 32  1  0  0  0  0
 10 33  1  0  0  0  0
 11 34  1  0  0  0  0
 11 35  1  0  0  0  0
 11 10  1  0  0  0  0
 12 11  1  0  0  0  0
 13 12  1  0  0  0  0
 13  9  1  0  0  0  0
 14 15  1  0  0  0  0
 15 40  1  0  0  0  0
 16 42  1  0  0  0  0
 16 15  1  0  0  0  0
 17 18  1  0  0  0  0
 17 16  1  0  0  0  0
 17 45  1  0  0  0  0
 18 47  1  0  0  0  0
 18 14  1  0  0  0  0
 19 20  1  0  0  0  0
 20 48  1  0  0  0  0
 21 51  1  0  0  0  0
 21 20  1  0  0  0  0
 22 53  1  0  0  0  0
 22 21  1  0  0  0  0
 22 23  1  0  0  0  0
 23 19  1  0  0  0  0
 23 54  1  0  0  0  0
 24  5  1  0  0  0  0
 27  6  1  0  0  0  0
 36 12  1  0  0  0  0
 37 12  1  0  0  0  0
 38 13  1  0  0  0  0
 39 13  1  0  0  0  0
 41 15  1  0  0  0  0
 43 16  1  0  0  0  0
 44 17  1  0  0  0  0
 46 18  1  0  0  0  0
 49 20  1  0  0  0  0
 50 21  1  0  0  0  0
 52 22  1  0  0  0  0
 55 23  1  0  0  0  0
M  END
$$$$
