CSD_code = HISHGC | q = 0 | S = 0 | Stoichiometry = C6Cl3HgN3O2 | MND = 4
 OpenBabel04212202043D

 15 13  0  0  1  0  0  0  0  0999 V2000
   -2.0853   -0.3942    2.3811 Cl  0  0  0  0  0  0  0  0  0  0  0  0
   -1.0418    0.8674   -0.9635 Cl  0  0  0  0  0  0  0  0  0  0  0  0
    1.9207    1.2590    1.2361 Cl  0  0  0  0  0  0  0  0  0  0  0  0
    1.4269   -2.7008    3.4009 C   0  0  0  0  0  0  0  0  0  0  0  0
    0.0835   -1.4028   -0.3449 C   0  0  0  0  0  0  0  0  0  0  0  0
   -0.4881   -0.6861   -1.4163 C   0  0  2  0  0  3  0  0  0  0  0  0
   -0.5923   -1.1657   -2.6731 C   0  0  0  0  0  0  0  0  0  0  0  0
   -0.6245   -2.0619   -4.3607 C   0  0  0  0  0  3  0  0  0  0  0  0
   -1.2092   -0.4033   -3.8575 C   0  0  0  0  0  3  0  0  0  0  0  0
   -0.0115    0.5421    2.2150 Hg  0  0  0  0  0  0  0  0  0  0  0  0
    0.5258   -1.8925    0.5944 N   0  0  0  0  0  0  0  0  0  0  0  0
   -0.2010   -2.3765   -3.1895 N   0  0  0  0  0  2  0  0  0  0  0  0
   -1.2059   -1.0536   -4.9739 N   0  0  0  0  0  0  0  0  0  0  0  0
    1.7081   -3.7997    3.3008 O   0  0  0  0  0  0  0  0  0  0  0  0
    1.1533   -1.5929    3.5330 O   0  0  0  0  0  0  0  0  0  0  0  0
  3 10  1  0  0  0  0
  4 15  2  0  0  0  0
  5 11  3  0  0  0  0
  6  2  1  6  0  0  0
  6  5  1  0  0  0  0
  7  6  1  0  0  0  0
  8 12  1  0  0  0  0
  9  7  2  0  0  0  0
 10  1  1  0  0  0  0
 12  7  1  0  0  0  0
 13  8  2  0  0  0  0
 13  9  1  0  0  0  0
 14  4  2  0  0  0  0
M  END
$$$$
