CSD_code = HISJIC | q = 0 | S = 0 | Stoichiometry = C18H23Cl2Ta | MND = 9
 OpenBabel04212202043D

 44 46  0  0  1  0  0  0  0  0999 V2000
   11.3927    1.7850    3.1230 Ta  0  0  0  0  0  0  0  0  0  0  0  0
   10.9201    3.7293    2.0688 Cl  0  0  0  0  0  0  0  0  0  0  0  0
   13.6586    1.9741    3.4610 Cl  0  0  0  0  0  0  0  0  0  0  0  0
    9.2460    1.3490    3.6725 C   0  0  0  0  0  0  0  0  0  0  0  0
    8.9631    2.0340    4.9722 C   0  0  0  0  0  0  0  0  0  0  0  0
   10.0364    2.1117    5.8742 C   0  0  0  0  0  0  0  0  0  0  0  0
   11.3126    1.5056    5.4211 C   0  0  0  0  0  0  0  0  0  0  0  0
    7.7492    2.6122    5.3069 C   0  0  0  0  0  0  0  0  0  0  0  0
    7.5925    3.2616    6.5222 C   0  0  0  0  0  0  0  0  0  0  0  0
    8.6514    3.3411    7.4086 C   0  0  0  0  0  0  0  0  0  0  0  0
    9.8727    2.7719    7.0832 C   0  0  0  0  0  0  0  0  0  0  0  0
   11.6308   -1.2683    2.8779 C   0  0  0  0  0  0  0  0  0  0  0  0
   10.4337   -1.9126    2.8234 C   0  0  0  0  0  0  0  0  0  0  0  0
    9.6357   -1.3436    1.7484 C   0  0  0  0  0  0  0  0  0  0  0  0
   10.3433   -0.3493    1.1545 C   0  0  0  0  0  0  0  0  0  0  0  0
   11.6444   -0.2034    1.8521 C   0  0  1  0  0  0  0  0  0  0  0  0
   12.8092   -1.5847    3.7459 C   0  0  0  0  0  0  0  0  0  0  0  0
    9.9442   -3.0268    3.6841 C   0  0  0  0  0  0  0  0  0  0  0  0
    8.2647   -1.8280    1.4191 C   0  0  0  0  0  0  0  0  0  0  0  0
    9.9614    0.4744   -0.0360 C   0  0  0  0  0  0  0  0  0  0  0  0
   12.8715   -0.1005    0.9643 C   0  0  0  0  0  0  0  0  0  0  0  0
    8.5208    1.6798    2.9230 H   0  0  0  0  0  0  0  0  0  0  0  0
    9.0501    0.2821    3.8257 H   0  0  0  0  0  0  0  0  0  0  0  0
   12.1607    1.9005    5.9821 H   0  0  0  0  0  0  0  0  0  0  0  0
   11.2847    0.4189    5.5593 H   0  0  0  0  0  0  0  0  0  0  0  0
    6.9234    2.5637    4.6107 H   0  0  0  0  0  0  0  0  0  0  0  0
    6.6431    3.7121    6.7723 H   0  0  0  0  0  0  0  0  0  0  0  0
    8.5306    3.8533    8.3518 H   0  0  0  0  0  0  0  0  0  0  0  0
   10.7028    2.8416    7.7722 H   0  0  0  0  0  0  0  0  0  0  0  0
   12.4926   -2.0126    4.6943 H   0  0  0  0  0  0  0  0  0  0  0  0
   13.3928   -0.6886    3.9487 H   0  0  0  0  0  0  0  0  0  0  0  0
   13.4562   -2.3113    3.2514 H   0  0  0  0  0  0  0  0  0  0  0  0
    9.0376   -2.7283    4.2111 H   0  0  0  0  0  0  0  0  0  0  0  0
   10.6924   -3.3162    4.4160 H   0  0  0  0  0  0  0  0  0  0  0  0
    9.7008   -3.8969    3.0753 H   0  0  0  0  0  0  0  0  0  0  0  0
    7.8196   -1.2346    0.6259 H   0  0  0  0  0  0  0  0  0  0  0  0
    7.6225   -1.7751    2.2979 H   0  0  0  0  0  0  0  0  0  0  0  0
    8.2968   -2.8678    1.0942 H   0  0  0  0  0  0  0  0  0  0  0  0
    8.8828    0.6068   -0.0866 H   0  0  0  0  0  0  0  0  0  0  0  0
   10.2809   -0.0172   -0.9569 H   0  0  0  0  0  0  0  0  0  0  0  0
   10.4247    1.4603    0.0013 H   0  0  0  0  0  0  0  0  0  0  0  0
   12.9333   -0.9857    0.3291 H   0  0  0  0  0  0  0  0  0  0  0  0
   13.7807   -0.0467    1.5598 H   0  0  0  0  0  0  0  0  0  0  0  0
   12.8216    0.7753    0.3163 H   0  0  0  0  0  0  0  0  0  0  0  0
  1  3  1  0  0  0  0
  1  4  1  0  0  0  0
  1  7  1  0  0  0  0
  2  1  1  0  0  0  0
  4 23  1  0  0  0  0
  4  5  1  0  0  0  0
  5  8  2  0  0  0  0
  5  6  1  0  0  0  0
  6 11  2  0  0  0  0
  7 25  1  0  0  0  0
  7  6  1  0  0  0  0
  7 24  1  0  0  0  0
  8  9  1  0  0  0  0
  9 27  1  0  0  0  0
  9 10  2  0  0  0  0
 10 28  1  0  0  0  0
 11 10  1  0  0  0  0
 11 29  1  0  0  0  0
 12 17  1  0  0  0  0
 13 12  2  0  0  0  0
 13 18  1  0  0  0  0
 14 13  1  0  0  0  0
 15 14  2  0  0  0  0
 15 16  1  0  0  0  0
 16 21  1  6  0  0  0
 16 12  1  0  0  0  0
 16  1  1  0  0  0  0
 17 31  1  0  0  0  0
 17 30  1  0  0  0  0
 18 33  1  0  0  0  0
 18 34  1  0  0  0  0
 19 14  1  0  0  0  0
 19 37  1  0  0  0  0
 20 41  1  0  0  0  0
 20 15  1  0  0  0  0
 21 43  1  0  0  0  0
 22  4  1  0  0  0  0
 26  8  1  0  0  0  0
 32 17  1  0  0  0  0
 35 18  1  0  0  0  0
 36 19  1  0  0  0  0
 38 19  1  0  0  0  0
 39 20  1  0  0  0  0
 40 20  1  0  0  0  0
 42 21  1  0  0  0  0
 44 21  1  0  0  0  0
M  END
$$$$
