CSD_code = HITFUN | q = -1 | S = 0 | Stoichiometry = C13H10ClN2O5Zn(1-) | MND = 5
 OpenBabel04212202043D

 32 35  0  0  1  0  0  0  0  0999 V2000
  -10.4497   -1.8454    3.0204 Zn  0  0  1  0  0  0  0  0  0  0  0  0
  -10.9110   -0.2636    1.1981 O   0  0  0  0  0  0  0  0  0  0  0  0
  -10.6105   -0.1063    3.8105 O   0  0  0  0  0  0  0  0  0  0  0  0
  -10.3669    2.0922    3.6689 O   0  0  0  0  0  0  0  0  0  0  0  0
  -10.7722   -3.3093    4.2993 O   0  0  0  0  0  0  0  0  0  0  0  0
  -12.0980   -4.7085    5.4092 O   0  0  0  0  0  0  0  0  0  0  0  0
  -12.1340   -2.3919    1.9699 N   0  0  0  0  0  0  0  0  0  0  0  0
  -13.0618   -3.0998    2.5955 N   0  0  1  0  0  0  0  0  0  0  0  0
  -13.7848   -3.8164    1.7242 C   0  0  0  0  0  3  0  0  0  0  0  0
  -14.5807   -4.4593    2.0436 H   0  0  0  0  0  0  0  0  0  0  0  0
  -13.3004   -3.5406    0.4627 C   0  0  0  0  0  0  0  0  0  0  0  0
  -13.6658   -3.9305   -0.4651 H   0  0  0  0  0  0  0  0  0  0  0  0
  -12.2509   -2.6276    0.6597 C   0  0  0  0  0  0  0  0  0  0  0  0
  -11.4159   -1.9718   -0.3357 C   0  0  0  0  0  0  0  0  0  0  0  0
  -11.2907   -2.5170   -1.6091 C   0  0  0  0  0  0  0  0  0  0  0  0
  -11.8032   -3.4400   -1.8349 H   0  0  0  0  0  0  0  0  0  0  0  0
  -10.5057   -1.9153   -2.5745 C   0  0  0  0  0  0  0  0  0  0  0  0
  -10.4154   -2.3608   -3.5544 H   0  0  0  0  0  0  0  0  0  0  0  0
   -9.8288   -0.7478   -2.2714 C   0  0  0  0  0  0  0  0  0  0  0  0
   -9.2061   -0.2718   -3.0155 H   0  0  0  0  0  0  0  0  0  0  0  0
   -9.9392   -0.1807   -1.0148 C   0  0  0  0  0  0  0  0  0  0  0  0
   -9.4009    0.7265   -0.7909 H   0  0  0  0  0  0  0  0  0  0  0  0
  -10.7223   -0.7796   -0.0342 C   0  0  0  0  0  0  0  0  0  0  0  0
  -10.1601    0.8438    1.6447 C   0  0  0  0  0  0  0  0  0  0  0  0
  -10.4726    1.7695    1.1471 H   0  0  0  0  0  0  0  0  0  0  0  0
   -9.0867    0.6773    1.4936 H   0  0  0  0  0  0  0  0  0  0  0  0
  -10.3999    0.9752    3.1872 C   0  0  0  0  0  0  0  0  0  0  0  0
  -13.1463   -3.0577    4.0166 C   0  0  0  0  0  0  0  0  0  0  0  0
  -14.0589   -3.5498    4.3531 H   0  0  0  0  0  0  0  0  0  0  0  0
  -13.1109   -2.0182    4.3522 H   0  0  0  0  0  0  0  0  0  0  0  0
  -11.8776   -3.7815    4.6570 C   0  0  0  0  0  0  0  0  0  0  0  0
   -8.5724   -2.1830    1.9816 Cl  0  0  0  0  0  0  0  0  0  0  0  0
  1 32  1  6  0  0  0
  1  3  1  0  0  0  0
  1  5  1  0  0  0  0
  2 24  1  0  0  0  0
  5 31  1  0  0  0  0
  7  8  1  0  0  0  0
  7  1  1  0  0  0  0
  8  9  1  1  0  0  0
  8 28  1  0  0  0  0
  9 10  1  0  0  0  0
 11 13  2  0  0  0  0
 11  9  1  0  0  0  0
 12 11  1  0  0  0  0
 13  7  1  0  0  0  0
 14 23  1  0  0  0  0
 14 13  1  0  0  0  0
 15 14  2  0  0  0  0
 16 15  1  0  0  0  0
 17 19  2  0  0  0  0
 17 15  1  0  0  0  0
 18 17  1  0  0  0  0
 19 21  1  0  0  0  0
 20 19  1  0  0  0  0
 21 22  1  0  0  0  0
 21 23  2  0  0  0  0
 23  2  1  0  0  0  0
 24 27  1  0  0  0  0
 25 24  1  0  0  0  0
 26 24  1  0  0  0  0
 27  4  2  0  0  0  0
 27  3  1  0  0  0  0
 28 30  1  0  0  0  0
 28 29  1  0  0  0  0
 28 31  1  0  0  0  0
 31  6  2  0  0  0  0
M  END
$$$$
