CSD_code = HITKIE | q = 0 | S = 0 | Stoichiometry = C13H21Cl2N2PPt | MND = 4
 OpenBabel04212202043D

 40 41  0  0  0  0  0  0  0  0999 V2000
    6.6855    2.1565    4.2051 Pt  0  0  0  0  0  0  0  0  0  0  0  0
    8.9039    2.2603    3.7375 Cl  0  0  0  0  0  0  0  0  0  0  0  0
    6.1270    1.7739    2.0478 Cl  0  0  0  0  0  0  0  0  0  0  0  0
    4.4314    2.0060    4.5266 P   0  0  0  0  0  4  0  0  0  0  0  0
    7.1743    2.5203    6.1560 N   0  0  0  0  0  0  0  0  0  0  0  0
    7.2069    1.8008    8.3849 N   0  0  0  0  0  0  0  0  0  0  0  0
    6.9343    1.6640    7.0800 C   0  0  0  0  0  3  0  0  0  0  0  0
    7.8378    3.0116    8.8661 C   0  0  0  0  0  0  0  0  0  0  0  0
    8.6933    3.5998    7.7500 C   0  0  0  0  0  0  0  0  0  0  0  0
    7.8372    3.7626    6.4986 C   0  0  0  0  0  0  0  0  0  0  0  0
    6.7817    0.8374    9.3627 C   0  0  0  0  0  0  0  0  0  0  0  0
    3.6442    0.4479    3.9907 C   0  0  0  0  0  0  0  0  0  0  0  0
    3.4193    3.2345    3.6275 C   0  0  0  0  0  0  0  0  0  0  0  0
    3.9084    2.2303    6.2582 C   0  0  0  0  0  0  0  0  0  0  0  0
    3.4517    1.1927    7.0618 C   0  0  0  0  0  0  0  0  0  0  0  0
    3.2005    1.4077    8.4064 C   0  0  0  0  0  0  0  0  0  0  0  0
    3.4111    2.6566    8.9650 C   0  0  0  0  0  0  0  0  0  0  0  0
    3.8740    3.6961    8.1729 C   0  0  0  0  0  0  0  0  0  0  0  0
    4.1263    3.4806    6.8324 C   0  0  0  0  0  0  0  0  0  0  0  0
    6.4600    0.7302    6.7981 H   0  0  0  0  0  0  0  0  0  0  0  0
    3.2872    0.2125    6.6397 H   0  0  0  0  0  0  0  0  0  0  0  0
    2.8405    0.5955    9.0215 H   0  0  0  0  0  0  0  0  0  0  0  0
    3.2154    2.8209   10.0146 H   0  0  0  0  0  0  0  0  0  0  0  0
    4.0392    4.6726    8.6055 H   0  0  0  0  0  0  0  0  0  0  0  0
    4.5025    4.2830    6.2120 H   0  0  0  0  0  0  0  0  0  0  0  0
    8.4531    2.7629    9.7358 H   0  0  0  0  0  0  0  0  0  0  0  0
    7.0704    3.7300    9.1842 H   0  0  0  0  0  0  0  0  0  0  0  0
    9.1095    4.5585    8.0551 H   0  0  0  0  0  0  0  0  0  0  0  0
    9.5144    2.9172    7.5260 H   0  0  0  0  0  0  0  0  0  0  0  0
    7.0766    4.5378    6.6491 H   0  0  0  0  0  0  0  0  0  0  0  0
    8.4589    4.0469    5.6449 H   0  0  0  0  0  0  0  0  0  0  0  0
    7.6347    0.4949    9.9541 H   0  0  0  0  0  0  0  0  0  0  0  0
    6.0435    1.2797   10.0383 H   0  0  0  0  0  0  0  0  0  0  0  0
    6.3305   -0.0193    8.8679 H   0  0  0  0  0  0  0  0  0  0  0  0
    2.5758    0.4605    4.2057 H   0  0  0  0  0  0  0  0  0  0  0  0
    3.8118    0.3699    2.9170 H   0  0  0  0  0  0  0  0  0  0  0  0
    4.1185   -0.4050    4.4729 H   0  0  0  0  0  0  0  0  0  0  0  0
    2.3615    3.0849    3.8426 H   0  0  0  0  0  0  0  0  0  0  0  0
    3.7140    4.2445    3.9037 H   0  0  0  0  0  0  0  0  0  0  0  0
    3.6155    3.0916    2.5654 H   0  0  0  0  0  0  0  0  0  0  0  0
  1  4  1  0  0  0  0
  1  5  1  0  0  0  0
  2  1  1  0  0  0  0
  3  1  1  0  0  0  0
  4 14  1  0  0  0  0
  5 10  1  0  0  0  0
  5  7  1  0  0  0  0
  6  8  1  0  0  0  0
  6 11  1  0  0  0  0
  7  6  1  0  0  0  0
  8 27  1  0  0  0  0
  8 26  1  0  0  0  0
  9 28  1  0  0  0  0
  9  8  1  0  0  0  0
 10 30  1  0  0  0  0
 10  9  1  0  0  0  0
 11 32  1  0  0  0  0
 11 33  1  0  0  0  0
 12 35  1  0  0  0  0
 12 37  1  0  0  0  0
 12  4  1  0  0  0  0
 13 38  1  0  0  0  0
 13 39  1  0  0  0  0
 13  4  1  0  0  0  0
 14 19  2  0  0  0  0
 14 15  1  0  0  0  0
 15 16  2  0  0  0  0
 16 17  1  0  0  0  0
 16 22  1  0  0  0  0
 17 23  1  0  0  0  0
 18 24  1  0  0  0  0
 18 17  2  0  0  0  0
 19 18  1  0  0  0  0
 20  7  1  0  0  0  0
 21 15  1  0  0  0  0
 25 19  1  0  0  0  0
 29  9  1  0  0  0  0
 31 10  1  0  0  0  0
 34 11  1  0  0  0  0
 36 12  1  0  0  0  0
 40 13  1  0  0  0  0
M  END
$$$$
