CSD_code = HIVFEY | q = 0 | S = 0 | Stoichiometry = C9H27Cl2NiP3 | MND = 5
 OpenBabel04212202043D

 42 41  0  0  0  0  0  0  0  0999 V2000
    9.3862   -0.0471   27.7518 Ni  0  0  0  0  0  0  0  0  0  0  0  0
    8.4499    0.6337   29.9270 P   0  0  0  0  0  4  0  0  0  0  0  0
    8.1632   -1.7289   27.1900 Cl  0  0  0  0  0  0  0  0  0  0  0  0
    8.2621    1.1294   26.3255 P   0  0  0  0  0  4  0  0  0  0  0  0
   10.9681    1.4065   27.5253 Cl  0  0  0  0  0  0  0  0  0  0  0  0
   10.9294   -1.4663   28.2878 P   0  0  0  0  0  4  0  0  0  0  0  0
    6.6940    1.1749   30.0229 C   0  0  0  0  0  0  0  0  0  0  0  0
    6.0582    0.3604   29.6805 H   0  0  0  0  0  0  0  0  0  0  0  0
    6.5445    2.0331   29.3700 H   0  0  0  0  0  0  0  0  0  0  0  0
    6.4263    1.4441   31.0436 H   0  0  0  0  0  0  0  0  0  0  0  0
   10.5084   -3.0904   29.0234 C   0  0  0  0  0  0  0  0  0  0  0  0
   11.4059   -3.7037   29.0942 H   0  0  0  0  0  0  0  0  0  0  0  0
    9.7678   -3.5850   28.3996 H   0  0  0  0  0  0  0  0  0  0  0  0
   10.0863   -2.9450   30.0156 H   0  0  0  0  0  0  0  0  0  0  0  0
   12.3172   -0.9558   29.3705 C   0  0  0  0  0  0  0  0  0  0  0  0
   13.0580   -1.7529   29.4186 H   0  0  0  0  0  0  0  0  0  0  0  0
   11.9408   -0.7483   30.3708 H   0  0  0  0  0  0  0  0  0  0  0  0
   12.7703   -0.0510   28.9725 H   0  0  0  0  0  0  0  0  0  0  0  0
    8.2963    2.9600   26.4069 C   0  0  0  0  0  0  0  0  0  0  0  0
    9.3288    3.3003   26.4289 H   0  0  0  0  0  0  0  0  0  0  0  0
    7.7985    3.2932   27.3161 H   0  0  0  0  0  0  0  0  0  0  0  0
    7.7857    3.3758   25.5393 H   0  0  0  0  0  0  0  0  0  0  0  0
    6.4733    0.8379   26.0590 C   0  0  0  0  0  0  0  0  0  0  0  0
    6.1284    1.4292   25.2117 H   0  0  0  0  0  0  0  0  0  0  0  0
    5.9192    1.1212   26.9515 H   0  0  0  0  0  0  0  0  0  0  0  0
    6.3071   -0.2194   25.8672 H   0  0  0  0  0  0  0  0  0  0  0  0
   11.8098   -1.9738   26.7678 C   0  0  0  0  0  0  0  0  0  0  0  0
   12.2449   -1.0919   26.2993 H   0  0  0  0  0  0  0  0  0  0  0  0
   11.0954   -2.4294   26.0827 H   0  0  0  0  0  0  0  0  0  0  0  0
   12.5943   -2.6890   27.0147 H   0  0  0  0  0  0  0  0  0  0  0  0
    8.4584   -0.5641   31.3237 C   0  0  0  0  0  0  0  0  0  0  0  0
    8.0143   -0.1237   32.2152 H   0  0  0  0  0  0  0  0  0  0  0  0
    9.4835   -0.8617   31.5378 H   0  0  0  0  0  0  0  0  0  0  0  0
    7.8925   -1.4465   31.0304 H   0  0  0  0  0  0  0  0  0  0  0  0
    8.9341    0.8189   24.6536 C   0  0  0  0  0  0  0  0  0  0  0  0
    8.8396   -0.2428   24.4277 H   0  0  0  0  0  0  0  0  0  0  0  0
    9.9871    1.0973   24.6380 H   0  0  0  0  0  0  0  0  0  0  0  0
    8.3837    1.4048   23.9178 H   0  0  0  0  0  0  0  0  0  0  0  0
    9.2735    2.0670   30.7256 C   0  0  0  0  0  0  0  0  0  0  0  0
    8.8059    2.3073   31.6792 H   0  0  0  0  0  0  0  0  0  0  0  0
    9.2167    2.9236   30.0568 H   0  0  0  0  0  0  0  0  0  0  0  0
   10.3252    1.8307   30.8757 H   0  0  0  0  0  0  0  0  0  0  0  0
  1  6  1  0  0  0  0
  1  2  1  0  0  0  0
  2  7  1  0  0  0  0
  2 39  1  0  0  0  0
  2 31  1  0  0  0  0
  3  1  1  0  0  0  0
  4 19  1  0  0  0  0
  4  1  1  0  0  0  0
  5  1  1  0  0  0  0
  6 11  1  0  0  0  0
  6 15  1  0  0  0  0
  7 10  1  0  0  0  0
  8  7  1  0  0  0  0
  9  7  1  0  0  0  0
 11 12  1  0  0  0  0
 11 14  1  0  0  0  0
 13 11  1  0  0  0  0
 15 16  1  0  0  0  0
 15 17  1  0  0  0  0
 18 15  1  0  0  0  0
 19 20  1  0  0  0  0
 19 21  1  0  0  0  0
 22 19  1  0  0  0  0
 23  4  1  0  0  0  0
 23 25  1  0  0  0  0
 24 23  1  0  0  0  0
 26 23  1  0  0  0  0
 27 30  1  0  0  0  0
 27  6  1  0  0  0  0
 28 27  1  0  0  0  0
 29 27  1  0  0  0  0
 31 33  1  0  0  0  0
 31 32  1  0  0  0  0
 34 31  1  0  0  0  0
 35  4  1  0  0  0  0
 36 35  1  0  0  0  0
 37 35  1  0  0  0  0
 38 35  1  0  0  0  0
 39 42  1  0  0  0  0
 39 40  1  0  0  0  0
 41 39  1  0  0  0  0
M  END
$$$$
