CSD_code = HIVPEI | q = 0 | S = 0 | Stoichiometry = C17H16Cl3N3ORuS | MND = 6
 OpenBabel04212202043D

 42 46  0  0  1  0  0  0  0  0999 V2000
    1.4452    3.5617    5.9992 Ru  0  0  0  0  0  0  0  0  0  0  0  0
    4.2294    3.1852    7.1487 C   0  0  0  0  0  3  0  0  0  0  0  0
    4.0260    2.1281    7.0640 H   0  0  0  0  0  0  0  0  0  0  0  0
    5.4403    3.6207    7.6477 C   0  0  0  0  0  0  0  0  0  0  0  0
    6.1847    2.9047    7.9567 H   0  0  0  0  0  0  0  0  0  0  0  0
    5.6754    4.9873    7.7420 C   0  0  0  0  0  0  0  0  0  0  0  0
    6.6088    5.3648    8.1285 H   0  0  0  0  0  0  0  0  0  0  0  0
    4.6814    5.8483    7.3247 C   0  0  0  0  0  0  0  0  0  0  0  0
    4.8244    6.9149    7.3774 H   0  0  0  0  0  0  0  0  0  0  0  0
    3.4818    5.3381    6.8295 C   0  0  0  0  0  0  0  0  0  0  0  0
    2.3838    6.1694    6.3607 C   0  0  1  0  0  3  0  0  0  0  0  0
    2.3337    7.5595    6.3369 C   0  0  0  0  0  0  0  0  0  0  0  0
    3.1576    8.1571    6.6876 H   0  0  0  0  0  0  0  0  0  0  0  0
    1.1858    8.1695    5.8486 C   0  0  0  0  0  0  0  0  0  0  0  0
    0.1162    7.4055    5.3969 C   0  0  0  0  0  0  0  0  0  0  0  0
   -0.7719    7.8853    5.0229 H   0  0  0  0  0  0  0  0  0  0  0  0
    0.2261    6.0205    5.4456 C   0  0  0  0  0  0  0  0  0  0  0  0
   -0.7732    5.0451    5.0275 C   0  0  1  0  0  3  0  0  0  0  0  0
   -2.0080    5.3940    4.4832 C   0  0  0  0  0  0  0  0  0  0  0  0
   -2.2625    6.4335    4.3563 H   0  0  0  0  0  0  0  0  0  0  0  0
   -2.8943    4.4031    4.1092 C   0  0  0  0  0  0  0  0  0  0  0  0
   -3.8542    4.6551    3.6856 H   0  0  0  0  0  0  0  0  0  0  0  0
   -2.5165    3.0809    4.2925 C   0  0  0  0  0  0  0  0  0  0  0  0
   -3.1700    2.2692    4.0175 H   0  0  0  0  0  0  0  0  0  0  0  0
   -1.2755    2.8038    4.8397 C   0  0  0  0  0  0  0  0  0  0  0  0
   -0.9563    1.7808    4.9975 H   0  0  0  0  0  0  0  0  0  0  0  0
    1.8649    0.4701    7.7740 C   0  0  0  0  0  0  0  0  0  0  0  0
    1.1977    0.9807    8.4627 H   0  0  0  0  0  0  0  0  0  0  0  0
    2.8933    0.6102    8.0820 H   0  0  0  0  0  0  0  0  0  0  0  0
    1.6103   -0.5814    7.7080 H   0  0  0  0  0  0  0  0  0  0  0  0
    2.8977    0.3678    5.2050 C   0  0  0  0  0  0  0  0  0  0  0  0
    2.6276   -0.6793    5.1298 H   0  0  0  0  0  0  0  0  0  0  0  0
    3.8541    0.4947    5.6961 H   0  0  0  0  0  0  0  0  0  0  0  0
    2.9217    0.8268    4.2206 H   0  0  0  0  0  0  0  0  0  0  0  0
    1.0854    9.8871    5.8042 Cl  0  0  0  0  0  0  0  0  0  0  0  0
    2.3583    3.3859    3.8410 Cl  0  0  0  0  0  0  0  0  0  0  0  0
    0.5365    3.5224    8.1663 Cl  0  0  0  0  0  0  0  0  0  0  0  0
    3.2569    3.9988    6.7463 N   0  0  0  0  0  0  0  0  0  0  0  0
    1.3429    5.4383    5.9187 N   0  0  0  0  0  0  0  0  0  0  0  0
   -0.4156    3.7480    5.2029 N   0  0  0  0  0  0  0  0  0  0  0  0
    0.3542    0.5210    5.6704 O   0  0  0  0  0  1  0  0  0  0  0  0
    1.5591    1.2008    6.1282 S   0  0  0  0  0  0  0  0  0  0  0  0
  1 42  1  0  0  0  0
  1 38  1  0  0  0  0
  1 37  1  0  0  0  0
  2  4  1  0  0  0  0
  3  2  1  0  0  0  0
  4  6  2  0  0  0  0
  4  5  1  0  0  0  0
  6  7  1  0  0  0  0
  8  9  1  0  0  0  0
  8  6  1  0  0  0  0
 10  8  2  0  0  0  0
 11 12  1  6  0  0  0
 11 10  1  0  0  0  0
 12 13  1  0  0  0  0
 14 12  2  0  0  0  0
 15 17  2  0  0  0  0
 15 14  1  0  0  0  0
 16 15  1  0  0  0  0
 17 39  1  0  0  0  0
 18 19  1  6  0  0  0
 18 40  1  0  0  0  0
 18 17  1  0  0  0  0
 20 19  1  0  0  0  0
 21 23  1  0  0  0  0
 21 19  2  0  0  0  0
 22 21  1  0  0  0  0
 23 25  2  0  0  0  0
 24 23  1  0  0  0  0
 25 26  1  0  0  0  0
 25 40  1  0  0  0  0
 27 29  1  0  0  0  0
 27 28  1  0  0  0  0
 30 27  1  0  0  0  0
 31 33  1  0  0  0  0
 31 42  1  0  0  0  0
 32 31  1  0  0  0  0
 34 31  1  0  0  0  0
 35 14  1  0  0  0  0
 36  1  1  0  0  0  0
 38 10  1  0  0  0  0
 38  2  1  0  0  0  0
 39  1  1  0  0  0  0
 39 11  1  0  0  0  0
 40  1  1  0  0  0  0
 41 42  1  0  0  0  0
 42 27  1  0  0  0  0
M  END
$$$$
