CSD_code = HIVPOS | q = 0 | S = 0 | Stoichiometry = C15H10Cl3N3Zn | MND = 5
 OpenBabel04212202043D

 32 36  0  0  1  0  0  0  0  0999 V2000
    5.5249    1.8608    8.4102 Zn  0  0  0  0  0  0  0  0  0  0  0  0
    6.9207    1.8608    5.6127 C   0  0  0  0  0  3  0  0  0  0  0  0
    7.7857    1.8608    6.2611 H   0  0  0  0  0  0  0  0  0  0  0  0
    7.0467    1.8608    4.2298 C   0  0  0  0  0  0  0  0  0  0  0  0
    8.0218    1.8608    3.7702 H   0  0  0  0  0  0  0  0  0  0  0  0
    5.8918    1.8608    3.4659 C   0  0  0  0  0  0  0  0  0  0  0  0
    5.9430    1.8608    2.3871 H   0  0  0  0  0  0  0  0  0  0  0  0
    4.6618    1.8608    4.1044 C   0  0  0  0  0  0  0  0  0  0  0  0
    3.7549    1.8608    3.5222 H   0  0  0  0  0  0  0  0  0  0  0  0
    4.6266    1.8608    5.4971 C   0  0  0  0  0  0  0  0  0  0  0  0
    3.3781    1.8608    6.2797 C   0  0  2  0  0  3  0  0  0  0  0  0
    2.1050    1.8608    5.7105 C   0  0  0  0  0  0  0  0  0  0  0  0
    1.9544    1.8608    4.6446 H   0  0  0  0  0  0  0  0  0  0  0  0
    1.0103    1.8608    6.5631 C   0  0  0  0  0  0  0  0  0  0  0  0
    1.1932    1.8608    7.9385 C   0  0  0  0  0  0  0  0  0  0  0  0
    0.3386    1.8608    8.5932 H   0  0  0  0  0  0  0  0  0  0  0  0
    2.5002    1.8608    8.4250 C   0  0  0  0  0  0  0  0  0  0  0  0
    2.8421    1.8608    9.8583 C   0  0  2  0  0  3  0  0  0  0  0  0
    1.8910    1.8608   10.8763 C   0  0  0  0  0  0  0  0  0  0  0  0
    0.8360    1.8608   10.6557 H   0  0  0  0  0  0  0  0  0  0  0  0
    2.3207    1.8608   12.1939 C   0  0  0  0  0  0  0  0  0  0  0  0
    1.6010    1.8608   12.9991 H   0  0  0  0  0  0  0  0  0  0  0  0
    3.6798    1.8608   12.4584 C   0  0  0  0  0  0  0  0  0  0  0  0
    4.0530    1.8608   13.4698 H   0  0  0  0  0  0  0  0  0  0  0  0
    4.5594    1.8608   11.3838 C   0  0  0  0  0  0  0  0  0  0  0  0
    5.6308    1.8609   11.5277 H   0  0  0  0  0  0  0  0  0  0  0  0
   -0.5804    1.8608    5.9118 Cl  0  0  0  0  0  0  0  0  0  0  0  0
    6.3787   -0.1579    8.7603 Cl  0  0  0  0  0  0  0  0  0  0  0  0
    5.7495    1.8608    6.2169 N   0  0  0  0  0  0  0  0  0  0  0  0
    3.5350    1.8608    7.5962 N   0  0  0  0  0  0  0  0  0  0  0  0
    4.1474    1.8608   10.1320 N   0  0  0  0  0  0  0  0  0  0  0  0
    6.3790    3.8793    8.7604 Cl  0  0  0  0  0  0  0  0  0  0  0  0
  1 28  1  0  0  0  0
  1 32  1  0  0  0  0
  1 31  1  0  0  0  0
  2 29  1  0  0  0  0
  2  3  1  0  0  0  0
  4  2  1  0  0  0  0
  5  4  1  0  0  0  0
  6  8  1  0  0  0  0
  6  4  2  0  0  0  0
  7  6  1  0  0  0  0
  8 10  2  0  0  0  0
  9  8  1  0  0  0  0
 10 29  1  0  0  0  0
 11 10  1  6  0  0  0
 11 30  1  0  0  0  0
 12 11  1  0  0  0  0
 12 14  2  0  0  0  0
 13 12  1  0  0  0  0
 14 15  1  0  0  0  0
 15 17  2  0  0  0  0
 15 16  1  0  0  0  0
 18 17  1  6  0  0  0
 18 31  1  0  0  0  0
 18 19  1  0  0  0  0
 19 21  2  0  0  0  0
 20 19  1  0  0  0  0
 21 23  1  0  0  0  0
 21 22  1  0  0  0  0
 23 24  1  0  0  0  0
 25 26  1  0  0  0  0
 25 23  2  0  0  0  0
 27 14  1  0  0  0  0
 29  1  1  0  0  0  0
 30  1  1  0  0  0  0
 30 17  1  0  0  0  0
 31 25  1  0  0  0  0
M  END
$$$$
