CSD_code = HIWCOH | q = 0 | S = 0 | Stoichiometry = C13H20I2N2OZn | MND = 4
 OpenBabel04212202043D

 39 40  0  0  0  0  0  0  0  0999 V2000
    3.3706    2.0102    1.1451 Zn  0  0  0  0  0  0  0  0  0  0  0  0
    2.7134    1.5603   -1.2527 I   0  0  0  0  0  0  0  0  0  0  0  0
    4.4357    0.8133    3.0902 I   0  0  0  0  0  0  0  0  0  0  0  0
    3.8731    4.0930    1.1709 N   0  0  0  0  0  0  0  0  0  0  0  0
    1.4840    2.8790    2.1154 N   0  0  0  0  0  4  0  0  0  0  0  0
    1.6313    2.8195    3.1260 H   0  0  0  0  0  0  0  0  0  0  0  0
    4.8681    5.2731   -2.3667 O   0  0  0  0  0  0  0  0  0  0  0  0
    5.4940    3.9168   -0.5561 C   0  0  0  0  0  0  0  0  0  0  0  0
    5.6204    4.2385   -1.9244 C   0  0  0  0  0  0  0  0  0  0  0  0
    6.4585    3.4668   -2.7223 C   0  0  0  0  0  0  0  0  0  0  0  0
    6.5549    3.6764   -3.7752 H   0  0  0  0  0  0  0  0  0  0  0  0
    7.1717    2.4146   -2.1765 C   0  0  0  0  0  0  0  0  0  0  0  0
    7.8119    1.8256   -2.8154 H   0  0  0  0  0  0  0  0  0  0  0  0
    7.0767    2.1148   -0.8268 C   0  0  0  0  0  0  0  0  0  0  0  0
    7.6491    1.3040   -0.4044 H   0  0  0  0  0  0  0  0  0  0  0  0
    6.2355    2.8599   -0.0261 C   0  0  0  0  0  0  0  0  0  0  0  0
    6.1900    2.6700    1.0365 H   0  0  0  0  0  0  0  0  0  0  0  0
    4.8421    5.5517   -3.7492 C   0  0  0  0  0  0  0  0  0  0  0  0
    5.8262    5.8599   -4.1149 H   0  0  0  0  0  0  0  0  0  0  0  0
    4.1399    6.3752   -3.8673 H   0  0  0  0  0  0  0  0  0  0  0  0
    4.4875    4.6881   -4.3182 H   0  0  0  0  0  0  0  0  0  0  0  0
    4.5537    4.6547    0.2555 C   0  0  0  0  0  3  0  0  0  0  0  0
    4.4193    5.7142    0.0229 H   0  0  0  0  0  0  0  0  0  0  0  0
    2.9309    4.8552    1.9405 C   0  0  0  0  0  0  0  0  0  0  0  0
    2.9436    5.9177    1.6641 H   0  0  0  0  0  0  0  0  0  0  0  0
    3.2087    4.7587    2.9963 H   0  0  0  0  0  0  0  0  0  0  0  0
    1.5213    4.2906    1.7398 C   0  0  0  0  0  0  0  0  0  0  0  0
    0.8198    4.9015    2.3221 H   0  0  0  0  0  0  0  0  0  0  0  0
    1.2517    4.3676    0.6814 H   0  0  0  0  0  0  0  0  0  0  0  0
    0.2042    2.2068    1.8278 C   0  0  0  0  0  0  0  0  0  0  0  0
    0.0141    2.3212    0.7537 H   0  0  0  0  0  0  0  0  0  0  0  0
    0.3462    0.7230    2.1540 C   0  0  0  0  0  0  0  0  0  0  0  0
    1.1442    0.2676    1.5690 H   0  0  0  0  0  0  0  0  0  0  0  0
   -0.5764    0.2001    1.9189 H   0  0  0  0  0  0  0  0  0  0  0  0
    0.5659    0.5807    3.2108 H   0  0  0  0  0  0  0  0  0  0  0  0
   -0.9653    2.8043    2.6120 C   0  0  0  0  0  0  0  0  0  0  0  0
   -0.7605    2.7755    3.6816 H   0  0  0  0  0  0  0  0  0  0  0  0
   -1.8644    2.2252    2.4221 H   0  0  0  0  0  0  0  0  0  0  0  0
   -1.1636    3.8325    2.3187 H   0  0  0  0  0  0  0  0  0  0  0  0
  1  4  1  0  0  0  0
  1  5  1  0  0  0  0
  1  3  1  0  0  0  0
  2  1  1  0  0  0  0
  4 24  1  0  0  0  0
  5  6  1  0  0  0  0
  7  9  1  0  0  0  0
  8 16  1  0  0  0  0
  8 22  1  0  0  0  0
  9  8  2  0  0  0  0
 10 12  2  0  0  0  0
 10  9  1  0  0  0  0
 11 10  1  0  0  0  0
 12 14  1  0  0  0  0
 13 12  1  0  0  0  0
 14 15  1  0  0  0  0
 14 16  2  0  0  0  0
 16 17  1  0  0  0  0
 18  7  1  0  0  0  0
 19 18  1  0  0  0  0
 20 18  1  0  0  0  0
 21 18  1  0  0  0  0
 22  4  1  0  0  0  0
 23 22  1  0  0  0  0
 24 26  1  0  0  0  0
 25 24  1  0  0  0  0
 27 24  1  0  0  0  0
 27  5  1  0  0  0  0
 27 28  1  0  0  0  0
 29 27  1  0  0  0  0
 30  5  1  0  0  0  0
 30 32  1  0  0  0  0
 30 36  1  0  0  0  0
 31 30  1  0  0  0  0
 32 35  1  0  0  0  0
 33 32  1  0  0  0  0
 34 32  1  0  0  0  0
 36 37  1  0  0  0  0
 38 36  1  0  0  0  0
 39 36  1  0  0  0  0
M  END
$$$$
