CSD_code = HIWHED | q = 0 | S = 0 | Stoichiometry = C20H24Cl2N2Pd | MND = 4
 OpenBabel04212202043D

 49 51  0  0  0  0  0  0  0  0999 V2000
    8.4799    8.4805    6.2334 Pd  0  0  0  0  0  0  0  0  0  0  0  0
    9.6121    9.5479    7.8228 Cl  0  0  0  0  0  0  0  0  0  0  0  0
    9.0647    5.1316    5.3846 C   0  0  0  0  0  0  0  0  0  0  0  0
    9.5590    5.3229    4.4300 H   0  0  0  0  0  0  0  0  0  0  0  0
    9.4065    4.1741    5.7672 H   0  0  0  0  0  0  0  0  0  0  0  0
    9.3692    5.9229    6.0954 H   0  0  0  0  0  0  0  0  0  0  0  0
    7.6947    7.4925    4.7440 N   0  0  0  0  0  0  0  0  0  0  0  0
    4.8829    7.7546    4.6805 C   0  0  0  0  0  0  0  0  0  0  0  0
    5.3220    8.4728    5.3825 H   0  0  0  0  0  0  0  0  0  0  0  0
    3.8134    7.6956    4.8610 H   0  0  0  0  0  0  0  0  0  0  0  0
    5.0454    8.1284    3.6688 H   0  0  0  0  0  0  0  0  0  0  0  0
    7.5723    5.1384    5.2336 C   0  0  0  0  0  0  0  0  0  0  0  0
    5.5288    6.4169    4.8794 C   0  0  0  0  0  0  0  0  0  0  0  0
    6.9217    6.3360    4.9210 C   0  0  0  0  0  0  0  0  0  0  0  0
    6.8021    4.0063    5.4361 C   0  0  0  0  0  0  0  0  0  0  0  0
    7.2924    3.0751    5.6802 H   0  0  0  0  0  0  0  0  0  0  0  0
    4.7960    5.2616    5.0913 C   0  0  0  0  0  0  0  0  0  0  0  0
    3.7170    5.3131    5.0681 H   0  0  0  0  0  0  0  0  0  0  0  0
    5.4164    4.0479    5.3551 C   0  0  0  0  0  0  0  0  0  0  0  0
    4.6019    2.8163    5.6074 C   0  0  0  0  0  0  0  0  0  0  0  0
    4.3563    2.7495    6.6674 H   0  0  0  0  0  0  0  0  0  0  0  0
    5.1542    1.9210    5.3328 H   0  0  0  0  0  0  0  0  0  0  0  0
    3.6700    2.8445    5.0475 H   0  0  0  0  0  0  0  0  0  0  0  0
    8.0597    7.9113    3.5687 C   0  0  0  0  0  0  0  0  0  0  0  0
    7.7468    7.4121    2.6559 H   0  0  0  0  0  0  0  0  0  0  0  0
    7.8959   11.8289    5.3849 C   0  0  0  0  0  0  0  0  0  0  0  0
    7.4016   11.6375    4.4304 H   0  0  0  0  0  0  0  0  0  0  0  0
    7.5540   12.7865    5.7675 H   0  0  0  0  0  0  0  0  0  0  0  0
    7.5913   11.0377    6.0958 H   0  0  0  0  0  0  0  0  0  0  0  0
    9.2660    9.4681    4.7442 N   0  0  0  0  0  0  0  0  0  0  0  0
   12.0780    9.2064    4.6801 C   0  0  0  0  0  0  0  0  0  0  0  0
   11.6390    8.4880    5.3819 H   0  0  0  0  0  0  0  0  0  0  0  0
   13.1474    9.2655    4.8604 H   0  0  0  0  0  0  0  0  0  0  0  0
   11.9155    8.8327    3.6683 H   0  0  0  0  0  0  0  0  0  0  0  0
    9.3883   11.8222    5.2340 C   0  0  0  0  0  0  0  0  0  0  0  0
   11.4318   10.5440    4.8792 C   0  0  0  0  0  0  0  0  0  0  0  0
   10.0390   10.6246    4.9212 C   0  0  0  0  0  0  0  0  0  0  0  0
   10.1584   12.9543    5.4364 C   0  0  0  0  0  0  0  0  0  0  0  0
    9.6680   13.8855    5.6806 H   0  0  0  0  0  0  0  0  0  0  0  0
   12.1646   11.6993    5.0911 C   0  0  0  0  0  0  0  0  0  0  0  0
   13.2435   11.6479    5.0676 H   0  0  0  0  0  0  0  0  0  0  0  0
   11.5440   12.9130    5.3551 C   0  0  0  0  0  0  0  0  0  0  0  0
   12.3585   14.1445    5.6074 C   0  0  0  0  0  0  0  0  0  0  0  0
   12.6043   14.2112    6.6674 H   0  0  0  0  0  0  0  0  0  0  0  0
   11.8060   15.0399    5.3331 H   0  0  0  0  0  0  0  0  0  0  0  0
   13.2903   14.1165    5.0474 H   0  0  0  0  0  0  0  0  0  0  0  0
    8.9023    9.0485    3.5688 C   0  0  0  0  0  0  0  0  0  0  0  0
    9.2162    9.5470    2.6559 H   0  0  0  0  0  0  0  0  0  0  0  0
    7.3477    7.4134    7.8234 Cl  0  0  0  0  0  0  0  0  0  0  0  0
  1  2  1  0  0  0  0
  1 49  1  0  0  0  0
  3  5  1  0  0  0  0
  3  6  1  0  0  0  0
  4  3  1  0  0  0  0
  7 14  1  0  0  0  0
  7  1  1  0  0  0  0
  8 10  1  0  0  0  0
  8 13  1  0  0  0  0
  8  9  1  0  0  0  0
 11  8  1  0  0  0  0
 12  3  1  0  0  0  0
 12 15  1  0  0  0  0
 13 14  1  0  0  0  0
 13 17  2  0  0  0  0
 14 12  2  0  0  0  0
 15 16  1  0  0  0  0
 17 19  1  0  0  0  0
 18 17  1  0  0  0  0
 19 15  2  0  0  0  0
 19 20  1  0  0  0  0
 20 21  1  0  0  0  0
 22 20  1  0  0  0  0
 23 20  1  0  0  0  0
 24 47  2  0  0  0  0
 24  7  1  0  0  0  0
 25 24  1  0  0  0  0
 26 28  1  0  0  0  0
 26 29  1  0  0  0  0
 27 26  1  0  0  0  0
 30 37  1  0  0  0  0
 30  1  1  0  0  0  0
 31 33  1  0  0  0  0
 31 36  1  0  0  0  0
 31 32  1  0  0  0  0
 34 31  1  0  0  0  0
 35 26  1  0  0  0  0
 35 38  1  0  0  0  0
 36 37  1  0  0  0  0
 36 40  2  0  0  0  0
 37 35  2  0  0  0  0
 38 39  1  0  0  0  0
 40 42  1  0  0  0  0
 41 40  1  0  0  0  0
 42 38  2  0  0  0  0
 42 43  1  0  0  0  0
 43 44  1  0  0  0  0
 45 43  1  0  0  0  0
 46 43  1  0  0  0  0
 47 30  1  0  0  0  0
 48 47  1  0  0  0  0
M  END
$$$$
