CSD_code = HIWHIH | q = 0 | S = 0 | Stoichiometry = C20H24Cl2N2Pt | MND = 4
 OpenBabel04212202043D

 49 51  0  0  0  0  0  0  0  0999 V2000
    8.4317    8.4324   11.0465 Pt  0  0  0  0  0  0  0  0  0  0  0  0
    7.5890    9.7523   12.6554 Cl  0  0  0  0  0  0  0  0  0  0  0  0
    7.7292    4.9209    9.7222 C   0  0  0  0  0  0  0  0  0  0  0  0
    7.3255    5.6173   10.4630 H   0  0  0  0  0  0  0  0  0  0  0  0
    7.3664    3.9221    9.9467 H   0  0  0  0  0  0  0  0  0  0  0  0
    7.3534    5.2169    8.7420 H   0  0  0  0  0  0  0  0  0  0  0  0
   11.9214    7.6336    9.7766 C   0  0  0  0  0  0  0  0  0  0  0  0
   12.9766    7.5526   10.0212 H   0  0  0  0  0  0  0  0  0  0  0  0
   11.4372    8.2795   10.5153 H   0  0  0  0  0  0  0  0  0  0  0  0
   11.8248    8.1083    8.7994 H   0  0  0  0  0  0  0  0  0  0  0  0
    9.2257    4.9635    9.7634 C   0  0  0  0  0  0  0  0  0  0  0  0
   11.9962    5.1179    9.9467 C   0  0  0  0  0  0  0  0  0  0  0  0
   13.0709    5.1794   10.0388 H   0  0  0  0  0  0  0  0  0  0  0  0
   11.3749    3.8786   10.0050 C   0  0  0  0  0  0  0  0  0  0  0  0
   11.2686    6.2858    9.7903 C   0  0  0  0  0  0  0  0  0  0  0  0
    9.8800    6.1944    9.6792 C   0  0  0  0  0  0  0  0  0  0  0  0
    9.9901    3.8203    9.9202 C   0  0  0  0  0  0  0  0  0  0  0  0
    9.4939    2.8633    9.9920 H   0  0  0  0  0  0  0  0  0  0  0  0
   12.1746    2.6274   10.2018 C   0  0  0  0  0  0  0  0  0  0  0  0
   13.2072    2.7718    9.8941 H   0  0  0  0  0  0  0  0  0  0  0  0
   11.7480    1.8016    9.6366 H   0  0  0  0  0  0  0  0  0  0  0  0
   12.1700    2.3499   11.2559 H   0  0  0  0  0  0  0  0  0  0  0  0
    9.1213    7.3704    9.5423 N   0  0  0  0  0  0  0  0  0  0  0  0
    8.8251    7.8466    8.3644 C   0  0  0  0  0  0  0  0  0  0  0  0
    9.1487    7.3560    7.4527 H   0  0  0  0  0  0  0  0  0  0  0  0
    9.1408   11.9542    9.7195 C   0  0  0  0  0  0  0  0  0  0  0  0
    9.5462   11.2590   10.4605 H   0  0  0  0  0  0  0  0  0  0  0  0
    9.5019   12.9538    9.9433 H   0  0  0  0  0  0  0  0  0  0  0  0
    9.5169   11.6585    8.7393 H   0  0  0  0  0  0  0  0  0  0  0  0
    4.9530    9.2349    9.7839 C   0  0  0  0  0  0  0  0  0  0  0  0
    3.8982    9.3142   10.0304 H   0  0  0  0  0  0  0  0  0  0  0  0
    5.4398    8.5904   10.5222 H   0  0  0  0  0  0  0  0  0  0  0  0
    5.0488    8.7596    8.8068 H   0  0  0  0  0  0  0  0  0  0  0  0
    7.6443   11.9092    9.7615 C   0  0  0  0  0  0  0  0  0  0  0  0
    4.8744   11.7508    9.9501 C   0  0  0  0  0  0  0  0  0  0  0  0
    3.8000   11.6878   10.0439 H   0  0  0  0  0  0  0  0  0  0  0  0
    5.4938   12.9912   10.0045 C   0  0  0  0  0  0  0  0  0  0  0  0
    5.6037   10.5837    9.7951 C   0  0  0  0  0  0  0  0  0  0  0  0
    6.9918   10.6771    9.6808 C   0  0  0  0  0  0  0  0  0  0  0  0
    6.8784   13.0514    9.9178 C   0  0  0  0  0  0  0  0  0  0  0  0
    7.3733   14.0093    9.9871 H   0  0  0  0  0  0  0  0  0  0  0  0
    4.6924   14.2416   10.1994 C   0  0  0  0  0  0  0  0  0  0  0  0
    3.6603   14.0956    9.8908 H   0  0  0  0  0  0  0  0  0  0  0  0
    5.1185   15.0673    9.6337 H   0  0  0  0  0  0  0  0  0  0  0  0
    4.6956   14.5203   11.2532 H   0  0  0  0  0  0  0  0  0  0  0  0
    7.7516    9.5018    9.5433 N   0  0  0  0  0  0  0  0  0  0  0  0
    8.0603    9.0348    8.3650 C   0  0  0  0  0  0  0  0  0  0  0  0
    7.7452    9.5318    7.4538 H   0  0  0  0  0  0  0  0  0  0  0  0
    9.2694    7.1079   12.6542 Cl  0  0  0  0  0  0  0  0  0  0  0  0
  1 49  1  0  0  0  0
  1  2  1  0  0  0  0
  3 11  1  0  0  0  0
  3  5  1  0  0  0  0
  3  4  1  0  0  0  0
  6  3  1  0  0  0  0
  7 15  1  0  0  0  0
  7  8  1  0  0  0  0
  7  9  1  0  0  0  0
 10  7  1  0  0  0  0
 11 17  1  0  0  0  0
 12 14  1  0  0  0  0
 12 13  1  0  0  0  0
 14 19  1  0  0  0  0
 15 12  2  0  0  0  0
 16 11  2  0  0  0  0
 16 15  1  0  0  0  0
 17 18  1  0  0  0  0
 17 14  2  0  0  0  0
 19 22  1  0  0  0  0
 20 19  1  0  0  0  0
 21 19  1  0  0  0  0
 23 16  1  0  0  0  0
 23  1  1  0  0  0  0
 24 47  2  0  0  0  0
 24 23  1  0  0  0  0
 25 24  1  0  0  0  0
 26 34  1  0  0  0  0
 26 28  1  0  0  0  0
 26 27  1  0  0  0  0
 29 26  1  0  0  0  0
 30 38  1  0  0  0  0
 30 31  1  0  0  0  0
 30 32  1  0  0  0  0
 33 30  1  0  0  0  0
 34 40  1  0  0  0  0
 35 37  1  0  0  0  0
 35 36  1  0  0  0  0
 37 42  1  0  0  0  0
 38 35  2  0  0  0  0
 39 34  2  0  0  0  0
 39 38  1  0  0  0  0
 40 41  1  0  0  0  0
 40 37  2  0  0  0  0
 42 45  1  0  0  0  0
 43 42  1  0  0  0  0
 44 42  1  0  0  0  0
 46 39  1  0  0  0  0
 46  1  1  0  0  0  0
 47 46  1  0  0  0  0
 48 47  1  0  0  0  0
M  END
$$$$
