CSD_code = HIWLUX | q = 0 | S = 0 | Stoichiometry = C20H24I2N2Pt | MND = 4
 OpenBabel04212202043D

 49 51  0  0  0  0  0  0  0  0999 V2000
    7.3055    4.7549    3.9498 Pt  0  0  0  0  0  0  0  0  0  0  0  0
    5.9157    6.6006    2.7663 I   0  0  0  0  0  0  0  0  0  0  0  0
    9.4633    6.1949    3.8616 I   0  0  0  0  0  0  0  0  0  0  0  0
    8.1551    3.2875    4.9995 N   0  0  0  0  0  0  0  0  0  0  0  0
    5.7385    3.5496    4.2122 N   0  0  0  0  0  0  0  0  0  0  0  0
   10.3615    2.6608    4.2697 C   0  0  0  0  0  0  0  0  0  0  0  0
    9.7870    2.3035    2.9337 C   0  0  0  0  0  0  0  0  0  0  0  0
    9.1818    1.3975    2.9998 H   0  0  0  0  0  0  0  0  0  0  0  0
   10.5775    2.1408    2.2068 H   0  0  0  0  0  0  0  0  0  0  0  0
    9.1420    3.1115    2.5673 H   0  0  0  0  0  0  0  0  0  0  0  0
    3.0896    3.4678    1.6810 C   0  0  0  0  0  0  0  0  0  0  0  0
    2.9717    3.2015    0.6410 H   0  0  0  0  0  0  0  0  0  0  0  0
    0.6783    4.1327    1.7074 C   0  0  0  0  0  0  0  0  0  0  0  0
    0.7252    4.9796    1.0235 H   0  0  0  0  0  0  0  0  0  0  0  0
   -0.1123    4.3192    2.4292 H   0  0  0  0  0  0  0  0  0  0  0  0
    0.4259    3.2483    1.1258 H   0  0  0  0  0  0  0  0  0  0  0  0
   11.3876    3.3565    6.7572 C   0  0  0  0  0  0  0  0  0  0  0  0
   11.7918    3.6496    7.7150 H   0  0  0  0  0  0  0  0  0  0  0  0
    4.3312    3.3270    2.2732 C   0  0  0  0  0  0  0  0  0  0  0  0
    9.5221    3.1373    5.2823 C   0  0  0  0  0  0  0  0  0  0  0  0
    9.1237    4.0857    7.5743 C   0  0  0  0  0  0  0  0  0  0  0  0
    9.7071    4.5297    8.3758 H   0  0  0  0  0  0  0  0  0  0  0  0
    8.4684    3.3281    8.0065 H   0  0  0  0  0  0  0  0  0  0  0  0
    8.4963    4.8637    7.1341 H   0  0  0  0  0  0  0  0  0  0  0  0
    4.4719    3.6785    3.6209 C   0  0  0  0  0  0  0  0  0  0  0  0
    5.9635    2.5848    5.0576 C   0  0  0  0  0  0  0  0  0  0  0  0
    5.1839    1.8851    5.3400 H   0  0  0  0  0  0  0  0  0  0  0  0
    1.9998    3.9604    2.3877 C   0  0  0  0  0  0  0  0  0  0  0  0
   13.7108    2.7563    6.0342 C   0  0  0  0  0  0  0  0  0  0  0  0
   14.2021    3.6863    5.7478 H   0  0  0  0  0  0  0  0  0  0  0  0
   14.1483    1.9507    5.4496 H   0  0  0  0  0  0  0  0  0  0  0  0
   13.9100    2.5807    7.0886 H   0  0  0  0  0  0  0  0  0  0  0  0
    2.1726    4.3186    3.7166 C   0  0  0  0  0  0  0  0  0  0  0  0
    1.3401    4.7275    4.2702 H   0  0  0  0  0  0  0  0  0  0  0  0
   10.0288    3.4981    6.5338 C   0  0  0  0  0  0  0  0  0  0  0  0
   11.7119    2.5272    4.5400 C   0  0  0  0  0  0  0  0  0  0  0  0
   12.3670    2.1620    3.7629 H   0  0  0  0  0  0  0  0  0  0  0  0
   12.2409    2.8683    5.7771 C   0  0  0  0  0  0  0  0  0  0  0  0
    3.3957    4.1857    4.3531 C   0  0  0  0  0  0  0  0  0  0  0  0
    7.2968    2.4425    5.4948 C   0  0  0  0  0  0  0  0  0  0  0  0
    7.6106    1.6297    6.1413 H   0  0  0  0  0  0  0  0  0  0  0  0
    3.5901    4.6366    5.7695 C   0  0  0  0  0  0  0  0  0  0  0  0
    3.7208    3.7893    6.4440 H   0  0  0  0  0  0  0  0  0  0  0  0
    2.7308    5.2103    6.1047 H   0  0  0  0  0  0  0  0  0  0  0  0
    4.4767    5.2693    5.8459 H   0  0  0  0  0  0  0  0  0  0  0  0
    5.5118    2.8064    1.5129 C   0  0  0  0  0  0  0  0  0  0  0  0
    5.7853    1.8066    1.8549 H   0  0  0  0  0  0  0  0  0  0  0  0
    6.3804    3.4609    1.6609 H   0  0  0  0  0  0  0  0  0  0  0  0
    5.2949    2.7625    0.4496 H   0  0  0  0  0  0  0  0  0  0  0  0
  1  5  1  0  0  0  0
  1  4  1  0  0  0  0
  2  1  1  0  0  0  0
  3  1  1  0  0  0  0
  4 20  1  0  0  0  0
  4 40  1  0  0  0  0
  5 26  1  0  0  0  0
  6 36  2  0  0  0  0
  6 20  1  0  0  0  0
  7  8  1  0  0  0  0
  7  6  1  0  0  0  0
  9  7  1  0  0  0  0
 10  7  1  0  0  0  0
 11 19  2  0  0  0  0
 11 28  1  0  0  0  0
 12 11  1  0  0  0  0
 13 28  1  0  0  0  0
 13 15  1  0  0  0  0
 14 13  1  0  0  0  0
 16 13  1  0  0  0  0
 17 18  1  0  0  0  0
 19 25  1  0  0  0  0
 20 35  2  0  0  0  0
 21 23  1  0  0  0  0
 21 22  1  0  0  0  0
 24 21  1  0  0  0  0
 25  5  1  0  0  0  0
 25 39  2  0  0  0  0
 26 27  1  0  0  0  0
 26 40  2  0  0  0  0
 28 33  2  0  0  0  0
 29 32  1  0  0  0  0
 30 29  1  0  0  0  0
 31 29  1  0  0  0  0
 33 34  1  0  0  0  0
 33 39  1  0  0  0  0
 35 17  1  0  0  0  0
 35 21  1  0  0  0  0
 36 38  1  0  0  0  0
 37 36  1  0  0  0  0
 38 29  1  0  0  0  0
 38 17  2  0  0  0  0
 39 42  1  0  0  0  0
 40 41  1  0  0  0  0
 42 45  1  0  0  0  0
 42 44  1  0  0  0  0
 42 43  1  0  0  0  0
 46 48  1  0  0  0  0
 46 47  1  0  0  0  0
 46 19  1  0  0  0  0
 49 46  1  0  0  0  0
M  END
$$$$
