CSD_code = HIXDEZ | q = 0 | S = 0 | Stoichiometry = C28H30Cl2N4P2Pd | MND = 4
 OpenBabel04212202043D

 67 72  0  0  0  0  0  0  0  0999 V2000
    5.8688   -0.3078    9.6774 C   0  0  0  0  0  0  0  0  0  0  0  0
    5.8469   -1.1249    8.5517 C   0  0  0  0  0  0  0  0  0  0  0  0
    6.7437   -1.2565    7.9641 H   0  0  0  0  0  0  0  0  0  0  0  0
    4.6418   -1.7054    8.1991 C   0  0  0  0  0  0  0  0  0  0  0  0
    4.5709   -2.3355    7.3250 H   0  0  0  0  0  0  0  0  0  0  0  0
    3.5229   -1.4500    8.9800 C   0  0  0  0  0  0  0  0  0  0  0  0
    2.5632   -1.8759    8.7321 H   0  0  0  0  0  0  0  0  0  0  0  0
    3.6581   -0.6203   10.0824 C   0  0  0  0  0  0  0  0  0  0  0  0
    2.8140   -0.3865   10.7184 H   0  0  0  0  0  0  0  0  0  0  0  0
    4.8037   -0.0569   10.4268 N   0  0  0  0  0  0  0  0  0  0  0  0
   11.5150    2.9952   10.5925 C   0  0  0  0  0  0  0  0  0  0  0  0
   12.3709    3.0236    9.4980 C   0  0  0  0  0  0  0  0  0  0  0  0
   12.0932    2.5174    8.5849 H   0  0  0  0  0  0  0  0  0  0  0  0
   13.5377    3.7607    9.6125 C   0  0  0  0  0  0  0  0  0  0  0  0
   14.2287    3.8241    8.7849 H   0  0  0  0  0  0  0  0  0  0  0  0
   13.7970    4.4234   10.8035 C   0  0  0  0  0  0  0  0  0  0  0  0
   14.6917    5.0131   10.9290 H   0  0  0  0  0  0  0  0  0  0  0  0
   12.8737    4.3228   11.8341 C   0  0  0  0  0  0  0  0  0  0  0  0
   13.0295    4.8240   12.7809 H   0  0  0  0  0  0  0  0  0  0  0  0
   11.7557    3.6251   11.7358 N   0  0  0  0  0  0  0  0  0  0  0  0
    9.7024   -1.1896   12.7918 C   0  0  0  0  0  0  0  0  0  0  0  0
   10.9779   -1.5904   13.1813 C   0  0  0  0  0  0  0  0  0  0  0  0
   11.8412   -1.3312   12.5878 H   0  0  0  0  0  0  0  0  0  0  0  0
   11.1602   -2.3501   14.3228 C   0  0  0  0  0  0  0  0  0  0  0  0
   12.1617   -2.6488   14.5975 H   0  0  0  0  0  0  0  0  0  0  0  0
   10.0873   -2.7459   15.1068 C   0  0  0  0  0  0  0  0  0  0  0  0
    8.8134   -2.3534   14.7107 C   0  0  0  0  0  0  0  0  0  0  0  0
    7.9585   -2.6467   15.3028 H   0  0  0  0  0  0  0  0  0  0  0  0
    8.6203   -1.5874   13.5803 C   0  0  0  0  0  0  0  0  0  0  0  0
    7.6165   -1.2923   13.3096 H   0  0  0  0  0  0  0  0  0  0  0  0
    7.3622    3.5603   10.6278 C   0  0  0  0  0  0  0  0  0  0  0  0
    6.2207    3.3751    9.8279 C   0  0  0  0  0  0  0  0  0  0  0  0
    5.4786    2.6248   10.0722 H   0  0  0  0  0  0  0  0  0  0  0  0
    5.9937    4.1734    8.7171 C   0  0  0  0  0  0  0  0  0  0  0  0
    5.1190    3.9835    8.1115 H   0  0  0  0  0  0  0  0  0  0  0  0
    6.8750    5.1850    8.3557 C   0  0  0  0  0  0  0  0  0  0  0  0
    7.9702    5.4117    9.1802 C   0  0  0  0  0  0  0  0  0  0  0  0
    8.6649    6.2031    8.9392 H   0  0  0  0  0  0  0  0  0  0  0  0
    8.2144    4.6262   10.2937 C   0  0  0  0  0  0  0  0  0  0  0  0
    9.0750    4.8646   10.9028 H   0  0  0  0  0  0  0  0  0  0  0  0
    8.5139    1.9593    8.8263 Pd  0  0  0  0  0  0  0  0  0  0  0  0
    9.7891    3.2605    7.4887 Cl  0  0  0  0  0  0  0  0  0  0  0  0
    9.9541    2.0714   10.5550 P   0  0  1  0  0  4  0  0  0  0  0  0
    7.3790    0.5642   10.1585 P   0  0  2  0  0  4  0  0  0  0  0  0
    7.1162    1.4924    7.1030 Cl  0  0  0  0  0  0  0  0  0  0  0  0
    8.4903   -0.8334   10.7092 C   0  0  0  0  0  0  0  0  0  0  0  0
    7.8812   -1.6278   11.1500 H   0  0  0  0  0  0  0  0  0  0  0  0
    8.9790   -1.2332    9.8008 H   0  0  0  0  0  0  0  0  0  0  0  0
    9.4699   -0.3779   11.6674 N   0  0  0  0  0  0  0  0  0  0  0  0
   10.5571    0.3941   11.1236 C   0  0  0  0  0  0  0  0  0  0  0  0
   11.0585   -0.1040   10.2742 H   0  0  0  0  0  0  0  0  0  0  0  0
   11.2903    0.5934   11.9115 H   0  0  0  0  0  0  0  0  0  0  0  0
    6.9638    1.4551   11.7407 C   0  0  0  0  0  0  0  0  0  0  0  0
    5.8778    1.5661   11.8004 H   0  0  0  0  0  0  0  0  0  0  0  0
    7.3029    0.8769   12.6040 H   0  0  0  0  0  0  0  0  0  0  0  0
    7.6229    2.7437   11.7514 N   0  0  0  0  0  0  0  0  0  0  0  0
    9.0283    2.6208   12.0769 C   0  0  0  0  0  0  0  0  0  0  0  0
    9.1547    1.8845   12.8757 H   0  0  0  0  0  0  0  0  0  0  0  0
    9.4418    3.5709   12.4221 H   0  0  0  0  0  0  0  0  0  0  0  0
   10.2805   -3.5659   16.3449 C   0  0  0  0  0  0  0  0  0  0  0  0
   11.3152   -3.8836   16.4436 H   0  0  0  0  0  0  0  0  0  0  0  0
    9.6437   -4.4489   16.3218 H   0  0  0  0  0  0  0  0  0  0  0  0
   10.0118   -2.9859   17.2277 H   0  0  0  0  0  0  0  0  0  0  0  0
    6.6753    5.9768    7.1028 C   0  0  0  0  0  0  0  0  0  0  0  0
    5.6257    6.0042    6.8202 H   0  0  0  0  0  0  0  0  0  0  0  0
    7.2329    5.5045    6.2934 H   0  0  0  0  0  0  0  0  0  0  0  0
    7.0454    6.9929    7.2191 H   0  0  0  0  0  0  0  0  0  0  0  0
  1 10  1  0  0  0  0
  2  1  2  0  0  0  0
  3  2  1  0  0  0  0
  4  2  1  0  0  0  0
  4  6  2  0  0  0  0
  5  4  1  0  0  0  0
  6  8  1  0  0  0  0
  7  6  1  0  0  0  0
  8 10  2  0  0  0  0
  8  9  1  0  0  0  0
 11 20  1  0  0  0  0
 12 14  1  0  0  0  0
 12 11  2  0  0  0  0
 13 12  1  0  0  0  0
 14 16  2  0  0  0  0
 15 14  1  0  0  0  0
 16 17  1  0  0  0  0
 16 18  1  0  0  0  0
 18 19  1  0  0  0  0
 20 18  2  0  0  0  0
 21 22  2  0  0  0  0
 21 29  1  0  0  0  0
 22 24  1  0  0  0  0
 23 22  1  0  0  0  0
 24 25  1  0  0  0  0
 24 26  2  0  0  0  0
 26 60  1  0  0  0  0
 27 26  1  0  0  0  0
 27 28  1  0  0  0  0
 29 27  2  0  0  0  0
 30 29  1  0  0  0  0
 31 56  1  0  0  0  0
 32 33  1  0  0  0  0
 32 31  2  0  0  0  0
 34 32  1  0  0  0  0
 35 34  1  0  0  0  0
 36 34  2  0  0  0  0
 36 37  1  0  0  0  0
 37 39  2  0  0  0  0
 38 37  1  0  0  0  0
 39 31  1  0  0  0  0
 39 40  1  0  0  0  0
 41 44  1  0  0  0  0
 41 43  1  0  0  0  0
 42 41  1  0  0  0  0
 43 11  1  6  0  0  0
 43 50  1  0  0  0  0
 43 57  1  0  0  0  0
 44  1  1  6  0  0  0
 44 46  1  0  0  0  0
 44 53  1  0  0  0  0
 45 41  1  0  0  0  0
 46 47  1  0  0  0  0
 46 49  1  0  0  0  0
 48 46  1  0  0  0  0
 49 21  1  0  0  0  0
 50 49  1  0  0  0  0
 50 52  1  0  0  0  0
 51 50  1  0  0  0  0
 53 56  1  0  0  0  0
 53 54  1  0  0  0  0
 53 55  1  0  0  0  0
 56 57  1  0  0  0  0
 57 59  1  0  0  0  0
 57 58  1  0  0  0  0
 60 61  1  0  0  0  0
 60 63  1  0  0  0  0
 62 60  1  0  0  0  0
 64 67  1  0  0  0  0
 64 36  1  0  0  0  0
 65 64  1  0  0  0  0
 66 64  1  0  0  0  0
M  END
$$$$
