CSD_code = HIXMUY | q = 0 | S = 0 | Stoichiometry = C16H12Cl2HgN2O | MND = 4
 OpenBabel04212202043D

 34 35  0  0  0  0  0  0  0  0999 V2000
    6.0222   21.4733   -3.9089 C   0  0  0  0  0  0  0  0  0  0  0  0
    6.8216   21.7182   -2.7893 C   0  0  0  0  0  0  0  0  0  0  0  0
    7.5025   22.5535   -2.8141 H   0  0  0  0  0  0  0  0  0  0  0  0
    6.7194   20.9126   -1.6812 C   0  0  0  0  0  0  0  0  0  0  0  0
    7.3383   21.0974   -0.8104 H   0  0  0  0  0  0  0  0  0  0  0  0
    5.8436   19.8188   -1.6662 C   0  0  0  0  0  0  0  0  0  0  0  0
    5.0436   19.5809   -2.7890 C   0  0  0  0  0  0  0  0  0  0  0  0
    4.3171   18.7825   -2.7794 H   0  0  0  0  0  0  0  0  0  0  0  0
    5.1265   20.4054   -3.8906 C   0  0  0  0  0  0  0  0  0  0  0  0
    4.4850   20.2294   -4.7441 H   0  0  0  0  0  0  0  0  0  0  0  0
    5.4397   17.8351   -0.4928 C   0  0  0  0  0  0  0  0  0  0  0  0
    5.3352   17.0799    0.7446 C   0  0  0  0  0  0  0  0  0  0  0  0
    5.0480   15.6963    0.6833 C   0  0  0  0  0  0  0  0  0  0  0  0
    4.9135   15.2261   -0.2789 H   0  0  0  0  0  0  0  0  0  0  0  0
    4.9504   14.9791    1.8418 C   0  0  0  0  0  0  0  0  0  0  0  0
    4.7346   13.9202    1.8277 H   0  0  0  0  0  0  0  0  0  0  0  0
    5.1313   15.6323    3.0778 C   0  0  0  0  0  0  0  0  0  0  0  0
    5.4122   17.0300    3.0510 C   0  0  0  0  0  0  0  0  0  0  0  0
    5.5898   17.7143    4.2725 C   0  0  0  0  0  0  0  0  0  0  0  0
    5.7999   18.7796    4.2389 H   0  0  0  0  0  0  0  0  0  0  0  0
    5.4982   17.0446    5.4597 C   0  0  0  0  0  0  0  0  0  0  0  0
    5.6353   17.5724    6.3912 H   0  0  0  0  0  0  0  0  0  0  0  0
    5.2256   15.6655    5.4847 C   0  0  0  0  0  0  0  0  0  0  0  0
    5.1604   15.1572    6.4348 H   0  0  0  0  0  0  0  0  0  0  0  0
    5.0450   14.9729    4.3195 C   0  0  0  0  0  0  0  0  0  0  0  0
    4.8345   13.9134    4.3305 H   0  0  0  0  0  0  0  0  0  0  0  0
    5.7854   19.0635   -0.5096 N   0  0  0  0  0  0  0  0  0  0  0  0
    5.5091   17.7091    1.8936 N   0  0  0  0  0  0  0  0  0  0  0  0
    6.1410   22.2975   -4.9704 O   0  0  0  0  0  0  0  0  0  0  0  0
    5.5254   22.0444   -5.6703 H   0  0  0  0  0  0  0  0  0  0  0  0
    6.0437   20.1275    1.7307 Hg  0  0  0  0  0  0  0  0  0  0  0  0
    8.2760   20.2293    2.2154 Cl  0  0  0  0  0  0  0  0  0  0  0  0
    3.9873   21.1032    1.9011 Cl  0  0  0  0  0  0  0  0  0  0  0  0
    5.2242   17.2777   -1.4078 H   0  0  0  0  0  0  0  0  0  0  0  0
  1  9  2  0  0  0  0
  1  2  1  0  0  0  0
  2  4  2  0  0  0  0
  3  2  1  0  0  0  0
  4  6  1  0  0  0  0
  4  5  1  0  0  0  0
  6 27  1  0  0  0  0
  7  8  1  0  0  0  0
  7  6  2  0  0  0  0
  9  7  1  0  0  0  0
 10  9  1  0  0  0  0
 11 12  1  0  0  0  0
 12 28  1  0  0  0  0
 13 12  2  0  0  0  0
 13 15  1  0  0  0  0
 14 13  1  0  0  0  0
 15 17  2  0  0  0  0
 16 15  1  0  0  0  0
 17 25  1  0  0  0  0
 18 17  1  0  0  0  0
 18 19  1  0  0  0  0
 19 21  2  0  0  0  0
 20 19  1  0  0  0  0
 21 23  1  0  0  0  0
 21 22  1  0  0  0  0
 23 24  1  0  0  0  0
 25 26  1  0  0  0  0
 25 23  2  0  0  0  0
 27 11  2  0  0  0  0
 28 18  2  0  0  0  0
 29  1  1  0  0  0  0
 30 29  1  0  0  0  0
 31 33  1  0  0  0  0
 31 32  1  0  0  0  0
 34 11  1  0  0  0  0
M  END
$$$$
