CSD_code = HIXYES | q = 0 | S = 0 | Stoichiometry = C18H14Cl2OTi | MND = 8
 OpenBabel04212202043D

 36 39  0  0  1  0  0  0  0  0999 V2000
    2.4181    6.9922    8.5244 Ti  0  0  0  0  0  0  0  0  0  0  0  0
    1.9942    5.0719    7.6034 Cl  0  0  0  0  0  0  0  0  0  0  0  0
    3.7598    6.2724   10.0636 Cl  0  0  0  0  0  0  0  0  0  0  0  0
    3.4556    7.6470    7.3615 O   0  0  0  0  0  0  0  0  0  0  0  0
    3.5974    8.6872    6.5433 C   0  0  0  0  0  0  0  0  0  0  0  0
    4.2879    8.5032    5.3408 C   0  0  0  0  0  0  0  0  0  0  0  0
    4.6785    7.5157    5.1342 H   0  0  0  0  0  0  0  0  0  0  0  0
    4.4579    9.5475    4.4552 C   0  0  0  0  0  0  0  0  0  0  0  0
    4.9925    9.3867    3.5316 H   0  0  0  0  0  0  0  0  0  0  0  0
    3.9428   10.7969    4.7581 C   0  0  0  0  0  0  0  0  0  0  0  0
    4.0738   11.6207    4.0739 H   0  0  0  0  0  0  0  0  0  0  0  0
    3.2562   10.9873    5.9445 C   0  0  0  0  0  0  0  0  0  0  0  0
    2.8575   11.9646    6.1766 H   0  0  0  0  0  0  0  0  0  0  0  0
    3.0642    9.9554    6.8528 C   0  0  0  0  0  0  0  0  0  0  0  0
    3.3540   10.6789    9.2019 C   0  0  0  0  0  0  0  0  0  0  0  0
    4.3891    9.8280    9.5787 C   0  0  0  0  0  0  0  0  0  0  0  0
    4.4865    8.8445    9.1266 H   0  0  0  0  0  0  0  0  0  0  0  0
    5.3041   10.2248   10.5378 C   0  0  0  0  0  0  0  0  0  0  0  0
    6.0980    9.5527   10.8264 H   0  0  0  0  0  0  0  0  0  0  0  0
    5.2016   11.4747   11.1268 C   0  0  0  0  0  0  0  0  0  0  0  0
    5.9160   11.7815   11.8759 H   0  0  0  0  0  0  0  0  0  0  0  0
    4.1798   12.3280   10.7505 C   0  0  0  0  0  0  0  0  0  0  0  0
    4.0940   13.3045   11.2036 H   0  0  0  0  0  0  0  0  0  0  0  0
    3.2615   11.9314    9.7930 C   0  0  0  0  0  0  0  0  0  0  0  0
    2.4625   12.6015    9.5085 H   0  0  0  0  0  0  0  0  0  0  0  0
    1.5287    9.0670    8.6389 C   0  0  1  0  0  0  0  0  0  0  0  0
    0.6533    8.2951    7.8312 C   0  0  0  0  0  3  0  0  0  0  0  0
    0.3855    8.5131    6.8032 H   0  0  0  0  0  0  0  0  0  0  0  0
    0.0874    7.2827    8.6405 C   0  0  0  0  0  0  0  0  0  0  0  0
   -0.6866    6.5898    8.3339 H   0  0  0  0  0  0  0  0  0  0  0  0
    0.6196    7.4088    9.9393 C   0  0  0  0  0  0  0  0  0  0  0  0
    0.3054    6.8490   10.8134 H   0  0  0  0  0  0  0  0  0  0  0  0
    1.5036    8.5175    9.9457 C   0  0  0  0  0  3  0  0  0  0  0  0
    1.9836    8.9365   10.8223 H   0  0  0  0  0  0  0  0  0  0  0  0
    2.3412   10.2450    8.1594 C   0  0  2  0  0  0  0  0  0  0  0  0
    1.6556   11.0844    7.9765 H   0  0  0  0  0  0  0  0  0  0  0  0
  1 26  1  0  0  0  0
  1  3  1  0  0  0  0
  2  1  1  0  0  0  0
  4  1  1  0  0  0  0
  5 14  1  0  0  0  0
  5  4  1  0  0  0  0
  6  5  2  0  0  0  0
  7  6  1  0  0  0  0
  8 10  2  0  0  0  0
  8  6  1  0  0  0  0
  9  8  1  0  0  0  0
 10 12  1  0  0  0  0
 11 10  1  0  0  0  0
 12 13  1  0  0  0  0
 12 14  2  0  0  0  0
 14 35  1  0  0  0  0
 15 16  2  0  0  0  0
 15 24  1  0  0  0  0
 16 18  1  0  0  0  0
 17 16  1  0  0  0  0
 18 19  1  0  0  0  0
 18 20  2  0  0  0  0
 20 21  1  0  0  0  0
 22 20  1  0  0  0  0
 22 23  1  0  0  0  0
 24 22  2  0  0  0  0
 25 24  1  0  0  0  0
 26 27  1  6  0  0  0
 26 33  1  0  0  0  0
 27 29  1  0  0  0  0
 28 27  1  0  0  0  0
 29 31  2  0  0  0  0
 30 29  1  0  0  0  0
 31 33  1  0  0  0  0
 31 32  1  0  0  0  0
 33 34  1  0  0  0  0
 35 36  1  6  0  0  0
 35 26  1  0  0  0  0
 35 15  1  0  0  0  0
M  END
$$$$
