CSD_code = HIXZEU | q = 0 | S = 0 | Stoichiometry = C29H22ClNO2PRh | MND = 4
 OpenBabel04212202043D

 57 61  0  0  0  0  0  0  0  0999 V2000
    2.5202    3.2642    7.2830 C   0  0  0  0  0  0  0  0  0  0  0  0
    4.4433    3.8796    7.0273 Rh  0  0  0  0  0  0  0  0  0  0  0  0
    1.8141    4.5961    9.6701 P   0  0  0  0  0  4  0  0  0  0  0  0
    1.9273    2.3554    6.4637 N   0  0  0  0  0  0  0  0  0  0  0  0
    6.2733    4.0222    6.6648 C   0  0  0  0  0  2  0  0  0  0  0  0
    7.3798    3.8741    6.4147 O   0  0  0  0  0  1  0  0  0  0  0  0
    3.8280    5.4159    6.2362 C   0  0  0  0  0  2  0  0  0  0  0  0
    3.3778    6.3830    5.8004 O   0  0  0  0  0  1  0  0  0  0  0  0
    5.0498    1.9110    7.9829 Cl  0  0  0  0  0  0  0  0  0  0  0  0
    2.5329    1.7871    5.2885 C   0  0  0  0  0  0  0  0  0  0  0  0
    3.5334    2.2252    5.1670 H   0  0  0  0  0  0  0  0  0  0  0  0
    1.9295    2.0038    4.4033 H   0  0  0  0  0  0  0  0  0  0  0  0
    2.6321    0.7050    5.3993 H   0  0  0  0  0  0  0  0  0  0  0  0
    1.5955    3.5180    8.3138 C   0  0  0  0  0  0  0  0  0  0  0  0
    0.4152    2.7345    8.0920 C   0  0  0  0  0  0  0  0  0  0  0  0
    0.6739    2.0100    6.9084 C   0  0  0  0  0  0  0  0  0  0  0  0
   -0.2620    1.1287    6.3865 C   0  0  0  0  0  0  0  0  0  0  0  0
   -0.0659    0.5701    5.4840 H   0  0  0  0  0  0  0  0  0  0  0  0
   -1.4569    0.9866    7.0649 C   0  0  0  0  0  0  0  0  0  0  0  0
   -2.2053    0.3072    6.6847 H   0  0  0  0  0  0  0  0  0  0  0  0
   -1.7195    1.7000    8.2348 C   0  0  0  0  0  0  0  0  0  0  0  0
   -2.6659    1.5586    8.7360 H   0  0  0  0  0  0  0  0  0  0  0  0
   -0.7930    2.5761    8.7609 C   0  0  0  0  0  0  0  0  0  0  0  0
   -0.9931    3.1269    9.6718 H   0  0  0  0  0  0  0  0  0  0  0  0
    2.0585    3.7189   11.2382 C   0  0  0  0  0  0  0  0  0  0  0  0
    1.8150    2.3533   11.3142 C   0  0  0  0  0  0  0  0  0  0  0  0
    1.4766    1.8213   10.4368 H   0  0  0  0  0  0  0  0  0  0  0  0
    2.0221    1.6885   12.5102 C   0  0  0  0  0  0  0  0  0  0  0  0
    1.8371    0.6269   12.5730 H   0  0  0  0  0  0  0  0  0  0  0  0
    2.4735    2.3820   13.6211 C   0  0  0  0  0  0  0  0  0  0  0  0
    2.6372    1.8601   14.5520 H   0  0  0  0  0  0  0  0  0  0  0  0
    2.7273    3.7434   13.5415 C   0  0  0  0  0  0  0  0  0  0  0  0
    3.0891    4.2782   14.4071 H   0  0  0  0  0  0  0  0  0  0  0  0
    2.5245    4.4153   12.3510 C   0  0  0  0  0  0  0  0  0  0  0  0
    2.7316    5.4749   12.2712 H   0  0  0  0  0  0  0  0  0  0  0  0
    0.3620    5.6659    9.8345 C   0  0  0  0  0  0  0  0  0  0  0  0
   -0.2859    5.8841   11.0433 C   0  0  0  0  0  0  0  0  0  0  0  0
    0.0767    5.4115   11.9454 H   0  0  0  0  0  0  0  0  0  0  0  0
   -1.4034    6.7003   11.0802 C   0  0  0  0  0  0  0  0  0  0  0  0
   -1.9123    6.8698   12.0174 H   0  0  0  0  0  0  0  0  0  0  0  0
   -1.8711    7.2950    9.9197 C   0  0  0  0  0  0  0  0  0  0  0  0
   -2.7442    7.9291    9.9550 H   0  0  0  0  0  0  0  0  0  0  0  0
   -1.2270    7.0726    8.7120 C   0  0  0  0  0  0  0  0  0  0  0  0
   -1.5964    7.5324    7.8078 H   0  0  0  0  0  0  0  0  0  0  0  0
   -0.1138    6.2554    8.6659 C   0  0  0  0  0  0  0  0  0  0  0  0
    0.3947    6.0592    7.7308 H   0  0  0  0  0  0  0  0  0  0  0  0
    3.2748    5.6281    9.4544 C   0  0  0  0  0  0  0  0  0  0  0  0
    4.5179    4.9739    9.4883 C   0  0  0  0  0  0  0  0  0  0  0  0
    4.5690    3.9328    9.7953 H   0  0  0  0  0  0  0  0  0  0  0  0
    5.6798    5.7380    9.3805 C   0  0  0  0  0  0  0  0  0  0  0  0
    6.6433    5.2592    9.4787 H   0  0  0  0  0  0  0  0  0  0  0  0
    5.5974    7.1014    9.1549 C   0  0  0  0  0  0  0  0  0  0  0  0
    6.5006    7.6847    9.0550 H   0  0  0  0  0  0  0  0  0  0  0  0
    4.3623    7.7303    9.0782 C   0  0  0  0  0  0  0  0  0  0  0  0
    4.3067    8.7950    8.9093 H   0  0  0  0  0  0  0  0  0  0  0  0
    3.1985    6.9977    9.2342 C   0  0  0  0  0  0  0  0  0  0  0  0
    2.2357    7.4888    9.1971 H   0  0  0  0  0  0  0  0  0  0  0  0
  1 14  2  0  0  0  0
  2  1  1  0  0  0  0
  2  9  1  0  0  0  0
  3 36  1  0  0  0  0
  3 25  1  0  0  0  0
  4 16  1  0  0  0  0
  4  1  1  0  0  0  0
  5  2  1  0  0  0  0
  6  5  1  0  0  0  0
  7  2  1  0  0  0  0
  8  7  1  0  0  0  0
 10 13  1  0  0  0  0
 10  4  1  0  0  0  0
 11 10  1  0  0  0  0
 12 10  1  0  0  0  0
 14  3  1  0  0  0  0
 15 14  1  0  0  0  0
 15 23  1  0  0  0  0
 16 15  2  0  0  0  0
 17 16  1  0  0  0  0
 17 19  2  0  0  0  0
 18 17  1  0  0  0  0
 19 21  1  0  0  0  0
 20 19  1  0  0  0  0
 21 22  1  0  0  0  0
 21 23  2  0  0  0  0
 23 24  1  0  0  0  0
 25 26  2  0  0  0  0
 25 34  1  0  0  0  0
 26 28  1  0  0  0  0
 27 26  1  0  0  0  0
 28 29  1  0  0  0  0
 28 30  2  0  0  0  0
 30 31  1  0  0  0  0
 32 30  1  0  0  0  0
 32 33  1  0  0  0  0
 34 32  2  0  0  0  0
 35 34  1  0  0  0  0
 36 37  1  0  0  0  0
 37 39  2  0  0  0  0
 37 38  1  0  0  0  0
 39 40  1  0  0  0  0
 41 42  1  0  0  0  0
 41 39  1  0  0  0  0
 43 41  2  0  0  0  0
 44 43  1  0  0  0  0
 45 43  1  0  0  0  0
 45 36  2  0  0  0  0
 46 45  1  0  0  0  0
 47 48  1  0  0  0  0
 47  3  1  0  0  0  0
 48 49  1  0  0  0  0
 50 51  1  0  0  0  0
 50 48  2  0  0  0  0
 52 50  1  0  0  0  0
 53 52  1  0  0  0  0
 54 52  2  0  0  0  0
 54 56  1  0  0  0  0
 55 54  1  0  0  0  0
 56 47  2  0  0  0  0
 57 56  1  0  0  0  0
M  END
$$$$
