CSD_code = HIYFIF | q = 0 | S = 0 | Stoichiometry = C14H24Cl2NNiOP | MND = 4
 OpenBabel04212202043D

 44 45  0  0  1  0  0  0  0  0999 V2000
    3.4187    2.0798    9.0100 Ni  0  0  0  0  0  0  0  0  0  0  0  0
    3.7485    2.1236    6.9676 Cl  0  0  0  0  0  0  0  0  0  0  0  0
    3.8097    1.4444   10.8998 Cl  0  0  0  0  0  0  0  0  0  0  0  0
    1.3515    2.5076    9.1713 P   0  0  0  0  0  4  0  0  0  0  0  0
    0.9679    3.8856    8.4351 O   0  0  0  0  0  0  0  0  0  0  0  0
    3.6468    4.4486    9.1210 N   0  0  0  0  0  0  0  0  0  0  0  0
    1.8043    4.6103    7.5446 C   0  0  0  0  0  0  0  0  0  0  0  0
    1.1784    5.4117    7.1425 H   0  0  0  0  0  0  0  0  0  0  0  0
    2.1409    3.9635    6.7243 H   0  0  0  0  0  0  0  0  0  0  0  0
    3.0348    5.1885    8.1992 C   0  0  2  0  0  3  0  0  0  0  0  0
    3.5223    6.4302    7.8094 C   0  0  0  0  0  0  0  0  0  0  0  0
    3.0020    7.0046    7.0588 H   0  0  0  0  0  0  0  0  0  0  0  0
    4.6830    6.9087    8.3931 C   0  0  0  0  0  0  0  0  0  0  0  0
    5.0861    7.8679    8.1033 H   0  0  0  0  0  0  0  0  0  0  0  0
    5.3107    6.1392    9.3597 C   0  0  0  0  0  0  0  0  0  0  0  0
    6.2132    6.4761    9.8442 H   0  0  0  0  0  0  0  0  0  0  0  0
    4.7487    4.9193    9.6943 C   0  0  0  0  0  0  0  0  0  0  0  0
    5.1912    4.2871   10.4545 H   0  0  0  0  0  0  0  0  0  0  0  0
    0.3755    1.1564    8.2532 C   0  0  0  0  0  0  0  0  0  0  0  0
    0.4691    1.4541    6.7583 C   0  0  0  0  0  0  0  0  0  0  0  0
    1.5054    1.5484    6.4421 H   0  0  0  0  0  0  0  0  0  0  0  0
   -0.0615    2.3734    6.5171 H   0  0  0  0  0  0  0  0  0  0  0  0
    0.0168    0.6399    6.1947 H   0  0  0  0  0  0  0  0  0  0  0  0
    1.0956   -0.1495    8.5818 C   0  0  0  0  0  0  0  0  0  0  0  0
    0.6924   -0.9700    7.9916 H   0  0  0  0  0  0  0  0  0  0  0  0
    0.9970   -0.3953    9.6375 H   0  0  0  0  0  0  0  0  0  0  0  0
    2.1650   -0.0553    8.3511 H   0  0  0  0  0  0  0  0  0  0  0  0
   -1.1000    1.0727    8.6281 C   0  0  0  0  0  0  0  0  0  0  0  0
   -1.5980    2.0207    8.4413 H   0  0  0  0  0  0  0  0  0  0  0  0
   -1.2454    0.7830    9.6641 H   0  0  0  0  0  0  0  0  0  0  0  0
   -1.5750    0.3150    8.0050 H   0  0  0  0  0  0  0  0  0  0  0  0
    0.6125    2.9373   10.8581 C   0  0  0  0  0  0  0  0  0  0  0  0
    0.5703    1.7124   11.7625 C   0  0  0  0  0  0  0  0  0  0  0  0
    1.5603    1.2701   11.8399 H   0  0  0  0  0  0  0  0  0  0  0  0
   -0.1257    0.9610   11.3994 H   0  0  0  0  0  0  0  0  0  0  0  0
    0.2516    2.0101   12.7601 H   0  0  0  0  0  0  0  0  0  0  0  0
    1.5574    3.9771   11.4622 C   0  0  0  0  0  0  0  0  0  0  0  0
    1.2255    4.2379   12.4655 H   0  0  0  0  0  0  0  0  0  0  0  0
    1.5717    4.8816   10.8579 H   0  0  0  0  0  0  0  0  0  0  0  0
    2.5665    3.5781   11.5289 H   0  0  0  0  0  0  0  0  0  0  0  0
   -0.7746    3.5662   10.7203 C   0  0  0  0  0  0  0  0  0  0  0  0
   -1.0138    4.0879   11.6460 H   0  0  0  0  0  0  0  0  0  0  0  0
   -1.5466    2.8236   10.5530 H   0  0  0  0  0  0  0  0  0  0  0  0
   -0.7954    4.2897    9.9103 H   0  0  0  0  0  0  0  0  0  0  0  0
  1  6  1  0  0  0  0
  1  4  1  0  0  0  0
  1  3  1  0  0  0  0
  2  1  1  0  0  0  0
  4 32  1  0  0  0  0
  5  4  1  0  0  0  0
  6 17  1  0  0  0  0
  7 10  1  0  0  0  0
  7  5  1  0  0  0  0
  8  7  1  0  0  0  0
  9  7  1  0  0  0  0
 10 11  1  6  0  0  0
 10  6  1  0  0  0  0
 11 13  2  0  0  0  0
 12 11  1  0  0  0  0
 13 15  1  0  0  0  0
 14 13  1  0  0  0  0
 15 17  2  0  0  0  0
 15 16  1  0  0  0  0
 17 18  1  0  0  0  0
 19 24  1  0  0  0  0
 19 28  1  0  0  0  0
 19  4  1  0  0  0  0
 20 19  1  0  0  0  0
 21 20  1  0  0  0  0
 22 20  1  0  0  0  0
 23 20  1  0  0  0  0
 24 26  1  0  0  0  0
 25 24  1  0  0  0  0
 27 24  1  0  0  0  0
 28 30  1  0  0  0  0
 29 28  1  0  0  0  0
 31 28  1  0  0  0  0
 32 37  1  0  0  0  0
 32 33  1  0  0  0  0
 33 34  1  0  0  0  0
 33 36  1  0  0  0  0
 35 33  1  0  0  0  0
 37 40  1  0  0  0  0
 37 38  1  0  0  0  0
 39 37  1  0  0  0  0
 41 32  1  0  0  0  0
 41 42  1  0  0  0  0
 43 41  1  0  0  0  0
 44 41  1  0  0  0  0
M  END
$$$$
