CSD_code = HIYKEG | q = 0 | S = 0 | Stoichiometry = C27H22Cl2N2O2PRe | MND = 6
 OpenBabel04212202043D

 57 62  0  0  1  0  0  0  0  0999 V2000
    7.8199    3.5035   15.4525 Re  0  0  0  0  0  0  0  0  0  0  0  0
    9.2455    3.0787   13.6518 Cl  0  0  0  0  0  0  0  0  0  0  0  0
    9.5616    3.2637   16.9118 Cl  0  0  0  0  0  0  0  0  0  0  0  0
    7.8640    5.1649   15.3447 O   0  0  0  0  0  1  0  0  0  0  0  0
    6.2187    3.6169   17.3838 P   0  0  0  0  0  4  0  0  0  0  0  0
    6.2505    3.4680   13.9238 N   0  0  1  0  0  0  0  0  0  0  0  0
    7.3518    1.6997   15.5007 O   0  0  0  0  0  0  0  0  0  0  0  0
    6.1277    4.4470   13.0346 N   0  0  0  0  0  0  0  0  0  0  0  0
    6.7082    5.2693   13.1335 H   0  0  0  0  0  0  0  0  0  0  0  0
    6.1408    5.2523   18.1647 C   0  0  0  0  0  0  0  0  0  0  0  0
    7.3564    5.8975   18.3782 C   0  0  0  0  0  0  0  0  0  0  0  0
    8.2716    5.4243   18.0467 H   0  0  0  0  0  0  0  0  0  0  0  0
    7.3780    7.1362   18.9915 C   0  0  0  0  0  0  0  0  0  0  0  0
    8.3192    7.6388   19.1540 H   0  0  0  0  0  0  0  0  0  0  0  0
    6.1927    7.7341   19.3902 C   0  0  0  0  0  0  0  0  0  0  0  0
    6.2094    8.7043   19.8642 H   0  0  0  0  0  0  0  0  0  0  0  0
    4.9833    7.0939   19.1743 C   0  0  0  0  0  0  0  0  0  0  0  0
    4.0597    7.5637   19.4802 H   0  0  0  0  0  0  0  0  0  0  0  0
    4.9514    5.8530   18.5625 C   0  0  0  0  0  0  0  0  0  0  0  0
    4.0053    5.3594   18.3857 H   0  0  0  0  0  0  0  0  0  0  0  0
    4.5423    3.2815   16.7828 C   0  0  0  0  0  0  0  0  0  0  0  0
    3.8601    2.1048   17.0698 C   0  0  0  0  0  0  0  0  0  0  0  0
    4.2862    1.3856   17.7547 H   0  0  0  0  0  0  0  0  0  0  0  0
    2.6390    1.8530   16.4693 C   0  0  0  0  0  0  0  0  0  0  0  0
    2.1128    0.9372   16.6931 H   0  0  0  0  0  0  0  0  0  0  0  0
    2.0990    2.7640   15.5774 C   0  0  0  0  0  0  0  0  0  0  0  0
    1.1493    2.5593   15.1063 H   0  0  0  0  0  0  0  0  0  0  0  0
    2.7778    3.9376   15.2849 C   0  0  0  0  0  0  0  0  0  0  0  0
    2.3574    4.6462   14.5864 H   0  0  0  0  0  0  0  0  0  0  0  0
    3.9968    4.1944   15.8806 C   0  0  0  0  0  0  0  0  0  0  0  0
    4.5485    5.0987   15.6558 H   0  0  0  0  0  0  0  0  0  0  0  0
    6.4255    2.4848   18.7903 C   0  0  0  0  0  0  0  0  0  0  0  0
    5.5785    2.6187   19.8889 C   0  0  0  0  0  0  0  0  0  0  0  0
    4.8340    3.4028   19.9014 H   0  0  0  0  0  0  0  0  0  0  0  0
    5.6964    1.7513   20.9577 C   0  0  0  0  0  0  0  0  0  0  0  0
    5.0400    1.8556   21.8091 H   0  0  0  0  0  0  0  0  0  0  0  0
    6.6573    0.7512   20.9390 C   0  0  0  0  0  0  0  0  0  0  0  0
    6.7461    0.0754   21.7767 H   0  0  0  0  0  0  0  0  0  0  0  0
    7.5052    0.6238   19.8523 C   0  0  0  0  0  0  0  0  0  0  0  0
    8.2600   -0.1482   19.8429 H   0  0  0  0  0  0  0  0  0  0  0  0
    7.3935    1.4886   18.7766 C   0  0  0  0  0  0  0  0  0  0  0  0
    8.0718    1.4096   17.9400 H   0  0  0  0  0  0  0  0  0  0  0  0
    6.3733    0.8763   15.2263 C   0  0  0  0  0  0  0  0  0  0  0  0
    6.2939   -0.3657   15.8729 C   0  0  0  0  0  0  0  0  0  0  0  0
    7.0685   -0.6216   16.5803 H   0  0  0  0  0  0  0  0  0  0  0  0
    5.2510   -1.2295   15.6199 C   0  0  0  0  0  0  0  0  0  0  0  0
    5.2057   -2.1764   16.1372 H   0  0  0  0  0  0  0  0  0  0  0  0
    4.2630   -0.8873   14.7077 C   0  0  0  0  0  0  0  0  0  0  0  0
    3.4452   -1.5642   14.5134 H   0  0  0  0  0  0  0  0  0  0  0  0
    4.3335    0.3201   14.0421 C   0  0  0  0  0  0  0  0  0  0  0  0
    3.5643    0.5878   13.3341 H   0  0  0  0  0  0  0  0  0  0  0  0
    5.3711    1.2169   14.2786 C   0  0  0  0  0  0  0  0  0  0  0  0
    5.4520    2.4706   13.5498 C   0  0  2  0  0  3  0  0  0  0  0  0
    4.7852    2.8573   12.3671 C   0  0  0  0  0  0  0  0  0  0  0  0
    4.0837    2.2808   11.8024 H   0  0  0  0  0  0  0  0  0  0  0  0
    5.2507    4.1158   12.0741 C   0  0  0  0  0  0  0  0  0  0  0  0
    5.0166    4.7755   11.2634 H   0  0  0  0  0  0  0  0  0  0  0  0
  1  7  1  0  0  0  0
  1  3  1  0  0  0  0
  1  5  1  0  0  0  0
  2  1  1  0  0  0  0
  4  1  1  0  0  0  0
  5 10  1  0  0  0  0
  5 32  1  0  0  0  0
  6  8  1  6  0  0  0
  6  1  1  0  0  0  0
  8  9  1  0  0  0  0
 10 11  2  0  0  0  0
 10 19  1  0  0  0  0
 11 13  1  0  0  0  0
 12 11  1  0  0  0  0
 13 14  1  0  0  0  0
 13 15  2  0  0  0  0
 15 16  1  0  0  0  0
 17 15  1  0  0  0  0
 17 18  1  0  0  0  0
 19 17  2  0  0  0  0
 20 19  1  0  0  0  0
 21 22  1  0  0  0  0
 21  5  1  0  0  0  0
 22 23  1  0  0  0  0
 24 25  1  0  0  0  0
 24 22  2  0  0  0  0
 26 24  1  0  0  0  0
 27 26  1  0  0  0  0
 28 26  2  0  0  0  0
 28 30  1  0  0  0  0
 29 28  1  0  0  0  0
 30 21  2  0  0  0  0
 31 30  1  0  0  0  0
 32 33  1  0  0  0  0
 33 34  1  0  0  0  0
 33 35  2  0  0  0  0
 35 36  1  0  0  0  0
 37 35  1  0  0  0  0
 37 38  1  0  0  0  0
 39 37  2  0  0  0  0
 40 39  1  0  0  0  0
 41 32  2  0  0  0  0
 41 39  1  0  0  0  0
 42 41  1  0  0  0  0
 43  7  1  0  0  0  0
 43 44  1  0  0  0  0
 44 45  1  0  0  0  0
 46 44  2  0  0  0  0
 46 47  1  0  0  0  0
 48 46  1  0  0  0  0
 49 48  1  0  0  0  0
 50 52  1  0  0  0  0
 50 48  2  0  0  0  0
 51 50  1  0  0  0  0
 52 43  2  0  0  0  0
 53 54  1  6  0  0  0
 53  6  1  0  0  0  0
 53 52  1  0  0  0  0
 55 54  1  0  0  0  0
 56 54  2  0  0  0  0
 56  8  1  0  0  0  0
 57 56  1  0  0  0  0
M  END
$$$$
