CSD_code = HIYKIK | q = 0 | S = 0 | Stoichiometry = C27H22AsCl2N2O2Re | MND = 6
 OpenBabel04212202043D

 57 61  0  0  1  0  0  0  0  0999 V2000
    5.2081   11.3483   10.8579 Re  0  0  0  0  0  0  0  0  0  0  0  0
    3.6876   11.7482   12.5787 Cl  0  0  0  0  0  0  0  0  0  0  0  0
    3.5600   11.5030    9.2843 Cl  0  0  0  0  0  0  0  0  0  0  0  0
    5.2308    9.6864   10.9701 O   0  0  0  0  0  1  0  0  0  0  0  0
    6.8187   11.2544    8.8817 As  0  0  0  0  0  0  0  0  0  0  0  0
    6.7131   11.4471   12.4275 N   0  0  2  0  0  0  0  0  0  0  0  0
    5.6043   13.1824   10.8137 O   0  0  0  0  0  0  0  0  0  0  0  0
    6.8018   10.5242   13.3790 N   0  0  0  0  0  0  0  0  0  0  0  0
    6.2057    9.7088   13.3259 H   0  0  0  0  0  0  0  0  0  0  0  0
    8.6417   11.6159    9.4615 C   0  0  0  0  0  0  0  0  0  0  0  0
    9.3327   12.7781    9.1382 C   0  0  0  0  0  0  0  0  0  0  0  0
    8.9006   13.4787    8.4313 H   0  0  0  0  0  0  0  0  0  0  0  0
   10.5580   13.0442    9.7265 C   0  0  0  0  0  0  0  0  0  0  0  0
   11.0899   13.9488    9.4715 H   0  0  0  0  0  0  0  0  0  0  0  0
   11.0947   12.1608   10.6477 C   0  0  0  0  0  0  0  0  0  0  0  0
   12.0465   12.3755   11.1102 H   0  0  0  0  0  0  0  0  0  0  0  0
   10.4087   11.0030   10.9820 C   0  0  0  0  0  0  0  0  0  0  0  0
   10.8255   10.3166   11.7049 H   0  0  0  0  0  0  0  0  0  0  0  0
    9.1869   10.7346   10.3944 C   0  0  0  0  0  0  0  0  0  0  0  0
    8.6273    9.8380   10.6515 H   0  0  0  0  0  0  0  0  0  0  0  0
    6.6115   12.4564    7.3616 C   0  0  0  0  0  0  0  0  0  0  0  0
    5.6086   13.4152    7.3332 C   0  0  0  0  0  0  0  0  0  0  0  0
    4.8995   13.4715    8.1503 H   0  0  0  0  0  0  0  0  0  0  0  0
    5.4962   14.2673    6.2461 C   0  0  0  0  0  0  0  0  0  0  0  0
    4.7119   15.0096    6.2240 H   0  0  0  0  0  0  0  0  0  0  0  0
    6.3815   14.1629    5.1872 C   0  0  0  0  0  0  0  0  0  0  0  0
    6.2916   14.8267    4.3400 H   0  0  0  0  0  0  0  0  0  0  0  0
    7.3800   13.2008    5.2074 C   0  0  0  0  0  0  0  0  0  0  0  0
    8.0658   13.1149    4.3771 H   0  0  0  0  0  0  0  0  0  0  0  0
    7.4960   12.3481    6.2903 C   0  0  0  0  0  0  0  0  0  0  0  0
    8.2720   11.5877    6.3159 H   0  0  0  0  0  0  0  0  0  0  0  0
    6.9606    9.5306    7.9927 C   0  0  0  0  0  0  0  0  0  0  0  0
    8.1675    8.9636    7.5972 C   0  0  0  0  0  0  0  0  0  0  0  0
    9.0992    9.4851    7.7971 H   0  0  0  0  0  0  0  0  0  0  0  0
    8.1754    7.7318    6.9638 C   0  0  0  0  0  0  0  0  0  0  0  0
    9.1134    7.2901    6.6593 H   0  0  0  0  0  0  0  0  0  0  0  0
    6.9851    7.0649    6.7251 C   0  0  0  0  0  0  0  0  0  0  0  0
    6.9969    6.1032    6.2337 H   0  0  0  0  0  0  0  0  0  0  0  0
    5.7813    7.6252    7.1225 C   0  0  0  0  0  0  0  0  0  0  0  0
    4.8548    7.1007    6.9429 H   0  0  0  0  0  0  0  0  0  0  0  0
    5.7673    8.8546    7.7571 C   0  0  0  0  0  0  0  0  0  0  0  0
    4.8348    9.2992    8.0914 H   0  0  0  0  0  0  0  0  0  0  0  0
    6.6227   13.9791   11.0105 C   0  0  0  0  0  0  0  0  0  0  0  0
    6.7250   15.1831   10.2976 C   0  0  0  0  0  0  0  0  0  0  0  0
    5.9343   15.4340    9.6059 H   0  0  0  0  0  0  0  0  0  0  0  0
    7.8085   16.0162   10.4693 C   0  0  0  0  0  0  0  0  0  0  0  0
    7.8705   16.9323    9.9010 H   0  0  0  0  0  0  0  0  0  0  0  0
    8.8151   15.6830   11.3645 C   0  0  0  0  0  0  0  0  0  0  0  0
    9.6641   16.3360   11.4946 H   0  0  0  0  0  0  0  0  0  0  0  0
    8.7237   14.5157   12.0954 C   0  0  0  0  0  0  0  0  0  0  0  0
    9.5066   14.2533   12.7904 H   0  0  0  0  0  0  0  0  0  0  0  0
    7.6460   13.6494   11.9404 C   0  0  0  0  0  0  0  0  0  0  0  0
    7.5355   12.4450   12.7445 C   0  0  1  0  0  3  0  0  0  0  0  0
    8.1818   12.1183   13.9559 C   0  0  0  0  0  0  0  0  0  0  0  0
    8.8933   12.7133   14.4879 H   0  0  0  0  0  0  0  0  0  0  0  0
    7.6803   10.8937   14.3241 C   0  0  0  0  0  0  0  0  0  0  0  0
    7.8903   10.2799   15.1763 H   0  0  0  0  0  0  0  0  0  0  0  0
  1  4  1  0  0  0  0
  1  6  1  0  0  0  0
  1  2  1  0  0  0  0
  3  1  1  0  0  0  0
  5 10  1  0  0  0  0
  6 53  1  0  0  0  0
  6  8  1  1  0  0  0
  7  1  1  0  0  0  0
  7 43  1  0  0  0  0
  8 56  1  0  0  0  0
  9  8  1  0  0  0  0
 10 19  1  0  0  0  0
 11 10  2  0  0  0  0
 11 13  1  0  0  0  0
 12 11  1  0  0  0  0
 13 15  2  0  0  0  0
 14 13  1  0  0  0  0
 15 17  1  0  0  0  0
 15 16  1  0  0  0  0
 17 18  1  0  0  0  0
 19 20  1  0  0  0  0
 19 17  2  0  0  0  0
 21  5  1  0  0  0  0
 22 21  1  0  0  0  0
 22 23  1  0  0  0  0
 24 22  2  0  0  0  0
 25 24  1  0  0  0  0
 26 28  2  0  0  0  0
 26 24  1  0  0  0  0
 27 26  1  0  0  0  0
 28 30  1  0  0  0  0
 29 28  1  0  0  0  0
 30 31  1  0  0  0  0
 30 21  2  0  0  0  0
 32  5  1  0  0  0  0
 33 34  1  0  0  0  0
 33 32  2  0  0  0  0
 35 33  1  0  0  0  0
 36 35  1  0  0  0  0
 37 35  2  0  0  0  0
 37 39  1  0  0  0  0
 38 37  1  0  0  0  0
 39 41  2  0  0  0  0
 40 39  1  0  0  0  0
 41 32  1  0  0  0  0
 41 42  1  0  0  0  0
 43 52  1  0  0  0  0
 44 46  1  0  0  0  0
 44 43  2  0  0  0  0
 45 44  1  0  0  0  0
 46 48  2  0  0  0  0
 47 46  1  0  0  0  0
 48 49  1  0  0  0  0
 48 50  1  0  0  0  0
 50 51  1  0  0  0  0
 52 50  2  0  0  0  0
 53 52  1  1  0  0  0
 53 54  1  0  0  0  0
 54 56  2  0  0  0  0
 54 55  1  0  0  0  0
 56 57  1  0  0  0  0
M  END
$$$$
