CSD_code = HIYKOQ | q = 0 | S = 0 | Stoichiometry = C27H22AsBr2N2O2Re | MND = 6
 OpenBabel04212202043D

 57 61  0  0  1  0  0  0  0  0999 V2000
    7.9134    3.4625   15.4106 Re  0  0  0  0  0  0  0  0  0  0  0  0
    9.4614    3.1466   13.4617 Br  0  0  0  0  0  0  0  0  0  0  0  0
    9.7218    3.2057   17.0416 Br  0  0  0  0  0  0  0  0  0  0  0  0
    7.9814    5.1237   15.3657 O   0  0  0  0  0  1  0  0  0  0  0  0
    6.2622    3.6174   17.4014 As  0  0  0  0  0  0  0  0  0  0  0  0
    7.4531    1.6759   15.3852 O   0  0  0  0  0  0  0  0  0  0  0  0
    6.2795    3.5014   13.9409 N   0  0  1  0  0  0  0  0  0  0  0  0
    6.1064    4.5158   13.1010 N   0  0  0  0  0  0  0  0  0  0  0  0
    6.6986    5.3318   13.1857 H   0  0  0  0  0  0  0  0  0  0  0  0
    6.4202    2.4228   18.9352 C   0  0  0  0  0  0  0  0  0  0  0  0
    7.2579    1.3164   18.9026 C   0  0  0  0  0  0  0  0  0  0  0  0
    7.8754    1.1262   18.0331 H   0  0  0  0  0  0  0  0  0  0  0  0
    7.3302    0.4678   19.9951 C   0  0  0  0  0  0  0  0  0  0  0  0
    7.9896   -0.3867   19.9682 H   0  0  0  0  0  0  0  0  0  0  0  0
    6.5668    0.7221   21.1210 C   0  0  0  0  0  0  0  0  0  0  0  0
    6.6260    0.0627   21.9740 H   0  0  0  0  0  0  0  0  0  0  0  0
    5.7314    1.8278   21.1596 C   0  0  0  0  0  0  0  0  0  0  0  0
    5.1401    2.0299   22.0408 H   0  0  0  0  0  0  0  0  0  0  0  0
    5.6575    2.6779   20.0715 C   0  0  0  0  0  0  0  0  0  0  0  0
    5.0108    3.5496   20.0971 H   0  0  0  0  0  0  0  0  0  0  0  0
    4.4508    3.2703   16.7974 C   0  0  0  0  0  0  0  0  0  0  0  0
    3.8699    4.1868   15.9226 C   0  0  0  0  0  0  0  0  0  0  0  0
    4.3952    5.1151   15.7106 H   0  0  0  0  0  0  0  0  0  0  0  0
    2.6480    3.9171   15.3359 C   0  0  0  0  0  0  0  0  0  0  0  0
    2.2024    4.6323   14.6594 H   0  0  0  0  0  0  0  0  0  0  0  0
    1.9999    2.7227   15.6110 C   0  0  0  0  0  0  0  0  0  0  0  0
    1.0487    2.5074   15.1477 H   0  0  0  0  0  0  0  0  0  0  0  0
    2.5719    1.8049   16.4759 C   0  0  0  0  0  0  0  0  0  0  0  0
    2.0689    0.8727   16.6863 H   0  0  0  0  0  0  0  0  0  0  0  0
    3.7958    2.0735   17.0644 C   0  0  0  0  0  0  0  0  0  0  0  0
    4.2547    1.3497   17.7304 H   0  0  0  0  0  0  0  0  0  0  0  0
    6.1380    5.3621   18.2488 C   0  0  0  0  0  0  0  0  0  0  0  0
    7.3260    6.0484   18.4796 C   0  0  0  0  0  0  0  0  0  0  0  0
    8.2685    5.6130   18.1628 H   0  0  0  0  0  0  0  0  0  0  0  0
    7.3021    7.2874   19.0958 C   0  0  0  0  0  0  0  0  0  0  0  0
    8.2259    7.8177   19.2713 H   0  0  0  0  0  0  0  0  0  0  0  0
    6.0943    7.8465   19.4806 C   0  0  0  0  0  0  0  0  0  0  0  0
    6.0747    8.8147   19.9584 H   0  0  0  0  0  0  0  0  0  0  0  0
    4.9088    7.1682   19.2486 C   0  0  0  0  0  0  0  0  0  0  0  0
    3.9666    7.6060   19.5453 H   0  0  0  0  0  0  0  0  0  0  0  0
    4.9271    5.9283   18.6332 C   0  0  0  0  0  0  0  0  0  0  0  0
    3.9983    5.3978   18.4436 H   0  0  0  0  0  0  0  0  0  0  0  0
    6.4611    0.8581   15.1367 C   0  0  0  0  0  0  0  0  0  0  0  0
    6.4279   -0.4118   15.7278 C   0  0  0  0  0  0  0  0  0  0  0  0
    7.2521   -0.7048   16.3618 H   0  0  0  0  0  0  0  0  0  0  0  0
    5.3678   -1.2625   15.5043 C   0  0  0  0  0  0  0  0  0  0  0  0
    5.3567   -2.2337   15.9758 H   0  0  0  0  0  0  0  0  0  0  0  0
    4.3214   -0.8765   14.6789 C   0  0  0  0  0  0  0  0  0  0  0  0
    3.4907   -1.5439   14.5085 H   0  0  0  0  0  0  0  0  0  0  0  0
    4.3489    0.3597   14.0658 C   0  0  0  0  0  0  0  0  0  0  0  0
    3.5357    0.6594   13.4228 H   0  0  0  0  0  0  0  0  0  0  0  0
    5.4022    1.2450   14.2732 C   0  0  0  0  0  0  0  0  0  0  0  0
    5.4417    2.5278   13.5924 C   0  0  2  0  0  3  0  0  0  0  0  0
    4.6947    2.9678   12.4783 C   0  0  0  0  0  0  0  0  0  0  0  0
    3.9447    2.4206   11.9481 H   0  0  0  0  0  0  0  0  0  0  0  0
    5.1547    4.2309   12.1981 C   0  0  0  0  0  0  0  0  0  0  0  0
    4.8725    4.9238   11.4319 H   0  0  0  0  0  0  0  0  0  0  0  0
  1  3  1  0  0  0  0
  2  1  1  0  0  0  0
  4  1  1  0  0  0  0
  5 32  1  0  0  0  0
  5 10  1  0  0  0  0
  6  1  1  0  0  0  0
  7  8  1  6  0  0  0
  7  1  1  0  0  0  0
  8  9  1  0  0  0  0
 10 19  1  0  0  0  0
 11 10  2  0  0  0  0
 11 13  1  0  0  0  0
 12 11  1  0  0  0  0
 13 15  2  0  0  0  0
 14 13  1  0  0  0  0
 15 17  1  0  0  0  0
 15 16  1  0  0  0  0
 17 18  1  0  0  0  0
 19 20  1  0  0  0  0
 19 17  2  0  0  0  0
 21 30  1  0  0  0  0
 21  5  1  0  0  0  0
 22 21  2  0  0  0  0
 23 22  1  0  0  0  0
 24 26  2  0  0  0  0
 24 22  1  0  0  0  0
 25 24  1  0  0  0  0
 26 28  1  0  0  0  0
 27 26  1  0  0  0  0
 28 29  1  0  0  0  0
 28 30  2  0  0  0  0
 30 31  1  0  0  0  0
 32 33  2  0  0  0  0
 32 41  1  0  0  0  0
 33 35  1  0  0  0  0
 34 33  1  0  0  0  0
 35 36  1  0  0  0  0
 35 37  2  0  0  0  0
 37 38  1  0  0  0  0
 39 37  1  0  0  0  0
 39 40  1  0  0  0  0
 41 39  2  0  0  0  0
 42 41  1  0  0  0  0
 43  6  1  0  0  0  0
 43 44  1  0  0  0  0
 44 45  1  0  0  0  0
 46 44  2  0  0  0  0
 46 47  1  0  0  0  0
 48 46  1  0  0  0  0
 49 48  1  0  0  0  0
 50 52  1  0  0  0  0
 50 48  2  0  0  0  0
 51 50  1  0  0  0  0
 52 43  2  0  0  0  0
 53 54  1  6  0  0  0
 53  7  1  0  0  0  0
 53 52  1  0  0  0  0
 55 54  1  0  0  0  0
 56 54  2  0  0  0  0
 56  8  1  0  0  0  0
 57 56  1  0  0  0  0
M  END
$$$$
