CSD_code = HIYMAE | q = -1 | S = 0 | Stoichiometry = C14H14HgI3N4(1-) | MND = 4
 OpenBabel04212202043D

 36 36  0  0  0  0  0  0  0  0999 V2000
   -0.6757   11.3235    3.7107 Hg  0  0  0  0  0  0  0  0  0  0  0  0
   -3.2161   11.3627    4.5588 I   0  0  0  0  0  0  0  0  0  0  0  0
    1.1818   12.5397    5.2473 I   0  0  0  0  0  0  0  0  0  0  0  0
    0.0301   10.4299    1.2890 I   0  0  0  0  0  0  0  0  0  0  0  0
   -0.0350    9.0457    5.0154 N   0  0  0  0  0  0  0  0  0  0  0  0
    3.5143    6.6733    7.5546 N   0  0  0  0  0  0  0  0  0  0  0  0
    4.3898    5.9712    8.1543 N   0  0  0  0  0  0  0  0  0  0  0  0
    8.0317    3.1514   10.0035 N   0  0  0  0  0  0  0  0  0  0  0  0
    1.1020    8.4434    4.6841 C   0  0  0  0  0  0  0  0  0  0  0  0
    1.3718    8.4807    3.6367 H   0  0  0  0  0  0  0  0  0  0  0  0
    1.9164    7.8073    5.5988 C   0  0  0  0  0  0  0  0  0  0  0  0
    2.8385    7.3441    5.2859 H   0  0  0  0  0  0  0  0  0  0  0  0
    1.5457    7.7861    6.9463 C   0  0  0  0  0  0  0  0  0  0  0  0
    0.3352    8.3945    7.2811 C   0  0  0  0  0  0  0  0  0  0  0  0
   -0.0262    8.4168    8.2963 H   0  0  0  0  0  0  0  0  0  0  0  0
   -0.4085    9.0026    6.2873 C   0  0  0  0  0  0  0  0  0  0  0  0
   -1.3476    9.4854    6.5252 H   0  0  0  0  0  0  0  0  0  0  0  0
    2.4095    7.1717    7.9498 C   0  0  0  0  0  0  0  0  0  0  0  0
    1.9967    7.1711    9.3968 C   0  0  0  0  0  0  0  0  0  0  0  0
    2.7470    6.6569    9.9956 H   0  0  0  0  0  0  0  0  0  0  0  0
    1.0418    6.6621    9.5190 H   0  0  0  0  0  0  0  0  0  0  0  0
    1.8937    8.1930    9.7597 H   0  0  0  0  0  0  0  0  0  0  0  0
    5.9368    7.7479    8.8106 C   0  0  0  0  0  0  0  0  0  0  0  0
    5.2170    8.3971    8.3154 H   0  0  0  0  0  0  0  0  0  0  0  0
    6.9164    7.9075    8.3631 H   0  0  0  0  0  0  0  0  0  0  0  0
    5.9875    8.0240    9.8641 H   0  0  0  0  0  0  0  0  0  0  0  0
    5.5148    6.3116    8.6590 C   0  0  0  0  0  0  0  0  0  0  0  0
    6.3899    5.2391    9.1146 C   0  0  0  0  0  0  0  0  0  0  0  0
    6.0732    3.8990    8.8628 C   0  0  0  0  0  0  0  0  0  0  0  0
    5.1784    3.6576    8.3117 H   0  0  0  0  0  0  0  0  0  0  0  0
    6.9195    2.9104    9.3239 C   0  0  0  0  0  0  0  0  0  0  0  0
    6.7037    1.8647    9.1441 H   0  0  0  0  0  0  0  0  0  0  0  0
    7.5642    5.4882    9.8302 C   0  0  0  0  0  0  0  0  0  0  0  0
    7.8734    6.4936   10.0671 H   0  0  0  0  0  0  0  0  0  0  0  0
    8.3349    4.4161   10.2441 C   0  0  0  0  0  0  0  0  0  0  0  0
    9.2495    4.5765   10.8016 H   0  0  0  0  0  0  0  0  0  0  0  0
  1  2  1  0  0  0  0
  1  3  1  0  0  0  0
  4  1  1  0  0  0  0
  5 16  1  0  0  0  0
  6 18  2  0  0  0  0
  6  7  1  0  0  0  0
  7 27  2  0  0  0  0
  8 35  1  0  0  0  0
  9  5  2  0  0  0  0
  9 11  1  0  0  0  0
 10  9  1  0  0  0  0
 11 13  2  0  0  0  0
 12 11  1  0  0  0  0
 13 14  1  0  0  0  0
 13 18  1  0  0  0  0
 14 15  1  0  0  0  0
 16 17  1  0  0  0  0
 16 14  2  0  0  0  0
 18 19  1  0  0  0  0
 19 21  1  0  0  0  0
 19 22  1  0  0  0  0
 19 20  1  0  0  0  0
 23 26  1  0  0  0  0
 24 23  1  0  0  0  0
 25 23  1  0  0  0  0
 27 23  1  0  0  0  0
 27 28  1  0  0  0  0
 28 33  1  0  0  0  0
 29 28  2  0  0  0  0
 29 31  1  0  0  0  0
 30 29  1  0  0  0  0
 31  8  2  0  0  0  0
 32 31  1  0  0  0  0
 33 34  1  0  0  0  0
 33 35  2  0  0  0  0
 35 36  1  0  0  0  0
M  END
$$$$
