CSD_code = HIYPOV | q = 0 | S = 0 | Stoichiometry = C29H23Cl2NO4PRe | MND = 6
 OpenBabel04212202043D

 61 66  0  0  1  0  0  0  0  0999 V2000
    9.8230   10.1751    2.2499 Re  0  0  0  0  0  0  0  0  0  0  0  0
    9.2068   10.2407    0.7103 O   0  0  0  0  0  1  0  0  0  0  0  0
    7.9376   10.5763    3.5159 Cl  0  0  0  0  0  0  0  0  0  0  0  0
   10.4698   12.3352    2.5286 Cl  0  0  0  0  0  0  0  0  0  0  0  0
   12.0996    9.7694    1.2961 P   0  0  0  0  0  4  0  0  0  0  0  0
   13.4320    9.7156    2.5210 C   0  0  0  0  0  0  0  0  0  0  0  0
   13.5416   10.8319    3.3495 C   0  0  0  0  0  0  0  0  0  0  0  0
   12.8467   11.6530    3.2291 H   0  0  0  0  0  0  0  0  0  0  0  0
   14.5217   10.8706    4.3232 C   0  0  0  0  0  0  0  0  0  0  0  0
   14.6098   11.7391    4.9593 H   0  0  0  0  0  0  0  0  0  0  0  0
   15.3840    9.7978    4.4877 C   0  0  0  0  0  0  0  0  0  0  0  0
   16.1354    9.8193    5.2624 H   0  0  0  0  0  0  0  0  0  0  0  0
   15.2800    8.6932    3.6589 C   0  0  0  0  0  0  0  0  0  0  0  0
   15.9555    7.8598    3.7820 H   0  0  0  0  0  0  0  0  0  0  0  0
   14.3118    8.6489    2.6707 C   0  0  0  0  0  0  0  0  0  0  0  0
   14.2508    7.7921    2.0150 H   0  0  0  0  0  0  0  0  0  0  0  0
   12.1232    8.2065    0.3732 C   0  0  0  0  0  0  0  0  0  0  0  0
   12.0801    8.1970   -1.0178 C   0  0  0  0  0  0  0  0  0  0  0  0
   12.1407    9.1288   -1.5609 H   0  0  0  0  0  0  0  0  0  0  0  0
   11.9589    6.9989   -1.6992 C   0  0  0  0  0  0  0  0  0  0  0  0
   11.9288    6.9982   -2.7785 H   0  0  0  0  0  0  0  0  0  0  0  0
   11.8691    5.8047   -1.0031 C   0  0  0  0  0  0  0  0  0  0  0  0
   11.7686    4.8725   -1.5382 H   0  0  0  0  0  0  0  0  0  0  0  0
   11.9053    5.8078    0.3823 C   0  0  0  0  0  0  0  0  0  0  0  0
   11.8333    4.8800    0.9307 H   0  0  0  0  0  0  0  0  0  0  0  0
   12.0272    7.0010    1.0684 C   0  0  0  0  0  0  0  0  0  0  0  0
   12.0485    6.9997    2.1496 H   0  0  0  0  0  0  0  0  0  0  0  0
   12.6346   11.0296    0.1065 C   0  0  0  0  0  0  0  0  0  0  0  0
   13.9873   11.2805   -0.1023 C   0  0  0  0  0  0  0  0  0  0  0  0
   14.7322   10.7330    0.4585 H   0  0  0  0  0  0  0  0  0  0  0  0
   14.3712   12.2370   -1.0247 C   0  0  0  0  0  0  0  0  0  0  0  0
   15.4206   12.4357   -1.1854 H   0  0  0  0  0  0  0  0  0  0  0  0
   13.4137   12.9414   -1.7368 C   0  0  0  0  0  0  0  0  0  0  0  0
   13.7193   13.6913   -2.4511 H   0  0  0  0  0  0  0  0  0  0  0  0
   12.0664   12.6912   -1.5290 C   0  0  0  0  0  0  0  0  0  0  0  0
   11.3217   13.2454   -2.0796 H   0  0  0  0  0  0  0  0  0  0  0  0
   11.6729   11.7379   -0.6077 C   0  0  0  0  0  0  0  0  0  0  0  0
   10.6232   11.5421   -0.4234 H   0  0  0  0  0  0  0  0  0  0  0  0
    9.3522    7.9893    2.5460 N   0  0  0  0  0  0  0  0  0  0  0  0
   10.7488    9.6654    3.8928 O   0  0  0  0  0  0  0  0  0  0  0  0
   12.0882   10.1904    6.0833 O   0  0  0  0  0  0  0  0  0  0  0  0
   12.6654   10.7412    6.6342 H   0  0  0  0  0  0  0  0  0  0  0  0
   13.3023    8.5277    6.9403 O   0  0  0  0  0  0  0  0  0  0  0  0
    8.5638    7.2027    1.8381 C   0  0  0  0  0  0  0  0  0  0  0  0
    8.4517    5.8365    2.1651 C   0  0  0  0  0  0  0  0  0  0  0  0
    7.8013    5.2169    1.5680 H   0  0  0  0  0  0  0  0  0  0  0  0
    9.1497    5.3046    3.2152 C   0  0  0  0  0  0  0  0  0  0  0  0
    9.0717    4.2566    3.4635 H   0  0  0  0  0  0  0  0  0  0  0  0
    9.9751    6.1421    3.9925 C   0  0  0  0  0  0  0  0  0  0  0  0
   10.7599    5.7265    5.0894 C   0  0  0  0  0  0  0  0  0  0  0  0
   10.7415    4.6885    5.3822 H   0  0  0  0  0  0  0  0  0  0  0  0
   11.5296    6.6339    5.7611 C   0  0  0  0  0  0  0  0  0  0  0  0
   12.1448    6.3298    6.5947 H   0  0  0  0  0  0  0  0  0  0  0  0
   11.5572    7.9999    5.4213 C   0  0  0  0  0  0  0  0  0  0  0  0
   10.7970    8.4607    4.3400 C   0  0  0  0  0  0  0  0  0  0  0  0
   10.0173    7.4981    3.6099 C   0  0  1  0  0  3  0  0  0  0  0  0
    7.7984    7.7828    0.7039 C   0  0  0  0  0  0  0  0  0  0  0  0
    7.2070    8.6261    1.0616 H   0  0  0  0  0  0  0  0  0  0  0  0
    7.1482    7.0442    0.2457 H   0  0  0  0  0  0  0  0  0  0  0  0
    8.4877    8.1793   -0.0425 H   0  0  0  0  0  0  0  0  0  0  0  0
   12.4057    8.9010    6.2194 C   0  0  0  0  0  0  0  0  0  0  0  0
  1  4  1  0  0  0  0
  1 39  1  0  0  0  0
  1  3  1  0  0  0  0
  1 40  1  0  0  0  0
  2  1  1  0  0  0  0
  5  1  1  0  0  0  0
  5  6  1  0  0  0  0
  6 15  2  0  0  0  0
  6  7  1  0  0  0  0
  7  9  2  0  0  0  0
  8  7  1  0  0  0  0
  9 11  1  0  0  0  0
  9 10  1  0  0  0  0
 11 12  1  0  0  0  0
 13 14  1  0  0  0  0
 13 11  2  0  0  0  0
 15 13  1  0  0  0  0
 16 15  1  0  0  0  0
 17 26  1  0  0  0  0
 17  5  1  0  0  0  0
 18 17  2  0  0  0  0
 19 18  1  0  0  0  0
 20 18  1  0  0  0  0
 20 22  2  0  0  0  0
 21 20  1  0  0  0  0
 22 24  1  0  0  0  0
 23 22  1  0  0  0  0
 24 25  1  0  0  0  0
 24 26  2  0  0  0  0
 26 27  1  0  0  0  0
 28  5  1  0  0  0  0
 29 28  1  0  0  0  0
 29 30  1  0  0  0  0
 31 29  2  0  0  0  0
 32 31  1  0  0  0  0
 33 35  2  0  0  0  0
 33 31  1  0  0  0  0
 34 33  1  0  0  0  0
 35 37  1  0  0  0  0
 36 35  1  0  0  0  0
 37 38  1  0  0  0  0
 37 28  2  0  0  0  0
 39 56  1  0  0  0  0
 40 55  1  0  0  0  0
 41 61  1  0  0  0  0
 41 42  1  0  0  0  0
 44 45  2  0  0  0  0
 44 39  1  0  0  0  0
 45 47  1  0  0  0  0
 46 45  1  0  0  0  0
 47 48  1  0  0  0  0
 47 49  2  0  0  0  0
 49 50  1  0  0  0  0
 50 51  1  0  0  0  0
 50 52  2  0  0  0  0
 52 53  1  0  0  0  0
 54 52  1  0  0  0  0
 54 61  1  0  0  0  0
 55 54  2  0  0  0  0
 56 49  1  6  0  0  0
 56 55  1  0  0  0  0
 57 58  1  0  0  0  0
 57 44  1  0  0  0  0
 59 57  1  0  0  0  0
 60 57  1  0  0  0  0
 61 43  2  0  0  0  0
M  END
$$$$
