CSD_code = HIYWUJ | q = 0 | S = 0 | Stoichiometry = C24H28Cl2Ti | MND = 12
 OpenBabel04212202043D

 55 56  0  0  1  0  0  0  0  0999 V2000
    4.4303    0.5514    3.0758 Ti  0  0  0  0  0  0  0  0  0  0  0  0
    5.0405   -0.9771    1.5473 Cl  0  0  0  0  0  0  0  0  0  0  0  0
    4.4451   -1.0615    4.6037 Cl  0  0  0  0  0  0  0  0  0  0  0  0
    6.7623    0.7413    3.3799 C   0  0  0  0  0  0  0  0  0  0  0  0
    7.4318   -0.1101    3.3777 H   0  0  0  0  0  0  0  0  0  0  0  0
    6.4280    1.5358    2.2600 C   0  0  0  0  0  0  0  0  0  0  0  0
    6.8059    1.4003    1.2553 H   0  0  0  0  0  0  0  0  0  0  0  0
    5.6165    2.5932    2.7041 C   0  0  0  0  0  0  0  0  0  0  0  0
    5.2990    3.4395    2.1098 H   0  0  0  0  0  0  0  0  0  0  0  0
    5.4408    2.4537    4.1007 C   0  0  0  0  0  0  0  0  0  0  0  0
    4.9894    3.1854    4.7561 H   0  0  0  0  0  0  0  0  0  0  0  0
    6.1626    1.3188    4.5185 C   0  0  0  0  0  3  0  0  0  0  0  0
    6.3139    1.0006    5.5423 H   0  0  0  0  0  0  0  0  0  0  0  0
    2.2217    0.9754    3.8197 C   0  0  0  0  0  0  0  0  0  0  0  0
    2.1614   -0.0799    2.8683 C   0  0  0  0  0  0  0  0  0  0  0  0
    1.7924   -1.0823    3.0426 H   0  0  0  0  0  0  0  0  0  0  0  0
    2.5494    0.4277    1.6121 C   0  0  0  0  0  0  0  0  0  0  0  0
    2.5146   -0.1120    0.6748 H   0  0  0  0  0  0  0  0  0  0  0  0
    2.9001    1.7809    1.7747 C   0  0  1  0  0  0  0  0  0  0  0  0
    3.1327    2.4692    0.9722 H   0  0  0  0  0  0  0  0  0  0  0  0
    2.6771    2.1234    3.1292 C   0  0  0  0  0  0  0  0  0  0  0  0
    2.6851    3.1292    3.5270 H   0  0  0  0  0  0  0  0  0  0  0  0
    1.6380    1.0103    5.2212 C   0  0  1  0  0  0  0  0  0  0  0  0
    2.7088    1.5048    6.2017 C   0  0  0  0  0  0  0  0  0  0  0  0
    3.5784    0.8488    6.1387 H   0  0  0  0  0  0  0  0  0  0  0  0
    2.3394    1.4840    7.2228 H   0  0  0  0  0  0  0  0  0  0  0  0
    3.0082    2.5242    5.9651 H   0  0  0  0  0  0  0  0  0  0  0  0
    0.4268    1.9369    5.1530 C   0  0  0  0  0  0  0  0  0  0  0  0
    0.1750    2.9312    6.0891 C   0  0  0  0  0  0  0  0  0  0  0  0
    0.8590    3.1055    6.9045 H   0  0  0  0  0  0  0  0  0  0  0  0
   -0.9638    3.7160    6.0013 C   0  0  0  0  0  0  0  0  0  0  0  0
   -1.1404    4.4817    6.7430 H   0  0  0  0  0  0  0  0  0  0  0  0
   -1.8717    3.5218    4.9770 C   0  0  0  0  0  0  0  0  0  0  0  0
   -2.7598    4.1326    4.9121 H   0  0  0  0  0  0  0  0  0  0  0  0
   -1.6301    2.5359    4.0348 C   0  0  0  0  0  0  0  0  0  0  0  0
   -2.3305    2.3738    3.2285 H   0  0  0  0  0  0  0  0  0  0  0  0
   -0.4938    1.7547    4.1235 C   0  0  0  0  0  0  0  0  0  0  0  0
   -0.3156    0.9925    3.3787 H   0  0  0  0  0  0  0  0  0  0  0  0
    1.1446   -0.3932    5.6356 C   0  0  0  0  0  0  0  0  0  0  0  0
    0.4054   -0.7298    4.9069 H   0  0  0  0  0  0  0  0  0  0  0  0
    1.9883   -1.0853    5.6172 H   0  0  0  0  0  0  0  0  0  0  0  0
    0.4822   -0.4371    7.0202 C   0  0  0  0  0  0  0  0  0  0  0  0
    1.2409   -0.3577    7.7993 H   0  0  0  0  0  0  0  0  0  0  0  0
   -0.2010    0.4084    7.1228 H   0  0  0  0  0  0  0  0  0  0  0  0
   -0.2573   -1.7301    7.2002 C   0  0  0  0  0  0  0  0  0  0  0  0
    0.3153   -2.5248    7.6602 H   0  0  0  0  0  0  0  0  0  0  0  0
   -1.5019   -1.9868    6.8159 C   0  0  0  0  0  0  0  0  0  0  0  0
   -2.4065   -1.0029    6.1342 C   0  0  0  0  0  0  0  0  0  0  0  0
   -1.9600   -0.0174    6.0461 H   0  0  0  0  0  0  0  0  0  0  0  0
   -3.3436   -0.9151    6.6837 H   0  0  0  0  0  0  0  0  0  0  0  0
   -2.6472   -1.3586    5.1319 H   0  0  0  0  0  0  0  0  0  0  0  0
   -2.1250   -3.3348    7.0365 C   0  0  0  0  0  0  0  0  0  0  0  0
   -1.4302   -4.0165    7.5200 H   0  0  0  0  0  0  0  0  0  0  0  0
   -2.4340   -3.7685    6.0856 H   0  0  0  0  0  0  0  0  0  0  0  0
   -3.0138   -3.2424    7.6605 H   0  0  0  0  0  0  0  0  0  0  0  0
  1  3  1  0  0  0  0
  2  1  1  0  0  0  0
  4 12  1  0  0  0  0
  5  4  1  0  0  0  0
  6  8  1  0  0  0  0
  6  4  2  0  0  0  0
  7  6  1  0  0  0  0
  8 10  2  0  0  0  0
  9  8  1  0  0  0  0
 10 12  1  0  0  0  0
 10 11  1  0  0  0  0
 12 13  1  0  0  0  0
 14 23  1  0  0  0  0
 15 16  1  0  0  0  0
 15 14  1  0  0  0  0
 17 19  1  0  0  0  0
 17 15  2  0  0  0  0
 18 17  1  0  0  0  0
 19 20  1  6  0  0  0
 19  1  1  0  0  0  0
 19 21  1  0  0  0  0
 21 22  1  0  0  0  0
 21 14  2  0  0  0  0
 23 39  1  1  0  0  0
 23 24  1  0  0  0  0
 24 26  1  0  0  0  0
 25 24  1  0  0  0  0
 27 24  1  0  0  0  0
 28 23  1  0  0  0  0
 28 29  1  0  0  0  0
 29 30  1  0  0  0  0
 31 29  2  0  0  0  0
 31 32  1  0  0  0  0
 33 31  1  0  0  0  0
 34 33  1  0  0  0  0
 35 37  1  0  0  0  0
 35 33  2  0  0  0  0
 36 35  1  0  0  0  0
 37 28  2  0  0  0  0
 38 37  1  0  0  0  0
 39 42  1  0  0  0  0
 40 39  1  0  0  0  0
 41 39  1  0  0  0  0
 42 44  1  0  0  0  0
 42 45  1  0  0  0  0
 42 43  1  0  0  0  0
 45 46  1  0  0  0  0
 47 52  1  0  0  0  0
 47 45  2  0  0  0  0
 48 50  1  0  0  0  0
 48 47  1  0  0  0  0
 49 48  1  0  0  0  0
 51 48  1  0  0  0  0
 52 53  1  0  0  0  0
 52 55  1  0  0  0  0
 54 52  1  0  0  0  0
M  END
$$$$
