CSD_code = HIZJOQ | q = 0 | S = 0 | Stoichiometry = C24H38Cl2P2Pd | MND = 4
 OpenBabel04212202043D

 67 68  0  0  0  0  0  0  0  0999 V2000
   10.2277    2.2672    9.8815 Pd  0  0  0  0  0  0  0  0  0  0  0  0
   11.8899    3.8232   10.0279 Cl  0  0  0  0  0  0  0  0  0  0  0  0
    8.9920    3.9469    8.9783 P   0  0  0  0  0  4  0  0  0  0  0  0
    9.7832    4.8596    7.6165 C   0  0  0  0  0  0  0  0  0  0  0  0
   10.2460    4.1629    6.4887 C   0  0  0  0  0  0  0  0  0  0  0  0
   10.0329    2.6766    6.3789 C   0  0  0  0  0  0  0  0  0  0  0  0
    9.0023    2.4944    6.0564 H   0  0  0  0  0  0  0  0  0  0  0  0
   10.1402    2.2277    7.3885 H   0  0  0  0  0  0  0  0  0  0  0  0
   10.9758    1.9510    5.4241 C   0  0  0  0  0  0  0  0  0  0  0  0
   10.7796    2.2245    4.3896 H   0  0  0  0  0  0  0  0  0  0  0  0
   10.8296    0.8772    5.5165 H   0  0  0  0  0  0  0  0  0  0  0  0
   12.0126    2.1815    5.6587 H   0  0  0  0  0  0  0  0  0  0  0  0
   10.8775    4.8805    5.4818 C   0  0  0  0  0  0  0  0  0  0  0  0
   11.2406    4.3689    4.6046 H   0  0  0  0  0  0  0  0  0  0  0  0
   11.0573    6.2493    5.5771 C   0  0  0  0  0  0  0  0  0  0  0  0
   11.5533    6.7822    4.7791 H   0  0  0  0  0  0  0  0  0  0  0  0
   10.6078    6.9290    6.6936 C   0  0  0  0  0  0  0  0  0  0  0  0
   10.7512    7.9959    6.7795 H   0  0  0  0  0  0  0  0  0  0  0  0
    9.9765    6.2335    7.7080 C   0  0  0  0  0  0  0  0  0  0  0  0
    9.6416    6.7705    8.5811 H   0  0  0  0  0  0  0  0  0  0  0  0
    7.3074    3.5550    8.3272 C   0  0  0  0  0  0  0  0  0  0  0  0
    7.3919    2.6610    7.7051 H   0  0  0  0  0  0  0  0  0  0  0  0
    6.7003    3.2716    9.1911 H   0  0  0  0  0  0  0  0  0  0  0  0
    6.6624    4.6950    7.5517 C   0  0  0  0  0  0  0  0  0  0  0  0
    6.5427    5.5792    8.1743 H   0  0  0  0  0  0  0  0  0  0  0  0
    5.6772    4.3948    7.1995 H   0  0  0  0  0  0  0  0  0  0  0  0
    7.2677    4.9679    6.6889 H   0  0  0  0  0  0  0  0  0  0  0  0
    8.6557    5.1744   10.3066 C   0  0  0  0  0  0  0  0  0  0  0  0
    9.6270    5.5868   10.5985 H   0  0  0  0  0  0  0  0  0  0  0  0
    8.0086    5.9827    9.9557 H   0  0  0  0  0  0  0  0  0  0  0  0
    8.0274    4.4458   11.4935 C   0  0  0  0  0  0  0  0  0  0  0  0
    6.9802    4.2151   11.3069 H   0  0  0  0  0  0  0  0  0  0  0  0
    8.0870    5.0517   12.3955 H   0  0  0  0  0  0  0  0  0  0  0  0
    8.5588    3.4987   11.6688 H   0  0  0  0  0  0  0  0  0  0  0  0
    8.5644    0.7122    9.7344 Cl  0  0  0  0  0  0  0  0  0  0  0  0
   11.4637    0.5879   10.7847 P   0  0  0  0  0  4  0  0  0  0  0  0
   10.6719   -0.3247   12.1462 C   0  0  0  0  0  0  0  0  0  0  0  0
   10.2093    0.3721   13.2741 C   0  0  0  0  0  0  0  0  0  0  0  0
   10.4224    1.8584   13.3839 C   0  0  0  0  0  0  0  0  0  0  0  0
   11.4530    2.0406   13.7064 H   0  0  0  0  0  0  0  0  0  0  0  0
   10.3151    2.3073   12.3744 H   0  0  0  0  0  0  0  0  0  0  0  0
    9.4795    2.5839   14.3388 C   0  0  0  0  0  0  0  0  0  0  0  0
    9.6757    2.3105   15.3732 H   0  0  0  0  0  0  0  0  0  0  0  0
    9.6257    3.6578   14.2464 H   0  0  0  0  0  0  0  0  0  0  0  0
    8.4427    2.3534   14.1041 H   0  0  0  0  0  0  0  0  0  0  0  0
    9.5780   -0.3456   14.2811 C   0  0  0  0  0  0  0  0  0  0  0  0
    9.2148    0.1661   15.1583 H   0  0  0  0  0  0  0  0  0  0  0  0
    9.3982   -1.7143   14.1858 C   0  0  0  0  0  0  0  0  0  0  0  0
    8.9021   -2.2473   14.9837 H   0  0  0  0  0  0  0  0  0  0  0  0
    9.8477   -2.3941   13.0693 C   0  0  0  0  0  0  0  0  0  0  0  0
    9.7042   -3.4610   12.9833 H   0  0  0  0  0  0  0  0  0  0  0  0
   10.4787   -1.6985   12.0548 C   0  0  0  0  0  0  0  0  0  0  0  0
   10.8137   -2.2356   11.1817 H   0  0  0  0  0  0  0  0  0  0  0  0
   13.1481    0.9802   11.4357 C   0  0  0  0  0  0  0  0  0  0  0  0
   13.0637    1.8743   12.0577 H   0  0  0  0  0  0  0  0  0  0  0  0
   13.7552    1.2636   10.5717 H   0  0  0  0  0  0  0  0  0  0  0  0
   13.7929   -0.1599   12.2111 C   0  0  0  0  0  0  0  0  0  0  0  0
   13.9126   -1.0442   11.5886 H   0  0  0  0  0  0  0  0  0  0  0  0
   14.7781    0.1404   12.5632 H   0  0  0  0  0  0  0  0  0  0  0  0
   13.1877   -0.4326   13.0740 H   0  0  0  0  0  0  0  0  0  0  0  0
   11.7996   -0.6395    9.4561 C   0  0  0  0  0  0  0  0  0  0  0  0
   10.8282   -1.0519    9.1642 H   0  0  0  0  0  0  0  0  0  0  0  0
   12.4467   -1.4477    9.8070 H   0  0  0  0  0  0  0  0  0  0  0  0
   12.4279    0.0892    8.2692 C   0  0  0  0  0  0  0  0  0  0  0  0
   13.4751    0.3198    8.4557 H   0  0  0  0  0  0  0  0  0  0  0  0
   12.3682   -0.5167    7.3672 H   0  0  0  0  0  0  0  0  0  0  0  0
   11.8966    1.0363    8.0939 H   0  0  0  0  0  0  0  0  0  0  0  0
  1  2  1  0  0  0  0
  1 36  1  0  0  0  0
  3  1  1  0  0  0  0
  3 28  1  0  0  0  0
  4 19  1  0  0  0  0
  4  3  1  0  0  0  0
  5  4  2  0  0  0  0
  6  5  1  0  0  0  0
  6  8  1  0  0  0  0
  7  6  1  0  0  0  0
  9 11  1  0  0  0  0
  9 12  1  0  0  0  0
  9  6  1  0  0  0  0
 10  9  1  0  0  0  0
 13 15  2  0  0  0  0
 13  5  1  0  0  0  0
 14 13  1  0  0  0  0
 15 17  1  0  0  0  0
 16 15  1  0  0  0  0
 17 18  1  0  0  0  0
 17 19  2  0  0  0  0
 19 20  1  0  0  0  0
 21  3  1  0  0  0  0
 21 23  1  0  0  0  0
 22 21  1  0  0  0  0
 24 25  1  0  0  0  0
 24 21  1  0  0  0  0
 26 24  1  0  0  0  0
 27 24  1  0  0  0  0
 28 29  1  0  0  0  0
 28 31  1  0  0  0  0
 30 28  1  0  0  0  0
 31 34  1  0  0  0  0
 31 33  1  0  0  0  0
 32 31  1  0  0  0  0
 35  1  1  0  0  0  0
 36 54  1  0  0  0  0
 36 37  1  0  0  0  0
 37 38  1  0  0  0  0
 38 39  1  0  0  0  0
 38 46  2  0  0  0  0
 39 40  1  0  0  0  0
 39 42  1  0  0  0  0
 41 39  1  0  0  0  0
 42 43  1  0  0  0  0
 44 42  1  0  0  0  0
 45 42  1  0  0  0  0
 46 47  1  0  0  0  0
 48 46  1  0  0  0  0
 48 49  1  0  0  0  0
 50 48  2  0  0  0  0
 51 50  1  0  0  0  0
 52 37  2  0  0  0  0
 52 50  1  0  0  0  0
 53 52  1  0  0  0  0
 54 55  1  0  0  0  0
 54 57  1  0  0  0  0
 56 54  1  0  0  0  0
 57 59  1  0  0  0  0
 57 60  1  0  0  0  0
 58 57  1  0  0  0  0
 61 63  1  0  0  0  0
 61 36  1  0  0  0  0
 62 61  1  0  0  0  0
 64 65  1  0  0  0  0
 64 61  1  0  0  0  0
 66 64  1  0  0  0  0
 67 64  1  0  0  0  0
M  END
$$$$
