CSD_code = HIZVIV | q = 0 | S = 0 | Stoichiometry = C18H21ClN2Pd | MND = 4
 OpenBabel04212202043D

 43 47  0  0  1  0  0  0  0  0999 V2000
    6.9187    4.1605    7.3416 Pd  0  0  1  0  0  0  0  0  0  0  0  0
    8.2807    5.7903    6.6599 Cl  0  0  0  0  0  0  0  0  0  0  0  0
    5.1754    5.4214    6.6040 N   0  0  0  0  0  0  0  0  0  0  0  0
    5.6498    2.6756    7.8015 N   0  0  0  0  0  0  0  0  0  0  0  0
    5.4058    6.6565    7.0479 C   0  0  0  0  0  3  0  0  0  0  0  0
    5.0679    7.7880    6.3257 C   0  0  0  0  0  0  0  0  0  0  0  0
    4.4817    7.6202    5.0821 C   0  0  0  0  0  0  0  0  0  0  0  0
    4.2151    6.3382    4.6332 C   0  0  0  0  0  0  0  0  0  0  0  0
    4.5730    5.2502    5.4245 C   0  0  0  0  0  0  0  0  0  0  0  0
    5.4376    2.2393    9.0398 C   0  0  0  0  0  3  0  0  0  0  0  0
    4.5286    1.2385    9.3317 C   0  0  0  0  0  0  0  0  0  0  0  0
    3.8221    0.6614    8.2876 C   0  0  0  0  0  0  0  0  0  0  0  0
    4.0403    1.1248    6.9999 C   0  0  0  0  0  0  0  0  0  0  0  0
    4.9584    2.1431    6.7820 C   0  0  0  0  0  0  0  0  0  0  0  0
    5.2254    2.7391    5.4284 C   0  0  2  0  0  0  0  0  0  0  0  0
    4.1833    3.8388    5.0570 C   0  0  2  0  0  0  0  0  0  0  0  0
    3.9271    3.5370    3.5725 C   0  0  1  0  0  0  0  0  0  0  0  0
    5.2349    3.7186    2.7865 C   0  0  0  0  0  0  0  0  0  0  0  0
    6.0443    2.4510    3.1343 C   0  0  0  0  0  0  0  0  0  0  0  0
    5.1761    1.7937    4.2128 C   0  0  2  0  0  0  0  0  0  0  0  0
    3.7841    2.0166    3.6206 C   0  0  0  0  0  0  0  0  0  0  0  0
    8.5406    3.1219    8.0416 C   0  0  0  0  0  0  0  0  0  0  0  0
    5.8715    6.7346    8.0277 H   0  0  0  0  0  0  0  0  0  0  0  0
    5.2763    8.7693    6.7198 H   0  0  0  0  0  0  0  0  0  0  0  0
    4.2247    8.4743    4.4731 H   0  0  0  0  0  0  0  0  0  0  0  0
    3.7404    6.1864    3.6776 H   0  0  0  0  0  0  0  0  0  0  0  0
    6.0253    2.7100    9.8203 H   0  0  0  0  0  0  0  0  0  0  0  0
    4.3853    0.9140   10.3499 H   0  0  0  0  0  0  0  0  0  0  0  0
    3.1140   -0.1323    8.4710 H   0  0  0  0  0  0  0  0  0  0  0  0
    3.5059    0.6915    6.1699 H   0  0  0  0  0  0  0  0  0  0  0  0
    6.2394    3.1988    5.4809 H   0  0  0  0  0  0  0  0  0  0  0  0
    3.2550    3.6371    5.6124 H   0  0  0  0  0  0  0  0  0  0  0  0
    3.0751    4.0726    3.1571 H   0  0  0  0  0  0  0  0  0  0  0  0
    5.7588    4.6247    3.0877 H   0  0  0  0  0  0  0  0  0  0  0  0
    5.0372    3.7831    1.7168 H   0  0  0  0  0  0  0  0  0  0  0  0
    6.1409    1.7944    2.2693 H   0  0  0  0  0  0  0  0  0  0  0  0
    7.0460    2.6833    3.4946 H   0  0  0  0  0  0  0  0  0  0  0  0
    5.4557    0.7672    4.4446 H   0  0  0  0  0  0  0  0  0  0  0  0
    3.6754    1.5672    2.6353 H   0  0  0  0  0  0  0  0  0  0  0  0
    2.9627    1.6888    4.2548 H   0  0  0  0  0  0  0  0  0  0  0  0
    8.8635    3.5940    8.9799 H   0  0  0  0  0  0  0  0  0  0  0  0
    9.3635    3.1814    7.3223 H   0  0  0  0  0  0  0  0  0  0  0  0
    8.2968    2.0678    8.2243 H   0  0  0  0  0  0  0  0  0  0  0  0
  1  2  1  6  0  0  0
  1  4  1  0  0  0  0
  1 22  1  0  0  0  0
  3  5  1  0  0  0  0
  3  1  1  0  0  0  0
  4 10  1  0  0  0  0
  5 23  1  0  0  0  0
  6 24  1  0  0  0  0
  6  5  1  0  0  0  0
  7  6  2  0  0  0  0
  8  7  1  0  0  0  0
  8  9  2  0  0  0  0
  9  3  1  0  0  0  0
 10 11  1  0  0  0  0
 10 27  1  0  0  0  0
 11 28  1  0  0  0  0
 12 29  1  0  0  0  0
 12 11  2  0  0  0  0
 13 12  1  0  0  0  0
 14 13  2  0  0  0  0
 14  4  1  0  0  0  0
 15 31  1  1  0  0  0
 15 14  1  0  0  0  0
 16  9  1  0  0  0  0
 16 15  1  0  0  0  0
 16 32  1  1  0  0  0
 17 33  1  6  0  0  0
 17 21  1  0  0  0  0
 17 16  1  0  0  0  0
 18 34  1  0  0  0  0
 18 19  1  0  0  0  0
 18 17  1  0  0  0  0
 19 37  1  0  0  0  0
 19 20  1  0  0  0  0
 20 38  1  1  0  0  0
 20 15  1  0  0  0  0
 21 20  1  0  0  0  0
 21 40  1  0  0  0  0
 22 43  1  0  0  0  0
 22 41  1  0  0  0  0
 25  7  1  0  0  0  0
 26  8  1  0  0  0  0
 30 13  1  0  0  0  0
 35 18  1  0  0  0  0
 36 19  1  0  0  0  0
 39 21  1  0  0  0  0
 42 22  1  0  0  0  0
M  END
$$$$
