CSD_code = HIZXET | q = 0 | S = 0 | Stoichiometry = C15H19Cl2NSiTi | MND = 8
 OpenBabel04212202043D

 39 41  0  0  1  0  0  0  0  0999 V2000
    8.0018    1.1149    7.0213 Ti  0  0  0  0  0  0  0  0  0  0  0  0
    8.9807    0.0643    8.6419 Cl  0  0  0  0  0  0  0  0  0  0  0  0
    7.3691   -0.6544    5.9476 Cl  0  0  0  0  0  0  0  0  0  0  0  0
    9.0094    3.6145    5.8299 Si  0  0  0  0  0  0  0  0  0  0  0  0
    9.3455    1.9174    6.0256 N   0  0  0  0  0  0  0  0  0  0  0  0
    7.4150    3.3066    6.8280 C   0  0  1  0  0  0  0  0  0  0  0  0
    6.3604    2.5204    6.2873 C   0  0  0  0  0  3  0  0  0  0  0  0
    5.7589    1.7825    7.3289 C   0  0  0  0  0  0  0  0  0  0  0  0
    6.4531    2.0741    8.5223 C   0  0  0  0  0  0  0  0  0  0  0  0
    7.4793    2.9920    8.2128 C   0  0  0  0  0  3  0  0  0  0  0  0
    8.7126    4.1950    4.0341 C   0  0  0  0  0  0  0  0  0  0  0  0
   10.2292    4.8123    6.6826 C   0  0  0  0  0  0  0  0  0  0  0  0
   10.3846    1.1029    5.5665 C   0  0  0  0  0  0  0  0  0  0  0  0
   11.5461    0.9343    6.3419 C   0  0  0  0  0  0  0  0  0  0  0  0
   12.5443    0.0835    5.8908 C   0  0  0  0  0  0  0  0  0  0  0  0
   12.4186   -0.5898    4.6892 C   0  0  0  0  0  0  0  0  0  0  0  0
   11.2891   -0.4006    3.9143 C   0  0  0  0  0  0  0  0  0  0  0  0
   10.2681    0.4412    4.3307 C   0  0  0  0  0  0  0  0  0  0  0  0
   11.7305    1.6883    7.6274 C   0  0  0  0  0  0  0  0  0  0  0  0
    9.0742    0.6569    3.4447 C   0  0  0  0  0  0  0  0  0  0  0  0
    5.9967    2.5726    5.2668 H   0  0  0  0  0  0  0  0  0  0  0  0
    4.8618    1.1801    7.2457 H   0  0  0  0  0  0  0  0  0  0  0  0
    6.1823    1.7339    9.5150 H   0  0  0  0  0  0  0  0  0  0  0  0
    8.1322    3.4682    8.9360 H   0  0  0  0  0  0  0  0  0  0  0  0
   13.4310   -0.0508    6.4936 H   0  0  0  0  0  0  0  0  0  0  0  0
   13.2004   -1.2556    4.3559 H   0  0  0  0  0  0  0  0  0  0  0  0
   11.1919   -0.9138    2.9683 H   0  0  0  0  0  0  0  0  0  0  0  0
    8.4438    5.2457    4.0139 H   0  0  0  0  0  0  0  0  0  0  0  0
    9.6155    4.0767    3.4439 H   0  0  0  0  0  0  0  0  0  0  0  0
    7.9199    3.6390    3.5441 H   0  0  0  0  0  0  0  0  0  0  0  0
   11.1963    4.7851    6.1913 H   0  0  0  0  0  0  0  0  0  0  0  0
   10.3806    4.5716    7.7301 H   0  0  0  0  0  0  0  0  0  0  0  0
    9.8622    5.8315    6.6247 H   0  0  0  0  0  0  0  0  0  0  0  0
   10.7666    1.9810    8.0504 H   0  0  0  0  0  0  0  0  0  0  0  0
   12.2628    1.0741    8.3505 H   0  0  0  0  0  0  0  0  0  0  0  0
   12.3196    2.5883    7.4467 H   0  0  0  0  0  0  0  0  0  0  0  0
    9.3313    1.3462    2.6392 H   0  0  0  0  0  0  0  0  0  0  0  0
    8.7644   -0.2857    2.9973 H   0  0  0  0  0  0  0  0  0  0  0  0
    8.2363    1.0725    4.0100 H   0  0  0  0  0  0  0  0  0  0  0  0
  1  2  1  0  0  0  0
  3  1  1  0  0  0  0
  4  5  1  0  0  0  0
  4 12  1  0  0  0  0
  4  6  1  0  0  0  0
  5  1  1  0  0  0  0
  6  7  1  6  0  0  0
  6  1  1  0  0  0  0
  6 10  1  0  0  0  0
  7  8  1  0  0  0  0
  8  9  2  0  0  0  0
  9 23  1  0  0  0  0
 10  9  1  0  0  0  0
 10 24  1  0  0  0  0
 11  4  1  0  0  0  0
 12 32  1  0  0  0  0
 13  5  1  0  0  0  0
 13 14  1  0  0  0  0
 14 19  1  0  0  0  0
 15 14  2  0  0  0  0
 15 25  1  0  0  0  0
 16 15  1  0  0  0  0
 17 18  1  0  0  0  0
 17 16  2  0  0  0  0
 18 13  2  0  0  0  0
 19 34  1  0  0  0  0
 19 35  1  0  0  0  0
 20 39  1  0  0  0  0
 20 18  1  0  0  0  0
 21  7  1  0  0  0  0
 22  8  1  0  0  0  0
 26 16  1  0  0  0  0
 27 17  1  0  0  0  0
 28 11  1  0  0  0  0
 29 11  1  0  0  0  0
 30 11  1  0  0  0  0
 31 12  1  0  0  0  0
 33 12  1  0  0  0  0
 36 19  1  0  0  0  0
 37 20  1  0  0  0  0
 38 20  1  0  0  0  0
M  END
$$$$
