CSD_code = HOBPEV | q = 0 | S = 0 | Stoichiometry = C19H20ClCuN2 | MND = 2
 OpenBabel04212202043D

 43 45  0  0  1  0  0  0  0  0999 V2000
   -2.2204    2.9891   12.4810 Cu  0  0  0  0  0  0  0  0  0  0  0  0
   -1.5881    3.0503   10.5147 Cl  0  0  0  0  0  0  0  0  0  0  0  0
   -3.2846    3.9749   15.0108 N   0  0  0  0  0  0  0  0  0  0  0  0
   -2.6313    1.9430   15.1799 N   0  0  0  0  0  0  0  0  0  0  0  0
   -2.7426    2.9622   14.3015 C   0  0  2  0  0  3  0  0  0  0  0  0
   -3.5072    3.5966   16.3072 C   0  0  0  0  0  0  0  0  0  0  0  0
   -3.9274    4.2641   17.0310 H   0  0  0  0  0  0  0  0  0  0  0  0
   -3.0944    2.3119   16.4140 C   0  0  0  0  0  0  0  0  0  0  0  0
   -3.0842    1.6427   17.2496 H   0  0  0  0  0  0  0  0  0  0  0  0
   -3.5861    5.2599   14.4821 C   0  0  0  0  0  0  0  0  0  0  0  0
   -4.8825    5.5185   14.0391 C   0  0  0  0  0  0  0  0  0  0  0  0
   -5.1642    6.7808   13.5373 C   0  0  0  0  0  0  0  0  0  0  0  0
   -6.1610    6.9998   13.1850 H   0  0  0  0  0  0  0  0  0  0  0  0
   -4.1799    7.7505   13.4765 C   0  0  0  0  0  0  0  0  0  0  0  0
   -4.4125    8.7272   13.0801 H   0  0  0  0  0  0  0  0  0  0  0  0
   -2.8977    7.4724   13.9131 C   0  0  0  0  0  0  0  0  0  0  0  0
   -2.1309    8.2301   13.8542 H   0  0  0  0  0  0  0  0  0  0  0  0
   -2.5788    6.2218   14.4229 C   0  0  0  0  0  0  0  0  0  0  0  0
   -5.9242    4.4430   14.0860 C   0  0  0  0  0  0  0  0  0  0  0  0
   -5.6010    3.5879   13.4922 H   0  0  0  0  0  0  0  0  0  0  0  0
   -6.8668    4.8065   13.6872 H   0  0  0  0  0  0  0  0  0  0  0  0
   -6.0877    4.1001   15.1074 H   0  0  0  0  0  0  0  0  0  0  0  0
   -1.1897    5.8917   14.8730 C   0  0  0  0  0  0  0  0  0  0  0  0
   -0.5676    6.7820   14.8811 H   0  0  0  0  0  0  0  0  0  0  0  0
   -0.7483    5.1652   14.1896 H   0  0  0  0  0  0  0  0  0  0  0  0
   -1.1924    5.4552   15.8713 H   0  0  0  0  0  0  0  0  0  0  0  0
   -2.1102    0.6575   14.8676 C   0  0  0  0  0  0  0  0  0  0  0  0
   -2.9993   -0.3753   14.5728 C   0  0  0  0  0  0  0  0  0  0  0  0
   -2.4773   -1.6286   14.2872 C   0  0  0  0  0  0  0  0  0  0  0  0
   -3.1490   -2.4405   14.0521 H   0  0  0  0  0  0  0  0  0  0  0  0
   -1.1105   -1.8404   14.2925 C   0  0  0  0  0  0  0  0  0  0  0  0
   -0.7181   -2.8199   14.0650 H   0  0  0  0  0  0  0  0  0  0  0  0
   -0.2441   -0.8010   14.5777 C   0  0  0  0  0  0  0  0  0  0  0  0
    0.8222   -0.9692   14.5699 H   0  0  0  0  0  0  0  0  0  0  0  0
   -0.7292    0.4660   14.8691 C   0  0  0  0  0  0  0  0  0  0  0  0
   -4.4746   -0.1165   14.5444 C   0  0  0  0  0  0  0  0  0  0  0  0
   -4.8352    0.2036   15.5218 H   0  0  0  0  0  0  0  0  0  0  0  0
   -5.0138   -1.0135   14.2537 H   0  0  0  0  0  0  0  0  0  0  0  0
   -4.6999    0.6734   13.8281 H   0  0  0  0  0  0  0  0  0  0  0  0
    0.1937    1.6104   15.1513 C   0  0  0  0  0  0  0  0  0  0  0  0
    1.2196    1.2636   15.2355 H   0  0  0  0  0  0  0  0  0  0  0  0
   -0.0822    2.1213   16.0735 H   0  0  0  0  0  0  0  0  0  0  0  0
    0.1363    2.3334   14.3361 H   0  0  0  0  0  0  0  0  0  0  0  0
  2  1  1  0  0  0  0
  3  6  1  0  0  0  0
  4  8  1  0  0  0  0
  5  1  1  1  0  0  0
  5  3  1  0  0  0  0
  5  4  1  0  0  0  0
  6  8  2  0  0  0  0
  6  7  1  0  0  0  0
  8  9  1  0  0  0  0
 10  3  1  0  0  0  0
 11 19  1  0  0  0  0
 11 10  2  0  0  0  0
 12 11  1  0  0  0  0
 13 12  1  0  0  0  0
 14 12  2  0  0  0  0
 14 16  1  0  0  0  0
 15 14  1  0  0  0  0
 16 18  2  0  0  0  0
 17 16  1  0  0  0  0
 18 10  1  0  0  0  0
 18 23  1  0  0  0  0
 19 22  1  0  0  0  0
 20 19  1  0  0  0  0
 21 19  1  0  0  0  0
 23 24  1  0  0  0  0
 23 26  1  0  0  0  0
 25 23  1  0  0  0  0
 27 35  1  0  0  0  0
 27  4  1  0  0  0  0
 28 27  2  0  0  0  0
 29 31  2  0  0  0  0
 29 28  1  0  0  0  0
 30 29  1  0  0  0  0
 31 33  1  0  0  0  0
 32 31  1  0  0  0  0
 33 35  2  0  0  0  0
 34 33  1  0  0  0  0
 35 40  1  0  0  0  0
 36 28  1  0  0  0  0
 36 37  1  0  0  0  0
 38 36  1  0  0  0  0
 39 36  1  0  0  0  0
 40 41  1  0  0  0  0
 40 42  1  0  0  0  0
 43 40  1  0  0  0  0
M  END
$$$$
