CSD_code = HOBPUJ | q = 0 | S = 0 | Stoichiometry = C10H18ClNO5PRh | MND = 4
 OpenBabel04212202043D

 37 37  0  0  1  0  0  0  0  0999 V2000
   10.6853    6.4076    6.5489 Rh  0  0  0  0  0  0  0  0  0  0  0  0
   11.4851    4.4748    7.2856 Cl  0  0  0  0  0  0  0  0  0  0  0  0
    8.9998    6.7437    9.7368 P   0  0  0  0  0  0  0  0  0  0  0  0
   10.4609    4.9700    3.9519 O   0  0  0  0  0  1  0  0  0  0  0  0
    9.7624    9.0463    5.4793 O   0  0  0  0  0  1  0  0  0  0  0  0
    8.5128    8.1097    9.9585 O   0  0  0  0  0  0  0  0  0  0  0  0
    8.4031    5.6724   10.7700 O   0  0  0  0  0  0  0  0  0  0  0  0
    8.6328    6.0994    8.3134 O   0  0  0  0  0  0  0  0  0  0  0  0
   11.2691    7.2760    8.4733 N   0  0  0  0  0  4  0  0  0  0  0  0
   10.5101    5.5654    4.9251 C   0  0  0  0  0  2  0  0  0  0  0  0
   10.1130    8.0408    5.9084 C   0  0  0  0  0  2  0  0  0  0  0  0
   12.7135    7.4263    8.7047 C   0  0  0  0  0  0  0  0  0  0  0  0
   12.8468    7.7494   10.2027 C   0  0  0  0  0  0  0  0  0  0  0  0
   11.5632    7.1746   10.8318 C   0  0  0  0  0  0  0  0  0  0  0  0
   10.8183    6.5350    9.6568 C   0  0  1  0  0  0  0  0  0  0  0  0
    7.7970    6.1043   11.9829 C   0  0  0  0  0  0  0  0  0  0  0  0
    8.7729    6.0305   13.1441 C   0  0  0  0  0  0  0  0  0  0  0  0
    7.2540    6.0250    7.9456 C   0  0  0  0  0  0  0  0  0  0  0  0
    7.1772    5.6918    6.4679 C   0  0  0  0  0  0  0  0  0  0  0  0
   10.8464    8.2061    8.5632 H   0  0  0  0  0  0  0  0  0  0  0  0
   13.1326    8.2006    8.0595 H   0  0  0  0  0  0  0  0  0  0  0  0
   13.1907    6.4694    8.4740 H   0  0  0  0  0  0  0  0  0  0  0  0
   12.9069    8.8259   10.3621 H   0  0  0  0  0  0  0  0  0  0  0  0
   13.7423    7.2966   10.6230 H   0  0  0  0  0  0  0  0  0  0  0  0
   10.9518    7.9732   11.2595 H   0  0  0  0  0  0  0  0  0  0  0  0
   11.7769    6.4465   11.6121 H   0  0  0  0  0  0  0  0  0  0  0  0
   11.0747    5.4790    9.5329 H   0  0  0  0  0  0  0  0  0  0  0  0
    6.9498    5.4334   12.1494 H   0  0  0  0  0  0  0  0  0  0  0  0
    7.4311    7.1281   11.8544 H   0  0  0  0  0  0  0  0  0  0  0  0
    8.2531    6.2525   14.0720 H   0  0  0  0  0  0  0  0  0  0  0  0
    9.2029    5.0341   13.2074 H   0  0  0  0  0  0  0  0  0  0  0  0
    9.5739    6.7523   13.0070 H   0  0  0  0  0  0  0  0  0  0  0  0
    6.7739    6.9866    8.1640 H   0  0  0  0  0  0  0  0  0  0  0  0
    6.7740    5.2441    8.5460 H   0  0  0  0  0  0  0  0  0  0  0  0
    6.1434    5.5408    6.1698 H   0  0  0  0  0  0  0  0  0  0  0  0
    7.6054    6.5033    5.8803 H   0  0  0  0  0  0  0  0  0  0  0  0
    7.7434    4.7822    6.2746 H   0  0  0  0  0  0  0  0  0  0  0  0
  1  2  1  0  0  0  0
  1  9  1  0  0  0  0
  3  6  2  0  0  0  0
  3  7  1  0  0  0  0
  4 10  1  0  0  0  0
  5 11  1  0  0  0  0
  7 16  1  0  0  0  0
  8  3  1  0  0  0  0
  9 20  1  0  0  0  0
  9 12  1  0  0  0  0
  9 15  1  0  0  0  0
 10  1  1  0  0  0  0
 11  1  1  0  0  0  0
 12 13  1  0  0  0  0
 13 23  1  0  0  0  0
 13 24  1  0  0  0  0
 13 14  1  0  0  0  0
 14 25  1  0  0  0  0
 14 26  1  0  0  0  0
 15 27  1  6  0  0  0
 15  3  1  0  0  0  0
 15 14  1  0  0  0  0
 16 28  1  0  0  0  0
 16 17  1  0  0  0  0
 17 31  1  0  0  0  0
 17 30  1  0  0  0  0
 18 33  1  0  0  0  0
 18  8  1  0  0  0  0
 18 34  1  0  0  0  0
 19 18  1  0  0  0  0
 21 12  1  0  0  0  0
 22 12  1  0  0  0  0
 29 16  1  0  0  0  0
 32 17  1  0  0  0  0
 35 19  1  0  0  0  0
 36 19  1  0  0  0  0
 37 19  1  0  0  0  0
M  END
$$$$
