CSD_code = HOBQUL | q = 0 | S = 0 | Stoichiometry = C24H21Br3FeN4 | MND = 5
 OpenBabel04212202043D

 53 57  0  0  1  0  0  0  0  0999 V2000
    5.8389   -0.0020    6.1610 Br  0  0  0  0  0  0  0  0  0  0  0  0
    3.3181    2.5795    3.7709 Br  0  0  0  0  0  0  0  0  0  0  0  0
    1.5180   -0.8920   11.0782 Br  0  0  0  0  0  0  0  0  0  0  0  0
    4.9648    1.7959    5.1152 Fe  0  0  0  0  0  0  0  0  0  0  0  0
    4.2072    2.5161    6.8265 N   0  0  0  0  0  0  0  0  0  0  0  0
    5.8934    3.3045    5.1982 N   0  0  0  0  0  0  0  0  0  0  0  0
    6.1585    1.4961    3.5708 N   0  0  0  0  0  0  0  0  0  0  0  0
    6.4107   -4.5115    0.5466 N   0  0  0  0  0  0  0  0  0  0  0  0
    4.6126    3.7309    7.0729 C   0  0  0  0  0  0  0  0  0  0  0  0
    5.5695    4.2410    6.1286 C   0  0  0  0  0  0  0  0  0  0  0  0
    6.1844    5.4891    6.1298 C   0  0  0  0  0  0  0  0  0  0  0  0
    5.9127    6.2226    6.8709 H   0  0  0  0  0  0  0  0  0  0  0  0
    7.1428    5.7723    5.1675 C   0  0  0  0  0  0  0  0  0  0  0  0
    7.6324    6.7329    5.1585 H   0  0  0  0  0  0  0  0  0  0  0  0
    7.4585    4.8217    4.2091 C   0  0  0  0  0  0  0  0  0  0  0  0
    8.1887    5.0298    3.4447 H   0  0  0  0  0  0  0  0  0  0  0  0
    6.8099    3.5898    4.2347 C   0  0  0  0  0  0  0  0  0  0  0  0
    6.9617    2.4919    3.3203 C   0  0  2  0  0  3  0  0  0  0  0  0
    4.1737    4.5498    8.2433 C   0  0  0  0  0  0  0  0  0  0  0  0
    3.4263    4.0186    8.8267 H   0  0  0  0  0  0  0  0  0  0  0  0
    3.7456    5.4862    7.8876 H   0  0  0  0  0  0  0  0  0  0  0  0
    5.0217    4.7870    8.8841 H   0  0  0  0  0  0  0  0  0  0  0  0
    7.9248    2.5526    2.1798 C   0  0  0  0  0  0  0  0  0  0  0  0
    7.7950    1.7025    1.5152 H   0  0  0  0  0  0  0  0  0  0  0  0
    8.9495    2.5592    2.5502 H   0  0  0  0  0  0  0  0  0  0  0  0
    7.7630    3.4697    1.6157 H   0  0  0  0  0  0  0  0  0  0  0  0
    3.5478    1.7758    7.8262 C   0  0  0  0  0  0  0  0  0  0  0  0
    4.2819    1.3695    8.9537 C   0  0  0  0  0  0  0  0  0  0  0  0
    3.6665    0.5679    9.9039 C   0  0  0  0  0  0  0  0  0  0  0  0
    4.2277    0.2431   10.7663 H   0  0  0  0  0  0  0  0  0  0  0  0
    2.3480    0.1915    9.7485 C   0  0  0  0  0  0  0  0  0  0  0  0
    1.6162    0.6042    8.6523 C   0  0  0  0  0  0  0  0  0  0  0  0
    0.5821    0.3139    8.5481 H   0  0  0  0  0  0  0  0  0  0  0  0
    2.2069    1.3962    7.6798 C   0  0  0  0  0  0  0  0  0  0  0  0
    5.7122    1.7537    9.1854 C   0  0  0  0  0  0  0  0  0  0  0  0
    6.1740    2.1839    8.3013 H   0  0  0  0  0  0  0  0  0  0  0  0
    6.2826    0.8718    9.4683 H   0  0  0  0  0  0  0  0  0  0  0  0
    5.7775    2.4752   10.0005 H   0  0  0  0  0  0  0  0  0  0  0  0
    1.3923    1.8393    6.5083 C   0  0  0  0  0  0  0  0  0  0  0  0
    0.3320    1.7972    6.7432 H   0  0  0  0  0  0  0  0  0  0  0  0
    1.5730    1.1816    5.6581 H   0  0  0  0  0  0  0  0  0  0  0  0
    1.6469    2.8520    6.2059 H   0  0  0  0  0  0  0  0  0  0  0  0
    6.2268    0.2774    2.8970 C   0  0  0  0  0  0  0  0  0  0  0  0
    5.0951   -0.2343    2.2606 C   0  0  0  0  0  0  0  0  0  0  0  0
    4.1884    0.3497    2.2325 H   0  0  0  0  0  0  0  0  0  0  0  0
    5.1415   -1.4710    1.6540 C   0  0  0  0  0  0  0  0  0  0  0  0
    4.2693   -1.8636    1.1532 H   0  0  0  0  0  0  0  0  0  0  0  0
    6.3171   -2.2229    1.6888 C   0  0  0  0  0  0  0  0  0  0  0  0
    7.4451   -1.7225    2.3415 C   0  0  0  0  0  0  0  0  0  0  0  0
    8.3479   -2.3131    2.3803 H   0  0  0  0  0  0  0  0  0  0  0  0
    7.4005   -0.4809    2.9357 C   0  0  0  0  0  0  0  0  0  0  0  0
    8.2584   -0.0987    3.4679 H   0  0  0  0  0  0  0  0  0  0  0  0
    6.3667   -3.4891    1.0633 C   0  0  0  0  0  0  0  0  0  0  0  0
  2  4  1  0  0  0  0
  4  6  1  0  0  0  0
  4  1  1  0  0  0  0
  4  5  1  0  0  0  0
  5  9  1  0  0  0  0
  5 27  1  0  0  0  0
  6 10  1  0  0  0  0
  7  4  1  0  0  0  0
  8 53  3  0  0  0  0
  9 19  1  0  0  0  0
 10 11  1  0  0  0  0
 10  9  2  0  0  0  0
 11 12  1  0  0  0  0
 13 11  2  0  0  0  0
 14 13  1  0  0  0  0
 15 17  2  0  0  0  0
 15 13  1  0  0  0  0
 16 15  1  0  0  0  0
 17  6  1  0  0  0  0
 18 23  1  6  0  0  0
 18  7  1  0  0  0  0
 18 17  1  0  0  0  0
 19 20  1  0  0  0  0
 19 22  1  0  0  0  0
 21 19  1  0  0  0  0
 23 25  1  0  0  0  0
 24 23  1  0  0  0  0
 26 23  1  0  0  0  0
 27 28  1  0  0  0  0
 28 35  1  0  0  0  0
 28 29  2  0  0  0  0
 29 30  1  0  0  0  0
 31 29  1  0  0  0  0
 31  3  1  0  0  0  0
 32 31  2  0  0  0  0
 33 32  1  0  0  0  0
 34 27  2  0  0  0  0
 34 32  1  0  0  0  0
 35 37  1  0  0  0  0
 35 38  1  0  0  0  0
 36 35  1  0  0  0  0
 39 40  1  0  0  0  0
 39 34  1  0  0  0  0
 41 39  1  0  0  0  0
 42 39  1  0  0  0  0
 43 51  1  0  0  0  0
 43  7  1  0  0  0  0
 44 43  2  0  0  0  0
 45 44  1  0  0  0  0
 46 48  2  0  0  0  0
 46 44  1  0  0  0  0
 47 46  1  0  0  0  0
 48 49  1  0  0  0  0
 49 50  1  0  0  0  0
 49 51  2  0  0  0  0
 51 52  1  0  0  0  0
 53 48  1  0  0  0  0
M  END
$$$$
