CSD_code = HOBVAX | q = 0 | S = 0 | Stoichiometry = C12H10FeINO5 | MND = 6
 OpenBabel04212202043D

 30 31  0  0  1  0  0  0  0  0999 V2000
    8.8614    7.3448   11.8756 Fe  0  0  0  0  0  0  0  0  0  0  0  0
   10.4897    6.4125   13.5200 I   0  0  0  0  0  0  0  0  0  0  0  0
    7.8101    9.2765   13.7583 O   0  0  0  0  0  1  0  0  0  0  0  0
    7.1310    8.8083   10.0952 O   0  0  0  0  0  1  0  0  0  0  0  0
   10.1852    9.7742   11.5231 O   0  0  0  0  0  0  0  0  0  0  0  0
    7.6223    5.2805   11.9240 O   0  0  0  0  0  0  0  0  0  0  0  0
    6.2895    3.6511   12.6719 O   0  0  0  0  0  0  0  0  0  0  0  0
    9.6025    6.1696   10.3911 N   0  0  0  0  0  0  0  0  0  0  0  0
    8.2267    8.4768   13.0597 C   0  0  0  0  0  2  0  0  0  0  0  0
    7.7932    8.1696   10.7799 C   0  0  0  0  0  2  0  0  0  0  0  0
   10.1289    8.6161   11.2311 C   0  0  0  0  0  0  0  0  0  0  0  0
   11.1433    7.9786   10.2658 C   0  0  0  0  0  0  0  0  0  0  0  0
   11.3857    8.6790    9.4625 H   0  0  0  0  0  0  0  0  0  0  0  0
   12.0556    7.8288   10.8552 H   0  0  0  0  0  0  0  0  0  0  0  0
   10.6620    6.6687    9.7450 C   0  0  1  0  0  3  0  0  0  0  0  0
   11.2491    5.9939    8.6848 C   0  0  0  0  0  0  0  0  0  0  0  0
   12.1014    6.4209    8.1812 H   0  0  0  0  0  0  0  0  0  0  0  0
   10.7278    4.7694    8.3006 C   0  0  0  0  0  0  0  0  0  0  0  0
   11.1663    4.2192    7.4830 H   0  0  0  0  0  0  0  0  0  0  0  0
    9.6395    4.2558    8.9870 C   0  0  0  0  0  0  0  0  0  0  0  0
    9.2110    3.3026    8.7228 H   0  0  0  0  0  0  0  0  0  0  0  0
    9.0998    4.9891   10.0348 C   0  0  0  0  0  0  0  0  0  0  0  0
    7.9129    4.4636   10.7922 C   0  0  0  0  0  0  0  0  0  0  0  0
    7.0320    4.4377   10.1352 H   0  0  0  0  0  0  0  0  0  0  0  0
    8.1018    3.4376   11.1356 H   0  0  0  0  0  0  0  0  0  0  0  0
    6.7814    4.7294   12.8418 C   0  0  0  0  0  0  0  0  0  0  0  0
    6.5989    5.6305   14.0192 C   0  0  0  0  0  0  0  0  0  0  0  0
    6.4508    6.6572   13.6869 H   0  0  0  0  0  0  0  0  0  0  0  0
    7.5000    5.5945   14.6322 H   0  0  0  0  0  0  0  0  0  0  0  0
    5.7539    5.2945   14.6124 H   0  0  0  0  0  0  0  0  0  0  0  0
  1  9  1  0  0  0  0
  1  2  1  0  0  0  0
  4 10  1  0  0  0  0
  6 26  1  0  0  0  0
  7 26  2  0  0  0  0
  8  1  1  0  0  0  0
  9  3  1  0  0  0  0
 10  1  1  0  0  0  0
 11  5  2  0  0  0  0
 11  1  1  0  0  0  0
 12 14  1  0  0  0  0
 12 11  1  0  0  0  0
 13 12  1  0  0  0  0
 15 16  1  1  0  0  0
 15 12  1  0  0  0  0
 15  8  1  0  0  0  0
 17 16  1  0  0  0  0
 18 16  2  0  0  0  0
 18 20  1  0  0  0  0
 19 18  1  0  0  0  0
 20 22  2  0  0  0  0
 21 20  1  0  0  0  0
 22  8  1  0  0  0  0
 22 23  1  0  0  0  0
 23 25  1  0  0  0  0
 23  6  1  0  0  0  0
 24 23  1  0  0  0  0
 26 27  1  0  0  0  0
 27 30  1  0  0  0  0
 27 29  1  0  0  0  0
 28 27  1  0  0  0  0
M  END
$$$$
