CSD_code = HOBWEB | q = 0 | S = 0 | Stoichiometry = C8H7Cl4IN2W | MND = 6
 OpenBabel04212202043D

 23 23  0  0  0  0  0  0  0  0999 V2000
    2.2354    4.4601   12.1895 W   0  0  0  0  0  0  0  0  0  0  0  0
    1.0857    2.4192   12.4364 Cl  0  0  0  0  0  0  0  0  0  0  0  0
    3.8079    3.6781   13.7364 Cl  0  0  0  0  0  0  0  0  0  0  0  0
    0.2569    5.3812   11.3348 Cl  0  0  0  0  0  0  0  0  0  0  0  0
    3.0292    6.6271   12.5526 Cl  0  0  0  0  0  0  0  0  0  0  0  0
    3.7090    3.8002    9.5373 C   0  0  0  0  0  0  0  0  0  0  0  0
    5.5568    2.7656    8.3719 C   0  0  0  0  0  0  0  0  0  0  0  0
    6.4811    2.2085    8.3904 H   0  0  0  0  0  0  0  0  0  0  0  0
    3.8216    3.8902    7.1245 C   0  0  0  0  0  0  0  0  0  0  0  0
    3.4048    4.2022    6.1790 H   0  0  0  0  0  0  0  0  0  0  0  0
    5.9954    2.6964    5.3619 I   0  0  0  0  0  0  0  0  0  0  0  0
    3.0837    4.0964   10.6752 N   0  0  0  0  0  2  0  0  0  0  0  0
    5.0081    3.1739    7.1658 C   0  0  0  0  0  0  0  0  0  0  0  0
    4.9164    3.0742    9.5507 C   0  0  0  0  0  0  0  0  0  0  0  0
    5.3207    2.7681   10.5051 H   0  0  0  0  0  0  0  0  0  0  0  0
    3.1739    4.2035    8.2981 C   0  0  0  0  0  0  0  0  0  0  0  0
    2.2475    4.7600    8.2957 H   0  0  0  0  0  0  0  0  0  0  0  0
    1.1646    4.8693   14.0522 N   0  0  0  0  0  2  0  0  0  0  0  0
    0.5315    4.9643   15.0037 C   0  0  0  0  0  2  0  0  0  0  0  0
   -0.2516    5.0817   16.1807 C   0  0  0  0  0  0  0  0  0  0  0  0
   -1.1538    5.6530   15.9605 H   0  0  0  0  0  0  0  0  0  0  0  0
    0.3238    5.5921   16.9535 H   0  0  0  0  0  0  0  0  0  0  0  0
   -0.5279    4.0863   16.5299 H   0  0  0  0  0  0  0  0  0  0  0  0
  1  2  1  0  0  0  0
  1  5  1  0  0  0  0
  1  3  1  0  0  0  0
  1 18  1  0  0  0  0
  4  1  1  0  0  0  0
  6 14  1  0  0  0  0
  6 12  1  0  0  0  0
  7  8  1  0  0  0  0
  7 14  2  0  0  0  0
  9 13  2  0  0  0  0
  9 16  1  0  0  0  0
 10  9  1  0  0  0  0
 11 13  1  0  0  0  0
 12  1  1  0  0  0  0
 13  7  1  0  0  0  0
 14 15  1  0  0  0  0
 16  6  2  0  0  0  0
 17 16  1  0  0  0  0
 18 19  1  0  0  0  0
 19 20  1  0  0  0  0
 20 23  1  0  0  0  0
 20 22  1  0  0  0  0
 21 20  1  0  0  0  0
M  END
$$$$
