CSD_code = HOCCUA | q = 0 | S = 0 | Stoichiometry = C19H25Cl2CrN | MND = 8
 OpenBabel04212202043D

 48 50  0  0  1  0  0  0  0  0999 V2000
    7.4280    7.5318    3.9547 Cr  0  0  0  0  0  0  0  0  0  0  0  0
    6.0116    7.7086    2.4057 Cl  0  0  0  0  0  0  0  0  0  0  0  0
    7.3510    9.1051    5.4654 Cl  0  0  0  0  0  0  0  0  0  0  0  0
    6.5873    6.2219    4.9046 N   0  0  0  0  0  0  0  0  0  0  0  0
    9.9414    3.1106    6.3586 C   0  0  0  0  0  0  0  0  0  0  0  0
   10.0987    2.2648    7.0109 H   0  0  0  0  0  0  0  0  0  0  0  0
    5.4711    6.3216    5.8194 C   0  0  0  0  0  0  0  0  0  0  0  0
    4.8960    5.3829    5.7809 H   0  0  0  0  0  0  0  0  0  0  0  0
    9.5634    8.6568    3.0908 C   0  0  0  0  0  0  0  0  0  0  0  0
    9.6857    7.8070    4.2357 C   0  0  1  0  0  3  0  0  0  0  0  0
    9.3097    6.4853    3.8571 C   0  0  1  0  0  0  0  0  0  0  0  0
   10.8026    4.9450    5.0880 C   0  0  0  0  0  0  0  0  0  0  0  0
   11.6364    5.5336    4.7344 H   0  0  0  0  0  0  0  0  0  0  0  0
    8.6583    3.4507    5.9675 C   0  0  0  0  0  0  0  0  0  0  0  0
    7.8219    2.8634    6.3198 H   0  0  0  0  0  0  0  0  0  0  0  0
    8.4281    4.5344    5.1304 C   0  0  0  0  0  0  0  0  0  0  0  0
    7.0184    4.8564    4.6949 C   0  0  0  0  0  0  0  0  0  0  0  0
    6.9250    4.6461    3.6198 H   0  0  0  0  0  0  0  0  0  0  0  0
    6.3494    4.1599    5.2116 H   0  0  0  0  0  0  0  0  0  0  0  0
   11.0182    3.8572    5.9126 C   0  0  0  0  0  0  0  0  0  0  0  0
   12.0226    3.5953    6.2098 H   0  0  0  0  0  0  0  0  0  0  0  0
    9.5145    5.2933    4.6901 C   0  0  0  0  0  0  0  0  0  0  0  0
    9.8924   10.1121    3.1100 C   0  0  0  0  0  0  0  0  0  0  0  0
   10.9585   10.2574    3.2906 H   0  0  0  0  0  0  0  0  0  0  0  0
    9.3477   10.6061    3.9158 H   0  0  0  0  0  0  0  0  0  0  0  0
    9.6287   10.5915    2.1712 H   0  0  0  0  0  0  0  0  0  0  0  0
    6.0049    6.4966    7.2487 C   0  0  0  0  0  0  0  0  0  0  0  0
    6.6636    5.6698    7.5066 H   0  0  0  0  0  0  0  0  0  0  0  0
    5.1796    6.5269    7.9547 H   0  0  0  0  0  0  0  0  0  0  0  0
    6.5658    7.4244    7.3151 H   0  0  0  0  0  0  0  0  0  0  0  0
    9.1034    7.8819    2.0230 C   0  0  0  0  0  0  0  0  0  0  0  0
    8.8916    6.5479    2.4958 C   0  0  1  0  0  3  0  0  0  0  0  0
    8.8198    8.3083    0.6234 C   0  0  0  0  0  0  0  0  0  0  0  0
    9.0969    9.3465    0.4616 H   0  0  0  0  0  0  0  0  0  0  0  0
    7.7558    8.1945    0.4060 H   0  0  0  0  0  0  0  0  0  0  0  0
    9.3725    7.6850   -0.0804 H   0  0  0  0  0  0  0  0  0  0  0  0
    4.4973    7.4424    5.4545 C   0  0  0  0  0  0  0  0  0  0  0  0
    4.9481    8.4209    5.5884 H   0  0  0  0  0  0  0  0  0  0  0  0
    3.6237    7.3752    6.0989 H   0  0  0  0  0  0  0  0  0  0  0  0
    4.1734    7.3361    4.4209 H   0  0  0  0  0  0  0  0  0  0  0  0
   10.3870    8.1816    5.5034 C   0  0  0  0  0  0  0  0  0  0  0  0
   10.2300    7.4222    6.2680 H   0  0  0  0  0  0  0  0  0  0  0  0
   10.0222    9.1348    5.8830 H   0  0  0  0  0  0  0  0  0  0  0  0
   11.4595    8.2774    5.3201 H   0  0  0  0  0  0  0  0  0  0  0  0
    8.6063    5.3753    1.6113 C   0  0  0  0  0  0  0  0  0  0  0  0
    7.6029    5.4340    1.1876 H   0  0  0  0  0  0  0  0  0  0  0  0
    8.7110    4.4412    2.1603 H   0  0  0  0  0  0  0  0  0  0  0  0
    9.3141    5.3611    0.7809 H   0  0  0  0  0  0  0  0  0  0  0  0
  1  4  1  0  0  0  0
  1  3  1  0  0  0  0
  2  1  1  0  0  0  0
  4  7  1  0  0  0  0
  5  6  1  0  0  0  0
  7 27  1  0  0  0  0
  8  7  1  0  0  0  0
  9 23  1  0  0  0  0
  9 10  1  0  0  0  0
 10 41  1  6  0  0  0
 11  1  1  0  0  0  0
 11 10  1  0  0  0  0
 11 22  1  1  0  0  0
 12 20  1  0  0  0  0
 13 12  1  0  0  0  0
 14 15  1  0  0  0  0
 14  5  1  0  0  0  0
 16 14  2  0  0  0  0
 17  4  1  0  0  0  0
 17 16  1  0  0  0  0
 17 19  1  0  0  0  0
 18 17  1  0  0  0  0
 20 21  1  0  0  0  0
 20  5  2  0  0  0  0
 22 12  2  0  0  0  0
 22 16  1  0  0  0  0
 23 24  1  0  0  0  0
 23 25  1  0  0  0  0
 26 23  1  0  0  0  0
 27 30  1  0  0  0  0
 27 28  1  0  0  0  0
 27 29  1  0  0  0  0
 31 32  1  0  0  0  0
 31  9  2  0  0  0  0
 32 45  1  6  0  0  0
 32 11  1  0  0  0  0
 33 31  1  0  0  0  0
 34 33  1  0  0  0  0
 35 33  1  0  0  0  0
 36 33  1  0  0  0  0
 37 38  1  0  0  0  0
 37  7  1  0  0  0  0
 37 39  1  0  0  0  0
 40 37  1  0  0  0  0
 41 43  1  0  0  0  0
 41 42  1  0  0  0  0
 44 41  1  0  0  0  0
 45 47  1  0  0  0  0
 46 45  1  0  0  0  0
 48 45  1  0  0  0  0
M  END
$$$$
