CSD_code = HOCLIU | q = 0 | S = 0 | Stoichiometry = C10H14CdCl2N4S | MND = 5
 OpenBabel04212202043D

 32 34  0  0  1  0  0  0  0  0999 V2000
   10.8053    2.3494    2.6578 Cd  0  0  0  0  0  0  0  0  0  0  0  0
   13.1254    2.5719    2.7913 Cl  0  0  0  0  0  0  0  0  0  0  0  0
    9.6886    2.4205    4.8190 Cl  0  0  0  0  0  0  0  0  0  0  0  0
    9.3065    0.2256    1.6208 S   0  0  0  0  0  0  0  0  0  0  0  0
   10.4800    4.5642    1.6239 N   0  0  0  0  0  0  0  0  0  0  0  0
    8.4387    2.9459    2.0729 N   0  0  1  0  0  0  0  0  0  0  0  0
    7.6650    2.0183    2.6444 N   0  0  0  0  0  0  0  0  0  0  0  0
    7.5562   -0.0941    3.5862 N   0  0  0  0  0  0  0  0  0  0  0  0
   11.4853    5.2854    1.1586 C   0  0  0  0  0  3  0  0  0  0  0  0
   11.3126    6.5596    0.6349 C   0  0  0  0  0  0  0  0  0  0  0  0
   10.0311    7.0848    0.5893 C   0  0  0  0  0  0  0  0  0  0  0  0
    8.9771    6.3313    1.0781 C   0  0  0  0  0  0  0  0  0  0  0  0
    9.2387    5.0645    1.5982 C   0  0  0  0  0  0  0  0  0  0  0  0
    8.1993    4.1980    2.1722 C   0  0  2  0  0  3  0  0  0  0  0  0
    8.1307    0.7291    2.7058 C   0  0  1  0  0  3  0  0  0  0  0  0
    7.9742   -1.4733    3.6741 C   0  0  0  0  0  0  0  0  0  0  0  0
    6.8099    0.4251    4.7170 C   0  0  0  0  0  0  0  0  0  0  0  0
    7.0275    4.7816    2.9055 C   0  0  0  0  0  0  0  0  0  0  0  0
   12.4624    4.8218    1.2229 H   0  0  0  0  0  0  0  0  0  0  0  0
   12.1593    7.1209    0.2744 H   0  0  0  0  0  0  0  0  0  0  0  0
    9.8519    8.0676    0.1790 H   0  0  0  0  0  0  0  0  0  0  0  0
    7.9679    6.7098    1.0327 H   0  0  0  0  0  0  0  0  0  0  0  0
    8.7472   -1.5925    4.4377 H   0  0  0  0  0  0  0  0  0  0  0  0
    7.1144   -2.0923    3.9275 H   0  0  0  0  0  0  0  0  0  0  0  0
    8.3784   -1.7892    2.7150 H   0  0  0  0  0  0  0  0  0  0  0  0
    5.8407    0.8224    4.4057 H   0  0  0  0  0  0  0  0  0  0  0  0
    6.6328   -0.3874    5.4161 H   0  0  0  0  0  0  0  0  0  0  0  0
    7.3975    1.1970    5.2262 H   0  0  0  0  0  0  0  0  0  0  0  0
    7.0311    2.3200    3.3819 H   0  0  0  0  0  0  0  0  0  0  0  0
    7.0433    5.8655    2.8789 H   0  0  0  0  0  0  0  0  0  0  0  0
    6.0872    4.4266    2.4831 H   0  0  0  0  0  0  0  0  0  0  0  0
    7.0804    4.4707    3.9512 H   0  0  0  0  0  0  0  0  0  0  0  0
  1  2  1  0  0  0  0
  1  3  1  0  0  0  0
  4  1  1  0  0  0  0
  4 15  1  0  0  0  0
  5  1  1  0  0  0  0
  6 14  1  0  0  0  0
  6  7  1  1  0  0  0
  6  1  1  0  0  0  0
  7 15  1  0  0  0  0
  7 29  1  0  0  0  0
  8 16  1  0  0  0  0
  8 17  1  0  0  0  0
  9 19  1  0  0  0  0
  9  5  1  0  0  0  0
 10  9  1  0  0  0  0
 11 10  2  0  0  0  0
 11 12  1  0  0  0  0
 12 13  2  0  0  0  0
 13  5  1  0  0  0  0
 13 14  1  0  0  0  0
 14 18  1  1  0  0  0
 15  8  1  6  0  0  0
 16 24  1  0  0  0  0
 16 23  1  0  0  0  0
 17 28  1  0  0  0  0
 17 27  1  0  0  0  0
 18 32  1  0  0  0  0
 20 10  1  0  0  0  0
 21 11  1  0  0  0  0
 22 12  1  0  0  0  0
 25 16  1  0  0  0  0
 26 17  1  0  0  0  0
 30 18  1  0  0  0  0
 31 18  1  0  0  0  0
M  END
$$$$
