CSD_code = HOCLOA | q = 0 | S = 0 | Stoichiometry = C10H14CdI2N4S | MND = 5
 OpenBabel04212202043D

 32 33  0  0  1  0  0  0  0  0999 V2000
   11.7411    3.2211    2.3886 I   0  0  0  0  0  0  0  0  0  0  0  0
    7.0298    1.9003    1.8775 I   0  0  0  0  0  0  0  0  0  0  0  0
    9.3760    2.2875    3.2368 Cd  0  0  0  0  0  0  0  0  0  0  0  0
    8.4059    3.9617    5.3840 S   0  0  0  0  0  0  0  0  0  0  0  0
   10.1388   -0.0411    3.8993 N   0  0  0  0  0  0  0  0  0  0  0  0
    8.0541    1.0935    5.1368 N   0  0  0  0  0  0  0  0  0  0  0  0
    6.9386    1.7775    5.4065 N   0  0  0  0  0  0  0  0  0  0  0  0
    5.7605    3.7696    5.3458 N   0  0  0  0  0  0  0  0  0  0  0  0
   11.3099   -0.5257    3.5186 C   0  0  0  0  0  3  0  0  0  0  0  0
   11.7784   -1.7706    3.9121 C   0  0  0  0  0  0  0  0  0  0  0  0
   10.9852   -2.5362    4.7509 C   0  0  0  0  0  0  0  0  0  0  0  0
    9.7580   -2.0369    5.1509 C   0  0  0  0  0  0  0  0  0  0  0  0
    9.3599   -0.7782    4.7015 C   0  0  0  0  0  0  0  0  0  0  0  0
    8.0708   -0.1853    5.0808 C   0  0  0  0  0  0  0  0  0  0  0  0
    6.9488    3.1494    5.3580 C   0  0  1  0  0  3  0  0  0  0  0  0
    5.6805    5.2111    5.3151 C   0  0  0  0  0  0  0  0  0  0  0  0
    4.5235    3.0537    5.1050 C   0  0  0  0  0  0  0  0  0  0  0  0
    6.8702   -1.0565    5.3164 C   0  0  0  0  0  0  0  0  0  0  0  0
   11.9033    0.1090    2.8714 H   0  0  0  0  0  0  0  0  0  0  0  0
   12.7389   -2.1221    3.5723 H   0  0  0  0  0  0  0  0  0  0  0  0
   11.3160   -3.5058    5.0920 H   0  0  0  0  0  0  0  0  0  0  0  0
    9.1324   -2.6026    5.8232 H   0  0  0  0  0  0  0  0  0  0  0  0
    6.0454    1.2906    5.4078 H   0  0  0  0  0  0  0  0  0  0  0  0
    7.0985   -2.0991    5.1250 H   0  0  0  0  0  0  0  0  0  0  0  0
    6.5092   -0.9541    6.3408 H   0  0  0  0  0  0  0  0  0  0  0  0
    6.0688   -0.7640    4.6343 H   0  0  0  0  0  0  0  0  0  0  0  0
    4.9034    5.5457    6.0014 H   0  0  0  0  0  0  0  0  0  0  0  0
    6.6355    5.6321    5.6205 H   0  0  0  0  0  0  0  0  0  0  0  0
    5.4471    5.5591    4.3058 H   0  0  0  0  0  0  0  0  0  0  0  0
    3.7287    3.7813    4.9648 H   0  0  0  0  0  0  0  0  0  0  0  0
    4.5888    2.4515    4.1943 H   0  0  0  0  0  0  0  0  0  0  0  0
    4.2557    2.4205    5.9555 H   0  0  0  0  0  0  0  0  0  0  0  0
  1  3  1  0  0  0  0
  2  3  1  0  0  0  0
  3  5  1  0  0  0  0
  3  4  1  0  0  0  0
  5 13  1  0  0  0  0
  6  7  1  0  0  0  0
  7 23  1  0  0  0  0
  9  5  1  0  0  0  0
  9 10  1  0  0  0  0
 10 11  2  0  0  0  0
 11 21  1  0  0  0  0
 11 12  1  0  0  0  0
 12 22  1  0  0  0  0
 13 14  1  0  0  0  0
 13 12  2  0  0  0  0
 14  6  2  0  0  0  0
 14 18  1  0  0  0  0
 15  8  1  1  0  0  0
 15  4  1  0  0  0  0
 15  7  1  0  0  0  0
 16  8  1  0  0  0  0
 16 28  1  0  0  0  0
 16 27  1  0  0  0  0
 17  8  1  0  0  0  0
 17 32  1  0  0  0  0
 18 25  1  0  0  0  0
 19  9  1  0  0  0  0
 20 10  1  0  0  0  0
 24 18  1  0  0  0  0
 26 18  1  0  0  0  0
 29 16  1  0  0  0  0
 30 17  1  0  0  0  0
 31 17  1  0  0  0  0
M  END
$$$$
