CSD_code = HOFDEN | q = 0 | S = 0 | Stoichiometry = C11H7Cl2FeN5 | MND = 5
 OpenBabel04212202043D

 26 30  0  0  1  0  0  0  0  0999 V2000
   -0.4969    2.4568    1.9350 Fe  0  0  0  0  0  0  0  0  0  0  0  0
    1.1959    1.4563    1.6272 Cl  0  0  0  0  0  0  0  0  0  0  0  0
   -0.8429    2.7354    0.0311 N   0  0  0  0  0  0  0  0  0  0  0  0
   -0.4968    7.0450    1.9349 C   0  0  0  0  0  0  0  0  0  0  0  0
   -0.4968    8.1247    1.9349 H   0  0  0  0  0  0  0  0  0  0  0  0
   -1.0333    1.9807   -1.0202 N   0  0  0  0  0  0  0  0  0  0  0  0
   -0.7137    6.3615    0.7477 C   0  0  0  0  0  0  0  0  0  0  0  0
   -0.8834    6.8825   -0.1796 H   0  0  0  0  0  0  0  0  0  0  0  0
   -0.7099    4.9677    0.7667 C   0  0  2  0  0  3  0  0  0  0  0  0
   -0.4968    4.3100    1.9349 N   0  0  0  0  0  0  0  0  0  0  0  0
   -0.9060    4.0543   -0.3116 C   0  0  0  0  0  0  0  0  0  0  0  0
   -1.1562    4.1177   -1.6892 C   0  0  0  0  0  0  0  0  0  0  0  0
   -1.2677    4.9908   -2.2989 H   0  0  0  0  0  0  0  0  0  0  0  0
   -1.2244    2.7805   -2.0694 C   0  0  0  0  0  0  0  0  0  0  0  0
   -1.4007    2.3672   -3.0424 H   0  0  0  0  0  0  0  0  0  0  0  0
   -0.1507    2.7354    3.8388 N   0  0  0  0  0  0  0  0  0  0  0  0
    0.0398    1.9807    4.8901 N   0  0  0  0  0  0  0  0  0  0  0  0
   -0.2799    6.3615    3.1221 C   0  0  0  0  0  0  0  0  0  0  0  0
   -0.1102    6.8825    4.0495 H   0  0  0  0  0  0  0  0  0  0  0  0
   -0.2837    4.9677    3.1032 C   0  0  0  0  0  0  0  0  0  0  0  0
   -0.0877    4.0543    4.1815 C   0  0  0  0  0  0  0  0  0  0  0  0
    0.1626    4.1177    5.5591 C   0  0  0  0  0  0  0  0  0  0  0  0
    0.2741    4.9908    6.1687 H   0  0  0  0  0  0  0  0  0  0  0  0
    0.2309    2.7805    5.9393 C   0  0  0  0  0  0  0  0  0  0  0  0
    0.4072    2.3672    6.9122 H   0  0  0  0  0  0  0  0  0  0  0  0
   -2.1898    1.4565    2.2426 Cl  0  0  0  0  0  0  0  0  0  0  0  0
  1 26  1  0  0  0  0
  1 16  1  0  0  0  0
  2  1  1  0  0  0  0
  3  1  1  0  0  0  0
  4  5  1  0  0  0  0
  4 18  1  0  0  0  0
  6  3  1  0  0  0  0
  7  9  1  0  0  0  0
  7  4  2  0  0  0  0
  8  7  1  0  0  0  0
  9 11  1  6  0  0  0
  9 10  1  0  0  0  0
 10  1  1  0  0  0  0
 10 20  1  0  0  0  0
 11  3  1  0  0  0  0
 12 11  2  0  0  0  0
 13 12  1  0  0  0  0
 14 12  1  0  0  0  0
 14  6  2  0  0  0  0
 15 14  1  0  0  0  0
 16 21  1  0  0  0  0
 16 17  1  0  0  0  0
 17 24  2  0  0  0  0
 18 19  1  0  0  0  0
 20 18  2  0  0  0  0
 20 21  1  0  0  0  0
 21 22  2  0  0  0  0
 22 24  1  0  0  0  0
 22 23  1  0  0  0  0
 24 25  1  0  0  0  0
M  END
$$$$
