CSD_code = HOFKOE | q = 0 | S = 0 | Stoichiometry = C18H18ClCuN4O3 | MND = 5
 OpenBabel04212202043D

 45 50  0  0  1  0  0  0  0  0999 V2000
    2.6698    1.8300    2.1992 Cu  0  0  0  0  0  0  0  0  0  0  0  0
    1.3515    0.3565    3.6530 Cl  0  0  0  0  0  0  0  0  0  0  0  0
    1.3719    3.5069    1.8915 N   0  0  0  0  0  0  0  0  0  0  0  0
    4.4081    2.2641    3.3756 N   0  0  0  0  0  0  0  0  0  0  0  0
   -0.0356    3.0064    3.6342 O   0  0  0  0  0  0  0  0  0  0  0  0
    4.0616    0.5795    4.8962 O   0  0  0  0  0  0  0  0  0  0  0  0
    1.3532   -0.9072    0.9422 O   0  0  0  0  0  0  0  0  0  0  0  0
    2.9894    0.6265    0.4539 N   0  0  0  0  0  0  0  0  0  0  0  0
    3.8844    3.1887    0.8466 N   0  0  2  0  0  4  0  0  0  0  0  0
    5.1923    3.2322    2.8954 C   0  0  1  0  0  3  0  0  0  0  0  0
    2.3775   -1.0304   -1.1534 C   0  0  0  0  0  0  0  0  0  0  0  0
    1.7486   -1.8730   -1.3866 H   0  0  0  0  0  0  0  0  0  0  0  0
    2.2429   -0.4198    0.1069 C   0  0  2  0  0  3  0  0  0  0  0  0
    6.0731    1.7597    5.0119 C   0  0  0  0  0  0  0  0  0  0  0  0
    6.3605    1.1431    5.8468 H   0  0  0  0  0  0  0  0  0  0  0  0
   -0.3355    5.0464    2.5370 C   0  0  0  0  0  0  0  0  0  0  0  0
   -1.1530    5.2601    3.2046 H   0  0  0  0  0  0  0  0  0  0  0  0
    3.8886    1.1103   -0.4066 C   0  0  0  0  0  0  0  0  0  0  0  0
    2.9025    3.9058    0.0628 C   0  0  0  0  0  0  0  0  0  0  0  0
    2.5072    3.2162   -0.6899 H   0  0  0  0  0  0  0  0  0  0  0  0
    3.3368    4.7730   -0.4617 H   0  0  0  0  0  0  0  0  0  0  0  0
    0.3522    3.8281    2.6848 C   0  0  1  0  0  3  0  0  0  0  0  0
    4.8214    1.5351    4.4104 C   0  0  0  0  0  0  0  0  0  0  0  0
    1.7545    4.3528    0.9320 C   0  0  0  0  0  0  0  0  0  0  0  0
    0.0582    5.9135    1.5478 C   0  0  0  0  0  0  0  0  0  0  0  0
   -0.4512    6.8552    1.4090 H   0  0  0  0  0  0  0  0  0  0  0  0
    4.0790    0.5628   -1.6598 C   0  0  0  0  0  0  0  0  0  0  0  0
    4.8147    0.9767   -2.3310 H   0  0  0  0  0  0  0  0  0  0  0  0
    4.7043    2.2853    0.0690 C   0  0  0  0  0  0  0  0  0  0  0  0
    5.4954    1.9063    0.7239 H   0  0  0  0  0  0  0  0  0  0  0  0
    5.1802    2.7856   -0.7908 H   0  0  0  0  0  0  0  0  0  0  0  0
    1.1270    5.5653    0.7252 C   0  0  0  0  0  0  0  0  0  0  0  0
    1.4593    6.2256   -0.0601 H   0  0  0  0  0  0  0  0  0  0  0  0
    6.8779    2.7551    4.5153 C   0  0  0  0  0  0  0  0  0  0  0  0
    7.8439    2.9508    4.9557 H   0  0  0  0  0  0  0  0  0  0  0  0
    4.6411    4.0340    1.7437 C   0  0  0  0  0  0  0  0  0  0  0  0
    3.9560    4.7832    2.1533 H   0  0  0  0  0  0  0  0  0  0  0  0
    5.4599    4.5636    1.2289 H   0  0  0  0  0  0  0  0  0  0  0  0
    6.4337    3.5102    3.4324 C   0  0  0  0  0  0  0  0  0  0  0  0
    7.0428    4.2991    3.0205 H   0  0  0  0  0  0  0  0  0  0  0  0
    3.3044   -0.5324   -2.0353 C   0  0  0  0  0  0  0  0  0  0  0  0
    3.4310   -0.9802   -3.0095 H   0  0  0  0  0  0  0  0  0  0  0  0
    0.4761    2.1522    3.6281 H   0  0  0  0  0  0  0  0  0  0  0  0
    1.3629   -0.4380    1.8204 H   0  0  0  0  0  0  0  0  0  0  0  0
    3.1819    0.5219    4.4332 H   0  0  0  0  0  0  0  0  0  0  0  0
  1  4  1  0  0  0  0
  1  2  1  0  0  0  0
  3  1  1  0  0  0  0
  3 22  1  0  0  0  0
  4 23  1  0  0  0  0
  7 44  1  0  0  0  0
  8  1  1  0  0  0  0
  9 19  1  6  0  0  0
  9 36  1  0  0  0  0
  9  1  1  0  0  0  0
 10  4  1  0  0  0  0
 10 39  1  1  0  0  0
 11 13  1  0  0  0  0
 12 11  1  0  0  0  0
 13  8  1  0  0  0  0
 13  7  1  6  0  0  0
 14 15  1  0  0  0  0
 16 22  1  0  0  0  0
 16 17  1  0  0  0  0
 18 29  1  0  0  0  0
 18  8  1  0  0  0  0
 19 24  1  0  0  0  0
 20 19  1  0  0  0  0
 21 19  1  0  0  0  0
 22  5  1  1  0  0  0
 23  6  1  0  0  0  0
 23 14  2  0  0  0  0
 24  3  1  0  0  0  0
 25 16  2  0  0  0  0
 26 25  1  0  0  0  0
 27 18  2  0  0  0  0
 28 27  1  0  0  0  0
 29 30  1  0  0  0  0
 29  9  1  0  0  0  0
 31 29  1  0  0  0  0
 32 24  2  0  0  0  0
 32 25  1  0  0  0  0
 33 32  1  0  0  0  0
 34 35  1  0  0  0  0
 34 14  1  0  0  0  0
 36 37  1  0  0  0  0
 36 10  1  0  0  0  0
 38 36  1  0  0  0  0
 39 34  2  0  0  0  0
 40 39  1  0  0  0  0
 41 27  1  0  0  0  0
 41 11  2  0  0  0  0
 42 41  1  0  0  0  0
 43  5  1  0  0  0  0
 45  6  1  0  0  0  0
M  END
$$$$
