CSD_code = HOGVOR | q = 0 | S = 0 | Stoichiometry = C22H26ClCuN2O2S | MND = 2
 OpenBabel04212202043D

 55 57  0  0  1  0  0  0  0  0999 V2000
    7.6311   -1.2292    9.9702 C   0  0  1  0  0  3  0  0  0  0  0  0
    7.9929   -2.1574    7.9617 C   0  0  0  0  0  0  0  0  0  0  0  0
    8.3992   -2.2348    6.9759 H   0  0  0  0  0  0  0  0  0  0  0  0
    7.2434   -3.0191    8.6868 C   0  0  0  0  0  0  0  0  0  0  0  0
    6.8463   -3.9827    8.4431 H   0  0  0  0  0  0  0  0  0  0  0  0
    9.0181    0.0372    8.3819 C   0  0  0  0  0  0  0  0  0  0  0  0
    8.8817    0.8710    9.0686 H   0  0  0  0  0  0  0  0  0  0  0  0
    8.8458    0.3419    7.3501 H   0  0  0  0  0  0  0  0  0  0  0  0
   11.1691   -0.6101   10.2056 C   0  0  0  0  0  0  0  0  0  0  0  0
   11.4147   -1.8573   10.7434 C   0  0  0  0  0  0  0  0  0  0  0  0
   11.3902   -2.7199   10.0957 H   0  0  0  0  0  0  0  0  0  0  0  0
   11.7053   -1.9543   12.0940 C   0  0  0  0  0  0  0  0  0  0  0  0
   11.9264   -2.9186   12.5264 H   0  0  0  0  0  0  0  0  0  0  0  0
   11.7188   -0.8143   12.8826 C   0  0  0  0  0  0  0  0  0  0  0  0
   11.9262   -0.8942   13.9387 H   0  0  0  0  0  0  0  0  0  0  0  0
   11.4656    0.4311   12.3285 C   0  0  0  0  0  0  0  0  0  0  0  0
   11.4648    1.3118   12.9497 H   0  0  0  0  0  0  0  0  0  0  0  0
   11.1973    0.5377   10.9738 C   0  0  0  0  0  0  0  0  0  0  0  0
   11.0225    1.4955   10.5094 H   0  0  0  0  0  0  0  0  0  0  0  0
    6.2012   -2.9924   10.9215 C   0  0  0  0  0  0  0  0  0  0  0  0
    6.7804   -3.6719   11.9923 C   0  0  0  0  0  0  0  0  0  0  0  0
    5.9330   -4.2407   12.9360 C   0  0  0  0  0  0  0  0  0  0  0  0
    6.3511   -4.7809   13.7706 H   0  0  0  0  0  0  0  0  0  0  0  0
    4.5630   -4.1182   12.8254 C   0  0  0  0  0  0  0  0  0  0  0  0
    3.9207   -4.5627   13.5706 H   0  0  0  0  0  0  0  0  0  0  0  0
    4.0090   -3.4155   11.7716 C   0  0  0  0  0  0  0  0  0  0  0  0
    2.9383   -3.3096   11.7117 H   0  0  0  0  0  0  0  0  0  0  0  0
    4.8151   -2.8456   10.7972 C   0  0  0  0  0  0  0  0  0  0  0  0
    8.2767   -3.7870   12.1563 C   0  0  0  0  0  0  0  0  0  0  0  0
    8.7752   -3.2602   11.3359 H   0  0  0  0  0  0  0  0  0  0  0  0
    8.7150   -5.2531   12.1126 C   0  0  0  0  0  0  0  0  0  0  0  0
    8.2963   -5.8105   12.9463 H   0  0  0  0  0  0  0  0  0  0  0  0
    9.7989   -5.3184   12.1672 H   0  0  0  0  0  0  0  0  0  0  0  0
    8.3883   -5.7226   11.1869 H   0  0  0  0  0  0  0  0  0  0  0  0
    8.7071   -3.1216   13.4654 C   0  0  0  0  0  0  0  0  0  0  0  0
    8.4661   -2.0600   13.4467 H   0  0  0  0  0  0  0  0  0  0  0  0
    9.7798   -3.2236   13.6020 H   0  0  0  0  0  0  0  0  0  0  0  0
    8.2074   -3.5724   14.3184 H   0  0  0  0  0  0  0  0  0  0  0  0
    4.2245   -2.0174    9.6794 C   0  0  0  0  0  0  0  0  0  0  0  0
    4.9115   -2.0247    8.8270 H   0  0  0  0  0  0  0  0  0  0  0  0
    2.8788   -2.5472    9.1840 C   0  0  0  0  0  0  0  0  0  0  0  0
    2.9396   -3.6117    8.9686 H   0  0  0  0  0  0  0  0  0  0  0  0
    2.5955   -2.0269    8.2720 H   0  0  0  0  0  0  0  0  0  0  0  0
    2.0938   -2.3829    9.9169 H   0  0  0  0  0  0  0  0  0  0  0  0
    4.0880   -0.5718   10.1708 C   0  0  0  0  0  0  0  0  0  0  0  0
    3.4060   -0.5257   11.0164 H   0  0  0  0  0  0  0  0  0  0  0  0
    3.7010    0.0619    9.3763 H   0  0  0  0  0  0  0  0  0  0  0  0
    5.0548   -0.1833   10.4908 H   0  0  0  0  0  0  0  0  0  0  0  0
    8.3992    0.9575   13.2030 Cl  0  0  0  0  0  0  0  0  0  0  0  0
    7.8656   -0.1427   11.5192 Cu  0  0  0  0  0  0  0  0  0  0  0  0
    8.2119   -1.0628    8.7570 N   0  0  0  0  0  0  0  0  0  0  0  0
    7.0299   -2.4335    9.9070 N   0  0  0  0  0  0  0  0  0  0  0  0
   10.8877   -1.7722    7.8467 O   0  0  0  0  0  0  0  0  0  0  0  0
   11.5647    0.6001    7.8753 O   0  0  0  0  0  0  0  0  0  0  0  0
   10.8127   -0.4727    8.4609 S   0  0  0  0  0  0  0  0  0  0  0  0
  1 50  1  1  0  0  0
  2  4  2  0  0  0  0
  2 51  1  0  0  0  0
  3  2  1  0  0  0  0
  4 52  1  0  0  0  0
  5  4  1  0  0  0  0
  6 55  1  0  0  0  0
  6 51  1  0  0  0  0
  6  7  1  0  0  0  0
  8  6  1  0  0  0  0
  9 10  2  0  0  0  0
  9 18  1  0  0  0  0
 10 12  1  0  0  0  0
 11 10  1  0  0  0  0
 12 13  1  0  0  0  0
 12 14  2  0  0  0  0
 14 15  1  0  0  0  0
 16 14  1  0  0  0  0
 16 17  1  0  0  0  0
 18 16  2  0  0  0  0
 19 18  1  0  0  0  0
 20 21  1  0  0  0  0
 21 29  1  0  0  0  0
 21 22  2  0  0  0  0
 22 23  1  0  0  0  0
 24 22  1  0  0  0  0
 24 25  1  0  0  0  0
 26 24  2  0  0  0  0
 27 26  1  0  0  0  0
 28 20  2  0  0  0  0
 28 26  1  0  0  0  0
 29 35  1  0  0  0  0
 30 29  1  0  0  0  0
 31 29  1  0  0  0  0
 31 33  1  0  0  0  0
 31 32  1  0  0  0  0
 34 31  1  0  0  0  0
 35 37  1  0  0  0  0
 35 38  1  0  0  0  0
 36 35  1  0  0  0  0
 39 45  1  0  0  0  0
 39 28  1  0  0  0  0
 40 39  1  0  0  0  0
 41 39  1  0  0  0  0
 41 44  1  0  0  0  0
 42 41  1  0  0  0  0
 43 41  1  0  0  0  0
 45 48  1  0  0  0  0
 45 46  1  0  0  0  0
 47 45  1  0  0  0  0
 50 49  1  0  0  0  0
 51  1  1  0  0  0  0
 52  1  1  0  0  0  0
 52 20  1  0  0  0  0
 53 55  2  0  0  0  0
 54 55  2  0  0  0  0
 55  9  1  0  0  0  0
M  END
$$$$
