CSD_code = HOGXAD | q = 0 | S = 0 | Stoichiometry = C16H20Cl2N2NiO3 | MND = 6
 OpenBabel04212202043D

 44 44  0  0  1  0  0  0  0  0999 V2000
    8.9735    6.8675    1.6408 Ni  0  0  0  0  0  0  0  0  0  0  0  0
    7.2497    5.9837    2.5394 Cl  0  0  0  0  0  0  0  0  0  0  0  0
   10.6221    7.8613    0.7022 Cl  0  0  0  0  0  0  0  0  0  0  0  0
   10.9349    6.6319    5.0565 O   0  0  0  0  0  0  0  0  0  0  0  0
    9.6857    7.1855    3.3006 N   0  0  0  0  0  0  0  0  0  0  0  0
   10.3583    4.8950    1.9658 N   0  0  0  0  0  0  0  0  0  0  0  0
   10.3451    7.8254    5.3329 C   0  0  0  0  0  0  0  0  0  0  0  0
   10.4969    6.3043    3.8311 C   0  0  2  0  0  3  0  0  0  0  0  0
    9.5503    8.1848    4.2306 C   0  0  0  0  0  0  0  0  0  0  0  0
   11.7843    4.1798    3.7604 C   0  0  0  0  0  0  0  0  0  0  0  0
   12.1908    4.3789    4.7385 H   0  0  0  0  0  0  0  0  0  0  0  0
    8.8114    9.3600    4.2345 C   0  0  0  0  0  0  0  0  0  0  0  0
    8.2004    9.6063    3.3821 H   0  0  0  0  0  0  0  0  0  0  0  0
   10.6805    3.8117    1.2749 C   0  0  0  0  0  0  0  0  0  0  0  0
   10.4330    8.6252    6.4582 C   0  0  0  0  0  0  0  0  0  0  0  0
   11.0443    8.3451    7.3002 H   0  0  0  0  0  0  0  0  0  0  0  0
   10.8988    5.0805    3.1739 C   0  0  0  0  0  0  0  0  0  0  0  0
    9.6960    9.7922    6.4418 C   0  0  0  0  0  0  0  0  0  0  0  0
    9.7349   10.4458    7.3007 H   0  0  0  0  0  0  0  0  0  0  0  0
    8.8909   10.1659    5.3548 C   0  0  0  0  0  0  0  0  0  0  0  0
   11.5606    2.8571    1.7884 C   0  0  0  0  0  0  0  0  0  0  0  0
   11.8048    1.9828    1.2050 H   0  0  0  0  0  0  0  0  0  0  0  0
   10.0567    3.6685   -0.0710 C   0  0  0  0  0  0  0  0  0  0  0  0
   10.1735    4.6041   -0.6140 H   0  0  0  0  0  0  0  0  0  0  0  0
    8.9887    3.4898    0.0472 H   0  0  0  0  0  0  0  0  0  0  0  0
   10.5013    2.8522   -0.6334 H   0  0  0  0  0  0  0  0  0  0  0  0
    8.1614    6.2751   -0.1151 O   0  0  0  0  0  0  0  0  0  0  0  0
    7.9273    9.0109    1.1955 O   0  0  0  0  0  0  0  0  0  0  0  0
    8.1237   11.4512    5.4254 C   0  0  0  0  0  0  0  0  0  0  0  0
    7.4940   11.5740    4.5492 H   0  0  0  0  0  0  0  0  0  0  0  0
    8.8090   12.2959    5.4836 H   0  0  0  0  0  0  0  0  0  0  0  0
    7.4953   11.4706    6.3142 H   0  0  0  0  0  0  0  0  0  0  0  0
    8.1700    6.8518   -1.4041 C   0  0  0  0  0  0  0  0  0  0  0  0
    7.4355    7.6560   -1.5003 H   0  0  0  0  0  0  0  0  0  0  0  0
    7.9592    6.0842   -2.1572 H   0  0  0  0  0  0  0  0  0  0  0  0
    9.1679    7.2592   -1.5676 H   0  0  0  0  0  0  0  0  0  0  0  0
   12.1133    3.0427    3.0436 C   0  0  0  0  0  0  0  0  0  0  0  0
   12.7956    2.3144    3.4568 H   0  0  0  0  0  0  0  0  0  0  0  0
    6.6914    9.5847    0.8410 C   0  0  0  0  0  0  0  0  0  0  0  0
    6.6690   10.6538    1.0835 H   0  0  0  0  0  0  0  0  0  0  0  0
    5.9263    9.0688    1.4203 H   0  0  0  0  0  0  0  0  0  0  0  0
    6.4724    9.4648   -0.2257 H   0  0  0  0  0  0  0  0  0  0  0  0
    8.6524    9.3954    0.6766 H   0  0  0  0  0  0  0  0  0  0  0  0
    7.2586    6.0294    0.1534 H   0  0  0  0  0  0  0  0  0  0  0  0
  1  2  1  0  0  0  0
  1  5  1  0  0  0  0
  3  1  1  0  0  0  0
  4  7  1  0  0  0  0
  5  8  1  0  0  0  0
  5  9  1  0  0  0  0
  6 17  1  0  0  0  0
  7 15  1  0  0  0  0
  8 17  1  1  0  0  0
  8  4  1  0  0  0  0
  9 12  1  0  0  0  0
  9  7  2  0  0  0  0
 10 11  1  0  0  0  0
 12 20  2  0  0  0  0
 13 12  1  0  0  0  0
 14 21  1  0  0  0  0
 14  6  2  0  0  0  0
 15 16  1  0  0  0  0
 17 10  2  0  0  0  0
 18 15  2  0  0  0  0
 18 19  1  0  0  0  0
 20 29  1  0  0  0  0
 20 18  1  0  0  0  0
 21 37  2  0  0  0  0
 22 21  1  0  0  0  0
 23 25  1  0  0  0  0
 23 14  1  0  0  0  0
 24 23  1  0  0  0  0
 26 23  1  0  0  0  0
 27 44  1  0  0  0  0
 29 31  1  0  0  0  0
 29 32  1  0  0  0  0
 30 29  1  0  0  0  0
 33 27  1  0  0  0  0
 34 33  1  0  0  0  0
 35 33  1  0  0  0  0
 36 33  1  0  0  0  0
 37 38  1  0  0  0  0
 37 10  1  0  0  0  0
 39 40  1  0  0  0  0
 39 28  1  0  0  0  0
 39 41  1  0  0  0  0
 42 39  1  0  0  0  0
 43 28  1  0  0  0  0
M  END
$$$$
