CSD_code = HOGZUA | q = 1 | S = 0 | Stoichiometry = C23H25ClN3ORu(1+) | MND = 9
 OpenBabel04212202043D

 54 56  0  0  1  0  0  0  0  0999 V2000
    6.3916   16.1830   10.0282 Ru  0  0  0  0  0  0  0  0  0  0  0  0
    7.8417   15.1860    8.4990 Cl  0  0  0  0  0 15  0  0  0  0  0  0
    1.7181   10.8087    9.9474 O   0  0  0  0  0  0  0  0  0  0  0  0
    6.7476   17.7934    8.9212 N   0  0  0  0  0  0  0  0  0  0  0  0
    5.0029   16.0375    8.6663 N   0  0  0  0  0  0  0  0  0  0  0  0
    0.3428   11.5972    8.3412 N   0  0  0  0  0  0  0  0  0  0  0  0
    0.1962   12.2179    7.5654 H   0  0  0  0  0  0  0  0  0  0  0  0
   -0.2669   10.8006    8.4369 H   0  0  0  0  0  0  0  0  0  0  0  0
    7.7740   18.6184    9.0998 C   0  0  0  0  0  3  0  0  0  0  0  0
    8.4098   18.4272    9.9549 H   0  0  0  0  0  0  0  0  0  0  0  0
    8.0479   19.6606    8.2335 C   0  0  0  0  0  0  0  0  0  0  0  0
    8.8917   20.3042    8.4202 H   0  0  0  0  0  0  0  0  0  0  0  0
    7.2322   19.8533    7.1215 C   0  0  0  0  0  0  0  0  0  0  0  0
    7.4307   20.6562    6.4299 H   0  0  0  0  0  0  0  0  0  0  0  0
    6.1799   18.9863    6.9111 C   0  0  0  0  0  0  0  0  0  0  0  0
    5.5366   19.0767    6.0509 H   0  0  0  0  0  0  0  0  0  0  0  0
    5.9604   17.9530    7.8264 C   0  0  0  0  0  0  0  0  0  0  0  0
    4.9562   16.9395    7.7309 C   0  0  0  0  0  3  0  0  0  0  0  0
    4.2395   16.9005    6.9195 H   0  0  0  0  0  0  0  0  0  0  0  0
    4.1000   14.9740    8.7004 C   0  0  0  0  0  0  0  0  0  0  0  0
    4.5989   13.6856    8.9105 C   0  0  0  0  0  0  0  0  0  0  0  0
    5.6703   13.5379    8.9637 H   0  0  0  0  0  0  0  0  0  0  0  0
    3.7253   12.6231    9.0051 C   0  0  0  0  0  0  0  0  0  0  0  0
    4.0892   11.6230    9.1838 H   0  0  0  0  0  0  0  0  0  0  0  0
    2.3516   12.8215    8.8826 C   0  0  0  0  0  0  0  0  0  0  0  0
    1.8597   14.1022    8.6517 C   0  0  0  0  0  0  0  0  0  0  0  0
    0.7964   14.2727    8.5771 H   0  0  0  0  0  0  0  0  0  0  0  0
    2.7263   15.1753    8.5574 C   0  0  0  0  0  0  0  0  0  0  0  0
    2.3449   16.1754    8.4110 H   0  0  0  0  0  0  0  0  0  0  0  0
    1.4535   11.6388    9.1074 C   0  0  0  0  0  0  0  0  0  0  0  0
    7.2362   16.9673   12.1011 C   0  0  0  0  0  0  0  0  0  0  0  0
    7.8703   17.8062   12.3681 H   0  0  0  0  0  0  0  0  0  0  0  0
    7.8050   15.6984   11.9406 C   0  0  0  0  0  0  0  0  0  0  0  0
    6.9193   14.6002   11.7099 C   0  0  0  0  0  0  0  0  0  0  0  0
    7.3293   13.5991   11.6441 H   0  0  0  0  0  0  0  0  0  0  0  0
    5.5354   14.7729   11.7213 C   0  0  0  0  0  0  0  0  0  0  0  0
    4.8815   13.9087   11.6856 H   0  0  0  0  0  0  0  0  0  0  0  0
    4.9643   16.0687   11.8392 C   0  0  2  0  0  3  0  0  0  0  0  0
    5.8376   17.1678   12.0008 C   0  0  2  0  0  0  0  0  0  0  0  0
    5.4251   18.1527   12.1952 H   0  0  0  0  0  0  0  0  0  0  0  0
    9.2769   15.4875   12.2018 C   0  0  0  0  0  0  0  0  0  0  0  0
    9.8013   16.4247   11.9828 H   0  0  0  0  0  0  0  0  0  0  0  0
    9.4415   15.1820   13.6978 C   0  0  0  0  0  0  0  0  0  0  0  0
    9.0520   15.9930   14.3095 H   0  0  0  0  0  0  0  0  0  0  0  0
   10.4950   15.0512   13.9278 H   0  0  0  0  0  0  0  0  0  0  0  0
    8.9159   14.2666   13.9609 H   0  0  0  0  0  0  0  0  0  0  0  0
    9.8981   14.3786   11.3542 C   0  0  0  0  0  0  0  0  0  0  0  0
    9.5689   13.3959   11.6824 H   0  0  0  0  0  0  0  0  0  0  0  0
   10.9796   14.4139   11.4503 H   0  0  0  0  0  0  0  0  0  0  0  0
    9.6432   14.5052   10.3044 H   0  0  0  0  0  0  0  0  0  0  0  0
    3.4810   16.2383   11.9516 C   0  0  0  0  0  0  0  0  0  0  0  0
    3.1912   16.1343   12.9986 H   0  0  0  0  0  0  0  0  0  0  0  0
    2.9498   15.4776   11.3830 H   0  0  0  0  0  0  0  0  0  0  0  0
    3.1672   17.2239   11.6136 H   0  0  0  0  0  0  0  0  0  0  0  0
  1 39  1  0  0  0  0
  4  9  1  0  0  0  0
  4  1  1  0  0  0  0
  5 20  1  0  0  0  0
  5  1  1  0  0  0  0
  6  8  1  0  0  0  0
  6 30  1  0  0  0  0
  7  6  1  0  0  0  0
  9 10  1  0  0  0  0
 11 12  1  0  0  0  0
 11  9  1  0  0  0  0
 13 11  2  0  0  0  0
 14 13  1  0  0  0  0
 15 13  1  0  0  0  0
 15 17  2  0  0  0  0
 16 15  1  0  0  0  0
 17  4  1  0  0  0  0
 18 17  1  0  0  0  0
 18  5  1  0  0  0  0
 19 18  1  0  0  0  0
 20 21  1  0  0  0  0
 21 22  1  0  0  0  0
 21 23  2  0  0  0  0
 23 24  1  0  0  0  0
 25 23  1  0  0  0  0
 25 30  1  0  0  0  0
 26 25  2  0  0  0  0
 27 26  1  0  0  0  0
 28 26  1  0  0  0  0
 28 20  2  0  0  0  0
 29 28  1  0  0  0  0
 30  3  2  0  0  0  0
 31 32  1  0  0  0  0
 33 31  2  0  0  0  0
 33 41  1  0  0  0  0
 34 36  2  0  0  0  0
 34 33  1  0  0  0  0
 35 34  1  0  0  0  0
 36 38  1  0  0  0  0
 37 36  1  0  0  0  0
 38 51  1  1  0  0  0
 38 39  1  0  0  0  0
 39 31  1  0  0  0  0
 39 40  1  1  0  0  0
 41 43  1  0  0  0  0
 42 41  1  0  0  0  0
 43 45  1  0  0  0  0
 43 46  1  0  0  0  0
 43 44  1  0  0  0  0
 47 49  1  0  0  0  0
 47 48  1  0  0  0  0
 47 41  1  0  0  0  0
 50 47  1  0  0  0  0
 51 52  1  0  0  0  0
 53 51  1  0  0  0  0
 54 51  1  0  0  0  0
M  END
$$$$
