CSD_code = HOHFOC | q = 0 | S = 0 | Stoichiometry = C12H7BrN3O3Re | MND = 6
 OpenBabel04212202043D

 27 29  0  0  0  0  0  0  0  0999 V2000
    4.2101    1.8489    2.4681 Re  0  0  0  0  0  0  0  0  0  0  0  0
    2.0931    2.6527    3.7189 Br  0  0  0  0  0  0  0  0  0  0  0  0
    6.8223    1.0749    1.0142 O   0  0  0  0  0  1  0  0  0  0  0  0
    2.3819    1.6171   -0.0232 O   0  0  0  0  0  1  0  0  0  0  0  0
    3.5646   -1.0094    3.4649 O   0  0  0  0  0  1  0  0  0  0  0  0
    4.5777    3.9642    2.2728 N   0  0  0  0  0  0  0  0  0  0  0  0
    5.1625    2.3541    4.2190 N   0  0  0  0  0  0  0  0  0  0  0  0
    5.4322    1.4367    5.1055 N   0  0  0  0  0  2  0  0  0  0  0  0
    5.8447    1.3488    1.5457 C   0  0  0  0  0  2  0  0  0  0  0  0
    3.0979    1.6491    0.8685 C   0  0  0  0  0  2  0  0  0  0  0  0
    3.8282    0.0133    3.0372 C   0  0  0  0  0  2  0  0  0  0  0  0
    4.2500    4.7216    1.2298 C   0  0  0  0  0  3  0  0  0  0  0  0
    3.9048    4.1994    0.3470 H   0  0  0  0  0  0  0  0  0  0  0  0
    4.3275    6.1015    1.2450 C   0  0  0  0  0  0  0  0  0  0  0  0
    4.0397    6.6658    0.3733 H   0  0  0  0  0  0  0  0  0  0  0  0
    4.7694    6.7333    2.3990 C   0  0  0  0  0  0  0  0  0  0  0  0
    4.8347    7.8089    2.4517 H   0  0  0  0  0  0  0  0  0  0  0  0
    5.1218    5.9559    3.4848 C   0  0  0  0  0  0  0  0  0  0  0  0
    5.4642    6.4193    4.3953 H   0  0  0  0  0  0  0  0  0  0  0  0
    5.0153    4.5692    3.3970 C   0  0  0  0  0  0  0  0  0  0  0  0
    5.3495    3.6626    4.4935 C   0  0  0  0  0  0  0  0  0  0  0  0
    5.8155    4.0620    5.7489 C   0  0  0  0  0  0  0  0  0  0  0  0
    5.9566    5.1056    5.9801 H   0  0  0  0  0  0  0  0  0  0  0  0
    6.0768    3.0867    6.6878 C   0  0  0  0  0  0  0  0  0  0  0  0
    6.4250    3.3324    7.6777 H   0  0  0  0  0  0  0  0  0  0  0  0
    5.8679    1.7618    6.2995 C   0  0  0  0  0  0  0  0  0  0  0  0
    6.0492    0.9317    6.9657 H   0  0  0  0  0  0  0  0  0  0  0  0
  1 11  1  0  0  0  0
  1  2  1  0  0  0  0
  1  7  1  0  0  0  0
  3  9  1  0  0  0  0
  4 10  1  0  0  0  0
  6  1  1  0  0  0  0
  6 20  1  0  0  0  0
  7 21  1  0  0  0  0
  7  8  1  0  0  0  0
  8 26  1  0  0  0  0
  9  1  1  0  0  0  0
 10  1  1  0  0  0  0
 11  5  1  0  0  0  0
 12 14  1  0  0  0  0
 12  6  1  0  0  0  0
 13 12  1  0  0  0  0
 14 16  2  0  0  0  0
 15 14  1  0  0  0  0
 16 17  1  0  0  0  0
 16 18  1  0  0  0  0
 18 19  1  0  0  0  0
 20 18  2  0  0  0  0
 20 21  1  0  0  0  0
 21 22  2  0  0  0  0
 22 23  1  0  0  0  0
 22 24  1  0  0  0  0
 24 25  1  0  0  0  0
 26 24  2  0  0  0  0
 26 27  1  0  0  0  0
M  END
$$$$
