CSD_code = HOHFUF | q = 0 | S = 0 | Stoichiometry = C13H24Cl2NPSiTi | MND = 8
 OpenBabel04212202043D

 43 44  0  0  1  0  0  0  0  0999 V2000
    1.5183    6.7123    8.6051 Ti  0  0  0  0  0  0  0  0  0  0  0  0
    2.9182    7.0052    6.9705 Cl  0  0  0  0  0  0  0  0  0  0  0  0
    2.3761    4.8682    9.4416 Cl  0  0  0  0  0  0  0  0  0  0  0  0
   -0.3943    7.8822    7.4244 P   0  0  0  0  0  0  0  0  0  0  0  0
    0.1112    8.4641   10.4370 Si  0  0  0  0  0  0  0  0  0  0  0  0
    1.7118    7.9882    9.9411 N   0  0  0  0  0  0  0  0  0  0  0  0
   -0.1869    6.2018    6.8880 C   0  0  0  0  0  0  0  0  0  0  0  0
   -0.3355    5.2844    7.9367 C   0  0  0  0  0  0  0  0  0  0  0  0
   -0.5769    5.9175    9.1909 C   0  0  0  0  0  0  0  0  0  0  0  0
   -0.6369    7.3225    9.1045 C   0  0  2  0  0  0  0  0  0  0  0  0
    0.0464    5.8198    5.4541 C   0  0  0  0  0  0  0  0  0  0  0  0
   -0.3257    3.7943    7.7483 C   0  0  0  0  0  0  0  0  0  0  0  0
   -0.8734    5.1392   10.4428 C   0  0  0  0  0  0  0  0  0  0  0  0
   -0.3087    8.0745   12.2638 C   0  0  0  0  0  0  0  0  0  0  0  0
   -0.4262   10.2586   10.0410 C   0  0  0  0  0  0  0  0  0  0  0  0
    2.9616    8.6427   10.2789 C   0  0  0  0  0  0  0  0  0  0  0  0
    3.2250    9.7571    9.2499 C   0  0  0  0  0  0  0  0  0  0  0  0
    2.9052    9.2495   11.6868 C   0  0  0  0  0  0  0  0  0  0  0  0
    4.1111    7.6194   10.2421 C   0  0  0  0  0  0  0  0  0  0  0  0
    0.1126    6.7142    4.8343 H   0  0  0  0  0  0  0  0  0  0  0  0
   -0.7724    5.1997    5.0836 H   0  0  0  0  0  0  0  0  0  0  0  0
    0.9766    5.2562    5.3423 H   0  0  0  0  0  0  0  0  0  0  0  0
    0.0565    3.2936    8.6367 H   0  0  0  0  0  0  0  0  0  0  0  0
    0.2965    3.5138    6.8992 H   0  0  0  0  0  0  0  0  0  0  0  0
   -1.3411    3.4371    7.5589 H   0  0  0  0  0  0  0  0  0  0  0  0
   -1.6155    4.3680   10.2312 H   0  0  0  0  0  0  0  0  0  0  0  0
   -1.2695    5.7970   11.2114 H   0  0  0  0  0  0  0  0  0  0  0  0
    0.0259    4.6491   10.8236 H   0  0  0  0  0  0  0  0  0  0  0  0
    0.1902    7.1758   12.6133 H   0  0  0  0  0  0  0  0  0  0  0  0
   -1.3771    7.9492   12.4036 H   0  0  0  0  0  0  0  0  0  0  0  0
    0.0031    8.8956   12.8998 H   0  0  0  0  0  0  0  0  0  0  0  0
   -0.2482   10.4991    8.9960 H   0  0  0  0  0  0  0  0  0  0  0  0
    0.1029   10.9842   10.6498 H   0  0  0  0  0  0  0  0  0  0  0  0
   -1.4864   10.3871   10.2317 H   0  0  0  0  0  0  0  0  0  0  0  0
    2.4562   10.5226    9.3298 H   0  0  0  0  0  0  0  0  0  0  0  0
    3.1982    9.3403    8.2405 H   0  0  0  0  0  0  0  0  0  0  0  0
    4.1978   10.2120    9.4205 H   0  0  0  0  0  0  0  0  0  0  0  0
    2.1384   10.0169   11.7402 H   0  0  0  0  0  0  0  0  0  0  0  0
    3.8636    9.6976   11.9371 H   0  0  0  0  0  0  0  0  0  0  0  0
    2.6780    8.4745   12.4141 H   0  0  0  0  0  0  0  0  0  0  0  0
    4.2491    7.2255    9.2306 H   0  0  0  0  0  0  0  0  0  0  0  0
    3.8903    6.7925   10.9203 H   0  0  0  0  0  0  0  0  0  0  0  0
    5.0406    8.0902   10.5567 H   0  0  0  0  0  0  0  0  0  0  0  0
  1 10  1  0  0  0  0
  1  3  1  0  0  0  0
  1  6  1  0  0  0  0
  2  1  1  0  0  0  0
  5 14  1  0  0  0  0
  6 16  1  0  0  0  0
  6  5  1  0  0  0  0
  7  4  2  0  0  0  0
  7  8  1  0  0  0  0
  8  9  2  0  0  0  0
  9 13  1  0  0  0  0
 10  4  1  6  0  0  0
 10  9  1  0  0  0  0
 10  5  1  0  0  0  0
 11  7  1  0  0  0  0
 12  8  1  0  0  0  0
 12 23  1  0  0  0  0
 13 28  1  0  0  0  0
 13 27  1  0  0  0  0
 14 30  1  0  0  0  0
 14 29  1  0  0  0  0
 14 31  1  0  0  0  0
 15 34  1  0  0  0  0
 15  5  1  0  0  0  0
 15 33  1  0  0  0  0
 16 18  1  0  0  0  0
 17 35  1  0  0  0  0
 17 37  1  0  0  0  0
 17 16  1  0  0  0  0
 18 38  1  0  0  0  0
 18 39  1  0  0  0  0
 18 40  1  0  0  0  0
 19 16  1  0  0  0  0
 19 43  1  0  0  0  0
 19 42  1  0  0  0  0
 20 11  1  0  0  0  0
 21 11  1  0  0  0  0
 22 11  1  0  0  0  0
 24 12  1  0  0  0  0
 25 12  1  0  0  0  0
 26 13  1  0  0  0  0
 32 15  1  0  0  0  0
 36 17  1  0  0  0  0
 41 19  1  0  0  0  0
M  END
$$$$
