CSD_code = HOJCUF | q = 0 | S = 0 | Stoichiometry = C27H32ClN4Rh | MND = 6
 OpenBabel04212202043D

 65 68  0  0  1  0  0  0  0  0999 V2000
    3.4143   14.7544    7.1712 Rh  0  0  0  0  0  0  0  0  0  0  0  0
    1.5588   15.8049    7.9698 Cl  0  0  0  0  0 15  0  0  0  0  0  0
    3.1487   13.2115    9.7419 N   0  0  0  0  0  0  0  0  0  0  0  0
    2.5296   12.1482   10.2944 N   0  0  0  0  0  0  0  0  0  0  0  0
    2.1165   12.2562    8.1535 N   0  0  0  0  0  0  0  0  0  0  0  0
    1.5621   12.0688    6.9053 N   0  0  1  0  0  0  0  0  0  0  0  0
    2.9310   13.3101    8.4292 C   0  0  1  0  0  3  0  0  0  0  0  0
    1.8905   11.5873    9.3211 C   0  0  0  0  0  0  0  0  0  0  0  0
    1.2836   10.7142    9.4342 H   0  0  0  0  0  0  0  0  0  0  0  0
    3.8996   14.1250   10.5529 C   0  0  0  0  0  0  0  0  0  0  0  0
    4.0290   15.0500    9.9847 H   0  0  0  0  0  0  0  0  0  0  0  0
    4.8734   13.7037   10.8110 H   0  0  0  0  0  0  0  0  0  0  0  0
    3.3450   14.3262   11.4684 H   0  0  0  0  0  0  0  0  0  0  0  0
    1.4233   10.6757    6.4838 C   0  0  1  0  0  0  0  0  0  0  0  0
    0.9506   10.0663    7.2710 H   0  0  0  0  0  0  0  0  0  0  0  0
    0.4746   10.7705    5.2748 C   0  0  0  0  0  0  0  0  0  0  0  0
    1.0293   10.6680    4.3439 H   0  0  0  0  0  0  0  0  0  0  0  0
   -0.2589    9.9657    5.3058 H   0  0  0  0  0  0  0  0  0  0  0  0
   -0.1821   12.1590    5.3726 C   0  0  0  0  0  0  0  0  0  0  0  0
    0.1975   12.8090    4.5859 H   0  0  0  0  0  0  0  0  0  0  0  0
   -1.2658   12.1163    5.2840 H   0  0  0  0  0  0  0  0  0  0  0  0
    0.2434   12.7154    6.7302 C   0  0  1  0  0  0  0  0  0  0  0  0
    0.4171   13.7964    6.6973 H   0  0  0  0  0  0  0  0  0  0  0  0
    2.7731   10.0947    6.1600 C   0  0  0  0  0  0  0  0  0  0  0  0
    3.5433   10.6495    5.1448 C   0  0  0  0  0  0  0  0  0  0  0  0
    3.1631   11.5017    4.6025 H   0  0  0  0  0  0  0  0  0  0  0  0
    4.7851   10.1223    4.8407 C   0  0  0  0  0  0  0  0  0  0  0  0
    5.3771   10.5577    4.0488 H   0  0  0  0  0  0  0  0  0  0  0  0
    5.2741    9.0391    5.5519 C   0  0  0  0  0  0  0  0  0  0  0  0
    6.2436    8.6275    5.3137 H   0  0  0  0  0  0  0  0  0  0  0  0
    4.5168    8.4874    6.5700 C   0  0  0  0  0  0  0  0  0  0  0  0
    4.8937    7.6450    7.1309 H   0  0  0  0  0  0  0  0  0  0  0  0
    3.2728    9.0142    6.8728 C   0  0  0  0  0  0  0  0  0  0  0  0
    2.6852    8.5769    7.6685 H   0  0  0  0  0  0  0  0  0  0  0  0
   -0.6810   12.4056    7.8841 C   0  0  0  0  0  0  0  0  0  0  0  0
   -1.4704   11.2623    7.9366 C   0  0  0  0  0  0  0  0  0  0  0  0
   -1.5166   10.5858    7.0967 H   0  0  0  0  0  0  0  0  0  0  0  0
   -2.2241   10.9789    9.0630 C   0  0  0  0  0  0  0  0  0  0  0  0
   -2.8343   10.0870    9.0865 H   0  0  0  0  0  0  0  0  0  0  0  0
   -2.1969   11.8294   10.1542 C   0  0  0  0  0  0  0  0  0  0  0  0
   -2.7826   11.6021   11.0328 H   0  0  0  0  0  0  0  0  0  0  0  0
   -1.4225   12.9760   10.1077 C   0  0  0  0  0  0  0  0  0  0  0  0
   -1.4022   13.6516   10.9496 H   0  0  0  0  0  0  0  0  0  0  0  0
   -0.6711   13.2618    8.9825 C   0  0  0  0  0  0  0  0  0  0  0  0
   -0.0774   14.1644    8.9438 H   0  0  0  0  0  0  0  0  0  0  0  0
    3.3739   15.9157    5.3695 C   0  0  0  0  0  3  0  0  0  0  0  0
    2.3417   16.2411    5.2282 H   0  0  0  0  0  0  0  0  0  0  0  0
    4.1456   16.5984    6.2861 C   0  0  0  0  0  3  0  0  0  0  0  0
    3.6746   17.4096    6.8412 H   0  0  0  0  0  0  0  0  0  0  0  0
    5.6559   16.6563    6.2358 C   0  0  0  0  0  0  0  0  0  0  0  0
    5.9875   17.6287    6.6058 H   0  0  0  0  0  0  0  0  0  0  0  0
    5.9830   16.5786    5.1982 H   0  0  0  0  0  0  0  0  0  0  0  0
    6.3056   15.5527    7.0915 C   0  0  0  0  0  0  0  0  0  0  0  0
    7.2980   15.3059    6.6973 H   0  0  0  0  0  0  0  0  0  0  0  0
    6.4491   15.9312    8.1074 H   0  0  0  0  0  0  0  0  0  0  0  0
    5.4741   14.2925    7.1771 C   0  0  2  0  0  0  0  0  0  0  0  0
    5.7345   13.6714    8.0357 H   0  0  0  0  0  0  0  0  0  0  0  0
    4.8770   13.6533    6.0893 C   0  0  0  0  0  3  0  0  0  0  0  0
    4.6871   12.5877    6.1953 H   0  0  0  0  0  0  0  0  0  0  0  0
    5.0382   14.1205    4.6584 C   0  0  0  0  0  0  0  0  0  0  0  0
    5.0278   13.2516    3.9971 H   0  0  0  0  0  0  0  0  0  0  0  0
    6.0129   14.5968    4.5435 H   0  0  0  0  0  0  0  0  0  0  0  0
    3.9126   15.0811    4.2300 C   0  0  0  0  0  0  0  0  0  0  0  0
    4.2649   15.7439    3.4316 H   0  0  0  0  0  0  0  0  0  0  0  0
    3.0842   14.4959    3.8218 H   0  0  0  0  0  0  0  0  0  0  0  0
  1 56  1  0  0  0  0
  3  4  1  0  0  0  0
  3 10  1  0  0  0  0
  5  7  1  0  0  0  0
  5  8  1  0  0  0  0
  6  5  1  1  0  0  0
  7  1  1  1  0  0  0
  7  3  1  0  0  0  0
  8  9  1  0  0  0  0
  8  4  2  0  0  0  0
 10 12  1  0  0  0  0
 10 13  1  0  0  0  0
 11 10  1  0  0  0  0
 14  6  1  0  0  0  0
 14 15  1  1  0  0  0
 16 18  1  0  0  0  0
 16 19  1  0  0  0  0
 16 14  1  0  0  0  0
 17 16  1  0  0  0  0
 19 22  1  0  0  0  0
 20 19  1  0  0  0  0
 21 19  1  0  0  0  0
 22 23  1  6  0  0  0
 22  6  1  0  0  0  0
 22 35  1  0  0  0  0
 24 14  1  0  0  0  0
 24 33  1  0  0  0  0
 25 24  2  0  0  0  0
 26 25  1  0  0  0  0
 27 25  1  0  0  0  0
 27 29  2  0  0  0  0
 28 27  1  0  0  0  0
 29 31  1  0  0  0  0
 30 29  1  0  0  0  0
 31 33  2  0  0  0  0
 31 32  1  0  0  0  0
 33 34  1  0  0  0  0
 35 36  2  0  0  0  0
 35 44  1  0  0  0  0
 36 38  1  0  0  0  0
 37 36  1  0  0  0  0
 38 39  1  0  0  0  0
 38 40  2  0  0  0  0
 40 41  1  0  0  0  0
 42 40  1  0  0  0  0
 42 43  1  0  0  0  0
 44 42  2  0  0  0  0
 45 44  1  0  0  0  0
 46 48  1  0  0  0  0
 47 46  1  0  0  0  0
 48 49  1  0  0  0  0
 50 48  1  0  0  0  0
 50 51  1  0  0  0  0
 50 53  1  0  0  0  0
 52 50  1  0  0  0  0
 53 56  1  0  0  0  0
 53 55  1  0  0  0  0
 54 53  1  0  0  0  0
 56 57  1  1  0  0  0
 58 59  1  0  0  0  0
 58 56  1  0  0  0  0
 60 58  1  0  0  0  0
 61 60  1  0  0  0  0
 62 60  1  0  0  0  0
 63 60  1  0  0  0  0
 63 46  1  0  0  0  0
 64 63  1  0  0  0  0
 65 63  1  0  0  0  0
M  END
$$$$
