CSD_code = HOKBOZ | q = 0 | S = 0 | Stoichiometry = C18H29IN6P2Pd | MND = 4
 OpenBabel04212202043D

 57 63  0  0  1  0  0  0  0  0999 V2000
   -3.3392   13.3167    7.4822 Pd  0  0  1  0  0  0  0  0  0  0  0  0
   -3.3375   10.7161    7.4887 I   0  0  0  0  0  0  0  0  0  0  0  0
   -5.5621   13.4373    7.8480 P   0  0  2  0  0  4  0  0  0  0  0  0
   -8.0006   12.3761    8.5364 N   0  0  2  0  0  0  0  0  0  0  0  0
   -3.3399   15.3158    7.4806 C   0  0  0  0  0  0  0  0  0  0  0  0
   -7.9134   13.5615    6.4176 N   0  0  1  0  0  0  0  0  0  0  0  0
   -3.1546   16.0161    8.6661 C   0  0  0  0  0  0  0  0  0  0  0  0
   -3.0186   15.4750    9.6026 H   0  0  0  0  0  0  0  0  0  0  0  0
   -7.8622   14.8003    8.5120 N   0  0  2  0  0  0  0  0  0  0  0  0
   -3.1512   17.4025    8.6653 C   0  0  0  0  0  0  0  0  0  0  0  0
   -3.0042   17.9417    9.5908 H   0  0  0  0  0  0  0  0  0  0  0  0
   -3.3394   18.0954    7.4810 C   0  0  0  0  0  0  0  0  0  0  0  0
   -3.3393   19.1756    7.4811 H   0  0  0  0  0  0  0  0  0  0  0  0
   -6.5833   12.1068    8.6566 C   0  0  0  0  0  0  0  0  0  0  0  0
   -6.3596   11.1416    8.1872 H   0  0  0  0  0  0  0  0  0  0  0  0
   -6.3162   12.0377    9.7188 H   0  0  0  0  0  0  0  0  0  0  0  0
   -6.4789   13.4732    6.2323 C   0  0  0  0  0  0  0  0  0  0  0  0
   -6.1397   14.3393    5.6477 H   0  0  0  0  0  0  0  0  0  0  0  0
   -6.2440   12.5601    5.6676 H   0  0  0  0  0  0  0  0  0  0  0  0
   -6.4210   14.8948    8.6278 C   0  0  0  0  0  0  0  0  0  0  0  0
   -6.1517   14.9486    9.6901 H   0  0  0  0  0  0  0  0  0  0  0  0
   -6.0817   15.8189    8.1432 H   0  0  0  0  0  0  0  0  0  0  0  0
   -8.4286   12.4132    7.1486 C   0  0  0  0  0  0  0  0  0  0  0  0
   -9.5217   12.4645    7.1305 H   0  0  0  0  0  0  0  0  0  0  0  0
   -8.1049   11.4966    6.6492 H   0  0  0  0  0  0  0  0  0  0  0  0
   -8.3800   13.6184    9.1845 C   0  0  0  0  0  0  0  0  0  0  0  0
   -9.4727   13.6824    9.1864 H   0  0  0  0  0  0  0  0  0  0  0  0
   -8.0218   13.6090   10.2175 H   0  0  0  0  0  0  0  0  0  0  0  0
   -8.2888   14.7765    7.1220 C   0  0  0  0  0  0  0  0  0  0  0  0
   -7.8598   15.6388    6.6037 H   0  0  0  0  0  0  0  0  0  0  0  0
   -9.3804   14.8551    7.1026 H   0  0  0  0  0  0  0  0  0  0  0  0
   -1.1167   13.4375    7.1148 P   0  0  2  0  0  4  0  0  0  0  0  0
    1.3215   12.3764    6.4256 N   0  0  2  0  0  0  0  0  0  0  0  0
    1.2347   13.5608    8.5451 N   0  0  1  0  0  0  0  0  0  0  0  0
   -3.5249   16.0164    6.2953 C   0  0  0  0  0  0  0  0  0  0  0  0
   -3.6610   15.4756    5.3588 H   0  0  0  0  0  0  0  0  0  0  0  0
    1.1833   14.8005    6.4512 N   0  0  2  0  0  0  0  0  0  0  0  0
   -3.5278   17.4028    6.2965 C   0  0  0  0  0  0  0  0  0  0  0  0
   -3.6747   17.9423    5.3712 H   0  0  0  0  0  0  0  0  0  0  0  0
   -0.0957   12.1073    6.3054 C   0  0  0  0  0  0  0  0  0  0  0  0
   -0.3195   11.1418    6.7742 H   0  0  0  0  0  0  0  0  0  0  0  0
   -0.3629   12.0388    5.2432 H   0  0  0  0  0  0  0  0  0  0  0  0
   -0.1997   13.4725    8.7305 C   0  0  0  0  0  0  0  0  0  0  0  0
   -0.5388   14.3384    9.3154 H   0  0  0  0  0  0  0  0  0  0  0  0
   -0.4347   12.5591    9.2947 H   0  0  0  0  0  0  0  0  0  0  0  0
   -0.2578   14.8952    6.3356 C   0  0  0  0  0  0  0  0  0  0  0  0
   -0.5273   14.9496    5.2734 H   0  0  0  0  0  0  0  0  0  0  0  0
   -0.5970   15.8192    6.8206 H   0  0  0  0  0  0  0  0  0  0  0  0
    1.7497   12.4128    7.8135 C   0  0  0  0  0  0  0  0  0  0  0  0
    2.8428   12.4638    7.8314 H   0  0  0  0  0  0  0  0  0  0  0  0
    1.4259   11.4959    8.3124 H   0  0  0  0  0  0  0  0  0  0  0  0
    1.7010   13.6189    5.7781 C   0  0  0  0  0  0  0  0  0  0  0  0
    2.7937   13.6829    5.7762 H   0  0  0  0  0  0  0  0  0  0  0  0
    1.3428   13.6101    4.7451 H   0  0  0  0  0  0  0  0  0  0  0  0
    1.6101   14.7761    7.8411 C   0  0  0  0  0  0  0  0  0  0  0  0
    1.1813   15.6382    8.3599 H   0  0  0  0  0  0  0  0  0  0  0  0
    2.7017   14.8546    7.8605 H   0  0  0  0  0  0  0  0  0  0  0  0
  1  2  1  1  0  0  0
  3  1  1  1  0  0  0
  3 20  1  0  0  0  0
  3 14  1  0  0  0  0
  4 23  1  6  0  0  0
  4 14  1  0  0  0  0
  4 26  1  0  0  0  0
  5  1  1  0  0  0  0
  5  7  1  0  0  0  0
  6 17  1  1  0  0  0
  6 29  1  0  0  0  0
  6 23  1  0  0  0  0
  7  8  1  0  0  0  0
  9 29  1  6  0  0  0
  9 20  1  0  0  0  0
  9 26  1  0  0  0  0
 10  7  2  0  0  0  0
 10 11  1  0  0  0  0
 12 13  1  0  0  0  0
 12 10  1  0  0  0  0
 14 16  1  0  0  0  0
 15 14  1  0  0  0  0
 17  3  1  0  0  0  0
 18 17  1  0  0  0  0
 19 17  1  0  0  0  0
 20 21  1  0  0  0  0
 22 20  1  0  0  0  0
 24 23  1  0  0  0  0
 25 23  1  0  0  0  0
 26 27  1  0  0  0  0
 26 28  1  0  0  0  0
 30 29  1  0  0  0  0
 31 29  1  0  0  0  0
 32  1  1  6  0  0  0
 32 43  1  0  0  0  0
 33 52  1  1  0  0  0
 33 49  1  0  0  0  0
 34 49  1  6  0  0  0
 34 43  1  0  0  0  0
 35 38  1  0  0  0  0
 35  5  2  0  0  0  0
 36 35  1  0  0  0  0
 37 52  1  1  0  0  0
 37 55  1  0  0  0  0
 38 12  2  0  0  0  0
 39 38  1  0  0  0  0
 40 33  1  0  0  0  0
 40 41  1  0  0  0  0
 40 32  1  0  0  0  0
 42 40  1  0  0  0  0
 43 45  1  0  0  0  0
 43 44  1  0  0  0  0
 46 37  1  0  0  0  0
 46 48  1  0  0  0  0
 46 32  1  0  0  0  0
 47 46  1  0  0  0  0
 49 50  1  0  0  0  0
 49 51  1  0  0  0  0
 53 52  1  0  0  0  0
 54 52  1  0  0  0  0
 55 57  1  0  0  0  0
 55 56  1  0  0  0  0
 55 34  1  0  0  0  0
M  END
$$$$
