CSD_code = HOKBIV | q = 0 | S = 0 | Stoichiometry = C23H18ClN3OPd | MND = 4
 OpenBabel04212202043D

 47 52  0  0  1  0  0  0  0  0999 V2000
   11.9682    5.5863    9.8465 O   0  0  0  0  0  0  0  0  0  0  0  0
    9.3322    8.5760   10.1087 N   0  0  0  0  0  0  0  0  0  0  0  0
    7.9702    6.2918    9.0629 N   0  0  0  0  0  0  0  0  0  0  0  0
    9.4989    4.6469    8.6404 C   0  0  0  0  0  0  0  0  0  0  0  0
    8.6457    4.2207    8.1184 H   0  0  0  0  0  0  0  0  0  0  0  0
   11.8531    4.4244    9.3364 C   0  0  0  0  0  0  0  0  0  0  0  0
    7.5310    6.9565   10.2859 C   0  0  0  0  0  0  0  0  0  0  0  0
    7.9478    6.3928   11.1327 H   0  0  0  0  0  0  0  0  0  0  0  0
    6.4417    6.9241   10.3415 H   0  0  0  0  0  0  0  0  0  0  0  0
   10.6983    3.9101    8.6661 C   0  0  0  0  0  0  0  0  0  0  0  0
    7.7620    7.0424    7.8777 C   0  0  0  0  0  0  0  0  0  0  0  0
    8.0188    8.3864   10.2989 C   0  0  2  0  0  3  0  0  0  0  0  0
   10.7546    2.6047    8.0477 C   0  0  0  0  0  0  0  0  0  0  0  0
   12.2092    8.2849   11.0219 Cl  0  0  0  0  0  0  0  0  0  0  0  0
    8.9492   10.9283   10.0153 C   0  0  0  0  0  0  0  0  0  0  0  0
    9.3624   11.9154    9.8874 H   0  0  0  0  0  0  0  0  0  0  0  0
    7.1267    9.4456   10.3747 C   0  0  0  0  0  0  0  0  0  0  0  0
    6.0778    9.2495   10.5336 H   0  0  0  0  0  0  0  0  0  0  0  0
   13.0085    3.5771    9.4409 C   0  0  0  0  0  0  0  0  0  0  0  0
   13.8518    3.9885    9.9749 H   0  0  0  0  0  0  0  0  0  0  0  0
   11.9995    0.5459    7.5996 C   0  0  0  0  0  3  0  0  0  0  0  0
   12.9092   -0.0248    7.7217 H   0  0  0  0  0  0  0  0  0  0  0  0
    9.6979    2.0472    7.3058 C   0  0  0  0  0  0  0  0  0  0  0  0
    8.7836    2.5981    7.1493 H   0  0  0  0  0  0  0  0  0  0  0  0
    6.4569    7.3634    7.5115 C   0  0  0  0  0  0  0  0  0  0  0  0
    5.6333    7.0357    8.1269 H   0  0  0  0  0  0  0  0  0  0  0  0
    9.7817    9.8257    9.9529 C   0  0  0  0  0  0  0  0  0  0  0  0
   10.8492    9.9373    9.8014 H   0  0  0  0  0  0  0  0  0  0  0  0
    8.8206    7.4589    7.0721 C   0  0  0  0  0  0  0  0  0  0  0  0
    9.8521    7.2301    7.3467 H   0  0  0  0  0  0  0  0  0  0  0  0
    7.2707    8.4991    5.5593 C   0  0  0  0  0  0  0  0  0  0  0  0
    7.0798    9.0640    4.6600 H   0  0  0  0  0  0  0  0  0  0  0  0
   13.0398    2.3431    8.8958 C   0  0  0  0  0  0  0  0  0  0  0  0
   13.9221    1.7253    8.9892 H   0  0  0  0  0  0  0  0  0  0  0  0
    9.7891    0.7963    6.7453 C   0  0  0  0  0  0  0  0  0  0  0  0
    8.9555    0.4033    6.1814 H   0  0  0  0  0  0  0  0  0  0  0  0
   11.9286    1.8224    8.1775 C   0  0  0  0  0  0  0  0  0  0  0  0
    7.5955   10.7420   10.2462 C   0  0  0  0  0  0  0  0  0  0  0  0
    6.9196   11.5804   10.3105 H   0  0  0  0  0  0  0  0  0  0  0  0
    6.2175    8.0861    6.3594 C   0  0  0  0  0  0  0  0  0  0  0  0
    5.2018    8.3274    6.0835 H   0  0  0  0  0  0  0  0  0  0  0  0
    8.5687    8.1822    5.9202 C   0  0  0  0  0  0  0  0  0  0  0  0
    9.3957    8.5040    5.3055 H   0  0  0  0  0  0  0  0  0  0  0  0
   10.9443    0.0298    6.8931 C   0  0  0  0  0  0  0  0  0  0  0  0
   11.0033   -0.9531    6.4505 H   0  0  0  0  0  0  0  0  0  0  0  0
   10.6243    7.0501   10.0143 Pd  0  0  2  0  0  0  0  0  0  0  0  0
    9.2720    5.7917    9.2206 N   0  0  0  0  0  0  0  0  0  0  0  0
  1 46  1  0  0  0  0
  2 12  1  0  0  0  0
  3 47  1  0  0  0  0
  3  7  1  0  0  0  0
  4 10  2  0  0  0  0
  4 47  1  0  0  0  0
  5  4  1  0  0  0  0
  6 19  2  0  0  0  0
  6  1  1  0  0  0  0
  7 12  1  0  0  0  0
  7  9  1  0  0  0  0
  7  8  1  0  0  0  0
 10  6  1  0  0  0  0
 11  3  1  0  0  0  0
 12 17  1  6  0  0  0
 13 37  1  0  0  0  0
 13 10  1  0  0  0  0
 15 38  1  0  0  0  0
 16 15  1  0  0  0  0
 17 18  1  0  0  0  0
 19 20  1  0  0  0  0
 21 22  1  0  0  0  0
 21 37  1  0  0  0  0
 23 13  2  0  0  0  0
 24 23  1  0  0  0  0
 25 11  1  0  0  0  0
 25 26  1  0  0  0  0
 27 15  2  0  0  0  0
 27  2  1  0  0  0  0
 28 27  1  0  0  0  0
 29 30  1  0  0  0  0
 29 11  2  0  0  0  0
 31 42  2  0  0  0  0
 31 40  1  0  0  0  0
 32 31  1  0  0  0  0
 33 34  1  0  0  0  0
 33 19  1  0  0  0  0
 35 44  2  0  0  0  0
 35 23  1  0  0  0  0
 36 35  1  0  0  0  0
 37 33  2  0  0  0  0
 38 39  1  0  0  0  0
 38 17  2  0  0  0  0
 40 25  2  0  0  0  0
 41 40  1  0  0  0  0
 42 29  1  0  0  0  0
 43 42  1  0  0  0  0
 44 21  1  0  0  0  0
 45 44  1  0  0  0  0
 46  2  1  0  0  0  0
 46 14  1  1  0  0  0
 47 46  1  0  0  0  0
M  END
$$$$
