CSD_code = HOKCUG | q = 0 | S = 0 | Stoichiometry = C20H24Br2N4OPt | MND = 6
 OpenBabel04212202043D

 52 56  0  0  0  0  0  0  0  0999 V2000
    4.8249    1.6694   18.1236 Pt  0  0  0  0  0  0  0  0  0  0  0  0
    2.7014    2.6565   17.2610 Br  0  0  0  0  0  0  0  0  0  0  0  0
    6.9844    0.8273   19.0195 Br  0  0  0  0  0  0  0  0  0  0  0  0
    7.4822    6.4913   18.5697 O   0  0  0  0  0  0  0  0  0  0  0  0
    4.9616    3.4986   19.4757 N   0  0  0  0  0  0  0  0  0  0  0  0
    5.1375    5.6768   19.8650 N   0  0  0  0  0  0  0  0  0  0  0  0
    6.0393    2.9374   16.6585 N   0  0  0  0  0  0  0  0  0  0  0  0
    7.3331    4.6855   16.2173 N   0  0  0  0  0  0  0  0  0  0  0  0
    3.7112    0.5939   19.4838 C   0  0  0  0  0  0  0  0  0  0  0  0
    2.8881    0.0741   18.9920 H   0  0  0  0  0  0  0  0  0  0  0  0
    3.2965    1.3039   20.2031 H   0  0  0  0  0  0  0  0  0  0  0  0
    4.3288   -0.1360   20.0078 H   0  0  0  0  0  0  0  0  0  0  0  0
    4.7512    0.0564   16.8455 C   0  0  0  0  0  0  0  0  0  0  0  0
    4.9449   -0.8771   17.3753 H   0  0  0  0  0  0  0  0  0  0  0  0
    5.5320    0.1992   16.0947 H   0  0  0  0  0  0  0  0  0  0  0  0
    3.7812   -0.0116   16.3516 H   0  0  0  0  0  0  0  0  0  0  0  0
    4.8480    4.6995   18.9795 C   0  0  0  0  0  3  0  0  0  0  0  0
    4.5135    4.9211   17.9820 H   0  0  0  0  0  0  0  0  0  0  0  0
    5.3626    3.6634   20.7808 C   0  0  0  0  0  0  0  0  0  0  0  0
    5.4811    5.0457   21.0398 C   0  0  0  0  0  0  0  0  0  0  0  0
    5.6359    2.7312   21.7760 C   0  0  0  0  0  0  0  0  0  0  0  0
    5.5633    1.6741   21.5829 H   0  0  0  0  0  0  0  0  0  0  0  0
    6.0175    3.2148   23.0085 C   0  0  0  0  0  0  0  0  0  0  0  0
    6.2421    2.5188   23.8018 H   0  0  0  0  0  0  0  0  0  0  0  0
    6.1216    4.5843   23.2621 C   0  0  0  0  0  0  0  0  0  0  0  0
    6.4180    4.9153   24.2459 H   0  0  0  0  0  0  0  0  0  0  0  0
    5.8570    5.5233   22.2864 C   0  0  0  0  0  0  0  0  0  0  0  0
    5.9339    6.5811   22.4891 H   0  0  0  0  0  0  0  0  0  0  0  0
    7.0053    3.7038   17.0871 C   0  0  0  0  0  3  0  0  0  0  0  0
    7.5219    3.5808   18.0214 H   0  0  0  0  0  0  0  0  0  0  0  0
    5.6897    3.4202   15.4178 C   0  0  0  0  0  0  0  0  0  0  0  0
    6.4955    4.5433   15.1334 C   0  0  0  0  0  0  0  0  0  0  0  0
    4.7458    2.9785   14.4965 C   0  0  0  0  0  0  0  0  0  0  0  0
    4.1304    2.1184   14.6985 H   0  0  0  0  0  0  0  0  0  0  0  0
    4.6210    3.6927   13.3248 C   0  0  0  0  0  0  0  0  0  0  0  0
    3.8922    3.3811   12.5929 H   0  0  0  0  0  0  0  0  0  0  0  0
    5.4108    4.8128   13.0569 C   0  0  0  0  0  0  0  0  0  0  0  0
    5.2745    5.3422   12.1261 H   0  0  0  0  0  0  0  0  0  0  0  0
    6.3626    5.2570   13.9517 C   0  0  0  0  0  0  0  0  0  0  0  0
    6.9755    6.1199   13.7377 H   0  0  0  0  0  0  0  0  0  0  0  0
    5.3150    7.0657   19.5511 C   0  0  0  0  0  0  0  0  0  0  0  0
    4.8712    7.6883   20.3327 H   0  0  0  0  0  0  0  0  0  0  0  0
    4.8084    7.2704   18.6044 H   0  0  0  0  0  0  0  0  0  0  0  0
    6.8228    7.3759   19.4441 C   0  0  0  0  0  0  0  0  0  0  0  0
    6.9706    8.4199   19.1424 H   0  0  0  0  0  0  0  0  0  0  0  0
    7.2882    7.2166   20.4210 H   0  0  0  0  0  0  0  0  0  0  0  0
    7.5753    6.9016   17.2240 C   0  0  0  0  0  0  0  0  0  0  0  0
    8.1821    7.8161   17.1496 H   0  0  0  0  0  0  0  0  0  0  0  0
    6.5832    7.1064   16.7952 H   0  0  0  0  0  0  0  0  0  0  0  0
    8.2514    5.7630   16.4508 C   0  0  0  0  0  0  0  0  0  0  0  0
    8.6167    6.1301   15.4897 H   0  0  0  0  0  0  0  0  0  0  0  0
    9.0915    5.3960   17.0451 H   0  0  0  0  0  0  0  0  0  0  0  0
  1  3  1  0  0  0  0
  1  5  1  0  0  0  0
  1  9  1  0  0  0  0
  2  1  1  0  0  0  0
  4 44  1  0  0  0  0
  5 19  1  0  0  0  0
  6 20  1  0  0  0  0
  7 29  1  0  0  0  0
  7  1  1  0  0  0  0
  8 50  1  0  0  0  0
  8 29  1  0  0  0  0
  9 12  1  0  0  0  0
  9 11  1  0  0  0  0
 10  9  1  0  0  0  0
 13 14  1  0  0  0  0
 13  1  1  0  0  0  0
 15 13  1  0  0  0  0
 16 13  1  0  0  0  0
 17  5  1  0  0  0  0
 17  6  1  0  0  0  0
 18 17  1  0  0  0  0
 19 20  2  0  0  0  0
 19 21  1  0  0  0  0
 20 27  1  0  0  0  0
 21 23  2  0  0  0  0
 22 21  1  0  0  0  0
 23 25  1  0  0  0  0
 23 24  1  0  0  0  0
 25 26  1  0  0  0  0
 27 28  1  0  0  0  0
 27 25  2  0  0  0  0
 29 30  1  0  0  0  0
 31  7  1  0  0  0  0
 32 31  1  0  0  0  0
 32  8  1  0  0  0  0
 33 34  1  0  0  0  0
 33 31  2  0  0  0  0
 35 33  1  0  0  0  0
 36 35  1  0  0  0  0
 37 35  2  0  0  0  0
 37 39  1  0  0  0  0
 38 37  1  0  0  0  0
 39 32  2  0  0  0  0
 40 39  1  0  0  0  0
 41  6  1  0  0  0  0
 41 42  1  0  0  0  0
 43 41  1  0  0  0  0
 44 41  1  0  0  0  0
 44 46  1  0  0  0  0
 45 44  1  0  0  0  0
 47  4  1  0  0  0  0
 48 47  1  0  0  0  0
 49 47  1  0  0  0  0
 50 52  1  0  0  0  0
 50 47  1  0  0  0  0
 51 50  1  0  0  0  0
M  END
$$$$
