CSD_code = HOKLUQ | q = 0 | S = 0 | Stoichiometry = C15H6ClN4O3ReS2 | MND = 6
 OpenBabel04212202043D

 32 34  0  0  0  0  0  0  0  0999 V2000
   -0.2461    9.6113    2.0678 C   0  0  0  0  0  0  0  0  0  0  0  0
    0.4369    9.2762    3.1799 N   0  0  0  0  0  0  0  0  0  0  0  0
    1.4695   10.0331    3.5449 C   0  0  0  0  0  0  0  0  0  0  0  0
    1.9816    9.7383    4.4516 H   0  0  0  0  0  0  0  0  0  0  0  0
    1.8978   11.1340    2.8359 C   0  0  0  0  0  0  0  0  0  0  0  0
    2.7478   11.7094    3.1623 H   0  0  0  0  0  0  0  0  0  0  0  0
    1.2117   11.4793    1.6682 C   0  0  0  0  0  0  0  0  0  0  0  0
    0.1121   10.7064    1.2929 C   0  0  0  0  0  0  0  0  0  0  0  0
   -0.4276   10.9660    0.3972 H   0  0  0  0  0  0  0  0  0  0  0  0
    1.6197   12.5473    0.9456 N   0  0  0  0  0  0  0  0  0  0  0  0
    1.4697   13.2430   -0.0210 C   0  0  0  0  0  0  0  0  0  0  0  0
    1.4732   14.2734   -1.1768 S   0  0  0  0  0  0  0  0  0  0  0  0
   -1.3974    8.7532    1.7513 C   0  0  0  0  0  0  0  0  0  0  0  0
   -1.6177    7.7400    2.6118 N   0  0  0  0  0  0  0  0  0  0  0  0
   -2.6652    6.9449    2.4040 C   0  0  0  0  0  0  0  0  0  0  0  0
   -2.8145    6.1523    3.1257 H   0  0  0  0  0  0  0  0  0  0  0  0
   -3.5314    7.0849    1.3419 C   0  0  0  0  0  0  0  0  0  0  0  0
   -4.3589    6.4087    1.2064 H   0  0  0  0  0  0  0  0  0  0  0  0
   -3.3021    8.1194    0.4304 C   0  0  0  0  0  0  0  0  0  0  0  0
   -2.2211    8.9728    0.6553 C   0  0  0  0  0  0  0  0  0  0  0  0
   -2.0378    9.7773   -0.0376 H   0  0  0  0  0  0  0  0  0  0  0  0
   -4.1298    8.2714   -0.6284 N   0  0  0  0  0  0  0  0  0  0  0  0
   -4.4079    8.8756   -1.6278 C   0  0  0  0  0  0  0  0  0  0  0  0
   -4.9651    9.4952   -2.9329 S   0  0  0  0  0  0  0  0  0  0  0  0
   -0.4170    5.4368    4.1934 C   0  0  0  0  0  2  0  0  0  0  0  0
    1.7386    7.0519    4.7935 C   0  0  0  0  0  2  0  0  0  0  0  0
   -0.8830    7.9221    5.5264 C   0  0  0  0  0  2  0  0  0  0  0  0
    1.0161    6.7577    1.8256 Cl  0  0  0  0  0  0  0  0  0  0  0  0
   -0.6657    4.3221    4.2432 O   0  0  0  0  0  1  0  0  0  0  0  0
    2.7954    6.9155    5.2077 O   0  0  0  0  0  1  0  0  0  0  0  0
   -1.4288    8.3037    6.4618 O   0  0  0  0  0  1  0  0  0  0  0  0
    0.0172    7.3188    3.9135 Re  0  0  0  0  0  0  0  0  0  0  0  0
  1  2  1  0  0  0  0
  2  3  1  0  0  0  0
  2 32  1  0  0  0  0
  3  4  1  0  0  0  0
  5  6  1  0  0  0  0
  5  3  2  0  0  0  0
  7  5  1  0  0  0  0
  8  7  2  0  0  0  0
  8  1  1  0  0  0  0
  9  8  1  0  0  0  0
 10  7  1  0  0  0  0
 11 10  2  0  0  0  0
 12 11  2  0  0  0  0
 13  1  2  0  0  0  0
 13 14  1  0  0  0  0
 14 32  1  0  0  0  0
 15 14  1  0  0  0  0
 15 16  1  0  0  0  0
 17 15  2  0  0  0  0
 18 17  1  0  0  0  0
 19 20  2  0  0  0  0
 19 17  1  0  0  0  0
 20 13  1  0  0  0  0
 21 20  1  0  0  0  0
 22 19  1  0  0  0  0
 23 22  2  0  0  0  0
 24 23  2  0  0  0  0
 25 29  1  0  0  0  0
 26 30  1  0  0  0  0
 27 31  1  0  0  0  0
 28 32  1  0  0  0  0
 32 25  1  0  0  0  0
 32 26  1  0  0  0  0
 32 27  1  0  0  0  0
M  END
$$$$
