CSD_code = HOLBOA | q = 0 | S = 0 | Stoichiometry = C9H15IPt | MND = 6
 OpenBabel04212202043D

 26 25  0  0  1  0  0  0  0  0999 V2000
    4.6788   10.1153    7.9082 Pt  0  0  0  0  0  0  0  0  0  0  0  0
    2.5295    9.9894    9.3145 I   0  0  0  0  0 15  0  0  0  0  0  0
    3.8536   11.8066    6.4625 C   0  0  0  0  0  0  0  0  0  0  0  0
    2.7793   11.6385    6.4878 H   0  0  0  0  0  0  0  0  0  0  0  0
    4.4415   12.3872    7.5381 C   0  0  0  0  0  0  0  0  0  0  0  0
    3.8066   12.7096    8.3614 H   0  0  0  0  0  0  0  0  0  0  0  0
    5.8518   12.9119    7.6161 C   0  0  0  0  0  0  0  0  0  0  0  0
    5.8841   13.9134    7.1740 H   0  0  0  0  0  0  0  0  0  0  0  0
    6.1097   13.0219    8.6737 H   0  0  0  0  0  0  0  0  0  0  0  0
    6.9096   12.0149    6.9436 C   0  0  0  0  0  0  0  0  0  0  0  0
    7.8785   12.2412    7.3936 H   0  0  0  0  0  0  0  0  0  0  0  0
    6.9918   12.2448    5.8805 H   0  0  0  0  0  0  0  0  0  0  0  0
    6.6293   10.5383    7.1148 C   0  0  0  0  0  3  0  0  0  0  0  0
    7.3640   10.0152    7.7254 H   0  0  0  0  0  0  0  0  0  0  0  0
    5.9015    9.7683    6.2085 C   0  0  2  0  0  0  0  0  0  0  0  0
    6.1345    8.7035    6.1543 H   0  0  0  0  0  0  0  0  0  0  0  0
    5.2020   10.2668    4.9684 C   0  0  0  0  0  0  0  0  0  0  0  0
    4.4528    9.5178    4.6899 H   0  0  0  0  0  0  0  0  0  0  0  0
    5.9268   10.3102    4.1479 H   0  0  0  0  0  0  0  0  0  0  0  0
    4.5025   11.6321    5.1154 C   0  0  0  0  0  0  0  0  0  0  0  0
    3.7315   11.7027    4.3452 H   0  0  0  0  0  0  0  0  0  0  0  0
    5.2058   12.4466    4.9409 H   0  0  0  0  0  0  0  0  0  0  0  0
    5.2931    8.3640    8.7752 C   0  0  0  0  0  0  0  0  0  0  0  0
    6.2693    8.0294    8.4180 H   0  0  0  0  0  0  0  0  0  0  0  0
    4.5617    7.5751    8.5805 H   0  0  0  0  0  0  0  0  0  0  0  0
    5.3516    8.5135    9.8575 H   0  0  0  0  0  0  0  0  0  0  0  0
  1 23  1  0  0  0  0
  3  4  1  0  0  0  0
  3  5  2  0  0  0  0
  5  7  1  0  0  0  0
  5  6  1  0  0  0  0
  7  9  1  0  0  0  0
  8  7  1  0  0  0  0
 10 13  1  0  0  0  0
 10 11  1  0  0  0  0
 10  7  1  0  0  0  0
 12 10  1  0  0  0  0
 13 14  1  0  0  0  0
 15 16  1  6  0  0  0
 15 13  1  0  0  0  0
 15  1  1  0  0  0  0
 17 20  1  0  0  0  0
 17 15  1  0  0  0  0
 18 17  1  0  0  0  0
 19 17  1  0  0  0  0
 20  3  1  0  0  0  0
 21 20  1  0  0  0  0
 22 20  1  0  0  0  0
 23 26  1  0  0  0  0
 24 23  1  0  0  0  0
 25 23  1  0  0  0  0
M  END
$$$$
