CSD_code = HOLDOD | q = 0 | S = 0 | Stoichiometry = C15H17ClN3O5ReS | MND = 6
 OpenBabel04212202043D

 43 44  0  0  1  0  0  0  0  0999 V2000
    8.6576    0.8209    1.0645 Re  0  0  0  0  0  0  0  0  0  0  0  0
    8.4055    1.5354    3.3078 Cl  0  0  0  0  0  0  0  0  0  0  0  0
    6.3734   -0.3031    1.4419 S   0  0  0  0  0  0  0  0  0  0  0  0
    9.4896   -2.1566    5.1459 O   0  0  0  0  0  0  0  0  0  0  0  0
    6.0670   -1.8716    3.5263 N   0  0  0  0  0  0  0  0  0  0  0  0
    6.4306   -2.4909    4.2350 H   0  0  0  0  0  0  0  0  0  0  0  0
    6.9238   -1.2845    2.6777 C   0  0  1  0  0  3  0  0  0  0  0  0
   13.1941   -5.0133    5.6092 O   0  0  0  0  0  0  0  0  0  0  0  0
    8.2321   -1.5963    2.8509 N   0  0  0  0  0  0  0  0  0  0  0  0
    8.4987   -2.0987    3.7067 H   0  0  0  0  0  0  0  0  0  0  0  0
   10.4533   -1.3081    2.3885 C   0  0  0  0  0  3  0  0  0  0  0  0
   11.1555   -0.8228    1.7197 H   0  0  0  0  0  0  0  0  0  0  0  0
    9.2271   -0.9835    2.1634 N   0  0  0  0  0  0  0  0  0  0  0  0
   11.0844   -2.2544    3.2978 C   0  0  0  0  0  0  0  0  0  0  0  0
   10.6565   -2.6601    4.5781 C   0  0  0  0  0  0  0  0  0  0  0  0
   11.3779   -3.5777    5.3293 C   0  0  0  0  0  0  0  0  0  0  0  0
   12.5660   -4.1189    4.8112 C   0  0  0  0  0  0  0  0  0  0  0  0
   13.0215   -3.7037    3.5643 C   0  0  0  0  0  0  0  0  0  0  0  0
   13.9408   -4.0871    3.1528 H   0  0  0  0  0  0  0  0  0  0  0  0
   12.2981   -2.7819    2.8414 C   0  0  0  0  0  0  0  0  0  0  0  0
   12.6655   -2.4700    1.8755 H   0  0  0  0  0  0  0  0  0  0  0  0
    4.6417   -1.6699    3.4688 C   0  0  0  0  0  0  0  0  0  0  0  0
    4.2094   -1.8814    4.4434 H   0  0  0  0  0  0  0  0  0  0  0  0
    4.1818   -2.3185    2.7185 H   0  0  0  0  0  0  0  0  0  0  0  0
    4.4356   -0.6341    3.1965 H   0  0  0  0  0  0  0  0  0  0  0  0
    9.6128   -0.8320    5.6666 C   0  0  0  0  0  0  0  0  0  0  0  0
   10.4895   -0.7553    6.3117 H   0  0  0  0  0  0  0  0  0  0  0  0
    8.7111   -0.6540    6.2498 H   0  0  0  0  0  0  0  0  0  0  0  0
    9.6750   -0.0842    4.8713 H   0  0  0  0  0  0  0  0  0  0  0  0
   10.9271   -4.0089    6.6904 C   0  0  0  0  0  0  0  0  0  0  0  0
   10.8322   -5.0928    6.7190 H   0  0  0  0  0  0  0  0  0  0  0  0
    9.9737   -3.5571    6.9459 H   0  0  0  0  0  0  0  0  0  0  0  0
   11.6724   -3.7283    7.4331 H   0  0  0  0  0  0  0  0  0  0  0  0
   14.4027   -5.5871    5.1677 C   0  0  0  0  0  0  0  0  0  0  0  0
   14.2634   -6.1532    4.2418 H   0  0  0  0  0  0  0  0  0  0  0  0
   14.7115   -6.2652    5.9614 H   0  0  0  0  0  0  0  0  0  0  0  0
   15.1765   -4.8280    5.0193 H   0  0  0  0  0  0  0  0  0  0  0  0
   11.5008    2.0232    0.9353 O   0  0  0  0  0  1  0  0  0  0  0  0
   10.4402    1.5810    0.9569 C   0  0  0  0  0  2  0  0  0  0  0  0
    7.3169    3.4520    0.1745 O   0  0  0  0  0  1  0  0  0  0  0  0
    7.8584    2.4797    0.4316 C   0  0  0  0  0  2  0  0  0  0  0  0
    8.7850   -0.5097   -1.7171 O   0  0  0  0  0  1  0  0  0  0  0  0
    8.7510    0.0085   -0.6939 C   0  0  0  0  0  2  0  0  0  0  0  0
  1  3  1  0  0  0  0
  1 13  1  0  0  0  0
  1  2  1  0  0  0  0
  3  7  1  0  0  0  0
  4 26  1  0  0  0  0
  5  6  1  0  0  0  0
  7  9  1  0  0  0  0
  7  5  1  6  0  0  0
  9 10  1  0  0  0  0
 11 14  1  0  0  0  0
 12 11  1  0  0  0  0
 13 11  1  0  0  0  0
 13  9  1  0  0  0  0
 14 15  1  0  0  0  0
 15  4  1  0  0  0  0
 15 16  2  0  0  0  0
 16 30  1  0  0  0  0
 17 16  1  0  0  0  0
 17  8  1  0  0  0  0
 18 17  2  0  0  0  0
 19 18  1  0  0  0  0
 20 14  2  0  0  0  0
 20 18  1  0  0  0  0
 21 20  1  0  0  0  0
 22  5  1  0  0  0  0
 22 23  1  0  0  0  0
 24 22  1  0  0  0  0
 25 22  1  0  0  0  0
 26 28  1  0  0  0  0
 26 27  1  0  0  0  0
 29 26  1  0  0  0  0
 30 31  1  0  0  0  0
 30 32  1  0  0  0  0
 30 33  1  0  0  0  0
 34  8  1  0  0  0  0
 34 36  1  0  0  0  0
 35 34  1  0  0  0  0
 37 34  1  0  0  0  0
 38 39  1  0  0  0  0
 39  1  1  0  0  0  0
 40 41  1  0  0  0  0
 41  1  1  0  0  0  0
 42 43  1  0  0  0  0
 43  1  1  0  0  0  0
M  END
$$$$
