CSD_code = HOLHUN | q = 0 | S = 0 | Stoichiometry = C12H19HgI2N3 | MND = 5
 OpenBabel04212202043D

 37 36  0  0  0  0  0  0  0  0999 V2000
   -2.5854    4.5942    9.5090 Hg  0  0  0  0  0  0  0  0  0  0  0  0
   -3.0027    3.6543    7.0879 I   0  0  0  0  0  0  0  0  0  0  0  0
   -3.4048    5.7879   11.6851 I   0  0  0  0  0  0  0  0  0  0  0  0
   -1.1410    6.5503    8.5953 N   0  0  0  0  0  0  0  0  0  0  0  0
    0.1477    6.2505    8.4015 C   0  0  0  0  0  0  0  0  0  0  0  0
   -0.8314    8.5838    7.3936 C   0  0  0  0  0  0  0  0  0  0  0  0
   -1.2646    9.4958    7.0158 H   0  0  0  0  0  0  0  0  0  0  0  0
    1.0024    7.0925    7.6923 C   0  0  0  0  0  0  0  0  0  0  0  0
    2.0364    6.8172    7.5499 H   0  0  0  0  0  0  0  0  0  0  0  0
    0.5017    8.2769    7.1783 C   0  0  0  0  0  0  0  0  0  0  0  0
    1.1406    8.9464    6.6221 H   0  0  0  0  0  0  0  0  0  0  0  0
   -1.6113    7.6837    8.1085 C   0  0  0  0  0  0  0  0  0  0  0  0
   -2.6584    7.8858    8.2970 H   0  0  0  0  0  0  0  0  0  0  0  0
    0.6468    5.0035    8.9695 C   0  0  0  0  0  0  0  0  0  0  0  0
    1.7042    4.7793    8.7870 H   0  0  0  0  0  0  0  0  0  0  0  0
   -0.0917    4.2349    9.6489 N   0  0  0  0  0  0  0  0  0  0  0  0
   -0.5507    1.8704   10.0184 C   0  0  0  0  0  0  0  0  0  0  0  0
   -0.6791    1.7237    8.9415 H   0  0  0  0  0  0  0  0  0  0  0  0
   -0.0916    0.9574   10.4250 H   0  0  0  0  0  0  0  0  0  0  0  0
    0.4292    3.0315   10.2181 C   0  0  0  0  0  0  0  0  0  0  0  0
    0.5704    3.2145   11.2884 H   0  0  0  0  0  0  0  0  0  0  0  0
    1.4041    2.7624    9.7850 H   0  0  0  0  0  0  0  0  0  0  0  0
   -1.8740    2.1168   10.5918 N   0  0  0  0  0  0  0  0  0  0  0  0
   -2.7960    1.0688   10.1296 C   0  0  0  0  0  0  0  0  0  0  0  0
   -2.4834    0.0807   10.4978 H   0  0  0  0  0  0  0  0  0  0  0  0
   -2.7325    1.0435    9.0382 H   0  0  0  0  0  0  0  0  0  0  0  0
   -1.8518    2.2353   12.0571 C   0  0  0  0  0  0  0  0  0  0  0  0
   -2.8706    2.4569   12.3781 H   0  0  0  0  0  0  0  0  0  0  0  0
   -1.2466    3.1078   12.3144 H   0  0  0  0  0  0  0  0  0  0  0  0
   -1.3393    1.0283   12.8446 C   0  0  0  0  0  0  0  0  0  0  0  0
   -1.9324    0.1396   12.6445 H   0  0  0  0  0  0  0  0  0  0  0  0
   -1.4166    1.2521   13.9055 H   0  0  0  0  0  0  0  0  0  0  0  0
   -0.2967    0.8114   12.6224 H   0  0  0  0  0  0  0  0  0  0  0  0
   -4.2461    1.3262   10.5165 C   0  0  0  0  0  0  0  0  0  0  0  0
   -4.4258    1.1565   11.5748 H   0  0  0  0  0  0  0  0  0  0  0  0
   -4.8902    0.6585    9.9498 H   0  0  0  0  0  0  0  0  0  0  0  0
   -4.5287    2.3535   10.2750 H   0  0  0  0  0  0  0  0  0  0  0  0
  1  3  1  0  0  0  0
  2  1  1  0  0  0  0
  5  4  1  0  0  0  0
  5 14  1  0  0  0  0
  6 12  1  0  0  0  0
  7  6  1  0  0  0  0
  8  5  2  0  0  0  0
  9  8  1  0  0  0  0
 10  6  2  0  0  0  0
 10  8  1  0  0  0  0
 11 10  1  0  0  0  0
 12 13  1  0  0  0  0
 12  4  2  0  0  0  0
 14 16  2  0  0  0  0
 15 14  1  0  0  0  0
 16 20  1  0  0  0  0
 17 20  1  0  0  0  0
 17 19  1  0  0  0  0
 17 23  1  0  0  0  0
 18 17  1  0  0  0  0
 20 21  1  0  0  0  0
 22 20  1  0  0  0  0
 23 27  1  0  0  0  0
 24 25  1  0  0  0  0
 24 34  1  0  0  0  0
 24 23  1  0  0  0  0
 26 24  1  0  0  0  0
 27 29  1  0  0  0  0
 27 28  1  0  0  0  0
 27 30  1  0  0  0  0
 30 32  1  0  0  0  0
 31 30  1  0  0  0  0
 33 30  1  0  0  0  0
 34 35  1  0  0  0  0
 36 34  1  0  0  0  0
 37 34  1  0  0  0  0
M  END
$$$$
