CSD_code = HOLNUU | q = 0 | S = 0 | Stoichiometry = C20H18ClN3O2Zn | MND = 5
 OpenBabel04212202043D

 45 50  0  0  1  0  0  0  0  0999 V2000
    9.4233    8.3242    8.2420 Zn  0  0  0  0  0  0  0  0  0  0  0  0
    8.4013    9.0357    6.7974 O   0  0  0  0  0  0  0  0  0  0  0  0
    8.8531    9.0932   10.1884 Cl  0  0  0  0  0  0  0  0  0  0  0  0
    9.1825    6.2115    8.7031 N   0  0  0  0  0  0  0  0  0  0  0  0
    7.9855    8.9841    4.6177 O   0  0  0  0  0  0  0  0  0  0  0  0
   11.4631    8.9787    8.2133 N   0  0  0  0  0  0  0  0  0  0  0  0
    9.6646    3.9749    8.0700 C   0  0  0  0  0  0  0  0  0  0  0  0
   10.2128    3.2962    7.4345 H   0  0  0  0  0  0  0  0  0  0  0  0
    9.8448    5.3460    7.9417 C   0  0  2  0  0  3  0  0  0  0  0  0
   10.8147    5.9357    6.9533 C   0  0  0  0  0  0  0  0  0  0  0  0
   11.7695    6.0843    7.4713 H   0  0  0  0  0  0  0  0  0  0  0  0
   10.9827    5.2403    6.1173 H   0  0  0  0  0  0  0  0  0  0  0  0
   10.3337    7.2277    6.5002 N   0  0  1  0  0  4  0  0  0  0  0  0
    9.1728    7.1208    5.6057 C   0  0  2  0  0  0  0  0  0  0  0  0
    8.4652    6.4346    6.0889 H   0  0  0  0  0  0  0  0  0  0  0  0
    9.5010    6.5854    4.2390 C   0  0  0  0  0  0  0  0  0  0  0  0
    9.9868    7.3943    3.2178 C   0  0  0  0  0  0  0  0  0  0  0  0
   10.0760    8.4581    3.3670 H   0  0  0  0  0  0  0  0  0  0  0  0
   10.3077    6.8522    1.9854 C   0  0  0  0  0  0  0  0  0  0  0  0
   10.6742    7.4956    1.1989 H   0  0  0  0  0  0  0  0  0  0  0  0
   10.1550    5.4962    1.7541 C   0  0  0  0  0  0  0  0  0  0  0  0
   10.4086    5.0761    0.7919 H   0  0  0  0  0  0  0  0  0  0  0  0
    9.6572    4.6836    2.7579 C   0  0  0  0  0  0  0  0  0  0  0  0
    9.5181    3.6265    2.5824 H   0  0  0  0  0  0  0  0  0  0  0  0
    9.3291    5.2268    3.9870 C   0  0  0  0  0  0  0  0  0  0  0  0
    8.9192    4.5878    4.7592 H   0  0  0  0  0  0  0  0  0  0  0  0
    8.4462    8.5210    5.6363 C   0  0  0  0  0  0  0  0  0  0  0  0
   11.3901    8.0739    5.9781 C   0  0  0  0  0  0  0  0  0  0  0  0
   10.9209    8.8664    5.3866 H   0  0  0  0  0  0  0  0  0  0  0  0
   12.0827    7.5269    5.3222 H   0  0  0  0  0  0  0  0  0  0  0  0
   12.1395    8.7518    7.0922 C   0  0  1  0  0  3  0  0  0  0  0  0
   13.4572    9.1674    6.9409 C   0  0  0  0  0  0  0  0  0  0  0  0
   13.9817    8.9712    6.0183 H   0  0  0  0  0  0  0  0  0  0  0  0
   14.0721    9.8382    7.9842 C   0  0  0  0  0  0  0  0  0  0  0  0
   15.0939   10.1741    7.8900 H   0  0  0  0  0  0  0  0  0  0  0  0
   13.3533   10.0695    9.1477 C   0  0  0  0  0  0  0  0  0  0  0  0
   13.7946   10.5888    9.9827 H   0  0  0  0  0  0  0  0  0  0  0  0
   12.0466    9.6192    9.2183 C   0  0  0  0  0  0  0  0  0  0  0  0
   11.4311    9.7675   10.0948 H   0  0  0  0  0  0  0  0  0  0  0  0
    8.7734    3.5032    9.0198 C   0  0  0  0  0  0  0  0  0  0  0  0
    8.6107    2.4424    9.1360 H   0  0  0  0  0  0  0  0  0  0  0  0
    8.0977    4.4161    9.8150 C   0  0  0  0  0  0  0  0  0  0  0  0
    7.3986    4.0906   10.5678 H   0  0  0  0  0  0  0  0  0  0  0  0
    8.3355    5.7664    9.6209 C   0  0  0  0  0  0  0  0  0  0  0  0
    7.8490    6.5271   10.2151 H   0  0  0  0  0  0  0  0  0  0  0  0
  1  4  1  0  0  0  0
  1  3  1  0  0  0  0
  2  1  1  0  0  0  0
  4 44  1  0  0  0  0
  5 27  2  0  0  0  0
  6  1  1  0  0  0  0
  6 38  1  0  0  0  0
  7 40  2  0  0  0  0
  8  7  1  0  0  0  0
  9  7  1  1  0  0  0
  9  4  1  0  0  0  0
 10 11  1  0  0  0  0
 10  9  1  0  0  0  0
 12 10  1  0  0  0  0
 13 28  1  6  0  0  0
 13 10  1  0  0  0  0
 13  1  1  0  0  0  0
 14 27  1  0  0  0  0
 14 15  1  1  0  0  0
 14 13  1  0  0  0  0
 16 14  1  0  0  0  0
 17 18  1  0  0  0  0
 17 16  2  0  0  0  0
 19 17  1  0  0  0  0
 20 19  1  0  0  0  0
 21 19  2  0  0  0  0
 21 23  1  0  0  0  0
 22 21  1  0  0  0  0
 23 25  2  0  0  0  0
 24 23  1  0  0  0  0
 25 16  1  0  0  0  0
 25 26  1  0  0  0  0
 27  2  1  0  0  0  0
 28 31  1  0  0  0  0
 29 28  1  0  0  0  0
 30 28  1  0  0  0  0
 31 32  1  6  0  0  0
 31  6  1  0  0  0  0
 32 34  2  0  0  0  0
 33 32  1  0  0  0  0
 34 36  1  0  0  0  0
 35 34  1  0  0  0  0
 36 38  2  0  0  0  0
 36 37  1  0  0  0  0
 38 39  1  0  0  0  0
 40 41  1  0  0  0  0
 40 42  1  0  0  0  0
 42 43  1  0  0  0  0
 44 42  2  0  0  0  0
 44 45  1  0  0  0  0
M  END
$$$$
