CSD_code = HOLVOW | q = 0 | S = 0 | Stoichiometry = C20H18ClN3OPd | MND = 4
 OpenBabel04212202043D

 44 49  0  0  1  0  0  0  0  0999 V2000
   -0.7013    0.7817    7.9664 Pd  0  0  1  0  0  0  0  0  0  0  0  0
    1.4720    0.8389    7.3481 Cl  0  0  0  0  0  0  0  0  0  0  0  0
   -2.6965    0.6588    8.2447 N   0  0  0  0  0  0  0  0  0  0  0  0
   -0.4129   -0.1239    9.7673 N   0  0  0  0  0  0  0  0  0  0  0  0
   -1.2377    1.8499    6.3734 N   0  0  0  0  0  0  0  0  0  0  0  0
   -2.6874   -1.0424    9.9512 C   0  0  0  0  0  0  0  0  0  0  0  0
   -4.5288   -0.9284    8.3955 C   0  0  0  0  0  0  0  0  0  0  0  0
   -4.9740   -0.5175    7.5017 H   0  0  0  0  0  0  0  0  0  0  0  0
   -3.3446    1.5642    7.4582 C   0  0  0  0  0  0  0  0  0  0  0  0
   -3.1328    3.1240    5.5469 C   0  0  0  0  0  0  0  0  0  0  0  0
   -4.5617   -2.5515   10.1694 C   0  0  0  0  0  0  0  0  0  0  0  0
   -5.0537   -3.3645   10.6796 H   0  0  0  0  0  0  0  0  0  0  0  0
   -3.3013   -0.3966    8.8451 C   0  0  2  0  0  3  0  0  0  0  0  0
   -2.5515    2.1915    6.4450 C   0  0  0  0  0  0  0  0  0  0  0  0
   -5.2152    2.9222    6.7338 C   0  0  0  0  0  0  0  0  0  0  0  0
   -6.2441    3.2190    6.8766 H   0  0  0  0  0  0  0  0  0  0  0  0
   -3.3437   -2.0876   10.6079 C   0  0  0  0  0  0  0  0  0  0  0  0
   -2.8586   -2.5395   11.4594 H   0  0  0  0  0  0  0  0  0  0  0  0
   -5.1367   -1.9785    9.0374 C   0  0  0  0  0  0  0  0  0  0  0  0
   -6.0699   -2.3657    8.6548 H   0  0  0  0  0  0  0  0  0  0  0  0
   -4.4849    3.4737    5.7089 C   0  0  0  0  0  3  0  0  0  0  0  0
   -4.9266    4.1877    5.0315 H   0  0  0  0  0  0  0  0  0  0  0  0
   -4.6677    1.9784    7.5980 C   0  0  0  0  0  0  0  0  0  0  0  0
   -5.2674    1.5818    8.4029 H   0  0  0  0  0  0  0  0  0  0  0  0
   -1.1314   -0.8858   11.7355 O   0  0  0  0  0  0  0  0  0  0  0  0
   -0.4893    2.3626    5.4162 C   0  0  0  0  0  0  0  0  0  0  0  0
    0.5512    2.0624    5.3865 H   0  0  0  0  0  0  0  0  0  0  0  0
   -0.9911    3.2706    4.4745 C   0  0  0  0  0  0  0  0  0  0  0  0
   -0.3286    3.6557    3.7157 H   0  0  0  0  0  0  0  0  0  0  0  0
    0.7190    0.1188   10.6695 C   0  0  0  0  0  0  0  0  0  0  0  0
   -2.3006    3.6623    4.5428 C   0  0  0  0  0  0  0  0  0  0  0  0
   -2.7110    4.3773    3.8448 H   0  0  0  0  0  0  0  0  0  0  0  0
   -1.3836   -0.6486   10.4382 C   0  0  0  0  0  0  0  0  0  0  0  0
    1.9465   -0.6818   10.2367 C   0  0  0  0  0  0  0  0  0  0  0  0
    2.7484   -0.5380   10.9564 H   0  0  0  0  0  0  0  0  0  0  0  0
    1.7026   -1.7410   10.1793 H   0  0  0  0  0  0  0  0  0  0  0  0
    2.2821   -0.3477    9.2584 H   0  0  0  0  0  0  0  0  0  0  0  0
    1.0056    1.6224   10.6959 C   0  0  0  0  0  0  0  0  0  0  0  0
    1.8296    1.8368   11.3718 H   0  0  0  0  0  0  0  0  0  0  0  0
    1.2777    1.9566    9.6906 H   0  0  0  0  0  0  0  0  0  0  0  0
    0.1200    2.1693   11.0251 H   0  0  0  0  0  0  0  0  0  0  0  0
    0.1717   -0.3989   12.0239 C   0  0  0  0  0  0  0  0  0  0  0  0
    0.7679   -1.2200   12.4302 H   0  0  0  0  0  0  0  0  0  0  0  0
    0.0878    0.3906   12.7770 H   0  0  0  0  0  0  0  0  0  0  0  0
  1  2  1  6  0  0  0
  1  3  1  0  0  0  0
  1  4  1  0  0  0  0
  3 13  1  0  0  0  0
  4 33  1  0  0  0  0
  4 30  1  0  0  0  0
  5 14  1  0  0  0  0
  5  1  1  0  0  0  0
  6 33  2  0  0  0  0
  6 17  1  0  0  0  0
  7 19  2  0  0  0  0
  8  7  1  0  0  0  0
  9 23  1  0  0  0  0
  9  3  1  0  0  0  0
 10 21  1  0  0  0  0
 10 14  1  0  0  0  0
 11 17  2  0  0  0  0
 11 12  1  0  0  0  0
 13  7  1  6  0  0  0
 13  6  1  0  0  0  0
 14  9  2  0  0  0  0
 15 16  1  0  0  0  0
 15 23  2  0  0  0  0
 17 18  1  0  0  0  0
 19 11  1  0  0  0  0
 20 19  1  0  0  0  0
 21 15  1  0  0  0  0
 22 21  1  0  0  0  0
 23 24  1  0  0  0  0
 25 42  1  0  0  0  0
 26  5  1  0  0  0  0
 27 26  1  0  0  0  0
 28 31  1  0  0  0  0
 28 26  2  0  0  0  0
 29 28  1  0  0  0  0
 30 38  1  0  0  0  0
 30 42  1  0  0  0  0
 31 10  2  0  0  0  0
 32 31  1  0  0  0  0
 33 25  1  0  0  0  0
 34 30  1  0  0  0  0
 34 35  1  0  0  0  0
 36 34  1  0  0  0  0
 37 34  1  0  0  0  0
 38 41  1  0  0  0  0
 38 39  1  0  0  0  0
 40 38  1  0  0  0  0
 42 43  1  0  0  0  0
 42 44  1  0  0  0  0
M  END
$$$$
