CSD_code = HONDOE | q = 0 | S = 0 | Stoichiometry = C22H27BrN2Zn | MND = 4
 OpenBabel04212202043D

 53 58  0  0  1  0  0  0  0  0999 V2000
    5.6702    2.2086    1.1535 Br  0  0  0  0  0  0  0  0  0  0  0  0
    3.8687    0.6317    1.7656 Zn  0  0  1  0  0  0  0  0  0  0  0  0
    3.9520   -0.2535   -0.3123 N   0  0  0  0  0  0  0  0  0  0  0  0
    5.2468   -1.1308    1.8928 N   0  0  0  0  0  0  0  0  0  0  0  0
    3.4000    0.3745   -1.3383 C   0  0  0  0  0  3  0  0  0  0  0  0
    2.4103    0.7752   -1.1657 H   0  0  0  0  0  0  0  0  0  0  0  0
    4.0264    0.5298   -2.5615 C   0  0  0  0  0  0  0  0  0  0  0  0
    3.5328    1.0616   -3.3596 H   0  0  0  0  0  0  0  0  0  0  0  0
    5.3096    0.0219   -2.7317 C   0  0  0  0  0  0  0  0  0  0  0  0
    5.8738   -0.6610   -1.6605 C   0  0  0  0  0  0  0  0  0  0  0  0
    6.8769   -1.0475   -1.7451 H   0  0  0  0  0  0  0  0  0  0  0  0
    5.1681   -0.7861   -0.4695 C   0  0  0  0  0  0  0  0  0  0  0  0
    5.7343   -1.4781    0.7004 C   0  0  2  0  0  3  0  0  0  0  0  0
    6.7232   -2.4497    0.5759 C   0  0  0  0  0  0  0  0  0  0  0  0
    7.0802   -2.7423   -0.3990 H   0  0  0  0  0  0  0  0  0  0  0  0
    7.2423   -3.0617    1.7097 C   0  0  0  0  0  0  0  0  0  0  0  0
    6.7307   -2.6662    2.9420 C   0  0  0  0  0  0  0  0  0  0  0  0
    7.0981   -3.1027    3.8575 H   0  0  0  0  0  0  0  0  0  0  0  0
    5.7372   -1.7059    2.9778 C   0  0  0  0  0  0  0  0  0  0  0  0
    5.3133   -1.3791    3.9172 H   0  0  0  0  0  0  0  0  0  0  0  0
    6.0719    0.2281   -3.9971 C   0  0  0  0  0  0  0  0  0  0  0  0
    5.4021    0.4270   -4.8295 H   0  0  0  0  0  0  0  0  0  0  0  0
    6.6881   -0.6377   -4.2278 H   0  0  0  0  0  0  0  0  0  0  0  0
    6.7318    1.0873   -3.8778 H   0  0  0  0  0  0  0  0  0  0  0  0
    8.3232   -4.0861    1.6089 C   0  0  0  0  0  0  0  0  0  0  0  0
    8.2720   -4.7878    2.4374 H   0  0  0  0  0  0  0  0  0  0  0  0
    9.2943   -3.5921    1.6458 H   0  0  0  0  0  0  0  0  0  0  0  0
    8.2584   -4.6313    0.6707 H   0  0  0  0  0  0  0  0  0  0  0  0
    2.0468    0.3849    2.6794 C   0  0  1  0  0  0  0  0  0  0  0  0
    0.9467    0.3592    1.6115 C   0  0  0  0  0  0  0  0  0  0  0  0
    1.1602   -0.4234    0.8779 H   0  0  0  0  0  0  0  0  0  0  0  0
    0.9142    1.3172    1.0835 H   0  0  0  0  0  0  0  0  0  0  0  0
   -0.4244    0.0938    2.2413 C   0  0  1  0  0  0  0  0  0  0  0  0
   -1.1885    0.0843    1.4535 H   0  0  0  0  0  0  0  0  0  0  0  0
   -0.4067   -1.2588    2.9486 C   0  0  0  0  0  0  0  0  0  0  0  0
   -1.3852   -1.4634    3.3917 H   0  0  0  0  0  0  0  0  0  0  0  0
   -0.1923   -2.0529    2.2284 H   0  0  0  0  0  0  0  0  0  0  0  0
    0.6655   -1.2387    4.0347 C   0  0  1  0  0  0  0  0  0  0  0  0
    0.6893   -2.2112    4.5431 H   0  0  0  0  0  0  0  0  0  0  0  0
    2.0343   -0.9666    3.4023 C   0  0  0  0  0  0  0  0  0  0  0  0
    2.7936   -0.9780    4.1895 H   0  0  0  0  0  0  0  0  0  0  0  0
    2.2737   -1.7691    2.6989 H   0  0  0  0  0  0  0  0  0  0  0  0
    1.6976    1.4749    3.7000 C   0  0  0  0  0  0  0  0  0  0  0  0
    1.6811    2.4549    3.2151 H   0  0  0  0  0  0  0  0  0  0  0  0
    2.4548    1.5104    4.4886 H   0  0  0  0  0  0  0  0  0  0  0  0
    0.3280    1.2076    4.3339 C   0  0  1  0  0  0  0  0  0  0  0  0
    0.1064    2.0011    5.0582 H   0  0  0  0  0  0  0  0  0  0  0  0
   -0.7454    1.1953    3.2485 C   0  0  0  0  0  0  0  0  0  0  0  0
   -1.7282    1.0205    3.6948 H   0  0  0  0  0  0  0  0  0  0  0  0
   -0.7746    2.1642    2.7437 H   0  0  0  0  0  0  0  0  0  0  0  0
    0.3469   -0.1418    5.0479 C   0  0  0  0  0  0  0  0  0  0  0  0
    1.1017   -0.1341    5.8384 H   0  0  0  0  0  0  0  0  0  0  0  0
   -0.6235   -0.3328    5.5141 H   0  0  0  0  0  0  0  0  0  0  0  0
  2  1  1  1  0  0  0
  2  4  1  0  0  0  0
  2 29  1  0  0  0  0
  3  2  1  0  0  0  0
  4 19  1  0  0  0  0
  5  6  1  0  0  0  0
  5  3  1  0  0  0  0
  7  5  1  0  0  0  0
  8  7  1  0  0  0  0
  9  7  2  0  0  0  0
  9 10  1  0  0  0  0
 10 12  2  0  0  0  0
 11 10  1  0  0  0  0
 12  3  1  0  0  0  0
 13 12  1  6  0  0  0
 13  4  1  0  0  0  0
 14 13  1  0  0  0  0
 14 16  2  0  0  0  0
 15 14  1  0  0  0  0
 16 17  1  0  0  0  0
 17 19  2  0  0  0  0
 17 18  1  0  0  0  0
 19 20  1  0  0  0  0
 21 24  1  0  0  0  0
 21  9  1  0  0  0  0
 22 21  1  0  0  0  0
 23 21  1  0  0  0  0
 25 27  1  0  0  0  0
 25 16  1  0  0  0  0
 25 26  1  0  0  0  0
 28 25  1  0  0  0  0
 29 30  1  6  0  0  0
 29 40  1  0  0  0  0
 29 43  1  0  0  0  0
 30 33  1  0  0  0  0
 31 30  1  0  0  0  0
 32 30  1  0  0  0  0
 33 34  1  6  0  0  0
 33 35  1  0  0  0  0
 33 48  1  0  0  0  0
 35 36  1  0  0  0  0
 35 38  1  0  0  0  0
 37 35  1  0  0  0  0
 38 39  1  1  0  0  0
 38 51  1  0  0  0  0
 40 38  1  0  0  0  0
 40 41  1  0  0  0  0
 42 40  1  0  0  0  0
 43 46  1  0  0  0  0
 43 45  1  0  0  0  0
 44 43  1  0  0  0  0
 46 51  1  0  0  0  0
 46 47  1  1  0  0  0
 48 49  1  0  0  0  0
 48 46  1  0  0  0  0
 50 48  1  0  0  0  0
 51 53  1  0  0  0  0
 51 52  1  0  0  0  0
M  END
$$$$
