CSD_code = HONJUS | q = 0 | S = 0 | Stoichiometry = C19H18Cl2N2O4Zn | MND = 4
 OpenBabel04212202043D

 46 48  0  0  0  0  0  0  0  0999 V2000
    2.6279    6.0352    3.3486 Zn  0  0  0  0  0  0  0  0  0  0  0  0
    0.5756    5.7372    2.9314 Cl  0  0  0  0  0  0  0  0  0  0  0  0
    2.8727    4.5377    5.5908 Cl  0  0  0  0  0  0  0  0  0  0  0  0
    3.4785    5.9849    5.0084 O   0  0  0  0  0  0  0  0  0  0  0  0
    3.8876    5.1185    2.2207 O   0  0  0  0  0  0  0  0  0  0  0  0
    4.2481    5.0649    1.0008 C   0  0  0  0  0  0  0  0  0  0  0  0
    3.2855    5.0279   -0.0482 C   0  0  0  0  0  0  0  0  0  0  0  0
    2.2459    5.0657    0.2434 H   0  0  0  0  0  0  0  0  0  0  0  0
    3.6440    4.9436   -1.3587 C   0  0  0  0  0  0  0  0  0  0  0  0
    2.9086    4.9095   -2.1482 H   0  0  0  0  0  0  0  0  0  0  0  0
    5.0092    4.9022   -1.7036 C   0  0  0  0  0  0  0  0  0  0  0  0
    5.9784    4.9498   -0.7282 C   0  0  0  0  0  0  0  0  0  0  0  0
    7.0160    4.9230   -1.0315 H   0  0  0  0  0  0  0  0  0  0  0  0
    5.6486    5.0291    0.6334 C   0  0  0  0  0  0  0  0  0  0  0  0
    6.7131    5.1152    1.5658 C   0  0  0  0  0  3  0  0  0  0  0  0
    7.6943    5.1648    1.1118 H   0  0  0  0  0  0  0  0  0  0  0  0
    6.6051    5.1369    2.9331 C   0  0  0  0  0  0  0  0  0  0  0  0
    5.6179    5.0131    3.3496 H   0  0  0  0  0  0  0  0  0  0  0  0
    7.6468    5.3405    3.8409 C   0  0  0  0  0  0  0  0  0  0  0  0
    9.0980    5.6834    3.5560 C   0  0  0  0  0  0  0  0  0  0  0  0
    9.8341    4.5295    2.8597 C   0  0  0  0  0  0  0  0  0  0  0  0
    9.7003    3.6055    3.4179 H   0  0  0  0  0  0  0  0  0  0  0  0
   10.8967    4.7545    2.8168 H   0  0  0  0  0  0  0  0  0  0  0  0
    9.4738    4.3758    1.8480 H   0  0  0  0  0  0  0  0  0  0  0  0
    9.2340    6.9941    2.7708 C   0  0  0  0  0  0  0  0  0  0  0  0
    8.8097    6.9061    1.7758 H   0  0  0  0  0  0  0  0  0  0  0  0
   10.2851    7.2555    2.6804 H   0  0  0  0  0  0  0  0  0  0  0  0
    8.7219    7.7991    3.2931 H   0  0  0  0  0  0  0  0  0  0  0  0
    9.6376    5.8560    4.9520 C   0  0  0  0  0  0  0  0  0  0  0  0
   10.8992    6.1879    5.3929 C   0  0  0  0  0  0  0  0  0  0  0  0
   11.7007    6.3788    4.6962 H   0  0  0  0  0  0  0  0  0  0  0  0
   11.1192    6.2746    6.7614 C   0  0  0  0  0  0  0  0  0  0  0  0
   12.0997    6.5352    7.1282 H   0  0  0  0  0  0  0  0  0  0  0  0
   10.0934    6.0312    7.6619 C   0  0  0  0  0  0  0  0  0  0  0  0
   10.2863    6.1054    8.7208 H   0  0  0  0  0  0  0  0  0  0  0  0
    8.8202    5.6940    7.2293 C   0  0  0  0  0  0  0  0  0  0  0  0
    8.0365    5.5114    7.9466 H   0  0  0  0  0  0  0  0  0  0  0  0
    8.6073    5.6101    5.8636 C   0  0  0  0  0  0  0  0  0  0  0  0
    7.4448    5.2987    5.1607 N   0  0  0  0  0  0  0  0  0  0  0  0
    6.2021    4.9581    5.7931 C   0  0  0  0  0  0  0  0  0  0  0  0
    6.3152    5.0020    6.8713 H   0  0  0  0  0  0  0  0  0  0  0  0
    5.8932    3.9499    5.5133 H   0  0  0  0  0  0  0  0  0  0  0  0
    5.3985    5.6456    5.4999 H   0  0  0  0  0  0  0  0  0  0  0  0
    5.3931    4.8201   -3.0783 N   0  0  0  0  0  0  0  0  0  0  0  0
    6.5833    4.7872   -3.3324 O   0  0  0  0  0  0  0  0  0  0  0  0
    4.5126    4.7895   -3.9145 O   0  0  0  0  0  0  0  0  0  0  0  0
  1  4  1  0  0  0  0
  2  1  1  0  0  0  0
  4  3  1  0  0  0  0
  5  1  1  0  0  0  0
  6  5  1  0  0  0  0
  7  8  1  0  0  0  0
  7  6  2  0  0  0  0
  9  7  1  0  0  0  0
 10  9  1  0  0  0  0
 11  9  2  0  0  0  0
 11 12  1  0  0  0  0
 12 14  2  0  0  0  0
 13 12  1  0  0  0  0
 14  6  1  0  0  0  0
 14 15  1  0  0  0  0
 15 17  1  0  0  0  0
 16 15  1  0  0  0  0
 17 18  1  0  0  0  0
 17 19  2  0  0  0  0
 19 39  1  0  0  0  0
 20 19  1  0  0  0  0
 20 29  1  0  0  0  0
 21 22  1  0  0  0  0
 21 20  1  0  0  0  0
 23 21  1  0  0  0  0
 24 21  1  0  0  0  0
 25 28  1  0  0  0  0
 25 20  1  0  0  0  0
 26 25  1  0  0  0  0
 27 25  1  0  0  0  0
 29 30  2  0  0  0  0
 29 38  1  0  0  0  0
 30 32  1  0  0  0  0
 31 30  1  0  0  0  0
 32 33  1  0  0  0  0
 32 34  2  0  0  0  0
 34 35  1  0  0  0  0
 36 34  1  0  0  0  0
 36 37  1  0  0  0  0
 38 36  2  0  0  0  0
 39 40  1  0  0  0  0
 39 38  1  0  0  0  0
 40 41  1  0  0  0  0
 42 40  1  0  0  0  0
 43 40  1  0  0  0  0
 44 11  1  0  0  0  0
 45 44  2  0  0  0  0
 46 44  2  0  0  0  0
M  END
$$$$
