CSD_code = HONSOV | q = 0 | S = 0 | Stoichiometry = C21H21Br2N3O3Zn | MND = 4
 OpenBabel04212202043D

 51 53  0  0  0  0  0  0  0  0999 V2000
    1.3457    1.8887    7.7758 O   0  0  0  0  0  0  0  0  0  0  0  0
    1.8229    3.0432    7.9294 C   0  0  0  0  0  0  0  0  0  0  0  0
    1.0040    4.2159    7.8981 C   0  0  0  0  0  0  0  0  0  0  0  0
   -0.0476    4.0837    7.6929 H   0  0  0  0  0  0  0  0  0  0  0  0
    1.5250    5.4525    8.1035 C   0  0  0  0  0  0  0  0  0  0  0  0
    0.9085    6.3384    8.0775 H   0  0  0  0  0  0  0  0  0  0  0  0
    2.9078    5.6028    8.3575 C   0  0  0  0  0  0  0  0  0  0  0  0
    3.7455    4.5138    8.3772 C   0  0  0  0  0  0  0  0  0  0  0  0
    4.7958    4.6819    8.5617 H   0  0  0  0  0  0  0  0  0  0  0  0
    3.2516    3.2198    8.1611 C   0  0  0  0  0  0  0  0  0  0  0  0
    4.0532    2.0638    8.1343 C   0  0  0  0  0  3  0  0  0  0  0  0
    3.5066    1.1519    7.9418 H   0  0  0  0  0  0  0  0  0  0  0  0
    5.4159    2.0005    8.3263 C   0  0  0  0  0  0  0  0  0  0  0  0
    5.9346    2.9227    8.5438 H   0  0  0  0  0  0  0  0  0  0  0  0
    6.1896    0.8481    8.2611 C   0  0  0  0  0  0  0  0  0  0  0  0
    5.7556   -0.5624    7.9207 C   0  0  0  0  0  0  0  0  0  0  0  0
    5.2183   -0.6540    6.4855 C   0  0  0  0  0  0  0  0  0  0  0  0
    5.9857   -0.3602    5.7724 H   0  0  0  0  0  0  0  0  0  0  0  0
    4.3529   -0.0167    6.3501 H   0  0  0  0  0  0  0  0  0  0  0  0
    4.9130   -1.6756    6.2816 H   0  0  0  0  0  0  0  0  0  0  0  0
    4.7470   -1.1330    8.9259 C   0  0  0  0  0  0  0  0  0  0  0  0
    3.7652   -0.6939    8.7984 H   0  0  0  0  0  0  0  0  0  0  0  0
    5.0874   -0.9661    9.9454 H   0  0  0  0  0  0  0  0  0  0  0  0
    4.6457   -2.2008    8.7577 H   0  0  0  0  0  0  0  0  0  0  0  0
    7.0613   -1.3048    8.0193 C   0  0  0  0  0  0  0  0  0  0  0  0
    7.3495   -2.6373    7.8233 C   0  0  0  0  0  0  0  0  0  0  0  0
    6.5730   -3.3369    7.5575 H   0  0  0  0  0  0  0  0  0  0  0  0
    8.6643   -3.0577    7.9731 C   0  0  0  0  0  0  0  0  0  0  0  0
    8.9125   -4.0969    7.8245 H   0  0  0  0  0  0  0  0  0  0  0  0
    9.6639   -2.1577    8.3101 C   0  0  0  0  0  0  0  0  0  0  0  0
   10.6794   -2.5055    8.4207 H   0  0  0  0  0  0  0  0  0  0  0  0
    9.3860   -0.8137    8.5073 C   0  0  0  0  0  0  0  0  0  0  0  0
   10.1806   -0.1315    8.7662 H   0  0  0  0  0  0  0  0  0  0  0  0
    8.0729   -0.4027    8.3570 C   0  0  0  0  0  0  0  0  0  0  0  0
    7.5137    0.8677    8.4922 N   0  0  0  0  0  0  0  0  0  0  0  0
    8.2693    2.0427    8.8373 C   0  0  0  0  0  0  0  0  0  0  0  0
    8.2200    2.7819    8.0350 H   0  0  0  0  0  0  0  0  0  0  0  0
    9.3088    1.7691    8.9931 H   0  0  0  0  0  0  0  0  0  0  0  0
    7.8854    2.4903    9.7561 H   0  0  0  0  0  0  0  0  0  0  0  0
    3.4461    6.9030    8.5957 N   0  0  0  0  0  0  0  0  0  0  0  0
    4.6453    6.9911    8.8002 O   0  0  0  0  0  0  0  0  0  0  0  0
    2.6837    7.8494    8.5895 O   0  0  0  0  0  0  0  0  0  0  0  0
    0.2548    0.7524    6.5414 Zn  0  0  0  0  0  0  0  0  0  0  0  0
    1.5179   -1.2308    6.8422 Br  0  0  0  0  0  0  0  0  0  0  0  0
   -0.6459    2.2233    4.9873 Br  0  0  0  0  0  0  0  0  0  0  0  0
   -1.2953    0.1762    7.8934 N   0  0  0  0  0  2  0  0  0  0  0  0
   -1.5159   -0.6563    8.6473 C   0  0  0  0  0  2  0  0  0  0  0  0
   -1.7642   -1.7106    9.5700 C   0  0  0  0  0  0  0  0  0  0  0  0
   -0.9577   -2.4407    9.4820 H   0  0  0  0  0  0  0  0  0  0  0  0
   -2.7155   -2.1875    9.3365 H   0  0  0  0  0  0  0  0  0  0  0  0
   -1.7902   -1.3147   10.5845 H   0  0  0  0  0  0  0  0  0  0  0  0
  1  2  1  0  0  0  0
  2 10  1  0  0  0  0
  3  2  2  0  0  0  0
  3  5  1  0  0  0  0
  4  3  1  0  0  0  0
  5  7  2  0  0  0  0
  6  5  1  0  0  0  0
  7  8  1  0  0  0  0
  7 40  1  0  0  0  0
  8  9  1  0  0  0  0
 10  8  2  0  0  0  0
 11 10  1  0  0  0  0
 11 13  1  0  0  0  0
 12 11  1  0  0  0  0
 13 14  1  0  0  0  0
 15 13  2  0  0  0  0
 15 35  1  0  0  0  0
 16 25  1  0  0  0  0
 16 15  1  0  0  0  0
 16 21  1  0  0  0  0
 17 16  1  0  0  0  0
 18 17  1  0  0  0  0
 19 17  1  0  0  0  0
 20 17  1  0  0  0  0
 21 23  1  0  0  0  0
 22 21  1  0  0  0  0
 24 21  1  0  0  0  0
 25 34  1  0  0  0  0
 26 28  1  0  0  0  0
 26 25  2  0  0  0  0
 27 26  1  0  0  0  0
 28 30  2  0  0  0  0
 29 28  1  0  0  0  0
 30 31  1  0  0  0  0
 30 32  1  0  0  0  0
 32 33  1  0  0  0  0
 34 35  1  0  0  0  0
 34 32  2  0  0  0  0
 35 36  1  0  0  0  0
 36 38  1  0  0  0  0
 36 39  1  0  0  0  0
 37 36  1  0  0  0  0
 40 41  2  0  0  0  0
 42 40  2  0  0  0  0
 43 44  1  0  0  0  0
 43  1  1  0  0  0  0
 43 46  1  0  0  0  0
 45 43  1  0  0  0  0
 46 47  1  0  0  0  0
 47 48  1  0  0  0  0
 48 51  1  0  0  0  0
 49 48  1  0  0  0  0
 50 48  1  0  0  0  0
M  END
$$$$
