CSD_code = HOPJUT | q = 0 | S = 0 | Stoichiometry = C18H23I2N3Zn | MND = 5
 OpenBabel04212202043D

 47 49  0  0  0  0  0  0  0  0999 V2000
   -0.7487    0.5165   12.2511 I   0  0  0  0  0  0  0  0  0  0  0  0
    2.7910   -1.5639   14.5826 I   0  0  0  0  0  0  0  0  0  0  0  0
    0.5105   -0.5137   14.2249 Zn  0  0  0  0  0  0  0  0  0  0  0  0
   -0.7259   -0.0065   15.9260 N   0  0  0  0  0  0  0  0  0  0  0  0
   -1.7533   -0.9278   16.3073 C   0  0  0  0  0  0  0  0  0  0  0  0
   -2.6628   -0.4183   16.6518 H   0  0  0  0  0  0  0  0  0  0  0  0
   -1.3712   -1.5350   17.1350 H   0  0  0  0  0  0  0  0  0  0  0  0
   -2.0970   -1.8258   15.1181 C   0  0  0  0  0  0  0  0  0  0  0  0
   -2.8514   -2.5598   15.4337 H   0  0  0  0  0  0  0  0  0  0  0  0
   -2.5536   -1.2000   14.3458 H   0  0  0  0  0  0  0  0  0  0  0  0
   -0.9191   -2.4657   14.5344 N   0  0  0  0  0  0  0  0  0  0  0  0
   -1.3191   -3.1228   13.2791 C   0  0  0  0  0  0  0  0  0  0  0  0
   -1.8222   -2.3706   12.6664 H   0  0  0  0  0  0  0  0  0  0  0  0
   -2.0506   -3.9190   13.4782 H   0  0  0  0  0  0  0  0  0  0  0  0
   -0.2638   -3.3989   15.4627 C   0  0  0  0  0  0  0  0  0  0  0  0
    0.1321   -2.8204   16.3007 H   0  0  0  0  0  0  0  0  0  0  0  0
    0.5952   -3.8224   14.9424 H   0  0  0  0  0  0  0  0  0  0  0  0
   -0.1547   -3.6837   12.4754 C   0  0  0  0  0  0  0  0  0  0  0  0
    0.6155   -2.9285   12.3330 H   0  0  0  0  0  0  0  0  0  0  0  0
   -0.5173   -3.9807   11.4944 H   0  0  0  0  0  0  0  0  0  0  0  0
    0.2934   -4.5537   12.9481 H   0  0  0  0  0  0  0  0  0  0  0  0
   -1.1133   -4.5441   16.0136 C   0  0  0  0  0  0  0  0  0  0  0  0
   -1.9369   -4.1843   16.6273 H   0  0  0  0  0  0  0  0  0  0  0  0
   -0.4801   -5.1704   16.6370 H   0  0  0  0  0  0  0  0  0  0  0  0
   -1.5158   -5.1636   15.2164 H   0  0  0  0  0  0  0  0  0  0  0  0
   -0.7185    1.2054   16.3191 C   0  0  0  0  0  0  0  0  0  0  0  0
   -2.6167    2.7543   16.7168 C   0  0  0  0  0  0  0  0  0  0  0  0
   -2.5587    3.0439   15.6775 H   0  0  0  0  0  0  0  0  0  0  0  0
   -1.8139    1.4160   18.5504 C   0  0  0  0  0  0  0  0  0  0  0  0
   -1.1209    0.6835   18.9391 H   0  0  0  0  0  0  0  0  0  0  0  0
   -1.7326    1.8022   17.2166 C   0  0  0  0  0  0  0  0  0  0  0  0
   -2.7647    1.9859   19.3780 C   0  0  0  0  0  0  0  0  0  0  0  0
   -2.8177    1.6895   20.4147 H   0  0  0  0  0  0  0  0  0  0  0  0
    0.3674    2.0727   15.8428 C   0  0  0  0  0  0  0  0  0  0  0  0
    1.1916    1.5340   14.9442 N   0  0  0  0  0  0  0  0  0  0  0  0
    2.1970    2.2478   14.4763 C   0  0  0  0  0  0  0  0  0  0  0  0
    2.8350    1.7571   13.7533 H   0  0  0  0  0  0  0  0  0  0  0  0
    2.4399    3.5537   14.8778 C   0  0  0  0  0  0  0  0  0  0  0  0
    3.2715    4.1023   14.4665 H   0  0  0  0  0  0  0  0  0  0  0  0
    1.5931    4.1232   15.8146 C   0  0  0  0  0  0  0  0  0  0  0  0
    1.7491    5.1351   16.1573 H   0  0  0  0  0  0  0  0  0  0  0  0
    0.5398    3.3732   16.3113 C   0  0  0  0  0  0  0  0  0  0  0  0
   -0.1336    3.7811   17.0488 H   0  0  0  0  0  0  0  0  0  0  0  0
   -3.6467    2.9292   18.8772 C   0  0  0  0  0  0  0  0  0  0  0  0
   -4.3908    3.3685   19.5240 H   0  0  0  0  0  0  0  0  0  0  0  0
   -3.5744    3.3086   17.5467 C   0  0  0  0  0  0  0  0  0  0  0  0
   -4.2627    4.0409   17.1530 H   0  0  0  0  0  0  0  0  0  0  0  0
  1  3  1  0  0  0  0
  3  2  1  0  0  0  0
  3 35  1  0  0  0  0
  3  4  1  0  0  0  0
  4  5  1  0  0  0  0
  4 26  1  0  0  0  0
  5  6  1  0  0  0  0
  5  7  1  0  0  0  0
  8  9  1  0  0  0  0
  8  5  1  0  0  0  0
 10  8  1  0  0  0  0
 11  8  1  0  0  0  0
 11 15  1  0  0  0  0
 12 14  1  0  0  0  0
 12 11  1  0  0  0  0
 13 12  1  0  0  0  0
 15 22  1  0  0  0  0
 15 16  1  0  0  0  0
 17 15  1  0  0  0  0
 18 21  1  0  0  0  0
 18 12  1  0  0  0  0
 19 18  1  0  0  0  0
 20 18  1  0  0  0  0
 22 23  1  0  0  0  0
 22 24  1  0  0  0  0
 25 22  1  0  0  0  0
 26 31  1  0  0  0  0
 27 31  2  0  0  0  0
 27 46  1  0  0  0  0
 28 27  1  0  0  0  0
 29 30  1  0  0  0  0
 29 32  2  0  0  0  0
 31 29  1  0  0  0  0
 32 33  1  0  0  0  0
 34 42  1  0  0  0  0
 34 26  2  0  0  0  0
 35 34  1  0  0  0  0
 36 38  2  0  0  0  0
 36 35  1  0  0  0  0
 37 36  1  0  0  0  0
 38 40  1  0  0  0  0
 39 38  1  0  0  0  0
 40 41  1  0  0  0  0
 40 42  2  0  0  0  0
 42 43  1  0  0  0  0
 44 32  1  0  0  0  0
 44 45  1  0  0  0  0
 46 44  2  0  0  0  0
 47 46  1  0  0  0  0
M  END
$$$$
