CSD_code = HOPKAA | q = 0 | S = 0 | Stoichiometry = C18H23Br2N3Zn | MND = 5
 OpenBabel04212202043D

 47 50  0  0  0  0  0  0  0  0999 V2000
   -0.8056   12.5057    2.8306 Zn  0  0  0  0  0  0  0  0  0  0  0  0
   -2.9261   13.5565    2.6444 Br  0  0  0  0  0  0  0  0  0  0  0  0
    0.5832   11.4254    4.4910 Br  0  0  0  0  0  0  0  0  0  0  0  0
   -1.6031   10.5113    2.1873 N   0  0  0  0  0  0  0  0  0  0  0  0
   -0.7830    9.8886    1.3394 C   0  0  0  0  0  0  0  0  0  0  0  0
   -2.6359    9.8626    2.6894 C   0  0  0  0  0  0  0  0  0  0  0  0
   -3.2700   10.4245    3.3625 H   0  0  0  0  0  0  0  0  0  0  0  0
   -2.0652    7.8789    1.5003 C   0  0  0  0  0  0  0  0  0  0  0  0
   -2.2434    6.8487    1.2310 H   0  0  0  0  0  0  0  0  0  0  0  0
   -0.9849    8.5625    0.9661 C   0  0  0  0  0  0  0  0  0  0  0  0
   -0.3129    8.0841    0.2709 H   0  0  0  0  0  0  0  0  0  0  0  0
   -2.9100    8.5381    2.3778 C   0  0  0  0  0  0  0  0  0  0  0  0
   -3.7633    8.0442    2.8134 H   0  0  0  0  0  0  0  0  0  0  0  0
    1.3627   10.0025    0.0113 C   0  0  0  0  0  0  0  0  0  0  0  0
    0.3283   10.6936    0.8108 C   0  0  0  0  0  0  0  0  0  0  0  0
    2.1926    9.0725    0.6325 C   0  0  0  0  0  0  0  0  0  0  0  0
    2.0744    8.8746    1.6878 H   0  0  0  0  0  0  0  0  0  0  0  0
    1.5236   10.2784   -1.3424 C   0  0  0  0  0  0  0  0  0  0  0  0
    0.8725   10.9938   -1.8241 H   0  0  0  0  0  0  0  0  0  0  0  0
    0.3336   11.9364    1.0901 N   0  0  0  0  0  0  0  0  0  0  0  0
    1.3732   12.8277    0.6774 C   0  0  0  0  0  0  0  0  0  0  0  0
    0.9796   13.4394   -0.1412 H   0  0  0  0  0  0  0  0  0  0  0  0
    2.2643   12.2985    0.3163 H   0  0  0  0  0  0  0  0  0  0  0  0
    1.7632   13.7230    1.8575 C   0  0  0  0  0  0  0  0  0  0  0  0
    2.2462   13.0917    2.6086 H   0  0  0  0  0  0  0  0  0  0  0  0
    2.5024   14.4596    1.5160 H   0  0  0  0  0  0  0  0  0  0  0  0
    0.6095   14.3606    2.4935 N   0  0  0  0  0  4  0  0  0  0  0  0
    1.0574   14.9778    3.7541 C   0  0  0  0  0  0  0  0  0  0  0  0
    1.8285   15.7352    3.5554 H   0  0  0  0  0  0  0  0  0  0  0  0
    1.5224   14.1882    4.3502 H   0  0  0  0  0  0  0  0  0  0  0  0
   -0.0692   15.3209    1.6089 C   0  0  0  0  0  0  0  0  0  0  0  0
   -0.9413   15.6963    2.1446 H   0  0  0  0  0  0  0  0  0  0  0  0
   -0.4490   14.7701    0.7455 H   0  0  0  0  0  0  0  0  0  0  0  0
    3.3260    8.6987   -1.4498 C   0  0  0  0  0  0  0  0  0  0  0  0
    4.0905    8.1912   -2.0185 H   0  0  0  0  0  0  0  0  0  0  0  0
    3.1749    8.4299   -0.0987 C   0  0  0  0  0  0  0  0  0  0  0  0
    3.8224    7.7164    0.3879 H   0  0  0  0  0  0  0  0  0  0  0  0
    2.4989    9.6199   -2.0703 C   0  0  0  0  0  0  0  0  0  0  0  0
    2.6143    9.8308   -3.1228 H   0  0  0  0  0  0  0  0  0  0  0  0
    0.7561   16.5090    1.1172 C   0  0  0  0  0  0  0  0  0  0  0  0
    1.1183   17.1139    1.9443 H   0  0  0  0  0  0  0  0  0  0  0  0
    0.1190   17.1353    0.4978 H   0  0  0  0  0  0  0  0  0  0  0  0
    1.6058   16.1954    0.5142 H   0  0  0  0  0  0  0  0  0  0  0  0
   -0.0682   15.5910    4.5747 C   0  0  0  0  0  0  0  0  0  0  0  0
   -0.4724   16.4890    4.1151 H   0  0  0  0  0  0  0  0  0  0  0  0
    0.3175   15.8553    5.5563 H   0  0  0  0  0  0  0  0  0  0  0  0
   -0.8775   14.8765    4.7136 H   0  0  0  0  0  0  0  0  0  0  0  0
  1  3  1  0  0  0  0
  2  1  1  0  0  0  0
  4  6  1  0  0  0  0
  4  1  1  0  0  0  0
  5  4  1  0  0  0  0
  6  7  1  0  0  0  0
  8 12  1  0  0  0  0
  9  8  1  0  0  0  0
 10  5  1  0  0  0  0
 10  8  2  0  0  0  0
 11 10  1  0  0  0  0
 12  6  2  0  0  0  0
 12 13  1  0  0  0  0
 14 16  1  0  0  0  0
 14 15  1  0  0  0  0
 15 20  1  0  0  0  0
 15  5  2  0  0  0  0
 16 17  1  0  0  0  0
 18 14  2  0  0  0  0
 19 18  1  0  0  0  0
 20  1  1  0  0  0  0
 21 20  1  0  0  0  0
 21 24  1  0  0  0  0
 22 21  1  0  0  0  0
 23 21  1  0  0  0  0
 24 27  1  0  0  0  0
 24 25  1  0  0  0  0
 26 24  1  0  0  0  0
 27  1  1  0  0  0  0
 27 28  1  0  0  0  0
 28 30  1  0  0  0  0
 28 44  1  0  0  0  0
 29 28  1  0  0  0  0
 31 32  1  0  0  0  0
 31 27  1  0  0  0  0
 33 31  1  0  0  0  0
 34 36  1  0  0  0  0
 35 34  1  0  0  0  0
 36 37  1  0  0  0  0
 36 16  2  0  0  0  0
 38 34  2  0  0  0  0
 38 18  1  0  0  0  0
 39 38  1  0  0  0  0
 40 31  1  0  0  0  0
 40 41  1  0  0  0  0
 42 40  1  0  0  0  0
 43 40  1  0  0  0  0
 44 47  1  0  0  0  0
 44 46  1  0  0  0  0
 45 44  1  0  0  0  0
M  END
$$$$
