CSD_code = HOPLON | q = 0 | S = 0 | Stoichiometry = C24H29Cl2PZr | MND = 12
 OpenBabel04212202043D

 57 60  0  0  1  0  0  0  0  0999 V2000
    8.2938    1.2117    4.4278 Zr  0  0  0  0  0  0  0  0  0  0  0  0
    6.8623    2.5278    1.8865 P   0  0  2  0  0  0  0  0  0  0  0  0
    8.1553   -0.5202    5.9938 Cl  0  0  0  0  0  0  0  0  0  0  0  0
   10.2715    2.0664    5.3431 Cl  0  0  0  0  0  0  0  0  0  0  0  0
    7.9741    1.0701    2.0625 C   0  0  2  0  0  0  0  0  0  0  0  0
    7.7364   -0.2586    2.5646 C   0  0  2  0  0  3  0  0  0  0  0  0
    8.9813   -0.7864    2.9933 C   0  0  0  0  0  0  0  0  0  0  0  0
    9.9828    0.2052    2.8230 C   0  0  0  0  0  0  0  0  0  0  0  0
    9.3707    1.3517    2.2628 C   0  0  1  0  0  3  0  0  0  0  0  0
    6.5333    2.6549    3.6942 C   0  0  1  0  0  0  0  0  0  0  0  0
    5.9223    1.7382    4.6221 C   0  0  0  0  0  0  0  0  0  0  0  0
    6.4037    2.0535    5.9184 C   0  0  0  0  0  0  0  0  0  0  0  0
    7.3435    3.1124    5.8141 C   0  0  0  0  0  0  0  0  0  0  0  0
    7.4382    3.4790    4.4506 C   0  0  0  0  0  0  0  0  0  0  0  0
    6.5190   -1.1310    2.4365 C   0  0  0  0  0  0  0  0  0  0  0  0
    9.2121   -2.2096    3.4070 C   0  0  0  0  0  0  0  0  0  0  0  0
   11.4477    0.0213    3.0976 C   0  0  0  0  0  0  0  0  0  0  0  0
   10.1062    2.5846    1.8186 C   0  0  0  0  0  0  0  0  0  0  0  0
    4.7728    0.7907    4.4194 C   0  0  0  0  0  0  0  0  0  0  0  0
    5.8879    1.4665    7.1991 C   0  0  0  0  0  0  0  0  0  0  0  0
    8.0310    3.7805    6.9697 C   0  0  0  0  0  0  0  0  0  0  0  0
    8.2397    4.6382    3.9289 C   0  0  0  0  0  0  0  0  0  0  0  0
    5.3245    1.8514    1.1810 C   0  0  0  0  0  0  0  0  0  0  0  0
    4.0936    2.3818    1.5594 C   0  0  0  0  0  0  0  0  0  0  0  0
    2.9370    1.9841    0.9150 C   0  0  0  0  0  0  0  0  0  0  0  0
    2.9999    1.0734   -0.1277 C   0  0  0  0  0  0  0  0  0  0  0  0
    4.2258    0.5713   -0.5347 C   0  0  0  0  0  0  0  0  0  0  0  0
    5.3847    0.9667    0.1069 C   0  0  0  0  0  0  0  0  0  0  0  0
    6.7250   -1.9402    1.7312 H   0  0  0  0  0  0  0  0  0  0  0  0
    5.6594   -0.5814    2.0670 H   0  0  0  0  0  0  0  0  0  0  0  0
    6.2720   -1.5911    3.3961 H   0  0  0  0  0  0  0  0  0  0  0  0
    8.4407   -2.5489    4.0988 H   0  0  0  0  0  0  0  0  0  0  0  0
   10.1795   -2.3174    3.8932 H   0  0  0  0  0  0  0  0  0  0  0  0
    9.1936   -2.8629    2.5316 H   0  0  0  0  0  0  0  0  0  0  0  0
   11.6027   -0.4265    4.0815 H   0  0  0  0  0  0  0  0  0  0  0  0
   11.9663    0.9776    3.0751 H   0  0  0  0  0  0  0  0  0  0  0  0
   11.8974   -0.6358    2.3500 H   0  0  0  0  0  0  0  0  0  0  0  0
   10.6061    3.0703    2.6607 H   0  0  0  0  0  0  0  0  0  0  0  0
    9.4199    3.2909    1.3512 H   0  0  0  0  0  0  0  0  0  0  0  0
   10.8689    2.3200    1.0837 H   0  0  0  0  0  0  0  0  0  0  0  0
    5.0104   -0.1966    4.8227 H   0  0  0  0  0  0  0  0  0  0  0  0
    4.5019    0.6972    3.3726 H   0  0  0  0  0  0  0  0  0  0  0  0
    3.8972    1.1613    4.9581 H   0  0  0  0  0  0  0  0  0  0  0  0
    6.6125    1.5973    8.0011 H   0  0  0  0  0  0  0  0  0  0  0  0
    5.6854    0.4013    7.0903 H   0  0  0  0  0  0  0  0  0  0  0  0
    4.9594    1.9621    7.4934 H   0  0  0  0  0  0  0  0  0  0  0  0
    7.3167    4.3657    7.5526 H   0  0  0  0  0  0  0  0  0  0  0  0
    8.8183    4.4439    6.6183 H   0  0  0  0  0  0  0  0  0  0  0  0
    8.4818    3.0383    7.6320 H   0  0  0  0  0  0  0  0  0  0  0  0
    7.9215    5.5618    4.4161 H   0  0  0  0  0  0  0  0  0  0  0  0
    8.0882    4.7551    2.8558 H   0  0  0  0  0  0  0  0  0  0  0  0
    9.3055    4.5026    4.1306 H   0  0  0  0  0  0  0  0  0  0  0  0
    4.0530    3.0978    2.3692 H   0  0  0  0  0  0  0  0  0  0  0  0
    1.9834    2.3877    1.2230 H   0  0  0  0  0  0  0  0  0  0  0  0
    2.0953    0.7626   -0.6290 H   0  0  0  0  0  0  0  0  0  0  0  0
    4.2776   -0.1271   -1.3572 H   0  0  0  0  0  0  0  0  0  0  0  0
    6.3459    0.5849   -0.2098 H   0  0  0  0  0  0  0  0  0  0  0  0
  1  4  1  0  0  0  0
  1  3  1  0  0  0  0
  2 23  1  6  0  0  0
  2  5  1  0  0  0  0
  2 10  1  0  0  0  0
  5  9  1  0  0  0  0
  5  6  1  0  0  0  0
  5  1  1  1  0  0  0
  6 15  1  6  0  0  0
  6  7  1  0  0  0  0
  7 16  1  0  0  0  0
  8  7  2  0  0  0  0
  8 17  1  0  0  0  0
  9 18  1  6  0  0  0
  9  8  1  0  0  0  0
 10  1  1  0  0  0  0
 10 14  1  1  0  0  0
 10 11  1  0  0  0  0
 11 12  2  0  0  0  0
 12 20  1  0  0  0  0
 13 12  1  0  0  0  0
 13 21  1  0  0  0  0
 14 13  2  0  0  0  0
 15 31  1  0  0  0  0
 16 33  1  0  0  0  0
 16 32  1  0  0  0  0
 17 35  1  0  0  0  0
 18 38  1  0  0  0  0
 19 11  1  0  0  0  0
 19 41  1  0  0  0  0
 19 43  1  0  0  0  0
 20 46  1  0  0  0  0
 20 44  1  0  0  0  0
 21 47  1  0  0  0  0
 21 49  1  0  0  0  0
 22 52  1  0  0  0  0
 22 50  1  0  0  0  0
 22 14  1  0  0  0  0
 23 24  1  0  0  0  0
 24 53  1  0  0  0  0
 25 54  1  0  0  0  0
 25 24  2  0  0  0  0
 26 25  1  0  0  0  0
 27 26  2  0  0  0  0
 27 28  1  0  0  0  0
 28 23  2  0  0  0  0
 29 15  1  0  0  0  0
 30 15  1  0  0  0  0
 34 16  1  0  0  0  0
 36 17  1  0  0  0  0
 37 17  1  0  0  0  0
 39 18  1  0  0  0  0
 40 18  1  0  0  0  0
 42 19  1  0  0  0  0
 45 20  1  0  0  0  0
 48 21  1  0  0  0  0
 51 22  1  0  0  0  0
 55 26  1  0  0  0  0
 56 27  1  0  0  0  0
 57 28  1  0  0  0  0
M  END
$$$$
