CSD_code = HOPTEL | q = 0 | S = 0 | Stoichiometry = C17H24Cl2N2Ti | MND = 8
 OpenBabel04212202043D

 46 47  0  0  1  0  0  0  0  0999 V2000
   -1.5014    0.2723   11.1369 Ti  0  0  0  0  0  0  0  0  0  0  0  0
   -0.2031    0.1435    9.3579 Cl  0  0  0  0  0  0  0  0  0  0  0  0
   -1.9598    2.4104   10.8254 Cl  0  0  0  0  0  0  0  0  0  0  0  0
   -2.9558   -0.5119   10.5467 N   0  0  0  0  0  2  0  0  0  0  0  0
   -3.6007   -0.7167    9.4487 N   0  0  0  0  0  0  0  0  0  0  0  0
   -5.0387    1.1343   10.0962 C   0  0  0  0  0  0  0  0  0  0  0  0
   -4.6761    0.0742    9.1143 C   0  0  2  0  0  3  0  0  0  0  0  0
   -5.3532   -0.1317    7.9337 C   0  0  0  0  0  0  0  0  0  0  0  0
   -4.9862   -1.1526    7.0703 C   0  0  0  0  0  0  0  0  0  0  0  0
   -3.9428   -1.9824    7.4516 C   0  0  0  0  0  0  0  0  0  0  0  0
   -3.2696   -1.7755    8.6341 C   0  0  0  0  0  0  0  0  0  0  0  0
   -2.1676   -2.6555    9.1177 C   0  0  0  0  0  0  0  0  0  0  0  0
   -1.4979   -1.1951   12.9008 C   0  0  0  0  0  0  0  0  0  0  0  0
   -0.1864   -1.1705   12.3478 C   0  0  0  0  0  0  0  0  0  0  0  0
    0.3485    0.1365   12.5389 C   0  0  0  0  0  0  0  0  0  0  0  0
   -0.6315    0.9261   13.1837 C   0  0  0  0  0  0  0  0  0  0  0  0
   -1.7866    0.1155   13.3814 C   0  0  1  0  0  0  0  0  0  0  0  0
   -2.3806   -2.3949   13.1074 C   0  0  0  0  0  0  0  0  0  0  0  0
    0.5981   -2.3271   11.7982 C   0  0  0  0  0  0  0  0  0  0  0  0
    1.7553    0.5371   12.2063 C   0  0  0  0  0  0  0  0  0  0  0  0
   -0.4593    2.3212   13.7070 C   0  0  0  0  0  0  0  0  0  0  0  0
   -3.0363    0.5408   14.0987 C   0  0  0  0  0  0  0  0  0  0  0  0
   -5.0503    0.7132   11.1055 H   0  0  0  0  0  0  0  0  0  0  0  0
   -4.2845    1.9261   10.0913 H   0  0  0  0  0  0  0  0  0  0  0  0
   -6.0083    1.5620    9.8596 H   0  0  0  0  0  0  0  0  0  0  0  0
   -6.1786    0.5197    7.6927 H   0  0  0  0  0  0  0  0  0  0  0  0
   -5.5070   -1.3072    6.1403 H   0  0  0  0  0  0  0  0  0  0  0  0
   -3.6433   -2.8082    6.8254 H   0  0  0  0  0  0  0  0  0  0  0  0
   -2.3638   -2.9500   10.1513 H   0  0  0  0  0  0  0  0  0  0  0  0
   -2.0823   -3.5380    8.4907 H   0  0  0  0  0  0  0  0  0  0  0  0
   -1.2201   -2.1085    9.1066 H   0  0  0  0  0  0  0  0  0  0  0  0
   -3.3526   -2.2595   12.6286 H   0  0  0  0  0  0  0  0  0  0  0  0
   -1.9175   -3.2935   12.7049 H   0  0  0  0  0  0  0  0  0  0  0  0
   -2.5461   -2.5513   14.1753 H   0  0  0  0  0  0  0  0  0  0  0  0
   -0.0324   -3.2021   11.6521 H   0  0  0  0  0  0  0  0  0  0  0  0
    1.0493   -2.0653   10.8393 H   0  0  0  0  0  0  0  0  0  0  0  0
    1.4029   -2.5952   12.4868 H   0  0  0  0  0  0  0  0  0  0  0  0
    2.4476    0.1341   12.9503 H   0  0  0  0  0  0  0  0  0  0  0  0
    2.0504    0.1513   11.2293 H   0  0  0  0  0  0  0  0  0  0  0  0
    1.8643    1.6208   12.1954 H   0  0  0  0  0  0  0  0  0  0  0  0
   -0.0980    2.2902   14.7386 H   0  0  0  0  0  0  0  0  0  0  0  0
    0.2603    2.8835   13.1129 H   0  0  0  0  0  0  0  0  0  0  0  0
   -1.4051    2.8622   13.6938 H   0  0  0  0  0  0  0  0  0  0  0  0
   -3.3671    1.5204   13.7473 H   0  0  0  0  0  0  0  0  0  0  0  0
   -3.8380   -0.1768   13.9295 H   0  0  0  0  0  0  0  0  0  0  0  0
   -2.8563    0.6095   15.1747 H   0  0  0  0  0  0  0  0  0  0  0  0
  1 17  1  0  0  0  0
  2  1  1  0  0  0  0
  3  1  1  0  0  0  0
  4  1  1  0  0  0  0
  5  4  1  0  0  0  0
  6 23  1  0  0  0  0
  7  5  1  0  0  0  0
  7  6  1  1  0  0  0
  8  7  1  0  0  0  0
  9 10  1  0  0  0  0
  9  8  2  0  0  0  0
 10 11  2  0  0  0  0
 11 12  1  0  0  0  0
 11  5  1  0  0  0  0
 12 29  1  0  0  0  0
 13 18  1  0  0  0  0
 13 17  1  0  0  0  0
 14 15  1  0  0  0  0
 14 13  2  0  0  0  0
 15 16  2  0  0  0  0
 16 17  1  0  0  0  0
 16 21  1  0  0  0  0
 17 22  1  1  0  0  0
 18 34  1  0  0  0  0
 19 14  1  0  0  0  0
 19 37  1  0  0  0  0
 20 15  1  0  0  0  0
 20 38  1  0  0  0  0
 21 41  1  0  0  0  0
 22 46  1  0  0  0  0
 24  6  1  0  0  0  0
 25  6  1  0  0  0  0
 26  8  1  0  0  0  0
 27  9  1  0  0  0  0
 28 10  1  0  0  0  0
 30 12  1  0  0  0  0
 31 12  1  0  0  0  0
 32 18  1  0  0  0  0
 33 18  1  0  0  0  0
 35 19  1  0  0  0  0
 36 19  1  0  0  0  0
 39 20  1  0  0  0  0
 40 20  1  0  0  0  0
 42 21  1  0  0  0  0
 43 21  1  0  0  0  0
 44 22  1  0  0  0  0
 45 22  1  0  0  0  0
M  END
$$$$
