CSD_code = HOQBIA | q = 1 | S = 0 | Stoichiometry = C20H40CdClN4(1+) | MND = 5
 OpenBabel04212202043D

 66 71  0  0  1  0  0  0  0  0999 V2000
    4.0553    7.7637    2.5698 Cd  0  0  0  0  0  0  0  0  0  0  0  0
    4.8044    7.4219    0.4012 Cl  0  0  0  0  0  0  0  0  0  0  0  0
    3.5937    9.8579    3.2232 N   0  0  2  0  0  4  0  0  0  0  0  0
    3.2845    9.9040    4.1966 H   0  0  0  0  0  0  0  0  0  0  0  0
    1.8786    7.8580    2.1107 N   0  0  2  0  0  4  0  0  0  0  0  0
    1.9587    7.8422    1.0898 H   0  0  0  0  0  0  0  0  0  0  0  0
    4.1196    5.6129    3.0233 N   0  0  2  0  0  4  0  0  0  0  0  0
    4.3366    5.3165    2.0681 H   0  0  0  0  0  0  0  0  0  0  0  0
    5.7751    7.6859    4.0246 N   0  0  1  0  0  4  0  0  0  0  0  0
    5.6248    7.6906    5.0360 H   0  0  0  0  0  0  0  0  0  0  0  0
    2.4371   10.2545    2.3940 C   0  0  2  0  0  0  0  0  0  0  0  0
    2.7716   10.2993    1.3511 H   0  0  0  0  0  0  0  0  0  0  0  0
    1.8598   11.6129    2.8100 C   0  0  0  0  0  0  0  0  0  0  0  0
    1.5539   11.5687    3.8594 H   0  0  0  0  0  0  0  0  0  0  0  0
    2.6237   12.3852    2.7140 H   0  0  0  0  0  0  0  0  0  0  0  0
    0.6590   11.9939    1.9497 C   0  0  0  0  0  0  0  0  0  0  0  0
    0.2684   12.9577    2.2760 H   0  0  0  0  0  0  0  0  0  0  0  0
    0.9735   12.0961    0.9094 H   0  0  0  0  0  0  0  0  0  0  0  0
   -0.4240   10.9286    2.0537 C   0  0  0  0  0  0  0  0  0  0  0  0
   -1.2673   11.1894    1.4148 H   0  0  0  0  0  0  0  0  0  0  0  0
   -0.7889   10.8734    3.0814 H   0  0  0  0  0  0  0  0  0  0  0  0
    0.1344    9.5726    1.6347 C   0  0  0  0  0  0  0  0  0  0  0  0
    0.4462    9.6175    0.5880 H   0  0  0  0  0  0  0  0  0  0  0  0
   -0.6477    8.8172    1.7229 H   0  0  0  0  0  0  0  0  0  0  0  0
    1.3377    9.1718    2.4968 C   0  0  1  0  0  0  0  0  0  0  0  0
    1.0216    9.1003    3.5473 H   0  0  0  0  0  0  0  0  0  0  0  0
    1.0480    6.7136    2.5094 C   0  0  0  0  0  0  0  0  0  0  0  0
    0.1335    6.6688    1.9034 H   0  0  0  0  0  0  0  0  0  0  0  0
    0.7444    6.8585    3.5484 H   0  0  0  0  0  0  0  0  0  0  0  0
    1.7629    5.3642    2.3511 C   0  0  0  0  0  0  0  0  0  0  0  0
    0.9896    4.5951    2.3962 H   0  0  0  0  0  0  0  0  0  0  0  0
    2.2079    5.3161    1.3523 H   0  0  0  0  0  0  0  0  0  0  0  0
    2.8375    4.9938    3.3979 C   0  0  2  0  0  0  0  0  0  0  0  0
    2.9327    3.8963    3.3772 H   0  0  0  0  0  0  0  0  0  0  0  0
    2.4267    5.4034    4.8112 C   0  0  0  0  0  0  0  0  0  0  0  0
    3.0138    4.8766    5.5584 H   0  0  0  0  0  0  0  0  0  0  0  0
    1.3858    5.1430    4.9820 H   0  0  0  0  0  0  0  0  0  0  0  0
    2.5590    6.4771    4.9543 H   0  0  0  0  0  0  0  0  0  0  0  0
    5.2977    5.2800    3.8411 C   0  0  1  0  0  0  0  0  0  0  0  0
    4.9964    5.2628    4.8940 H   0  0  0  0  0  0  0  0  0  0  0  0
    5.8876    3.9189    3.4599 C   0  0  0  0  0  0  0  0  0  0  0  0
    5.1303    3.1425    3.5824 H   0  0  0  0  0  0  0  0  0  0  0  0
    6.1830    3.9413    2.4078 H   0  0  0  0  0  0  0  0  0  0  0  0
    7.1039    3.5871    4.3184 C   0  0  0  0  0  0  0  0  0  0  0  0
    7.5131    2.6230    4.0173 H   0  0  0  0  0  0  0  0  0  0  0  0
    6.8042    3.5093    5.3658 H   0  0  0  0  0  0  0  0  0  0  0  0
    8.1624    4.6721    4.1661 C   0  0  0  0  0  0  0  0  0  0  0  0
    9.0193    4.4494    4.8018 H   0  0  0  0  0  0  0  0  0  0  0  0
    8.5111    4.6998    3.1324 H   0  0  0  0  0  0  0  0  0  0  0  0
    7.5884    6.0349    4.5435 C   0  0  0  0  0  0  0  0  0  0  0  0
    8.3628    6.7926    4.4190 H   0  0  0  0  0  0  0  0  0  0  0  0
    7.2905    6.0241    5.5962 H   0  0  0  0  0  0  0  0  0  0  0  0
    6.3718    6.3810    3.6781 C   0  0  2  0  0  0  0  0  0  0  0  0
    6.6695    6.4276    2.6218 H   0  0  0  0  0  0  0  0  0  0  0  0
    6.5967    8.8593    3.6916 C   0  0  0  0  0  0  0  0  0  0  0  0
    6.8100    8.8322    2.6192 H   0  0  0  0  0  0  0  0  0  0  0  0
    7.5541    8.8302    4.2288 H   0  0  0  0  0  0  0  0  0  0  0  0
    5.8983   10.1721    4.0710 C   0  0  0  0  0  0  0  0  0  0  0  0
    6.6678   10.9445    4.1214 H   0  0  0  0  0  0  0  0  0  0  0  0
    5.4820   10.0726    5.0793 H   0  0  0  0  0  0  0  0  0  0  0  0
    4.8031   10.7057    3.1250 C   0  0  1  0  0  0  0  0  0  0  0  0
    4.5692   11.7212    3.4833 H   0  0  0  0  0  0  0  0  0  0  0  0
    5.2982   10.8129    1.6849 C   0  0  0  0  0  0  0  0  0  0  0  0
    4.6787   11.4967    1.1102 H   0  0  0  0  0  0  0  0  0  0  0  0
    5.2943    9.8419    1.1897 H   0  0  0  0  0  0  0  0  0  0  0  0
    6.3114   11.2059    1.6750 H   0  0  0  0  0  0  0  0  0  0  0  0
  1  7  1  0  0  0  0
  1  3  1  0  0  0  0
  1  9  1  0  0  0  0
  2  1  1  0  0  0  0
  3  4  1  1  0  0  0
  5  6  1  6  0  0  0
  5 25  1  0  0  0  0
  5 27  1  0  0  0  0
  5  1  1  0  0  0  0
  7  8  1  6  0  0  0
  7 33  1  0  0  0  0
  7 39  1  0  0  0  0
  9 10  1  1  0  0  0
 11 12  1  6  0  0  0
 11 25  1  0  0  0  0
 11 13  1  0  0  0  0
 11  3  1  0  0  0  0
 13 14  1  0  0  0  0
 15 13  1  0  0  0  0
 16 19  1  0  0  0  0
 16 17  1  0  0  0  0
 16 13  1  0  0  0  0
 18 16  1  0  0  0  0
 19 21  1  0  0  0  0
 20 19  1  0  0  0  0
 22 24  1  0  0  0  0
 22 19  1  0  0  0  0
 22 25  1  0  0  0  0
 23 22  1  0  0  0  0
 25 26  1  1  0  0  0
 27 29  1  0  0  0  0
 28 27  1  0  0  0  0
 30 31  1  0  0  0  0
 30 27  1  0  0  0  0
 30 33  1  0  0  0  0
 32 30  1  0  0  0  0
 33 34  1  6  0  0  0
 33 35  1  0  0  0  0
 35 38  1  0  0  0  0
 35 37  1  0  0  0  0
 35 36  1  0  0  0  0
 39 40  1  1  0  0  0
 41 42  1  0  0  0  0
 41 39  1  0  0  0  0
 41 44  1  0  0  0  0
 43 41  1  0  0  0  0
 44 46  1  0  0  0  0
 45 44  1  0  0  0  0
 47 44  1  0  0  0  0
 47 50  1  0  0  0  0
 47 48  1  0  0  0  0
 49 47  1  0  0  0  0
 50 52  1  0  0  0  0
 51 50  1  0  0  0  0
 53 54  1  6  0  0  0
 53 39  1  0  0  0  0
 53  9  1  0  0  0  0
 53 50  1  0  0  0  0
 55  9  1  0  0  0  0
 55 58  1  0  0  0  0
 55 57  1  0  0  0  0
 56 55  1  0  0  0  0
 58 59  1  0  0  0  0
 58 60  1  0  0  0  0
 61  3  1  0  0  0  0
 61 62  1  1  0  0  0
 61 58  1  0  0  0  0
 63 61  1  0  0  0  0
 64 63  1  0  0  0  0
 65 63  1  0  0  0  0
 66 63  1  0  0  0  0
M  END
$$$$
