CSD_code = HOQBUK | q = 0 | S = 0 | Stoichiometry = C15H12BClN6Zn | MND = 4
 OpenBabel04212202043D

 36 42  0  0  1  0  0  0  0  0999 V2000
    0.1936    1.3889    1.1061 Zn  0  0  2  0  0  0  0  0  0  0  0  0
    0.7091    2.6881   -0.5094 N   0  0  0  0  0  0  0  0  0  0  0  0
   -3.2128    0.0211    1.9421 C   0  0  0  0  0  0  0  0  0  0  0  0
   -2.1841   -0.9426   -1.4735 C   0  0  1  0  0  3  0  0  0  0  0  0
   -2.1644   -1.5569   -2.8216 C   0  0  0  0  0  0  0  0  0  0  0  0
   -1.1827   -0.1319   -1.0343 N   0  0  2  0  0  0  0  0  0  0  0  0
    0.0174    5.2247   -1.0706 C   0  0  0  0  0  3  0  0  0  0  0  0
    0.3757    3.9313   -0.7779 C   0  0  0  0  0  0  0  0  0  0  0  0
   -1.4623    0.3079    0.2323 N   0  0  0  0  0  0  0  0  0  0  0  0
   -2.6248   -0.2359    0.6094 C   0  0  0  0  0  0  0  0  0  0  0  0
   -3.0925   -1.0018   -0.4505 C   0  0  0  0  0  3  0  0  0  0  0  0
   -0.0271    2.1095    3.0879 Cl  0  0  0  0  0  0  0  0  0  0  0  0
   -1.3978    3.6079   -3.0281 C   0  0  0  0  0  2  0  0  0  0  0  0
   -0.7128    2.7685   -2.2529 C   0  0  2  0  0  3  0  0  0  0  0  0
   -0.5739    4.2020   -1.8925 C   0  0  2  0  0  0  0  0  0  0  0  0
    0.0930    0.4987   -1.3907 B   0  0  0  0  0  0  0  0  0  0  0  0
    0.0557    1.9026   -1.5146 N   0  0  2  0  0  0  0  0  0  0  0  0
   -2.5448    0.6446    2.5323 H   0  0  0  0  0  0  0  0  0  0  0  0
   -3.3818   -0.9197    2.4624 H   0  0  0  0  0  0  0  0  0  0  0  0
   -4.1723    0.5244    1.8339 H   0  0  0  0  0  0  0  0  0  0  0  0
   -2.0096   -0.7953   -3.5851 H   0  0  0  0  0  0  0  0  0  0  0  0
   -3.1089   -2.0597   -3.0063 H   0  0  0  0  0  0  0  0  0  0  0  0
   -1.3579   -2.2866   -2.8962 H   0  0  0  0  0  0  0  0  0  0  0  0
    1.5420    0.0391    0.4872 N   0  0  0  0  0  0  0  0  0  0  0  0
    1.3158   -0.1268   -0.8494 N   0  0  2  0  0  0  0  0  0  0  0  0
    2.3256   -0.8625   -1.3888 C   0  0  2  0  0  3  0  0  0  0  0  0
    2.3630   -1.2127   -2.8294 C   0  0  0  0  0  0  0  0  0  0  0  0
    2.2559   -0.3195   -3.4442 H   0  0  0  0  0  0  0  0  0  0  0  0
    3.3087   -1.6932   -3.0620 H   0  0  0  0  0  0  0  0  0  0  0  0
    1.5517   -1.8968   -3.0793 H   0  0  0  0  0  0  0  0  0  0  0  0
    3.1858   -1.1531   -0.3610 C   0  0  0  0  0  3  0  0  0  0  0  0
    2.6779   -0.5837    0.8017 C   0  0  0  0  0  0  0  0  0  0  0  0
    3.2067   -0.5867    2.1840 C   0  0  0  0  0  0  0  0  0  0  0  0
    2.5390   -0.0279    2.8366 H   0  0  0  0  0  0  0  0  0  0  0  0
    3.2989   -1.6083    2.5486 H   0  0  0  0  0  0  0  0  0  0  0  0
    4.1947   -0.1305    2.2057 H   0  0  0  0  0  0  0  0  0  0  0  0
  1 12  1  1  0  0  0
  2  1  1  0  0  0  0
  3 19  1  0  0  0  0
  3 18  1  0  0  0  0
  4  5  1  6  0  0  0
  4  6  1  0  0  0  0
  4 11  1  0  0  0  0
  6 16  1  6  0  0  0
  6  9  1  0  0  0  0
  7  8  2  3  0  0  0
  8  2  1  0  0  0  0
  9 10  1  0  0  0  0
  9  1  1  0  0  0  0
 10  3  1  0  0  0  0
 11 10  2  0  0  0  0
 14 13  1  6  0  0  0
 14 15  1  0  0  0  0
 14 17  1  0  0  0  0
 15 13  1  6  0  0  0
 15  7  1  0  0  0  0
 15  8  1  0  0  0  0
 17 16  1  1  0  0  0
 17  2  1  0  0  0  0
 20  3  1  0  0  0  0
 21  5  1  0  0  0  0
 22  5  1  0  0  0  0
 23  5  1  0  0  0  0
 24 32  1  0  0  0  0
 24  1  1  0  0  0  0
 25 16  1  6  0  0  0
 25 24  1  0  0  0  0
 26 27  1  1  0  0  0
 26 25  1  0  0  0  0
 26 31  1  0  0  0  0
 28 27  1  0  0  0  0
 29 27  1  0  0  0  0
 30 27  1  0  0  0  0
 31 32  2  0  0  0  0
 32 33  1  0  0  0  0
 33 36  1  0  0  0  0
 33 35  1  0  0  0  0
 33 34  1  0  0  0  0
M  END
$$$$
