CSD_code = HOQBEX | q = 0 | S = 0 | Stoichiometry = C24H18Cl2HgN2O4 | MND = 4
 OpenBabel04212202043D

 51 54  0  0  0  0  0  0  0  0999 V2000
    7.4539    5.7917    6.0741 C   0  0  0  0  0  0  0  0  0  0  0  0
    8.1564    5.6126    7.2562 C   0  0  0  0  0  0  0  0  0  0  0  0
    8.5642    4.6497    7.5144 H   0  0  0  0  0  0  0  0  0  0  0  0
    8.3221    6.6937    8.1072 C   0  0  0  0  0  0  0  0  0  0  0  0
    8.8684    6.5578    9.0284 H   0  0  0  0  0  0  0  0  0  0  0  0
    7.8000    7.9342    7.7880 C   0  0  0  0  0  0  0  0  0  0  0  0
    7.9363    8.7680    8.4599 H   0  0  0  0  0  0  0  0  0  0  0  0
    7.1024    8.1042    6.6022 C   0  0  0  0  0  0  0  0  0  0  0  0
    6.6925    9.0692    6.3458 H   0  0  0  0  0  0  0  0  0  0  0  0
    6.9279    7.0377    5.7432 C   0  0  0  0  0  0  0  0  0  0  0  0
    6.3886    7.1451    4.8149 H   0  0  0  0  0  0  0  0  0  0  0  0
    7.4332    3.5055    5.2800 C   0  0  0  0  0  0  0  0  0  0  0  0
    7.0691    2.7620    4.0340 C   0  0  0  0  0  0  0  0  0  0  0  0
    6.6223    3.4095    2.8869 C   0  0  0  0  0  3  0  0  0  0  0  0
    6.5203    4.4862    2.8607 H   0  0  0  0  0  0  0  0  0  0  0  0
    6.3972    1.4278    1.7651 C   0  0  0  0  0  0  0  0  0  0  0  0
    6.1147    0.9415    0.8404 H   0  0  0  0  0  0  0  0  0  0  0  0
    6.8322    0.6975    2.8595 C   0  0  0  0  0  0  0  0  0  0  0  0
    6.8962   -0.3774    2.8020 H   0  0  0  0  0  0  0  0  0  0  0  0
    7.1749    1.3733    4.0172 C   0  0  0  0  0  0  0  0  0  0  0  0
    7.5167    0.8596    4.9038 H   0  0  0  0  0  0  0  0  0  0  0  0
    7.7345    1.5572   -5.9577 C   0  0  0  0  0  0  0  0  0  0  0  0
    6.7742    0.5589   -5.8215 C   0  0  0  0  0  0  0  0  0  0  0  0
    6.0339    0.6508   -5.0423 H   0  0  0  0  0  0  0  0  0  0  0  0
    6.7868   -0.5233   -6.6791 C   0  0  0  0  0  0  0  0  0  0  0  0
    6.0409   -1.2964   -6.5746 H   0  0  0  0  0  0  0  0  0  0  0  0
    7.7533   -0.6147   -7.6686 C   0  0  0  0  0  0  0  0  0  0  0  0
    7.7624   -1.4607   -8.3390 H   0  0  0  0  0  0  0  0  0  0  0  0
    8.7068    0.3797   -7.7933 C   0  0  0  0  0  0  0  0  0  0  0  0
    9.4632    0.3107   -8.5604 H   0  0  0  0  0  0  0  0  0  0  0  0
    8.7084    1.4721   -6.9409 C   0  0  0  0  0  0  0  0  0  0  0  0
    9.4531    2.2432   -7.0470 H   0  0  0  0  0  0  0  0  0  0  0  0
    8.1983    3.7785   -5.1352 C   0  0  0  0  0  0  0  0  0  0  0  0
    7.8874    4.6204   -3.9389 C   0  0  0  0  0  0  0  0  0  0  0  0
    7.1406    4.1420   -2.8676 C   0  0  0  0  0  3  0  0  0  0  0  0
    6.7542    3.1315   -2.8670 H   0  0  0  0  0  0  0  0  0  0  0  0
    7.3072    6.1391   -1.7630 C   0  0  0  0  0  0  0  0  0  0  0  0
    7.0460    6.7058   -0.8788 H   0  0  0  0  0  0  0  0  0  0  0  0
    8.0598    6.7011   -2.7822 C   0  0  0  0  0  0  0  0  0  0  0  0
    8.4004    7.7213   -2.7036 H   0  0  0  0  0  0  0  0  0  0  0  0
    8.3556    5.9316   -3.8931 C   0  0  0  0  0  0  0  0  0  0  0  0
    8.9334    6.3145   -4.7215 H   0  0  0  0  0  0  0  0  0  0  0  0
    4.9648    5.9822    1.0261 Cl  0  0  0  0  0  0  0  0  0  0  0  0
    4.5673    2.1959   -1.3097 Cl  0  0  0  0  0  0  0  0  0  0  0  0
    5.2860    4.0100   -0.1026 Hg  0  0  0  0  0  0  0  0  0  0  0  0
    6.2944    2.7560    1.7783 N   0  0  0  0  0  0  0  0  0  0  0  0
    6.8566    4.8862   -1.8048 N   0  0  0  0  0  0  0  0  0  0  0  0
    7.8479    2.9538    6.2679 O   0  0  0  0  0  0  0  0  0  0  0  0
    7.2271    4.8096    5.1170 O   0  0  0  0  0  0  0  0  0  0  0  0
    8.8571    4.1808   -6.0603 O   0  0  0  0  0  0  0  0  0  0  0  0
    7.6409    2.5759   -5.0159 O   0  0  0  0  0  0  0  0  0  0  0  0
  1  2  1  0  0  0  0
  2  3  1  0  0  0  0
  2  4  2  0  0  0  0
  4  5  1  0  0  0  0
  6  4  1  0  0  0  0
  6  7  1  0  0  0  0
  8  6  2  0  0  0  0
  9  8  1  0  0  0  0
 10  1  2  0  0  0  0
 10  8  1  0  0  0  0
 11 10  1  0  0  0  0
 12 48  2  0  0  0  0
 13 12  1  0  0  0  0
 14 13  1  0  0  0  0
 15 14  1  0  0  0  0
 16 46  1  0  0  0  0
 16 18  2  0  0  0  0
 17 16  1  0  0  0  0
 18 20  1  0  0  0  0
 19 18  1  0  0  0  0
 20 13  2  0  0  0  0
 20 21  1  0  0  0  0
 22 23  1  0  0  0  0
 22 51  1  0  0  0  0
 23 24  1  0  0  0  0
 25 26  1  0  0  0  0
 25 23  2  0  0  0  0
 27 25  1  0  0  0  0
 28 27  1  0  0  0  0
 29 27  2  0  0  0  0
 29 31  1  0  0  0  0
 30 29  1  0  0  0  0
 31 22  2  0  0  0  0
 32 31  1  0  0  0  0
 33 51  1  0  0  0  0
 33 34  1  0  0  0  0
 34 41  2  0  0  0  0
 34 35  1  0  0  0  0
 35 36  1  0  0  0  0
 35 47  1  0  0  0  0
 37 38  1  0  0  0  0
 39 40  1  0  0  0  0
 39 37  2  0  0  0  0
 41 39  1  0  0  0  0
 42 41  1  0  0  0  0
 44 45  1  0  0  0  0
 45 43  1  0  0  0  0
 45 46  1  0  0  0  0
 46 14  1  0  0  0  0
 47 37  1  0  0  0  0
 47 45  1  0  0  0  0
 49 12  1  0  0  0  0
 49  1  1  0  0  0  0
 50 33  2  0  0  0  0
M  END
$$$$
