CSD_code = HOQGUQ | q = 0 | S = 0 | Stoichiometry = C17H18Cl2N3O4PPt | MND = 4
 OpenBabel04212202043D

 46 49  0  0  1  0  0  0  0  0999 V2000
    7.2248   -0.6388   -1.0047 Pt  0  0  0  0  0  0  0  0  0  0  0  0
    7.8255   -0.3600   -3.1395 Cl  0  0  0  0  0  0  0  0  0  0  0  0
    6.0088    1.2144   -1.2055 Cl  0  0  0  0  0  0  0  0  0  0  0  0
    6.0914   -0.8188    4.8416 P   0  0  0  0  0  0  0  0  0  0  0  0
    6.1739    0.6065    5.1739 O   0  0  0  0  0  0  0  0  0  0  0  0
    4.6266   -1.4498    4.9340 O   0  0  0  0  0  0  0  0  0  0  0  0
    6.9404   -1.7281    5.8766 O   0  0  0  0  0  0  0  0  0  0  0  0
    5.9803   -3.9100    4.3266 O   0  0  0  0  0  0  0  0  0  0  0  0
    5.5361   -4.3574    5.0560 H   0  0  0  0  0  0  0  0  0  0  0  0
    6.8403   -1.0379    0.9715 N   0  0  1  0  0  0  0  0  0  0  0  0
    7.5509   -2.1184    1.3936 N   0  0  0  0  0  0  0  0  0  0  0  0
    8.2433   -2.3538   -0.7879 N   0  0  0  0  0  0  0  0  0  0  0  0
    6.2503   -0.5053    2.0282 C   0  0  2  0  0  3  0  0  0  0  0  0
    6.5957   -1.2557    3.1741 C   0  0  0  0  0  0  0  0  0  0  0  0
    7.4330   -2.2627    2.7442 C   0  0  0  0  0  0  0  0  0  0  0  0
    8.1749   -2.9087    0.4371 C   0  0  2  0  0  3  0  0  0  0  0  0
    8.6489   -4.1908    0.6937 C   0  0  0  0  0  0  0  0  0  0  0  0
    8.5261   -4.6318    1.6676 H   0  0  0  0  0  0  0  0  0  0  0  0
    9.2644   -4.8883   -0.3298 C   0  0  0  0  0  0  0  0  0  0  0  0
    9.6391   -5.8841   -0.1543 H   0  0  0  0  0  0  0  0  0  0  0  0
    9.3813   -4.2890   -1.5785 C   0  0  0  0  0  0  0  0  0  0  0  0
    9.8645   -4.7963   -2.3967 H   0  0  0  0  0  0  0  0  0  0  0  0
    8.8462   -3.0323   -1.7688 C   0  0  0  0  0  0  0  0  0  0  0  0
    8.8812   -2.5263   -2.7256 H   0  0  0  0  0  0  0  0  0  0  0  0
    5.3594    0.6692    1.9977 C   0  0  0  0  0  0  0  0  0  0  0  0
    5.5862    1.2961    1.1367 H   0  0  0  0  0  0  0  0  0  0  0  0
    5.4647    1.2258    2.9249 H   0  0  0  0  0  0  0  0  0  0  0  0
    4.3244    0.3390    1.9088 H   0  0  0  0  0  0  0  0  0  0  0  0
    8.1095   -3.2436    3.5850 C   0  0  0  0  0  0  0  0  0  0  0  0
    7.3201   -4.0252    4.4406 C   0  0  0  0  0  0  0  0  0  0  0  0
    7.9365   -4.8958    5.3304 C   0  0  0  0  0  0  0  0  0  0  0  0
    7.3288   -5.4938    5.9951 H   0  0  0  0  0  0  0  0  0  0  0  0
    9.3160   -4.9869    5.3746 C   0  0  0  0  0  0  0  0  0  0  0  0
    9.7827   -5.6630    6.0744 H   0  0  0  0  0  0  0  0  0  0  0  0
   10.0982   -4.2144    4.5314 C   0  0  0  0  0  0  0  0  0  0  0  0
   11.1738   -4.2820    4.5729 H   0  0  0  0  0  0  0  0  0  0  0  0
    9.4955   -3.3420    3.6436 C   0  0  0  0  0  0  0  0  0  0  0  0
   10.0959   -2.7202    2.9956 H   0  0  0  0  0  0  0  0  0  0  0  0
    3.6593   -0.8106    5.7533 C   0  0  0  0  0  0  0  0  0  0  0  0
    3.9290    0.2356    5.9124 H   0  0  0  0  0  0  0  0  0  0  0  0
    3.5916   -1.3170    6.7177 H   0  0  0  0  0  0  0  0  0  0  0  0
    2.7020   -0.8740    5.2361 H   0  0  0  0  0  0  0  0  0  0  0  0
    8.0842   -1.1701    6.4978 C   0  0  0  0  0  0  0  0  0  0  0  0
    8.9855   -1.4769    5.9627 H   0  0  0  0  0  0  0  0  0  0  0  0
    8.1187   -1.5495    7.5190 H   0  0  0  0  0  0  0  0  0  0  0  0
    8.0131   -0.0811    6.5081 H   0  0  0  0  0  0  0  0  0  0  0  0
  1 12  1  0  0  0  0
  1 10  1  0  0  0  0
  2  1  1  0  0  0  0
  3  1  1  0  0  0  0
  4  6  1  0  0  0  0
  4  5  2  0  0  0  0
  4  7  1  0  0  0  0
  6 39  1  0  0  0  0
  7 43  1  0  0  0  0
  8 30  1  0  0  0  0
  8  9  1  0  0  0  0
 10 11  1  1  0  0  0
 10 13  1  0  0  0  0
 11 15  1  0  0  0  0
 12 16  1  0  0  0  0
 13 25  1  6  0  0  0
 13 14  1  0  0  0  0
 14  4  1  0  0  0  0
 15 14  2  0  0  0  0
 15 29  1  0  0  0  0
 16 17  1  6  0  0  0
 16 11  1  0  0  0  0
 17 18  1  0  0  0  0
 19 20  1  0  0  0  0
 19 17  2  0  0  0  0
 21 19  1  0  0  0  0
 22 21  1  0  0  0  0
 23 21  2  0  0  0  0
 23 12  1  0  0  0  0
 24 23  1  0  0  0  0
 25 27  1  0  0  0  0
 26 25  1  0  0  0  0
 28 25  1  0  0  0  0
 29 37  2  0  0  0  0
 29 30  1  0  0  0  0
 30 31  2  0  0  0  0
 31 33  1  0  0  0  0
 31 32  1  0  0  0  0
 33 34  1  0  0  0  0
 35 36  1  0  0  0  0
 35 33  2  0  0  0  0
 37 35  1  0  0  0  0
 38 37  1  0  0  0  0
 39 40  1  0  0  0  0
 39 41  1  0  0  0  0
 42 39  1  0  0  0  0
 43 46  1  0  0  0  0
 43 45  1  0  0  0  0
 44 43  1  0  0  0  0
M  END
$$$$
