CSD_code = HOQJEC | q = 0 | S = 0 | Stoichiometry = C10H24Cl2N4Ti | MND = 6
 OpenBabel04212202043D

 41 43  0  0  1  0  0  0  0  0999 V2000
   -3.4803   -5.5209   -3.3011 Ti  0  0  0  0  0  0  0  0  0  0  0  0
   -3.4360   -5.3463   -4.9612 N   0  0  0  0  0  2  0  0  0  0  0  0
   -5.3221   -4.5425   -2.8774 N   0  0  2  0  0  4  0  0  0  0  0  0
   -5.1747   -6.8114   -3.1101 N   0  0  2  0  0  4  0  0  0  0  0  0
   -4.3446   -5.8031   -1.1976 N   0  0  1  0  0  4  0  0  0  0  0  0
   -5.1682   -4.6383   -1.4350 C   0  0  0  0  0  0  0  0  0  0  0  0
   -6.0649   -5.6927   -3.3538 C   0  0  0  0  0  0  0  0  0  0  0  0
   -5.0184   -6.9895   -1.6754 C   0  0  0  0  0  0  0  0  0  0  0  0
   -2.7124   -5.3509   -6.1681 C   0  0  0  0  0  0  0  0  0  0  0  0
   -3.3677   -4.4175   -7.2053 C   0  0  0  0  0  0  0  0  0  0  0  0
   -2.6551   -6.7933   -6.7163 C   0  0  0  0  0  0  0  0  0  0  0  0
   -1.2787   -4.8641   -5.8594 C   0  0  0  0  0  0  0  0  0  0  0  0
   -5.7801   -3.2543   -3.3564 C   0  0  0  0  0  0  0  0  0  0  0  0
   -5.4793   -8.0255   -3.8397 C   0  0  0  0  0  0  0  0  0  0  0  0
   -3.8041   -5.9042    0.1403 C   0  0  0  0  0  0  0  0  0  0  0  0
   -2.3261   -3.7889   -2.5205 Cl  0  0  0  0  0  0  0  0  0  0  0  0
   -2.1024   -7.2087   -2.8800 Cl  0  0  0  0  0  0  0  0  0  0  0  0
   -6.1640   -4.7148   -0.9279 H   0  0  0  0  0  0  0  0  0  0  0  0
   -4.6408   -3.7493   -1.0724 H   0  0  0  0  0  0  0  0  0  0  0  0
   -7.0435   -5.8109   -2.8237 H   0  0  0  0  0  0  0  0  0  0  0  0
   -6.2369   -5.5929   -4.4325 H   0  0  0  0  0  0  0  0  0  0  0  0
   -6.0108   -7.1416   -1.1785 H   0  0  0  0  0  0  0  0  0  0  0  0
   -4.3817   -7.8617   -1.4904 H   0  0  0  0  0  0  0  0  0  0  0  0
   -2.7920   -4.4067   -8.1271 H   0  0  0  0  0  0  0  0  0  0  0  0
   -4.3795   -4.7562   -7.4234 H   0  0  0  0  0  0  0  0  0  0  0  0
   -3.4164   -3.4081   -6.8010 H   0  0  0  0  0  0  0  0  0  0  0  0
   -1.9968   -6.8515   -7.5793 H   0  0  0  0  0  0  0  0  0  0  0  0
   -3.6520   -7.1223   -7.0062 H   0  0  0  0  0  0  0  0  0  0  0  0
   -2.2841   -7.4489   -5.9280 H   0  0  0  0  0  0  0  0  0  0  0  0
   -0.6577   -4.8758   -6.7526 H   0  0  0  0  0  0  0  0  0  0  0  0
   -0.8446   -5.5181   -5.0985 H   0  0  0  0  0  0  0  0  0  0  0  0
   -1.3232   -3.8512   -5.4575 H   0  0  0  0  0  0  0  0  0  0  0  0
   -5.7857   -3.2691   -4.4476 H   0  0  0  0  0  0  0  0  0  0  0  0
   -6.7855   -3.0085   -2.9838 H   0  0  0  0  0  0  0  0  0  0  0  0
   -5.0716   -2.4906   -3.0313 H   0  0  0  0  0  0  0  0  0  0  0  0
   -4.6758   -8.7442   -3.6709 H   0  0  0  0  0  0  0  0  0  0  0  0
   -6.4390   -8.4640   -3.5286 H   0  0  0  0  0  0  0  0  0  0  0  0
   -5.5097   -7.7950   -4.9054 H   0  0  0  0  0  0  0  0  0  0  0  0
   -3.1252   -6.7559    0.1824 H   0  0  0  0  0  0  0  0  0  0  0  0
   -4.5890   -6.0285    0.9016 H   0  0  0  0  0  0  0  0  0  0  0  0
   -3.2328   -5.0017    0.3573 H   0  0  0  0  0  0  0  0  0  0  0  0
  1  4  1  0  0  0  0
  1 17  1  0  0  0  0
  1  3  1  0  0  0  0
  1 16  1  0  0  0  0
  1  5  1  0  0  0  0
  2  1  1  0  0  0  0
  3 13  1  6  0  0  0
  3  6  1  0  0  0  0
  4 14  1  6  0  0  0
  4  8  1  0  0  0  0
  5 15  1  1  0  0  0
  6  5  1  0  0  0  0
  6 19  1  0  0  0  0
  6 18  1  0  0  0  0
  7  4  1  0  0  0  0
  7  3  1  0  0  0  0
  7 20  1  0  0  0  0
  8 23  1  0  0  0  0
  8  5  1  0  0  0  0
  8 22  1  0  0  0  0
  9 12  1  0  0  0  0
  9  2  1  0  0  0  0
 10 26  1  0  0  0  0
 10  9  1  0  0  0  0
 11  9  1  0  0  0  0
 11 29  1  0  0  0  0
 12 32  1  0  0  0  0
 12 31  1  0  0  0  0
 13 35  1  0  0  0  0
 13 34  1  0  0  0  0
 14 36  1  0  0  0  0
 14 37  1  0  0  0  0
 15 39  1  0  0  0  0
 15 41  1  0  0  0  0
 15 40  1  0  0  0  0
 21  7  1  0  0  0  0
 24 10  1  0  0  0  0
 25 10  1  0  0  0  0
 27 11  1  0  0  0  0
 28 11  1  0  0  0  0
 30 12  1  0  0  0  0
 33 13  1  0  0  0  0
 38 14  1  0  0  0  0
M  END
$$$$
