CSD_code = HOQTIR | q = 0 | S = 0 | Stoichiometry = C29H28Cl3O2P2Rh | MND = 6
 OpenBabel04212202043D

 65 68  0  0  0  0  0  0  0  0999 V2000
    0.9921    4.2347   16.2411 Rh  0  0  0  0  0  0  0  0  0  0  0  0
   -3.4168    5.3910   15.2527 Cl  0  0  0  0  0  0  0  0  0  0  0  0
    1.1560    5.0360   14.0946 Cl  0  0  0  0  0  0  0  0  0  0  0  0
    3.4295    3.7742   16.3436 Cl  0  0  0  0  0  0  0  0  0  0  0  0
    0.7619    2.1726   15.2143 P   0  0  0  0  0  4  0  0  0  0  0  0
    1.5058    6.4047   16.8661 P   0  0  0  0  0  4  0  0  0  0  0  0
   -1.6533    4.3143   17.2301 O   0  0  0  0  0  0  0  0  0  0  0  0
    0.8310    3.1716   19.0315 O   0  0  0  0  0  1  0  0  0  0  0  0
   -1.0190    4.5861   16.2467 C   0  0  0  0  0  0  0  0  0  0  0  0
   -1.6654    5.1808   15.0135 C   0  0  0  0  0  0  0  0  0  0  0  0
    0.8882    3.5777   17.9712 C   0  0  0  0  0  2  0  0  0  0  0  0
    2.0100    1.8263   13.9331 C   0  0  0  0  0  0  0  0  0  0  0  0
    0.9350    0.6831   16.2488 C   0  0  0  0  0  0  0  0  0  0  0  0
    1.9536    0.6653   17.1975 C   0  0  0  0  0  0  0  0  0  0  0  0
    2.1605   -0.4602   17.9730 C   0  0  0  0  0  0  0  0  0  0  0  0
    1.3554   -1.5752   17.8052 C   0  0  0  0  0  0  0  0  0  0  0  0
    0.3536   -1.5674   16.8490 C   0  0  0  0  0  0  0  0  0  0  0  0
    0.1433   -0.4451   16.0676 C   0  0  0  0  0  0  0  0  0  0  0  0
   -0.8494    1.9714   14.4079 C   0  0  0  0  0  0  0  0  0  0  0  0
   -1.9663    1.8050   15.2276 C   0  0  0  0  0  0  0  0  0  0  0  0
   -3.2304    1.7482   14.6749 C   0  0  0  0  0  0  0  0  0  0  0  0
   -3.3921    1.8696   13.3027 C   0  0  0  0  0  0  0  0  0  0  0  0
   -2.2874    2.0442   12.4866 C   0  0  0  0  0  0  0  0  0  0  0  0
   -1.0160    2.0996   13.0339 C   0  0  0  0  0  0  0  0  0  0  0  0
    2.9151    7.1354   15.9718 C   0  0  0  0  0  0  0  0  0  0  0  0
    2.0217    6.7058   18.5871 C   0  0  0  0  0  0  0  0  0  0  0  0
    2.8671    5.7817   19.1938 C   0  0  0  0  0  0  0  0  0  0  0  0
    3.3266    6.0010   20.4794 C   0  0  0  0  0  0  0  0  0  0  0  0
    2.9494    7.1440   21.1652 C   0  0  0  0  0  0  0  0  0  0  0  0
    2.1242    8.0752   20.5567 C   0  0  0  0  0  0  0  0  0  0  0  0
    1.6629    7.8628   19.2699 C   0  0  0  0  0  0  0  0  0  0  0  0
    0.1143    7.5408   16.6191 C   0  0  0  0  0  0  0  0  0  0  0  0
   -0.9672    7.4364   17.4944 C   0  0  0  0  0  0  0  0  0  0  0  0
   -2.0994    8.2004   17.2927 C   0  0  0  0  0  0  0  0  0  0  0  0
   -2.1674    9.0649   16.2101 C   0  0  0  0  0  0  0  0  0  0  0  0
   -1.0999    9.1654   15.3342 C   0  0  0  0  0  0  0  0  0  0  0  0
    0.0400    8.4034   15.5317 C   0  0  0  0  0  0  0  0  0  0  0  0
   -1.5271    4.5303   14.1491 H   0  0  0  0  0  0  0  0  0  0  0  0
   -1.2440    6.1614   14.7891 H   0  0  0  0  0  0  0  0  0  0  0  0
    2.0331    2.6355   13.2038 H   0  0  0  0  0  0  0  0  0  0  0  0
    1.7788    0.8710   13.4590 H   0  0  0  0  0  0  0  0  0  0  0  0
    2.9805    1.7753   14.4289 H   0  0  0  0  0  0  0  0  0  0  0  0
    2.5919    1.5318   17.3133 H   0  0  0  0  0  0  0  0  0  0  0  0
    2.9507   -0.4668   18.7087 H   0  0  0  0  0  0  0  0  0  0  0  0
    1.5117   -2.4523   18.4154 H   0  0  0  0  0  0  0  0  0  0  0  0
   -0.2678   -2.4397   16.7085 H   0  0  0  0  0  0  0  0  0  0  0  0
   -0.6366   -0.4477   15.3194 H   0  0  0  0  0  0  0  0  0  0  0  0
   -1.8320    1.7275   16.2990 H   0  0  0  0  0  0  0  0  0  0  0  0
   -4.0913    1.6226   15.3136 H   0  0  0  0  0  0  0  0  0  0  0  0
   -4.3814    1.8364   12.8721 H   0  0  0  0  0  0  0  0  0  0  0  0
   -2.4141    2.1464   11.4190 H   0  0  0  0  0  0  0  0  0  0  0  0
   -0.1602    2.2569   12.3947 H   0  0  0  0  0  0  0  0  0  0  0  0
    3.8035    6.5626   16.2421 H   0  0  0  0  0  0  0  0  0  0  0  0
    3.0309    8.1763   16.2784 H   0  0  0  0  0  0  0  0  0  0  0  0
    2.7610    7.0535   14.8964 H   0  0  0  0  0  0  0  0  0  0  0  0
    3.1766    4.9001   18.6479 H   0  0  0  0  0  0  0  0  0  0  0  0
    3.9802    5.2790   20.9456 H   0  0  0  0  0  0  0  0  0  0  0  0
    3.3026    7.3127   22.1717 H   0  0  0  0  0  0  0  0  0  0  0  0
    1.8385    8.9730   21.0850 H   0  0  0  0  0  0  0  0  0  0  0  0
    1.0228    8.5951   18.7984 H   0  0  0  0  0  0  0  0  0  0  0  0
   -0.9111    6.7476   18.3278 H   0  0  0  0  0  0  0  0  0  0  0  0
   -2.9346    8.1134   17.9707 H   0  0  0  0  0  0  0  0  0  0  0  0
   -3.0573    9.6535   16.0461 H   0  0  0  0  0  0  0  0  0  0  0  0
   -1.1560    9.8329   14.4871 H   0  0  0  0  0  0  0  0  0  0  0  0
    0.8613    8.4699   14.8338 H   0  0  0  0  0  0  0  0  0  0  0  0
  1  9  1  0  0  0  0
  1  4  1  0  0  0  0
  1  6  1  0  0  0  0
  1 11  1  0  0  0  0
  3  1  1  0  0  0  0
  5  1  1  0  0  0  0
  5 13  1  0  0  0  0
  6 26  1  0  0  0  0
  9  7  2  0  0  0  0
 10  2  1  0  0  0  0
 10  9  1  0  0  0  0
 11  8  1  0  0  0  0
 12 42  1  0  0  0  0
 12  5  1  0  0  0  0
 13 14  1  0  0  0  0
 14 43  1  0  0  0  0
 14 15  2  0  0  0  0
 15 44  1  0  0  0  0
 16 15  1  0  0  0  0
 16 45  1  0  0  0  0
 17 16  2  0  0  0  0
 18 13  2  0  0  0  0
 18 17  1  0  0  0  0
 19  5  1  0  0  0  0
 19 20  1  0  0  0  0
 20 48  1  0  0  0  0
 21 20  2  0  0  0  0
 21 49  1  0  0  0  0
 22 21  1  0  0  0  0
 23 24  1  0  0  0  0
 23 22  2  0  0  0  0
 24 19  2  0  0  0  0
 25 53  1  0  0  0  0
 25 54  1  0  0  0  0
 25  6  1  0  0  0  0
 26 27  2  0  0  0  0
 26 31  1  0  0  0  0
 27 28  1  0  0  0  0
 28 57  1  0  0  0  0
 28 29  2  0  0  0  0
 29 58  1  0  0  0  0
 30 59  1  0  0  0  0
 30 29  1  0  0  0  0
 31 30  2  0  0  0  0
 32  6  1  0  0  0  0
 32 33  1  0  0  0  0
 33 61  1  0  0  0  0
 34 33  2  0  0  0  0
 34 62  1  0  0  0  0
 35 34  1  0  0  0  0
 36 37  1  0  0  0  0
 36 35  2  0  0  0  0
 37 32  2  0  0  0  0
 38 10  1  0  0  0  0
 39 10  1  0  0  0  0
 40 12  1  0  0  0  0
 41 12  1  0  0  0  0
 46 17  1  0  0  0  0
 47 18  1  0  0  0  0
 50 22  1  0  0  0  0
 51 23  1  0  0  0  0
 52 24  1  0  0  0  0
 55 25  1  0  0  0  0
 56 27  1  0  0  0  0
 60 31  1  0  0  0  0
 63 35  1  0  0  0  0
 64 36  1  0  0  0  0
 65 37  1  0  0  0  0
M  END
$$$$
