CSD_code = HORBEY | q = 0 | S = 0 | Stoichiometry = C14H13AuCl2N2O | MND = 4
 OpenBabel04212202043D

 33 35  0  0  0  0  0  0  0  0999 V2000
    1.7746    1.5277    6.8808 Au  0  0  0  0  0  0  0  0  0  0  0  0
    0.5105    0.5575    5.3351 Cl  0  0  0  0  0  0  0  0  0  0  0  0
    2.7955   -0.4396    7.2800 Cl  0  0  0  0  0  0  0  0  0  0  0  0
    1.0358    5.4369    7.5578 O   0  0  0  0  0  0  0  0  0  0  0  0
    2.8838    2.5141    8.2762 N   0  0  0  0  0  0  0  0  0  0  0  0
    0.9845    3.3414    6.6581 N   0  0  0  0  0  0  0  0  0  0  0  0
    3.8520    2.0119    9.0342 C   0  0  0  0  0  3  0  0  0  0  0  0
    4.0706    0.9620    8.8917 H   0  0  0  0  0  0  0  0  0  0  0  0
    4.5292    2.7979    9.9490 C   0  0  0  0  0  0  0  0  0  0  0  0
    5.3110    2.3612   10.5491 H   0  0  0  0  0  0  0  0  0  0  0  0
    4.1859    4.1380   10.0750 C   0  0  0  0  0  0  0  0  0  0  0  0
    4.6984    4.7721   10.7824 H   0  0  0  0  0  0  0  0  0  0  0  0
    3.1742    4.6456    9.2784 C   0  0  0  0  0  0  0  0  0  0  0  0
    2.8488    5.6740    9.3195 H   0  0  0  0  0  0  0  0  0  0  0  0
    2.5401    3.7990    8.3807 C   0  0  0  0  0  0  0  0  0  0  0  0
    1.4347    4.2884    7.4946 C   0  0  0  0  0  0  0  0  0  0  0  0
   -0.1100    3.6758    5.7754 C   0  0  0  0  0  0  0  0  0  0  0  0
    0.0209    3.1335    4.8378 H   0  0  0  0  0  0  0  0  0  0  0  0
   -0.0651    4.7510    5.5770 H   0  0  0  0  0  0  0  0  0  0  0  0
   -1.4684    3.3197    6.3947 C   0  0  0  0  0  0  0  0  0  0  0  0
   -1.4680    2.2578    6.6497 H   0  0  0  0  0  0  0  0  0  0  0  0
   -1.6005    3.9034    7.3080 H   0  0  0  0  0  0  0  0  0  0  0  0
   -2.5639    3.6142    5.4118 C   0  0  0  0  0  0  0  0  0  0  0  0
   -3.1794    4.8585    5.3879 C   0  0  0  0  0  0  0  0  0  0  0  0
   -2.8845    5.6121    6.1042 H   0  0  0  0  0  0  0  0  0  0  0  0
   -4.1656    5.1359    4.4576 C   0  0  0  0  0  0  0  0  0  0  0  0
   -4.6402    6.1063    4.4497 H   0  0  0  0  0  0  0  0  0  0  0  0
   -4.5440    4.1722    3.5387 C   0  0  0  0  0  0  0  0  0  0  0  0
   -5.3151    4.3880    2.8136 H   0  0  0  0  0  0  0  0  0  0  0  0
   -3.9303    2.9309    3.5525 C   0  0  0  0  0  0  0  0  0  0  0  0
   -4.2214    2.1760    2.8369 H   0  0  0  0  0  0  0  0  0  0  0  0
   -2.9439    2.6545    4.4822 C   0  0  0  0  0  0  0  0  0  0  0  0
   -2.4616    1.6876    4.4916 H   0  0  0  0  0  0  0  0  0  0  0  0
  1  3  1  0  0  0  0
  1  5  1  0  0  0  0
  2  1  1  0  0  0  0
  5 15  1  0  0  0  0
  5  7  1  0  0  0  0
  6  1  1  0  0  0  0
  6 16  1  0  0  0  0
  7  9  1  0  0  0  0
  8  7  1  0  0  0  0
  9 11  2  0  0  0  0
  9 10  1  0  0  0  0
 11 12  1  0  0  0  0
 13 14  1  0  0  0  0
 13 11  1  0  0  0  0
 15 13  2  0  0  0  0
 16  4  2  0  0  0  0
 16 15  1  0  0  0  0
 17 20  1  0  0  0  0
 17  6  1  0  0  0  0
 18 17  1  0  0  0  0
 19 17  1  0  0  0  0
 20 21  1  0  0  0  0
 20 22  1  0  0  0  0
 23 20  1  0  0  0  0
 24 23  1  0  0  0  0
 24 25  1  0  0  0  0
 26 24  2  0  0  0  0
 27 26  1  0  0  0  0
 28 30  2  0  0  0  0
 28 26  1  0  0  0  0
 29 28  1  0  0  0  0
 30 32  1  0  0  0  0
 31 30  1  0  0  0  0
 32 33  1  0  0  0  0
 32 23  2  0  0  0  0
M  END
$$$$
