CSD_code = HOSHII | q = 0 | S = 0 | Stoichiometry = C12H11AuCl3N | MND = 4
 OpenBabel04212202043D

 28 29  0  0  0  0  0  0  0  0999 V2000
    9.1161    0.8101    3.1902 Au  0  0  0  0  0  0  0  0  0  0  0  0
    9.4758   -1.2157    2.3544 Cl  0  0  0  0  0  0  0  0  0  0  0  0
   11.2960    0.9767    3.8488 Cl  0  0  0  0  0  0  0  0  0  0  0  0
    6.8806    0.6700    2.7146 Cl  0  0  0  0  0  0  0  0  0  0  0  0
    8.7948    2.6729    4.0121 N   0  0  0  0  0  0  0  0  0  0  0  0
    8.9343    2.7965    5.3306 C   0  0  0  0  0  3  0  0  0  0  0  0
    9.2174    1.9062    5.8705 H   0  0  0  0  0  0  0  0  0  0  0  0
    8.7454    3.9972    5.9815 C   0  0  0  0  0  0  0  0  0  0  0  0
    8.8692    4.0551    7.0501 H   0  0  0  0  0  0  0  0  0  0  0  0
    8.4015    5.1108    5.2273 C   0  0  0  0  0  0  0  0  0  0  0  0
    8.2470    6.0695    5.6985 H   0  0  0  0  0  0  0  0  0  0  0  0
    8.2671    4.9702    3.8601 C   0  0  0  0  0  0  0  0  0  0  0  0
    8.0063    5.8146    3.2414 H   0  0  0  0  0  0  0  0  0  0  0  0
    8.4695    3.7287    3.2608 C   0  0  0  0  0  0  0  0  0  0  0  0
    8.3260    3.5491    1.7856 C   0  0  0  0  0  0  0  0  0  0  0  0
    8.1892    4.5244    1.3123 H   0  0  0  0  0  0  0  0  0  0  0  0
    7.4278    2.9502    1.6044 H   0  0  0  0  0  0  0  0  0  0  0  0
    9.5179    2.8421    1.1808 C   0  0  0  0  0  0  0  0  0  0  0  0
   10.8061    3.2897    1.4575 C   0  0  0  0  0  0  0  0  0  0  0  0
   10.9488    4.1384    2.1126 H   0  0  0  0  0  0  0  0  0  0  0  0
   11.9019    2.6449    0.9148 C   0  0  0  0  0  0  0  0  0  0  0  0
   12.8967    2.9896    1.1524 H   0  0  0  0  0  0  0  0  0  0  0  0
   11.7237    1.5527    0.0821 C   0  0  0  0  0  0  0  0  0  0  0  0
   12.5810    1.0420   -0.3294 H   0  0  0  0  0  0  0  0  0  0  0  0
   10.4462    1.1146   -0.2180 C   0  0  0  0  0  0  0  0  0  0  0  0
   10.3008    0.2649   -0.8674 H   0  0  0  0  0  0  0  0  0  0  0  0
    9.3455    1.7543    0.3287 C   0  0  0  0  0  0  0  0  0  0  0  0
    8.3489    1.4150    0.0853 H   0  0  0  0  0  0  0  0  0  0  0  0
  1  3  1  0  0  0  0
  1  5  1  0  0  0  0
  2  1  1  0  0  0  0
  4  1  1  0  0  0  0
  5  6  1  0  0  0  0
  6  7  1  0  0  0  0
  6  8  1  0  0  0  0
  8  9  1  0  0  0  0
 10 11  1  0  0  0  0
 10  8  2  0  0  0  0
 12 10  1  0  0  0  0
 13 12  1  0  0  0  0
 14 12  2  0  0  0  0
 14  5  1  0  0  0  0
 15 14  1  0  0  0  0
 16 15  1  0  0  0  0
 17 15  1  0  0  0  0
 18 19  1  0  0  0  0
 18 15  1  0  0  0  0
 19 20  1  0  0  0  0
 21 22  1  0  0  0  0
 21 19  2  0  0  0  0
 23 21  1  0  0  0  0
 24 23  1  0  0  0  0
 25 23  2  0  0  0  0
 25 27  1  0  0  0  0
 26 25  1  0  0  0  0
 27 18  2  0  0  0  0
 28 27  1  0  0  0  0
M  END
$$$$
