CSD_code = HOSPEK | q = 0 | S = 0 | Stoichiometry = C13H17ClN4PdS | MND = 4
 OpenBabel04212202043D

 37 40  0  0  0  0  0  0  0  0999 V2000
    3.2403    3.6974    0.9764 Pd  0  0  2  0  0  0  0  0  0  0  0  0
    3.7382    1.7821    1.9518 Cl  0  0  0  0  0  0  0  0  0  0  0  0
    2.1195    4.6808    2.7200 S   0  0  0  0  0  0  0  0  0  0  0  0
    4.1328    3.2372   -0.8462 N   0  0  0  0  0  0  0  0  0  0  0  0
    2.8461    5.3307    0.0522 N   0  0  0  0  0  0  0  0  0  0  0  0
    2.1897    6.3398    0.5926 N   0  0  0  0  0  0  0  0  0  0  0  0
    1.0989    7.1352    2.4337 N   0  0  0  0  0  0  0  0  0  0  0  0
    4.7732    2.1445   -1.2353 C   0  0  0  0  0  0  0  0  0  0  0  0
    5.3086    2.0159   -2.5069 C   0  0  0  0  0  0  0  0  0  0  0  0
    5.1692    3.0719   -3.4019 C   0  0  0  0  0  0  0  0  0  0  0  0
    4.5043    4.2121   -3.0016 C   0  0  0  0  0  0  0  0  0  0  0  0
    3.9830    4.2809   -1.7025 C   0  0  0  0  0  0  0  0  0  0  0  0
    3.2742    5.4089   -1.1834 C   0  0  0  0  0  0  0  0  0  0  0  0
    1.7906    6.1553    1.8453 C   0  0  0  0  0  0  0  0  0  0  0  0
    0.8394    8.3547    1.6978 C   0  0  0  0  0  0  0  0  0  0  0  0
    2.0447    9.2969    1.7366 C   0  0  0  0  0  0  0  0  0  0  0  0
    2.2537    9.9539    3.0984 C   0  0  0  0  0  0  0  0  0  0  0  0
    2.3267    8.9642    4.2624 C   0  0  0  0  0  0  0  0  0  0  0  0
    0.9696    8.3406    4.5988 C   0  0  0  0  0  0  0  0  0  0  0  0
    0.6814    7.0576    3.8134 C   0  0  0  0  0  0  0  0  0  0  0  0
    4.8527    1.3538   -0.4978 H   0  0  0  0  0  0  0  0  0  0  0  0
    5.8213    1.1112   -2.7888 H   0  0  0  0  0  0  0  0  0  0  0  0
    5.5769    3.0002   -4.3990 H   0  0  0  0  0  0  0  0  0  0  0  0
    4.3775    5.0508   -3.6676 H   0  0  0  0  0  0  0  0  0  0  0  0
    3.0911    6.2975   -1.7761 H   0  0  0  0  0  0  0  0  0  0  0  0
    0.6326    8.0816    0.6608 H   0  0  0  0  0  0  0  0  0  0  0  0
   -0.0421    8.8341    2.1248 H   0  0  0  0  0  0  0  0  0  0  0  0
    2.9281    8.7190    1.4612 H   0  0  0  0  0  0  0  0  0  0  0  0
    1.9063   10.0745    0.9837 H   0  0  0  0  0  0  0  0  0  0  0  0
    3.1825   10.5272    3.0629 H   0  0  0  0  0  0  0  0  0  0  0  0
    1.4417   10.6608    3.2879 H   0  0  0  0  0  0  0  0  0  0  0  0
    2.6902    9.5026    5.1396 H   0  0  0  0  0  0  0  0  0  0  0  0
    3.0483    8.1773    4.0370 H   0  0  0  0  0  0  0  0  0  0  0  0
    0.1843    9.0795    4.4287 H   0  0  0  0  0  0  0  0  0  0  0  0
    0.9377    8.0783    5.6573 H   0  0  0  0  0  0  0  0  0  0  0  0
    1.2185    6.2244    4.2703 H   0  0  0  0  0  0  0  0  0  0  0  0
   -0.3913    6.8312    3.8563 H   0  0  0  0  0  0  0  0  0  0  0  0
  1  2  1  1  0  0  0
  1  3  1  0  0  0  0
  4  1  1  0  0  0  0
  5  6  1  0  0  0  0
  5  1  1  0  0  0  0
  6 14  2  0  0  0  0
  7 20  1  0  0  0  0
  8  4  1  0  0  0  0
  8 21  1  0  0  0  0
  9  8  2  0  0  0  0
 10 11  2  0  0  0  0
 10  9  1  0  0  0  0
 11 12  1  0  0  0  0
 12 13  2  0  0  0  0
 12  4  1  0  0  0  0
 13  5  1  0  0  0  0
 14  7  1  0  0  0  0
 14  3  1  0  0  0  0
 15 16  1  0  0  0  0
 15 27  1  0  0  0  0
 15  7  1  0  0  0  0
 16 17  1  0  0  0  0
 17 31  1  0  0  0  0
 17 18  1  0  0  0  0
 18 19  1  0  0  0  0
 18 32  1  0  0  0  0
 19 35  1  0  0  0  0
 20 37  1  0  0  0  0
 20 36  1  0  0  0  0
 20 19  1  0  0  0  0
 22  9  1  0  0  0  0
 23 10  1  0  0  0  0
 24 11  1  0  0  0  0
 25 13  1  0  0  0  0
 26 15  1  0  0  0  0
 28 16  1  0  0  0  0
 29 16  1  0  0  0  0
 30 17  1  0  0  0  0
 33 18  1  0  0  0  0
 34 19  1  0  0  0  0
M  END
$$$$
