CSD_code = HOSQAJ | q = 0 | S = 0 | Stoichiometry = C12H10Br2HgN4O | MND = 5
 OpenBabel04212202043D

 30 30  0  0  0  0  0  0  0  0999 V2000
    7.5820    1.9462    1.6169 Hg  0  0  0  0  0  0  0  0  0  0  0  0
    7.1158   -0.4582    1.5403 Br  0  0  0  0  0  0  0  0  0  0  0  0
    8.5119    4.1382    2.0395 Br  0  0  0  0  0  0  0  0  0  0  0  0
    4.1878    2.2137    1.6591 C   0  0  0  0  0  0  0  0  0  0  0  0
    2.7832    2.1027    2.1028 C   0  0  0  0  0  0  0  0  0  0  0  0
    1.6974    2.5564    1.3513 C   0  0  0  0  0  0  0  0  0  0  0  0
    1.8309    3.0541    0.3985 H   0  0  0  0  0  0  0  0  0  0  0  0
    0.2066    1.9002    2.9331 C   0  0  0  0  0  0  0  0  0  0  0  0
   -0.8376    1.8252    3.2047 H   0  0  0  0  0  0  0  0  0  0  0  0
    1.2090    1.4530    3.7841 C   0  0  0  0  0  0  0  0  0  0  0  0
    0.9677    1.0320    4.7469 H   0  0  0  0  0  0  0  0  0  0  0  0
    2.5208    1.5559    3.3601 C   0  0  0  0  0  0  0  0  0  0  0  0
    3.3450    1.2151    3.9686 H   0  0  0  0  0  0  0  0  0  0  0  0
    5.8801    1.9876   -1.4124 C   0  0  0  0  0  0  0  0  0  0  0  0
    5.0929    1.8172   -2.1514 H   0  0  0  0  0  0  0  0  0  0  0  0
    7.2555    2.0055   -1.8775 C   0  0  0  0  0  0  0  0  0  0  0  0
    7.5402    1.9379   -3.2412 C   0  0  0  0  0  0  0  0  0  0  0  0
    6.7364    1.8650   -3.9576 H   0  0  0  0  0  0  0  0  0  0  0  0
    8.8614    1.9705   -3.6527 C   0  0  0  0  0  0  0  0  0  0  0  0
    9.1099    1.9196   -4.7021 H   0  0  0  0  0  0  0  0  0  0  0  0
    9.8538    2.0721   -2.6919 C   0  0  0  0  0  0  0  0  0  0  0  0
   10.8961    2.1061   -2.9647 H   0  0  0  0  0  0  0  0  0  0  0  0
    9.4793    2.1256   -1.3554 C   0  0  0  0  0  0  0  0  0  0  0  0
   10.2257    2.2060   -0.5758 H   0  0  0  0  0  0  0  0  0  0  0  0
    4.3823    2.1284    0.2999 N   0  0  0  0  0  0  0  0  0  0  0  0
    3.6009    1.9216   -0.3233 H   0  0  0  0  0  0  0  0  0  0  0  0
    5.6270    2.1641   -0.1791 N   0  0  0  0  0  0  0  0  0  0  0  0
    0.4482    2.4493    1.7548 N   0  0  0  0  0  0  0  0  0  0  0  0
    8.2219    2.0882   -0.9538 N   0  0  0  0  0  0  0  0  0  0  0  0
    5.1139    2.3606    2.4316 O   0  0  0  0  0  0  0  0  0  0  0  0
  1  3  1  0  0  0  0
  2  1  1  0  0  0  0
  4  5  1  0  0  0  0
  4 30  2  0  0  0  0
  5 12  1  0  0  0  0
  6 28  1  0  0  0  0
  6  5  2  0  0  0  0
  7  6  1  0  0  0  0
  8  9  1  0  0  0  0
  8 10  1  0  0  0  0
 10 11  1  0  0  0  0
 12 10  2  0  0  0  0
 12 13  1  0  0  0  0
 14 27  2  0  0  0  0
 15 14  1  0  0  0  0
 16 14  1  0  0  0  0
 16 29  1  0  0  0  0
 17 16  2  0  0  0  0
 18 17  1  0  0  0  0
 19 17  1  0  0  0  0
 19 21  2  0  0  0  0
 20 19  1  0  0  0  0
 21 23  1  0  0  0  0
 22 21  1  0  0  0  0
 23 29  2  0  0  0  0
 23 24  1  0  0  0  0
 25  4  1  0  0  0  0
 26 25  1  0  0  0  0
 27 25  1  0  0  0  0
 28  8  2  0  0  0  0
M  END
$$$$
