CSD_code = HOSZEW | q = 0 | S = 0 | Stoichiometry = C29H27ClNOPPdS | MND = 4
 OpenBabel04212202043D

 62 67  0  0  1  0  0  0  0  0999 V2000
    4.6648    4.5939   14.1381 Pd  0  0  2  0  0  0  0  0  0  0  0  0
    6.3407    4.3847   15.5693 P   0  0  0  0  0  4  0  0  0  0  0  0
    3.6130    5.7572   15.8162 Cl  0  0  0  0  0  0  0  0  0  0  0  0
    2.4404    5.0345   10.6751 O   0  0  0  0  0  0  0  0  0  0  0  0
    3.4077    5.2396   11.5770 C   0  0  1  0  0  3  0  0  0  0  0  0
    3.1467    4.8833   12.7741 N   0  0  1  0  0  0  0  0  0  0  0  0
    1.8435    4.2385   12.8258 C   0  0  0  0  0  0  0  0  0  0  0  0
    1.3808    4.3516   11.3479 C   0  0  0  0  0  0  0  0  0  0  0  0
    1.2434    3.3776   10.8696 H   0  0  0  0  0  0  0  0  0  0  0  0
    0.4663    4.9400   11.2399 H   0  0  0  0  0  0  0  0  0  0  0  0
    0.9169    4.9807   13.7865 C   0  0  0  0  0  0  0  0  0  0  0  0
   -0.0410    4.4706   13.8513 H   0  0  0  0  0  0  0  0  0  0  0  0
    0.7559    6.0019   13.4464 H   0  0  0  0  0  0  0  0  0  0  0  0
    1.3749    5.0231   14.7738 H   0  0  0  0  0  0  0  0  0  0  0  0
    2.0815    2.7984   13.2953 C   0  0  0  0  0  0  0  0  0  0  0  0
    2.6319    2.8305   14.2513 H   0  0  0  0  0  0  0  0  0  0  0  0
    2.6847    2.2541   12.5668 H   0  0  0  0  0  0  0  0  0  0  0  0
    1.1389    2.2776   13.4450 H   0  0  0  0  0  0  0  0  0  0  0  0
    5.8471    3.5861   12.3921 S   0  0  0  0  0  0  0  0  0  0  0  0
    5.8750    5.1281   11.5609 C   0  0  0  0  0  0  0  0  0  0  0  0
    4.6956    5.7975   11.1684 C   0  0  0  0  0  0  0  0  0  0  0  0
    4.7671    6.9515   10.3988 C   0  0  0  0  0  0  0  0  0  0  0  0
    3.8501    7.4395   10.1029 H   0  0  0  0  0  0  0  0  0  0  0  0
    5.9945    7.4723   10.0334 C   0  0  0  0  0  0  0  0  0  0  0  0
    6.0435    8.3758    9.4452 H   0  0  0  0  0  0  0  0  0  0  0  0
    7.1596    6.8253   10.4227 C   0  0  0  0  0  0  0  0  0  0  0  0
    8.1204    7.2288   10.1382 H   0  0  0  0  0  0  0  0  0  0  0  0
    7.1021    5.6628   11.1640 C   0  0  0  0  0  0  0  0  0  0  0  0
    8.0035    5.1433   11.4556 H   0  0  0  0  0  0  0  0  0  0  0  0
    7.9215    3.6901   14.9972 C   0  0  0  0  0  0  0  0  0  0  0  0
    7.9660    2.3141   14.7879 C   0  0  0  0  0  0  0  0  0  0  0  0
    7.0843    1.7214   14.9988 H   0  0  0  0  0  0  0  0  0  0  0  0
    9.1143    1.7238   14.2997 C   0  0  0  0  0  0  0  0  0  0  0  0
    9.1455    0.6570   14.1352 H   0  0  0  0  0  0  0  0  0  0  0  0
   10.2232    2.5047   14.0097 C   0  0  0  0  0  0  0  0  0  0  0  0
   11.1204    2.0445   13.6225 H   0  0  0  0  0  0  0  0  0  0  0  0
   10.1781    3.8742   14.2056 C   0  0  0  0  0  0  0  0  0  0  0  0
   11.0399    4.4826   13.9718 H   0  0  0  0  0  0  0  0  0  0  0  0
    9.0290    4.4719   14.6952 C   0  0  0  0  0  0  0  0  0  0  0  0
    8.9924    5.5430   14.8413 H   0  0  0  0  0  0  0  0  0  0  0  0
    6.7655    6.0944   16.0140 C   0  0  0  0  0  0  0  0  0  0  0  0
    6.6233    7.0104   14.9691 C   0  0  0  0  0  0  0  0  0  0  0  0
    6.2701    6.6628   13.9886 H   0  0  0  0  0  0  0  0  0  0  0  0
    6.9060    8.3461   15.1773 C   0  0  0  0  0  0  0  0  0  0  0  0
    6.7942    9.0553   14.3703 H   0  0  0  0  0  0  0  0  0  0  0  0
    7.3184    8.7754   16.4305 C   0  0  0  0  0  0  0  0  0  0  0  0
    7.5295    9.8213   16.5977 H   0  0  0  0  0  0  0  0  0  0  0  0
    7.4425    7.8709   17.4711 C   0  0  0  0  0  0  0  0  0  0  0  0
    7.7468    8.2127   18.4496 H   0  0  0  0  0  0  0  0  0  0  0  0
    7.1687    6.5281   17.2682 C   0  0  0  0  0  0  0  0  0  0  0  0
    7.2456    5.8265   18.0861 H   0  0  0  0  0  0  0  0  0  0  0  0
    6.0169    3.4190   17.0652 C   0  0  0  0  0  0  0  0  0  0  0  0
    7.0077    3.1617   18.0083 C   0  0  0  0  0  0  0  0  0  0  0  0
    8.0067    3.5498   17.8602 H   0  0  0  0  0  0  0  0  0  0  0  0
    6.7101    2.3939   19.1190 C   0  0  0  0  0  0  0  0  0  0  0  0
    7.4737    2.1977   19.8577 H   0  0  0  0  0  0  0  0  0  0  0  0
    5.4367    1.8705   19.2831 C   0  0  0  0  0  0  0  0  0  0  0  0
    5.2110    1.2729   20.1539 H   0  0  0  0  0  0  0  0  0  0  0  0
    4.4579    2.1013   18.3298 C   0  0  0  0  0  0  0  0  0  0  0  0
    3.4716    1.6798   18.4546 H   0  0  0  0  0  0  0  0  0  0  0  0
    4.7476    2.8715   17.2183 C   0  0  0  0  0  0  0  0  0  0  0  0
    3.9948    3.0697   16.4557 H   0  0  0  0  0  0  0  0  0  0  0  0
  1  2  1  0  0  0  0
  1  3  1  6  0  0  0
  2 41  1  0  0  0  0
  2 52  1  0  0  0  0
  4  8  1  0  0  0  0
  5  4  1  6  0  0  0
  5  6  1  0  0  0  0
  6  7  1  6  0  0  0
  6  1  1  0  0  0  0
  7 15  1  0  0  0  0
  7 11  1  0  0  0  0
  8  7  1  0  0  0  0
  9  8  1  0  0  0  0
 10  8  1  0  0  0  0
 11 12  1  0  0  0  0
 11 14  1  0  0  0  0
 13 11  1  0  0  0  0
 15 18  1  0  0  0  0
 15 16  1  0  0  0  0
 17 15  1  0  0  0  0
 19  1  1  0  0  0  0
 20 19  1  0  0  0  0
 21 20  1  0  0  0  0
 21  5  1  0  0  0  0
 22 21  2  0  0  0  0
 23 22  1  0  0  0  0
 24 22  1  0  0  0  0
 24 26  2  0  0  0  0
 25 24  1  0  0  0  0
 26 28  1  0  0  0  0
 27 26  1  0  0  0  0
 28 29  1  0  0  0  0
 28 20  2  0  0  0  0
 30  2  1  0  0  0  0
 31 30  1  0  0  0  0
 31 32  1  0  0  0  0
 33 31  2  0  0  0  0
 34 33  1  0  0  0  0
 35 37  2  0  0  0  0
 35 33  1  0  0  0  0
 36 35  1  0  0  0  0
 37 39  1  0  0  0  0
 38 37  1  0  0  0  0
 39 40  1  0  0  0  0
 39 30  2  0  0  0  0
 41 50  1  0  0  0  0
 42 44  1  0  0  0  0
 42 41  2  0  0  0  0
 43 42  1  0  0  0  0
 44 46  2  0  0  0  0
 45 44  1  0  0  0  0
 46 47  1  0  0  0  0
 46 48  1  0  0  0  0
 48 49  1  0  0  0  0
 50 48  2  0  0  0  0
 50 51  1  0  0  0  0
 52 61  2  0  0  0  0
 52 53  1  0  0  0  0
 53 55  2  0  0  0  0
 54 53  1  0  0  0  0
 55 57  1  0  0  0  0
 55 56  1  0  0  0  0
 57 58  1  0  0  0  0
 59 60  1  0  0  0  0
 59 57  2  0  0  0  0
 61 59  1  0  0  0  0
 62 61  1  0  0  0  0
M  END
$$$$
