CSD_code = HOSZAR | q = -1 | S = 0 | Stoichiometry = C10H8Cl2NOZn(1-) | MND = 4
 OpenBabel04212202043D

 23 25  0  0  0  0  0  0  0  0999 V2000
    4.1563    8.6663    3.5860 Zn  0  0  0  0  0  0  0  0  0  0  0  0
    3.5222   10.7190    4.2352 Cl  0  0  0  0  0  0  0  0  0  0  0  0
    2.7704    6.9624    4.0493 Cl  0  0  0  0  0  0  0  0  0  0  0  0
    6.0879    8.2714    3.5809 O   0  0  0  0  0  0  0  0  0  0  0  0
    4.3747    8.7101    1.5208 N   0  0  0  0  0  0  0  0  0  0  0  0
    6.5308    8.2162    2.3798 C   0  0  0  0  0  0  0  0  0  0  0  0
    7.8705    7.9373    2.0813 C   0  0  0  0  0  0  0  0  0  0  0  0
    8.5466    7.7637    2.9052 H   0  0  0  0  0  0  0  0  0  0  0  0
    8.3329    7.8810    0.7735 C   0  0  0  0  0  0  0  0  0  0  0  0
    9.3793    7.6608    0.6021 H   0  0  0  0  0  0  0  0  0  0  0  0
    7.5046    8.0956   -0.3041 C   0  0  0  0  0  3  0  0  0  0  0  0
    7.8781    8.0483   -1.3174 H   0  0  0  0  0  0  0  0  0  0  0  0
    6.1491    8.3805   -0.0803 C   0  0  0  0  0  0  0  0  0  0  0  0
    5.6608    8.4417    1.2511 C   0  0  0  0  0  0  0  0  0  0  0  0
    5.2076    8.6170   -1.1037 C   0  0  0  0  0  0  0  0  0  0  0  0
    5.5328    8.5808   -2.1358 H   0  0  0  0  0  0  0  0  0  0  0  0
    3.9042    8.8873   -0.7888 C   0  0  0  0  0  0  0  0  0  0  0  0
    3.1715    9.0702   -1.5619 H   0  0  0  0  0  0  0  0  0  0  0  0
    3.5046    8.9288    0.5607 C   0  0  0  0  0  0  0  0  0  0  0  0
    2.0979    9.2152    0.9660 C   0  0  0  0  0  0  0  0  0  0  0  0
    2.0800   10.0760    1.6340 H   0  0  0  0  0  0  0  0  0  0  0  0
    1.7032    8.3686    1.5275 H   0  0  0  0  0  0  0  0  0  0  0  0
    1.4657    9.4078    0.1024 H   0  0  0  0  0  0  0  0  0  0  0  0
  1  3  1  0  0  0  0
  1  2  1  0  0  0  0
  4  1  1  0  0  0  0
  5  1  1  0  0  0  0
  6  4  1  0  0  0  0
  7  6  1  0  0  0  0
  7  8  1  0  0  0  0
  9  7  2  0  0  0  0
 10  9  1  0  0  0  0
 11 13  1  0  0  0  0
 11  9  1  0  0  0  0
 12 11  1  0  0  0  0
 13 14  1  0  0  0  0
 14  5  1  0  0  0  0
 14  6  2  0  0  0  0
 15 17  1  0  0  0  0
 15 13  2  0  0  0  0
 16 15  1  0  0  0  0
 17 19  2  0  0  0  0
 18 17  1  0  0  0  0
 19 20  1  0  0  0  0
 19  5  1  0  0  0  0
 20 22  1  0  0  0  0
 20 21  1  0  0  0  0
 23 20  1  0  0  0  0
M  END
$$$$
