CSD_code = HOSZAS | q = 0 | S = 0 | Stoichiometry = C29H27ClNOPPdS | MND = 4
 OpenBabel04212202043D

 62 67  0  0  1  0  0  0  0  0999 V2000
    8.1440    5.8967    7.1945 Pd  0  0  2  0  0  0  0  0  0  0  0  0
    8.9263    4.6520    5.5394 P   0  0  0  0  0  4  0  0  0  0  0  0
    8.0662    7.5874    5.6417 Cl  0  0  0  0  0  0  0  0  0  0  0  0
    6.1744    7.1900   10.6008 O   0  0  0  0  0  0  0  0  0  0  0  0
    6.3877    6.5598    9.4393 C   0  0  1  0  0  3  0  0  0  0  0  0
    7.3176    7.0327    8.7043 N   0  0  1  0  0  0  0  0  0  0  0  0
    7.9864    8.1253    9.3939 C   0  0  0  0  0  0  0  0  0  0  0  0
    7.1762    8.2022   10.7163 C   0  0  0  0  0  0  0  0  0  0  0  0
    7.7830    7.9836   11.5997 H   0  0  0  0  0  0  0  0  0  0  0  0
    6.6803    9.1669   10.8478 H   0  0  0  0  0  0  0  0  0  0  0  0
    7.8923    9.4120    8.5765 C   0  0  0  0  0  0  0  0  0  0  0  0
    8.3243    9.2492    7.5900 H   0  0  0  0  0  0  0  0  0  0  0  0
    8.4265   10.2141    9.0799 H   0  0  0  0  0  0  0  0  0  0  0  0
    6.8521    9.7032    8.4442 H   0  0  0  0  0  0  0  0  0  0  0  0
    9.4476    7.7012    9.5825 C   0  0  0  0  0  0  0  0  0  0  0  0
    9.5106    6.8242   10.2287 H   0  0  0  0  0  0  0  0  0  0  0  0
   10.0345    8.5094   10.0119 H   0  0  0  0  0  0  0  0  0  0  0  0
    9.8634    7.4387    8.5947 H   0  0  0  0  0  0  0  0  0  0  0  0
    8.0469    4.1011    8.6860 S   0  0  0  0  0  0  0  0  0  0  0  0
    6.2986    4.2162    8.6626 C   0  0  0  0  0  0  0  0  0  0  0  0
    5.6104    5.3734    9.0871 C   0  0  0  0  0  0  0  0  0  0  0  0
    4.2242    5.3712    9.1782 C   0  0  0  0  0  0  0  0  0  0  0  0
    3.7222    6.2653    9.5174 H   0  0  0  0  0  0  0  0  0  0  0  0
    3.5029    4.2465    8.8238 C   0  0  0  0  0  0  0  0  0  0  0  0
    2.4255    4.2549    8.8856 H   0  0  0  0  0  0  0  0  0  0  0  0
    4.1711    3.1081    8.3934 C   0  0  0  0  0  0  0  0  0  0  0  0
    3.6103    2.2277    8.1151 H   0  0  0  0  0  0  0  0  0  0  0  0
    5.5492    3.0868    8.3270 C   0  0  0  0  0  0  0  0  0  0  0  0
    6.0779    2.1989    8.0118 H   0  0  0  0  0  0  0  0  0  0  0  0
    9.1285    2.8600    5.7789 C   0  0  0  0  0  0  0  0  0  0  0  0
   10.2013    2.4461    6.5642 C   0  0  0  0  0  0  0  0  0  0  0  0
   10.8746    3.1913    6.9699 H   0  0  0  0  0  0  0  0  0  0  0  0
   10.3866    1.1049    6.8335 C   0  0  0  0  0  0  0  0  0  0  0  0
   11.2177    0.7864    7.4451 H   0  0  0  0  0  0  0  0  0  0  0  0
    9.4973    0.1688    6.3272 C   0  0  0  0  0  0  0  0  0  0  0  0
    9.6385   -0.8803    6.5416 H   0  0  0  0  0  0  0  0  0  0  0  0
    8.4232    0.5783    5.5558 C   0  0  0  0  0  0  0  0  0  0  0  0
    7.7266   -0.1511    5.1679 H   0  0  0  0  0  0  0  0  0  0  0  0
    8.2324    1.9221    5.2822 C   0  0  0  0  0  0  0  0  0  0  0  0
    7.3889    2.2413    4.6850 H   0  0  0  0  0  0  0  0  0  0  0  0
    7.6486    4.7618    4.2524 C   0  0  0  0  0  0  0  0  0  0  0  0
    6.3438    4.8287    4.7463 C   0  0  0  0  0  0  0  0  0  0  0  0
    6.1751    4.8273    5.8320 H   0  0  0  0  0  0  0  0  0  0  0  0
    5.2776    4.9162    3.8730 C   0  0  0  0  0  0  0  0  0  0  0  0
    4.2683    4.9697    4.2544 H   0  0  0  0  0  0  0  0  0  0  0  0
    5.5087    4.9504    2.5054 C   0  0  0  0  0  0  0  0  0  0  0  0
    4.6764    5.0285    1.8215 H   0  0  0  0  0  0  0  0  0  0  0  0
    6.8027    4.9034    2.0159 C   0  0  0  0  0  0  0  0  0  0  0  0
    6.9787    4.9488    0.9511 H   0  0  0  0  0  0  0  0  0  0  0  0
    7.8772    4.8075    2.8851 C   0  0  0  0  0  0  0  0  0  0  0  0
    8.8874    4.7917    2.5030 H   0  0  0  0  0  0  0  0  0  0  0  0
   10.5360    5.1304    4.8649 C   0  0  0  0  0  0  0  0  0  0  0  0
   11.1651    4.4021    3.8595 C   0  0  0  0  0  0  0  0  0  0  0  0
   10.6861    3.5226    3.4502 H   0  0  0  0  0  0  0  0  0  0  0  0
   12.4093    4.7991    3.4053 C   0  0  0  0  0  0  0  0  0  0  0  0
   12.8979    4.2419    2.6192 H   0  0  0  0  0  0  0  0  0  0  0  0
   13.0332    5.9058    3.9608 C   0  0  0  0  0  0  0  0  0  0  0  0
   14.0046    6.2107    3.6004 H   0  0  0  0  0  0  0  0  0  0  0  0
   12.4213    6.6133    4.9830 C   0  0  0  0  0  0  0  0  0  0  0  0
   12.9175    7.4656    5.4229 H   0  0  0  0  0  0  0  0  0  0  0  0
   11.1749    6.2245    5.4389 C   0  0  0  0  0  0  0  0  0  0  0  0
   10.6715    6.7658    6.2400 H   0  0  0  0  0  0  0  0  0  0  0  0
  1  3  1  6  0  0  0
  1 19  1  0  0  0  0
  1  6  1  0  0  0  0
  2 30  1  0  0  0  0
  2  1  1  0  0  0  0
  4  8  1  0  0  0  0
  5 21  1  1  0  0  0
  5  4  1  0  0  0  0
  6  7  1  1  0  0  0
  6  5  1  0  0  0  0
  7 15  1  0  0  0  0
  7  8  1  0  0  0  0
  8 10  1  0  0  0  0
  8  9  1  0  0  0  0
 11 13  1  0  0  0  0
 11  7  1  0  0  0  0
 12 11  1  0  0  0  0
 14 11  1  0  0  0  0
 15 17  1  0  0  0  0
 15 16  1  0  0  0  0
 18 15  1  0  0  0  0
 20 19  1  0  0  0  0
 20 21  1  0  0  0  0
 21 22  2  0  0  0  0
 22 23  1  0  0  0  0
 24 25  1  0  0  0  0
 24 22  1  0  0  0  0
 26 24  2  0  0  0  0
 27 26  1  0  0  0  0
 28 26  1  0  0  0  0
 28 20  2  0  0  0  0
 29 28  1  0  0  0  0
 30 31  1  0  0  0  0
 31 33  2  0  0  0  0
 31 32  1  0  0  0  0
 33 34  1  0  0  0  0
 35 36  1  0  0  0  0
 35 33  1  0  0  0  0
 37 35  2  0  0  0  0
 38 37  1  0  0  0  0
 39 37  1  0  0  0  0
 39 30  2  0  0  0  0
 40 39  1  0  0  0  0
 41 42  1  0  0  0  0
 41  2  1  0  0  0  0
 42 43  1  0  0  0  0
 44 45  1  0  0  0  0
 44 42  2  0  0  0  0
 46 44  1  0  0  0  0
 47 46  1  0  0  0  0
 48 46  2  0  0  0  0
 48 50  1  0  0  0  0
 49 48  1  0  0  0  0
 50 41  2  0  0  0  0
 51 50  1  0  0  0  0
 52 61  1  0  0  0  0
 52  2  1  0  0  0  0
 53 52  2  0  0  0  0
 54 53  1  0  0  0  0
 55 53  1  0  0  0  0
 55 57  2  0  0  0  0
 56 55  1  0  0  0  0
 57 59  1  0  0  0  0
 58 57  1  0  0  0  0
 59 60  1  0  0  0  0
 59 61  2  0  0  0  0
 61 62  1  0  0  0  0
M  END
$$$$
