CSD_code = HOTKUW | q = 0 | S = 0 | Stoichiometry = C9H13Cl2N3Zn | MND = 5
 OpenBabel04212202043D

 28 30  0  0  1  0  0  0  0  0999 V2000
    5.8056    6.5871    0.7410 Zn  0  0  0  0  0  0  0  0  0  0  0  0
    3.5905    6.1878    0.8853 Cl  0  0  0  0  0  0  0  0  0  0  0  0
    7.4333    6.0879    2.1566 Cl  0  0  0  0  0  0  0  0  0  0  0  0
    5.6262    8.7027    1.2285 N   0  0  0  0  0  0  0  0  0  0  0  0
    5.5890    7.6242   -1.1531 N   0  0  2  0  0  0  0  0  0  0  0  0
    6.2400    4.9860   -0.7732 N   0  0  0  0  0  4  0  0  0  0  0  0
    6.9855    4.3681   -0.4683 H   0  0  0  0  0  0  0  0  0  0  0  0
    5.3888    4.4354   -0.8588 H   0  0  0  0  0  0  0  0  0  0  0  0
    5.7652    9.2320    2.4280 C   0  0  0  0  0  3  0  0  0  0  0  0
    6.2447    8.6036    3.1663 H   0  0  0  0  0  0  0  0  0  0  0  0
    5.3285   10.5150    2.7302 C   0  0  0  0  0  0  0  0  0  0  0  0
    5.4530   10.9144    3.7239 H   0  0  0  0  0  0  0  0  0  0  0  0
    4.7290   11.2572    1.7269 C   0  0  0  0  0  0  0  0  0  0  0  0
    4.3724   12.2583    1.9194 H   0  0  0  0  0  0  0  0  0  0  0  0
    4.5898   10.6986    0.4658 C   0  0  0  0  0  0  0  0  0  0  0  0
    4.1330   11.2655   -0.3291 H   0  0  0  0  0  0  0  0  0  0  0  0
    5.0534    9.4035    0.2488 C   0  0  0  0  0  0  0  0  0  0  0  0
    4.9389    8.7079   -1.0484 C   0  0  2  0  0  3  0  0  0  0  0  0
    4.0664    9.3147   -2.1023 C   0  0  0  0  0  0  0  0  0  0  0  0
    4.5195   10.2300   -2.4811 H   0  0  0  0  0  0  0  0  0  0  0  0
    3.0968    9.5597   -1.6749 H   0  0  0  0  0  0  0  0  0  0  0  0
    3.9171    8.6304   -2.9317 H   0  0  0  0  0  0  0  0  0  0  0  0
    5.5681    6.7598   -2.2934 C   0  0  0  0  0  0  0  0  0  0  0  0
    5.8327    7.2913   -3.2142 H   0  0  0  0  0  0  0  0  0  0  0  0
    4.5629    6.3348   -2.4038 H   0  0  0  0  0  0  0  0  0  0  0  0
    6.5661    5.6259   -2.0408 C   0  0  0  0  0  0  0  0  0  0  0  0
    6.5454    4.9260   -2.8873 H   0  0  0  0  0  0  0  0  0  0  0  0
    7.5687    6.0511   -1.9557 H   0  0  0  0  0  0  0  0  0  0  0  0
  1  2  1  0  0  0  0
  1  4  1  0  0  0  0
  1  3  1  0  0  0  0
  4  9  1  0  0  0  0
  5 23  1  6  0  0  0
  5 18  1  0  0  0  0
  5  1  1  0  0  0  0
  6  7  1  0  0  0  0
  6  1  1  0  0  0  0
  8  6  1  0  0  0  0
  9 11  1  0  0  0  0
  9 10  1  0  0  0  0
 11 12  1  0  0  0  0
 13 14  1  0  0  0  0
 13 11  2  0  0  0  0
 15 13  1  0  0  0  0
 16 15  1  0  0  0  0
 17 15  2  0  0  0  0
 17  4  1  0  0  0  0
 18 19  1  1  0  0  0
 18 17  1  0  0  0  0
 19 21  1  0  0  0  0
 20 19  1  0  0  0  0
 22 19  1  0  0  0  0
 23 26  1  0  0  0  0
 24 23  1  0  0  0  0
 25 23  1  0  0  0  0
 26 28  1  0  0  0  0
 26  6  1  0  0  0  0
 27 26  1  0  0  0  0
M  END
$$$$
