CSD_code = HOTSEP | q = 0 | S = 0 | Stoichiometry = C17H15CdCl2N5 | MND = 5
 OpenBabel04212202043D

 40 45  0  0  1  0  0  0  0  0999 V2000
    7.0744    7.0399    2.2859 Cd  0  0  0  0  0  0  0  0  0  0  0  0
    9.2718    6.3771    1.6777 Cl  0  0  0  0  0  0  0  0  0  0  0  0
    6.4483    9.2358    1.7968 Cl  0  0  0  0  0  0  0  0  0  0  0  0
    6.8948    4.2524    4.6690 C   0  0  0  0  0  0  0  0  0  0  0  0
    5.8350    4.4730    4.8194 H   0  0  0  0  0  0  0  0  0  0  0  0
    7.1901    3.4069    5.2911 H   0  0  0  0  0  0  0  0  0  0  0  0
    8.7513    5.4352    5.8764 N   0  0  0  0  0  0  0  0  0  0  0  0
    9.1184    4.6245    6.3468 H   0  0  0  0  0  0  0  0  0  0  0  0
    7.6961    5.4637    5.0218 C   0  0  1  0  0  3  0  0  0  0  0  0
    7.4882    6.6575    4.5301 N   0  0  0  0  0  0  0  0  0  0  0  0
    8.7153    8.8264    4.8630 C   0  0  0  0  0  0  0  0  0  0  0  0
    8.0987    9.4122    4.1950 H   0  0  0  0  0  0  0  0  0  0  0  0
    9.7843    9.3721    5.5432 C   0  0  0  0  0  0  0  0  0  0  0  0
   10.0184   10.4172    5.4095 H   0  0  0  0  0  0  0  0  0  0  0  0
   10.5805    8.6086    6.4005 C   0  0  0  0  0  0  0  0  0  0  0  0
   11.4072    9.0822    6.9082 H   0  0  0  0  0  0  0  0  0  0  0  0
   10.3428    7.2646    6.6098 C   0  0  0  0  0  0  0  0  0  0  0  0
   10.9641    6.6747    7.2662 H   0  0  0  0  0  0  0  0  0  0  0  0
    9.2738    6.7079    5.9268 C   0  0  0  0  0  0  0  0  0  0  0  0
    8.4623    7.4733    5.0642 C   0  0  0  0  0  0  0  0  0  0  0  0
    7.0082    4.2180    1.1041 N   0  0  2  0  0  0  0  0  0  0  0  0
    6.5364    4.6584    2.2815 N   0  0  0  0  0  0  0  0  0  0  0  0
    7.1294    3.9483    3.2220 C   0  0  0  0  0  0  0  0  0  0  0  0
    8.0111    3.0231    2.6439 C   0  0  0  0  0  0  0  0  0  0  0  0
    8.6423    2.3192    3.1470 H   0  0  0  0  0  0  0  0  0  0  0  0
    7.9252    3.2268    1.2847 C   0  0  2  0  0  3  0  0  0  0  0  0
    8.7199    2.5823    0.2116 C   0  0  0  0  0  0  0  0  0  0  0  0
    8.1391    1.8346   -0.3292 H   0  0  0  0  0  0  0  0  0  0  0  0
    9.5745    2.0848    0.6624 H   0  0  0  0  0  0  0  0  0  0  0  0
    9.0842    3.3314   -0.4887 H   0  0  0  0  0  0  0  0  0  0  0  0
    6.2966    6.1842    0.1527 N   0  0  0  0  0  0  0  0  0  0  0  0
    6.6505    4.9175   -0.0517 C   0  0  2  0  0  3  0  0  0  0  0  0
    6.6408    4.3412   -1.3197 C   0  0  0  0  0  0  0  0  0  0  0  0
    6.8707    3.3002   -1.4645 H   0  0  0  0  0  0  0  0  0  0  0  0
    6.2993    5.1416   -2.3972 C   0  0  0  0  0  0  0  0  0  0  0  0
    6.2898    4.7256   -3.3937 H   0  0  0  0  0  0  0  0  0  0  0  0
    5.9669    6.4699   -2.1821 C   0  0  0  0  0  0  0  0  0  0  0  0
    5.7066    7.1199   -3.0014 H   0  0  0  0  0  0  0  0  0  0  0  0
    5.9671    6.9435   -0.8789 C   0  0  0  0  0  0  0  0  0  0  0  0
    5.7025    7.9661   -0.6391 H   0  0  0  0  0  0  0  0  0  0  0  0
  1 10  1  0  0  0  0
  2  1  1  0  0  0  0
  3  1  1  0  0  0  0
  4  5  1  0  0  0  0
  4  9  1  0  0  0  0
  4  6  1  0  0  0  0
  7 19  1  0  0  0  0
  7  8  1  0  0  0  0
  9 10  1  6  0  0  0
  9  7  1  0  0  0  0
 10 20  1  0  0  0  0
 11 20  2  0  0  0  0
 11 13  1  0  0  0  0
 12 11  1  0  0  0  0
 13 15  2  0  0  0  0
 14 13  1  0  0  0  0
 15 17  1  0  0  0  0
 15 16  1  0  0  0  0
 17 18  1  0  0  0  0
 19 17  2  0  0  0  0
 20 19  1  0  0  0  0
 21 26  1  0  0  0  0
 21 22  1  1  0  0  0
 22  1  1  0  0  0  0
 22 23  1  0  0  0  0
 23  4  1  0  0  0  0
 24 25  1  0  0  0  0
 24 23  2  0  0  0  0
 26 27  1  1  0  0  0
 26 24  1  0  0  0  0
 27 29  1  0  0  0  0
 28 27  1  0  0  0  0
 30 27  1  0  0  0  0
 31  1  1  0  0  0  0
 32 33  1  1  0  0  0
 32 31  1  0  0  0  0
 32 21  1  0  0  0  0
 34 33  1  0  0  0  0
 35 37  1  0  0  0  0
 35 33  2  0  0  0  0
 36 35  1  0  0  0  0
 37 39  2  0  0  0  0
 38 37  1  0  0  0  0
 39 40  1  0  0  0  0
 39 31  1  0  0  0  0
M  END
$$$$
