CSD_code = HOTWAP | q = 0 | S = 0 | Stoichiometry = C6H12CuIN4S2 | MND = 3
 OpenBabel04212202043D

 26 27  0  0  0  0  0  0  0  0999 V2000
    0.9486    3.6672    5.9444 Cu  0  0  0  0  0  0  0  0  0  0  0  0
    1.3509    3.6679    3.4535 I   0  0  0  0  0  0  0  0  0  0  0  0
    0.7468    5.5798    7.2553 S   0  0  0  0  0  0  0  0  0  0  0  0
    0.6744    6.8465    6.1775 C   0  0  0  0  0  3  0  0  0  0  0  0
    0.7245    8.1373    6.5682 N   0  0  0  0  0  0  0  0  0  0  0  0
    0.6112    8.4027    7.5304 H   0  0  0  0  0  0  0  0  0  0  0  0
    0.4954    9.0449    5.4633 C   0  0  0  0  0  0  0  0  0  0  0  0
    1.2466    9.8379    5.4528 H   0  0  0  0  0  0  0  0  0  0  0  0
   -0.4985    9.5032    5.5297 H   0  0  0  0  0  0  0  0  0  0  0  0
    0.6103    8.1076    4.2459 C   0  0  0  0  0  0  0  0  0  0  0  0
   -0.2076    8.2380    3.5343 H   0  0  0  0  0  0  0  0  0  0  0  0
    1.5594    8.2421    3.7157 H   0  0  0  0  0  0  0  0  0  0  0  0
    0.5478    6.7930    4.8490 N   0  0  0  0  0  0  0  0  0  0  0  0
    0.7074    5.9440    4.3131 H   0  0  0  0  0  0  0  0  0  0  0  0
    0.7467    1.7546    7.2553 S   0  0  0  0  0  0  0  0  0  0  0  0
    0.6744    0.4879    6.1775 C   0  0  0  0  0  3  0  0  0  0  0  0
    0.7245   -0.8029    6.5682 N   0  0  0  0  0  0  0  0  0  0  0  0
    0.6112   -1.0682    7.5304 H   0  0  0  0  0  0  0  0  0  0  0  0
    0.4954   -1.7104    5.4634 C   0  0  0  0  0  0  0  0  0  0  0  0
    1.2466   -2.5034    5.4528 H   0  0  0  0  0  0  0  0  0  0  0  0
   -0.4985   -2.1688    5.5297 H   0  0  0  0  0  0  0  0  0  0  0  0
    0.6103   -0.7732    4.2459 C   0  0  0  0  0  0  0  0  0  0  0  0
   -0.2076   -0.9036    3.5344 H   0  0  0  0  0  0  0  0  0  0  0  0
    1.5594   -0.9076    3.7157 H   0  0  0  0  0  0  0  0  0  0  0  0
    0.5477    0.5414    4.8490 N   0  0  0  0  0  0  0  0  0  0  0  0
    0.7074    1.3905    4.3131 H   0  0  0  0  0  0  0  0  0  0  0  0
  1  3  1  0  0  0  0
  1 15  1  0  0  0  0
  2  1  1  0  0  0  0
  4  5  1  0  0  0  0
  4  3  1  0  0  0  0
  5  6  1  0  0  0  0
  7  9  1  0  0  0  0
  7  5  1  0  0  0  0
  8  7  1  0  0  0  0
 10 13  1  0  0  0  0
 10  7  1  0  0  0  0
 11 10  1  0  0  0  0
 12 10  1  0  0  0  0
 13  4  1  0  0  0  0
 14 13  1  0  0  0  0
 16 17  1  0  0  0  0
 16 15  1  0  0  0  0
 17 18  1  0  0  0  0
 19 21  1  0  0  0  0
 19 17  1  0  0  0  0
 20 19  1  0  0  0  0
 22 25  1  0  0  0  0
 22 19  1  0  0  0  0
 23 22  1  0  0  0  0
 24 22  1  0  0  0  0
 25 16  1  0  0  0  0
 26 25  1  0  0  0  0
M  END
$$$$
