CSD_code = HOTXOD | q = 0 | S = 0 | Stoichiometry = C20H16Cl2N8Ru | MND = 6
 OpenBabel04212202043D

 47 52  0  0  0  0  0  0  0  0999 V2000
    6.7679    1.3932   18.7665 Ru  0  0  0  0  0  0  0  0  0  0  0  0
    7.6787    0.0338   20.4468 Cl  0  0  0  0  0  0  0  0  0  0  0  0
    6.0215    2.2232   16.7042 Cl  0  0  0  0  0  0  0  0  0  0  0  0
    8.6026    0.9995   17.8147 N   0  0  0  0  0  0  0  0  0  0  0  0
    9.5397    1.7639   18.4474 C   0  0  0  0  0  0  0  0  0  0  0  0
    9.0938    2.8287   19.1328 N   0  0  0  0  0  0  0  0  0  0  0  0
   10.8521    1.5795   18.3346 N   0  0  0  0  0  0  0  0  0  0  0  0
   11.2636    0.6331   17.5235 C   0  0  0  0  0  0  0  0  0  0  0  0
   12.3351    0.4937   17.4691 H   0  0  0  0  0  0  0  0  0  0  0  0
   10.3857   -0.1392   16.7652 C   0  0  0  0  0  0  0  0  0  0  0  0
   10.7326   -0.8845   16.0703 H   0  0  0  0  0  0  0  0  0  0  0  0
    9.0334    0.0845   16.9650 C   0  0  0  0  0  0  0  0  0  0  0  0
    8.2797   -0.4771   16.4254 H   0  0  0  0  0  0  0  0  0  0  0  0
    7.8100    2.9152   19.2228 N   0  0  0  0  0  0  0  0  0  0  0  0
    7.3732    4.1569   19.6856 C   0  0  0  0  0  0  0  0  0  0  0  0
    8.1304    4.8650   20.6223 C   0  0  0  0  0  0  0  0  0  0  0  0
    9.0491    4.4264   20.9792 H   0  0  0  0  0  0  0  0  0  0  0  0
    7.6806    6.0842   21.0851 C   0  0  0  0  0  0  0  0  0  0  0  0
    8.2573    6.6225   21.8218 H   0  0  0  0  0  0  0  0  0  0  0  0
    6.4948    6.6189   20.6045 C   0  0  0  0  0  0  0  0  0  0  0  0
    6.1457    7.5728   20.9699 H   0  0  0  0  0  0  0  0  0  0  0  0
    5.7639    5.9362   19.6447 C   0  0  0  0  0  0  0  0  0  0  0  0
    4.8553    6.3649   19.2507 H   0  0  0  0  0  0  0  0  0  0  0  0
    6.1910    4.7059   19.1853 C   0  0  0  0  0  0  0  0  0  0  0  0
    5.6437    4.1853   18.4111 H   0  0  0  0  0  0  0  0  0  0  0  0
    5.5679   -0.2536   18.2449 N   0  0  0  0  0  0  0  0  0  0  0  0
    4.2733    0.1297   18.4443 C   0  0  0  0  0  0  0  0  0  0  0  0
    4.0669    1.1645   19.2744 N   0  0  0  0  0  0  0  0  0  0  0  0
    3.2200   -0.5208   17.9579 N   0  0  0  0  0  0  0  0  0  0  0  0
    3.4469   -1.6267   17.2882 C   0  0  0  0  0  0  0  0  0  0  0  0
    2.5721   -2.1216   16.8879 H   0  0  0  0  0  0  0  0  0  0  0  0
    4.7276   -2.1467   17.1102 C   0  0  0  0  0  0  0  0  0  0  0  0
    4.9019   -3.0764   16.5965 H   0  0  0  0  0  0  0  0  0  0  0  0
    5.7766   -1.3938   17.6114 C   0  0  0  0  0  0  0  0  0  0  0  0
    6.8062   -1.7168   17.5096 H   0  0  0  0  0  0  0  0  0  0  0  0
    5.1394    1.7590   19.6744 N   0  0  0  0  0  0  0  0  0  0  0  0
    4.9202    2.6337   20.7390 C   0  0  0  0  0  0  0  0  0  0  0  0
    3.7223    3.3469   20.8294 C   0  0  0  0  0  0  0  0  0  0  0  0
    2.9811    3.2085   20.0580 H   0  0  0  0  0  0  0  0  0  0  0  0
    3.5245    4.2224   21.8770 C   0  0  0  0  0  0  0  0  0  0  0  0
    2.6061    4.7864   21.9367 H   0  0  0  0  0  0  0  0  0  0  0  0
    4.4988    4.3761   22.8518 C   0  0  0  0  0  0  0  0  0  0  0  0
    4.3409    5.0633   23.6692 H   0  0  0  0  0  0  0  0  0  0  0  0
    5.6700    3.6376   22.7855 C   0  0  0  0  0  0  0  0  0  0  0  0
    6.4164    3.7367   23.5585 H   0  0  0  0  0  0  0  0  0  0  0  0
    5.8910    2.7711   21.7331 C   0  0  0  0  0  0  0  0  0  0  0  0
    6.7869    2.1663   21.6949 H   0  0  0  0  0  0  0  0  0  0  0  0
  1 14  1  0  0  0  0
  1 36  1  0  0  0  0
  1  2  1  0  0  0  0
  3  1  1  0  0  0  0
  4  5  1  0  0  0  0
  4  1  1  0  0  0  0
  5  6  2  0  0  0  0
  6 14  1  0  0  0  0
  7  5  1  0  0  0  0
  8  7  2  0  0  0  0
  9  8  1  0  0  0  0
 10 12  2  0  0  0  0
 10  8  1  0  0  0  0
 11 10  1  0  0  0  0
 12  4  1  0  0  0  0
 13 12  1  0  0  0  0
 14 15  1  0  0  0  0
 15 16  1  0  0  0  0
 16 17  1  0  0  0  0
 16 18  2  0  0  0  0
 18 19  1  0  0  0  0
 20 21  1  0  0  0  0
 20 18  1  0  0  0  0
 22 20  2  0  0  0  0
 23 22  1  0  0  0  0
 24 22  1  0  0  0  0
 24 15  2  0  0  0  0
 25 24  1  0  0  0  0
 26 27  1  0  0  0  0
 26  1  1  0  0  0  0
 27 28  2  0  0  0  0
 28 36  1  0  0  0  0
 29 27  1  0  0  0  0
 30 29  2  0  0  0  0
 31 30  1  0  0  0  0
 32 30  1  0  0  0  0
 32 34  2  0  0  0  0
 33 32  1  0  0  0  0
 34 26  1  0  0  0  0
 35 34  1  0  0  0  0
 36 37  1  0  0  0  0
 37 38  2  0  0  0  0
 37 46  1  0  0  0  0
 38 40  1  0  0  0  0
 39 38  1  0  0  0  0
 40 41  1  0  0  0  0
 40 42  2  0  0  0  0
 42 43  1  0  0  0  0
 44 42  1  0  0  0  0
 44 45  1  0  0  0  0
 46 44  2  0  0  0  0
 47 46  1  0  0  0  0
M  END
$$$$
