CSD_code = HOVCIG | q = 1 | S = 0 | Stoichiometry = C24H26ClFN3RuS(1+) | MND = 9
 OpenBabel04212202043D

 57 58  0  0  1  0  0  0  0  0999 V2000
    8.4393    1.8298    8.3336 Ru  0  0  0  0  0  0  0  0  0  0  0  0
   10.2074    1.0063    9.6078 Cl  0  0  0  0  0 15  0  0  0  0  0  0
    9.2586    3.9590    8.8936 S   0  0  0  0  0  0  0  0  0  0  0  0
    5.2206   -3.7341    8.4623 F   0  0  0  0  0  0  0  0  0  0  0  0
    7.4912    1.9913   10.0799 N   0  0  0  0  0  0  0  0  0  0  0  0
    7.8649    3.0334   10.8892 N   0  0  0  0  0  0  0  0  0  0  0  0
    7.5076    3.0232   11.8444 H   0  0  0  0  0  0  0  0  0  0  0  0
    9.0784    4.9185   11.4013 N   0  0  0  0  0  0  0  0  0  0  0  0
    8.7904    4.7463   12.3593 H   0  0  0  0  0  0  0  0  0  0  0  0
    5.5372   -2.5311    8.9532 C   0  0  0  0  0  0  0  0  0  0  0  0
    6.8744   -2.1801    9.0649 C   0  0  0  0  0  0  0  0  0  0  0  0
    7.6363   -2.8926    8.7911 H   0  0  0  0  0  0  0  0  0  0  0  0
    7.2007   -0.9286    9.5487 C   0  0  0  0  0  0  0  0  0  0  0  0
    8.2405   -0.6562    9.6900 H   0  0  0  0  0  0  0  0  0  0  0  0
    6.1914   -0.0402    9.9409 C   0  0  0  0  0  0  0  0  0  0  0  0
    6.5442    1.2366   10.5321 C   0  0  0  0  0  3  0  0  0  0  0  0
    6.0076    1.5311   11.4332 H   0  0  0  0  0  0  0  0  0  0  0  0
    4.8532   -0.4352    9.8552 C   0  0  0  0  0  0  0  0  0  0  0  0
    4.0744    0.2396   10.1765 H   0  0  0  0  0  0  0  0  0  0  0  0
    4.5199   -1.6731    9.3438 C   0  0  0  0  0  0  0  0  0  0  0  0
    3.4925   -1.9890    9.2583 H   0  0  0  0  0  0  0  0  0  0  0  0
    8.7336    4.0014   10.4948 C   0  0  0  0  0  0  0  0  0  0  0  0
    9.9643    6.0121   11.2872 C   0  0  0  0  0  0  0  0  0  0  0  0
   10.2125    6.6691   10.0893 C   0  0  0  0  0  0  0  0  0  0  0  0
    9.7170    6.3644    9.1834 H   0  0  0  0  0  0  0  0  0  0  0  0
   11.0901    7.7397   10.0688 C   0  0  0  0  0  0  0  0  0  0  0  0
   11.2819    8.2463    9.1361 H   0  0  0  0  0  0  0  0  0  0  0  0
   11.7117    8.1650   11.2300 C   0  0  0  0  0  0  0  0  0  0  0  0
   12.3951    8.9987   11.2045 H   0  0  0  0  0  0  0  0  0  0  0  0
   11.4456    7.5218   12.4287 C   0  0  0  0  0  0  0  0  0  0  0  0
   11.9185    7.8524   13.3398 H   0  0  0  0  0  0  0  0  0  0  0  0
   10.5720    6.4525   12.4611 C   0  0  0  0  0  0  0  0  0  0  0  0
   10.3665    5.9503   13.3956 H   0  0  0  0  0  0  0  0  0  0  0  0
   10.7007    0.1751    6.1488 C   0  0  0  0  0  0  0  0  0  0  0  0
   11.0942   -0.1609    7.1092 H   0  0  0  0  0  0  0  0  0  0  0  0
   11.3932    0.9030    5.7348 H   0  0  0  0  0  0  0  0  0  0  0  0
   10.6528   -0.6902    5.4905 H   0  0  0  0  0  0  0  0  0  0  0  0
    9.3400    0.7642    6.3340 C   0  0  0  0  0  0  0  0  0  0  0  0
    8.2312   -0.0821    6.6165 C   0  0  0  0  0  0  0  0  0  0  0  0
    8.3863   -1.1528    6.6541 H   0  0  0  0  0  0  0  0  0  0  0  0
    6.9552    0.4412    6.7737 C   0  0  0  0  0  0  0  0  0  0  0  0
    6.1127   -0.2238    6.9199 H   0  0  0  0  0  0  0  0  0  0  0  0
    6.7218    1.8396    6.6936 C   0  0  1  0  0  3  0  0  0  0  0  0
    7.7969    2.6660    6.3170 C   0  0  2  0  0  0  0  0  0  0  0  0
    7.6258    3.7123    6.0907 H   0  0  0  0  0  0  0  0  0  0  0  0
    9.0935    2.1296    6.1327 C   0  0  0  0  0  0  0  0  0  0  0  0
    9.8912    2.7752    5.7783 H   0  0  0  0  0  0  0  0  0  0  0  0
    5.3186    2.3797    6.8316 C   0  0  0  0  0  0  0  0  0  0  0  0
    4.7230    1.6332    7.3701 H   0  0  0  0  0  0  0  0  0  0  0  0
    5.2871    3.6870    7.6258 C   0  0  0  0  0  0  0  0  0  0  0  0
    5.6863    4.5127    7.0430 H   0  0  0  0  0  0  0  0  0  0  0  0
    5.8742    3.5919    8.5418 H   0  0  0  0  0  0  0  0  0  0  0  0
    4.2635    3.9328    7.8943 H   0  0  0  0  0  0  0  0  0  0  0  0
    4.7082    2.5726    5.4392 C   0  0  0  0  0  0  0  0  0  0  0  0
    4.6994    1.6340    4.8905 H   0  0  0  0  0  0  0  0  0  0  0  0
    5.2779    3.3011    4.8674 H   0  0  0  0  0  0  0  0  0  0  0  0
    3.6859    2.9286    5.5300 H   0  0  0  0  0  0  0  0  0  0  0  0
  1  5  1  0  0  0  0
  3 22  2  0  0  0  0
  4 10  1  0  0  0  0
  5 16  1  0  0  0  0
  5  6  1  0  0  0  0
  6  7  1  0  0  0  0
  8  9  1  0  0  0  0
 10 11  2  0  0  0  0
 10 20  1  0  0  0  0
 11 13  1  0  0  0  0
 12 11  1  0  0  0  0
 13 14  1  0  0  0  0
 13 15  2  0  0  0  0
 15 16  1  0  0  0  0
 16 17  1  0  0  0  0
 18 15  1  0  0  0  0
 18 19  1  0  0  0  0
 20 18  2  0  0  0  0
 21 20  1  0  0  0  0
 22  6  1  0  0  0  0
 22  8  1  0  0  0  0
 23  8  1  0  0  0  0
 23 32  1  0  0  0  0
 24 23  2  0  0  0  0
 25 24  1  0  0  0  0
 26 24  1  0  0  0  0
 26 28  2  0  0  0  0
 27 26  1  0  0  0  0
 28 30  1  0  0  0  0
 29 28  1  0  0  0  0
 30 32  2  0  0  0  0
 30 31  1  0  0  0  0
 32 33  1  0  0  0  0
 34 38  1  0  0  0  0
 34 35  1  0  0  0  0
 36 34  1  0  0  0  0
 37 34  1  0  0  0  0
 38 39  1  0  0  0  0
 39 40  1  0  0  0  0
 39 41  2  0  0  0  0
 41 42  1  0  0  0  0
 43 41  1  0  0  0  0
 43 48  1  6  0  0  0
 44 45  1  6  0  0  0
 44 43  1  0  0  0  0
 44  1  1  0  0  0  0
 46 44  1  0  0  0  0
 46 38  2  0  0  0  0
 47 46  1  0  0  0  0
 48 49  1  0  0  0  0
 48 50  1  0  0  0  0
 50 53  1  0  0  0  0
 50 52  1  0  0  0  0
 51 50  1  0  0  0  0
 54 57  1  0  0  0  0
 54 48  1  0  0  0  0
 55 54  1  0  0  0  0
 56 54  1  0  0  0  0
M  END
$$$$
