CSD_code = HOVMUB | q = 0 | S = 0 | Stoichiometry = C19H24I2N2PdS | MND = 4
 OpenBabel04212202043D

 49 51  0  0  0  0  0  0  0  0999 V2000
    3.0651    1.9367   10.4401 Pd  0  0  0  0  0  0  0  0  0  0  0  0
    6.0991    2.0117    9.3650 S   0  0  0  0  0  0  0  0  0  0  0  0
    2.1594    1.7058    8.0058 I   0  0  0  0  0  0  0  0  0  0  0  0
    3.8752    2.3522   12.8836 I   0  0  0  0  0  0  0  0  0  0  0  0
    4.7452    4.1487    9.5551 N   0  0  0  0  0  0  0  0  0  0  0  0
    1.4911    0.9071   11.1309 N   0  0  0  0  0  0  0  0  0  0  0  0
    4.6446    2.8387    9.7652 C   0  0  0  0  0  0  0  0  0  0  0  0
    5.9692    4.5797    9.0677 C   0  0  0  0  0  0  0  0  0  0  0  0
    6.3980    5.8641    8.7457 C   0  0  0  0  0  0  0  0  0  0  0  0
    5.7540    6.7192    8.8585 H   0  0  0  0  0  0  0  0  0  0  0  0
    7.6822    6.0405    8.2701 C   0  0  0  0  0  0  0  0  0  0  0  0
    8.0149    7.0362    8.0200 H   0  0  0  0  0  0  0  0  0  0  0  0
    8.5524    4.9680    8.1068 C   0  0  0  0  0  0  0  0  0  0  0  0
    9.5496    5.1380    7.7329 H   0  0  0  0  0  0  0  0  0  0  0  0
    8.1468    3.6868    8.4209 C   0  0  0  0  0  0  0  0  0  0  0  0
    8.8036    2.8400    8.3030 H   0  0  0  0  0  0  0  0  0  0  0  0
    6.8596    3.5101    8.8975 C   0  0  0  0  0  0  0  0  0  0  0  0
    3.5891    5.0079    9.8448 C   0  0  0  0  0  0  0  0  0  0  0  0
    2.7901    4.3182   10.2143 H   0  0  0  0  0  0  0  0  0  0  0  0
    3.9052    5.9879   10.9708 C   0  0  0  0  0  0  0  0  0  0  0  0
    4.2530    5.4477   11.8496 H   0  0  0  0  0  0  0  0  0  0  0  0
    3.0004    6.5270   11.2388 H   0  0  0  0  0  0  0  0  0  0  0  0
    4.6644    6.7095   10.6856 H   0  0  0  0  0  0  0  0  0  0  0  0
    3.0691    5.6713    8.5728 C   0  0  0  0  0  0  0  0  0  0  0  0
    3.7738    6.3906    8.1673 H   0  0  0  0  0  0  0  0  0  0  0  0
    2.1392    6.1881    8.7948 H   0  0  0  0  0  0  0  0  0  0  0  0
    2.8670    4.9175    7.8141 H   0  0  0  0  0  0  0  0  0  0  0  0
    0.2998    1.3817   11.4709 C   0  0  0  0  0  3  0  0  0  0  0  0
    0.1545    2.4542   11.3649 H   0  0  0  0  0  0  0  0  0  0  0  0
   -0.7109    0.5646   11.9355 C   0  0  0  0  0  0  0  0  0  0  0  0
   -1.6569    1.0109   12.1952 H   0  0  0  0  0  0  0  0  0  0  0  0
   -0.5016   -0.8088   12.0620 C   0  0  0  0  0  0  0  0  0  0  0  0
    0.7576   -1.2811   11.6982 C   0  0  0  0  0  0  0  0  0  0  0  0
    1.0092   -2.3259   11.7629 H   0  0  0  0  0  0  0  0  0  0  0  0
    1.7166   -0.3975   11.2417 C   0  0  0  0  0  0  0  0  0  0  0  0
    2.7140   -0.7469   10.9504 H   0  0  0  0  0  0  0  0  0  0  0  0
   -1.6128   -1.7049   12.5698 C   0  0  0  0  0  0  0  0  0  0  0  0
   -2.8093   -1.5918   11.6141 C   0  0  0  0  0  0  0  0  0  0  0  0
   -3.1885   -0.5747   11.5675 H   0  0  0  0  0  0  0  0  0  0  0  0
   -3.6145   -2.2394   11.9525 H   0  0  0  0  0  0  0  0  0  0  0  0
   -2.5218   -1.8958   10.6097 H   0  0  0  0  0  0  0  0  0  0  0  0
   -2.0185   -1.2395   13.9758 C   0  0  0  0  0  0  0  0  0  0  0  0
   -1.1654   -1.2818   14.6498 H   0  0  0  0  0  0  0  0  0  0  0  0
   -2.7990   -1.8872   14.3677 H   0  0  0  0  0  0  0  0  0  0  0  0
   -2.3964   -0.2209   13.9664 H   0  0  0  0  0  0  0  0  0  0  0  0
   -1.1894   -3.1736   12.6476 C   0  0  0  0  0  0  0  0  0  0  0  0
   -0.9172   -3.5568   11.6667 H   0  0  0  0  0  0  0  0  0  0  0  0
   -2.0205   -3.7686   13.0191 H   0  0  0  0  0  0  0  0  0  0  0  0
   -0.3529   -3.3056   13.3302 H   0  0  0  0  0  0  0  0  0  0  0  0
  1  6  1  0  0  0  0
  1  4  1  0  0  0  0
  2  7  1  0  0  0  0
  3  1  1  0  0  0  0
  5  7  1  0  0  0  0
  5 18  1  0  0  0  0
  6 35  1  0  0  0  0
  6 28  1  0  0  0  0
  7  1  2  0  0  0  0
  8  5  1  0  0  0  0
  9 10  1  0  0  0  0
  9  8  2  0  0  0  0
 11  9  1  0  0  0  0
 12 11  1  0  0  0  0
 13 11  2  0  0  0  0
 13 15  1  0  0  0  0
 14 13  1  0  0  0  0
 15 17  2  0  0  0  0
 16 15  1  0  0  0  0
 17  8  1  0  0  0  0
 17  2  1  0  0  0  0
 18 19  1  0  0  0  0
 18 20  1  0  0  0  0
 20 22  1  0  0  0  0
 20 21  1  0  0  0  0
 23 20  1  0  0  0  0
 24 26  1  0  0  0  0
 24 18  1  0  0  0  0
 25 24  1  0  0  0  0
 27 24  1  0  0  0  0
 28 30  1  0  0  0  0
 29 28  1  0  0  0  0
 30 32  2  0  0  0  0
 30 31  1  0  0  0  0
 32 37  1  0  0  0  0
 33 34  1  0  0  0  0
 33 32  1  0  0  0  0
 35 33  2  0  0  0  0
 36 35  1  0  0  0  0
 37 46  1  0  0  0  0
 37 42  1  0  0  0  0
 38 40  1  0  0  0  0
 38 37  1  0  0  0  0
 39 38  1  0  0  0  0
 41 38  1  0  0  0  0
 42 44  1  0  0  0  0
 42 43  1  0  0  0  0
 45 42  1  0  0  0  0
 46 48  1  0  0  0  0
 46 49  1  0  0  0  0
 47 46  1  0  0  0  0
M  END
$$$$
