CSD_code = HOVMOV | q = 0 | S = 0 | Stoichiometry = C15H15I3N2PdS | MND = 4
 OpenBabel04212202043D

 37 39  0  0  0  0  0  0  0  0999 V2000
    1.4960    9.6773    6.0361 Pd  0  0  0  0  0  0  0  0  0  0  0  0
    2.0758   11.9506    7.1698 I   0  0  0  0  0  0  0  0  0  0  0  0
    0.8473    7.3514    5.0560 I   0  0  0  0  0  0  0  0  0  0  0  0
    5.8270    7.1598    9.3285 I   0  0  0  0  0  0  0  0  0  0  0  0
   -0.6946   11.1169    4.1744 S   0  0  0  0  0  0  0  0  0  0  0  0
   -1.3299   10.2338    6.4667 N   0  0  0  0  0  0  0  0  0  0  0  0
    3.3706    9.0378    6.3420 N   0  0  0  0  0  0  0  0  0  0  0  0
   -0.2875   10.3310    5.6476 C   0  0  0  0  0  0  0  0  0  0  0  0
   -2.5136   10.7707    5.9836 C   0  0  0  0  0  0  0  0  0  0  0  0
   -3.7712   10.8326    6.5768 C   0  0  0  0  0  0  0  0  0  0  0  0
   -3.9527   10.4311    7.5588 H   0  0  0  0  0  0  0  0  0  0  0  0
   -4.8083   11.4246    5.8837 C   0  0  0  0  0  0  0  0  0  0  0  0
   -5.7837   11.4723    6.3425 H   0  0  0  0  0  0  0  0  0  0  0  0
   -4.6241   11.9584    4.6125 C   0  0  0  0  0  0  0  0  0  0  0  0
   -5.4542   12.4142    4.0965 H   0  0  0  0  0  0  0  0  0  0  0  0
   -3.3849   11.9080    4.0074 C   0  0  0  0  0  0  0  0  0  0  0  0
   -3.2182   12.3152    3.0233 H   0  0  0  0  0  0  0  0  0  0  0  0
   -2.3457   11.3139    4.7021 C   0  0  0  0  0  0  0  0  0  0  0  0
   -1.1547    9.5846    7.7738 C   0  0  0  0  0  0  0  0  0  0  0  0
   -0.0788    9.2813    7.8148 H   0  0  0  0  0  0  0  0  0  0  0  0
   -1.9934    8.3135    7.8674 C   0  0  0  0  0  0  0  0  0  0  0  0
   -3.0584    8.5235    7.8581 H   0  0  0  0  0  0  0  0  0  0  0  0
   -1.7526    7.7946    8.7913 H   0  0  0  0  0  0  0  0  0  0  0  0
   -1.7634    7.6513    7.0346 H   0  0  0  0  0  0  0  0  0  0  0  0
   -1.3954   10.5724    8.9116 C   0  0  0  0  0  0  0  0  0  0  0  0
   -0.7708   11.4541    8.7802 H   0  0  0  0  0  0  0  0  0  0  0  0
   -1.1266   10.1026    9.8539 H   0  0  0  0  0  0  0  0  0  0  0  0
   -2.4324   10.8880    8.9687 H   0  0  0  0  0  0  0  0  0  0  0  0
    3.8313    8.4641    7.4429 C   0  0  0  0  0  3  0  0  0  0  0  0
    3.1266    8.3180    8.2576 H   0  0  0  0  0  0  0  0  0  0  0  0
    5.1548    8.0691    7.5511 C   0  0  0  0  0  0  0  0  0  0  0  0
    6.0177    8.2779    6.4869 C   0  0  0  0  0  0  0  0  0  0  0  0
    7.0529    7.9800    6.5464 H   0  0  0  0  0  0  0  0  0  0  0  0
    5.5168    8.8812    5.3428 C   0  0  0  0  0  0  0  0  0  0  0  0
    6.1540    9.0629    4.4922 H   0  0  0  0  0  0  0  0  0  0  0  0
    4.1838    9.2470    5.3094 C   0  0  0  0  0  0  0  0  0  0  0  0
    3.7417    9.7246    4.4290 H   0  0  0  0  0  0  0  0  0  0  0  0
  1  7  1  0  0  0  0
  1  2  1  0  0  0  0
  3  1  1  0  0  0  0
  5 18  1  0  0  0  0
  5  8  1  0  0  0  0
  6 19  1  0  0  0  0
  7 29  1  0  0  0  0
  8  1  2  0  0  0  0
  8  6  1  0  0  0  0
  9  6  1  0  0  0  0
  9 10  1  0  0  0  0
 10 11  1  0  0  0  0
 12 13  1  0  0  0  0
 12 10  2  0  0  0  0
 14 12  1  0  0  0  0
 15 14  1  0  0  0  0
 16 14  2  0  0  0  0
 16 18  1  0  0  0  0
 17 16  1  0  0  0  0
 18  9  2  0  0  0  0
 19 20  1  0  0  0  0
 19 21  1  0  0  0  0
 19 25  1  0  0  0  0
 21 23  1  0  0  0  0
 22 21  1  0  0  0  0
 24 21  1  0  0  0  0
 25 28  1  0  0  0  0
 25 27  1  0  0  0  0
 26 25  1  0  0  0  0
 29 31  1  0  0  0  0
 29 30  1  0  0  0  0
 31  4  1  0  0  0  0
 32 33  1  0  0  0  0
 32 31  2  0  0  0  0
 34 32  1  0  0  0  0
 35 34  1  0  0  0  0
 36 34  2  0  0  0  0
 36  7  1  0  0  0  0
 37 36  1  0  0  0  0
M  END
$$$$
