CSD_code = HOXBIG | q = 0 | S = 0 | Stoichiometry = C27H27Cl2O3P3Pd | MND = 4
 OpenBabel04212202043D

 63 67  0  0  0  0  0  0  0  0999 V2000
    0.6000   -2.3695    5.5449 C   0  0  0  0  0  0  0  0  0  0  0  0
    0.1101   -1.0665    5.5793 C   0  0  0  0  0  0  0  0  0  0  0  0
   -0.2372   -0.5912    4.6709 H   0  0  0  0  0  0  0  0  0  0  0  0
    0.0632   -0.3925    6.7861 C   0  0  0  0  0  0  0  0  0  0  0  0
   -0.3126    0.6197    6.8208 H   0  0  0  0  0  0  0  0  0  0  0  0
    0.4931   -1.0125    7.9499 C   0  0  0  0  0  0  0  0  0  0  0  0
    0.4514   -0.4780    8.8874 H   0  0  0  0  0  0  0  0  0  0  0  0
    0.9658   -2.3147    7.9171 C   0  0  0  0  0  0  0  0  0  0  0  0
    1.2887   -2.7974    8.8271 H   0  0  0  0  0  0  0  0  0  0  0  0
    1.0182   -2.9981    6.7155 C   0  0  0  0  0  0  0  0  0  0  0  0
    1.3767   -4.0228    6.6649 H   0  0  0  0  0  0  0  0  0  0  0  0
    2.0365   -2.6443    3.0264 C   0  0  0  0  0  0  0  0  0  0  0  0
    2.8038   -3.5726    2.3246 C   0  0  0  0  0  0  0  0  0  0  0  0
    2.5786   -4.6341    2.4298 H   0  0  0  0  0  0  0  0  0  0  0  0
    3.8505   -3.1438    1.5306 C   0  0  0  0  0  0  0  0  0  0  0  0
    4.4490   -3.8618    0.9897 H   0  0  0  0  0  0  0  0  0  0  0  0
    4.1370   -1.7903    1.4419 C   0  0  0  0  0  0  0  0  0  0  0  0
    4.9548   -1.4519    0.8226 H   0  0  0  0  0  0  0  0  0  0  0  0
    3.3887   -0.8702    2.1589 C   0  0  0  0  0  0  0  0  0  0  0  0
    3.6253    0.1818    2.0987 H   0  0  0  0  0  0  0  0  0  0  0  0
    2.3418   -1.2900    2.9601 C   0  0  0  0  0  0  0  0  0  0  0  0
    1.7724   -0.5702    3.5262 H   0  0  0  0  0  0  0  0  0  0  0  0
   -1.3070   -5.2605    1.2526 C   0  0  0  0  0  0  0  0  0  0  0  0
   -0.1293   -5.8853    0.8449 C   0  0  0  0  0  0  0  0  0  0  0  0
    0.6442   -6.1212    1.5875 H   0  0  0  0  0  0  0  0  0  0  0  0
    0.0454   -6.2247   -0.4831 C   0  0  0  0  0  0  0  0  0  0  0  0
    0.9574   -6.7061   -0.8031 H   0  0  0  0  0  0  0  0  0  0  0  0
   -0.9578   -5.9566   -1.4016 C   0  0  0  0  0  0  0  0  0  0  0  0
   -0.8219   -6.2213   -2.4400 H   0  0  0  0  0  0  0  0  0  0  0  0
   -2.1426   -5.3679   -0.9894 C   0  0  0  0  0  0  0  0  0  0  0  0
   -2.9297   -5.1807   -1.7055 H   0  0  0  0  0  0  0  0  0  0  0  0
   -2.3262   -5.0237    0.3377 C   0  0  0  0  0  0  0  0  0  0  0  0
   -3.2527   -4.5745    0.6634 H   0  0  0  0  0  0  0  0  0  0  0  0
   -3.1962   -4.9409    3.3841 C   0  0  0  0  0  0  0  0  0  0  0  0
   -4.0984   -3.8905    3.2588 C   0  0  0  0  0  0  0  0  0  0  0  0
   -3.7600   -2.9197    2.9249 H   0  0  0  0  0  0  0  0  0  0  0  0
   -5.4334   -4.1007    3.5562 C   0  0  0  0  0  0  0  0  0  0  0  0
   -6.1392   -3.2883    3.4592 H   0  0  0  0  0  0  0  0  0  0  0  0
   -5.8666   -5.3477    3.9783 C   0  0  0  0  0  0  0  0  0  0  0  0
   -6.9101   -5.5018    4.2101 H   0  0  0  0  0  0  0  0  0  0  0  0
   -4.9659   -6.3936    4.1091 C   0  0  0  0  0  0  0  0  0  0  0  0
   -5.3053   -7.3618    4.4446 H   0  0  0  0  0  0  0  0  0  0  0  0
   -3.6298   -6.1934    3.8164 C   0  0  0  0  0  0  0  0  0  0  0  0
   -2.9038   -6.9910    3.9254 H   0  0  0  0  0  0  0  0  0  0  0  0
   -0.9437   -3.0254    3.1869 C   0  0  0  0  0  0  0  0  0  0  0  0
   -1.6207   -2.5224    3.8872 H   0  0  0  0  0  0  0  0  0  0  0  0
   -2.9576   -1.0139    0.5349 C   0  0  0  0  0  0  0  0  0  0  0  0
   -3.9365   -0.9992    1.0168 H   0  0  0  0  0  0  0  0  0  0  0  0
   -3.0854   -1.0802   -0.5461 H   0  0  0  0  0  0  0  0  0  0  0  0
   -2.4084   -0.1043    0.7853 H   0  0  0  0  0  0  0  0  0  0  0  0
    0.8050   -2.3627   -0.3079 C   0  0  0  0  0  0  0  0  0  0  0  0
    0.1610   -2.4809   -1.1817 H   0  0  0  0  0  0  0  0  0  0  0  0
    1.7361   -2.9076   -0.4578 H   0  0  0  0  0  0  0  0  0  0  0  0
    1.0171   -1.3034   -0.1469 H   0  0  0  0  0  0  0  0  0  0  0  0
    2.4263   -6.0979    4.9715 Cl  0  0  0  0  0  0  0  0  0  0  0  0
   -0.2100   -7.7520    4.0425 Cl  0  0  0  0  0  0  0  0  0  0  0  0
   -0.4050   -0.6048    1.8421 O   0  0  0  0  0  0  0  0  0  0  0  0
   -2.2477   -2.1563    0.9846 O   0  0  0  0  0  0  0  0  0  0  0  0
    0.1819   -2.9196    0.8376 O   0  0  0  0  0  0  0  0  0  0  0  0
    0.7059   -3.3556    4.0303 P   0  0  0  0  0  4  0  0  0  0  0  0
   -1.4281   -4.8305    3.0097 P   0  0  0  0  0  4  0  0  0  0  0  0
   -0.8073   -2.0065    1.7037 P   0  0  0  0  0  0  0  0  0  0  0  0
    0.4185   -5.5819    4.0738 Pd  0  0  0  0  0  0  0  0  0  0  0  0
  1  2  2  0  0  0  0
  1 10  1  0  0  0  0
  2  4  1  0  0  0  0
  3  2  1  0  0  0  0
  4  5  1  0  0  0  0
  4  6  2  0  0  0  0
  6  7  1  0  0  0  0
  8  6  1  0  0  0  0
  8  9  1  0  0  0  0
 10  8  2  0  0  0  0
 11 10  1  0  0  0  0
 12 60  1  0  0  0  0
 13 14  1  0  0  0  0
 13 12  2  0  0  0  0
 15 13  1  0  0  0  0
 16 15  1  0  0  0  0
 17 15  2  0  0  0  0
 17 19  1  0  0  0  0
 18 17  1  0  0  0  0
 19 21  2  0  0  0  0
 20 19  1  0  0  0  0
 21 12  1  0  0  0  0
 21 22  1  0  0  0  0
 23 61  1  0  0  0  0
 24 23  1  0  0  0  0
 24 25  1  0  0  0  0
 26 24  2  0  0  0  0
 27 26  1  0  0  0  0
 28 30  2  0  0  0  0
 28 26  1  0  0  0  0
 29 28  1  0  0  0  0
 30 32  1  0  0  0  0
 31 30  1  0  0  0  0
 32 33  1  0  0  0  0
 32 23  2  0  0  0  0
 34 43  1  0  0  0  0
 35 34  2  0  0  0  0
 35 37  1  0  0  0  0
 36 35  1  0  0  0  0
 37 39  2  0  0  0  0
 38 37  1  0  0  0  0
 39 41  1  0  0  0  0
 39 40  1  0  0  0  0
 41 42  1  0  0  0  0
 43 44  1  0  0  0  0
 43 41  2  0  0  0  0
 45 46  1  0  0  0  0
 45 60  1  0  0  0  0
 47 50  1  0  0  0  0
 47 58  1  0  0  0  0
 47 48  1  0  0  0  0
 49 47  1  0  0  0  0
 51 54  1  0  0  0  0
 51 59  1  0  0  0  0
 52 51  1  0  0  0  0
 53 51  1  0  0  0  0
 56 63  1  0  0  0  0
 58 62  1  0  0  0  0
 59 62  1  0  0  0  0
 60 63  1  0  0  0  0
 60  1  1  0  0  0  0
 61 45  1  0  0  0  0
 61 34  1  0  0  0  0
 61 63  1  0  0  0  0
 62 57  2  0  0  0  0
 62 45  1  0  0  0  0
 63 55  1  0  0  0  0
M  END
$$$$
