CSD_code = HOXTUJ | q = 0 | S = 0 | Stoichiometry = C18H21BrNO7Re | MND = 6
 OpenBabel04212202043D

 49 51  0  0  1  0  0  0  0  0999 V2000
    0.6976    0.2187    2.0969 Re  0  0  0  0  0  0  0  0  0  0  0  0
   -0.2148    0.4992    4.4005 Br  0  0  0  0  0  0  0  0  0  0  0  0
    2.6648   -0.3132    3.2981 N   0  0  0  0  0  0  0  0  0  0  0  0
    0.7611   -2.1481    2.5895 O   0  0  0  0  0  0  0  0  0  0  0  0
    1.7776   -3.7375    3.7784 O   0  0  0  0  0  0  0  0  0  0  0  0
    3.4250    1.7297    1.4538 O   0  0  0  0  0  0  0  0  0  0  0  0
    4.8947    2.5215    2.9505 O   0  0  0  0  0  0  0  0  0  0  0  0
    0.7668    2.1201    1.7450 C   0  0  0  0  0  2  0  0  0  0  0  0
    0.8002    3.2572    1.5754 O   0  0  0  0  0  1  0  0  0  0  0  0
    1.6365   -0.2035    0.4513 C   0  0  0  0  0  2  0  0  0  0  0  0
    2.2022   -0.4429   -0.5131 O   0  0  0  0  0  1  0  0  0  0  0  0
   -1.0431    0.1736    1.2462 C   0  0  0  0  0  2  0  0  0  0  0  0
   -2.0914    0.0926    0.7841 O   0  0  0  0  0  1  0  0  0  0  0  0
   -1.5011   -3.0752    2.7025 C   0  0  0  0  0  0  0  0  0  0  0  0
   -1.9224   -2.3032    2.0627 H   0  0  0  0  0  0  0  0  0  0  0  0
   -2.0606   -3.9955    2.5572 H   0  0  0  0  0  0  0  0  0  0  0  0
   -1.6024   -2.7569    3.7387 H   0  0  0  0  0  0  0  0  0  0  0  0
   -0.0377   -3.3040    2.3479 C   0  0  2  0  0  0  0  0  0  0  0  0
    0.0630   -3.5347    1.2802 H   0  0  0  0  0  0  0  0  0  0  0  0
    0.6398   -4.3917    3.2270 C   0  0  1  0  0  0  0  0  0  0  0  0
   -0.0386   -4.6742    4.0466 H   0  0  0  0  0  0  0  0  0  0  0  0
    1.0790   -5.6249    2.4586 C   0  0  0  0  0  0  0  0  0  0  0  0
    1.5924   -6.3085    3.1290 H   0  0  0  0  0  0  0  0  0  0  0  0
    0.2105   -6.1228    2.0367 H   0  0  0  0  0  0  0  0  0  0  0  0
    1.7603   -5.3450    1.6588 H   0  0  0  0  0  0  0  0  0  0  0  0
    1.4626   -2.3788    3.7879 C   0  0  1  0  0  0  0  0  0  0  0  0
    0.8096   -2.1481    4.6622 H   0  0  0  0  0  0  0  0  0  0  0  0
    2.6946   -1.5134    3.8804 C   0  0  2  0  0  3  0  0  0  0  0  0
    3.7761   -1.9777    4.6135 C   0  0  0  0  0  0  0  0  0  0  0  0
    3.7273   -2.9650    5.0420 H   0  0  0  0  0  0  0  0  0  0  0  0
    4.8781   -1.1566    4.7624 C   0  0  0  0  0  0  0  0  0  0  0  0
    5.7393   -1.4844    5.3237 H   0  0  0  0  0  0  0  0  0  0  0  0
    4.8452    0.0997    4.1827 C   0  0  0  0  0  0  0  0  0  0  0  0
    5.6624    0.7957    4.2699 H   0  0  0  0  0  0  0  0  0  0  0  0
    3.7258    0.4801    3.4590 C   0  0  0  0  0  0  0  0  0  0  0  0
    3.6757    1.8494    2.8274 C   0  0  2  0  0  0  0  0  0  0  0  0
    2.8668    2.4393    3.3179 H   0  0  0  0  0  0  0  0  0  0  0  0
    4.4680    2.5850   -0.5324 C   0  0  0  0  0  0  0  0  0  0  0  0
    3.6733    2.1584   -1.1376 H   0  0  0  0  0  0  0  0  0  0  0  0
    4.8371    3.4887   -1.0088 H   0  0  0  0  0  0  0  0  0  0  0  0
    5.2740    1.8598   -0.4548 H   0  0  0  0  0  0  0  0  0  0  0  0
    3.9243    2.9154    0.8462 C   0  0  2  0  0  0  0  0  0  0  0  0
    3.1077    3.6473    0.7654 H   0  0  0  0  0  0  0  0  0  0  0  0
    4.9857    3.4284    1.8549 C   0  0  1  0  0  0  0  0  0  0  0  0
    5.9995    3.3256    1.4511 H   0  0  0  0  0  0  0  0  0  0  0  0
    4.7405    4.8672    2.2915 C   0  0  0  0  0  0  0  0  0  0  0  0
    5.4709    5.1526    3.0437 H   0  0  0  0  0  0  0  0  0  0  0  0
    4.8331    5.5289    1.4347 H   0  0  0  0  0  0  0  0  0  0  0  0
    3.7444    4.9715    2.7150 H   0  0  0  0  0  0  0  0  0  0  0  0
  1  3  1  0  0  0  0
  1  2  1  0  0  0  0
  3 35  1  0  0  0  0
  3 28  1  0  0  0  0
  4 26  1  0  0  0  0
  5 26  1  0  0  0  0
  6 36  1  0  0  0  0
  8  1  1  0  0  0  0
  9  8  1  0  0  0  0
 10  1  1  0  0  0  0
 11 10  1  0  0  0  0
 12  1  1  0  0  0  0
 13 12  1  0  0  0  0
 14 17  1  0  0  0  0
 15 14  1  0  0  0  0
 16 14  1  0  0  0  0
 18 19  1  6  0  0  0
 18  4  1  0  0  0  0
 18 14  1  0  0  0  0
 18 20  1  0  0  0  0
 20  5  1  0  0  0  0
 20 21  1  1  0  0  0
 22 23  1  0  0  0  0
 22 20  1  0  0  0  0
 24 22  1  0  0  0  0
 25 22  1  0  0  0  0
 26 28  1  0  0  0  0
 26 27  1  1  0  0  0
 28 29  1  1  0  0  0
 29 31  2  0  0  0  0
 29 30  1  0  0  0  0
 31 32  1  0  0  0  0
 33 34  1  0  0  0  0
 33 31  1  0  0  0  0
 35 33  2  0  0  0  0
 36  7  1  0  0  0  0
 36 37  1  1  0  0  0
 36 35  1  0  0  0  0
 38 41  1  0  0  0  0
 38 42  1  0  0  0  0
 39 38  1  0  0  0  0
 40 38  1  0  0  0  0
 42 43  1  6  0  0  0
 42  6  1  0  0  0  0
 42 44  1  0  0  0  0
 44 45  1  6  0  0  0
 44 46  1  0  0  0  0
 44  7  1  0  0  0  0
 46 49  1  0  0  0  0
 46 47  1  0  0  0  0
 48 46  1  0  0  0  0
M  END
$$$$
