CSD_code = HOZNOZ | q = 1 | S = 0 | Stoichiometry = C29H26AuClN2P(1+) | MND = 4
 OpenBabel04212202043D

 60 65  0  0  0  0  0  0  0  0999 V2000
    9.7545    2.4122   11.1896 Au  0  0  1  0  0  0  0  0  0  0  0  0
    8.3874    4.2660   11.0427 Cl  0  0  0  0  0  0  0  0  0  0  0  0
    8.4895    1.4783    9.5422 P   0  0  0  0  0  4  0  0  0  0  0  0
   12.7061    3.1544   13.8862 N   0  0  0  0  0  0  0  0  0  0  0  0
   10.9357    3.2189   12.6097 N   0  0  0  0  0  0  0  0  0  0  0  0
   11.0621    0.8910   11.4372 C   0  0  0  0  0  0  0  0  0  0  0  0
   11.0382   -0.3294   10.7998 C   0  0  0  0  0  0  0  0  0  0  0  0
   12.0098   -1.2879   11.0609 C   0  0  0  0  0  0  0  0  0  0  0  0
   13.0095   -1.0229   11.9773 C   0  0  0  0  0  0  0  0  0  0  0  0
   13.0443    0.1918   12.6388 C   0  0  0  0  0  0  0  0  0  0  0  0
   12.0777    1.1604   12.3749 C   0  0  0  0  0  0  0  0  0  0  0  0
   11.9761    2.4673   12.9886 C   0  0  0  0  0  0  0  0  0  0  0  0
   12.0921    4.3617   14.0760 C   0  0  0  0  0  0  0  0  0  0  0  0
   10.9922    4.3970   13.2750 C   0  0  0  0  0  0  0  0  0  0  0  0
   13.8933    2.7465   14.6032 C   0  0  0  0  0  0  0  0  0  0  0  0
   13.5415    1.8714   15.8030 C   0  0  0  0  0  0  0  0  0  0  0  0
    9.5675    0.9461    8.1911 C   0  0  0  0  0  0  0  0  0  0  0  0
   10.6476    1.7726    7.8861 C   0  0  0  0  0  0  0  0  0  0  0  0
   11.4837    1.4501    6.8342 C   0  0  0  0  0  0  0  0  0  0  0  0
   11.2487    0.3024    6.0920 C   0  0  0  0  0  0  0  0  0  0  0  0
   10.1809   -0.5242    6.4028 C   0  0  0  0  0  0  0  0  0  0  0  0
    9.3354   -0.2087    7.4522 C   0  0  0  0  0  0  0  0  0  0  0  0
    7.5022    0.0840   10.1223 C   0  0  0  0  0  0  0  0  0  0  0  0
    7.6984   -0.4563   11.3889 C   0  0  0  0  0  0  0  0  0  0  0  0
    6.9167   -1.5181   11.8090 C   0  0  0  0  0  0  0  0  0  0  0  0
    5.9429   -2.0384   10.9718 C   0  0  0  0  0  0  0  0  0  0  0  0
    5.7374   -1.4913    9.7139 C   0  0  0  0  0  0  0  0  0  0  0  0
    6.5082   -0.4268    9.2862 C   0  0  0  0  0  0  0  0  0  0  0  0
    7.2870    2.5792    8.7739 C   0  0  0  0  0  0  0  0  0  0  0  0
    6.0724    2.7864    9.4298 C   0  0  0  0  0  0  0  0  0  0  0  0
    5.1505    3.6614    8.8923 C   0  0  0  0  0  0  0  0  0  0  0  0
    5.4361    4.3352    7.7135 C   0  0  0  0  0  0  0  0  0  0  0  0
    6.6458    4.1343    7.0690 C   0  0  0  0  0  0  0  0  0  0  0  0
    7.5801    3.2607    7.5965 C   0  0  0  0  0  0  0  0  0  0  0  0
   10.2574   -0.5579   10.0874 H   0  0  0  0  0  0  0  0  0  0  0  0
   11.9739   -2.2364   10.5483 H   0  0  0  0  0  0  0  0  0  0  0  0
   13.7642   -1.7648   12.1868 H   0  0  0  0  0  0  0  0  0  0  0  0
   13.8236    0.3694   13.3600 H   0  0  0  0  0  0  0  0  0  0  0  0
   12.4823    5.0943   14.7516 H   0  0  0  0  0  0  0  0  0  0  0  0
   10.2549    5.1591   13.1265 H   0  0  0  0  0  0  0  0  0  0  0  0
   14.5643    2.2263   13.9162 H   0  0  0  0  0  0  0  0  0  0  0  0
   14.3967    3.6538   14.9442 H   0  0  0  0  0  0  0  0  0  0  0  0
   13.0071    0.9765   15.4931 H   0  0  0  0  0  0  0  0  0  0  0  0
   14.4508    1.5746   16.3174 H   0  0  0  0  0  0  0  0  0  0  0  0
   12.9148    2.4214   16.5007 H   0  0  0  0  0  0  0  0  0  0  0  0
   10.8206    2.6634    8.4801 H   0  0  0  0  0  0  0  0  0  0  0  0
   12.3177    2.0914    6.5930 H   0  0  0  0  0  0  0  0  0  0  0  0
   11.9021    0.0509    5.2711 H   0  0  0  0  0  0  0  0  0  0  0  0
   10.0041   -1.4193    5.8264 H   0  0  0  0  0  0  0  0  0  0  0  0
    8.5085   -0.8589    7.7004 H   0  0  0  0  0  0  0  0  0  0  0  0
    8.4549   -0.0383   12.0410 H   0  0  0  0  0  0  0  0  0  0  0  0
    7.0648   -1.9358   12.7930 H   0  0  0  0  0  0  0  0  0  0  0  0
    5.3342   -2.8652   11.3036 H   0  0  0  0  0  0  0  0  0  0  0  0
    4.9691   -1.8892    9.0688 H   0  0  0  0  0  0  0  0  0  0  0  0
    6.3339    0.0233    8.3175 H   0  0  0  0  0  0  0  0  0  0  0  0
    5.8668    2.2715   10.3589 H   0  0  0  0  0  0  0  0  0  0  0  0
    4.2117    3.8276    9.3983 H   0  0  0  0  0  0  0  0  0  0  0  0
    4.7151    5.0238    7.3007 H   0  0  0  0  0  0  0  0  0  0  0  0
    6.8679    4.6638    6.1550 H   0  0  0  0  0  0  0  0  0  0  0  0
    8.5269    3.1090    7.0970 H   0  0  0  0  0  0  0  0  0  0  0  0
  1  2  1  1  0  0  0
  1  6  2  0  0  0  0
  1  5  1  0  0  0  0
  3 23  1  0  0  0  0
  3  1  1  0  0  0  0
  4 13  1  0  0  0  0
  4 15  1  0  0  0  0
  5 12  1  0  0  0  0
  5 14  1  0  0  0  0
  6 11  1  0  0  0  0
  7  8  2  0  0  0  0
  7  6  1  0  0  0  0
  8  9  1  0  0  0  0
  9 37  1  0  0  0  0
  9 10  2  0  0  0  0
 10 38  1  0  0  0  0
 11 10  1  0  0  0  0
 11 12  2  0  0  0  0
 12  4  1  0  0  0  0
 13 39  1  0  0  0  0
 14 13  2  0  0  0  0
 15 42  1  0  0  0  0
 15 16  1  0  0  0  0
 16 44  1  0  0  0  0
 16 45  1  0  0  0  0
 17  3  1  0  0  0  0
 18 17  1  0  0  0  0
 18 46  1  0  0  0  0
 19 18  2  0  0  0  0
 20 21  2  0  0  0  0
 20 19  1  0  0  0  0
 21 22  1  0  0  0  0
 22 50  1  0  0  0  0
 22 17  2  0  0  0  0
 23 24  1  0  0  0  0
 24 25  2  0  0  0  0
 24 51  1  0  0  0  0
 25 52  1  0  0  0  0
 26 53  1  0  0  0  0
 26 25  1  0  0  0  0
 27 26  2  0  0  0  0
 28 27  1  0  0  0  0
 28 23  2  0  0  0  0
 29 30  1  0  0  0  0
 29  3  1  0  0  0  0
 30 56  1  0  0  0  0
 31 57  1  0  0  0  0
 31 30  2  0  0  0  0
 32 31  1  0  0  0  0
 33 34  1  0  0  0  0
 33 32  2  0  0  0  0
 34 29  2  0  0  0  0
 35  7  1  0  0  0  0
 36  8  1  0  0  0  0
 40 14  1  0  0  0  0
 41 15  1  0  0  0  0
 43 16  1  0  0  0  0
 47 19  1  0  0  0  0
 48 20  1  0  0  0  0
 49 21  1  0  0  0  0
 54 27  1  0  0  0  0
 55 28  1  0  0  0  0
 58 32  1  0  0  0  0
 59 33  1  0  0  0  0
 60 34  1  0  0  0  0
M  END
$$$$
