CSD_code = HUBCUD | q = 0 | S = 0 | Stoichiometry = C21H19Cl2HgN3 | MND = 5
 OpenBabel04212202043D

 46 47  0  0  0  0  0  0  0  0999 V2000
    8.6509   10.7699    1.2277 C   0  0  0  0  0  0  0  0  0  0  0  0
    8.7936   11.7503    1.6567 H   0  0  0  0  0  0  0  0  0  0  0  0
    9.4763    6.8303    4.0222 Hg  0  0  0  0  0  0  0  0  0  0  0  0
    9.2821    8.6760    5.3510 Cl  0  0  0  0  0  0  0  0  0  0  0  0
   10.6894    5.5527    2.5697 Cl  0  0  0  0  0  0  0  0  0  0  0  0
    9.4315    5.0687    5.8143 N   0  0  0  0  0  0  0  0  0  0  0  0
    7.4513    5.3467    4.0305 N   0  0  0  0  0  0  0  0  0  0  0  0
    7.7101    7.4003    2.3285 N   0  0  0  0  0  0  0  0  0  0  0  0
    8.5074    4.1944    5.8483 C   0  0  0  0  0  0  0  0  0  0  0  0
    7.4196    4.3020    4.8514 C   0  0  0  0  0  0  0  0  0  0  0  0
    6.4203    3.3305    4.7446 C   0  0  0  0  0  0  0  0  0  0  0  0
    6.3953    2.4789    5.4033 H   0  0  0  0  0  0  0  0  0  0  0  0
    5.4604    3.4701    3.7583 C   0  0  0  0  0  0  0  0  0  0  0  0
    4.6801    2.7314    3.6495 H   0  0  0  0  0  0  0  0  0  0  0  0
    5.5139    4.5587    2.9064 C   0  0  0  0  0  0  0  0  0  0  0  0
    4.7804    4.6677    2.1254 H   0  0  0  0  0  0  0  0  0  0  0  0
    6.5410    5.4920    3.0732 C   0  0  0  0  0  0  0  0  0  0  0  0
    6.6895    6.6563    2.1726 C   0  0  0  0  0  0  0  0  0  0  0  0
    8.4370    3.0760    6.8465 C   0  0  0  0  0  0  0  0  0  0  0  0
    9.2132    3.1958    7.5987 H   0  0  0  0  0  0  0  0  0  0  0  0
    8.5761    2.1149    6.3535 H   0  0  0  0  0  0  0  0  0  0  0  0
    7.4660    3.0767    7.3386 H   0  0  0  0  0  0  0  0  0  0  0  0
    5.6172    6.8954    1.1503 C   0  0  0  0  0  0  0  0  0  0  0  0
    5.7715    7.8558    0.6639 H   0  0  0  0  0  0  0  0  0  0  0  0
    4.6392    6.8951    1.6283 H   0  0  0  0  0  0  0  0  0  0  0  0
    5.6331    6.1151    0.3908 H   0  0  0  0  0  0  0  0  0  0  0  0
   10.5777    5.0371    6.6058 C   0  0  0  0  0  0  0  0  0  0  0  0
   11.4580    3.9551    6.5547 C   0  0  0  0  0  0  0  0  0  0  0  0
   11.2361    3.1216    5.9044 H   0  0  0  0  0  0  0  0  0  0  0  0
   12.6349    3.9901    7.2786 C   0  0  0  0  0  0  0  0  0  0  0  0
   13.3203    3.1577    7.2188 H   0  0  0  0  0  0  0  0  0  0  0  0
   12.9341    5.0820    8.0759 C   0  0  0  0  0  0  0  0  0  0  0  0
   13.8516    5.1015    8.6443 H   0  0  0  0  0  0  0  0  0  0  0  0
   12.0592    6.1562    8.1297 C   0  0  0  0  0  0  0  0  0  0  0  0
   12.2921    7.0138    8.7428 H   0  0  0  0  0  0  0  0  0  0  0  0
   10.8921    6.1470    7.3916 C   0  0  0  0  0  0  0  0  0  0  0  0
   10.2104    6.9839    7.4209 H   0  0  0  0  0  0  0  0  0  0  0  0
    8.0499    8.4592    1.4891 C   0  0  0  0  0  0  0  0  0  0  0  0
    8.2479    9.7270    2.0382 C   0  0  0  0  0  0  0  0  0  0  0  0
    8.0726    9.8796    3.0927 H   0  0  0  0  0  0  0  0  0  0  0  0
    8.8857   10.5613   -0.1227 C   0  0  0  0  0  0  0  0  0  0  0  0
    9.2149   11.3775   -0.7480 H   0  0  0  0  0  0  0  0  0  0  0  0
    8.7115    9.2989   -0.6645 C   0  0  0  0  0  0  0  0  0  0  0  0
    8.9089    9.1259   -1.7120 H   0  0  0  0  0  0  0  0  0  0  0  0
    8.2828    8.2513    0.1288 C   0  0  0  0  0  0  0  0  0  0  0  0
    8.1783    7.2574   -0.2809 H   0  0  0  0  0  0  0  0  0  0  0  0
  1  2  1  0  0  0  0
  1 39  1  0  0  0  0
  3  4  1  0  0  0  0
  5  3  1  0  0  0  0
  6  9  2  0  0  0  0
  6 27  1  0  0  0  0
  7 10  1  0  0  0  0
  9 19  1  0  0  0  0
 10  9  1  0  0  0  0
 11 10  2  0  0  0  0
 11 12  1  0  0  0  0
 13 11  1  0  0  0  0
 14 13  1  0  0  0  0
 15 17  1  0  0  0  0
 15 13  2  0  0  0  0
 16 15  1  0  0  0  0
 17  7  2  0  0  0  0
 18  8  2  0  0  0  0
 18 17  1  0  0  0  0
 19 22  1  0  0  0  0
 19 20  1  0  0  0  0
 21 19  1  0  0  0  0
 23 25  1  0  0  0  0
 23 18  1  0  0  0  0
 24 23  1  0  0  0  0
 26 23  1  0  0  0  0
 27 36  1  0  0  0  0
 28 27  2  0  0  0  0
 28 30  1  0  0  0  0
 29 28  1  0  0  0  0
 30 32  2  0  0  0  0
 31 30  1  0  0  0  0
 32 34  1  0  0  0  0
 32 33  1  0  0  0  0
 34 35  1  0  0  0  0
 36 37  1  0  0  0  0
 36 34  2  0  0  0  0
 38 39  2  0  0  0  0
 38  8  1  0  0  0  0
 39 40  1  0  0  0  0
 41  1  2  0  0  0  0
 42 41  1  0  0  0  0
 43 41  1  0  0  0  0
 43 45  2  0  0  0  0
 44 43  1  0  0  0  0
 45 38  1  0  0  0  0
 46 45  1  0  0  0  0
M  END
$$$$
