CSD_code = HUBDOZ | q = 0 | S = 0 | Stoichiometry = C18H17Br2CdN3 | MND = 5
 OpenBabel04212202043D

 41 44  0  0  1  0  0  0  0  0999 V2000
    2.5413    5.5993    1.7485 Cd  0  0  0  0  0  0  0  0  0  0  0  0
    3.7225    3.4636    1.0703 Br  0  0  0  0  0  0  0  0  0  0  0  0
    1.7256    7.4444    0.3004 Br  0  0  0  0  0  0  0  0  0  0  0  0
    0.5814    4.5634    2.5038 N   0  0  0  0  0  0  0  0  0  0  0  0
    2.6865    4.8343    4.3469 N   0  0  0  0  0  0  0  0  0  0  0  0
    4.3854    6.5238    2.8554 N   0  0  0  0  0  0  0  0  0  0  0  0
   -0.5314    4.6203    1.7783 C   0  0  0  0  0  3  0  0  0  0  0  0
   -0.5854    5.4216    1.0499 H   0  0  0  0  0  0  0  0  0  0  0  0
   -1.5730    3.7239    1.9337 C   0  0  0  0  0  0  0  0  0  0  0  0
   -2.4592    3.8078    1.3260 H   0  0  0  0  0  0  0  0  0  0  0  0
   -1.4413    2.7185    2.8807 C   0  0  0  0  0  0  0  0  0  0  0  0
   -2.2246    1.9900    3.0251 H   0  0  0  0  0  0  0  0  0  0  0  0
   -0.2878    2.6657    3.6413 C   0  0  0  0  0  0  0  0  0  0  0  0
   -0.1512    1.9006    4.3902 H   0  0  0  0  0  0  0  0  0  0  0  0
    0.7070    3.6179    3.4308 C   0  0  0  0  0  0  0  0  0  0  0  0
    1.9922    3.5564    4.2205 C   0  0  0  0  0  0  0  0  0  0  0  0
    1.7892    3.1134    5.2073 H   0  0  0  0  0  0  0  0  0  0  0  0
    2.6447    2.8682    3.6711 H   0  0  0  0  0  0  0  0  0  0  0  0
    4.1358    4.6899    4.4495 C   0  0  0  0  0  0  0  0  0  0  0  0
    4.4281    3.7935    3.8909 H   0  0  0  0  0  0  0  0  0  0  0  0
    4.4478    4.5519    5.4956 H   0  0  0  0  0  0  0  0  0  0  0  0
    4.9317    5.8213    3.8438 C   0  0  1  0  0  3  0  0  0  0  0  0
    6.2306    6.0680    4.2829 C   0  0  0  0  0  0  0  0  0  0  0  0
    6.6513    5.4743    5.0801 H   0  0  0  0  0  0  0  0  0  0  0  0
    6.9635    7.0760    3.6842 C   0  0  0  0  0  0  0  0  0  0  0  0
    7.9733    7.2821    4.0057 H   0  0  0  0  0  0  0  0  0  0  0  0
    6.3771    7.8160    2.6676 C   0  0  0  0  0  0  0  0  0  0  0  0
    6.9101    8.6145    2.1777 H   0  0  0  0  0  0  0  0  0  0  0  0
    5.0856    7.5004    2.2864 C   0  0  0  0  0  0  0  0  0  0  0  0
    4.5848    8.0485    1.4959 H   0  0  0  0  0  0  0  0  0  0  0  0
    2.1012    5.7642    5.2346 C   0  0  0  0  0  0  0  0  0  0  0  0
    0.7573    5.6734    5.6050 C   0  0  0  0  0  0  0  0  0  0  0  0
    0.1323    4.8762    5.2373 H   0  0  0  0  0  0  0  0  0  0  0  0
    0.1806    6.6105    6.4420 C   0  0  0  0  0  0  0  0  0  0  0  0
   -0.8630    6.5091    6.7017 H   0  0  0  0  0  0  0  0  0  0  0  0
    0.9227    7.6620    6.9468 C   0  0  0  0  0  0  0  0  0  0  0  0
    0.4697    8.3921    7.5988 H   0  0  0  0  0  0  0  0  0  0  0  0
    2.2573    7.7589    6.5988 C   0  0  0  0  0  0  0  0  0  0  0  0
    2.8604    8.5684    6.9823 H   0  0  0  0  0  0  0  0  0  0  0  0
    2.8409    6.8256    5.7628 C   0  0  0  0  0  0  0  0  0  0  0  0
    3.8836    6.9484    5.5195 H   0  0  0  0  0  0  0  0  0  0  0  0
  1  4  1  0  0  0  0
  1  6  1  0  0  0  0
  2  1  1  0  0  0  0
  3  1  1  0  0  0  0
  4 15  1  0  0  0  0
  5 19  1  0  0  0  0
  5 31  1  0  0  0  0
  6 22  1  0  0  0  0
  7  9  1  0  0  0  0
  7  4  1  0  0  0  0
  8  7  1  0  0  0  0
  9 11  2  0  0  0  0
 10  9  1  0  0  0  0
 11 12  1  0  0  0  0
 11 13  1  0  0  0  0
 13 14  1  0  0  0  0
 15 13  2  0  0  0  0
 15 16  1  0  0  0  0
 16  5  1  0  0  0  0
 16 17  1  0  0  0  0
 18 16  1  0  0  0  0
 19 21  1  0  0  0  0
 20 19  1  0  0  0  0
 22 23  1  6  0  0  0
 22 19  1  0  0  0  0
 23 24  1  0  0  0  0
 25 26  1  0  0  0  0
 25 23  2  0  0  0  0
 27 25  1  0  0  0  0
 28 27  1  0  0  0  0
 29 27  2  0  0  0  0
 29  6  1  0  0  0  0
 30 29  1  0  0  0  0
 31 32  2  0  0  0  0
 31 40  1  0  0  0  0
 32 34  1  0  0  0  0
 33 32  1  0  0  0  0
 34 35  1  0  0  0  0
 34 36  2  0  0  0  0
 36 37  1  0  0  0  0
 38 36  1  0  0  0  0
 38 39  1  0  0  0  0
 40 38  2  0  0  0  0
 41 40  1  0  0  0  0
M  END
$$$$
