CSD_code = HUBNOJ | q = 0 | S = 0 | Stoichiometry = C12H11Cl3N2PtS | MND = 6
 OpenBabel04212202043D

 30 33  0  0  0  0  0  0  0  0999 V2000
   -0.3102    9.4807    2.2256 Pt  0  0  0  0  0  0  0  0  0  0  0  0
   -0.8410   11.2275    3.7437 Cl  0  0  0  0  0  0  0  0  0  0  0  0
    1.9625    9.6259    2.4473 Cl  0  0  0  0  0  0  0  0  0  0  0  0
   -0.2743   10.9713    0.4584 Cl  0  0  0  0  0  0  0  0  0  0  0  0
   -0.5625    7.7305    3.9098 S   0  0  2  0  0  3  0  0  0  0  0  0
   -0.0310    7.8974    0.9837 N   0  0  0  0  0  0  0  0  0  0  0  0
    0.3252    8.0919    0.0545 H   0  0  0  0  0  0  0  0  0  0  0  0
   -2.4803    9.3697    2.1307 N   0  0  0  0  0  4  0  0  0  0  0  0
   -2.6117   10.1255    2.8269 H   0  0  0  0  0  0  0  0  0  0  0  0
   -2.8910    9.6699    1.2459 H   0  0  0  0  0  0  0  0  0  0  0  0
    0.2673    6.4994    2.9048 C   0  0  0  0  0  0  0  0  0  0  0  0
    0.4682    6.7766    1.5405 C   0  0  0  0  0  0  0  0  0  0  0  0
    1.1394    5.7881    0.7941 C   0  0  0  0  0  0  0  0  0  0  0  0
    1.3185    5.9721   -0.2547 H   0  0  0  0  0  0  0  0  0  0  0  0
    1.5638    4.6203    1.3829 C   0  0  0  0  0  0  0  0  0  0  0  0
    2.0815    3.8858    0.7842 H   0  0  0  0  0  0  0  0  0  0  0  0
    1.3554    4.3791    2.7366 C   0  0  0  0  0  0  0  0  0  0  0  0
    1.7063    3.4668    3.1911 H   0  0  0  0  0  0  0  0  0  0  0  0
    0.7083    5.3314    3.4994 C   0  0  0  0  0  0  0  0  0  0  0  0
    0.5533    5.1826    4.5573 H   0  0  0  0  0  0  0  0  0  0  0  0
   -2.2534    7.3064    3.4216 C   0  0  0  0  0  0  0  0  0  0  0  0
   -3.0010    8.1200    2.5728 C   0  0  0  0  0  0  0  0  0  0  0  0
   -4.2557    7.6844    2.1601 C   0  0  0  0  0  0  0  0  0  0  0  0
   -4.8317    8.3009    1.4856 H   0  0  0  0  0  0  0  0  0  0  0  0
   -4.7628    6.4761    2.6028 C   0  0  0  0  0  0  0  0  0  0  0  0
   -5.7360    6.1514    2.2695 H   0  0  0  0  0  0  0  0  0  0  0  0
   -4.0251    5.6892    3.4715 C   0  0  0  0  0  0  0  0  0  0  0  0
   -4.4189    4.7489    3.8229 H   0  0  0  0  0  0  0  0  0  0  0  0
   -2.7707    6.1054    3.8800 C   0  0  0  0  0  0  0  0  0  0  0  0
   -2.1767    5.4923    4.5392 H   0  0  0  0  0  0  0  0  0  0  0  0
  1  3  1  0  0  0  0
  1  2  1  0  0  0  0
  1  5  1  0  0  0  0
  4  1  1  0  0  0  0
  5 11  1  6  0  0  0
  6 12  1  0  0  0  0
  6  1  1  0  0  0  0
  7  6  1  0  0  0  0
  8  1  1  0  0  0  0
  8 22  1  0  0  0  0
  8  9  1  0  0  0  0
 10  8  1  0  0  0  0
 11 19  1  0  0  0  0
 12 11  2  0  0  0  0
 13 15  2  0  0  0  0
 13 12  1  0  0  0  0
 14 13  1  0  0  0  0
 15 17  1  0  0  0  0
 16 15  1  0  0  0  0
 17 18  1  0  0  0  0
 17 19  2  0  0  0  0
 19 20  1  0  0  0  0
 21 29  1  0  0  0  0
 21  5  1  0  0  0  0
 22 21  2  0  0  0  0
 23 22  1  0  0  0  0
 23 25  2  0  0  0  0
 24 23  1  0  0  0  0
 25 27  1  0  0  0  0
 26 25  1  0  0  0  0
 27 28  1  0  0  0  0
 27 29  2  0  0  0  0
 29 30  1  0  0  0  0
M  END
$$$$
