CSD_code = HUCJAR | q = 0 | S = 0 | Stoichiometry = C18H34Cl2N6S2Zn | MND = 4
 OpenBabel04212202043D

 63 64  0  0  1  0  0  0  0  0999 V2000
    2.9838   10.9978    7.3750 Zn  0  0  0  0  0  0  0  0  0  0  0  0
    4.8228   12.2555    7.5069 Cl  0  0  0  0  0  0  0  0  0  0  0  0
    1.7574   10.4241    9.1373 Cl  0  0  0  0  0  0  0  0  0  0  0  0
    1.8409   12.0447    3.1203 S   0  0  0  0  0  0  0  0  0  0  0  0
    4.4410    6.7347    6.4411 S   0  0  0  0  0  0  0  0  0  0  0  0
    2.1371   11.5979    5.6178 N   0  0  0  0  0  0  0  0  0  0  0  0
    0.9343   11.1003    5.3077 N   0  0  0  0  0  0  0  0  0  0  0  0
    3.9618   12.7058    4.6789 N   0  0  0  0  0  0  0  0  0  0  0  0
    4.4597   12.6613    5.5853 H   0  0  0  0  0  0  0  0  0  0  0  0
    4.4222   13.0488    3.8559 H   0  0  0  0  0  0  0  0  0  0  0  0
    3.6115    9.1352    6.7254 N   0  0  0  0  0  0  0  0  0  0  0  0
    4.3277    9.1376    5.5932 N   0  0  0  0  0  0  0  0  0  0  0  0
    2.8630    7.7229    8.4201 N   0  0  0  0  0  0  0  0  0  0  0  0
    2.3733    8.5177    8.8639 H   0  0  0  0  0  0  0  0  0  0  0  0
    2.8759    6.8157    8.8490 H   0  0  0  0  0  0  0  0  0  0  0  0
   -7.2593   13.1896    0.5301 C   0  0  0  0  0  0  0  0  0  0  0  0
   -7.8451   14.0629    0.2545 H   0  0  0  0  0  0  0  0  0  0  0  0
   -7.8318   12.6048    1.2465 H   0  0  0  0  0  0  0  0  0  0  0  0
   -7.1070   12.5839   -0.3604 H   0  0  0  0  0  0  0  0  0  0  0  0
   -5.9214   13.6069    1.1279 C   0  0  0  0  0  0  0  0  0  0  0  0
   -6.0958   14.2247    2.0116 H   0  0  0  0  0  0  0  0  0  0  0  0
   -5.3735   14.2140    0.4036 H   0  0  0  0  0  0  0  0  0  0  0  0
   -5.0716   12.3999    1.5177 C   0  0  0  0  0  0  0  0  0  0  0  0
   -5.6204   11.7918    2.2405 H   0  0  0  0  0  0  0  0  0  0  0  0
   -4.8962   11.7828    0.6332 H   0  0  0  0  0  0  0  0  0  0  0  0
   -3.7308   12.8125    2.1199 C   0  0  0  0  0  0  0  0  0  0  0  0
   -3.1840   13.4241    1.3984 H   0  0  0  0  0  0  0  0  0  0  0  0
   -3.9072   13.4265    3.0058 H   0  0  0  0  0  0  0  0  0  0  0  0
   -2.8801   11.6047    2.5056 C   0  0  0  0  0  0  0  0  0  0  0  0
   -3.4246   10.9963    3.2309 H   0  0  0  0  0  0  0  0  0  0  0  0
   -2.7051   10.9885    1.6206 H   0  0  0  0  0  0  0  0  0  0  0  0
   -1.5408   12.0246    3.1034 C   0  0  0  0  0  0  0  0  0  0  0  0
   -1.7127   12.6431    3.9864 H   0  0  0  0  0  0  0  0  0  0  0  0
   -0.9872   12.6233    2.3757 H   0  0  0  0  0  0  0  0  0  0  0  0
   -0.6953   10.8087    3.5025 C   0  0  0  0  0  0  0  0  0  0  0  0
   -1.2238   10.2139    4.2485 H   0  0  0  0  0  0  0  0  0  0  0  0
   -0.5125   10.1904    2.6203 H   0  0  0  0  0  0  0  0  0  0  0  0
    0.5956   11.2296    4.0891 C   0  0  0  0  0  0  0  0  0  0  0  0
    2.7751   12.1366    4.5992 C   0  0  2  0  0  3  0  0  0  0  0  0
    3.5437    7.9617    7.3146 C   0  0  1  0  0  3  0  0  0  0  0  0
    4.8392    8.0145    5.2798 C   0  0  0  0  0  0  0  0  0  0  0  0
    5.6760    7.7482    4.0888 C   0  0  0  0  0  0  0  0  0  0  0  0
    5.7672    8.6794    3.5277 H   0  0  0  0  0  0  0  0  0  0  0  0
    6.6737    7.4429    4.4160 H   0  0  0  0  0  0  0  0  0  0  0  0
    5.0780    6.6457    3.2086 C   0  0  0  0  0  0  0  0  0  0  0  0
    4.0849    6.9519    2.8725 H   0  0  0  0  0  0  0  0  0  0  0  0
    4.9641    5.7363    3.8037 H   0  0  0  0  0  0  0  0  0  0  0  0
    5.9611    6.3529    1.9994 C   0  0  0  0  0  0  0  0  0  0  0  0
    6.9583    6.0677    2.3420 H   0  0  0  0  0  0  0  0  0  0  0  0
    6.0644    7.2586    1.3977 H   0  0  0  0  0  0  0  0  0  0  0  0
    5.3881    5.2328    1.1342 C   0  0  0  0  0  0  0  0  0  0  0  0
    5.2831    4.3284    1.7380 H   0  0  0  0  0  0  0  0  0  0  0  0
    4.3911    5.5157    0.7886 H   0  0  0  0  0  0  0  0  0  0  0  0
    6.2752    4.9333   -0.0716 C   0  0  0  0  0  0  0  0  0  0  0  0
    6.3721    5.8345   -0.6815 H   0  0  0  0  0  0  0  0  0  0  0  0
    7.2747    4.6610    0.2752 H   0  0  0  0  0  0  0  0  0  0  0  0
    5.7170    3.8018   -0.9312 C   0  0  0  0  0  0  0  0  0  0  0  0
    4.7178    4.0726   -1.2799 H   0  0  0  0  0  0  0  0  0  0  0  0
    5.6210    2.9003   -0.3219 H   0  0  0  0  0  0  0  0  0  0  0  0
    6.6101    3.5095   -2.1305 C   0  0  0  0  0  0  0  0  0  0  0  0
    6.1973    2.7004   -2.7281 H   0  0  0  0  0  0  0  0  0  0  0  0
    7.6061    3.2201   -1.8025 H   0  0  0  0  0  0  0  0  0  0  0  0
    6.7015    4.3906   -2.7621 H   0  0  0  0  0  0  0  0  0  0  0  0
  1  2  1  0  0  0  0
  1  3  1  0  0  0  0
  4 38  1  0  0  0  0
  4 39  1  0  0  0  0
  5 40  1  0  0  0  0
  6  1  1  0  0  0  0
  7  6  1  0  0  0  0
  8  9  1  0  0  0  0
 10  8  1  0  0  0  0
 11 40  1  0  0  0  0
 11  1  1  0  0  0  0
 12 11  1  0  0  0  0
 13 15  1  0  0  0  0
 13 14  1  0  0  0  0
 16 20  1  0  0  0  0
 16 18  1  0  0  0  0
 17 16  1  0  0  0  0
 19 16  1  0  0  0  0
 20 23  1  0  0  0  0
 20 21  1  0  0  0  0
 22 20  1  0  0  0  0
 23 26  1  0  0  0  0
 23 24  1  0  0  0  0
 25 23  1  0  0  0  0
 26 29  1  0  0  0  0
 26 28  1  0  0  0  0
 27 26  1  0  0  0  0
 29 32  1  0  0  0  0
 29 30  1  0  0  0  0
 31 29  1  0  0  0  0
 32 35  1  0  0  0  0
 32 33  1  0  0  0  0
 34 32  1  0  0  0  0
 35 38  1  0  0  0  0
 35 36  1  0  0  0  0
 37 35  1  0  0  0  0
 38  7  2  0  0  0  0
 39  8  1  1  0  0  0
 39  6  1  0  0  0  0
 40 13  1  6  0  0  0
 41 12  2  0  0  0  0
 41  5  1  0  0  0  0
 42 44  1  0  0  0  0
 42 41  1  0  0  0  0
 43 42  1  0  0  0  0
 45 47  1  0  0  0  0
 45 42  1  0  0  0  0
 46 45  1  0  0  0  0
 48 49  1  0  0  0  0
 48 45  1  0  0  0  0
 50 48  1  0  0  0  0
 51 52  1  0  0  0  0
 51 48  1  0  0  0  0
 53 51  1  0  0  0  0
 54 56  1  0  0  0  0
 54 51  1  0  0  0  0
 55 54  1  0  0  0  0
 57 59  1  0  0  0  0
 57 54  1  0  0  0  0
 58 57  1  0  0  0  0
 60 62  1  0  0  0  0
 60 57  1  0  0  0  0
 61 60  1  0  0  0  0
 63 60  1  0  0  0  0
M  END
$$$$
