CSD_code = HUDGUK | q = 0 | S = 0 | Stoichiometry = C25H33Br2FeN3O | MND = 5
 OpenBabel04212202043D

 65 69  0  0  1  0  0  0  0  0999 V2000
   -1.5060    6.2393   12.7771 Fe  0  0  0  0  0  0  0  0  0  0  0  0
   -3.1135    6.7917   11.2713 Br  0  0  0  0  0  0  0  0  0  0  0  0
   -1.4810    4.1640   13.5858 Br  0  0  0  0  0  0  0  0  0  0  0  0
    0.0358    5.9885   11.5394 N   0  0  0  0  0  0  0  0  0  0  0  0
   -0.7824    7.8712   12.8835 N   0  0  0  0  0  0  0  0  0  0  0  0
   -2.6682    7.0217   14.3388 N   0  0  1  0  0  0  0  0  0  0  0  0
   -3.1330    8.9871   15.3193 O   0  0  0  0  0  0  0  0  0  0  0  0
    1.7296    7.2324   10.2216 C   0  0  0  0  0  0  0  0  0  0  0  0
    2.0652    6.2518    9.8933 H   0  0  0  0  0  0  0  0  0  0  0  0
    2.5744    7.7927   10.6172 H   0  0  0  0  0  0  0  0  0  0  0  0
    1.3385    7.7744    9.3598 H   0  0  0  0  0  0  0  0  0  0  0  0
    0.6467    7.1047   11.2449 C   0  0  0  0  0  0  0  0  0  0  0  0
    0.1995    8.2322   12.0082 C   0  0  0  0  0  0  0  0  0  0  0  0
    0.6760    9.5395   11.9624 C   0  0  0  0  0  0  0  0  0  0  0  0
    1.4400    9.8043   11.2496 H   0  0  0  0  0  0  0  0  0  0  0  0
    0.1566   10.4904   12.8270 C   0  0  0  0  0  0  0  0  0  0  0  0
    0.5202   11.5050   12.8020 H   0  0  0  0  0  0  0  0  0  0  0  0
   -0.8506   10.1288   13.7126 C   0  0  0  0  0  0  0  0  0  0  0  0
   -1.3005   10.8378   14.3878 H   0  0  0  0  0  0  0  0  0  0  0  0
   -1.3028    8.8191   13.7072 C   0  0  0  0  0  0  0  0  0  0  0  0
   -2.3792    8.2733   14.4800 C   0  0  2  0  0  3  0  0  0  0  0  0
   -4.1533    8.1046   15.7902 C   0  0  0  0  0  0  0  0  0  0  0  0
   -5.1183    8.4784   15.4388 H   0  0  0  0  0  0  0  0  0  0  0  0
   -4.1373    8.1188   16.8808 H   0  0  0  0  0  0  0  0  0  0  0  0
   -3.8017    6.7187   15.1935 C   0  0  2  0  0  0  0  0  0  0  0  0
   -4.6158    6.3423   14.5641 H   0  0  0  0  0  0  0  0  0  0  0  0
   -3.4629    5.6366   16.2374 C   0  0  0  0  0  0  0  0  0  0  0  0
   -3.2213    4.7289   15.6792 H   0  0  0  0  0  0  0  0  0  0  0  0
   -4.6752    5.3427   17.1160 C   0  0  0  0  0  0  0  0  0  0  0  0
   -4.9430    6.1994   17.7309 H   0  0  0  0  0  0  0  0  0  0  0  0
   -4.4532    4.5081   17.7760 H   0  0  0  0  0  0  0  0  0  0  0  0
   -5.5344    5.0757   16.5052 H   0  0  0  0  0  0  0  0  0  0  0  0
   -2.2408    6.0108   17.0717 C   0  0  0  0  0  0  0  0  0  0  0  0
   -1.3786    6.1698   16.4261 H   0  0  0  0  0  0  0  0  0  0  0  0
   -2.0043    5.2011   17.7566 H   0  0  0  0  0  0  0  0  0  0  0  0
   -2.4102    6.9132   17.6560 H   0  0  0  0  0  0  0  0  0  0  0  0
    0.5599    4.7607   11.0695 C   0  0  0  0  0  0  0  0  0  0  0  0
    1.5530    4.1339   11.8410 C   0  0  0  0  0  0  0  0  0  0  0  0
    2.0684    2.9269   11.3955 C   0  0  0  0  0  0  0  0  0  0  0  0
    2.8391    2.4360   11.9683 H   0  0  0  0  0  0  0  0  0  0  0  0
    1.6091    2.3384   10.2326 C   0  0  0  0  0  0  0  0  0  0  0  0
    2.0181    1.3934    9.9078 H   0  0  0  0  0  0  0  0  0  0  0  0
    0.6257    2.9601    9.4905 C   0  0  0  0  0  0  0  0  0  0  0  0
    0.2662    2.4954    8.5858 H   0  0  0  0  0  0  0  0  0  0  0  0
    0.0935    4.1791    9.8868 C   0  0  0  0  0  0  0  0  0  0  0  0
   -0.9795    4.8423    9.0605 C   0  0  0  0  0  0  0  0  0  0  0  0
   -1.1964    5.8247    9.4860 H   0  0  0  0  0  0  0  0  0  0  0  0
   -2.2612    4.0093    9.1186 C   0  0  0  0  0  0  0  0  0  0  0  0
   -2.1233    3.0493    8.6270 H   0  0  0  0  0  0  0  0  0  0  0  0
   -3.0734    4.5432    8.6324 H   0  0  0  0  0  0  0  0  0  0  0  0
   -2.5447    3.8271   10.1525 H   0  0  0  0  0  0  0  0  0  0  0  0
   -0.5294    5.0537    7.6141 C   0  0  0  0  0  0  0  0  0  0  0  0
    0.4048    5.6114    7.5779 H   0  0  0  0  0  0  0  0  0  0  0  0
   -1.2883    5.6155    7.0749 H   0  0  0  0  0  0  0  0  0  0  0  0
   -0.3815    4.1053    7.1038 H   0  0  0  0  0  0  0  0  0  0  0  0
    2.0784    4.7521   13.1184 C   0  0  0  0  0  0  0  0  0  0  0  0
    1.4089    5.5708   13.4161 H   0  0  0  0  0  0  0  0  0  0  0  0
    3.4776    5.3321   12.8910 C   0  0  0  0  0  0  0  0  0  0  0  0
    4.1647    4.5477   12.5814 H   0  0  0  0  0  0  0  0  0  0  0  0
    3.8529    5.7751   13.8113 H   0  0  0  0  0  0  0  0  0  0  0  0
    3.4653    6.0982   12.1202 H   0  0  0  0  0  0  0  0  0  0  0  0
    2.1148    3.7421   14.2673 C   0  0  0  0  0  0  0  0  0  0  0  0
    1.1550    3.2439   14.3680 H   0  0  0  0  0  0  0  0  0  0  0  0
    2.3392    4.2554   15.2001 H   0  0  0  0  0  0  0  0  0  0  0  0
    2.8812    2.9894   14.1049 H   0  0  0  0  0  0  0  0  0  0  0  0
  1  5  1  0  0  0  0
  1  3  1  0  0  0  0
  2  1  1  0  0  0  0
  4  1  1  0  0  0  0
  5 20  1  0  0  0  0
  6  1  1  6  0  0  0
  6 21  1  0  0  0  0
  6 25  1  0  0  0  0
  7 22  1  0  0  0  0
  8 10  1  0  0  0  0
  8 12  1  0  0  0  0
  9  8  1  0  0  0  0
 11  8  1  0  0  0  0
 12  4  1  0  0  0  0
 12 13  2  0  0  0  0
 13  5  1  0  0  0  0
 14 13  1  0  0  0  0
 14 16  2  0  0  0  0
 15 14  1  0  0  0  0
 16 18  1  0  0  0  0
 17 16  1  0  0  0  0
 18 19  1  0  0  0  0
 20 18  2  0  0  0  0
 21 20  1  6  0  0  0
 21  7  1  0  0  0  0
 22 24  1  0  0  0  0
 23 22  1  0  0  0  0
 25 26  1  6  0  0  0
 25 22  1  0  0  0  0
 25 27  1  0  0  0  0
 27 33  1  0  0  0  0
 27 29  1  0  0  0  0
 28 27  1  0  0  0  0
 29 30  1  0  0  0  0
 29 31  1  0  0  0  0
 32 29  1  0  0  0  0
 33 36  1  0  0  0  0
 33 35  1  0  0  0  0
 34 33  1  0  0  0  0
 37  4  1  0  0  0  0
 37 38  1  0  0  0  0
 38 56  1  0  0  0  0
 39 38  2  0  0  0  0
 39 40  1  0  0  0  0
 41 39  1  0  0  0  0
 42 41  1  0  0  0  0
 43 45  1  0  0  0  0
 43 41  2  0  0  0  0
 44 43  1  0  0  0  0
 45 37  2  0  0  0  0
 46 48  1  0  0  0  0
 46 47  1  0  0  0  0
 46 45  1  0  0  0  0
 48 51  1  0  0  0  0
 49 48  1  0  0  0  0
 50 48  1  0  0  0  0
 52 46  1  0  0  0  0
 53 52  1  0  0  0  0
 54 52  1  0  0  0  0
 55 52  1  0  0  0  0
 56 57  1  0  0  0  0
 56 62  1  0  0  0  0
 58 56  1  0  0  0  0
 58 60  1  0  0  0  0
 59 58  1  0  0  0  0
 61 58  1  0  0  0  0
 62 63  1  0  0  0  0
 62 64  1  0  0  0  0
 65 62  1  0  0  0  0
M  END
$$$$
