CSD_code = HUDMEY | q = 0 | S = 0 | Stoichiometry = C3H2AuClF3N | MND = 2
 OpenBabel04212202043D

 11 10  0  0  0  0  0  0  0  0999 V2000
   -1.0658    1.4558   11.9196 Au  0  0  0  0  0  0  0  0  0  0  0  0
   -2.2528    1.4561   10.0775 Cl  0  0  0  0  0  0  0  0  0  0  0  0
   -0.0462    1.4561   13.4704 C   0  0  0  0  0  0  0  0  0  0  0  0
    1.3898    1.4560   15.5814 C   0  0  0  0  0  0  0  0  0  0  0  0
    2.0184    0.5587   15.6212 H   0  0  0  0  0  0  0  0  0  0  0  0
    2.0184    2.3533   15.6212 H   0  0  0  0  0  0  0  0  0  0  0  0
    0.4734    1.4560   16.8163 C   0  0  0  0  0  0  0  0  0  0  0  0
    0.6369    1.4560   14.4114 N   0  0  0  0  0  2  0  0  0  0  0  0
    1.2070    1.4560   17.9327 F   0  0  0  0  0  0  0  0  0  0  0  0
   -0.3131    2.5318   16.8526 F   0  0  0  0  0  0  0  0  0  0  0  0
   -0.3131    0.3802   16.8526 F   0  0  0  0  0  0  0  0  0  0  0  0
  1  3  3  0  0  0  0
  2  1  1  0  0  0  0
  3  8  1  0  0  0  0
  4  5  1  0  0  0  0
  4  6  1  0  0  0  0
  4  7  1  0  0  0  0
  7 10  1  0  0  0  0
  7 11  1  0  0  0  0
  7  9  1  0  0  0  0
  8  4  1  0  0  0  0
M  END
$$$$
