CSD_code = HUFPIH | q = 0 | S = 0 | Stoichiometry = C27H26Cl2NPPt | MND = 4
 OpenBabel04212202043D

 58 62  0  0  1  0  0  0  0  0999 V2000
    0.7150    0.3493    4.4227 Pt  0  0  0  0  0  0  0  0  0  0  0  0
   -1.1213    1.1133    5.6816 Cl  0  0  0  0  0  0  0  0  0  0  0  0
   -0.1281   -1.8092    4.1811 Cl  0  0  0  0  0  0  0  0  0  0  0  0
    2.4930   -0.0799    3.1566 P   0  0  0  0  0  4  0  0  0  0  0  0
    0.3763    3.2134    4.4618 N   0  0  0  0  0  4  0  0  0  0  0  0
   -0.3667    2.7408    5.1096 H   0  0  0  0  0  0  0  0  0  0  0  0
    0.6018    4.1702    4.7392 H   0  0  0  0  0  0  0  0  0  0  0  0
    3.7966   -1.1970    3.7283 C   0  0  0  0  0  0  0  0  0  0  0  0
    4.9824   -0.7475    4.2984 C   0  0  0  0  0  0  0  0  0  0  0  0
    5.1806    0.3134    4.3660 H   0  0  0  0  0  0  0  0  0  0  0  0
    5.9030   -1.6641    4.7754 C   0  0  0  0  0  0  0  0  0  0  0  0
    6.8276   -1.3169    5.2137 H   0  0  0  0  0  0  0  0  0  0  0  0
    5.6390   -3.0219    4.6995 C   0  0  0  0  0  0  0  0  0  0  0  0
    6.3604   -3.7320    5.0765 H   0  0  0  0  0  0  0  0  0  0  0  0
    4.4463   -3.4706    4.1520 C   0  0  0  0  0  0  0  0  0  0  0  0
    4.2352   -4.5287    4.1083 H   0  0  0  0  0  0  0  0  0  0  0  0
    3.5231   -2.5628    3.6706 C   0  0  0  0  0  0  0  0  0  0  0  0
    2.5775   -2.8931    3.2616 H   0  0  0  0  0  0  0  0  0  0  0  0
    2.1864   -0.6223    1.4525 C   0  0  0  0  0  0  0  0  0  0  0  0
    0.8871   -0.5125    0.9689 C   0  0  0  0  0  0  0  0  0  0  0  0
    0.1057   -0.1800    1.6445 H   0  0  0  0  0  0  0  0  0  0  0  0
    0.5975   -0.8763   -0.3332 C   0  0  0  0  0  0  0  0  0  0  0  0
   -0.4135   -0.7985   -0.7046 H   0  0  0  0  0  0  0  0  0  0  0  0
    1.6056   -1.3533   -1.1556 C   0  0  0  0  0  0  0  0  0  0  0  0
    1.3818   -1.6416   -2.1722 H   0  0  0  0  0  0  0  0  0  0  0  0
    2.8979   -1.4808   -0.6714 C   0  0  0  0  0  0  0  0  0  0  0  0
    3.6775   -1.8711   -1.3096 H   0  0  0  0  0  0  0  0  0  0  0  0
    3.1924   -1.1195    0.6310 C   0  0  0  0  0  0  0  0  0  0  0  0
    4.1951   -1.2435    1.0169 H   0  0  0  0  0  0  0  0  0  0  0  0
    3.2700    1.5619    2.9975 C   0  0  0  0  0  0  0  0  0  0  0  0
    4.3565    1.8258    2.1740 C   0  0  0  0  0  0  0  0  0  0  0  0
    4.7827    1.0321    1.5782 H   0  0  0  0  0  0  0  0  0  0  0  0
    4.8805    3.1031    2.1116 C   0  0  0  0  0  0  0  0  0  0  0  0
    5.7175    3.3149    1.4634 H   0  0  0  0  0  0  0  0  0  0  0  0
    4.3359    4.1095    2.8932 C   0  0  0  0  0  0  0  0  0  0  0  0
    4.7553    5.1040    2.8602 H   0  0  0  0  0  0  0  0  0  0  0  0
    3.2604    3.8453    3.7206 C   0  0  0  0  0  0  0  0  0  0  0  0
    2.8646    4.6409    4.3376 H   0  0  0  0  0  0  0  0  0  0  0  0
    2.6942    2.5754    3.7681 C   0  0  0  0  0  0  0  0  0  0  0  0
    1.5145    2.2549    4.6482 C   0  0  2  0  0  0  0  0  0  0  0  0
    1.8355    2.3838    5.6951 H   0  0  0  0  0  0  0  0  0  0  0  0
   -0.2303    3.2037    3.1056 C   0  0  1  0  0  0  0  0  0  0  0  0
   -0.2979    2.1392    2.8265 H   0  0  0  0  0  0  0  0  0  0  0  0
   -1.6397    3.7799    3.1914 C   0  0  0  0  0  0  0  0  0  0  0  0
   -1.6314    4.8056    3.5523 H   0  0  0  0  0  0  0  0  0  0  0  0
   -2.2400    3.1725    3.8640 H   0  0  0  0  0  0  0  0  0  0  0  0
   -2.1008    3.7697    2.2080 H   0  0  0  0  0  0  0  0  0  0  0  0
    0.6336    3.9295    2.1064 C   0  0  0  0  0  0  0  0  0  0  0  0
    1.2206    3.2376    1.0555 C   0  0  0  0  0  0  0  0  0  0  0  0
    1.0508    2.1754    0.9540 H   0  0  0  0  0  0  0  0  0  0  0  0
    2.0340    3.8937    0.1499 C   0  0  0  0  0  0  0  0  0  0  0  0
    2.4910    3.3401   -0.6562 H   0  0  0  0  0  0  0  0  0  0  0  0
    2.2631    5.2526    0.2793 C   0  0  0  0  0  0  0  0  0  0  0  0
    2.8997    5.7655   -0.4257 H   0  0  0  0  0  0  0  0  0  0  0  0
    1.6701    5.9536    1.3149 C   0  0  0  0  0  0  0  0  0  0  0  0
    1.8396    7.0152    1.4175 H   0  0  0  0  0  0  0  0  0  0  0  0
    0.8603    5.2961    2.2228 C   0  0  0  0  0  0  0  0  0  0  0  0
    0.4040    5.8597    3.0251 H   0  0  0  0  0  0  0  0  0  0  0  0
  1 40  1  0  0  0  0
  1  2  1  0  0  0  0
  3  1  1  0  0  0  0
  4  8  1  0  0  0  0
  4  1  1  0  0  0  0
  5 40  1  0  0  0  0
  5  7  1  0  0  0  0
  5  6  1  0  0  0  0
  8  9  1  0  0  0  0
  9 10  1  0  0  0  0
  9 11  2  0  0  0  0
 11 12  1  0  0  0  0
 13 11  1  0  0  0  0
 13 14  1  0  0  0  0
 15 13  2  0  0  0  0
 16 15  1  0  0  0  0
 17  8  2  0  0  0  0
 17 15  1  0  0  0  0
 18 17  1  0  0  0  0
 19  4  1  0  0  0  0
 20 19  1  0  0  0  0
 20 21  1  0  0  0  0
 22 20  2  0  0  0  0
 23 22  1  0  0  0  0
 24 26  2  0  0  0  0
 24 22  1  0  0  0  0
 25 24  1  0  0  0  0
 26 28  1  0  0  0  0
 27 26  1  0  0  0  0
 28 29  1  0  0  0  0
 28 19  2  0  0  0  0
 30  4  1  0  0  0  0
 30 39  1  0  0  0  0
 31 30  2  0  0  0  0
 32 31  1  0  0  0  0
 33 31  1  0  0  0  0
 33 35  2  0  0  0  0
 34 33  1  0  0  0  0
 35 37  1  0  0  0  0
 36 35  1  0  0  0  0
 37 39  2  0  0  0  0
 37 38  1  0  0  0  0
 39 40  1  0  0  0  0
 40 41  1  1  0  0  0
 42 43  1  6  0  0  0
 42 44  1  0  0  0  0
 42  5  1  0  0  0  0
 44 45  1  0  0  0  0
 44 46  1  0  0  0  0
 47 44  1  0  0  0  0
 48 57  1  0  0  0  0
 48 42  1  0  0  0  0
 49 48  2  0  0  0  0
 50 49  1  0  0  0  0
 51 53  2  0  0  0  0
 51 49  1  0  0  0  0
 52 51  1  0  0  0  0
 53 55  1  0  0  0  0
 54 53  1  0  0  0  0
 55 56  1  0  0  0  0
 55 57  2  0  0  0  0
 57 58  1  0  0  0  0
M  END
$$$$
