CSD_code = HUFPEF | q = 0 | S = 0 | Stoichiometry = C23H26ClNO5PtS | MND = 4
 OpenBabel04212202043D

 58 61  0  0  0  0  0  0  0  0999 V2000
    5.1544   -0.3841    5.1601 C   0  0  0  0  0  0  0  0  0  0  0  0
    6.4046   -0.4828    4.5738 C   0  0  0  0  0  0  0  0  0  0  0  0
    6.5301   -0.2411    3.5288 H   0  0  0  0  0  0  0  0  0  0  0  0
    7.5033   -0.8862    5.3194 C   0  0  0  0  0  0  0  0  0  0  0  0
    8.4749   -0.9447    4.8507 H   0  0  0  0  0  0  0  0  0  0  0  0
    7.3649   -1.2215    6.6587 C   0  0  0  0  0  0  0  0  0  0  0  0
    8.2248   -1.5451    7.2265 H   0  0  0  0  0  0  0  0  0  0  0  0
    6.1289   -1.1398    7.2678 C   0  0  0  0  0  0  0  0  0  0  0  0
    6.0245   -1.3994    8.3106 H   0  0  0  0  0  0  0  0  0  0  0  0
    5.0239   -0.7170    6.5284 C   0  0  0  0  0  0  0  0  0  0  0  0
    3.7022   -0.4779    7.0844 C   0  0  0  0  0  0  0  0  0  0  0  0
    3.3095   -0.7449    8.4083 C   0  0  0  0  0  0  0  0  0  0  0  0
    3.9801   -1.2574    9.0791 H   0  0  0  0  0  0  0  0  0  0  0  0
    2.0483   -0.4150    8.8394 C   0  0  0  0  0  0  0  0  0  0  0  0
    1.2003    0.3509    7.9936 C   0  0  0  0  0  0  0  0  0  0  0  0
   -0.0266    0.9120    8.3962 C   0  0  0  0  0  0  0  0  0  0  0  0
   -0.3807    0.7492    9.4013 H   0  0  0  0  0  0  0  0  0  0  0  0
   -0.7539    1.6856    7.5306 C   0  0  0  0  0  0  0  0  0  0  0  0
   -1.6964    2.1057    7.8484 H   0  0  0  0  0  0  0  0  0  0  0  0
   -0.2727    1.9672    6.2453 C   0  0  0  0  0  0  0  0  0  0  0  0
   -0.8402    2.6114    5.5913 H   0  0  0  0  0  0  0  0  0  0  0  0
    0.9210    1.4463    5.8260 C   0  0  0  0  0  0  0  0  0  0  0  0
    1.3300    1.6840    4.8517 H   0  0  0  0  0  0  0  0  0  0  0  0
    1.6672    0.6037    6.6719 C   0  0  0  0  0  0  0  0  0  0  0  0
    1.6518   -0.8537   10.2077 C   0  0  0  0  0  0  0  0  0  0  0  0
   -0.1221   -1.7011   11.5005 C   0  0  0  0  0  0  0  0  0  0  0  0
    0.6391   -2.2439   12.0696 H   0  0  0  0  0  0  0  0  0  0  0  0
   -0.9666   -2.3551   11.2779 H   0  0  0  0  0  0  0  0  0  0  0  0
   -0.5605   -0.4612   12.2983 C   0  0  0  0  0  0  0  0  0  0  0  0
   -1.0850   -0.7957   13.2049 H   0  0  0  0  0  0  0  0  0  0  0  0
    0.3241    0.1137   12.5830 H   0  0  0  0  0  0  0  0  0  0  0  0
   -2.6339   -0.0470   11.2036 C   0  0  0  0  0  0  0  0  0  0  0  0
   -3.0786   -0.6017   12.0394 H   0  0  0  0  0  0  0  0  0  0  0  0
   -2.5727   -0.7011   10.3226 H   0  0  0  0  0  0  0  0  0  0  0  0
   -3.5212    1.1527   10.8891 C   0  0  0  0  0  0  0  0  0  0  0  0
   -2.9118    1.9238   10.3960 H   0  0  0  0  0  0  0  0  0  0  0  0
   -4.3310    0.8522   10.2051 H   0  0  0  0  0  0  0  0  0  0  0  0
   -4.7973    2.8280   11.9186 C   0  0  0  0  0  0  0  0  0  0  0  0
   -5.6452    2.6732   11.2389 H   0  0  0  0  0  0  0  0  0  0  0  0
   -4.1694    3.6341   11.5194 H   0  0  0  0  0  0  0  0  0  0  0  0
   -5.1675    3.1096   12.9019 H   0  0  0  0  0  0  0  0  0  0  0  0
    1.1577   -0.5699    3.4567 Cl  0  0  0  0  0  0  0  0  0  0  0  0
    2.8426    0.0910    6.2274 N   0  0  0  0  0  0  0  0  0  0  0  0
    2.3931   -0.8436   11.1572 O   0  0  0  0  0  0  0  0  0  0  0  0
    0.3993   -1.3159   10.2345 O   0  0  0  0  0  0  0  0  0  0  0  0
   -1.3500    0.4275   11.5550 O   0  0  0  0  0  0  0  0  0  0  0  0
   -4.0609    1.6455   12.0907 O   0  0  0  0  0  0  0  0  0  0  0  0
    3.3568   -0.1546    4.3038 Pt  0  0  1  0  0  0  0  0  0  0  0  0
    2.9818    0.7621    1.1106 C   0  0  0  0  0  0  0  0  0  0  0  0
    1.9255    0.5981    1.2899 H   0  0  0  0  0  0  0  0  0  0  0  0
    3.2488    0.5930    0.0737 H   0  0  0  0  0  0  0  0  0  0  0  0
    3.2702    1.7650    1.4106 H   0  0  0  0  0  0  0  0  0  0  0  0
    3.3190   -1.9665    1.4204 C   0  0  0  0  0  0  0  0  0  0  0  0
    3.8280   -2.7802    1.9272 H   0  0  0  0  0  0  0  0  0  0  0  0
    3.5659   -1.9710    0.3652 H   0  0  0  0  0  0  0  0  0  0  0  0
    2.2497   -2.0238    1.5853 H   0  0  0  0  0  0  0  0  0  0  0  0
    5.3112   -0.2807    1.7165 O   0  0  0  0  0  1  0  0  0  0  0  0
    3.9237   -0.4087    2.1369 S   0  0  0  0  0  0  0  0  0  0  0  0
  1 10  1  0  0  0  0
  2  1  1  0  0  0  0
  2  4  2  0  0  0  0
  3  2  1  0  0  0  0
  4  6  1  0  0  0  0
  5  4  1  0  0  0  0
  6  7  1  0  0  0  0
  6  8  2  0  0  0  0
  8  9  1  0  0  0  0
 10 11  2  0  0  0  0
 10  8  1  0  0  0  0
 11 12  1  0  0  0  0
 12 14  2  0  0  0  0
 12 13  1  0  0  0  0
 14 25  1  0  0  0  0
 15 16  1  0  0  0  0
 15 14  1  0  0  0  0
 16 17  1  0  0  0  0
 18 19  1  0  0  0  0
 18 16  2  0  0  0  0
 20 18  1  0  0  0  0
 21 20  1  0  0  0  0
 22 20  2  0  0  0  0
 22 24  1  0  0  0  0
 23 22  1  0  0  0  0
 24 15  2  0  0  0  0
 25 45  1  0  0  0  0
 25 44  2  0  0  0  0
 26 27  1  0  0  0  0
 26 29  1  0  0  0  0
 28 26  1  0  0  0  0
 29 31  1  0  0  0  0
 29 30  1  0  0  0  0
 32 46  1  0  0  0  0
 32 33  1  0  0  0  0
 34 32  1  0  0  0  0
 35 32  1  0  0  0  0
 35 47  1  0  0  0  0
 36 35  1  0  0  0  0
 37 35  1  0  0  0  0
 38 47  1  0  0  0  0
 38 41  1  0  0  0  0
 39 38  1  0  0  0  0
 40 38  1  0  0  0  0
 43 24  1  0  0  0  0
 43 11  1  0  0  0  0
 45 26  1  0  0  0  0
 46 29  1  0  0  0  0
 48 42  1  1  0  0  0
 48  1  2  0  0  0  0
 48 43  1  0  0  0  0
 49 50  1  0  0  0  0
 49 52  1  0  0  0  0
 49 58  1  0  0  0  0
 51 49  1  0  0  0  0
 53 56  1  0  0  0  0
 53 54  1  0  0  0  0
 53 58  1  0  0  0  0
 55 53  1  0  0  0  0
 57 58  1  0  0  0  0
 58 48  1  0  0  0  0
M  END
$$$$
