CSD_code = HUFQAA | q = 0 | S = 0 | Stoichiometry = C4H8I2PtS2 | MND = 4
 OpenBabel04212202043D

 17 18  0  0  0  0  0  0  0  0999 V2000
    3.7329    3.7330   -0.0001 Pt  0  0  0  0  0  0  0  0  0  0  0  0
    1.5090    3.5005    1.2695 I   0  0  0  0  0  0  0  0  0  0  0  0
    4.2249    5.7761    1.0142 S   0  0  1  0  0  3  0  0  0  0  0  0
    5.8885    5.2607    1.5754 C   0  0  0  0  0  0  0  0  0  0  0  0
    6.3394    6.1137    2.0865 H   0  0  0  0  0  0  0  0  0  0  0  0
    5.7080    4.4699    2.3062 H   0  0  0  0  0  0  0  0  0  0  0  0
    4.7722    6.7604   -0.4263 C   0  0  0  0  0  0  0  0  0  0  0  0
    3.9084    7.3549   -0.7242 H   0  0  0  0  0  0  0  0  0  0  0  0
    5.5489    7.4332   -0.0594 H   0  0  0  0  0  0  0  0  0  0  0  0
    3.5006    1.5090   -1.2693 I   0  0  0  0  0  0  0  0  0  0  0  0
    6.7604    4.7722    0.4263 C   0  0  0  0  0  0  0  0  0  0  0  0
    5.7761    4.2249   -1.0143 S   0  0  2  0  0  3  0  0  0  0  0  0
    5.2607    5.8885   -1.5754 C   0  0  0  0  0  0  0  0  0  0  0  0
    6.1137    6.3395   -2.0865 H   0  0  0  0  0  0  0  0  0  0  0  0
    4.4700    5.7081   -2.3063 H   0  0  0  0  0  0  0  0  0  0  0  0
    7.3548    3.9083    0.7242 H   0  0  0  0  0  0  0  0  0  0  0  0
    7.4332    5.5489    0.0594 H   0  0  0  0  0  0  0  0  0  0  0  0
  1  3  1  0  0  0  0
  1  2  1  0  0  0  0
  3  7  1  6  0  0  0
  3  4  1  0  0  0  0
  4  5  1  0  0  0  0
  4  6  1  0  0  0  0
  7  9  1  0  0  0  0
  8  7  1  0  0  0  0
 10  1  1  0  0  0  0
 11 16  1  0  0  0  0
 11  4  1  0  0  0  0
 12 13  1  6  0  0  0
 12  1  1  0  0  0  0
 12 11  1  0  0  0  0
 13  7  1  0  0  0  0
 14 13  1  0  0  0  0
 15 13  1  0  0  0  0
 17 11  1  0  0  0  0
M  END
$$$$
