CSD_code = HUGYUD | q = 0 | S = 0 | Stoichiometry = C20H28Cl3O2V | MND = 5
 OpenBabel04212202043D

 54 59  0  0  1  0  0  0  0  0999 V2000
    0.5763    2.8618    3.3163 V   0  0  0  0  0  0  0  0  0  0  0  0
   -0.0491    0.9143    3.2287 Cl  0  0  0  0  0  0  0  0  0  0  0  0
   -1.2251    3.8020    3.3663 Cl  0  0  0  0  0  0  0  0  0  0  0  0
    1.7174    2.7975    4.9965 Cl  0  0  0  0  0  0  0  0  0  0  0  0
    1.3830    3.0592    2.0424 O   0  0  0  0  0  1  0  0  0  0  0  0
    1.1578    5.2836    3.7755 O   0  0  0  0  0  0  0  0  0  0  0  0
    2.0739    7.4762    4.0091 C   0  0  2  0  0  0  0  0  0  0  0  0
    1.8551    6.1538    3.2845 C   0  0  2  0  0  3  0  0  0  0  0  0
    2.3678    5.9018    1.8880 C   0  0  1  0  0  0  0  0  0  0  0  0
    1.1210    6.0481    0.9926 C   0  0  0  0  0  0  0  0  0  0  0  0
    0.8008    7.5231    0.7771 C   0  0  1  0  0  0  0  0  0  0  0  0
    0.5488    8.2880    2.0849 C   0  0  0  0  0  0  0  0  0  0  0  0
    1.7826    8.5956    2.9629 C   0  0  2  0  0  0  0  0  0  0  0  0
    2.9575    9.0310    2.0797 C   0  0  0  0  0  0  0  0  0  0  0  0
    3.1959    8.1215    0.8813 C   0  0  2  0  0  0  0  0  0  0  0  0
    1.9525    8.1518   -0.0008 C   0  0  0  0  0  0  0  0  0  0  0  0
    3.5318    6.6857    1.2851 C   0  0  0  0  0  0  0  0  0  0  0  0
    3.5008    7.5017    4.6112 C   0  0  1  0  0  0  0  0  0  0  0  0
    3.7578    8.8143    5.3579 C   0  0  0  0  0  0  0  0  0  0  0  0
    2.7876    8.9545    6.5264 C   0  0  1  0  0  0  0  0  0  0  0  0
    1.3563    8.9248    5.9933 C   0  0  0  0  0  0  0  0  0  0  0  0
    1.1125    7.6171    5.2284 C   0  0  2  0  0  0  0  0  0  0  0  0
    1.2885    6.4973    6.2644 C   0  0  0  0  0  0  0  0  0  0  0  0
    2.7253    6.4877    6.7742 C   0  0  2  0  0  0  0  0  0  0  0  0
    3.0074    7.8005    7.5012 C   0  0  0  0  0  0  0  0  0  0  0  0
    3.6769    6.3358    5.5895 C   0  0  0  0  0  0  0  0  0  0  0  0
    3.6533    9.6720    4.6930 H   0  0  0  0  0  0  0  0  0  0  0  0
    2.6335    4.8338    1.8909 H   0  0  0  0  0  0  0  0  0  0  0  0
    0.2786    5.5179    1.4486 H   0  0  0  0  0  0  0  0  0  0  0  0
    1.3237    5.5760    0.0298 H   0  0  0  0  0  0  0  0  0  0  0  0
   -0.1165    7.5875    0.1805 H   0  0  0  0  0  0  0  0  0  0  0  0
    0.0989    9.2467    1.8111 H   0  0  0  0  0  0  0  0  0  0  0  0
   -0.1932    7.7423    2.6718 H   0  0  0  0  0  0  0  0  0  0  0  0
    1.5137    9.4779    3.5469 H   0  0  0  0  0  0  0  0  0  0  0  0
    2.7257   10.0298    1.6975 H   0  0  0  0  0  0  0  0  0  0  0  0
    3.8736    9.1213    2.6593 H   0  0  0  0  0  0  0  0  0  0  0  0
    4.0484    8.5203    0.3184 H   0  0  0  0  0  0  0  0  0  0  0  0
    1.7154    9.1832   -0.2697 H   0  0  0  0  0  0  0  0  0  0  0  0
    2.1233    7.5956   -0.9243 H   0  0  0  0  0  0  0  0  0  0  0  0
    4.3920    6.6748    1.9553 H   0  0  0  0  0  0  0  0  0  0  0  0
    3.8306    6.1478    0.3812 H   0  0  0  0  0  0  0  0  0  0  0  0
    4.2451    7.3914    3.8209 H   0  0  0  0  0  0  0  0  0  0  0  0
    2.9673    9.9071    7.0376 H   0  0  0  0  0  0  0  0  0  0  0  0
    4.7851    8.8087    5.7310 H   0  0  0  0  0  0  0  0  0  0  0  0
    1.1736    9.8065    5.3774 H   0  0  0  0  0  0  0  0  0  0  0  0
    0.6531    8.9742    6.8277 H   0  0  0  0  0  0  0  0  0  0  0  0
    0.0799    7.5973    4.8643 H   0  0  0  0  0  0  0  0  0  0  0  0
    1.0331    5.5251    5.8492 H   0  0  0  0  0  0  0  0  0  0  0  0
    0.6049    6.6871    7.0961 H   0  0  0  0  0  0  0  0  0  0  0  0
    2.8652    5.6470    7.4618 H   0  0  0  0  0  0  0  0  0  0  0  0
    2.3404    7.9015    8.3600 H   0  0  0  0  0  0  0  0  0  0  0  0
    4.0349    7.8161    7.8722 H   0  0  0  0  0  0  0  0  0  0  0  0
    4.7102    6.3243    5.9457 H   0  0  0  0  0  0  0  0  0  0  0  0
    3.4890    5.3848    5.0836 H   0  0  0  0  0  0  0  0  0  0  0  0
  1  3  1  0  0  0  0
  1  6  1  0  0  0  0
  1  4  1  0  0  0  0
  2  1  1  0  0  0  0
  5  1  1  0  0  0  0
  7 18  1  0  0  0  0
  7 22  1  0  0  0  0
  8  6  1  6  0  0  0
  8  7  1  0  0  0  0
  9 28  1  0  0  0  0
  9  8  1  0  0  0  0
 10 29  1  0  0  0  0
 10  9  1  0  0  0  0
 11 31  1  6  0  0  0
 11 10  1  0  0  0  0
 11 12  1  0  0  0  0
 12 33  1  0  0  0  0
 12 13  1  0  0  0  0
 13 34  1  0  0  0  0
 13  7  1  0  0  0  0
 14 36  1  0  0  0  0
 14 13  1  0  0  0  0
 15 37  1  6  0  0  0
 15 17  1  0  0  0  0
 15 14  1  0  0  0  0
 16 11  1  0  0  0  0
 16 15  1  0  0  0  0
 17  9  1  0  0  0  0
 17 40  1  0  0  0  0
 18 19  1  0  0  0  0
 18 26  1  0  0  0  0
 19 44  1  0  0  0  0
 19 20  1  0  0  0  0
 20 43  1  0  0  0  0
 20 25  1  0  0  0  0
 21 20  1  0  0  0  0
 21 46  1  0  0  0  0
 22 21  1  0  0  0  0
 22 23  1  0  0  0  0
 23 24  1  0  0  0  0
 23 49  1  0  0  0  0
 24 50  1  0  0  0  0
 24 25  1  0  0  0  0
 25 52  1  0  0  0  0
 25 51  1  0  0  0  0
 26 53  1  0  0  0  0
 26 24  1  0  0  0  0
 27 19  1  0  0  0  0
 30 10  1  0  0  0  0
 32 12  1  0  0  0  0
 35 14  1  0  0  0  0
 38 16  1  0  0  0  0
 39 16  1  0  0  0  0
 41 17  1  0  0  0  0
 42 18  1  0  0  0  0
 45 21  1  0  0  0  0
 47 22  1  0  0  0  0
 48 23  1  0  0  0  0
 54 26  1  0  0  0  0
M  END
$$$$
