CSD_code = HUHHAV | q = 0 | S = 0 | Stoichiometry = C33H25ClN5O4Rh | MND = 6
 OpenBabel04212202043D

 69 78  0  0  1  0  0  0  0  0999 V2000
    0.9611   10.8457   12.4468 C   0  0  0  0  0  0  0  0  0  0  0  0
    1.1894   12.0678   13.0902 C   0  0  0  0  0  0  0  0  0  0  0  0
    1.8841   13.4768   14.5860 C   0  0  0  0  0  0  0  0  0  0  0  0
    2.4633   14.0938   15.6887 C   0  0  0  0  0  0  0  0  0  0  0  0
    2.9888   13.5108   16.4322 H   0  0  0  0  0  0  0  0  0  0  0  0
    2.3272   15.4618   15.8148 C   0  0  0  0  0  0  0  0  0  0  0  0
    2.7659   15.9602   16.6671 H   0  0  0  0  0  0  0  0  0  0  0  0
    1.6324   16.2182   14.8694 C   0  0  0  0  0  0  0  0  0  0  0  0
    1.5501   17.2855   15.0096 H   0  0  0  0  0  0  0  0  0  0  0  0
    1.0475   15.6258   13.7690 C   0  0  0  0  0  3  0  0  0  0  0  0
    0.5032   16.2001   13.0354 H   0  0  0  0  0  0  0  0  0  0  0  0
    1.1688   14.2500   13.6171 C   0  0  0  0  0  0  0  0  0  0  0  0
    0.7042   13.3199   12.6324 C   0  0  0  0  0  0  0  0  0  0  0  0
   -0.0411   13.2752   11.4575 C   0  0  0  0  0  0  0  0  0  0  0  0
   -0.7071   14.3581   10.6888 C   0  0  0  0  0  0  0  0  0  0  0  0
   -1.1228   12.3499    9.6248 C   0  0  0  0  0  0  0  0  0  0  0  0
   -0.2930   12.0679   10.8019 C   0  0  0  0  0  0  0  0  0  0  0  0
    0.1806   10.8161   11.2644 C   0  0  0  0  0  0  0  0  0  0  0  0
   -0.0416    9.5463   10.7048 C   0  0  0  0  0  0  0  0  0  0  0  0
   -0.6338    9.4562    9.8074 H   0  0  0  0  0  0  0  0  0  0  0  0
    0.4955    8.4440   11.3328 C   0  0  0  0  0  0  0  0  0  0  0  0
    0.3290    7.4548   10.9364 H   0  0  0  0  0  0  0  0  0  0  0  0
    1.2603    8.5772   12.4987 C   0  0  0  0  0  0  0  0  0  0  0  0
    1.6710    7.7113   13.0018 H   0  0  0  0  0  0  0  0  0  0  0  0
   -2.0874   14.4263    8.6094 C   0  0  0  0  0  0  0  0  0  0  0  0
   -2.4930   15.3314    9.0687 H   0  0  0  0  0  0  0  0  0  0  0  0
   -2.8986   13.7669    8.2912 H   0  0  0  0  0  0  0  0  0  0  0  0
   -1.1962   14.7731    7.4444 C   0  0  0  0  0  0  0  0  0  0  0  0
   -1.1294   13.9394    6.3365 C   0  0  0  0  0  0  0  0  0  0  0  0
   -1.7383   13.0480    6.3037 H   0  0  0  0  0  0  0  0  0  0  0  0
   -0.2825   14.2447    5.2853 C   0  0  0  0  0  0  0  0  0  0  0  0
   -0.2387   13.5945    4.4238 H   0  0  0  0  0  0  0  0  0  0  0  0
    0.5074   15.3807    5.3372 C   0  0  0  0  0  0  0  0  0  0  0  0
    1.1667   15.6192    4.5153 H   0  0  0  0  0  0  0  0  0  0  0  0
    0.4526   16.2093    6.4456 C   0  0  0  0  0  0  0  0  0  0  0  0
    1.0709   17.0940    6.4908 H   0  0  0  0  0  0  0  0  0  0  0  0
   -0.3949   15.9067    7.4965 C   0  0  0  0  0  0  0  0  0  0  0  0
   -0.4363   16.5471    8.3655 H   0  0  0  0  0  0  0  0  0  0  0  0
    5.1675   11.2717   14.8645 C   0  0  0  0  0  0  0  0  0  0  0  0
    6.2507   11.1345   14.7438 H   0  0  0  0  0  0  0  0  0  0  0  0
    4.9306   12.3295   14.6922 H   0  0  0  0  0  0  0  0  0  0  0  0
    4.7420   10.9347   16.2658 C   0  0  1  0  0  3  0  0  0  0  0  0
    2.9640   10.4499   17.6509 C   0  0  0  0  0  0  0  0  0  0  0  0
    1.8988   10.2696   17.7255 H   0  0  0  0  0  0  0  0  0  0  0  0
    3.7891   10.4080   18.7610 C   0  0  0  0  0  0  0  0  0  0  0  0
    3.3695   10.1917   19.7297 H   0  0  0  0  0  0  0  0  0  0  0  0
    5.1474   10.6258   18.6000 C   0  0  0  0  0  0  0  0  0  0  0  0
    5.8217   10.5780   19.4406 H   0  0  0  0  0  0  0  0  0  0  0  0
    5.6282   10.9001   17.3295 C   0  0  0  0  0  0  0  0  0  0  0  0
    6.6790   11.0746   17.1595 H   0  0  0  0  0  0  0  0  0  0  0  0
    4.3422    8.1908   14.9603 C   0  0  0  0  0  0  0  0  0  0  0  0
    4.9485    9.0983   13.8319 C   0  0  0  0  0  0  0  0  0  0  0  0
    6.0426    9.0791   13.8928 H   0  0  0  0  0  0  0  0  0  0  0  0
    4.6465    8.6314   12.8898 H   0  0  0  0  0  0  0  0  0  0  0  0
    4.5408   11.1010   12.5605 C   0  0  0  0  0  0  0  0  0  0  0  0
    4.1320   12.1112   12.5889 H   0  0  0  0  0  0  0  0  0  0  0  0
    3.9833   10.5261   11.8218 H   0  0  0  0  0  0  0  0  0  0  0  0
    5.5896   11.1509   12.2463 H   0  0  0  0  0  0  0  0  0  0  0  0
    1.5015    9.7584   13.0362 N   0  0  0  0  0  0  0  0  0  0  0  0
    1.8924   12.1499   14.2283 N   0  0  0  0  0  0  0  0  0  0  0  0
   -1.3354   13.7275    9.6348 N   0  0  0  0  0  0  0  0  0  0  0  0
    3.4312   10.7087   16.4314 N   0  0  0  0  0  0  0  0  0  0  0  0
    4.4249   10.4717   13.8776 N   0  0  2  0  0  4  0  0  0  0  0  0
   -0.7277   15.5463   10.9003 O   0  0  0  0  0  0  0  0  0  0  0  0
   -1.5695   11.5974    8.7906 O   0  0  0  0  0  0  0  0  0  0  0  0
    3.1112    8.3977   15.2031 O   0  0  0  0  0  0  0  0  0  0  0  0
    5.0469    7.3482   15.4725 O   0  0  0  0  0  0  0  0  0  0  0  0
    0.4403   10.0360   15.7353 Cl  0  0  0  0  0  0  0  0  0  0  0  0
    2.4518   10.2818   14.7535 Rh  0  0  0  0  0  0  0  0  0  0  0  0
  1 59  1  0  0  0  0
  1  2  2  0  0  0  0
  2 60  1  0  0  0  0
  3  4  2  0  0  0  0
  4  6  1  0  0  0  0
  4  5  1  0  0  0  0
  6  7  1  0  0  0  0
  8  9  1  0  0  0  0
  8  6  2  0  0  0  0
 10  8  1  0  0  0  0
 11 10  1  0  0  0  0
 12 10  1  0  0  0  0
 12  3  1  0  0  0  0
 13  2  1  0  0  0  0
 13 12  2  0  0  0  0
 14 13  1  0  0  0  0
 15 64  2  0  0  0  0
 15 14  1  0  0  0  0
 16 61  1  0  0  0  0
 16 17  1  0  0  0  0
 17 18  1  0  0  0  0
 17 14  2  0  0  0  0
 18  1  1  0  0  0  0
 19 18  2  0  0  0  0
 19 21  1  0  0  0  0
 20 19  1  0  0  0  0
 21 23  2  0  0  0  0
 22 21  1  0  0  0  0
 23 24  1  0  0  0  0
 23 59  1  0  0  0  0
 25 26  1  0  0  0  0
 25 61  1  0  0  0  0
 27 25  1  0  0  0  0
 28 37  1  0  0  0  0
 28 25  1  0  0  0  0
 29 28  2  0  0  0  0
 30 29  1  0  0  0  0
 31 33  2  0  0  0  0
 31 29  1  0  0  0  0
 32 31  1  0  0  0  0
 33 35  1  0  0  0  0
 34 33  1  0  0  0  0
 35 36  1  0  0  0  0
 35 37  2  0  0  0  0
 37 38  1  0  0  0  0
 39 42  1  0  0  0  0
 40 39  1  0  0  0  0
 41 39  1  0  0  0  0
 42 62  1  0  0  0  0
 42 49  1  1  0  0  0
 43 44  1  0  0  0  0
 43 45  2  0  0  0  0
 45 46  1  0  0  0  0
 47 45  1  0  0  0  0
 47 48  1  0  0  0  0
 49 47  2  0  0  0  0
 50 49  1  0  0  0  0
 51 66  1  0  0  0  0
 51 67  2  0  0  0  0
 52 63  1  0  0  0  0
 52 53  1  0  0  0  0
 52 51  1  0  0  0  0
 54 52  1  0  0  0  0
 55 56  1  0  0  0  0
 57 55  1  0  0  0  0
 58 55  1  0  0  0  0
 59 69  1  0  0  0  0
 60  3  1  0  0  0  0
 60 69  1  0  0  0  0
 61 15  1  0  0  0  0
 62 43  1  0  0  0  0
 63 55  1  6  0  0  0
 63 69  1  0  0  0  0
 63 39  1  0  0  0  0
 65 16  2  0  0  0  0
 69 66  1  0  0  0  0
 69 68  1  0  0  0  0
 69 62  1  0  0  0  0
M  END
$$$$
