CSD_code = HUHPIK | q = 0 | S = 0 | Stoichiometry = C31H28Cl2N4Pd | MND = 4
 OpenBabel04212202043D

 66 72  0  0  1  0  0  0  0  0999 V2000
    0.1977   10.1903    2.2010 Pd  0  0  0  0  0  0  0  0  0  0  0  0
    1.7492   11.8327    2.0303 Cl  0  0  0  0  0  0  0  0  0  0  0  0
   -1.1621   11.3587    3.6013 Cl  0  0  0  0  0  0  0  0  0  0  0  0
   -2.1231    8.5975    1.3116 N   0  0  0  0  0  0  0  0  0  0  0  0
   -1.4621    7.9431    3.2483 N   0  0  0  0  0  0  0  0  0  0  0  0
    1.0731    8.8264   -0.2733 N   0  0  0  0  0  0  0  0  0  0  0  0
    2.3823    8.3761    1.3756 N   0  0  0  0  0  0  0  0  0  0  0  0
    5.2660    9.0200    3.6958 C   0  0  0  0  0  0  0  0  0  0  0  0
    4.9742    8.2655    4.8531 C   0  0  0  0  0  0  0  0  0  0  0  0
    4.0112    7.7923    4.9599 H   0  0  0  0  0  0  0  0  0  0  0  0
    5.8857    8.1411    5.8646 C   0  0  0  0  0  0  0  0  0  0  0  0
    5.6356    7.5639    6.7429 H   0  0  0  0  0  0  0  0  0  0  0  0
    7.1392    8.7620    5.7770 C   0  0  0  0  0  0  0  0  0  0  0  0
    7.8487    8.6499    6.5837 H   0  0  0  0  0  0  0  0  0  0  0  0
    7.4486    9.5139    4.6795 C   0  0  0  0  0  0  0  0  0  0  0  0
    8.4053   10.0114    4.6057 H   0  0  0  0  0  0  0  0  0  0  0  0
    6.5275    9.6715    3.6230 C   0  0  0  0  0  0  0  0  0  0  0  0
    6.8298   10.4785    2.5066 C   0  0  0  0  0  0  0  0  0  0  0  0
    7.7903   10.9720    2.4680 H   0  0  0  0  0  0  0  0  0  0  0  0
    5.9149   10.6494    1.5090 C   0  0  0  0  0  0  0  0  0  0  0  0
    6.1310   11.2902    0.6676 H   0  0  0  0  0  0  0  0  0  0  0  0
    4.6763    9.9958    1.5659 C   0  0  0  0  0  0  0  0  0  0  0  0
    3.9659   10.1711    0.7732 H   0  0  0  0  0  0  0  0  0  0  0  0
    4.3542    9.1779    2.6172 C   0  0  0  0  0  0  0  0  0  0  0  0
    3.0196    8.4683    2.6650 C   0  0  0  0  0  0  0  0  0  0  0  0
    3.1423    7.4580    3.0658 H   0  0  0  0  0  0  0  0  0  0  0  0
    2.3302    9.0430    3.3182 H   0  0  0  0  0  0  0  0  0  0  0  0
    1.3099    9.0973    1.0235 C   0  0  2  0  0  3  0  0  0  0  0  0
    2.8297    7.6499    0.3020 C   0  0  0  0  0  0  0  0  0  0  0  0
    3.6862    7.0105    0.3608 H   0  0  0  0  0  0  0  0  0  0  0  0
    2.0065    7.9301   -0.7355 C   0  0  0  0  0  0  0  0  0  0  0  0
    2.0142    7.5770   -1.7465 H   0  0  0  0  0  0  0  0  0  0  0  0
    0.0861    9.5248   -1.0614 C   0  0  0  0  0  0  0  0  0  0  0  0
    0.4468    9.5502   -2.0929 H   0  0  0  0  0  0  0  0  0  0  0  0
    0.0390   10.5577   -0.6780 H   0  0  0  0  0  0  0  0  0  0  0  0
   -1.3214    8.9013   -1.0351 C   0  0  0  0  0  0  0  0  0  0  0  0
   -1.8102    9.1641   -1.9739 H   0  0  0  0  0  0  0  0  0  0  0  0
   -1.2394    7.8121   -0.9962 H   0  0  0  0  0  0  0  0  0  0  0  0
   -2.2255    9.3910    0.1122 C   0  0  0  0  0  0  0  0  0  0  0  0
   -1.9602   10.4286    0.3817 H   0  0  0  0  0  0  0  0  0  0  0  0
   -3.2685    9.3688   -0.2127 H   0  0  0  0  0  0  0  0  0  0  0  0
   -1.1936    8.8064    2.2599 C   0  0  0  0  0  0  0  0  0  0  0  0
   -2.9794    7.6007    1.7098 C   0  0  0  0  0  0  0  0  0  0  0  0
   -3.8084    7.2800    1.1130 H   0  0  0  0  0  0  0  0  0  0  0  0
   -2.5597    7.1870    2.9287 C   0  0  0  0  0  0  0  0  0  0  0  0
   -2.9506    6.4344    3.5821 H   0  0  0  0  0  0  0  0  0  0  0  0
   -0.6564    7.8505    4.4350 C   0  0  0  0  0  0  0  0  0  0  0  0
   -1.3027    7.6101    5.2850 H   0  0  0  0  0  0  0  0  0  0  0  0
   -0.2221    8.8563    4.5939 H   0  0  0  0  0  0  0  0  0  0  0  0
    0.4499    6.8260    4.3164 C   0  0  0  0  0  0  0  0  0  0  0  0
    0.6159    6.0862    3.1734 C   0  0  0  0  0  0  0  0  0  0  0  0
   -0.0433    6.2263    2.3288 H   0  0  0  0  0  0  0  0  0  0  0  0
    1.6376    5.1307    3.0645 C   0  0  0  0  0  0  0  0  0  0  0  0
    1.7366    4.5701    2.1465 H   0  0  0  0  0  0  0  0  0  0  0  0
    2.4886    4.9112    4.1086 C   0  0  0  0  0  0  0  0  0  0  0  0
    3.2742    4.1731    4.0375 H   0  0  0  0  0  0  0  0  0  0  0  0
    2.3592    5.6514    5.3032 C   0  0  0  0  0  0  0  0  0  0  0  0
    3.2346    5.4412    6.3895 C   0  0  0  0  0  0  0  0  0  0  0  0
    4.0048    4.6897    6.2915 H   0  0  0  0  0  0  0  0  0  0  0  0
    3.1171    6.1754    7.5354 C   0  0  0  0  0  0  0  0  0  0  0  0
    3.7885    6.0081    8.3646 H   0  0  0  0  0  0  0  0  0  0  0  0
    2.1221    7.1581    7.6387 C   0  0  0  0  0  0  0  0  0  0  0  0
    2.0468    7.7429    8.5430 H   0  0  0  0  0  0  0  0  0  0  0  0
    1.2525    7.3810    6.6069 C   0  0  0  0  0  0  0  0  0  0  0  0
    0.5003    8.1467    6.7073 H   0  0  0  0  0  0  0  0  0  0  0  0
    1.3360    6.6328    5.4121 C   0  0  0  0  0  0  0  0  0  0  0  0
  1 42  2  0  0  0  0
  1  3  1  0  0  0  0
  2  1  1  0  0  0  0
  4 43  1  0  0  0  0
  4 42  1  0  0  0  0
  5 47  1  0  0  0  0
  7 25  1  0  0  0  0
  8  9  2  0  0  0  0
  9 10  1  0  0  0  0
  9 11  1  0  0  0  0
 11 12  1  0  0  0  0
 13 11  2  0  0  0  0
 13 14  1  0  0  0  0
 15 13  1  0  0  0  0
 16 15  1  0  0  0  0
 17  8  1  0  0  0  0
 17 15  2  0  0  0  0
 18 17  1  0  0  0  0
 19 18  1  0  0  0  0
 20 22  1  0  0  0  0
 20 18  2  0  0  0  0
 21 20  1  0  0  0  0
 22 24  2  0  0  0  0
 23 22  1  0  0  0  0
 24 25  1  0  0  0  0
 24  8  1  0  0  0  0
 25 26  1  0  0  0  0
 25 27  1  0  0  0  0
 28  6  1  1  0  0  0
 28  7  1  0  0  0  0
 28  1  1  0  0  0  0
 29 30  1  0  0  0  0
 29  7  1  0  0  0  0
 31  6  1  0  0  0  0
 31 29  2  0  0  0  0
 32 31  1  0  0  0  0
 33 36  1  0  0  0  0
 33 35  1  0  0  0  0
 33  6  1  0  0  0  0
 34 33  1  0  0  0  0
 36 38  1  0  0  0  0
 36 39  1  0  0  0  0
 37 36  1  0  0  0  0
 39 40  1  0  0  0  0
 39  4  1  0  0  0  0
 41 39  1  0  0  0  0
 42  5  1  0  0  0  0
 43 45  2  0  0  0  0
 44 43  1  0  0  0  0
 45  5  1  0  0  0  0
 45 46  1  0  0  0  0
 47 49  1  0  0  0  0
 47 48  1  0  0  0  0
 50 47  1  0  0  0  0
 50 66  1  0  0  0  0
 51 50  2  0  0  0  0
 52 51  1  0  0  0  0
 53 51  1  0  0  0  0
 53 55  2  0  0  0  0
 54 53  1  0  0  0  0
 55 57  1  0  0  0  0
 56 55  1  0  0  0  0
 57 66  2  0  0  0  0
 57 58  1  0  0  0  0
 58 60  2  0  0  0  0
 59 58  1  0  0  0  0
 60 62  1  0  0  0  0
 60 61  1  0  0  0  0
 62 63  1  0  0  0  0
 64 65  1  0  0  0  0
 64 62  2  0  0  0  0
 66 64  1  0  0  0  0
M  END
$$$$
