CSD_code = HUHRUY | q = 0 | S = 0 | Stoichiometry = C24H29BrNNiP | MND = 5
 OpenBabel04212202043D

 57 58  0  0  0  0  0  0  0  0999 V2000
    8.3760    1.9162    8.1901 Br  0  0  0  0  0 15  0  0  0  0  0  0
    6.4635    2.8567    8.8475 Ni  0  0  0  0  0  0  0  0  0  0  0  0
    7.0032    4.8816    8.2645 P   0  0  0  0  0  0  0  0  0  0  0  0
    6.9885    4.9215    6.4451 C   0  0  0  0  0  0  0  0  0  0  0  0
    7.5111    5.9737    5.7000 C   0  0  0  0  0  0  0  0  0  0  0  0
    7.9459    6.8281    6.1983 H   0  0  0  0  0  0  0  0  0  0  0  0
    7.4683    5.9264    4.3188 C   0  0  0  0  0  0  0  0  0  0  0  0
    7.8760    6.7437    3.7421 H   0  0  0  0  0  0  0  0  0  0  0  0
    6.9088    4.8351    3.6728 C   0  0  0  0  0  0  0  0  0  0  0  0
    6.8826    4.8033    2.5938 H   0  0  0  0  0  0  0  0  0  0  0  0
    6.3895    3.7830    4.4084 C   0  0  0  0  0  0  0  0  0  0  0  0
    5.9606    2.9286    3.9066 H   0  0  0  0  0  0  0  0  0  0  0  0
    6.4309    3.8291    5.7890 C   0  0  0  0  0  0  0  0  0  0  0  0
    6.0380    2.9985    6.3776 H   0  0  0  0  0  0  0  0  0  0  0  0
    5.9621    6.2941    8.7505 C   0  0  0  0  0  0  0  0  0  0  0  0
    5.8598    6.5724   10.1116 C   0  0  0  0  0  0  0  0  0  0  0  0
    6.4072    5.9685   10.8220 H   0  0  0  0  0  0  0  0  0  0  0  0
    5.0736    7.6198   10.5517 C   0  0  0  0  0  0  0  0  0  0  0  0
    5.0087    7.8362   11.6079 H   0  0  0  0  0  0  0  0  0  0  0  0
    4.4404    8.0938    8.2878 C   0  0  0  0  0  0  0  0  0  0  0  0
    3.8788    8.6807    7.5754 H   0  0  0  0  0  0  0  0  0  0  0  0
    4.3635    8.3841    9.6396 C   0  0  0  0  0  0  0  0  0  0  0  0
    3.7439    9.1995    9.9824 H   0  0  0  0  0  0  0  0  0  0  0  0
    5.2333    7.0510    7.8412 C   0  0  0  0  0  0  0  0  0  0  0  0
    5.2823    6.8258    6.7851 H   0  0  0  0  0  0  0  0  0  0  0  0
    8.6977    5.5333    8.6783 C   0  0  0  0  0  0  0  0  0  0  0  0
    9.4145    4.9202    8.1211 H   0  0  0  0  0  0  0  0  0  0  0  0
    8.7704    6.5746    8.3605 H   0  0  0  0  0  0  0  0  0  0  0  0
    8.9172    5.4169   10.1423 C   0  0  0  0  0  0  0  0  0  0  0  0
    8.9426    4.1876   10.7280 N   0  0  0  0  0  0  0  0  0  0  0  0
    8.9769    3.3183   10.2129 H   0  0  0  0  0  0  0  0  0  0  0  0
    9.0813    4.3105   12.0767 C   0  0  0  0  0  0  0  0  0  0  0  0
    9.1241    5.6530   12.3617 C   0  0  0  0  0  0  0  0  0  0  0  0
    9.2199    6.1018   13.3300 H   0  0  0  0  0  0  0  0  0  0  0  0
    9.0160    6.3531   11.1410 C   0  0  0  0  0  0  0  0  0  0  0  0
    9.0114    7.4186   11.0159 H   0  0  0  0  0  0  0  0  0  0  0  0
    9.1198    3.0852   12.9441 C   0  0  0  0  0  0  0  0  0  0  0  0
    7.8173    2.2995   12.7363 C   0  0  0  0  0  0  0  0  0  0  0  0
    7.8275    1.3820   13.3207 H   0  0  0  0  0  0  0  0  0  0  0  0
    7.7012    2.0345   11.6855 H   0  0  0  0  0  0  0  0  0  0  0  0
    6.9609    2.8978   13.0442 H   0  0  0  0  0  0  0  0  0  0  0  0
   10.3133    2.2103   12.5365 C   0  0  0  0  0  0  0  0  0  0  0  0
   10.3823    1.3434   13.1900 H   0  0  0  0  0  0  0  0  0  0  0  0
   11.2383    2.7767   12.6152 H   0  0  0  0  0  0  0  0  0  0  0  0
   10.2128    1.8571   11.5128 H   0  0  0  0  0  0  0  0  0  0  0  0
    9.2528    3.4786   14.4155 C   0  0  0  0  0  0  0  0  0  0  0  0
    9.2686    2.5888   15.0411 H   0  0  0  0  0  0  0  0  0  0  0  0
    8.4165    4.1018   14.7237 H   0  0  0  0  0  0  0  0  0  0  0  0
   10.1749    4.0308   14.5776 H   0  0  0  0  0  0  0  0  0  0  0  0
    5.6162    1.1412    9.3998 C   0  0  0  0  0  0  0  0  0  0  0  0
    5.6711    0.1918    8.8792 H   0  0  0  0  0  0  0  0  0  0  0  0
    5.9909    1.1135   10.4249 H   0  0  0  0  0  0  0  0  0  0  0  0
    4.6346    2.0726    9.0529 C   0  0  0  0  0  3  0  0  0  0  0  0
    4.0026    1.9005    8.1848 H   0  0  0  0  0  0  0  0  0  0  0  0
    4.6952    3.3388    9.6306 C   0  0  0  0  0  0  0  0  0  0  0  0
    5.0523    3.4440   10.6560 H   0  0  0  0  0  0  0  0  0  0  0  0
    4.0117    4.1163    9.3114 H   0  0  0  0  0  0  0  0  0  0  0  0
  2 50  1  0  0  0  0
  2 55  1  0  0  0  0
  3 26  1  0  0  0  0
  3 15  1  0  0  0  0
  4  3  1  0  0  0  0
  5  6  1  0  0  0  0
  5  4  2  0  0  0  0
  7  5  1  0  0  0  0
  8  7  1  0  0  0  0
  9  7  2  0  0  0  0
  9 11  1  0  0  0  0
 10  9  1  0  0  0  0
 11 13  2  0  0  0  0
 12 11  1  0  0  0  0
 13 14  1  0  0  0  0
 13  4  1  0  0  0  0
 15 16  1  0  0  0  0
 16 18  2  0  0  0  0
 16 17  1  0  0  0  0
 18 19  1  0  0  0  0
 20 22  2  0  0  0  0
 21 20  1  0  0  0  0
 22 23  1  0  0  0  0
 22 18  1  0  0  0  0
 24 20  1  0  0  0  0
 24 15  2  0  0  0  0
 25 24  1  0  0  0  0
 26 29  1  0  0  0  0
 27 26  1  0  0  0  0
 28 26  1  0  0  0  0
 29 30  1  0  0  0  0
 29 35  2  0  0  0  0
 30 32  1  0  0  0  0
 31 30  1  0  0  0  0
 32 33  2  0  0  0  0
 32 37  1  0  0  0  0
 33 34  1  0  0  0  0
 35 33  1  0  0  0  0
 36 35  1  0  0  0  0
 37 46  1  0  0  0  0
 38 37  1  0  0  0  0
 38 41  1  0  0  0  0
 38 39  1  0  0  0  0
 40 38  1  0  0  0  0
 42 44  1  0  0  0  0
 42 37  1  0  0  0  0
 42 43  1  0  0  0  0
 45 42  1  0  0  0  0
 46 49  1  0  0  0  0
 46 48  1  0  0  0  0
 46 47  1  0  0  0  0
 50 52  1  0  0  0  0
 51 50  1  0  0  0  0
 53 50  1  0  0  0  0
 53 55  1  0  0  0  0
 54 53  1  0  0  0  0
 55 56  1  0  0  0  0
 57 55  1  0  0  0  0
M  END
$$$$
