CSD_code = HUJLEE | q = 0 | S = 0 | Stoichiometry = C16H16ClCoS4 | MND = 8
 OpenBabel04212202043D

 38 39  0  0  1  0  0  0  0  0999 V2000
    9.8316    1.8048    9.0965 Co  0  0  0  0  0  0  0  0  0  0  0  0
    9.2298    3.8599    8.8125 Cl  0  0  0  0  0 15  0  0  0  0  0  0
    7.8749    1.3922    7.9737 S   0  0  0  0  0  0  0  0  0  0  0  0
    8.7170    1.7789   11.0513 S   0  0  0  0  0  0  0  0  0  0  0  0
    5.0182    1.4097    8.7318 S   0  0  0  0  0  0  0  0  0  0  0  0
    5.8874    2.2544   11.7728 S   0  0  0  0  0  0  0  0  0  0  0  0
    6.6803    1.5643    9.2764 C   0  0  2  0  0  3  0  0  0  0  0  0
    7.0879    1.8655   10.5229 C   0  0  0  0  0  0  0  0  0  0  0  0
    4.2748    0.2700   10.0022 C   0  0  0  0  0  0  0  0  0  0  0  0
    5.8068    0.5975   12.5778 C   0  0  0  0  0  0  0  0  0  0  0  0
    5.2771   -0.7273   10.4705 C   0  0  0  0  0  0  0  0  0  0  0  0
    5.5096   -1.8515    9.6849 C   0  0  0  0  0  0  0  0  0  0  0  0
    6.4903   -2.7681   10.0141 C   0  0  0  0  0  0  0  0  0  0  0  0
    7.2677   -2.5593   11.1402 C   0  0  0  0  0  0  0  0  0  0  0  0
    7.0337   -1.4557   11.9391 C   0  0  0  0  0  0  0  0  0  0  0  0
    6.0348   -0.5382   11.6317 C   0  0  0  0  0  0  0  0  0  0  0  0
    7.6290   -0.3721    7.5692 C   0  0  0  0  0  0  0  0  0  0  0  0
   11.8447    1.9862    9.5429 C   0  0  1  0  0  0  0  0  0  0  0  0
   11.4008    0.6980    9.9453 C   0  0  0  0  0  3  0  0  0  0  0  0
   10.9008    0.0376    8.8076 C   0  0  2  0  0  0  0  0  0  0  0  0
   11.1085    0.8869    7.6788 C   0  0  0  0  0  0  0  0  0  0  0  0
   11.7048    2.0743    8.1305 C   0  0  0  0  0  0  0  0  0  0  0  0
    6.5966   -0.4948    7.2570 H   0  0  0  0  0  0  0  0  0  0  0  0
    8.2978   -0.6063    6.7481 H   0  0  0  0  0  0  0  0  0  0  0  0
    7.8415   -0.9902    8.4350 H   0  0  0  0  0  0  0  0  0  0  0  0
    3.8729    0.8892   10.7992 H   0  0  0  0  0  0  0  0  0  0  0  0
    3.4606   -0.2054    9.4565 H   0  0  0  0  0  0  0  0  0  0  0  0
    6.5538    0.5895   13.3704 H   0  0  0  0  0  0  0  0  0  0  0  0
    4.8109    0.5569   13.0222 H   0  0  0  0  0  0  0  0  0  0  0  0
    4.9106   -1.9995    8.7977 H   0  0  0  0  0  0  0  0  0  0  0  0
    6.6518   -3.6344    9.3899 H   0  0  0  0  0  0  0  0  0  0  0  0
    8.0510   -3.2555   11.3997 H   0  0  0  0  0  0  0  0  0  0  0  0
    7.6366   -1.2979   12.8210 H   0  0  0  0  0  0  0  0  0  0  0  0
   12.3444    2.7062   10.1717 H   0  0  0  0  0  0  0  0  0  0  0  0
   11.4671    0.2901   10.9407 H   0  0  0  0  0  0  0  0  0  0  0  0
   10.5647   -0.9863    8.7711 H   0  0  0  0  0  0  0  0  0  0  0  0
   10.9290    0.6232    6.6486 H   0  0  0  0  0  0  0  0  0  0  0  0
   12.0361    2.8944    7.5156 H   0  0  0  0  0  0  0  0  0  0  0  0
  1 18  1  0  0  0  0
  5  7  1  0  0  0  0
  5  9  1  0  0  0  0
  6 10  1  0  0  0  0
  7  3  1  6  0  0  0
  7  8  1  0  0  0  0
  8  4  2  0  0  0  0
  8  6  1  0  0  0  0
  9 11  1  0  0  0  0
  9 26  1  0  0  0  0
 10 29  1  0  0  0  0
 10 28  1  0  0  0  0
 11 16  1  0  0  0  0
 12 13  1  0  0  0  0
 12 11  2  0  0  0  0
 13 14  2  0  0  0  0
 14 32  1  0  0  0  0
 14 15  1  0  0  0  0
 15 33  1  0  0  0  0
 16 15  2  0  0  0  0
 16 10  1  0  0  0  0
 17  3  1  0  0  0  0
 17 25  1  0  0  0  0
 18 19  1  0  0  0  0
 18 34  1  1  0  0  0
 19 35  1  0  0  0  0
 20 36  1  6  0  0  0
 20  1  1  0  0  0  0
 20 19  1  0  0  0  0
 21 22  2  0  0  0  0
 21 20  1  0  0  0  0
 22 18  1  0  0  0  0
 23 17  1  0  0  0  0
 24 17  1  0  0  0  0
 27  9  1  0  0  0  0
 30 12  1  0  0  0  0
 31 13  1  0  0  0  0
 37 21  1  0  0  0  0
 38 22  1  0  0  0  0
M  END
$$$$
