CSD_code = HUJLAZ | q = 1 | S = 0 | Stoichiometry = C27H22ClN6Ru(1+) | MND = 6
 OpenBabel04212202043D

 57 64  0  0  1  0  0  0  0  0999 V2000
    3.6644   11.1113    3.3537 Ru  0  0  0  0  0  0  0  0  0  0  0  0
    2.7424   13.2546    3.5807 Cl  0  0  0  0  0  0  0  0  0  0  0  0
    5.0405   11.7748    4.4550 N   0  0  0  0  0  0  0  0  0  0  0  0
    2.8509   10.6781    5.1385 N   0  0  0  0  0  0  0  0  0  0  0  0
    4.8854   11.8426    1.9146 N   0  0  0  0  0  0  0  0  0  0  0  0
    2.1865   10.4237    2.1625 N   0  0  0  0  0  0  0  0  0  0  0  0
    4.3539    9.2914    2.9062 N   0  0  0  0  0  0  0  0  0  0  0  0
    9.4736    7.8153    4.4666 N   0  0  0  0  0  0  0  0  0  0  0  0
    9.6730    7.6732    5.4412 H   0  0  0  0  0  0  0  0  0  0  0  0
   10.0953    7.3860    3.8040 H   0  0  0  0  0  0  0  0  0  0  0  0
    6.0865   12.3970    3.8872 C   0  0  0  0  0  0  0  0  0  0  0  0
    7.0531   13.0106    4.6777 C   0  0  0  0  0  0  0  0  0  0  0  0
    7.8958   13.5115    4.2315 H   0  0  0  0  0  0  0  0  0  0  0  0
    6.8984   12.9952    6.0567 C   0  0  0  0  0  0  0  0  0  0  0  0
    7.6341   13.4686    6.6867 H   0  0  0  0  0  0  0  0  0  0  0  0
    5.7765   12.4071    6.6211 C   0  0  0  0  0  0  0  0  0  0  0  0
    5.6251   12.4376    7.6871 H   0  0  0  0  0  0  0  0  0  0  0  0
    4.8440   11.8003    5.7844 C   0  0  0  0  0  0  0  0  0  0  0  0
    3.5822   11.1724    6.1715 C   0  0  1  0  0  3  0  0  0  0  0  0
    3.1299   11.0776    7.4868 C   0  0  0  0  0  0  0  0  0  0  0  0
    3.7247   11.4837    8.2882 H   0  0  0  0  0  0  0  0  0  0  0  0
    1.9155   10.4741    7.7509 C   0  0  0  0  0  0  0  0  0  0  0  0
    1.5471   10.4013    8.7617 H   0  0  0  0  0  0  0  0  0  0  0  0
    1.1807    9.9663    6.6865 C   0  0  0  0  0  0  0  0  0  0  0  0
    0.2281    9.4885    6.8459 H   0  0  0  0  0  0  0  0  0  0  0  0
    1.6860   10.0922    5.4062 C   0  0  0  0  0  0  0  0  0  0  0  0
    1.1312    9.7134    4.5552 H   0  0  0  0  0  0  0  0  0  0  0  0
    6.0111   12.3985    2.4270 C   0  0  0  0  0  0  0  0  0  0  0  0
    6.9841   12.9500    1.5954 C   0  0  0  0  0  0  0  0  0  0  0  0
    7.8728   13.3834    2.0236 H   0  0  0  0  0  0  0  0  0  0  0  0
    6.7964   12.9447    0.2262 C   0  0  0  0  0  0  0  0  0  0  0  0
    7.5359   13.3749   -0.4305 H   0  0  0  0  0  0  0  0  0  0  0  0
    5.6330   12.3834   -0.2840 C   0  0  0  0  0  0  0  0  0  0  0  0
    5.4392   12.3689   -1.3439 H   0  0  0  0  0  0  0  0  0  0  0  0
    4.7117   11.8461    0.5963 C   0  0  0  0  0  0  0  0  0  0  0  0
    3.7898   11.4091    0.2295 H   0  0  0  0  0  0  0  0  0  0  0  0
    1.0528   11.0497    1.8496 C   0  0  0  0  0  3  0  0  0  0  0  0
    0.9065   12.0202    2.3086 H   0  0  0  0  0  0  0  0  0  0  0  0
    0.1156   10.5108    0.9865 C   0  0  0  0  0  0  0  0  0  0  0  0
   -0.7855   11.0588    0.7657 H   0  0  0  0  0  0  0  0  0  0  0  0
    0.3527    9.2642    0.4126 C   0  0  0  0  0  0  0  0  0  0  0  0
   -0.3625    8.8247   -0.2642 H   0  0  0  0  0  0  0  0  0  0  0  0
    1.5224    8.6036    0.7273 C   0  0  0  0  0  0  0  0  0  0  0  0
    1.7544    7.6368    0.3095 H   0  0  0  0  0  0  0  0  0  0  0  0
    2.4264    9.2051    1.6091 C   0  0  0  0  0  0  0  0  0  0  0  0
    3.6707    8.6294    2.0189 C   0  0  0  0  0  3  0  0  0  0  0  0
    4.0137    7.6817    1.6166 H   0  0  0  0  0  0  0  0  0  0  0  0
    5.6243    8.8697    3.2871 C   0  0  0  0  0  0  0  0  0  0  0  0
    5.9846    8.8854    4.6379 C   0  0  0  0  0  0  0  0  0  0  0  0
    5.2411    9.1448    5.3789 H   0  0  0  0  0  0  0  0  0  0  0  0
    7.2462    8.5104    5.0311 C   0  0  0  0  0  0  0  0  0  0  0  0
    7.5058    8.5049    6.0791 H   0  0  0  0  0  0  0  0  0  0  0  0
    8.2077    8.1231    4.0854 C   0  0  0  0  0  0  0  0  0  0  0  0
    7.8424    8.1127    2.7319 C   0  0  0  0  0  0  0  0  0  0  0  0
    8.5716    7.8230    1.9906 H   0  0  0  0  0  0  0  0  0  0  0  0
    6.5720    8.4638    2.3417 C   0  0  0  0  0  0  0  0  0  0  0  0
    6.3116    8.4689    1.2929 H   0  0  0  0  0  0  0  0  0  0  0  0
  1  2  1  0  0  0  0
  1  3  1  0  0  0  0
  1  4  1  0  0  0  0
  3 18  1  0  0  0  0
  4 26  1  0  0  0  0
  4 19  1  0  0  0  0
  5 28  1  0  0  0  0
  5  1  1  0  0  0  0
  6  1  1  0  0  0  0
  7 48  1  0  0  0  0
  7  1  1  0  0  0  0
  8  9  1  0  0  0  0
 10  8  1  0  0  0  0
 11  3  1  0  0  0  0
 11 12  1  0  0  0  0
 12 14  2  0  0  0  0
 13 12  1  0  0  0  0
 14 16  1  0  0  0  0
 14 15  1  0  0  0  0
 16 17  1  0  0  0  0
 18 16  2  0  0  0  0
 19 18  1  6  0  0  0
 19 20  1  0  0  0  0
 20 22  2  0  0  0  0
 20 21  1  0  0  0  0
 22 23  1  0  0  0  0
 24 25  1  0  0  0  0
 24 22  1  0  0  0  0
 26 24  2  0  0  0  0
 27 26  1  0  0  0  0
 28 11  2  0  0  0  0
 29 30  1  0  0  0  0
 29 28  1  0  0  0  0
 31 29  2  0  0  0  0
 32 31  1  0  0  0  0
 33 31  1  0  0  0  0
 33 35  2  0  0  0  0
 34 33  1  0  0  0  0
 35  5  1  0  0  0  0
 36 35  1  0  0  0  0
 37  6  1  0  0  0  0
 37 38  1  0  0  0  0
 39 37  1  0  0  0  0
 40 39  1  0  0  0  0
 41 43  1  0  0  0  0
 41 39  2  0  0  0  0
 42 41  1  0  0  0  0
 43 45  2  0  0  0  0
 44 43  1  0  0  0  0
 45 46  1  0  0  0  0
 45  6  1  0  0  0  0
 46  7  1  0  0  0  0
 47 46  1  0  0  0  0
 48 49  1  0  0  0  0
 49 51  2  0  0  0  0
 49 50  1  0  0  0  0
 51 52  1  0  0  0  0
 53  8  1  0  0  0  0
 53 51  1  0  0  0  0
 54 53  2  0  0  0  0
 55 54  1  0  0  0  0
 56 54  1  0  0  0  0
 56 48  2  0  0  0  0
 57 56  1  0  0  0  0
M  END
$$$$
