CSD_code = HUJMAA | q = 0 | S = 0 | Stoichiometry = C10H17ClN4O6PtS | MND = 4
 OpenBabel04212202043D

 40 42  0  0  1  0  0  0  0  0999 V2000
    2.7245    1.1816    9.7629 Pt  0  0  1  0  0  0  0  0  0  0  0  0
    2.2140   -0.6168    8.5387 Cl  0  0  0  0  0  0  0  0  0  0  0  0
    2.7858   -0.2359   11.5307 S   0  0  0  0  0  0  0  0  0  0  0  0
    2.9523    0.4043   12.8450 O   0  0  0  0  0  1  0  0  0  0  0  0
    2.1916    4.7144    7.8322 O   0  0  0  0  0  0  0  0  0  0  0  0
    2.3744    7.5517   13.8419 O   0  0  0  0  0  0  0  0  0  0  0  0
    1.6208    8.1388   13.7122 H   0  0  0  0  0  0  0  0  0  0  0  0
    0.5351    6.2026   15.1836 O   0  0  0  0  0  0  0  0  0  0  0  0
    1.1546    6.8429   15.5655 H   0  0  0  0  0  0  0  0  0  0  0  0
    3.5368    4.7388   14.2880 O   0  0  0  0  0  0  0  0  0  0  0  0
    1.4466    2.6522   13.5448 O   0  0  0  0  0  0  0  0  0  0  0  0
    1.8347    1.7879   13.3206 H   0  0  0  0  0  0  0  0  0  0  0  0
    2.8416    5.0552   10.7940 N   0  0  0  0  0  0  0  0  0  0  0  0
    3.2784    4.6222   11.9800 N   0  0  0  0  0  0  0  0  0  0  0  0
    3.1729    2.8708   10.7379 N   0  0  0  0  0  0  0  0  0  0  0  0
    2.4832    2.4950    8.2910 N   0  0  0  0  0  0  0  0  0  0  0  0
    2.2671    2.2793    7.3205 H   0  0  0  0  0  0  0  0  0  0  0  0
    3.4883    3.3038   11.9407 C   0  0  0  0  0  3  0  0  0  0  0  0
    3.8832    2.7241   12.7489 H   0  0  0  0  0  0  0  0  0  0  0  0
    2.7877    3.9841   10.0466 C   0  0  0  0  0  0  0  0  0  0  0  0
    2.4383    3.8010    8.5939 C   0  0  0  0  0  0  0  0  0  0  0  0
    3.3754    5.4958   13.1415 C   0  0  1  0  0  0  0  0  0  0  0  0
    4.2402    6.1604   13.0241 H   0  0  0  0  0  0  0  0  0  0  0  0
    2.0734    6.2994   13.2807 C   0  0  1  0  0  0  0  0  0  0  0  0
    1.5961    6.4070   12.3020 H   0  0  0  0  0  0  0  0  0  0  0  0
    1.2354    5.4284   14.2614 C   0  0  1  0  0  0  0  0  0  0  0  0
    0.4957    4.8365   13.7186 H   0  0  0  0  0  0  0  0  0  0  0  0
    2.2762    4.4901   14.9182 C   0  0  1  0  0  0  0  0  0  0  0  0
    2.4012    4.7491   15.9769 H   0  0  0  0  0  0  0  0  0  0  0  0
    1.8736    3.0091   14.8405 C   0  0  0  0  0  0  0  0  0  0  0  0
    2.7293    2.4053   15.1554 H   0  0  0  0  0  0  0  0  0  0  0  0
    1.0498    2.8530   15.5503 H   0  0  0  0  0  0  0  0  0  0  0  0
    1.2752   -1.2334   11.6531 C   0  0  0  0  0  0  0  0  0  0  0  0
    1.1719   -1.7938   10.7310 H   0  0  0  0  0  0  0  0  0  0  0  0
    0.4378   -0.5529   11.7735 H   0  0  0  0  0  0  0  0  0  0  0  0
    1.3557   -1.8833   12.5168 H   0  0  0  0  0  0  0  0  0  0  0  0
    3.9921   -1.5908   11.4410 C   0  0  0  0  0  0  0  0  0  0  0  0
    3.8235   -2.1017   10.4996 H   0  0  0  0  0  0  0  0  0  0  0  0
    3.8531   -2.2526   12.2877 H   0  0  0  0  0  0  0  0  0  0  0  0
    4.9865   -1.1575   11.4628 H   0  0  0  0  0  0  0  0  0  0  0  0
  1  2  1  6  0  0  0
  1 15  1  0  0  0  0
  1  3  1  0  0  0  0
  3 33  1  0  0  0  0
  3  4  1  0  0  0  0
  5 21  2  0  0  0  0
  7  6  1  0  0  0  0
  8  9  1  0  0  0  0
 10 28  1  0  0  0  0
 11 30  1  0  0  0  0
 12 11  1  0  0  0  0
 13 14  1  0  0  0  0
 14 22  1  0  0  0  0
 15 18  1  0  0  0  0
 16 21  1  0  0  0  0
 16  1  1  0  0  0  0
 17 16  1  0  0  0  0
 18 14  1  0  0  0  0
 18 19  1  0  0  0  0
 20 15  1  0  0  0  0
 20 13  2  0  0  0  0
 21 20  1  0  0  0  0
 22 23  1  6  0  0  0
 22 24  1  0  0  0  0
 22 10  1  0  0  0  0
 24 25  1  6  0  0  0
 24  6  1  0  0  0  0
 24 26  1  0  0  0  0
 26 27  1  6  0  0  0
 26 28  1  0  0  0  0
 26  8  1  0  0  0  0
 28 29  1  1  0  0  0
 30 28  1  0  0  0  0
 30 31  1  0  0  0  0
 30 32  1  0  0  0  0
 33 35  1  0  0  0  0
 33 36  1  0  0  0  0
 34 33  1  0  0  0  0
 37 40  1  0  0  0  0
 37  3  1  0  0  0  0
 37 39  1  0  0  0  0
 38 37  1  0  0  0  0
M  END
$$$$
