CSD_code = HUJXUF | q = 0 | S = 0 | Stoichiometry = C13H28I2O7P2W | MND = 7
 OpenBabel04212202043D

 53 48  0  0  0  0  0  0  0  0999 V2000
    7.9003    4.2184   12.0771 W   0  0  0  0  0  0  0  0  0  0  0  0
    7.7856    3.3831   14.7287 I   0  0  0  0  0 15  0  0  0  0  0  0
    9.5273    2.0373   11.4457 I   0  0  0  0  0 15  0  0  0  0  0  0
    5.9923    2.8069   11.7159 P   0  0  0  0  0  0  0  0  0  0  0  0
    5.2094    1.8954   12.7877 O   0  0  0  0  0  0  0  0  0  0  0  0
    5.6795    0.6059   13.1686 C   0  0  0  0  0  0  0  0  0  0  0  0
    5.8801   -0.0068   12.2892 H   0  0  0  0  0  0  0  0  0  0  0  0
    4.8820    0.1569   13.7579 H   0  0  0  0  0  0  0  0  0  0  0  0
    6.5807    0.6812   13.7799 H   0  0  0  0  0  0  0  0  0  0  0  0
    4.8424    3.9383   11.5207 O   0  0  0  0  0  0  0  0  0  0  0  0
    3.4871    3.5830   11.2518 C   0  0  0  0  0  0  0  0  0  0  0  0
    3.4396    2.6228   10.7377 H   0  0  0  0  0  0  0  0  0  0  0  0
    3.0673    4.3641   10.6180 H   0  0  0  0  0  0  0  0  0  0  0  0
    2.9260    3.5219   12.1844 H   0  0  0  0  0  0  0  0  0  0  0  0
    5.7693    1.8137   10.4534 O   0  0  0  0  0  0  0  0  0  0  0  0
    6.5606    1.6775    9.2868 C   0  0  0  0  0  0  0  0  0  0  0  0
    5.9095    1.7981    8.4191 H   0  0  0  0  0  0  0  0  0  0  0  0
    7.0013    0.6792    9.2785 H   0  0  0  0  0  0  0  0  0  0  0  0
    7.3622    2.4170    9.2420 H   0  0  0  0  0  0  0  0  0  0  0  0
    6.4336    5.9641   12.9485 P   0  0  0  0  0  0  0  0  0  0  0  0
    6.0838    7.1588   11.9291 O   0  0  0  0  0  0  0  0  0  0  0  0
    5.0675    7.0725   10.9484 C   0  0  0  0  0  0  0  0  0  0  0  0
    5.0039    8.0566   10.4837 H   0  0  0  0  0  0  0  0  0  0  0  0
    4.1121    6.8164   11.4064 H   0  0  0  0  0  0  0  0  0  0  0  0
    5.3226    6.3241   10.1954 H   0  0  0  0  0  0  0  0  0  0  0  0
    7.3666    6.7716   13.9701 O   0  0  0  0  0  0  0  0  0  0  0  0
    6.9584    7.9625   14.6427 C   0  0  0  0  0  0  0  0  0  0  0  0
    5.8761    7.9831   14.7787 H   0  0  0  0  0  0  0  0  0  0  0  0
    7.2688    8.8317   14.0626 H   0  0  0  0  0  0  0  0  0  0  0  0
    7.4575    7.9632   15.6113 H   0  0  0  0  0  0  0  0  0  0  0  0
    4.9787    5.9342   13.6811 O   0  0  0  0  0  0  0  0  0  0  0  0
    4.5455    4.9869   14.6434 C   0  0  0  0  0  0  0  0  0  0  0  0
    3.5196    5.2607   14.8922 H   0  0  0  0  0  0  0  0  0  0  0  0
    5.1615    5.0230   15.5437 H   0  0  0  0  0  0  0  0  0  0  0  0
    4.5619    3.9738   14.2374 H   0  0  0  0  0  0  0  0  0  0  0  0
    9.4123    5.3441   12.6223 C   0  0  0  0  0  2  0  0  0  0  0  0
   10.2603    6.0705   12.9136 O   0  0  0  0  0  1  0  0  0  0  0  0
    7.3442    4.7403   10.1427 C   0  0  0  0  0  0  0  0  0  0  0  0
    6.7210    4.6768    9.2559 H   0  0  0  0  0  0  0  0  0  0  0  0
    8.4033    5.4608   10.4346 C   0  0  0  0  0  3  0  0  0  0  0  0
    9.2535    6.4479    9.6927 C   0  0  0  0  0  0  0  0  0  0  0  0
    8.6975    6.6168    8.2690 C   0  0  0  0  0  0  0  0  0  0  0  0
    8.7010    5.6650    7.7406 H   0  0  0  0  0  0  0  0  0  0  0  0
    9.3116    7.3198    7.7102 H   0  0  0  0  0  0  0  0  0  0  0  0
    7.6782    6.9993    8.2979 H   0  0  0  0  0  0  0  0  0  0  0  0
    9.2256    7.8098   10.4004 C   0  0  0  0  0  0  0  0  0  0  0  0
    8.1984    8.1451   10.5390 H   0  0  0  0  0  0  0  0  0  0  0  0
    9.7555    8.5467    9.7998 H   0  0  0  0  0  0  0  0  0  0  0  0
    9.7027    7.7594   11.3745 H   0  0  0  0  0  0  0  0  0  0  0  0
   10.6914    5.9152    9.6064 C   0  0  0  0  0  0  0  0  0  0  0  0
   11.1440    5.8376   10.5911 H   0  0  0  0  0  0  0  0  0  0  0  0
   11.3001    6.5865    9.0042 H   0  0  0  0  0  0  0  0  0  0  0  0
   10.7047    4.9281    9.1452 H   0  0  0  0  0  0  0  0  0  0  0  0
  1 36  1  0  0  0  0
  4  5  1  0  0  0  0
  5  6  1  0  0  0  0
  6  8  1  0  0  0  0
  6  9  1  0  0  0  0
  7  6  1  0  0  0  0
 10  4  1  0  0  0  0
 11 10  1  0  0  0  0
 11 14  1  0  0  0  0
 12 11  1  0  0  0  0
 13 11  1  0  0  0  0
 15  4  1  0  0  0  0
 16 15  1  0  0  0  0
 17 16  1  0  0  0  0
 18 16  1  0  0  0  0
 19 16  1  0  0  0  0
 20 31  1  0  0  0  0
 20 26  1  0  0  0  0
 21 20  1  0  0  0  0
 22 24  1  0  0  0  0
 22 21  1  0  0  0  0
 23 22  1  0  0  0  0
 25 22  1  0  0  0  0
 26 27  1  0  0  0  0
 27 28  1  0  0  0  0
 27 30  1  0  0  0  0
 29 27  1  0  0  0  0
 31 32  1  0  0  0  0
 32 33  1  0  0  0  0
 32 34  1  0  0  0  0
 35 32  1  0  0  0  0
 36 37  1  0  0  0  0
 38 40  2  0  0  0  0
 38  1  1  0  0  0  0
 39 38  1  0  0  0  0
 41 46  1  0  0  0  0
 41 40  1  0  0  0  0
 42 45  1  0  0  0  0
 42 41  1  0  0  0  0
 43 42  1  0  0  0  0
 44 42  1  0  0  0  0
 46 47  1  0  0  0  0
 46 49  1  0  0  0  0
 48 46  1  0  0  0  0
 50 41  1  0  0  0  0
 50 51  1  0  0  0  0
 52 50  1  0  0  0  0
 53 50  1  0  0  0  0
M  END
$$$$
