CSD_code = HUJYER | q = 0 | S = 0 | Stoichiometry = C21H31B10ClNPPdS | MND = 4
 OpenBabel04212202043D

 67 74  0  0  1  0  0  0  0  0999 V2000
    6.6939   17.3509   -4.5029 Pd  0  0  1  0  0  0  0  0  0  0  0  0
    8.5323   16.0537   -5.0365 Cl  0  0  0  0  0  0  0  0  0  0  0  0
    4.7717   18.6755   -4.2242 S   0  0  0  0  0  1  0  0  0  0  0  0
    7.9795   18.9835   -3.6540 P   0  0  0  0  0  4  0  0  0  0  0  0
    5.6051   15.9567   -5.5119 N   0  0  0  0  0  0  0  0  0  0  0  0
    4.0938   17.9456   -2.7289 C   0  0  2  0  0  0  0  0  0  0  0  0
    3.4876   18.9725   -1.6295 C   0  0  2  0  0  0  0  0  0  0  0  0
    3.6110   20.4307   -1.9098 C   0  0  0  0  0  0  0  0  0  0  0  0
    2.3925   17.9870   -2.5482 B   0  0  1  0  0  0  0  0  0  0  0  0
    1.7720   18.4791   -3.4111 H   0  0  0  0  0  0  0  0  0  0  0  0
    4.3879   21.2390   -1.0785 C   0  0  0  0  0  0  0  0  0  0  0  0
    4.8825   20.8090   -0.2216 H   0  0  0  0  0  0  0  0  0  0  0  0
    3.2276   16.4573   -2.7549 B   0  0  2  0  0  0  0  0  0  0  0  0
    3.1424   15.9129   -3.7966 H   0  0  0  0  0  0  0  0  0  0  0  0
    4.5461   22.5885   -1.3339 C   0  0  0  0  0  0  0  0  0  0  0  0
    5.1532   23.1876   -0.6706 H   0  0  0  0  0  0  0  0  0  0  0  0
    4.7940   16.5782   -1.9549 B   0  0  2  0  0  0  0  0  0  0  0  0
    5.7667   16.1177   -2.4744 H   0  0  0  0  0  0  0  0  0  0  0  0
    4.9444   18.1698   -1.2374 B   0  0  2  0  0  0  0  0  0  0  0  0
    5.9290   18.8089   -1.3091 H   0  0  0  0  0  0  0  0  0  0  0  0
    3.9402   23.1682   -2.4353 C   0  0  0  0  0  0  0  0  0  0  0  0
    4.0690   24.2208   -2.6389 H   0  0  0  0  0  0  0  0  0  0  0  0
    2.1329   18.2753   -0.8383 B   0  0  1  0  0  0  0  0  0  0  0  0
    1.2697   19.0037   -0.5124 H   0  0  0  0  0  0  0  0  0  0  0  0
    3.1711   22.3804   -3.2719 C   0  0  0  0  0  0  0  0  0  0  0  0
    2.6943   22.8150   -4.1382 H   0  0  0  0  0  0  0  0  0  0  0  0
    3.0068   21.0314   -3.0122 C   0  0  0  0  0  0  0  0  0  0  0  0
    2.4075   20.4466   -3.6894 H   0  0  0  0  0  0  0  0  0  0  0  0
    1.9574   16.6306   -1.5214 B   0  0  0  0  0  0  0  0  0  0  0  0
    0.9089   16.1111   -1.6356 H   0  0  0  0  0  0  0  0  0  0  0  0
    3.4583   15.7313   -1.1546 B   0  0  1  0  0  0  0  0  0  0  0  0
    3.4664   14.5632   -1.0156 H   0  0  0  0  0  0  0  0  0  0  0  0
    9.5704   19.2228   -4.5316 C   0  0  0  0  0  0  0  0  0  0  0  0
   10.1819   19.9604   -4.0125 H   0  0  0  0  0  0  0  0  0  0  0  0
    9.3684   19.5544   -5.5502 H   0  0  0  0  0  0  0  0  0  0  0  0
   10.0909   18.2676   -4.5718 H   0  0  0  0  0  0  0  0  0  0  0  0
    4.5348   16.8024   -0.2131 B   0  0  0  0  0  2  0  0  0  0  0  0
    5.3027   16.4044    0.5835 H   0  0  0  0  0  0  0  0  0  0  0  0
    7.3407   20.7029   -3.6072 C   0  0  0  0  0  0  0  0  0  0  0  0
    8.1393   21.4074   -3.3815 H   0  0  0  0  0  0  0  0  0  0  0  0
    6.5444   20.7940   -2.8710 H   0  0  0  0  0  0  0  0  0  0  0  0
    6.9228   20.9360   -4.5870 H   0  0  0  0  0  0  0  0  0  0  0  0
    8.5269   18.6183   -1.9571 C   0  0  0  0  0  0  0  0  0  0  0  0
    3.6928   18.3540   -0.0213 B   0  0  1  0  0  0  0  0  0  0  0  0
    3.8402   19.1244    0.8531 H   0  0  0  0  0  0  0  0  0  0  0  0
    2.7647   16.8545    0.0480 B   0  0  1  0  0  0  0  0  0  0  0  0
    2.2738   16.4906    1.0524 H   0  0  0  0  0  0  0  0  0  0  0  0
    8.5512   17.2773   -1.5840 C   0  0  0  0  0  0  0  0  0  0  0  0
    8.2679   16.5221   -2.3127 H   0  0  0  0  0  0  0  0  0  0  0  0
    8.9368   16.9170   -0.3065 C   0  0  0  0  0  0  0  0  0  0  0  0
    8.9537   15.8765   -0.0209 H   0  0  0  0  0  0  0  0  0  0  0  0
    9.2958   17.8942    0.6080 C   0  0  0  0  0  0  0  0  0  0  0  0
    9.5899   17.6164    1.6092 H   0  0  0  0  0  0  0  0  0  0  0  0
    9.2756   19.2293    0.2402 C   0  0  0  0  0  0  0  0  0  0  0  0
    9.5563   19.9908    0.9533 H   0  0  0  0  0  0  0  0  0  0  0  0
    8.8934   19.5944   -1.0388 C   0  0  0  0  0  0  0  0  0  0  0  0
    8.8732   20.6388   -1.3141 H   0  0  0  0  0  0  0  0  0  0  0  0
    5.1953   16.3513   -6.7166 C   0  0  0  0  0  3  0  0  0  0  0  0
    5.2719   17.4167   -6.9349 H   0  0  0  0  0  0  0  0  0  0  0  0
    4.6830   15.4670   -7.6499 C   0  0  0  0  0  0  0  0  0  0  0  0
    4.3658   15.8260   -8.6163 H   0  0  0  0  0  0  0  0  0  0  0  0
    4.5886   14.1243   -7.3176 C   0  0  0  0  0  0  0  0  0  0  0  0
    4.1908   13.4093   -8.0217 H   0  0  0  0  0  0  0  0  0  0  0  0
    5.0193   13.7211   -6.0635 C   0  0  0  0  0  0  0  0  0  0  0  0
    4.9684   12.6872   -5.7623 H   0  0  0  0  0  0  0  0  0  0  0  0
    5.5275   14.6690   -5.1920 C   0  0  0  0  0  0  0  0  0  0  0  0
    5.8847   14.3885   -4.2074 H   0  0  0  0  0  0  0  0  0  0  0  0
  1  2  1  1  0  0  0
  1  3  1  0  0  0  0
  1  4  1  0  0  0  0
  4 39  1  0  0  0  0
  4 43  1  0  0  0  0
  5 66  1  0  0  0  0
  5  1  1  0  0  0  0
  6  9  1  0  0  0  0
  6 17  1  0  0  0  0
  6  7  1  0  0  0  0
  7 19  1  0  0  0  0
  7 23  1  0  0  0  0
  8  7  1  0  0  0  0
  8 11  1  0  0  0  0
  9 10  1  6  0  0  0
  9 23  1  0  0  0  0
 11 12  1  0  0  0  0
 13  6  1  0  0  0  0
 13  9  1  0  0  0  0
 13 17  1  0  0  0  0
 14 13  1  0  0  0  0
 15 11  2  0  0  0  0
 15 16  1  0  0  0  0
 17 18  1  6  0  0  0
 17 19  1  0  0  0  0
 19 20  1  1  0  0  0
 19 44  1  0  0  0  0
 21 15  1  0  0  0  0
 22 21  1  0  0  0  0
 23 24  1  1  0  0  0
 23 44  1  0  0  0  0
 25 27  1  0  0  0  0
 25 21  2  0  0  0  0
 26 25  1  0  0  0  0
 27  8  2  0  0  0  0
 28 27  1  0  0  0  0
 29 31  1  0  0  0  0
 29 46  1  0  0  0  0
 30 29  1  0  0  0  0
 31 32  1  1  0  0  0
 31 37  1  0  0  0  0
 31 46  1  0  0  0  0
 33 34  1  0  0  0  0
 33  4  1  0  0  0  0
 35 33  1  0  0  0  0
 36 33  1  0  0  0  0
 37 38  1  0  0  0  0
 39 40  1  0  0  0  0
 39 41  1  0  0  0  0
 42 39  1  0  0  0  0
 43 48  2  0  0  0  0
 43 56  1  0  0  0  0
 44 46  1  0  0  0  0
 44 45  1  0  0  0  0
 46 47  1  1  0  0  0
 48 50  1  0  0  0  0
 49 48  1  0  0  0  0
 50 51  1  0  0  0  0
 50 52  2  0  0  0  0
 52 53  1  0  0  0  0
 54 52  1  0  0  0  0
 54 55  1  0  0  0  0
 56 54  2  0  0  0  0
 57 56  1  0  0  0  0
 58  5  1  0  0  0  0
 59 58  1  0  0  0  0
 60 62  2  0  0  0  0
 60 58  1  0  0  0  0
 61 60  1  0  0  0  0
 62 64  1  0  0  0  0
 63 62  1  0  0  0  0
 64 65  1  0  0  0  0
 64 66  2  0  0  0  0
 66 67  1  0  0  0  0
M  END
$$$$
