CSD_code = HULBOF | q = 0 | S = 0 | Stoichiometry = C12H24Br2N6P2Pd | MND = 4
 OpenBabel04212202043D

 47 52  0  0  1  0  0  0  0  0999 V2000
   -0.4484   -0.0001    5.1391 Pd  0  0  0  0  0  0  0  0  0  0  0  0
    0.9141   -0.2966    3.1755 Br  0  0  0  0  0  0  0  0  0  0  0  0
    0.5664    1.9574    5.6464 P   0  0  2  0  0  4  0  0  0  0  0  0
    1.9406    3.4211    7.5134 N   0  0  2  0  0  0  0  0  0  0  0  0
    0.2858    4.6266    6.2054 N   0  0  1  0  0  0  0  0  0  0  0  0
    2.3854    3.9529    5.1843 N   0  0  1  0  0  0  0  0  0  0  0  0
    1.4072    2.0919    7.3012 C   0  0  0  0  0  0  0  0  0  0  0  0
    0.6860    1.8599    8.0952 H   0  0  0  0  0  0  0  0  0  0  0  0
    2.2273    1.3636    7.3529 H   0  0  0  0  0  0  0  0  0  0  0  0
   -0.4956    3.4782    5.7971 C   0  0  0  0  0  0  0  0  0  0  0  0
   -0.9666    3.6908    4.8282 H   0  0  0  0  0  0  0  0  0  0  0  0
   -1.2867    3.2973    6.5356 H   0  0  0  0  0  0  0  0  0  0  0  0
    1.9231    2.7030    4.6173 C   0  0  0  0  0  0  0  0  0  0  0  0
    2.7621    1.9991    4.5524 H   0  0  0  0  0  0  0  0  0  0  0  0
    1.5556    2.8780    3.5985 H   0  0  0  0  0  0  0  0  0  0  0  0
    0.8917    4.4283    7.5122 C   0  0  0  0  0  0  0  0  0  0  0  0
    0.1165    4.1389    8.2263 H   0  0  0  0  0  0  0  0  0  0  0  0
    1.3340    5.3780    7.8282 H   0  0  0  0  0  0  0  0  0  0  0  0
    1.3268    4.9472    5.2420 C   0  0  0  0  0  0  0  0  0  0  0  0
    0.8787    5.0514    4.2501 H   0  0  0  0  0  0  0  0  0  0  0  0
    1.7743    5.9025    5.5328 H   0  0  0  0  0  0  0  0  0  0  0  0
    2.9389    3.7726    6.5162 C   0  0  0  0  0  0  0  0  0  0  0  0
    3.4039    4.7152    6.8207 H   0  0  0  0  0  0  0  0  0  0  0  0
    3.7042    2.9925    6.4834 H   0  0  0  0  0  0  0  0  0  0  0  0
   -1.8117    0.2965    7.1025 Br  0  0  0  0  0  0  0  0  0  0  0  0
   -1.4637   -1.9576    4.6318 P   0  0  1  0  0  4  0  0  0  0  0  0
   -2.3045   -2.0916    2.9769 C   0  0  0  0  0  0  0  0  0  0  0  0
   -2.8379   -3.4208    2.7644 N   0  0  1  0  0  0  0  0  0  0  0  0
   -1.7892   -4.4280    2.7655 C   0  0  0  0  0  0  0  0  0  0  0  0
   -1.1833   -4.6267    4.0723 N   0  0  1  0  0  0  0  0  0  0  0  0
   -0.4017   -3.4785    4.4809 C   0  0  0  0  0  0  0  0  0  0  0  0
   -2.8205   -2.7032    5.6607 C   0  0  0  0  0  0  0  0  0  0  0  0
   -3.2828   -3.9529    5.0935 N   0  0  2  0  0  0  0  0  0  0  0  0
   -2.2243   -4.9474    5.0357 C   0  0  0  0  0  0  0  0  0  0  0  0
   -1.7763   -5.0518    6.0275 H   0  0  0  0  0  0  0  0  0  0  0  0
   -2.6719   -5.9026    4.7446 H   0  0  0  0  0  0  0  0  0  0  0  0
   -3.8363   -3.7724    3.7616 C   0  0  0  0  0  0  0  0  0  0  0  0
   -4.3013   -4.7150    3.4569 H   0  0  0  0  0  0  0  0  0  0  0  0
   -4.6016   -2.9922    3.7945 H   0  0  0  0  0  0  0  0  0  0  0  0
   -3.6594   -1.9992    5.7256 H   0  0  0  0  0  0  0  0  0  0  0  0
   -2.4530   -2.8784    6.6795 H   0  0  0  0  0  0  0  0  0  0  0  0
    0.0692   -3.6913    5.4497 H   0  0  0  0  0  0  0  0  0  0  0  0
    0.3895   -3.2976    3.7424 H   0  0  0  0  0  0  0  0  0  0  0  0
   -1.0139   -4.1386    2.0515 H   0  0  0  0  0  0  0  0  0  0  0  0
   -2.2315   -5.3777    2.4494 H   0  0  0  0  0  0  0  0  0  0  0  0
   -1.5833   -1.8596    2.1830 H   0  0  0  0  0  0  0  0  0  0  0  0
   -3.1246   -1.3633    2.9255 H   0  0  0  0  0  0  0  0  0  0  0  0
  1 25  1  0  0  0  0
  2  1  1  0  0  0  0
  3  1  1  6  0  0  0
  3 10  1  0  0  0  0
  3  7  1  0  0  0  0
  4 22  1  6  0  0  0
  5 19  1  6  0  0  0
  5 16  1  0  0  0  0
  6 13  1  1  0  0  0
  6 19  1  0  0  0  0
  6 22  1  0  0  0  0
  7  9  1  0  0  0  0
  7  4  1  0  0  0  0
  7  8  1  0  0  0  0
 10  5  1  0  0  0  0
 10 12  1  0  0  0  0
 11 10  1  0  0  0  0
 13  3  1  0  0  0  0
 14 13  1  0  0  0  0
 15 13  1  0  0  0  0
 16  4  1  0  0  0  0
 16 18  1  0  0  0  0
 16 17  1  0  0  0  0
 19 21  1  0  0  0  0
 20 19  1  0  0  0  0
 22 23  1  0  0  0  0
 24 22  1  0  0  0  0
 26  1  1  1  0  0  0
 26 32  1  0  0  0  0
 27 26  1  0  0  0  0
 28 29  1  1  0  0  0
 28 27  1  0  0  0  0
 28 37  1  0  0  0  0
 30 29  1  6  0  0  0
 30 31  1  0  0  0  0
 30 34  1  0  0  0  0
 31 26  1  0  0  0  0
 31 42  1  0  0  0  0
 32 40  1  0  0  0  0
 32 41  1  0  0  0  0
 33 37  1  6  0  0  0
 33 32  1  0  0  0  0
 34 33  1  0  0  0  0
 34 35  1  0  0  0  0
 36 34  1  0  0  0  0
 37 39  1  0  0  0  0
 38 37  1  0  0  0  0
 43 31  1  0  0  0  0
 44 29  1  0  0  0  0
 45 29  1  0  0  0  0
 46 27  1  0  0  0  0
 47 27  1  0  0  0  0
M  END
$$$$
