CSD_code = HULSIR | q = 0 | S = 0 | Stoichiometry = C8H18Br2N2PdS2 | MND = 4
 OpenBabel04212202043D

 33 34  0  0  0  0  0  0  0  0999 V2000
    2.7939   -0.0002    0.0002 Pd  0  0  0  0  0  0  0  0  0  0  0  0
    4.4322   -1.4843    1.0417 Br  0  0  0  0  0  0  0  0  0  0  0  0
    2.7813    1.2803    1.6055 N   0  0  0  0  0  4  0  0  0  0  0  0
    2.1151    2.0132    1.3221 H   0  0  0  0  0  0  0  0  0  0  0  0
    2.2520    0.6403    2.8134 C   0  0  0  0  0  0  0  0  0  0  0  0
    2.9896   -0.0806    3.1839 H   0  0  0  0  0  0  0  0  0  0  0  0
    1.3302    0.1001    2.5430 H   0  0  0  0  0  0  0  0  0  0  0  0
    1.9413    1.6590    3.9030 C   0  0  0  0  0  0  0  0  0  0  0  0
    1.5262    1.1711    4.7822 H   0  0  0  0  0  0  0  0  0  0  0  0
    1.2415    2.4192    3.5487 H   0  0  0  0  0  0  0  0  0  0  0  0
    3.4673    2.4914    4.4564 S   0  0  0  0  0  0  0  0  0  0  0  0
    3.9754    3.0844    2.8077 C   0  0  0  0  0  0  0  0  0  0  0  0
    3.2490    3.8261    2.4680 H   0  0  0  0  0  0  0  0  0  0  0  0
    4.9420    3.5647    2.9432 H   0  0  0  0  0  0  0  0  0  0  0  0
    4.0803    1.9215    1.8287 C   0  0  0  0  0  0  0  0  0  0  0  0
    4.4551    2.2901    0.8604 H   0  0  0  0  0  0  0  0  0  0  0  0
    4.7813    1.1751    2.2188 H   0  0  0  0  0  0  0  0  0  0  0  0
    1.1563    1.4844   -1.0417 Br  0  0  0  0  0  0  0  0  0  0  0  0
    2.8071   -1.2803   -1.6055 N   0  0  0  0  0  4  0  0  0  0  0  0
    3.4733   -2.0131   -1.3221 H   0  0  0  0  0  0  0  0  0  0  0  0
    3.3364   -0.6403   -2.8134 C   0  0  0  0  0  0  0  0  0  0  0  0
    2.5988    0.0806   -3.1840 H   0  0  0  0  0  0  0  0  0  0  0  0
    4.2582   -0.1000   -2.5430 H   0  0  0  0  0  0  0  0  0  0  0  0
    3.6471   -1.6590   -3.9030 C   0  0  0  0  0  0  0  0  0  0  0  0
    4.0623   -1.1710   -4.7822 H   0  0  0  0  0  0  0  0  0  0  0  0
    4.3469   -2.4192   -3.5487 H   0  0  0  0  0  0  0  0  0  0  0  0
    2.1211   -2.4914   -4.4564 S   0  0  0  0  0  0  0  0  0  0  0  0
    1.6130   -3.0843   -2.8078 C   0  0  0  0  0  0  0  0  0  0  0  0
    2.3394   -3.8261   -2.4680 H   0  0  0  0  0  0  0  0  0  0  0  0
    0.6464   -3.5647   -2.9432 H   0  0  0  0  0  0  0  0  0  0  0  0
    1.5082   -1.9215   -1.8287 C   0  0  0  0  0  0  0  0  0  0  0  0
    1.1333   -2.2901   -0.8605 H   0  0  0  0  0  0  0  0  0  0  0  0
    0.8072   -1.1751   -2.2188 H   0  0  0  0  0  0  0  0  0  0  0  0
  1  2  1  0  0  0  0
  1  3  1  0  0  0  0
  3 15  1  0  0  0  0
  3  5  1  0  0  0  0
  4  3  1  0  0  0  0
  5  6  1  0  0  0  0
  5  8  1  0  0  0  0
  7  5  1  0  0  0  0
  8 11  1  0  0  0  0
  8  9  1  0  0  0  0
 10  8  1  0  0  0  0
 12 14  1  0  0  0  0
 12 11  1  0  0  0  0
 13 12  1  0  0  0  0
 15 17  1  0  0  0  0
 15 12  1  0  0  0  0
 16 15  1  0  0  0  0
 18  1  1  0  0  0  0
 19 20  1  0  0  0  0
 19  1  1  0  0  0  0
 21 23  1  0  0  0  0
 21 19  1  0  0  0  0
 22 21  1  0  0  0  0
 24 26  1  0  0  0  0
 24 21  1  0  0  0  0
 25 24  1  0  0  0  0
 27 24  1  0  0  0  0
 27 28  1  0  0  0  0
 28 29  1  0  0  0  0
 28 31  1  0  0  0  0
 30 28  1  0  0  0  0
 31 19  1  0  0  0  0
 31 32  1  0  0  0  0
 33 31  1  0  0  0  0
M  END
$$$$
