CSD_code = HUMCOJ | q = 0 | S = 0 | Stoichiometry = C13H12Cl3N3Zn | MND = 4
 OpenBabel04212202043D

 32 34  0  0  1  0  0  0  0  0999 V2000
    8.1443    4.8302    7.3899 Zn  0  0  0  0  0  0  0  0  0  0  0  0
    9.0242    6.3767    8.7079 Cl  0  0  0  0  0  0  0  0  0  0  0  0
    5.9747    4.1244    7.5044 Cl  0  0  0  0  0  0  0  0  0  0  0  0
    9.0425    4.2888    5.3325 Cl  0  0  0  0  0  0  0  0  0  0  0  0
    5.9748    1.0479    6.8241 C   0  0  0  0  0  0  0  0  0  0  0  0
    4.9927    0.8764    7.2110 H   0  0  0  0  0  0  0  0  0  0  0  0
    7.0257    1.3286    7.6172 N   0  0  0  0  0  0  0  0  0  0  0  0
    6.9343    1.4508    9.0435 C   0  0  0  0  0  0  0  0  0  0  0  0
    7.9225    1.3998    9.4933 H   0  0  0  0  0  0  0  0  0  0  0  0
    6.2974    0.6600    9.4367 H   0  0  0  0  0  0  0  0  0  0  0  0
    6.4857    2.4235    9.2675 H   0  0  0  0  0  0  0  0  0  0  0  0
    8.1142    1.5522    6.8655 C   0  0  1  0  0  3  0  0  0  0  0  0
    7.7654    1.3976    5.5699 N   0  0  0  0  0  0  0  0  0  0  0  0
    8.5056    1.5685    4.4368 C   0  0  0  0  0  0  0  0  0  0  0  0
    9.5369    1.8489    4.5566 H   0  0  0  0  0  0  0  0  0  0  0  0
    7.9016    1.4282    3.2287 C   0  0  0  0  0  0  0  0  0  0  0  0
    8.4795    1.5770    2.3321 H   0  0  0  0  0  0  0  0  0  0  0  0
    6.5256    1.1120    3.1333 C   0  0  0  0  0  0  0  0  0  0  0  0
    6.0725    1.0190    2.1595 H   0  0  0  0  0  0  0  0  0  0  0  0
    5.7840    0.9410    4.2630 C   0  0  0  0  0  0  0  0  0  0  0  0
    4.7308    0.7163    4.2380 H   0  0  0  0  0  0  0  0  0  0  0  0
    6.4117    1.0981    5.5145 C   0  0  0  0  0  0  0  0  0  0  0  0
    9.4277    1.9663    7.3578 C   0  0  2  0  0  3  0  0  0  0  0  0
    9.4355    3.0173    8.1846 N   0  0  0  0  0  0  0  0  0  0  0  0
   10.5958    3.4374    8.6633 C   0  0  0  0  0  0  0  0  0  0  0  0
   10.5426    4.2973    9.3164 H   0  0  0  0  0  0  0  0  0  0  0  0
   11.8068    2.8455    8.3324 C   0  0  0  0  0  0  0  0  0  0  0  0
   12.7267    3.2356    8.7364 H   0  0  0  0  0  0  0  0  0  0  0  0
   11.8036    1.7669    7.4648 C   0  0  0  0  0  0  0  0  0  0  0  0
   12.7258    1.2880    7.1720 H   0  0  0  0  0  0  0  0  0  0  0  0
   10.5914    1.3073    6.9743 C   0  0  0  0  0  0  0  0  0  0  0  0
   10.5452    0.4539    6.3152 H   0  0  0  0  0  0  0  0  0  0  0  0
  1  3  1  0  0  0  0
  1 24  1  0  0  0  0
  1  2  1  0  0  0  0
  4  1  1  0  0  0  0
  5  6  1  0  0  0  0
  5  7  1  0  0  0  0
  7  8  1  0  0  0  0
  8 11  1  0  0  0  0
  8 10  1  0  0  0  0
  8  9  1  0  0  0  0
 12 13  1  6  0  0  0
 12 23  1  0  0  0  0
 12  7  1  0  0  0  0
 14 15  1  0  0  0  0
 14 13  1  0  0  0  0
 16 14  2  0  0  0  0
 17 16  1  0  0  0  0
 18 16  1  0  0  0  0
 18 20  2  0  0  0  0
 19 18  1  0  0  0  0
 20 22  1  0  0  0  0
 21 20  1  0  0  0  0
 22 13  1  0  0  0  0
 22  5  2  0  0  0  0
 23 31  1  6  0  0  0
 23 24  1  0  0  0  0
 24 25  1  0  0  0  0
 25 26  1  0  0  0  0
 27 25  2  0  0  0  0
 27 28  1  0  0  0  0
 29 27  1  0  0  0  0
 30 29  1  0  0  0  0
 31 29  2  0  0  0  0
 32 31  1  0  0  0  0
M  END
$$$$
