CSD_code = HUMFOK | q = 0 | S = 0 | Stoichiometry = C13H14Cl2N2O2Pd | MND = 4
 OpenBabel04212202043D

 34 36  0  0  1  0  0  0  0  0999 V2000
    1.3905    1.0833    9.4612 Pd  0  0  0  0  0  0  0  0  0  0  0  0
   -0.6909    1.5916    8.8772 Cl  0  0  0  0  0  0  0  0  0  0  0  0
    0.7138    0.1840   11.3907 Cl  0  0  0  0  0  0  0  0  0  0  0  0
    4.8614    3.7319    8.9348 O   0  0  0  0  0  0  0  0  0  0  0  0
    4.5150    4.5980    8.6841 H   0  0  0  0  0  0  0  0  0  0  0  0
    2.0860    1.7503    7.6847 N   0  0  0  0  0  0  0  0  0  0  0  0
    3.2228    2.4493    7.6632 C   0  0  1  0  0  3  0  0  0  0  0  0
    3.7832    2.8482    9.0330 C   0  0  1  0  0  0  0  0  0  0  0  0
    1.5324    1.3791    6.5309 C   0  0  0  0  0  0  0  0  0  0  0  0
    0.5911    0.8451    6.6052 H   0  0  0  0  0  0  0  0  0  0  0  0
    3.6758   -0.5306   10.4617 C   0  0  0  0  0  3  0  0  0  0  0  0
    2.8694   -1.2223   10.6750 H   0  0  0  0  0  0  0  0  0  0  0  0
    5.6053    1.3190    9.9342 C   0  0  0  0  0  0  0  0  0  0  0  0
    6.3232    2.0915    9.7149 H   0  0  0  0  0  0  0  0  0  0  0  0
    4.2642    1.5474    9.6741 C   0  0  0  0  0  0  0  0  0  0  0  0
    5.9780    0.1031   10.4860 C   0  0  0  0  0  0  0  0  0  0  0  0
    7.0144   -0.1007   10.7057 H   0  0  0  0  0  0  0  0  0  0  0  0
    4.9934   -0.8362   10.7535 C   0  0  0  0  0  0  0  0  0  0  0  0
    5.2386   -1.7929   11.1856 H   0  0  0  0  0  0  0  0  0  0  0  0
    3.3191    0.6370    9.9282 N   0  0  0  0  0  0  0  0  0  0  0  0
    2.1098    1.6772    5.3090 C   0  0  0  0  0  0  0  0  0  0  0  0
    1.6306    1.3609    4.3965 H   0  0  0  0  0  0  0  0  0  0  0  0
    3.8712    2.7760    6.4846 C   0  0  0  0  0  0  0  0  0  0  0  0
    4.7982    3.3266    6.5182 H   0  0  0  0  0  0  0  0  0  0  0  0
    3.3051    2.3805    5.2820 C   0  0  0  0  0  0  0  0  0  0  0  0
    3.7856    2.6236    4.3471 H   0  0  0  0  0  0  0  0  0  0  0  0
    2.7053    3.4322    9.7138 O   0  0  0  0  0  0  0  0  0  0  0  0
    2.8785    3.7203   11.1068 C   0  0  0  0  0  0  0  0  0  0  0  0
    3.4384    4.6595   11.2139 H   0  0  0  0  0  0  0  0  0  0  0  0
    3.4429    2.9132   11.5910 H   0  0  0  0  0  0  0  0  0  0  0  0
    1.4846    3.8261   11.7004 C   0  0  0  0  0  0  0  0  0  0  0  0
    1.5413    3.9727   12.7746 H   0  0  0  0  0  0  0  0  0  0  0  0
    0.9395    2.8972   11.4902 H   0  0  0  0  0  0  0  0  0  0  0  0
    0.9458    4.6537   11.2468 H   0  0  0  0  0  0  0  0  0  0  0  0
  1 20  1  0  0  0  0
  1  3  1  0  0  0  0
  2  1  1  0  0  0  0
  5  4  1  0  0  0  0
  6  1  1  0  0  0  0
  7 23  1  1  0  0  0
  7  6  1  0  0  0  0
  7  8  1  0  0  0  0
  8  4  1  6  0  0  0
  8 15  1  0  0  0  0
  8 27  1  0  0  0  0
  9 10  1  0  0  0  0
  9  6  1  0  0  0  0
 11 12  1  0  0  0  0
 11 18  1  0  0  0  0
 13 16  1  0  0  0  0
 14 13  1  0  0  0  0
 15 20  1  0  0  0  0
 15 13  2  0  0  0  0
 16 17  1  0  0  0  0
 16 18  2  0  0  0  0
 18 19  1  0  0  0  0
 20 11  1  0  0  0  0
 21  9  2  0  0  0  0
 22 21  1  0  0  0  0
 23 24  1  0  0  0  0
 25 21  1  0  0  0  0
 25 23  2  0  0  0  0
 26 25  1  0  0  0  0
 27 28  1  0  0  0  0
 28 29  1  0  0  0  0
 28 30  1  0  0  0  0
 28 31  1  0  0  0  0
 31 32  1  0  0  0  0
 33 31  1  0  0  0  0
 34 31  1  0  0  0  0
M  END
$$$$
