CSD_code = HUMZIA | q = 0 | S = 0 | Stoichiometry = C26H27Cl2N5Ni | MND = 5
 OpenBabel04212202043D

 61 67  0  0  1  0  0  0  0  0999 V2000
    3.4202    3.3507   15.0463 Ni  0  0  0  0  0  0  0  0  0  0  0  0
    4.6270    3.9508   16.6007 Cl  0  0  0  0  0  0  0  0  0  0  0  0
    3.7928    1.3561   15.4896 Cl  0  0  0  0  0  0  0  0  0  0  0  0
    2.0515    2.7848   13.3680 N   0  0  0  0  0  4  0  0  0  0  0  0
    2.5467    5.1121   14.7731 N   0  0  0  0  0  0  0  0  0  0  0  0
    1.0295    6.2800   13.6430 N   0  0  0  0  0  0  0  0  0  0  0  0
    4.1946    2.2495   12.4152 C   0  0  1  0  0  3  0  0  0  0  0  0
    1.7798    5.1504   13.7102 C   0  0  1  0  0  3  0  0  0  0  0  0
    4.6978    3.2079   13.1501 N   0  0  0  0  0  0  0  0  0  0  0  0
    5.1178    1.6500   11.6153 N   0  0  0  0  0  0  0  0  0  0  0  0
    2.7571    1.8442   12.4998 C   0  0  0  0  0  0  0  0  0  0  0  0
    2.3130    1.7897   11.4925 H   0  0  0  0  0  0  0  0  0  0  0  0
    2.7025    0.8563   12.9701 H   0  0  0  0  0  0  0  0  0  0  0  0
    1.3331    7.0152   14.7699 C   0  0  0  0  0  0  0  0  0  0  0  0
    0.8138    2.2649   13.8917 C   0  0  0  0  0  0  0  0  0  0  0  0
    2.3015    6.2690   15.4741 C   0  0  0  0  0  0  0  0  0  0  0  0
    6.3156    2.2851   11.8663 C   0  0  0  0  0  0  0  0  0  0  0  0
    1.8064    4.0634   12.6911 C   0  0  0  0  0  0  0  0  0  0  0  0
    2.6431    4.2616   12.0117 H   0  0  0  0  0  0  0  0  0  0  0  0
    0.8743    4.0335   12.1074 H   0  0  0  0  0  0  0  0  0  0  0  0
    0.0122    6.6037   12.6764 C   0  0  0  0  0  0  0  0  0  0  0  0
    0.3157    6.2246   11.6968 H   0  0  0  0  0  0  0  0  0  0  0  0
   -0.0543    7.6925   12.6117 H   0  0  0  0  0  0  0  0  0  0  0  0
    0.8744    8.2378   15.2360 C   0  0  0  0  0  0  0  0  0  0  0  0
    0.1304    8.8087   14.7010 H   0  0  0  0  0  0  0  0  0  0  0  0
   -0.1325    1.6647   13.0694 C   0  0  0  0  0  0  0  0  0  0  0  0
    0.0558    1.5440   12.0116 H   0  0  0  0  0  0  0  0  0  0  0  0
    2.3712    7.9622   17.1229 C   0  0  0  0  0  0  0  0  0  0  0  0
    2.7603    8.3630   18.0463 H   0  0  0  0  0  0  0  0  0  0  0  0
    2.8315    6.7447   16.6691 C   0  0  0  0  0  0  0  0  0  0  0  0
    3.5714    6.1648   17.1970 H   0  0  0  0  0  0  0  0  0  0  0  0
    8.3089    3.8960   12.8498 C   0  0  0  0  0  0  0  0  0  0  0  0
    9.1196    4.5043   13.2216 H   0  0  0  0  0  0  0  0  0  0  0  0
    4.9124    0.5668   10.6908 C   0  0  0  0  0  0  0  0  0  0  0  0
    4.0778   -0.0438   11.0443 H   0  0  0  0  0  0  0  0  0  0  0  0
    5.8130   -0.0529   10.6916 H   0  0  0  0  0  0  0  0  0  0  0  0
    6.0344    3.2603   12.8467 C   0  0  0  0  0  0  0  0  0  0  0  0
    7.5957    2.1139   11.3636 C   0  0  0  0  0  0  0  0  0  0  0  0
    7.8204    1.3683   10.6153 H   0  0  0  0  0  0  0  0  0  0  0  0
    7.0383    4.0757   13.3532 C   0  0  0  0  0  0  0  0  0  0  0  0
    6.8143    4.7950   14.1243 H   0  0  0  0  0  0  0  0  0  0  0  0
    0.5490    2.4097   15.2456 C   0  0  0  0  0  0  0  0  0  0  0  0
    1.3042    2.8584   15.8935 H   0  0  0  0  0  0  0  0  0  0  0  0
   -0.6448    1.9556   15.7763 C   0  0  0  0  0  0  0  0  0  0  0  0
   -0.8360    2.0639   16.8328 H   0  0  0  0  0  0  0  0  0  0  0  0
   -1.5844    1.3554   14.9556 C   0  0  0  0  0  0  0  0  0  0  0  0
   -2.5150    0.9958   15.3679 H   0  0  0  0  0  0  0  0  0  0  0  0
   -1.3246    1.2084   13.6037 C   0  0  0  0  0  0  0  0  0  0  0  0
   -2.0518    0.7356   12.9600 H   0  0  0  0  0  0  0  0  0  0  0  0
    8.5812    2.9371   11.8713 C   0  0  0  0  0  0  0  0  0  0  0  0
    9.5927    2.8319   11.5076 H   0  0  0  0  0  0  0  0  0  0  0  0
    1.4116    8.6959   16.4219 C   0  0  0  0  0  0  0  0  0  0  0  0
    1.0803    9.6443   16.8177 H   0  0  0  0  0  0  0  0  0  0  0  0
    4.6388    1.0802    9.2779 C   0  0  0  0  0  0  0  0  0  0  0  0
    3.7362    1.6874    9.2561 H   0  0  0  0  0  0  0  0  0  0  0  0
    4.5110    0.2441    8.5963 H   0  0  0  0  0  0  0  0  0  0  0  0
    5.4703    1.6897    8.9320 H   0  0  0  0  0  0  0  0  0  0  0  0
   -1.3398    6.0204   13.0841 C   0  0  0  0  0  0  0  0  0  0  0  0
   -1.2846    4.9364   13.1648 H   0  0  0  0  0  0  0  0  0  0  0  0
   -2.0954    6.2790   12.3475 H   0  0  0  0  0  0  0  0  0  0  0  0
   -1.6420    6.4178   14.0500 H   0  0  0  0  0  0  0  0  0  0  0  0
  1  3  1  0  0  0  0
  1  2  1  0  0  0  0
  4 15  1  0  0  0  0
  4  1  1  0  0  0  0
  5  1  1  0  0  0  0
  5 16  1  0  0  0  0
  6  8  1  0  0  0  0
  6 14  1  0  0  0  0
  7 10  1  1  0  0  0
  7 11  1  0  0  0  0
  7  9  1  0  0  0  0
  8 18  1  6  0  0  0
  8  5  1  0  0  0  0
  9  1  1  0  0  0  0
 10 17  1  0  0  0  0
 11 13  1  0  0  0  0
 11  4  1  0  0  0  0
 12 11  1  0  0  0  0
 14 24  2  0  0  0  0
 14 16  1  0  0  0  0
 15 42  1  0  0  0  0
 16 30  2  0  0  0  0
 17 37  1  0  0  0  0
 18  4  1  0  0  0  0
 19 18  1  0  0  0  0
 20 18  1  0  0  0  0
 21 58  1  0  0  0  0
 21  6  1  0  0  0  0
 22 21  1  0  0  0  0
 23 21  1  0  0  0  0
 24 52  1  0  0  0  0
 25 24  1  0  0  0  0
 26 48  1  0  0  0  0
 26 15  2  0  0  0  0
 27 26  1  0  0  0  0
 28 29  1  0  0  0  0
 30 28  1  0  0  0  0
 30 31  1  0  0  0  0
 32 33  1  0  0  0  0
 32 40  1  0  0  0  0
 34 36  1  0  0  0  0
 34 35  1  0  0  0  0
 34 10  1  0  0  0  0
 37  9  1  0  0  0  0
 37 40  2  0  0  0  0
 38 17  2  0  0  0  0
 38 50  1  0  0  0  0
 39 38  1  0  0  0  0
 40 41  1  0  0  0  0
 42 44  2  0  0  0  0
 42 43  1  0  0  0  0
 44 45  1  0  0  0  0
 46 47  1  0  0  0  0
 46 44  1  0  0  0  0
 48 46  2  0  0  0  0
 49 48  1  0  0  0  0
 50 32  2  0  0  0  0
 51 50  1  0  0  0  0
 52 53  1  0  0  0  0
 52 28  2  0  0  0  0
 54 34  1  0  0  0  0
 55 54  1  0  0  0  0
 56 54  1  0  0  0  0
 57 54  1  0  0  0  0
 58 59  1  0  0  0  0
 58 61  1  0  0  0  0
 60 58  1  0  0  0  0
M  END
$$$$
