CSD_code = HUNWUJ | q = 1 | S = 0 | Stoichiometry = C22H31ClNRuS(1+) | MND = 9
 OpenBabel04212202043D

 57 58  0  0  1  0  0  0  0  0999 V2000
    1.0738    1.7672    8.7088 Ru  0  0  0  0  0  0  0  0  0  0  0  0
   -1.1698    1.7822    7.9163 S   0  0  0  0  0  0  0  0  0  0  0  0
    0.3329    1.4589   10.9073 Cl  0  0  0  0  0 15  0  0  0  0  0  0
    0.8636   -0.3653    8.5265 N   0  0  0  0  0  4  0  0  0  0  0  0
    3.0724    2.6829    9.5254 C   0  0  0  0  0  0  0  0  0  0  0  0
    2.0540    3.6801    9.4545 C   0  0  1  0  0  0  0  0  0  0  0  0
    1.8310    4.2643   10.3411 H   0  0  0  0  0  0  0  0  0  0  0  0
    1.4113    3.9702    8.2509 C   0  0  0  0  0  0  0  0  0  0  0  0
    0.7061    4.7936    8.2056 H   0  0  0  0  0  0  0  0  0  0  0  0
    1.7308    3.2617    7.0561 C   0  0  0  0  0  0  0  0  0  0  0  0
    1.1040    3.6745    5.7475 C   0  0  0  0  0  0  0  0  0  0  0  0
    0.1714    4.2053    5.9695 H   0  0  0  0  0  0  0  0  0  0  0  0
    0.7685    2.4845    4.8490 C   0  0  0  0  0  0  0  0  0  0  0  0
    1.6667    2.0134    4.4591 H   0  0  0  0  0  0  0  0  0  0  0  0
    0.1772    2.8224    4.0031 H   0  0  0  0  0  0  0  0  0  0  0  0
    0.1881    1.7452    5.4003 H   0  0  0  0  0  0  0  0  0  0  0  0
    2.0548    4.6444    5.0357 C   0  0  0  0  0  0  0  0  0  0  0  0
    2.9949    4.1526    4.7963 H   0  0  0  0  0  0  0  0  0  0  0  0
    2.2666    5.5078    5.6620 H   0  0  0  0  0  0  0  0  0  0  0  0
    1.6021    4.9919    4.1115 H   0  0  0  0  0  0  0  0  0  0  0  0
    2.7215    2.2703    7.1273 C   0  0  0  0  0  3  0  0  0  0  0  0
    3.0565    1.7831    6.2206 H   0  0  0  0  0  0  0  0  0  0  0  0
    3.3871    1.9890    8.3471 C   0  0  0  0  0  0  0  0  0  0  0  0
    4.2128    1.2836    8.3490 H   0  0  0  0  0  0  0  0  0  0  0  0
    3.8040    2.4504   10.8084 C   0  0  0  0  0  0  0  0  0  0  0  0
    4.5646    1.6808   10.6999 H   0  0  0  0  0  0  0  0  0  0  0  0
    3.1054    2.1459   11.5892 H   0  0  0  0  0  0  0  0  0  0  0  0
    4.2815    3.3734   11.1364 H   0  0  0  0  0  0  0  0  0  0  0  0
    1.7496   -1.0543    9.4884 C   0  0  0  0  0  0  0  0  0  0  0  0
    1.3442   -0.9861   10.4970 H   0  0  0  0  0  0  0  0  0  0  0  0
    2.7195   -0.5497    9.4711 H   0  0  0  0  0  0  0  0  0  0  0  0
    1.8958   -2.4947    8.9794 C   0  0  0  0  0  0  0  0  0  0  0  0
    2.8940   -2.8741    9.1832 H   0  0  0  0  0  0  0  0  0  0  0  0
    1.1874   -3.1579    9.4724 H   0  0  0  0  0  0  0  0  0  0  0  0
    1.6149   -2.3953    7.4702 C   0  0  0  0  0  0  0  0  0  0  0  0
    0.7608   -3.0065    7.1829 H   0  0  0  0  0  0  0  0  0  0  0  0
    2.4634   -2.7235    6.8746 H   0  0  0  0  0  0  0  0  0  0  0  0
    1.3360   -0.9020    7.2363 C   0  0  0  0  0  0  0  0  0  0  0  0
    2.2690   -0.3974    6.9806 H   0  0  0  0  0  0  0  0  0  0  0  0
    0.6140   -0.7219    6.4412 H   0  0  0  0  0  0  0  0  0  0  0  0
   -0.5390   -0.7683    8.7854 C   0  0  0  0  0  0  0  0  0  0  0  0
   -0.6615   -1.8430    8.6201 H   0  0  0  0  0  0  0  0  0  0  0  0
   -0.7371   -0.5413    9.8378 H   0  0  0  0  0  0  0  0  0  0  0  0
   -1.5318   -0.0132    7.9137 C   0  0  0  0  0  0  0  0  0  0  0  0
   -2.5546   -0.1560    8.2585 H   0  0  0  0  0  0  0  0  0  0  0  0
   -1.4755   -0.3078    6.8650 H   0  0  0  0  0  0  0  0  0  0  0  0
   -2.1748    2.4774    9.2214 C   0  0  0  0  0  0  0  0  0  0  0  0
   -2.3595    3.8520    9.1437 C   0  0  0  0  0  0  0  0  0  0  0  0
   -1.9244    4.4028    8.3227 H   0  0  0  0  0  0  0  0  0  0  0  0
   -3.1020    4.4989   10.1135 C   0  0  0  0  0  0  0  0  0  0  0  0
   -3.2434    5.5669   10.0564 H   0  0  0  0  0  0  0  0  0  0  0  0
   -3.6638    3.7725   11.1513 C   0  0  0  0  0  0  0  0  0  0  0  0
   -4.2418    4.2758   11.9103 H   0  0  0  0  0  0  0  0  0  0  0  0
   -3.4850    2.4012   11.2125 C   0  0  0  0  0  0  0  0  0  0  0  0
   -3.9207    1.8329   12.0193 H   0  0  0  0  0  0  0  0  0  0  0  0
   -2.7399    1.7420   10.2491 C   0  0  0  0  0  0  0  0  0  0  0  0
   -2.6016    0.6761   10.3261 H   0  0  0  0  0  0  0  0  0  0  0  0
  1  6  1  0  0  0  0
  2 47  1  0  0  0  0
  4  1  1  0  0  0  0
  4 41  1  0  0  0  0
  4 29  1  0  0  0  0
  5 25  1  0  0  0  0
  6  5  1  0  0  0  0
  6  7  1  1  0  0  0
  8  6  1  0  0  0  0
  9  8  1  0  0  0  0
 10 21  1  0  0  0  0
 10  8  2  0  0  0  0
 11 12  1  0  0  0  0
 11 10  1  0  0  0  0
 13 16  1  0  0  0  0
 13 11  1  0  0  0  0
 14 13  1  0  0  0  0
 15 13  1  0  0  0  0
 17 19  1  0  0  0  0
 17 11  1  0  0  0  0
 18 17  1  0  0  0  0
 20 17  1  0  0  0  0
 21 23  1  0  0  0  0
 22 21  1  0  0  0  0
 23 24  1  0  0  0  0
 23  5  2  0  0  0  0
 25 28  1  0  0  0  0
 25 27  1  0  0  0  0
 26 25  1  0  0  0  0
 29 30  1  0  0  0  0
 31 29  1  0  0  0  0
 32 33  1  0  0  0  0
 32 34  1  0  0  0  0
 32 29  1  0  0  0  0
 35 32  1  0  0  0  0
 36 35  1  0  0  0  0
 37 35  1  0  0  0  0
 38 35  1  0  0  0  0
 38  4  1  0  0  0  0
 39 38  1  0  0  0  0
 40 38  1  0  0  0  0
 41 43  1  0  0  0  0
 42 41  1  0  0  0  0
 44  2  1  0  0  0  0
 44 45  1  0  0  0  0
 44 41  1  0  0  0  0
 46 44  1  0  0  0  0
 47 56  1  0  0  0  0
 48 47  2  0  0  0  0
 48 50  1  0  0  0  0
 49 48  1  0  0  0  0
 50 52  2  0  0  0  0
 51 50  1  0  0  0  0
 52 54  1  0  0  0  0
 52 53  1  0  0  0  0
 54 55  1  0  0  0  0
 56 57  1  0  0  0  0
 56 54  2  0  0  0  0
M  END
$$$$
