CSD_code = HUNZOH | q = 0 | S = 0 | Stoichiometry = C21H23I3N4Pt | MND = 6
 OpenBabel04212202043D

 52 56  0  0  1  0  0  0  0  0999 V2000
    3.9255    3.8102    7.6292 Pt  0  0  0  0  0  0  0  0  0  0  0  0
    4.5456    6.4379    7.6959 I   0  0  0  0  0  0  0  0  0  0  0  0
    3.3981    1.1989    7.2205 I   0  0  0  0  0  0  0  0  0  0  0  0
    4.2761    3.4650   10.2340 I   0  0  0  0  0  0  0  0  0  0  0  0
    3.8641    3.9680    5.6281 N   0  0  0  0  0  0  0  0  0  0  0  0
    2.7005    3.8959    5.0986 N   0  0  0  0  0  2  0  0  0  0  0  0
    3.6565    3.5564    2.9502 C   0  0  0  0  0  0  0  0  0  0  0  0
    6.0857    3.4689    6.9768 N   0  0  0  0  0  0  0  0  0  0  0  0
    1.9250    4.2731    8.0062 C   0  0  0  0  0  0  0  0  0  0  0  0
    1.4977    4.6344    7.0693 H   0  0  0  0  0  0  0  0  0  0  0  0
    1.8515    5.0465    8.7708 H   0  0  0  0  0  0  0  0  0  0  0  0
    1.3941    3.3844    8.3475 H   0  0  0  0  0  0  0  0  0  0  0  0
    2.5409    3.7075    3.7994 C   0  0  0  0  0  0  0  0  0  0  0  0
    4.9264    3.6567    3.5328 C   0  0  0  0  0  0  0  0  0  0  0  0
    4.9975    3.8950    4.9206 C   0  0  0  0  0  0  0  0  0  0  0  0
    6.2222    3.9710    5.7389 C   0  0  1  0  0  3  0  0  0  0  0  0
    7.1235    3.4258    7.7936 C   0  0  0  0  0  0  0  0  0  0  0  0
    6.9515    2.9866    8.7680 H   0  0  0  0  0  0  0  0  0  0  0  0
    8.3675    3.9268    7.4433 C   0  0  0  0  0  0  0  0  0  0  0  0
    9.1880    3.8726    8.1393 H   0  0  0  0  0  0  0  0  0  0  0  0
    8.5018    4.5327    6.2066 C   0  0  0  0  0  0  0  0  0  0  0  0
    9.4328    4.9943    5.9152 H   0  0  0  0  0  0  0  0  0  0  0  0
    7.4214    4.5506    5.3379 C   0  0  0  0  0  0  0  0  0  0  0  0
    7.5027    5.0541    4.3914 H   0  0  0  0  0  0  0  0  0  0  0  0
    6.1738    3.4132    2.7367 C   0  0  0  0  0  0  0  0  0  0  0  0
    6.0002    2.5938    2.0374 H   0  0  0  0  0  0  0  0  0  0  0  0
    6.9637    3.0867    3.4160 H   0  0  0  0  0  0  0  0  0  0  0  0
    6.6797    4.6320    1.9436 C   0  0  0  0  0  0  0  0  0  0  0  0
    6.6709    5.5207    2.5792 H   0  0  0  0  0  0  0  0  0  0  0  0
    7.7180    4.4282    1.6707 H   0  0  0  0  0  0  0  0  0  0  0  0
    5.9077    4.9631    0.6670 C   0  0  0  0  0  0  0  0  0  0  0  0
    6.5058    5.6953    0.1206 H   0  0  0  0  0  0  0  0  0  0  0  0
    5.8362    4.0772    0.0338 H   0  0  0  0  0  0  0  0  0  0  0  0
    4.5111    5.5483    0.9149 C   0  0  0  0  0  0  0  0  0  0  0  0
    4.4532    5.9380    1.9337 H   0  0  0  0  0  0  0  0  0  0  0  0
    4.3523    6.3958    0.2456 H   0  0  0  0  0  0  0  0  0  0  0  0
    3.3710    4.5632    0.6752 C   0  0  0  0  0  0  0  0  0  0  0  0
    3.3487    4.2847   -0.3799 H   0  0  0  0  0  0  0  0  0  0  0  0
    2.4246    5.0469    0.9179 H   0  0  0  0  0  0  0  0  0  0  0  0
    3.4688    3.2705    1.5000 C   0  0  0  0  0  0  0  0  0  0  0  0
    2.5376    2.7208    1.3620 H   0  0  0  0  0  0  0  0  0  0  0  0
    4.2874    2.6587    1.1236 H   0  0  0  0  0  0  0  0  0  0  0  0
    1.1286    3.5867    3.4032 C   0  0  0  0  0  0  0  0  0  0  0  0
    0.7678    3.9837    2.1868 N   0  0  0  0  0  0  0  0  0  0  0  0
   -0.5028    3.8950    1.8449 C   0  0  0  0  0  0  0  0  0  0  0  0
   -0.7359    4.2367    0.8450 H   0  0  0  0  0  0  0  0  0  0  0  0
   -1.4894    3.4050    2.6887 C   0  0  0  0  0  0  0  0  0  0  0  0
   -2.5162    3.3570    2.3627 H   0  0  0  0  0  0  0  0  0  0  0  0
   -1.1153    2.9797    3.9541 C   0  0  0  0  0  0  0  0  0  0  0  0
   -1.8467    2.5831    4.6423 H   0  0  0  0  0  0  0  0  0  0  0  0
    0.2148    3.0703    4.3239 C   0  0  0  0  0  0  0  0  0  0  0  0
    0.5532    2.7386    5.2916 H   0  0  0  0  0  0  0  0  0  0  0  0
  1  2  1  0  0  0  0
  1  9  1  0  0  0  0
  1  4  1  0  0  0  0
  3  1  1  0  0  0  0
  5  1  1  0  0  0  0
  6  5  1  0  0  0  0
  7 14  1  0  0  0  0
  7 13  2  0  0  0  0
  8  1  1  0  0  0  0
  8 17  1  0  0  0  0
  9 12  1  0  0  0  0
  9 11  1  0  0  0  0
 10  9  1  0  0  0  0
 13  6  1  0  0  0  0
 14 15  2  0  0  0  0
 15  5  1  0  0  0  0
 16 15  1  1  0  0  0
 16  8  1  0  0  0  0
 17 18  1  0  0  0  0
 19 17  2  0  0  0  0
 19 20  1  0  0  0  0
 21 19  1  0  0  0  0
 22 21  1  0  0  0  0
 23 16  1  0  0  0  0
 23 21  2  0  0  0  0
 24 23  1  0  0  0  0
 25 27  1  0  0  0  0
 25 14  1  0  0  0  0
 26 25  1  0  0  0  0
 28 29  1  0  0  0  0
 28 25  1  0  0  0  0
 30 28  1  0  0  0  0
 31 34  1  0  0  0  0
 31 28  1  0  0  0  0
 32 31  1  0  0  0  0
 33 31  1  0  0  0  0
 34 35  1  0  0  0  0
 36 34  1  0  0  0  0
 37 34  1  0  0  0  0
 37 39  1  0  0  0  0
 37 40  1  0  0  0  0
 38 37  1  0  0  0  0
 40  7  1  0  0  0  0
 41 40  1  0  0  0  0
 42 40  1  0  0  0  0
 43 13  1  0  0  0  0
 43 51  1  0  0  0  0
 44 43  2  0  0  0  0
 45 44  1  0  0  0  0
 45 47  2  0  0  0  0
 46 45  1  0  0  0  0
 47 49  1  0  0  0  0
 48 47  1  0  0  0  0
 49 51  2  0  0  0  0
 49 50  1  0  0  0  0
 51 52  1  0  0  0  0
M  END
$$$$
