CSD_code = HUNZIB | q = 0 | S = 0 | Stoichiometry = C23H29IN4Pt | MND = 6
 OpenBabel04212202043D

 58 62  0  0  1  0  0  0  0  0999 V2000
    0.8298   11.8852    7.8997 Pt  0  0  0  0  0  0  0  0  0  0  0  0
    1.2905   10.6808    5.4891 I   0  0  0  0  0  0  0  0  0  0  0  0
    2.8427   11.4273    8.5060 N   0  0  0  0  0  0  0  0  0  0  0  0
    3.0010   10.5770    9.4586 N   0  0  0  0  0  2  0  0  0  0  0  0
    5.2146    9.0532   11.7364 N   0  0  0  0  0  0  0  0  0  0  0  0
    2.1081   13.5537    7.0676 N   0  0  0  0  0  0  0  0  0  0  0  0
   -0.0690   10.1867    8.6288 C   0  0  0  0  0  0  0  0  0  0  0  0
   -0.5738   10.3323    9.5837 H   0  0  0  0  0  0  0  0  0  0  0  0
    0.7512    9.4738    8.7526 H   0  0  0  0  0  0  0  0  0  0  0  0
   -0.7827    9.7863    7.9074 H   0  0  0  0  0  0  0  0  0  0  0  0
   -1.0414   12.5911    7.3966 C   0  0  0  0  0  0  0  0  0  0  0  0
   -1.2199   12.4188    6.3324 H   0  0  0  0  0  0  0  0  0  0  0  0
   -1.0737   13.6694    7.5857 H   0  0  0  0  0  0  0  0  0  0  0  0
   -1.8609   12.1328    7.9521 H   0  0  0  0  0  0  0  0  0  0  0  0
    0.5922   12.8056    9.7387 C   0  0  0  0  0  0  0  0  0  0  0  0
   -0.4426   12.9259   10.0531 H   0  0  0  0  0  0  0  0  0  0  0  0
    1.0480   13.7978    9.6842 H   0  0  0  0  0  0  0  0  0  0  0  0
    1.1128   12.2328   10.5096 H   0  0  0  0  0  0  0  0  0  0  0  0
    4.1138   10.5400   10.1784 C   0  0  0  0  0  0  0  0  0  0  0  0
    4.0725    9.5164   11.2378 C   0  0  0  0  0  0  0  0  0  0  0  0
    5.1699    8.1210   12.6685 C   0  0  0  0  0  0  0  0  0  0  0  0
    6.1334    7.7851   13.0302 H   0  0  0  0  0  0  0  0  0  0  0  0
    3.9889    7.5907   13.1652 C   0  0  0  0  0  0  0  0  0  0  0  0
    4.0060    6.8265   13.9261 H   0  0  0  0  0  0  0  0  0  0  0  0
    2.7935    8.0717   12.6519 C   0  0  0  0  0  0  0  0  0  0  0  0
    1.8477    7.6899   13.0075 H   0  0  0  0  0  0  0  0  0  0  0  0
    2.8297    9.0489   11.6747 C   0  0  0  0  0  0  0  0  0  0  0  0
    1.9274    9.4518   11.2448 H   0  0  0  0  0  0  0  0  0  0  0  0
    5.1651   11.4529    9.9499 C   0  0  0  0  0  0  0  0  0  0  0  0
    5.0023   12.3619    8.8967 C   0  0  0  0  0  0  0  0  0  0  0  0
    6.0146   13.4340    8.6102 C   0  0  0  0  0  0  0  0  0  0  0  0
    6.3845   13.8473    9.5506 H   0  0  0  0  0  0  0  0  0  0  0  0
    5.5143   14.2478    8.0800 H   0  0  0  0  0  0  0  0  0  0  0  0
    7.2205   12.9814    7.7682 C   0  0  0  0  0  0  0  0  0  0  0  0
    6.8760   12.4019    6.9087 H   0  0  0  0  0  0  0  0  0  0  0  0
    7.7016   13.8855    7.3859 H   0  0  0  0  0  0  0  0  0  0  0  0
    8.2763   12.1514    8.4972 C   0  0  0  0  0  0  0  0  0  0  0  0
    8.5951   12.6668    9.4050 H   0  0  0  0  0  0  0  0  0  0  0  0
    9.1466   12.1020    7.8390 H   0  0  0  0  0  0  0  0  0  0  0  0
    7.8246   10.7238    8.8325 C   0  0  0  0  0  0  0  0  0  0  0  0
    6.9724   10.4530    8.2054 H   0  0  0  0  0  0  0  0  0  0  0  0
    8.6280   10.0250    8.5911 H   0  0  0  0  0  0  0  0  0  0  0  0
    7.4657   10.5167   10.3006 C   0  0  0  0  0  0  0  0  0  0  0  0
    7.1162    9.4937   10.4415 H   0  0  0  0  0  0  0  0  0  0  0  0
    8.3571   10.6574   10.9153 H   0  0  0  0  0  0  0  0  0  0  0  0
    6.3776   11.4664   10.8201 C   0  0  0  0  0  0  0  0  0  0  0  0
    6.7799   12.4766   10.8905 H   0  0  0  0  0  0  0  0  0  0  0  0
    6.1023   11.1352   11.8215 H   0  0  0  0  0  0  0  0  0  0  0  0
    3.7986   12.3022    8.1700 C   0  0  0  0  0  0  0  0  0  0  0  0
    3.4010   13.1934    7.0627 C   0  0  1  0  0  3  0  0  0  0  0  0
    1.6557   14.3590    6.1188 C   0  0  0  0  0  0  0  0  0  0  0  0
    0.6094   14.6279    6.1815 H   0  0  0  0  0  0  0  0  0  0  0  0
    2.4485   14.8262    5.0844 C   0  0  0  0  0  0  0  0  0  0  0  0
    2.0325   15.4727    4.3292 H   0  0  0  0  0  0  0  0  0  0  0  0
    3.7653   14.4015    5.0266 C   0  0  0  0  0  0  0  0  0  0  0  0
    4.4059   14.6924    4.2082 H   0  0  0  0  0  0  0  0  0  0  0  0
    4.2505   13.5815    6.0308 C   0  0  0  0  0  0  0  0  0  0  0  0
    5.2580   13.2079    5.9808 H   0  0  0  0  0  0  0  0  0  0  0  0
  1  3  1  0  0  0  0
  1  7  1  0  0  0  0
  1 15  1  0  0  0  0
  2  1  1  0  0  0  0
  3  4  1  0  0  0  0
  4 19  1  0  0  0  0
  5 21  1  0  0  0  0
  6  1  1  0  0  0  0
  7  9  1  0  0  0  0
  7  8  1  0  0  0  0
 10  7  1  0  0  0  0
 11 13  1  0  0  0  0
 11  1  1  0  0  0  0
 11 14  1  0  0  0  0
 12 11  1  0  0  0  0
 15 16  1  0  0  0  0
 15 18  1  0  0  0  0
 17 15  1  0  0  0  0
 19 20  1  0  0  0  0
 20 27  1  0  0  0  0
 20  5  2  0  0  0  0
 21 22  1  0  0  0  0
 21 23  2  0  0  0  0
 23 24  1  0  0  0  0
 25 26  1  0  0  0  0
 25 23  1  0  0  0  0
 27 25  2  0  0  0  0
 28 27  1  0  0  0  0
 29 19  2  0  0  0  0
 29 46  1  0  0  0  0
 30 29  1  0  0  0  0
 31 30  1  0  0  0  0
 31 32  1  0  0  0  0
 33 31  1  0  0  0  0
 34 37  1  0  0  0  0
 34 31  1  0  0  0  0
 35 34  1  0  0  0  0
 36 34  1  0  0  0  0
 37 40  1  0  0  0  0
 37 38  1  0  0  0  0
 39 37  1  0  0  0  0
 40 43  1  0  0  0  0
 41 40  1  0  0  0  0
 42 40  1  0  0  0  0
 43 44  1  0  0  0  0
 43 46  1  0  0  0  0
 43 45  1  0  0  0  0
 46 47  1  0  0  0  0
 46 48  1  0  0  0  0
 49  3  1  0  0  0  0
 49 30  2  0  0  0  0
 50 57  1  6  0  0  0
 50  6  1  0  0  0  0
 50 49  1  0  0  0  0
 51 52  1  0  0  0  0
 51  6  1  0  0  0  0
 53 51  2  0  0  0  0
 54 53  1  0  0  0  0
 55 53  1  0  0  0  0
 55 57  2  0  0  0  0
 56 55  1  0  0  0  0
 58 57  1  0  0  0  0
M  END
$$$$
