CSD_code = HUPDUS | q = 0 | S = 0 | Stoichiometry = C34H26Cl2NiP2 | MND = 4
 OpenBabel04212202043D

 65 71  0  0  0  0  0  0  0  0999 V2000
    0.0007   10.3767    5.5195 Ni  0  0  0  0  0  0  0  0  0  0  0  0
    0.2327   11.7423    3.9432 Cl  0  0  0  0  0  0  0  0  0  0  0  0
    0.2743    8.9050    4.0249 P   0  0  0  0  0  4  0  0  0  0  0  0
   -0.1599    7.1376    4.2647 C   0  0  0  0  0  0  0  0  0  0  0  0
   -0.4532    6.3993    3.1391 C   0  0  0  0  0  0  0  0  0  0  0  0
   -0.5886    6.9007    2.1919 H   0  0  0  0  0  0  0  0  0  0  0  0
   -0.5615    5.0059    3.1759 C   0  0  0  0  0  0  0  0  0  0  0  0
   -0.8084    4.4677    2.2730 H   0  0  0  0  0  0  0  0  0  0  0  0
   -0.2945    4.3432    4.3379 C   0  0  0  0  0  0  0  0  0  0  0  0
   -0.3009    3.2636    4.3749 H   0  0  0  0  0  0  0  0  0  0  0  0
    0.0002    5.0540    5.5196 C   0  0  0  0  0  0  0  0  0  0  0  0
    0.0002    6.4805    5.5195 C   0  0  0  0  0  0  0  0  0  0  0  0
   -0.2633    9.2404    2.3257 C   0  0  0  0  0  0  0  0  0  0  0  0
    0.6204    9.5676    1.3062 C   0  0  0  0  0  0  0  0  0  0  0  0
    1.6839    9.5818    1.4959 H   0  0  0  0  0  0  0  0  0  0  0  0
    0.1290    9.8932    0.0542 C   0  0  0  0  0  0  0  0  0  0  0  0
    0.8158   10.1485   -0.7393 H   0  0  0  0  0  0  0  0  0  0  0  0
   -1.2356    9.9059   -0.1803 C   0  0  0  0  0  0  0  0  0  0  0  0
   -1.6126   10.1680   -1.1578 H   0  0  0  0  0  0  0  0  0  0  0  0
   -2.1200    9.5977    0.8419 C   0  0  0  0  0  0  0  0  0  0  0  0
   -3.1849    9.6222    0.6630 H   0  0  0  0  0  0  0  0  0  0  0  0
   -1.6369    9.2703    2.0935 C   0  0  0  0  0  0  0  0  0  0  0  0
   -2.3162    9.0361    2.9048 H   0  0  0  0  0  0  0  0  0  0  0  0
    2.0841    8.7086    3.9867 C   0  0  0  0  0  0  0  0  0  0  0  0
    2.8423    9.5240    4.8213 C   0  0  0  0  0  0  0  0  0  0  0  0
    2.3431   10.2845    5.4321 H   0  0  0  0  0  0  0  0  0  0  0  0
    4.2183    9.3907    4.8603 C   0  0  0  0  0  0  0  0  0  0  0  0
    4.8046   10.0274    5.5060 H   0  0  0  0  0  0  0  0  0  0  0  0
    4.8405    8.4422    4.0652 C   0  0  0  0  0  0  0  0  0  0  0  0
    5.9152    8.3383    4.0904 H   0  0  0  0  0  0  0  0  0  0  0  0
    4.0879    7.6248    3.2355 C   0  0  0  0  0  0  0  0  0  0  0  0
    4.5770    6.8861    2.6173 H   0  0  0  0  0  0  0  0  0  0  0  0
    2.7116    7.7492    3.1977 C   0  0  0  0  0  0  0  0  0  0  0  0
    2.1212    7.1064    2.5588 H   0  0  0  0  0  0  0  0  0  0  0  0
   -0.2310   11.7428    7.0955 Cl  0  0  0  0  0  0  0  0  0  0  0  0
   -0.2738    8.9051    7.0141 P   0  0  0  0  0  4  0  0  0  0  0  0
    0.1603    7.1377    6.7743 C   0  0  0  0  0  0  0  0  0  0  0  0
    0.4536    6.3994    7.9000 C   0  0  0  0  0  0  0  0  0  0  0  0
    0.5891    6.9009    8.8471 H   0  0  0  0  0  0  0  0  0  0  0  0
    0.5618    5.0060    7.8633 C   0  0  0  0  0  0  0  0  0  0  0  0
    0.8087    4.4678    8.7662 H   0  0  0  0  0  0  0  0  0  0  0  0
    0.2947    4.3432    6.7013 C   0  0  0  0  0  0  0  0  0  0  0  0
    0.3010    3.2636    6.6644 H   0  0  0  0  0  0  0  0  0  0  0  0
    0.2631    9.2404    8.7134 C   0  0  0  0  0  0  0  0  0  0  0  0
   -0.6211    9.5680    9.7324 C   0  0  0  0  0  0  0  0  0  0  0  0
   -1.6844    9.5826    9.5421 H   0  0  0  0  0  0  0  0  0  0  0  0
   -0.1303    9.8938   10.9846 C   0  0  0  0  0  0  0  0  0  0  0  0
   -0.8175   10.1494   11.7777 H   0  0  0  0  0  0  0  0  0  0  0  0
    1.2342    9.9061   11.2199 C   0  0  0  0  0  0  0  0  0  0  0  0
    1.6107   10.1681   12.1976 H   0  0  0  0  0  0  0  0  0  0  0  0
    2.1190    9.5975   10.1982 C   0  0  0  0  0  0  0  0  0  0  0  0
    3.1839    9.6216   10.3776 H   0  0  0  0  0  0  0  0  0  0  0  0
    1.6366    9.2700    8.9464 C   0  0  0  0  0  0  0  0  0  0  0  0
    2.3162    9.0356    8.1355 H   0  0  0  0  0  0  0  0  0  0  0  0
   -2.0837    8.7086    7.0519 C   0  0  0  0  0  0  0  0  0  0  0  0
   -2.8419    9.5246    6.2179 C   0  0  0  0  0  0  0  0  0  0  0  0
   -2.3427   10.2853    5.6074 H   0  0  0  0  0  0  0  0  0  0  0  0
   -4.2178    9.3913    6.1788 C   0  0  0  0  0  0  0  0  0  0  0  0
   -4.8042   10.0284    5.5335 H   0  0  0  0  0  0  0  0  0  0  0  0
   -4.8401    8.4424    6.9733 C   0  0  0  0  0  0  0  0  0  0  0  0
   -5.9148    8.3385    6.9481 H   0  0  0  0  0  0  0  0  0  0  0  0
   -4.0875    7.6245    7.8025 C   0  0  0  0  0  0  0  0  0  0  0  0
   -4.5767    6.8854    8.4203 H   0  0  0  0  0  0  0  0  0  0  0  0
   -2.7112    7.7489    7.8404 C   0  0  0  0  0  0  0  0  0  0  0  0
   -2.1208    7.1057    8.4790 H   0  0  0  0  0  0  0  0  0  0  0  0
  1 36  1  0  0  0  0
  1 35  1  0  0  0  0
  2  1  1  0  0  0  0
  3  4  1  0  0  0  0
  3  1  1  0  0  0  0
  4 12  1  0  0  0  0
  5  7  1  0  0  0  0
  5  4  2  0  0  0  0
  6  5  1  0  0  0  0
  7  9  2  0  0  0  0
  8  7  1  0  0  0  0
  9 10  1  0  0  0  0
  9 11  1  0  0  0  0
 11 42  1  0  0  0  0
 12 11  2  0  0  0  0
 12 37  1  0  0  0  0
 13  3  1  0  0  0  0
 14 15  1  0  0  0  0
 14 13  2  0  0  0  0
 16 14  1  0  0  0  0
 17 16  1  0  0  0  0
 18 16  2  0  0  0  0
 18 20  1  0  0  0  0
 19 18  1  0  0  0  0
 20 22  2  0  0  0  0
 21 20  1  0  0  0  0
 22 13  1  0  0  0  0
 22 23  1  0  0  0  0
 24  3  1  0  0  0  0
 24 25  1  0  0  0  0
 25 27  2  0  0  0  0
 25 26  1  0  0  0  0
 27 28  1  0  0  0  0
 29 30  1  0  0  0  0
 29 27  1  0  0  0  0
 31 29  2  0  0  0  0
 32 31  1  0  0  0  0
 33 31  1  0  0  0  0
 33 24  2  0  0  0  0
 34 33  1  0  0  0  0
 36 55  1  0  0  0  0
 36 44  1  0  0  0  0
 37 36  1  0  0  0  0
 37 38  2  0  0  0  0
 38 39  1  0  0  0  0
 40 38  1  0  0  0  0
 40 41  1  0  0  0  0
 42 40  2  0  0  0  0
 43 42  1  0  0  0  0
 44 53  2  0  0  0  0
 44 45  1  0  0  0  0
 45 47  2  0  0  0  0
 46 45  1  0  0  0  0
 47 49  1  0  0  0  0
 47 48  1  0  0  0  0
 49 50  1  0  0  0  0
 51 52  1  0  0  0  0
 51 49  2  0  0  0  0
 53 51  1  0  0  0  0
 54 53  1  0  0  0  0
 55 64  1  0  0  0  0
 56 55  2  0  0  0  0
 57 56  1  0  0  0  0
 58 56  1  0  0  0  0
 58 60  2  0  0  0  0
 59 58  1  0  0  0  0
 60 62  1  0  0  0  0
 61 60  1  0  0  0  0
 62 64  2  0  0  0  0
 62 63  1  0  0  0  0
 64 65  1  0  0  0  0
M  END
$$$$
