CSD_code = HUPFII | q = 0 | S = 0 | Stoichiometry = C34H26Cl2P2Pt | MND = 4
 OpenBabel04212202043D

 65 71  0  0  0  0  0  0  0  0999 V2000
   16.5310    1.0631    5.4931 Pt  0  0  0  0  0  0  0  0  0  0  0  0
   16.2153   -0.5132    3.8431 Cl  0  0  0  0  0  0  0  0  0  0  0  0
   16.1190    2.6422    3.9469 P   0  0  0  0  0  4  0  0  0  0  0  0
   16.6628    4.3654    4.2300 C   0  0  0  0  0  0  0  0  0  0  0  0
   16.9710    5.1043    3.1074 C   0  0  0  0  0  0  0  0  0  0  0  0
   17.0897    4.6004    2.1584 H   0  0  0  0  0  0  0  0  0  0  0  0
   17.1094    6.4948    3.1516 C   0  0  0  0  0  0  0  0  0  0  0  0
   17.3714    7.0340    2.2538 H   0  0  0  0  0  0  0  0  0  0  0  0
   16.8368    7.1552    4.3141 C   0  0  0  0  0  0  0  0  0  0  0  0
   16.8479    8.2345    4.3540 H   0  0  0  0  0  0  0  0  0  0  0  0
   16.5310    6.4433    5.4930 C   0  0  0  0  0  0  0  0  0  0  0  0
   16.5310    5.0161    5.4930 C   0  0  0  0  0  0  0  0  0  0  0  0
   16.6775    2.2513    2.2708 C   0  0  0  0  0  0  0  0  0  0  0  0
   18.0479    2.0533    2.1103 C   0  0  0  0  0  0  0  0  0  0  0  0
   18.7045    2.2071    2.9591 H   0  0  0  0  0  0  0  0  0  0  0  0
   18.5495    1.6538    0.8881 C   0  0  0  0  0  0  0  0  0  0  0  0
   19.6106    1.4957    0.7638 H   0  0  0  0  0  0  0  0  0  0  0  0
   17.6850    1.4383   -0.1751 C   0  0  0  0  0  0  0  0  0  0  0  0
   18.0752    1.1142   -1.1284 H   0  0  0  0  0  0  0  0  0  0  0  0
   16.3224    1.6207   -0.0126 C   0  0  0  0  0  0  0  0  0  0  0  0
   15.6506    1.4371   -0.8382 H   0  0  0  0  0  0  0  0  0  0  0  0
   15.8119    2.0238    1.2096 C   0  0  0  0  0  0  0  0  0  0  0  0
   14.7465    2.1467    1.3433 H   0  0  0  0  0  0  0  0  0  0  0  0
   14.3230    2.9011    3.8517 C   0  0  0  0  0  0  0  0  0  0  0  0
   13.7523    3.9576    3.1475 C   0  0  0  0  0  0  0  0  0  0  0  0
   14.3847    4.6642    2.6271 H   0  0  0  0  0  0  0  0  0  0  0  0
   12.3770    4.0972    3.1166 C   0  0  0  0  0  0  0  0  0  0  0  0
   11.9327    4.9142    2.5668 H   0  0  0  0  0  0  0  0  0  0  0  0
   11.5685    3.1926    3.7881 C   0  0  0  0  0  0  0  0  0  0  0  0
   10.4951    3.3079    3.7597 H   0  0  0  0  0  0  0  0  0  0  0  0
   12.1343    2.1432    4.4936 C   0  0  0  0  0  0  0  0  0  0  0  0
   11.5039    1.4383    5.0149 H   0  0  0  0  0  0  0  0  0  0  0  0
   13.5093    1.9974    4.5276 C   0  0  0  0  0  0  0  0  0  0  0  0
   13.9698    1.1718    5.0676 H   0  0  0  0  0  0  0  0  0  0  0  0
   16.8462   -0.5142    7.1421 Cl  0  0  0  0  0  0  0  0  0  0  0  0
   16.9430    2.6422    7.0389 P   0  0  0  0  0  4  0  0  0  0  0  0
   16.3992    4.3654    6.7560 C   0  0  0  0  0  0  0  0  0  0  0  0
   16.0910    5.1042    7.8786 C   0  0  0  0  0  0  0  0  0  0  0  0
   15.9723    4.6004    8.8276 H   0  0  0  0  0  0  0  0  0  0  0  0
   15.9526    6.4947    7.8344 C   0  0  0  0  0  0  0  0  0  0  0  0
   15.6906    7.0340    8.7322 H   0  0  0  0  0  0  0  0  0  0  0  0
   16.2252    7.1551    6.6719 C   0  0  0  0  0  0  0  0  0  0  0  0
   16.2141    8.2345    6.6321 H   0  0  0  0  0  0  0  0  0  0  0  0
   16.3846    2.2512    8.7151 C   0  0  0  0  0  0  0  0  0  0  0  0
   15.0141    2.0536    8.8756 C   0  0  0  0  0  0  0  0  0  0  0  0
   14.3576    2.2078    8.0270 H   0  0  0  0  0  0  0  0  0  0  0  0
   14.5125    1.6543   10.0979 C   0  0  0  0  0  0  0  0  0  0  0  0
   13.4513    1.4967   10.2224 H   0  0  0  0  0  0  0  0  0  0  0  0
   15.3770    1.4384   11.1610 C   0  0  0  0  0  0  0  0  0  0  0  0
   14.9867    1.1145   12.1144 H   0  0  0  0  0  0  0  0  0  0  0  0
   16.7397    1.6204   10.9984 C   0  0  0  0  0  0  0  0  0  0  0  0
   17.4115    1.4366   11.8240 H   0  0  0  0  0  0  0  0  0  0  0  0
   17.2502    2.0233    9.7762 C   0  0  0  0  0  0  0  0  0  0  0  0
   18.3156    2.1459    9.6424 H   0  0  0  0  0  0  0  0  0  0  0  0
   18.7390    2.9012    7.1343 C   0  0  0  0  0  0  0  0  0  0  0  0
   19.3096    3.9577    7.8384 C   0  0  0  0  0  0  0  0  0  0  0  0
   18.6772    4.6644    8.3587 H   0  0  0  0  0  0  0  0  0  0  0  0
   20.6849    4.0974    7.8694 C   0  0  0  0  0  0  0  0  0  0  0  0
   21.1291    4.9145    8.4191 H   0  0  0  0  0  0  0  0  0  0  0  0
   21.4934    3.1929    7.1980 C   0  0  0  0  0  0  0  0  0  0  0  0
   22.5669    3.3082    7.2264 H   0  0  0  0  0  0  0  0  0  0  0  0
   20.9278    2.1433    6.4925 C   0  0  0  0  0  0  0  0  0  0  0  0
   21.5583    1.4385    5.9713 H   0  0  0  0  0  0  0  0  0  0  0  0
   19.5528    1.9975    6.4584 C   0  0  0  0  0  0  0  0  0  0  0  0
   19.0924    1.1718    5.9185 H   0  0  0  0  0  0  0  0  0  0  0  0
  1 36  1  0  0  0  0
  1 35  1  0  0  0  0
  2  1  1  0  0  0  0
  3  4  1  0  0  0  0
  3  1  1  0  0  0  0
  4 12  1  0  0  0  0
  5  7  1  0  0  0  0
  5  4  2  0  0  0  0
  6  5  1  0  0  0  0
  7  9  2  0  0  0  0
  8  7  1  0  0  0  0
  9 10  1  0  0  0  0
  9 11  1  0  0  0  0
 11 42  1  0  0  0  0
 12 11  2  0  0  0  0
 12 37  1  0  0  0  0
 13  3  1  0  0  0  0
 14 13  1  0  0  0  0
 14 15  1  0  0  0  0
 16 14  2  0  0  0  0
 17 16  1  0  0  0  0
 18 20  2  0  0  0  0
 18 16  1  0  0  0  0
 19 18  1  0  0  0  0
 20 22  1  0  0  0  0
 21 20  1  0  0  0  0
 22 23  1  0  0  0  0
 22 13  2  0  0  0  0
 24  3  1  0  0  0  0
 24 33  1  0  0  0  0
 25 24  2  0  0  0  0
 26 25  1  0  0  0  0
 27 25  1  0  0  0  0
 27 29  2  0  0  0  0
 28 27  1  0  0  0  0
 29 31  1  0  0  0  0
 30 29  1  0  0  0  0
 31 33  2  0  0  0  0
 31 32  1  0  0  0  0
 33 34  1  0  0  0  0
 36 55  1  0  0  0  0
 36 44  1  0  0  0  0
 37 36  1  0  0  0  0
 37 38  2  0  0  0  0
 38 39  1  0  0  0  0
 40 38  1  0  0  0  0
 40 41  1  0  0  0  0
 42 40  2  0  0  0  0
 43 42  1  0  0  0  0
 44 45  2  0  0  0  0
 44 53  1  0  0  0  0
 45 47  1  0  0  0  0
 46 45  1  0  0  0  0
 47 48  1  0  0  0  0
 47 49  2  0  0  0  0
 49 50  1  0  0  0  0
 51 49  1  0  0  0  0
 51 52  1  0  0  0  0
 53 51  2  0  0  0  0
 54 53  1  0  0  0  0
 55 56  1  0  0  0  0
 56 58  2  0  0  0  0
 56 57  1  0  0  0  0
 58 59  1  0  0  0  0
 60 61  1  0  0  0  0
 60 58  1  0  0  0  0
 62 60  2  0  0  0  0
 63 62  1  0  0  0  0
 64 62  1  0  0  0  0
 64 55  2  0  0  0  0
 65 64  1  0  0  0  0
M  END
$$$$
