CSD_code = HUPHOP | q = 0 | S = 0 | Stoichiometry = C16H24ClN2PZr | MND = 12
 OpenBabel04212202043D

 45 46  0  0  1  0  0  0  0  0999 V2000
    6.7377    9.2357    7.0573 Zr  0  0  1  0  0  0  0  0  0  0  0  0
    4.4299    9.1985    7.5655 Cl  0  0  0  0  0  0  0  0  0  0  0  0
    8.0234   11.3793    6.6896 C   0  0  0  0  0  0  0  0  0  0  0  0
    8.5678   11.6077    5.7816 H   0  0  0  0  0  0  0  0  0  0  0  0
    8.5582   10.7734    7.8453 C   0  0  1  0  0  0  0  0  0  0  0  0
    9.5929   10.4794    7.9774 H   0  0  0  0  0  0  0  0  0  0  0  0
    7.5602   10.7887    8.8494 C   0  0  0  0  0  0  0  0  0  0  0  0
    7.6977   10.5143    9.8897 H   0  0  0  0  0  0  0  0  0  0  0  0
    6.4154   11.4109    8.3137 C   0  0  0  0  0  0  0  0  0  0  0  0
    5.5138   11.6628    8.8589 H   0  0  0  0  0  0  0  0  0  0  0  0
    6.6912   11.7622    6.9745 C   0  0  0  0  0  0  0  0  0  0  0  0
    6.0466   12.3465    6.3273 H   0  0  0  0  0  0  0  0  0  0  0  0
    7.4272    6.8521    6.5360 C   0  0  0  0  0  0  0  0  0  0  0  0
    7.4090    6.4087    5.5472 H   0  0  0  0  0  0  0  0  0  0  0  0
    8.5434    7.4807    7.1365 C   0  0  0  0  0  0  0  0  0  0  0  0
    9.5202    7.5960    6.6821 H   0  0  0  0  0  0  0  0  0  0  0  0
    8.2093    7.7666    8.4782 C   0  0  0  0  0  0  0  0  0  0  0  0
    8.8979    8.1132    9.2396 H   0  0  0  0  0  0  0  0  0  0  0  0
    6.8798    7.3484    8.6987 C   0  0  2  0  0  0  0  0  0  0  0  0
    6.3593    7.3451    9.6501 H   0  0  0  0  0  0  0  0  0  0  0  0
    6.4011    6.7720    7.5007 C   0  0  0  0  0  0  0  0  0  0  0  0
    5.4483    6.2697    7.3779 H   0  0  0  0  0  0  0  0  0  0  0  0
    6.9377    9.2764    5.0923 N   0  0  0  0  0  2  0  0  0  0  0  0
    7.0873    9.2578    3.5680 P   0  0  0  0  0  2  0  0  0  0  0  0
    5.5580    9.1324    2.8213 N   0  0  0  0  0  0  0  0  0  0  0  0
    5.5589    9.1075    1.3703 C   0  0  0  0  0  0  0  0  0  0  0  0
    6.6156    9.1776    1.0845 H   0  0  0  0  0  0  0  0  0  0  0  0
    4.8304   10.3120    0.7742 C   0  0  0  0  0  0  0  0  0  0  0  0
    5.2399   11.2320    1.1849 H   0  0  0  0  0  0  0  0  0  0  0  0
    3.7656   10.2775    0.9911 H   0  0  0  0  0  0  0  0  0  0  0  0
    4.9593   10.3248   -0.3049 H   0  0  0  0  0  0  0  0  0  0  0  0
    5.0098    7.7916    0.8190 C   0  0  0  0  0  0  0  0  0  0  0  0
    5.5470    6.9538    1.2577 H   0  0  0  0  0  0  0  0  0  0  0  0
    5.1381    7.7608   -0.2598 H   0  0  0  0  0  0  0  0  0  0  0  0
    3.9513    7.6809    1.0410 H   0  0  0  0  0  0  0  0  0  0  0  0
    4.2849    9.0605    3.5269 C   0  0  0  0  0  0  0  0  0  0  0  0
    3.4849    8.9884    2.7807 H   0  0  0  0  0  0  0  0  0  0  0  0
    4.0571   10.3294    4.3518 C   0  0  0  0  0  0  0  0  0  0  0  0
    4.0600   11.2035    3.7032 H   0  0  0  0  0  0  0  0  0  0  0  0
    4.8511   10.4328    5.1001 H   0  0  0  0  0  0  0  0  0  0  0  0
    3.1002   10.2724    4.8651 H   0  0  0  0  0  0  0  0  0  0  0  0
    4.2286    7.8108    4.4093 C   0  0  0  0  0  0  0  0  0  0  0  0
    4.3676    6.9173    3.8032 H   0  0  0  0  0  0  0  0  0  0  0  0
    3.2639    7.7533    4.9080 H   0  0  0  0  0  0  0  0  0  0  0  0
    5.0163    7.8574    5.1701 H   0  0  0  0  0  0  0  0  0  0  0  0
  1  2  1  1  0  0  0
  1  5  1  0  0  0  0
  1 19  1  0  0  0  0
  3 11  2  0  0  0  0
  3  5  1  0  0  0  0
  4  3  1  0  0  0  0
  5  6  1  1  0  0  0
  5  7  1  0  0  0  0
  7  8  1  0  0  0  0
  9  7  2  0  0  0  0
  9 10  1  0  0  0  0
 11  9  1  0  0  0  0
 12 11  1  0  0  0  0
 13 15  1  0  0  0  0
 13 21  2  0  0  0  0
 14 13  1  0  0  0  0
 15 17  2  0  0  0  0
 16 15  1  0  0  0  0
 17 19  1  0  0  0  0
 17 18  1  0  0  0  0
 19 20  1  1  0  0  0
 21 19  1  0  0  0  0
 22 21  1  0  0  0  0
 23  1  1  0  0  0  0
 24 23  1  0  0  0  0
 25 36  1  0  0  0  0
 25 24  1  0  0  0  0
 26 25  1  0  0  0  0
 27 26  1  0  0  0  0
 28 30  1  0  0  0  0
 28 29  1  0  0  0  0
 28 26  1  0  0  0  0
 31 28  1  0  0  0  0
 32 35  1  0  0  0  0
 32 33  1  0  0  0  0
 32 26  1  0  0  0  0
 34 32  1  0  0  0  0
 36 38  1  0  0  0  0
 36 42  1  0  0  0  0
 37 36  1  0  0  0  0
 38 41  1  0  0  0  0
 38 40  1  0  0  0  0
 39 38  1  0  0  0  0
 42 44  1  0  0  0  0
 42 45  1  0  0  0  0
 43 42  1  0  0  0  0
M  END
$$$$
