CSD_code = HUQZOJ | q = -1 | S = 0 | Stoichiometry = C2H3Cl5N3Os(1-) | MND = 6
 OpenBabel04212202043D

 14 14  0  0  0  0  0  0  0  0999 V2000
    4.8174   -0.1675    7.9093 Os  0  0  0  0  0  0  0  0  0  0  0  0
    6.2975    1.6117    7.5289 Cl  0  0  0  0  0  0  0  0  0  0  0  0
    6.4192   -1.1154    9.3353 Cl  0  0  0  0  0  0  0  0  0  0  0  0
    3.4903   -2.0281    8.1674 Cl  0  0  0  0  0  0  0  0  0  0  0  0
    3.3686    0.7092    6.3526 Cl  0  0  0  0  0  0  0  0  0  0  0  0
    3.7806    0.9162    9.6135 Cl  0  0  0  0  0  0  0  0  0  0  0  0
    5.8332   -1.1180    6.4023 N   0  0  0  0  0  0  0  0  0  0  0  0
    5.2972   -1.8034    5.3897 N   0  0  0  0  0  0  0  0  0  0  0  0
    7.4651   -1.8364    5.1801 N   0  0  0  0  0  0  0  0  0  0  0  0
    8.3927   -2.0158    4.8334 H   0  0  0  0  0  0  0  0  0  0  0  0
    6.2723   -2.2342    4.6563 C   0  0  0  0  0  0  0  0  0  0  0  0
    6.1658   -2.8188    3.7664 H   0  0  0  0  0  0  0  0  0  0  0  0
    7.1381   -1.1308    6.2875 C   0  0  0  0  0  3  0  0  0  0  0  0
    7.8237   -0.6591    6.9619 H   0  0  0  0  0  0  0  0  0  0  0  0
  1  4  1  0  0  0  0
  1  3  1  0  0  0  0
  1  6  1  0  0  0  0
  2  1  1  0  0  0  0
  5  1  1  0  0  0  0
  7  1  1  0  0  0  0
  8  7  1  0  0  0  0
  9 13  1  0  0  0  0
 10  9  1  0  0  0  0
 11  9  1  0  0  0  0
 11  8  2  0  0  0  0
 12 11  1  0  0  0  0
 13  7  1  0  0  0  0
 13 14  1  0  0  0  0
M  END
$$$$
