CSD_code = HURBIG | q = -1 | S = 0 | Stoichiometry = C3H4Cl5N2Os(1-) | MND = 6
 OpenBabel04212202043D

 15 15  0  0  0  0  0  0  0  0999 V2000
    3.6137    2.6953    8.8534 Os  0  0  0  0  0  0  0  0  0  0  0  0
    5.0015    4.5024    8.3688 Cl  0  0  0  0  0  0  0  0  0  0  0  0
    1.9861    4.1827    9.6080 Cl  0  0  0  0  0  0  0  0  0  0  0  0
    2.1359    0.9335    9.1337 Cl  0  0  0  0  0  0  0  0  0  0  0  0
    5.1552    1.2516    7.9026 Cl  0  0  0  0  0  0  0  0  0  0  0  0
    4.4898    2.4328   10.9272 Cl  0  0  0  0  0  0  0  0  0  0  0  0
    2.8034    2.9632    6.9464 N   0  0  0  0  0  0  0  0  0  0  0  0
    1.9617    3.9605    5.2012 N   0  0  0  0  0  0  0  0  0  0  0  0
    1.6219    4.6920    4.5991 H   0  0  0  0  0  0  0  0  0  0  0  0
    2.4537    4.1225    6.4421 C   0  0  0  0  0  3  0  0  0  0  0  0
    2.5477    5.0623    6.9501 H   0  0  0  0  0  0  0  0  0  0  0  0
    2.0058    2.6253    4.9113 C   0  0  0  0  0  0  0  0  0  0  0  0
    1.6684    2.2288    3.9764 H   0  0  0  0  0  0  0  0  0  0  0  0
    2.5330    2.0157    6.0085 C   0  0  0  0  0  0  0  0  0  0  0  0
    2.7387    0.9807    6.1961 H   0  0  0  0  0  0  0  0  0  0  0  0
  1  4  1  0  0  0  0
  1  3  1  0  0  0  0
  1  6  1  0  0  0  0
  2  1  1  0  0  0  0
  5  1  1  0  0  0  0
  7  1  1  0  0  0  0
  8 10  1  0  0  0  0
  9  8  1  0  0  0  0
 10  7  1  0  0  0  0
 10 11  1  0  0  0  0
 12  8  1  0  0  0  0
 12 14  2  0  0  0  0
 13 12  1  0  0  0  0
 14 15  1  0  0  0  0
 14  7  1  0  0  0  0
M  END
$$$$
