CSD_code = HUSSUL | q = 0 | S = 0 | Stoichiometry = C35H25ClNNiP | MND = 4
 OpenBabel04212202043D

 64 71  0  0  1  0  0  0  0  0999 V2000
    0.6173    9.8164    3.6885 Ni  0  0  1  0  0  0  0  0  0  0  0  0
   -0.8745   10.3683    2.3658 Cl  0  0  0  0  0  0  0  0  0  0  0  0
    2.1648    9.0238    4.9235 P   0  0  0  0  0  4  0  0  0  0  0  0
    2.0144   11.2330    3.1195 N   0  0  0  0  0  0  0  0  0  0  0  0
    1.7463   12.1465    2.2382 C   0  0  0  0  0  0  0  0  0  0  0  0
    0.7586   12.1116    1.7873 H   0  0  0  0  0  0  0  0  0  0  0  0
    2.6606   13.1624    1.8452 C   0  0  0  0  0  0  0  0  0  0  0  0
    2.2972   14.1219    0.8865 C   0  0  0  0  0  0  0  0  0  0  0  0
    1.3106   14.0724    0.4507 H   0  0  0  0  0  0  0  0  0  0  0  0
    3.1865   15.0988    0.5194 C   0  0  0  0  0  0  0  0  0  0  0  0
    2.9127   15.8393   -0.2167 H   0  0  0  0  0  0  0  0  0  0  0  0
    4.4564   15.1380    1.1011 C   0  0  0  0  0  0  0  0  0  0  0  0
    5.1515   15.9106    0.8070 H   0  0  0  0  0  0  0  0  0  0  0  0
    4.8310   14.2082    2.0409 C   0  0  0  0  0  0  0  0  0  0  0  0
    5.8179   14.2645    2.4724 H   0  0  0  0  0  0  0  0  0  0  0  0
    3.9436   13.1971    2.4371 C   0  0  0  0  0  0  0  0  0  0  0  0
    4.2487   12.1813    3.4126 C   0  0  0  0  0  0  0  0  0  0  0  0
    3.2520   11.2244    3.7178 C   0  0  2  0  0  3  0  0  0  0  0  0
    3.5207   10.2163    4.6677 C   0  0  0  0  0  0  0  0  0  0  0  0
    4.7463   10.1489    5.2927 C   0  0  0  0  0  0  0  0  0  0  0  0
    4.9421    9.3676    6.0126 H   0  0  0  0  0  0  0  0  0  0  0  0
    5.7257   11.0928    4.9945 C   0  0  0  0  0  0  0  0  0  0  0  0
    6.6849   11.0408    5.4879 H   0  0  0  0  0  0  0  0  0  0  0  0
    5.4813   12.0859    4.0755 C   0  0  0  0  0  0  0  0  0  0  0  0
    6.2583   12.8024    3.8611 H   0  0  0  0  0  0  0  0  0  0  0  0
    2.0605    8.7768    6.7118 C   0  0  0  0  0  0  0  0  0  0  0  0
    2.3910    9.7806    7.6156 C   0  0  0  0  0  0  0  0  0  0  0  0
    2.8431   10.6972    7.2613 H   0  0  0  0  0  0  0  0  0  0  0  0
    2.1336    9.6080    8.9634 C   0  0  0  0  0  0  0  0  0  0  0  0
    2.3956   10.3876    9.6639 H   0  0  0  0  0  0  0  0  0  0  0  0
    1.5282    8.4467    9.4133 C   0  0  0  0  0  0  0  0  0  0  0  0
    1.3186    8.3209   10.4651 H   0  0  0  0  0  0  0  0  0  0  0  0
    1.1799    7.4515    8.5137 C   0  0  0  0  0  0  0  0  0  0  0  0
    0.6953    6.5518    8.8623 H   0  0  0  0  0  0  0  0  0  0  0  0
    1.4387    7.6156    7.1674 C   0  0  0  0  0  0  0  0  0  0  0  0
    1.1527    6.8530    6.4548 H   0  0  0  0  0  0  0  0  0  0  0  0
    2.9450    7.5107    4.2883 C   0  0  0  0  0  0  0  0  0  0  0  0
    2.6926    7.2196    2.9512 C   0  0  0  0  0  0  0  0  0  0  0  0
    2.0232    7.8701    2.3918 H   0  0  0  0  0  0  0  0  0  0  0  0
    3.2735    6.1151    2.3581 C   0  0  0  0  0  0  0  0  0  0  0  0
    3.0745    5.8876    1.3212 H   0  0  0  0  0  0  0  0  0  0  0  0
    4.1074    5.2958    3.1027 C   0  0  0  0  0  0  0  0  0  0  0  0
    4.5599    4.4285    2.6451 H   0  0  0  0  0  0  0  0  0  0  0  0
    4.3580    5.5817    4.4354 C   0  0  0  0  0  0  0  0  0  0  0  0
    5.0052    4.9372    5.0125 H   0  0  0  0  0  0  0  0  0  0  0  0
    3.7820    6.6888    5.0325 C   0  0  0  0  0  0  0  0  0  0  0  0
    3.9686    6.9056    6.0752 H   0  0  0  0  0  0  0  0  0  0  0  0
   -0.5667    8.5414    4.3766 C   0  0  0  0  0  0  0  0  0  0  0  0
   -0.8467    7.3080    3.8426 C   0  0  0  0  0  0  0  0  0  0  0  0
   -0.4764    7.0227    2.8662 H   0  0  0  0  0  0  0  0  0  0  0  0
   -1.6385    6.3894    4.5544 C   0  0  0  0  0  0  0  0  0  0  0  0
   -1.8486    5.4292    4.1039 H   0  0  0  0  0  0  0  0  0  0  0  0
   -2.1227    6.6881    5.7964 C   0  0  0  0  0  0  0  0  0  0  0  0
   -2.7136    5.9689    6.3461 H   0  0  0  0  0  0  0  0  0  0  0  0
   -1.8588    7.9433    6.3815 C   0  0  0  0  0  0  0  0  0  0  0  0
   -1.0910    8.8877    5.6519 C   0  0  0  0  0  0  0  0  0  0  0  0
   -0.8357   10.1522    6.2255 C   0  0  0  0  0  0  0  0  0  0  0  0
   -0.2802   10.8848    5.6296 H   0  0  0  0  0  0  0  0  0  0  0  0
   -1.2844   10.4616    7.4774 C   0  0  0  0  0  0  0  0  0  0  0  0
   -1.0799   11.4293    7.9126 H   0  0  0  0  0  0  0  0  0  0  0  0
   -2.0234    9.5185    8.2081 C   0  0  0  0  0  0  0  0  0  0  0  0
   -2.3706    9.7725    9.1995 H   0  0  0  0  0  0  0  0  0  0  0  0
   -2.3112    8.2957    7.6696 C   0  0  0  0  0  0  0  0  0  0  0  0
   -2.8927    7.5747    8.2277 H   0  0  0  0  0  0  0  0  0  0  0  0
  1  2  1  6  0  0  0
  1 48  1  0  0  0  0
  1  3  1  0  0  0  0
  3 26  1  0  0  0  0
  4  1  1  0  0  0  0
  4 18  1  0  0  0  0
  5  4  1  0  0  0  0
  6  5  1  0  0  0  0
  7  5  2  0  0  0  0
  7 16  1  0  0  0  0
  8  7  1  0  0  0  0
  9  8  1  0  0  0  0
 10  8  2  0  0  0  0
 10 12  1  0  0  0  0
 11 10  1  0  0  0  0
 12 14  2  0  0  0  0
 13 12  1  0  0  0  0
 14 16  1  0  0  0  0
 14 15  1  0  0  0  0
 16 17  2  0  0  0  0
 17 24  1  0  0  0  0
 18 17  1  6  0  0  0
 18 19  1  0  0  0  0
 19  3  1  0  0  0  0
 19 20  2  0  0  0  0
 20 21  1  0  0  0  0
 22 20  1  0  0  0  0
 22 23  1  0  0  0  0
 24 22  2  0  0  0  0
 25 24  1  0  0  0  0
 26 35  2  0  0  0  0
 26 27  1  0  0  0  0
 27 29  2  0  0  0  0
 28 27  1  0  0  0  0
 29 31  1  0  0  0  0
 29 30  1  0  0  0  0
 31 32  1  0  0  0  0
 33 34  1  0  0  0  0
 33 31  2  0  0  0  0
 35 33  1  0  0  0  0
 36 35  1  0  0  0  0
 37  3  1  0  0  0  0
 37 46  1  0  0  0  0
 38 37  2  0  0  0  0
 39 38  1  0  0  0  0
 40 38  1  0  0  0  0
 40 42  2  0  0  0  0
 41 40  1  0  0  0  0
 42 44  1  0  0  0  0
 43 42  1  0  0  0  0
 44 45  1  0  0  0  0
 44 46  2  0  0  0  0
 46 47  1  0  0  0  0
 48 56  1  0  0  0  0
 49 48  2  0  0  0  0
 49 51  1  0  0  0  0
 50 49  1  0  0  0  0
 51 53  2  0  0  0  0
 52 51  1  0  0  0  0
 53 54  1  0  0  0  0
 53 55  1  0  0  0  0
 55 63  1  0  0  0  0
 56 57  1  0  0  0  0
 56 55  2  0  0  0  0
 57 59  2  0  0  0  0
 58 57  1  0  0  0  0
 59 60  1  0  0  0  0
 59 61  1  0  0  0  0
 61 62  1  0  0  0  0
 63 61  2  0  0  0  0
 63 64  1  0  0  0  0
M  END
$$$$
