CSD_code = HUTVIC | q = 1 | S = 0 | Stoichiometry = C9H16ClN8Pd(1+) | MND = 4
 OpenBabel04212202053D

 35 38  0  0  1  0  0  0  0  0999 V2000
    2.5023    7.2736   12.9280 Pd  0  0  2  0  0  0  0  0  0  0  0  0
    2.5982    9.1743   14.1047 Cl  0  0  0  0  0  0  0  0  0  0  0  0
   -0.2557    6.3897   15.9933 N   0  0  0  0  0  0  0  0  0  0  0  0
   -0.3706    5.0164   17.8315 N   0  0  0  0  0  0  0  0  0  0  0  0
   -1.2162    5.4849   18.1087 H   0  0  0  0  0  0  0  0  0  0  0  0
    0.0216    4.2813   18.3945 H   0  0  0  0  0  0  0  0  0  0  0  0
    1.5274    6.3566   14.4196 N   0  0  0  0  0  0  0  0  0  0  0  0
   -0.2749    7.7769   14.1758 N   0  0  0  0  0  0  0  0  0  0  0  0
   -1.0690    8.2132   14.6170 H   0  0  0  0  0  0  0  0  0  0  0  0
    0.2984    8.3550   13.5585 H   0  0  0  0  0  0  0  0  0  0  0  0
    2.2302    3.7688   16.7383 N   0  0  0  0  0  0  0  0  0  0  0  0
    3.1605    4.5912   14.8821 N   0  0  0  0  0  0  0  0  0  0  0  0
    2.7964    5.4671   11.6996 N   0  0  2  0  0  4  0  0  0  0  0  0
    1.9131    5.2482   11.2364 H   0  0  0  0  0  0  0  0  0  0  0  0
    3.4492    8.2325   11.3499 N   0  0  0  0  0  4  0  0  0  0  0  0
    4.4157    8.4479   11.6128 H   0  0  0  0  0  0  0  0  0  0  0  0
    2.9959    9.1266   11.1451 H   0  0  0  0  0  0  0  0  0  0  0  0
    0.2608    5.4039   16.7286 C   0  0  0  0  0  0  0  0  0  0  0  0
    1.4649    4.8076   16.2838 C   0  0  0  0  0  0  0  0  0  0  0  0
    2.0426    5.3353   15.1221 C   0  0  2  0  0  3  0  0  0  0  0  0
    0.3547    6.8339   14.9053 C   0  0  0  0  0  0  0  0  0  0  0  0
    3.2071    3.6638   15.8999 C   0  0  0  0  0  0  0  0  0  0  0  0
    3.9919    2.9383   15.9727 H   0  0  0  0  0  0  0  0  0  0  0  0
    4.0212    4.6853   13.7322 C   0  0  0  0  0  0  0  0  0  0  0  0
    4.8700    4.0203   13.9018 H   0  0  0  0  0  0  0  0  0  0  0  0
    4.3947    5.7297   13.6446 H   0  0  0  0  0  0  0  0  0  0  0  0
    3.2678    4.2871   12.4400 C   0  0  0  0  0  0  0  0  0  0  0  0
    3.9208    3.6806   11.8021 H   0  0  0  0  0  0  0  0  0  0  0  0
    2.4091    3.6720   12.7220 H   0  0  0  0  0  0  0  0  0  0  0  0
    3.7641    5.9124   10.6791 C   0  0  0  0  0  0  0  0  0  0  0  0
    3.7901    5.2199    9.8283 H   0  0  0  0  0  0  0  0  0  0  0  0
    4.7597    5.9329   11.1377 H   0  0  0  0  0  0  0  0  0  0  0  0
    3.4097    7.3213   10.1977 C   0  0  0  0  0  0  0  0  0  0  0  0
    4.1071    7.6266    9.4083 H   0  0  0  0  0  0  0  0  0  0  0  0
    2.3963    7.3265    9.7814 H   0  0  0  0  0  0  0  0  0  0  0  0
  1  2  1  1  0  0  0
  1  7  1  0  0  0  0
  3 18  1  0  0  0  0
  4  5  1  0  0  0  0
  4  6  1  0  0  0  0
  7 21  1  0  0  0  0
  7 20  1  0  0  0  0
  8  9  1  0  0  0  0
  8 21  1  0  0  0  0
 10  8  1  0  0  0  0
 12 20  1  0  0  0  0
 12 22  1  0  0  0  0
 13 14  1  6  0  0  0
 13 27  1  0  0  0  0
 13  1  1  0  0  0  0
 15 16  1  0  0  0  0
 15  1  1  0  0  0  0
 17 15  1  0  0  0  0
 18  4  1  0  0  0  0
 19 18  2  0  0  0  0
 19 11  1  0  0  0  0
 20 19  1  6  0  0  0
 21  3  2  0  0  0  0
 22 23  1  0  0  0  0
 22 11  2  0  0  0  0
 24 25  1  0  0  0  0
 24 12  1  0  0  0  0
 26 24  1  0  0  0  0
 27 29  1  0  0  0  0
 27 24  1  0  0  0  0
 28 27  1  0  0  0  0
 30 32  1  0  0  0  0
 30 13  1  0  0  0  0
 31 30  1  0  0  0  0
 33 30  1  0  0  0  0
 33 15  1  0  0  0  0
 34 33  1  0  0  0  0
 35 33  1  0  0  0  0
M  END
$$$$
