CSD_code = HUVRAS | q = 0 | S = 0 | Stoichiometry = C21H32ClIrN2O2 | MND = 4
 OpenBabel04212202053D

 59 61  0  0  0  0  0  0  0  0999 V2000
    1.3473    1.2895    3.0500 Ir  0  0  0  0  0  0  0  0  0  0  0  0
    2.8374    2.5966    4.1770 Cl  0  0  0  0  0  0  0  0  0  0  0  0
    2.1457    2.2176    1.3838 C   0  0  0  0  0  0  0  0  0  0  0  0
    1.7955    3.4204    0.8960 N   0  0  0  0  0  0  0  0  0  0  0  0
    2.6925    3.8259   -0.0528 C   0  0  0  0  0  0  0  0  0  0  0  0
    2.6115    4.7622   -0.5650 H   0  0  0  0  0  0  0  0  0  0  0  0
    3.6235    2.8469   -0.1554 C   0  0  0  0  0  0  0  0  0  0  0  0
    4.4959    2.7818   -0.7721 H   0  0  0  0  0  0  0  0  0  0  0  0
    3.2694    1.8697    0.7329 N   0  0  0  0  0  0  0  0  0  0  0  0
    0.6377    4.1598    1.3593 C   0  0  0  0  0  0  0  0  0  0  0  0
    0.2404    3.5486    2.1781 H   0  0  0  0  0  0  0  0  0  0  0  0
    1.0486    5.5289    1.9194 C   0  0  0  0  0  0  0  0  0  0  0  0
    2.1371    5.5458    2.0170 H   0  0  0  0  0  0  0  0  0  0  0  0
    0.7719    6.3277    1.2291 H   0  0  0  0  0  0  0  0  0  0  0  0
    0.4721    5.8027    3.3097 C   0  0  0  0  0  0  0  0  0  0  0  0
    0.9432    6.7137    3.6880 H   0  0  0  0  0  0  0  0  0  0  0  0
    0.7716    4.9871    3.9716 H   0  0  0  0  0  0  0  0  0  0  0  0
   -1.0445    5.9899    3.4054 C   0  0  0  0  0  0  0  0  0  0  0  0
   -1.2485    6.3275    4.4243 H   0  0  0  0  0  0  0  0  0  0  0  0
   -1.3645    6.7942    2.7407 H   0  0  0  0  0  0  0  0  0  0  0  0
   -1.8793    4.7284    3.1457 C   0  0  0  0  0  0  0  0  0  0  0  0
   -2.7242    4.7252    3.8388 H   0  0  0  0  0  0  0  0  0  0  0  0
   -1.2877    3.8463    3.3937 H   0  0  0  0  0  0  0  0  0  0  0  0
   -2.4776    4.6006    1.7358 C   0  0  0  0  0  0  0  0  0  0  0  0
   -3.3966    5.1925    1.7090 H   0  0  0  0  0  0  0  0  0  0  0  0
   -2.7608    3.5579    1.5760 H   0  0  0  0  0  0  0  0  0  0  0  0
   -1.6275    5.0701    0.5552 C   0  0  0  0  0  0  0  0  0  0  0  0
   -2.2673    5.0599   -0.3314 H   0  0  0  0  0  0  0  0  0  0  0  0
   -1.3254    6.1051    0.7117 H   0  0  0  0  0  0  0  0  0  0  0  0
   -0.4018    4.2188    0.2366 C   0  0  0  0  0  0  0  0  0  0  0  0
   -0.7189    3.1972    0.0115 H   0  0  0  0  0  0  0  0  0  0  0  0
    0.0719    4.6251   -0.6623 H   0  0  0  0  0  0  0  0  0  0  0  0
    3.9896    0.6379    0.9904 C   0  0  0  0  0  0  0  0  0  0  0  0
    3.4376    0.1732    1.8158 H   0  0  0  0  0  0  0  0  0  0  0  0
    5.4226    0.9299    1.4583 C   0  0  0  0  0  0  0  0  0  0  0  0
    5.4984    1.9976    1.6795 H   0  0  0  0  0  0  0  0  0  0  0  0
    6.1404    0.7109    0.6660 H   0  0  0  0  0  0  0  0  0  0  0  0
    5.7973    0.1821    2.7392 C   0  0  0  0  0  0  0  0  0  0  0  0
    6.7593    0.5742    3.0797 H   0  0  0  0  0  0  0  0  0  0  0  0
    5.0603    0.4272    3.5072 H   0  0  0  0  0  0  0  0  0  0  0  0
    5.9254   -1.3404    2.6400 C   0  0  0  0  0  0  0  0  0  0  0  0
    6.3436   -1.6760    3.5919 H   0  0  0  0  0  0  0  0  0  0  0  0
    6.6520   -1.6047    1.8698 H   0  0  0  0  0  0  0  0  0  0  0  0
    4.6103   -2.0958    2.4042 C   0  0  0  0  0  0  0  0  0  0  0  0
    4.6296   -3.0155    2.9942 H   0  0  0  0  0  0  0  0  0  0  0  0
    3.7798   -1.5077    2.7962 H   0  0  0  0  0  0  0  0  0  0  0  0
    4.3365   -2.5198    0.9531 C   0  0  0  0  0  0  0  0  0  0  0  0
    4.8946   -3.4408    0.7637 H   0  0  0  0  0  0  0  0  0  0  0  0
    3.2753   -2.7608    0.8599 H   0  0  0  0  0  0  0  0  0  0  0  0
    4.7234   -1.5439   -0.1580 C   0  0  0  0  0  0  0  0  0  0  0  0
    4.6040   -2.0697   -1.1092 H   0  0  0  0  0  0  0  0  0  0  0  0
    5.7796   -1.2915   -0.0700 H   0  0  0  0  0  0  0  0  0  0  0  0
    3.8940   -0.2658   -0.2422 C   0  0  0  0  0  0  0  0  0  0  0  0
    2.8431   -0.5254   -0.3941 H   0  0  0  0  0  0  0  0  0  0  0  0
    4.2264    0.2981   -1.1190 H   0  0  0  0  0  0  0  0  0  0  0  0
    0.8412    0.6389    4.7351 C   0  0  0  0  0  2  0  0  0  0  0  0
    0.6368    0.3357    5.8199 O   0  0  0  0  0  1  0  0  0  0  0  0
    0.1764    0.2782    2.0339 C   0  0  0  0  0  2  0  0  0  0  0  0
   -0.5394   -0.3330    1.3612 O   0  0  0  0  0  1  0  0  0  0  0  0
  1  2  1  0  0  0  0
  1 56  1  0  0  0  0
  3  1  2  0  0  0  0
  4 10  1  0  0  0  0
  4  3  1  0  0  0  0
  5  4  1  0  0  0  0
  6  5  1  0  0  0  0
  7  5  2  0  0  0  0
  7  9  1  0  0  0  0
  8  7  1  0  0  0  0
  9 33  1  0  0  0  0
  9  3  1  0  0  0  0
 10 12  1  0  0  0  0
 10 11  1  0  0  0  0
 12 13  1  0  0  0  0
 12 15  1  0  0  0  0
 14 12  1  0  0  0  0
 15 18  1  0  0  0  0
 15 16  1  0  0  0  0
 15 17  1  0  0  0  0
 18 19  1  0  0  0  0
 20 18  1  0  0  0  0
 21 23  1  0  0  0  0
 21 18  1  0  0  0  0
 21 22  1  0  0  0  0
 24 21  1  0  0  0  0
 25 24  1  0  0  0  0
 26 24  1  0  0  0  0
 27 29  1  0  0  0  0
 27 24  1  0  0  0  0
 28 27  1  0  0  0  0
 30 27  1  0  0  0  0
 30 10  1  0  0  0  0
 31 30  1  0  0  0  0
 32 30  1  0  0  0  0
 33 35  1  0  0  0  0
 33 34  1  0  0  0  0
 35 36  1  0  0  0  0
 35 38  1  0  0  0  0
 37 35  1  0  0  0  0
 38 39  1  0  0  0  0
 38 40  1  0  0  0  0
 41 38  1  0  0  0  0
 41 42  1  0  0  0  0
 43 41  1  0  0  0  0
 44 41  1  0  0  0  0
 44 46  1  0  0  0  0
 44 45  1  0  0  0  0
 47 44  1  0  0  0  0
 48 47  1  0  0  0  0
 49 47  1  0  0  0  0
 50 52  1  0  0  0  0
 50 47  1  0  0  0  0
 51 50  1  0  0  0  0
 53 50  1  0  0  0  0
 53 33  1  0  0  0  0
 54 53  1  0  0  0  0
 55 53  1  0  0  0  0
 56 57  1  0  0  0  0
 58  1  1  0  0  0  0
 59 58  1  0  0  0  0
M  END
$$$$
