CSD_code = HUWFIP | q = 0 | S = 0 | Stoichiometry = C8H8FeI2N2O3 | MND = 6
 OpenBabel04212202053D

 24 24  0  0  1  0  0  0  0  0999 V2000
    0.9888    2.7743    1.8834 I   0  0  0  0  0  0  0  0  0  0  0  0
    2.3420    6.3658    2.4376 I   0  0  0  0  0  0  0  0  0  0  0  0
    3.2079    4.0668    1.5424 Fe  0  0  0  0  0  0  0  0  0  0  0  0
    4.1006    3.8293    4.3117 O   0  0  0  0  0  1  0  0  0  0  0  0
    1.7935    4.9391   -0.8724 O   0  0  0  0  0  1  0  0  0  0  0  0
    5.7085    5.4175    1.0264 O   0  0  0  0  0  1  0  0  0  0  0  0
    4.2977    1.2228    1.4598 N   0  0  0  0  0  0  0  0  0  0  0  0
    4.4447    2.1683   -0.4653 N   0  0  0  0  0  0  0  0  0  0  0  0
    3.7543    3.8363    3.2283 C   0  0  0  0  0  2  0  0  0  0  0  0
    2.3877    4.5564    0.0179 C   0  0  0  0  0  2  0  0  0  0  0  0
    4.7119    4.8918    1.2103 C   0  0  0  0  0  2  0  0  0  0  0  0
    4.0345    2.3760    0.8070 C   0  0  2  0  0  3  0  0  0  0  0  0
    4.8526    0.3100    0.6073 C   0  0  0  0  0  0  0  0  0  0  0  0
    5.1314   -0.6735    0.9232 H   0  0  0  0  0  0  0  0  0  0  0  0
    4.9431    0.9018   -0.6035 C   0  0  0  0  0  0  0  0  0  0  0  0
    5.3121    0.5298   -1.5364 H   0  0  0  0  0  0  0  0  0  0  0  0
    4.0829    0.9225    2.8510 C   0  0  0  0  0  0  0  0  0  0  0  0
    4.8642    1.3693    3.4683 H   0  0  0  0  0  0  0  0  0  0  0  0
    4.1078   -0.1572    2.9845 H   0  0  0  0  0  0  0  0  0  0  0  0
    3.1101    1.2844    3.1807 H   0  0  0  0  0  0  0  0  0  0  0  0
    4.3811    3.0811   -1.5763 C   0  0  0  0  0  0  0  0  0  0  0  0
    3.3916    3.0632   -2.0375 H   0  0  0  0  0  0  0  0  0  0  0  0
    5.1157    2.7811   -2.3218 H   0  0  0  0  0  0  0  0  0  0  0  0
    4.6061    4.0970   -1.2549 H   0  0  0  0  0  0  0  0  0  0  0  0
  3  1  1  0  0  0  0
  3  2  1  0  0  0  0
  3  9  1  0  0  0  0
  5 10  1  0  0  0  0
  6 11  1  0  0  0  0
  7 17  1  0  0  0  0
  8 12  1  0  0  0  0
  9  4  1  0  0  0  0
 10  3  1  0  0  0  0
 11  3  1  0  0  0  0
 12  7  1  0  0  0  0
 12  3  1  1  0  0  0
 13 14  1  0  0  0  0
 13  7  1  0  0  0  0
 15  8  1  0  0  0  0
 15 13  2  0  0  0  0
 16 15  1  0  0  0  0
 17 19  1  0  0  0  0
 17 20  1  0  0  0  0
 17 18  1  0  0  0  0
 21 24  1  0  0  0  0
 21  8  1  0  0  0  0
 22 21  1  0  0  0  0
 23 21  1  0  0  0  0
M  END
$$$$
