CSD_code = HUWFOV | q = 0 | S = 0 | Stoichiometry = C12H8FeI2N2O2 | MND = 6
 OpenBabel04212202053D

 27 29  0  0  1  0  0  0  0  0999 V2000
    1.1246    3.2148    4.7828 I   0  0  0  0  0  0  0  0  0  0  0  0
    3.5977    2.1649    0.4284 I   0  0  0  0  0  0  0  0  0  0  0  0
    2.3607    2.6573    2.6147 Fe  0  0  0  0  0  0  0  0  0  0  0  0
    3.9503    5.0641    2.9336 O   0  0  0  0  0  1  0  0  0  0  0  0
    0.7419    4.6198    1.2185 O   0  0  0  0  0  1  0  0  0  0  0  0
    1.2478    1.0526    2.3702 N   0  0  0  0  0  0  0  0  0  0  0  0
    3.4931    1.3624    3.5718 N   0  0  0  0  0  0  0  0  0  0  0  0
    3.3688    4.0894    2.8393 C   0  0  0  0  0  2  0  0  0  0  0  0
    1.3356    3.8084    1.7536 C   0  0  0  0  0  2  0  0  0  0  0  0
    0.0837    0.9974    1.7313 C   0  0  0  0  0  3  0  0  0  0  0  0
   -0.2830    1.9262    1.3185 H   0  0  0  0  0  0  0  0  0  0  0  0
   -0.6403   -0.1700    1.5868 C   0  0  0  0  0  0  0  0  0  0  0  0
   -1.5798   -0.1577    1.0595 H   0  0  0  0  0  0  0  0  0  0  0  0
   -0.1319   -1.3408    2.1306 C   0  0  0  0  0  0  0  0  0  0  0  0
   -0.6678   -2.2723    2.0363 H   0  0  0  0  0  0  0  0  0  0  0  0
    1.0768   -1.2917    2.7981 C   0  0  0  0  0  0  0  0  0  0  0  0
    1.4947   -2.1852    3.2308 H   0  0  0  0  0  0  0  0  0  0  0  0
    1.7483   -0.0760    2.9053 C   0  0  0  0  0  0  0  0  0  0  0  0
    3.0262    0.1007    3.5905 C   0  0  2  0  0  3  0  0  0  0  0  0
    3.7265   -0.9246    4.2220 C   0  0  0  0  0  0  0  0  0  0  0  0
    3.3368   -1.9288    4.2261 H   0  0  0  0  0  0  0  0  0  0  0  0
    4.9270   -0.6410    4.8442 C   0  0  0  0  0  0  0  0  0  0  0  0
    5.4848   -1.4207    5.3388 H   0  0  0  0  0  0  0  0  0  0  0  0
    5.3976    0.6639    4.8200 C   0  0  0  0  0  0  0  0  0  0  0  0
    6.3276    0.9340    5.2923 H   0  0  0  0  0  0  0  0  0  0  0  0
    4.6482    1.6274    4.1735 C   0  0  0  0  0  0  0  0  0  0  0  0
    4.9862    2.6529    4.1355 H   0  0  0  0  0  0  0  0  0  0  0  0
  2  3  1  0  0  0  0
  3  8  1  0  0  0  0
  3  7  1  0  0  0  0
  3  1  1  0  0  0  0
  5  9  1  0  0  0  0
  6  3  1  0  0  0  0
  6 18  1  0  0  0  0
  7 19  1  0  0  0  0
  7 26  1  0  0  0  0
  8  4  1  0  0  0  0
  9  3  1  0  0  0  0
 10  6  1  0  0  0  0
 11 10  1  0  0  0  0
 12 10  1  0  0  0  0
 12 14  2  0  0  0  0
 13 12  1  0  0  0  0
 14 16  1  0  0  0  0
 15 14  1  0  0  0  0
 16 18  2  0  0  0  0
 16 17  1  0  0  0  0
 19 18  1  1  0  0  0
 19 20  1  0  0  0  0
 20 21  1  0  0  0  0
 20 22  2  0  0  0  0
 22 23  1  0  0  0  0
 24 22  1  0  0  0  0
 24 25  1  0  0  0  0
 26 24  2  0  0  0  0
 27 26  1  0  0  0  0
M  END
$$$$
