CSD_code = HUWFUB | q = 0 | S = 0 | Stoichiometry = C8H5FeI2NO3 | MND = 6
 OpenBabel04212202053D

 20 20  0  0  0  0  0  0  0  0999 V2000
    3.6260   13.2975    3.6738 I   0  0  0  0  0  0  0  0  0  0  0  0
    7.4749   13.5888    4.3629 I   0  0  0  0  0  0  0  0  0  0  0  0
    5.8580   12.4434    2.7235 Fe  0  0  0  0  0  0  0  0  0  0  0  0
    5.9295   14.9677    1.2769 O   0  0  0  0  0  1  0  0  0  0  0  0
    8.2797   11.6460    1.3494 O   0  0  0  0  0  1  0  0  0  0  0  0
    4.1853   11.3295    0.6371 O   0  0  0  0  0  1  0  0  0  0  0  0
    5.7883   10.7189    3.8685 N   0  0  0  0  0  0  0  0  0  0  0  0
    5.9002   13.9863    1.8441 C   0  0  0  0  0  2  0  0  0  0  0  0
    7.3366   11.9287    1.9196 C   0  0  0  0  0  2  0  0  0  0  0  0
    4.8295   11.7366    1.4818 C   0  0  0  0  0  2  0  0  0  0  0  0
    5.5458   10.7557    5.1800 C   0  0  0  0  0  3  0  0  0  0  0  0
    5.3804   11.7234    5.6316 H   0  0  0  0  0  0  0  0  0  0  0  0
    5.4984    9.6223    5.9732 C   0  0  0  0  0  0  0  0  0  0  0  0
    5.2971    9.7236    7.0270 H   0  0  0  0  0  0  0  0  0  0  0  0
    5.7118    8.3852    5.3924 C   0  0  0  0  0  0  0  0  0  0  0  0
    5.6834    7.4806    5.9796 H   0  0  0  0  0  0  0  0  0  0  0  0
    5.9642    8.3407    4.0293 C   0  0  0  0  0  0  0  0  0  0  0  0
    6.1382    7.4057    3.5214 H   0  0  0  0  0  0  0  0  0  0  0  0
    5.9926    9.5207    3.3126 C   0  0  0  0  0  0  0  0  0  0  0  0
    6.1876    9.5029    2.2482 H   0  0  0  0  0  0  0  0  0  0  0  0
  3  1  1  0  0  0  0
  3  7  1  0  0  0  0
  3  2  1  0  0  0  0
  4  8  1  0  0  0  0
  5  9  1  0  0  0  0
  6 10  1  0  0  0  0
  7 11  1  0  0  0  0
  8  3  1  0  0  0  0
  9  3  1  0  0  0  0
 10  3  1  0  0  0  0
 11 12  1  0  0  0  0
 11 13  1  0  0  0  0
 13 14  1  0  0  0  0
 15 13  2  0  0  0  0
 15 16  1  0  0  0  0
 17 15  1  0  0  0  0
 18 17  1  0  0  0  0
 19  7  1  0  0  0  0
 19 17  2  0  0  0  0
 20 19  1  0  0  0  0
M  END
$$$$
