CSD_code = HUWFAH | q = 0 | S = 0 | Stoichiometry = C24H24FeI2N2O3 | MND = 6
 OpenBabel04212202053D

 56 58  0  0  1  0  0  0  0  0999 V2000
    1.8738    4.1344    8.8833 Fe  0  0  0  0  0  0  0  0  0  0  0  0
    2.2336    4.1330   11.4820 I   0  0  0  0  0  0  0  0  0  0  0  0
    4.3666    4.1336    8.2600 I   0  0  0  0  0  0  0  0  0  0  0  0
    2.2846    6.9940    9.3315 O   0  0  0  0  0  1  0  0  0  0  0  0
   -0.8977    4.1344    9.6986 O   0  0  0  0  0  1  0  0  0  0  0  0
    1.0037    5.2061    6.1967 N   0  0  0  0  0  0  0  0  0  0  0  0
    0.1921    4.1348    9.3551 C   0  0  0  0  0  2  0  0  0  0  0  0
    2.0530    5.9194    9.0383 C   0  0  0  0  0  2  0  0  0  0  0  0
    1.2921    4.1345    6.9656 C   0  0  2  0  0  3  0  0  0  0  0  0
    0.5426    4.8100    4.9690 C   0  0  0  0  0  0  0  0  0  0  0  0
    0.2522    5.5172    4.2196 H   0  0  0  0  0  0  0  0  0  0  0  0
    1.1444    6.5780    6.5495 C   0  0  0  0  0  0  0  0  0  0  0  0
    2.3036    7.2575    6.1584 C   0  0  0  0  0  0  0  0  0  0  0  0
    2.4478    8.5782    6.5480 C   0  0  0  0  0  0  0  0  0  0  0  0
    3.3506    9.1059    6.2791 H   0  0  0  0  0  0  0  0  0  0  0  0
    1.4659    9.2358    7.2792 C   0  0  0  0  0  0  0  0  0  0  0  0
    0.2944    8.5584    7.5793 C   0  0  0  0  0  0  0  0  0  0  0  0
   -0.4954    9.0646    8.1148 H   0  0  0  0  0  0  0  0  0  0  0  0
    0.1093    7.2307    7.2182 C   0  0  0  0  0  0  0  0  0  0  0  0
   -1.1890    6.5576    7.5467 C   0  0  0  0  0  0  0  0  0  0  0  0
   -1.2167    5.5251    7.2066 H   0  0  0  0  0  0  0  0  0  0  0  0
   -2.0103    7.0954    7.0742 H   0  0  0  0  0  0  0  0  0  0  0  0
   -1.3636    6.5738    8.6213 H   0  0  0  0  0  0  0  0  0  0  0  0
    3.3603    6.5827    5.3426 C   0  0  0  0  0  0  0  0  0  0  0  0
    4.0536    7.3176    4.9441 H   0  0  0  0  0  0  0  0  0  0  0  0
    2.9256    6.0267    4.5132 H   0  0  0  0  0  0  0  0  0  0  0  0
    3.9316    5.8825    5.9509 H   0  0  0  0  0  0  0  0  0  0  0  0
    1.6769   10.6449    7.7326 C   0  0  0  0  0  0  0  0  0  0  0  0
    0.7299   11.1351    7.9435 H   0  0  0  0  0  0  0  0  0  0  0  0
    2.2168   11.2173    6.9819 H   0  0  0  0  0  0  0  0  0  0  0  0
    2.2717   10.6469    8.6460 H   0  0  0  0  0  0  0  0  0  0  0  0
    2.2854    1.2749    9.3313 O   0  0  0  0  0  1  0  0  0  0  0  0
    1.0042    3.0630    6.1964 N   0  0  0  0  0  0  0  0  0  0  0  0
    2.0546    2.3494    9.0373 C   0  0  0  0  0  2  0  0  0  0  0  0
    0.5429    3.4591    4.9688 C   0  0  0  0  0  0  0  0  0  0  0  0
    0.2529    2.7521    4.2192 H   0  0  0  0  0  0  0  0  0  0  0  0
    1.1449    1.6911    6.5492 C   0  0  0  0  0  0  0  0  0  0  0  0
    2.3039    1.0113    6.1580 C   0  0  0  0  0  0  0  0  0  0  0  0
    2.4478   -0.3094    6.5478 C   0  0  0  0  0  0  0  0  0  0  0  0
    3.3506   -0.8373    6.2788 H   0  0  0  0  0  0  0  0  0  0  0  0
    1.4660   -0.9667    7.2793 C   0  0  0  0  0  0  0  0  0  0  0  0
    0.2946   -0.2890    7.5794 C   0  0  0  0  0  0  0  0  0  0  0  0
   -0.4951   -0.7951    8.1152 H   0  0  0  0  0  0  0  0  0  0  0  0
    0.1097    1.0386    7.2182 C   0  0  0  0  0  0  0  0  0  0  0  0
   -1.1884    1.7120    7.5469 C   0  0  0  0  0  0  0  0  0  0  0  0
   -1.2159    2.7444    7.2066 H   0  0  0  0  0  0  0  0  0  0  0  0
   -2.0099    1.1743    7.0746 H   0  0  0  0  0  0  0  0  0  0  0  0
   -1.3628    1.6960    8.6215 H   0  0  0  0  0  0  0  0  0  0  0  0
    3.3607    1.6859    5.3421 C   0  0  0  0  0  0  0  0  0  0  0  0
    4.0542    0.9509    4.9442 H   0  0  0  0  0  0  0  0  0  0  0  0
    2.9260    2.2412    4.5122 H   0  0  0  0  0  0  0  0  0  0  0  0
    3.9316    2.3866    5.9502 H   0  0  0  0  0  0  0  0  0  0  0  0
    1.6768   -2.3758    7.7328 C   0  0  0  0  0  0  0  0  0  0  0  0
    0.7298   -2.8658    7.9438 H   0  0  0  0  0  0  0  0  0  0  0  0
    2.2167   -2.9484    6.9823 H   0  0  0  0  0  0  0  0  0  0  0  0
    2.2715   -2.3777    8.6463 H   0  0  0  0  0  0  0  0  0  0  0  0
  1 34  1  0  0  0  0
  1  8  1  0  0  0  0
  1  7  1  0  0  0  0
  1  2  1  0  0  0  0
  3  1  1  0  0  0  0
  6 12  1  0  0  0  0
  6  9  1  0  0  0  0
  7  5  1  0  0  0  0
  8  4  1  0  0  0  0
  9  1  1  1  0  0  0
 10  6  1  0  0  0  0
 11 10  1  0  0  0  0
 12 19  1  0  0  0  0
 13 14  1  0  0  0  0
 13 12  2  0  0  0  0
 14 16  2  0  0  0  0
 15 14  1  0  0  0  0
 16 17  1  0  0  0  0
 16 28  1  0  0  0  0
 17 18  1  0  0  0  0
 19 20  1  0  0  0  0
 19 17  2  0  0  0  0
 20 23  1  0  0  0  0
 21 20  1  0  0  0  0
 22 20  1  0  0  0  0
 24 27  1  0  0  0  0
 24 13  1  0  0  0  0
 25 24  1  0  0  0  0
 26 24  1  0  0  0  0
 28 29  1  0  0  0  0
 28 31  1  0  0  0  0
 30 28  1  0  0  0  0
 33 37  1  0  0  0  0
 33  9  1  0  0  0  0
 34 32  1  0  0  0  0
 35 10  2  0  0  0  0
 35 33  1  0  0  0  0
 36 35  1  0  0  0  0
 37 44  1  0  0  0  0
 38 39  1  0  0  0  0
 38 37  2  0  0  0  0
 39 41  2  0  0  0  0
 40 39  1  0  0  0  0
 41 42  1  0  0  0  0
 41 53  1  0  0  0  0
 42 43  1  0  0  0  0
 44 45  1  0  0  0  0
 44 42  2  0  0  0  0
 45 48  1  0  0  0  0
 46 45  1  0  0  0  0
 47 45  1  0  0  0  0
 49 52  1  0  0  0  0
 49 38  1  0  0  0  0
 50 49  1  0  0  0  0
 51 49  1  0  0  0  0
 53 54  1  0  0  0  0
 53 56  1  0  0  0  0
 55 53  1  0  0  0  0
M  END
$$$$
