CSD_code = HUWGAI | q = 0 | S = 0 | Stoichiometry = C25H19FeINO2PS | MND = 6
 OpenBabel04212202053D

 51 55  0  0  1  0  0  0  0  0999 V2000
    9.4816    3.6686    4.1952 C   0  0  0  0  0  2  0  0  0  0  0  0
    8.1137    1.5668    3.9378 C   0  0  0  0  0  2  0  0  0  0  0  0
    5.4263    4.3953    3.4967 C   0  0  1  0  0  3  0  0  0  0  0  0
    4.1172    4.7586    3.1781 C   0  0  0  0  0  0  0  0  0  0  0  0
    3.8211    5.7913    3.2632 H   0  0  0  0  0  0  0  0  0  0  0  0
    3.2584    3.7725    2.7515 C   0  0  0  0  0  0  0  0  0  0  0  0
    2.2381    4.0125    2.4937 H   0  0  0  0  0  0  0  0  0  0  0  0
    3.7193    2.4598    2.6405 C   0  0  0  0  0  0  0  0  0  0  0  0
    3.0717    1.6723    2.2924 H   0  0  0  0  0  0  0  0  0  0  0  0
    5.0262    2.1811    2.9742 C   0  0  0  0  0  0  0  0  0  0  0  0
    5.4351    1.1829    2.8940 H   0  0  0  0  0  0  0  0  0  0  0  0
    7.9689    4.7664    7.0385 C   0  0  0  0  0  0  0  0  0  0  0  0
    7.6980    4.7553    8.4062 C   0  0  0  0  0  0  0  0  0  0  0  0
    7.0676    3.9808    8.8224 H   0  0  0  0  0  0  0  0  0  0  0  0
    8.2297    5.7338    9.2232 C   0  0  0  0  0  0  0  0  0  0  0  0
    8.0128    5.7253   10.2812 H   0  0  0  0  0  0  0  0  0  0  0  0
    9.0417    6.7215    8.6867 C   0  0  0  0  0  0  0  0  0  0  0  0
    9.4590    7.4830    9.3283 H   0  0  0  0  0  0  0  0  0  0  0  0
    9.3154    6.7326    7.3297 C   0  0  0  0  0  0  0  0  0  0  0  0
    9.9449    7.5020    6.9089 H   0  0  0  0  0  0  0  0  0  0  0  0
    8.7808    5.7584    6.5047 C   0  0  0  0  0  0  0  0  0  0  0  0
    8.9809    5.7833    5.4431 H   0  0  0  0  0  0  0  0  0  0  0  0
    7.8299    2.0069    7.0318 C   0  0  0  0  0  0  0  0  0  0  0  0
    7.0531    1.3796    8.0003 C   0  0  0  0  0  0  0  0  0  0  0  0
    6.0325    1.6931    8.1716 H   0  0  0  0  0  0  0  0  0  0  0  0
    7.5824    0.3416    8.7476 C   0  0  0  0  0  0  0  0  0  0  0  0
    6.9694   -0.1447    9.4923 H   0  0  0  0  0  0  0  0  0  0  0  0
    8.8877   -0.0726    8.5453 C   0  0  0  0  0  0  0  0  0  0  0  0
    9.2934   -0.8856    9.1282 H   0  0  0  0  0  0  0  0  0  0  0  0
    9.6731    0.5598    7.5948 C   0  0  0  0  0  0  0  0  0  0  0  0
   10.6936    0.2455    7.4363 H   0  0  0  0  0  0  0  0  0  0  0  0
    9.1463    1.5932    6.8448 C   0  0  0  0  0  0  0  0  0  0  0  0
    9.7553    2.0900    6.1013 H   0  0  0  0  0  0  0  0  0  0  0  0
    5.4876    3.4878    6.3657 C   0  0  0  0  0  0  0  0  0  0  0  0
    4.8500    4.6632    6.7467 C   0  0  0  0  0  0  0  0  0  0  0  0
    5.4328    5.5545    6.9349 H   0  0  0  0  0  0  0  0  0  0  0  0
    3.4718    4.6874    6.8667 C   0  0  0  0  0  0  0  0  0  0  0  0
    2.9771    5.6002    7.1632 H   0  0  0  0  0  0  0  0  0  0  0  0
    2.7274    3.5511    6.5960 C   0  0  0  0  0  0  0  0  0  0  0  0
    1.6515    3.5777    6.6833 H   0  0  0  0  0  0  0  0  0  0  0  0
    3.3593    2.3804    6.2059 C   0  0  0  0  0  0  0  0  0  0  0  0
    2.7786    1.4963    5.9876 H   0  0  0  0  0  0  0  0  0  0  0  0
    4.7351    2.3484    6.0850 C   0  0  0  0  0  0  0  0  0  0  0  0
    5.2411    1.4440    5.7682 H   0  0  0  0  0  0  0  0  0  0  0  0
    7.7850    3.2913    3.9039 Fe  0  0  0  0  0  0  0  0  0  0  0  0
    8.3973    3.5308    1.4424 I   0  0  0  0  0  0  0  0  0  0  0  0
    5.8569    3.1235    3.4094 N   0  0  0  0  0  0  0  0  0  0  0  0
   10.6015    3.8617    4.3077 O   0  0  0  0  0  1  0  0  0  0  0  0
    8.3160    0.4432    3.9668 O   0  0  0  0  0  1  0  0  0  0  0  0
    7.2706    3.4262    6.0205 P   0  0  0  0  0  4  0  0  0  0  0  0
    6.6811    5.4443    4.0225 S   0  0  0  0  0  0  0  0  0  0  0  0
  1 48  1  0  0  0  0
  2 49  1  0  0  0  0
  3  4  1  6  0  0  0
  3 51  1  0  0  0  0
  4  5  1  0  0  0  0
  6  4  2  0  0  0  0
  7  6  1  0  0  0  0
  8  6  1  0  0  0  0
  8 10  2  0  0  0  0
  9  8  1  0  0  0  0
 10 47  1  0  0  0  0
 11 10  1  0  0  0  0
 12 13  1  0  0  0  0
 13 14  1  0  0  0  0
 13 15  2  0  0  0  0
 15 16  1  0  0  0  0
 17 15  1  0  0  0  0
 17 18  1  0  0  0  0
 19 17  2  0  0  0  0
 20 19  1  0  0  0  0
 21 12  2  0  0  0  0
 21 19  1  0  0  0  0
 22 21  1  0  0  0  0
 23 24  1  0  0  0  0
 24 25  1  0  0  0  0
 24 26  2  0  0  0  0
 26 27  1  0  0  0  0
 28 26  1  0  0  0  0
 28 29  1  0  0  0  0
 30 28  2  0  0  0  0
 31 30  1  0  0  0  0
 32 23  2  0  0  0  0
 32 30  1  0  0  0  0
 33 32  1  0  0  0  0
 34 35  1  0  0  0  0
 35 37  2  0  0  0  0
 35 36  1  0  0  0  0
 37 38  1  0  0  0  0
 39 40  1  0  0  0  0
 39 37  1  0  0  0  0
 41 39  2  0  0  0  0
 42 41  1  0  0  0  0
 43 41  1  0  0  0  0
 43 34  2  0  0  0  0
 44 43  1  0  0  0  0
 45  2  1  0  0  0  0
 45 51  1  0  0  0  0
 45  1  1  0  0  0  0
 45 50  1  0  0  0  0
 46 45  1  0  0  0  0
 47  3  1  0  0  0  0
 47 45  1  0  0  0  0
 50 34  1  0  0  0  0
 50 23  1  0  0  0  0
 50 12  1  0  0  0  0
M  END
$$$$
