CSD_code = HUWQEX | q = 0 | S = 0 | Stoichiometry = C24H22FN3NiO2 | MND = 4
 OpenBabel04212202053D

 53 59  0  0  1  0  0  0  0  0999 V2000
   -8.4044   -5.0134  -12.9073 Ni  0  0  2  0  0  0  0  0  0  0  0  0
   -7.4539   -4.2734  -14.1906 F   0  0  0  0  0  0  0  0  0  0  0  0
   -9.5461   -8.3701  -14.9036 O   0  0  0  0  0  0  0  0  0  0  0  0
   -7.8560   -2.1552  -10.0637 O   0  0  0  0  0  0  0  0  0  0  0  0
   -8.8132   -6.4056  -14.1182 N   0  0  2  0  0  0  0  0  0  0  0  0
   -9.4503   -5.8159  -11.5105 N   0  0  0  0  0  0  0  0  0  0  0  0
   -7.9022   -3.5653  -11.8022 N   0  0  0  0  0  0  0  0  0  0  0  0
   -8.5690   -6.3304  -15.5534 C   0  0  1  0  0  0  0  0  0  0  0  0
   -7.5102   -6.1187  -15.7349 H   0  0  0  0  0  0  0  0  0  0  0  0
   -8.9635   -7.7460  -16.0391 C   0  0  0  0  0  0  0  0  0  0  0  0
   -9.7058   -7.7239  -16.8413 H   0  0  0  0  0  0  0  0  0  0  0  0
   -8.1008   -8.3391  -16.3585 H   0  0  0  0  0  0  0  0  0  0  0  0
   -9.4111   -7.5279  -13.8604 C   0  0  1  0  0  3  0  0  0  0  0  0
   -9.9615   -7.9072  -12.6185 C   0  0  0  0  0  0  0  0  0  0  0  0
  -10.4165   -8.8806  -12.5538 H   0  0  0  0  0  0  0  0  0  0  0  0
   -9.9964   -7.0559  -11.5560 C   0  0  0  0  0  0  0  0  0  0  0  0
  -10.6902   -7.4101  -10.2637 C   0  0  0  0  0  0  0  0  0  0  0  0
  -10.1289   -8.1910   -9.7471 H   0  0  0  0  0  0  0  0  0  0  0  0
  -11.6946   -7.7884  -10.4496 H   0  0  0  0  0  0  0  0  0  0  0  0
  -10.6720   -6.0929   -9.4946 C   0  0  0  0  0  0  0  0  0  0  0  0
  -11.6629   -5.6377   -9.4435 H   0  0  0  0  0  0  0  0  0  0  0  0
  -10.2970   -6.1914   -8.4768 H   0  0  0  0  0  0  0  0  0  0  0  0
   -9.7586   -5.2282  -10.3283 C   0  0  1  0  0  3  0  0  0  0  0  0
   -9.3096   -4.0174   -9.8954 C   0  0  0  0  0  0  0  0  0  0  0  0
   -9.6178   -3.6302   -8.9395 H   0  0  0  0  0  0  0  0  0  0  0  0
   -8.3683   -3.2659  -10.6291 C   0  0  0  0  0  0  0  0  0  0  0  0
   -6.9001   -1.6144  -10.9649 C   0  0  0  0  0  0  0  0  0  0  0  0
   -5.9488   -1.5058  -10.4371 H   0  0  0  0  0  0  0  0  0  0  0  0
   -7.2481   -0.6299  -11.2925 H   0  0  0  0  0  0  0  0  0  0  0  0
   -6.8238   -2.6385  -12.1231 C   0  0  1  0  0  0  0  0  0  0  0  0
   -7.0209   -2.1699  -13.0929 H   0  0  0  0  0  0  0  0  0  0  0  0
   -5.4714   -3.3203  -12.1970 C   0  0  0  0  0  0  0  0  0  0  0  0
   -4.3384   -2.5339  -12.3711 C   0  0  0  0  0  0  0  0  0  0  0  0
   -4.4415   -1.4619  -12.4652 H   0  0  0  0  0  0  0  0  0  0  0  0
   -3.0848   -3.1135  -12.4373 C   0  0  0  0  0  0  0  0  0  0  0  0
   -2.2123   -2.4915  -12.5752 H   0  0  0  0  0  0  0  0  0  0  0  0
   -2.9484   -4.4877  -12.3351 C   0  0  0  0  0  0  0  0  0  0  0  0
   -1.9695   -4.9411  -12.3893 H   0  0  0  0  0  0  0  0  0  0  0  0
   -4.0736   -5.2769  -12.1747 C   0  0  0  0  0  0  0  0  0  0  0  0
   -3.9753   -6.3505  -12.1061 H   0  0  0  0  0  0  0  0  0  0  0  0
   -5.3281   -4.6968  -12.1032 C   0  0  0  0  0  0  0  0  0  0  0  0
   -6.2101   -5.3318  -11.9968 H   0  0  0  0  0  0  0  0  0  0  0  0
   -9.3882   -5.2454  -16.2257 C   0  0  0  0  0  0  0  0  0  0  0  0
   -9.3578   -5.1504  -17.6124 C   0  0  0  0  0  0  0  0  0  0  0  0
   -8.7431   -5.8336  -18.1816 H   0  0  0  0  0  0  0  0  0  0  0  0
  -10.0973   -4.1824  -18.2664 C   0  0  0  0  0  0  0  0  0  0  0  0
  -10.0636   -4.1181  -19.3442 H   0  0  0  0  0  0  0  0  0  0  0  0
  -10.8735   -3.2937  -17.5418 C   0  0  0  0  0  0  0  0  0  0  0  0
  -11.4495   -2.5361  -18.0525 H   0  0  0  0  0  0  0  0  0  0  0  0
  -10.8965   -3.3738  -16.1605 C   0  0  0  0  0  0  0  0  0  0  0  0
  -11.4903   -2.6759  -15.5886 H   0  0  0  0  0  0  0  0  0  0  0  0
  -10.1602   -4.3458  -15.5056 C   0  0  0  0  0  0  0  0  0  0  0  0
  -10.1702   -4.3865  -14.4148 H   0  0  0  0  0  0  0  0  0  0  0  0
  1  2  1  6  0  0  0
  1  7  1  0  0  0  0
  1  6  1  0  0  0  0
  3 13  1  0  0  0  0
  5 13  1  0  0  0  0
  5  1  1  0  0  0  0
  6 23  1  0  0  0  0
  7 26  1  0  0  0  0
  8  5  1  0  0  0  0
  9  8  1  0  0  0  0
 10  8  1  0  0  0  0
 10  3  1  0  0  0  0
 11 10  1  0  0  0  0
 12 10  1  0  0  0  0
 13 14  1  0  0  0  0
 14 15  1  0  0  0  0
 14 16  2  0  0  0  0
 16  6  1  0  0  0  0
 16 17  1  0  0  0  0
 17 18  1  0  0  0  0
 17 20  1  0  0  0  0
 19 17  1  0  0  0  0
 20 21  1  0  0  0  0
 20 22  1  0  0  0  0
 23 24  1  0  0  0  0
 23 20  1  0  0  0  0
 24 25  1  0  0  0  0
 26  4  1  0  0  0  0
 26 24  2  0  0  0  0
 27 28  1  0  0  0  0
 27  4  1  0  0  0  0
 29 27  1  0  0  0  0
 30  7  1  0  0  0  0
 30 27  1  0  0  0  0
 31 30  1  0  0  0  0
 32 30  1  0  0  0  0
 32 41  1  0  0  0  0
 33 32  2  0  0  0  0
 34 33  1  0  0  0  0
 35 33  1  0  0  0  0
 35 37  2  0  0  0  0
 36 35  1  0  0  0  0
 37 39  1  0  0  0  0
 38 37  1  0  0  0  0
 39 40  1  0  0  0  0
 39 41  2  0  0  0  0
 41 42  1  0  0  0  0
 43  8  1  0  0  0  0
 43 52  1  0  0  0  0
 44 43  2  0  0  0  0
 45 44  1  0  0  0  0
 46 44  1  0  0  0  0
 46 48  2  0  0  0  0
 47 46  1  0  0  0  0
 48 50  1  0  0  0  0
 49 48  1  0  0  0  0
 50 51  1  0  0  0  0
 50 52  2  0  0  0  0
 52 53  1  0  0  0  0
M  END
$$$$
