CSD_code = HUWVOK | q = 0 | S = 0 | Stoichiometry = C30H22Cl2N6Ru | MND = 6
 OpenBabel04212202053D

 61 68  0  0  1  0  0  0  0  0999 V2000
    2.6021    8.6780   15.3851 Ru  0  0  0  0  0  0  0  0  0  0  0  0
    0.4431    8.8487   14.4855 Cl  0  0  0  0  0  0  0  0  0  0  0  0
    3.4429    8.5338   13.1986 Cl  0  0  0  0  0  0  0  0  0  0  0  0
    2.5660   10.5819   15.5058 N   0  0  0  0  0  0  0  0  0  0  0  0
    1.7808   11.1012   16.3974 N   0  0  0  0  0  2  0  0  0  0  0  0
    1.6635    8.9259   17.1393 N   0  0  0  0  0  0  0  0  0  0  0  0
    4.3470    8.2436   16.0439 N   0  0  0  0  0  0  0  0  0  0  0  0
    4.7958    7.0452   15.8691 N   0  0  0  0  0  2  0  0  0  0  0  0
    2.6198    6.6377   15.2705 N   0  0  0  0  0  0  0  0  0  0  0  0
    4.3104   11.2989   13.9919 C   0  0  0  0  0  0  0  0  0  0  0  0
    4.9468   10.4961   14.3288 H   0  0  0  0  0  0  0  0  0  0  0  0
    4.7438   12.1668   13.0087 C   0  0  0  0  0  0  0  0  0  0  0  0
    5.7157   12.0194   12.5629 H   0  0  0  0  0  0  0  0  0  0  0  0
    3.9384   13.2134   12.5888 C   0  0  0  0  0  0  0  0  0  0  0  0
    4.2792   13.8783   11.8092 H   0  0  0  0  0  0  0  0  0  0  0  0
    2.6924   13.4055   13.1678 C   0  0  0  0  0  0  0  0  0  0  0  0
    2.0612   14.2172   12.8381 H   0  0  0  0  0  0  0  0  0  0  0  0
    2.2494   12.5538   14.1573 C   0  0  0  0  0  0  0  0  0  0  0  0
    1.2718   12.6656   14.6012 H   0  0  0  0  0  0  0  0  0  0  0  0
    3.0498   11.4810   14.5660 C   0  0  0  0  0  0  0  0  0  0  0  0
    1.2795   10.2118   17.2666 C   0  0  0  0  0  0  0  0  0  0  0  0
    0.4000   10.6338   18.3114 C   0  0  0  0  0  0  0  0  0  0  0  0
   -0.0045   11.9695   18.4518 C   0  0  0  0  0  3  0  0  0  0  0  0
    0.3771   12.6961   17.7529 H   0  0  0  0  0  0  0  0  0  0  0  0
   -0.8668   12.3192   19.4596 C   0  0  0  0  0  0  0  0  0  0  0  0
   -1.1827   13.3455   19.5706 H   0  0  0  0  0  0  0  0  0  0  0  0
   -1.3477   11.3517   20.3504 C   0  0  0  0  0  0  0  0  0  0  0  0
   -2.0287   11.6455   21.1354 H   0  0  0  0  0  0  0  0  0  0  0  0
   -0.9628   10.0412   20.2314 C   0  0  0  0  0  0  0  0  0  0  0  0
   -1.3327    9.2915   20.9152 H   0  0  0  0  0  0  0  0  0  0  0  0
   -0.0807    9.6518   19.2090 C   0  0  0  0  0  0  0  0  0  0  0  0
    0.3527    8.3136   19.0269 C   0  0  0  0  0  0  0  0  0  0  0  0
    0.0030    7.5427   19.6951 H   0  0  0  0  0  0  0  0  0  0  0  0
    1.2004    8.0059   18.0050 C   0  0  0  0  0  0  0  0  0  0  0  0
    1.5443    6.9917   17.8405 H   0  0  0  0  0  0  0  0  0  0  0  0
    4.9212   10.1531   17.4212 C   0  0  0  0  0  0  0  0  0  0  0  0
    3.9150   10.1788   17.8178 H   0  0  0  0  0  0  0  0  0  0  0  0
    5.8533   11.0856   17.8325 C   0  0  0  0  0  0  0  0  0  0  0  0
    5.5621   11.8577   18.5285 H   0  0  0  0  0  0  0  0  0  0  0  0
    7.1550   11.0317   17.3584 C   0  0  0  0  0  0  0  0  0  0  0  0
    7.8750   11.7709   17.6746 H   0  0  0  0  0  0  0  0  0  0  0  0
    7.5316   10.0238   16.4846 C   0  0  0  0  0  0  0  0  0  0  0  0
    8.5464    9.9755   16.1194 H   0  0  0  0  0  0  0  0  0  0  0  0
    6.6125    9.0795   16.0733 C   0  0  0  0  0  0  0  0  0  0  0  0
    6.8781    8.2969   15.3794 H   0  0  0  0  0  0  0  0  0  0  0  0
    5.2912    9.1516   16.5225 C   0  0  0  0  0  0  0  0  0  0  0  0
    3.8729    6.1770   15.4149 C   0  0  0  0  0  0  0  0  0  0  0  0
    4.2137    4.8133   15.1697 C   0  0  0  0  0  0  0  0  0  0  0  0
    5.5225    4.3273   15.3130 C   0  0  0  0  0  0  0  0  0  0  0  0
    6.2915    5.0124   15.6319 H   0  0  0  0  0  0  0  0  0  0  0  0
    5.7941    3.0102   15.0481 C   0  0  0  0  0  0  0  0  0  0  0  0
    6.7994    2.6312   15.1554 H   0  0  0  0  0  0  0  0  0  0  0  0
    4.7735    2.1432   14.6335 C   0  0  0  0  0  0  0  0  0  0  0  0
    5.0087    1.1094   14.4274 H   0  0  0  0  0  0  0  0  0  0  0  0
    3.4894    2.5965   14.4880 C   0  0  0  0  0  0  0  0  0  0  0  0
    2.7004    1.9325   14.1669 H   0  0  0  0  0  0  0  0  0  0  0  0
    3.1774    3.9434   14.7515 C   0  0  2  0  0  3  0  0  0  0  0  0
    1.8751    4.4791   14.6133 C   0  0  0  0  0  0  0  0  0  0  0  0
    1.0661    3.8447   14.2871 H   0  0  0  0  0  0  0  0  0  0  0  0
    1.6479    5.8010   14.8774 C   0  0  0  0  0  0  0  0  0  0  0  0
    0.6670    6.2459   14.7667 H   0  0  0  0  0  0  0  0  0  0  0  0
  1  4  1  0  0  0  0
  1  7  1  0  0  0  0
  1  6  1  0  0  0  0
  2  1  1  0  0  0  0
  3  1  1  0  0  0  0
  4  5  1  0  0  0  0
  5 21  1  0  0  0  0
  6 21  1  0  0  0  0
  6 34  1  0  0  0  0
  7 46  1  0  0  0  0
  8  7  1  0  0  0  0
  9  1  1  0  0  0  0
  9 47  1  0  0  0  0
 10 11  1  0  0  0  0
 10 20  1  0  0  0  0
 12 10  2  0  0  0  0
 13 12  1  0  0  0  0
 14 12  1  0  0  0  0
 14 16  2  0  0  0  0
 15 14  1  0  0  0  0
 16 18  1  0  0  0  0
 17 16  1  0  0  0  0
 18 20  2  0  0  0  0
 18 19  1  0  0  0  0
 20  4  1  0  0  0  0
 21 22  2  0  0  0  0
 22 23  1  0  0  0  0
 22 31  1  0  0  0  0
 23 25  1  0  0  0  0
 24 23  1  0  0  0  0
 25 26  1  0  0  0  0
 25 27  2  0  0  0  0
 27 28  1  0  0  0  0
 29 27  1  0  0  0  0
 29 30  1  0  0  0  0
 31 29  2  0  0  0  0
 32 31  1  0  0  0  0
 32 33  1  0  0  0  0
 34 32  2  0  0  0  0
 35 34  1  0  0  0  0
 36 37  1  0  0  0  0
 36 38  1  0  0  0  0
 38 39  1  0  0  0  0
 40 41  1  0  0  0  0
 40 38  2  0  0  0  0
 42 40  1  0  0  0  0
 43 42  1  0  0  0  0
 44 42  2  0  0  0  0
 44 46  1  0  0  0  0
 45 44  1  0  0  0  0
 46 36  2  0  0  0  0
 47  8  1  0  0  0  0
 48 49  1  0  0  0  0
 48 47  2  0  0  0  0
 49 50  1  0  0  0  0
 51 52  1  0  0  0  0
 51 49  2  0  0  0  0
 53 51  1  0  0  0  0
 54 53  1  0  0  0  0
 55 53  2  0  0  0  0
 56 55  1  0  0  0  0
 57 55  1  6  0  0  0
 57 48  1  0  0  0  0
 58 57  1  0  0  0  0
 58 60  2  0  0  0  0
 59 58  1  0  0  0  0
 60  9  1  0  0  0  0
 61 60  1  0  0  0  0
M  END
$$$$
