CSD_code = HUWVUQ | q = 0 | S = 0 | Stoichiometry = C30H22Cl2N6Ru | MND = 6
 OpenBabel04212202053D

 61 68  0  0  1  0  0  0  0  0999 V2000
    3.4560    4.1002    2.5618 Ru  0  0  0  0  0  0  0  0  0  0  0  0
    2.4571    5.0177    0.6467 Cl  0  0  0  0  0  0  0  0  0  0  0  0
    4.9838    3.3766    4.1903 Cl  0  0  0  0  0  0  0  0  0  0  0  0
    2.3654    5.0144    3.8250 N   0  0  0  0  0  0  0  0  0  0  0  0
    2.8921    5.9981    4.4766 N   0  0  0  0  0  2  0  0  0  0  0  0
    4.4454    5.9381    2.7861 N   0  0  0  0  0  0  0  0  0  0  0  0
    2.5320    2.4453    2.3927 N   0  0  0  0  0  0  0  0  0  0  0  0
    2.7534    1.7361    1.3354 N   0  0  0  0  0  2  0  0  0  0  0  0
    4.6251    3.0556    1.1669 N   0  0  0  0  0  0  0  0  0  0  0  0
    4.0473    6.4540    3.9593 C   0  0  0  0  0  0  0  0  0  0  0  0
    1.0474    4.7460    4.1968 C   0  0  0  0  0  0  0  0  0  0  0  0
    0.6422    4.8760    5.5262 C   0  0  0  0  0  0  0  0  0  0  0  0
    1.3721    5.1722    6.2635 H   0  0  0  0  0  0  0  0  0  0  0  0
    0.1218    4.3779    3.2195 C   0  0  0  0  0  0  0  0  0  0  0  0
    0.4292    4.3380    2.1831 H   0  0  0  0  0  0  0  0  0  0  0  0
    1.5881    1.8800    3.2512 C   0  0  0  0  0  0  0  0  0  0  0  0
    0.4863    1.1895    2.7436 C   0  0  0  0  0  0  0  0  0  0  0  0
    0.3683    1.1169    1.6737 H   0  0  0  0  0  0  0  0  0  0  0  0
    4.7408    7.5326    4.5861 C   0  0  0  0  0  0  0  0  0  0  0  0
    1.7729    1.9781    4.6310 C   0  0  0  0  0  0  0  0  0  0  0  0
    2.6604    2.4622    5.0162 H   0  0  0  0  0  0  0  0  0  0  0  0
   -0.6627    4.5951    5.8759 C   0  0  0  0  0  0  0  0  0  0  0  0
   -0.9704    4.6780    6.9074 H   0  0  0  0  0  0  0  0  0  0  0  0
    5.8195    3.3068    0.6166 C   0  0  0  0  0  3  0  0  0  0  0  0
    6.4355    4.0289    1.1368 H   0  0  0  0  0  0  0  0  0  0  0  0
   -1.1852    4.1181    3.5814 C   0  0  0  0  0  0  0  0  0  0  0  0
   -1.9026    3.8413    2.8239 H   0  0  0  0  0  0  0  0  0  0  0  0
    5.8516    8.0857    3.9043 C   0  0  2  0  0  3  0  0  0  0  0  0
    4.3643    8.0379    5.8398 C   0  0  0  0  0  0  0  0  0  0  0  0
    3.5120    7.5996    6.3334 H   0  0  0  0  0  0  0  0  0  0  0  0
    5.0771    9.0633    6.4045 C   0  0  0  0  0  0  0  0  0  0  0  0
    4.7933    9.4548    7.3698 H   0  0  0  0  0  0  0  0  0  0  0  0
    0.8473    1.4124    5.4853 C   0  0  0  0  0  0  0  0  0  0  0  0
    0.9952    1.4821    6.5522 H   0  0  0  0  0  0  0  0  0  0  0  0
   -0.2660    0.7598    4.9799 C   0  0  0  0  0  0  0  0  0  0  0  0
   -0.9931    0.3327    5.6541 H   0  0  0  0  0  0  0  0  0  0  0  0
   -1.5770    4.2100    4.9077 C   0  0  0  0  0  0  0  0  0  0  0  0
   -2.5968    3.9903    5.1853 H   0  0  0  0  0  0  0  0  0  0  0  0
    5.4686    6.5030    2.1330 C   0  0  0  0  0  0  0  0  0  0  0  0
    5.6921    6.0884    1.1585 H   0  0  0  0  0  0  0  0  0  0  0  0
    6.1803    9.6130    5.7372 C   0  0  0  0  0  0  0  0  0  0  0  0
    6.7300   10.4199    6.1994 H   0  0  0  0  0  0  0  0  0  0  0  0
   -0.4399    0.6449    3.6095 C   0  0  0  0  0  0  0  0  0  0  0  0
   -1.3013    0.1266    3.2156 H   0  0  0  0  0  0  0  0  0  0  0  0
    6.5619    9.1385    4.5104 C   0  0  0  0  0  0  0  0  0  0  0  0
    7.4104    9.5612    3.9925 H   0  0  0  0  0  0  0  0  0  0  0  0
    6.1832    7.5544    2.6357 C   0  0  0  0  0  0  0  0  0  0  0  0
    7.0007    7.9768    2.0730 H   0  0  0  0  0  0  0  0  0  0  0  0
    3.8413    2.1049    0.6351 C   0  0  0  0  0  0  0  0  0  0  0  0
    4.1971    1.4126   -0.5612 C   0  0  0  0  0  0  0  0  0  0  0  0
    5.4406    1.7289   -1.1598 C   0  0  0  0  0  0  0  0  0  0  0  0
    3.7393   -0.1634   -2.3134 C   0  0  0  0  0  0  0  0  0  0  0  0
    3.0960   -0.8981   -2.7739 H   0  0  0  0  0  0  0  0  0  0  0  0
    3.3571    0.4566   -1.1523 C   0  0  0  0  0  0  0  0  0  0  0  0
    2.4186    0.2323   -0.6714 H   0  0  0  0  0  0  0  0  0  0  0  0
    4.9658    0.1499   -2.9152 C   0  0  0  0  0  0  0  0  0  0  0  0
    5.2481   -0.3477   -3.8314 H   0  0  0  0  0  0  0  0  0  0  0  0
    6.2628    2.6838   -0.5167 C   0  0  0  0  0  0  0  0  0  0  0  0
    7.2328    2.9200   -0.9250 H   0  0  0  0  0  0  0  0  0  0  0  0
    5.8043    1.0745   -2.3513 C   0  0  0  0  0  0  0  0  0  0  0  0
    6.7511    1.3168   -2.8111 H   0  0  0  0  0  0  0  0  0  0  0  0
  1  6  1  0  0  0  0
  1  4  1  0  0  0  0
  1  3  1  0  0  0  0
  2  1  1  0  0  0  0
  4 11  1  0  0  0  0
  4  5  1  0  0  0  0
  6 10  1  0  0  0  0
  7  1  1  0  0  0  0
  7 16  1  0  0  0  0
  8  7  1  0  0  0  0
  9  1  1  0  0  0  0
 10  5  1  0  0  0  0
 10 19  2  0  0  0  0
 11 12  1  0  0  0  0
 12 22  2  0  0  0  0
 12 13  1  0  0  0  0
 14 26  1  0  0  0  0
 14 11  2  0  0  0  0
 15 14  1  0  0  0  0
 16 20  1  0  0  0  0
 17 16  2  0  0  0  0
 17 43  1  0  0  0  0
 18 17  1  0  0  0  0
 19 29  1  0  0  0  0
 20 21  1  0  0  0  0
 20 33  2  0  0  0  0
 22 23  1  0  0  0  0
 24 25  1  0  0  0  0
 24  9  1  0  0  0  0
 26 37  2  0  0  0  0
 27 26  1  0  0  0  0
 28 47  1  6  0  0  0
 28 45  1  0  0  0  0
 28 19  1  0  0  0  0
 29 30  1  0  0  0  0
 29 31  2  0  0  0  0
 31 32  1  0  0  0  0
 33 34  1  0  0  0  0
 35 33  1  0  0  0  0
 35 36  1  0  0  0  0
 37 38  1  0  0  0  0
 37 22  1  0  0  0  0
 39 47  2  0  0  0  0
 39  6  1  0  0  0  0
 40 39  1  0  0  0  0
 41 42  1  0  0  0  0
 41 31  1  0  0  0  0
 43 35  2  0  0  0  0
 44 43  1  0  0  0  0
 45 41  2  0  0  0  0
 46 45  1  0  0  0  0
 48 47  1  0  0  0  0
 49  9  1  0  0  0  0
 49  8  1  0  0  0  0
 50 49  2  0  0  0  0
 51 50  1  0  0  0  0
 51 58  2  0  0  0  0
 52 54  2  0  0  0  0
 53 52  1  0  0  0  0
 54 55  1  0  0  0  0
 54 50  1  0  0  0  0
 56 60  2  0  0  0  0
 56 52  1  0  0  0  0
 57 56  1  0  0  0  0
 58 24  1  0  0  0  0
 59 58  1  0  0  0  0
 60 51  1  0  0  0  0
 61 60  1  0  0  0  0
M  END
$$$$
