CSD_code = HUWYON | q = 0 | S = 0 | Stoichiometry = C6H16CdCl2N4S2 | MND = 4
 OpenBabel04212202053D

 31 30  0  0  0  0  0  0  0  0999 V2000
    2.2221    6.0818    5.9926 Cd  0  0  0  0  0  0  0  0  0  0  0  0
    1.5326    5.8181    8.2657 Cl  0  0  0  0  0  0  0  0  0  0  0  0
    3.9816    7.7858    6.0230 Cl  0  0  0  0  0  0  0  0  0  0  0  0
    2.7638    4.7921    3.7220 S   0  0  0  0  0  0  0  0  0  0  0  0
    0.5049    7.9587    5.1274 S   0  0  0  0  0  0  0  0  0  0  0  0
    1.5285   10.2496    5.7960 N   0  0  0  0  0  0  0  0  0  0  0  0
    1.4894   10.3693    4.7952 H   0  0  0  0  0  0  0  0  0  0  0  0
    1.1745    8.7848    7.5515 N   0  0  0  0  0  4  0  0  0  0  0  0
    1.6862    9.3875    8.1772 H   0  0  0  0  0  0  0  0  0  0  0  0
    1.0407    7.8143    7.8680 H   0  0  0  0  0  0  0  0  0  0  0  0
    2.4086    5.9423    1.4361 N   0  0  0  0  0  0  0  0  0  0  0  0
    2.0385    5.0267    1.2295 H   0  0  0  0  0  0  0  0  0  0  0  0
    3.3096    7.3114    3.0675 N   0  0  0  0  0  4  0  0  0  0  0  0
    3.2868    8.0980    2.4406 H   0  0  0  0  0  0  0  0  0  0  0  0
    3.6340    7.4737    4.0323 H   0  0  0  0  0  0  0  0  0  0  0  0
    1.1491    9.0555    6.2521 C   0  0  0  0  0  0  0  0  0  0  0  0
    2.2533   11.2462    6.5601 C   0  0  0  0  0  0  0  0  0  0  0  0
    3.1557   10.7887    6.9850 H   0  0  0  0  0  0  0  0  0  0  0  0
    1.6187   11.6086    7.3772 H   0  0  0  0  0  0  0  0  0  0  0  0
    2.6426   12.4036    5.6561 C   0  0  0  0  0  0  0  0  0  0  0  0
    3.1685   13.1610    6.2303 H   0  0  0  0  0  0  0  0  0  0  0  0
    1.7582   12.8569    5.2145 H   0  0  0  0  0  0  0  0  0  0  0  0
    3.2996   12.0577    4.8619 H   0  0  0  0  0  0  0  0  0  0  0  0
    2.8239    6.1371    2.6909 C   0  0  0  0  0  0  0  0  0  0  0  0
    2.3913    6.9317    0.3782 C   0  0  0  0  0  0  0  0  0  0  0  0
    3.4033    7.3305    0.2364 H   0  0  0  0  0  0  0  0  0  0  0  0
    1.7249    7.7581    0.6578 H   0  0  0  0  0  0  0  0  0  0  0  0
    1.9052    6.2939   -0.9129 C   0  0  0  0  0  0  0  0  0  0  0  0
    1.8967    7.0308   -1.7110 H   0  0  0  0  0  0  0  0  0  0  0  0
    0.8962    5.9084   -0.7895 H   0  0  0  0  0  0  0  0  0  0  0  0
    2.5616    5.4775   -1.2040 H   0  0  0  0  0  0  0  0  0  0  0  0
  1  3  1  0  0  0  0
  1  2  1  0  0  0  0
  4  1  1  0  0  0  0
  5  1  1  0  0  0  0
  5 16  1  0  0  0  0
  6 16  1  0  0  0  0
  6 17  1  0  0  0  0
  7  6  1  0  0  0  0
  8 10  1  0  0  0  0
  8  9  1  0  0  0  0
 11 24  1  0  0  0  0
 12 11  1  0  0  0  0
 13 15  1  0  0  0  0
 14 13  1  0  0  0  0
 16  8  2  0  0  0  0
 17 18  1  0  0  0  0
 17 19  1  0  0  0  0
 20 21  1  0  0  0  0
 20 17  1  0  0  0  0
 22 20  1  0  0  0  0
 23 20  1  0  0  0  0
 24 13  2  0  0  0  0
 24  4  1  0  0  0  0
 25 27  1  0  0  0  0
 25 11  1  0  0  0  0
 26 25  1  0  0  0  0
 28 30  1  0  0  0  0
 28 25  1  0  0  0  0
 29 28  1  0  0  0  0
 31 28  1  0  0  0  0
M  END
$$$$
