CSD_code = HUXBOT | q = 0 | S = 0 | Stoichiometry = C14H17Cl2N3Pd | MND = 4
 OpenBabel04212202053D

 37 39  0  0  1  0  0  0  0  0999 V2000
    3.8508    1.9516    6.2554 C   0  0  0  0  0  0  0  0  0  0  0  0
    3.8312    0.9226    6.6024 H   0  0  0  0  0  0  0  0  0  0  0  0
    2.9779    2.1212    5.6001 H   0  0  0  0  0  0  0  0  0  0  0  0
    3.7599    2.6144    7.1179 H   0  0  0  0  0  0  0  0  0  0  0  0
    5.1034    2.2273    5.4810 C   0  0  0  0  0  0  0  0  0  0  0  0
    6.1443    1.3172    5.3911 C   0  0  0  0  0  0  0  0  0  0  0  0
    6.0809    0.3863    5.9346 H   0  0  0  0  0  0  0  0  0  0  0  0
    7.2452    1.5815    4.5949 C   0  0  0  0  0  0  0  0  0  0  0  0
    8.0476    0.8621    4.5330 H   0  0  0  0  0  0  0  0  0  0  0  0
    7.3024    2.7422    3.8437 C   0  0  0  0  0  0  0  0  0  0  0  0
    8.1388    2.9188    3.1839 H   0  0  0  0  0  0  0  0  0  0  0  0
    6.2811    3.6768    3.9085 C   0  0  0  0  0  0  0  0  0  0  0  0
    6.2474    4.8998    3.0438 C   0  0  0  0  0  0  0  0  0  0  0  0
    5.2683    4.9594    2.5496 H   0  0  0  0  0  0  0  0  0  0  0  0
    7.0212    4.8538    2.2830 H   0  0  0  0  0  0  0  0  0  0  0  0
    6.3879    5.8097    3.6295 H   0  0  0  0  0  0  0  0  0  0  0  0
    5.2074    3.4220    4.7637 C   0  0  0  0  0  0  0  0  0  0  0  0
    4.1246    5.3375    5.6359 C   0  0  1  0  0  3  0  0  0  0  0  0
    5.2010    5.7180    6.5991 C   0  0  0  0  0  0  0  0  0  0  0  0
    6.0148    4.9993    6.5408 H   0  0  0  0  0  0  0  0  0  0  0  0
    4.8113    5.7337    7.6166 H   0  0  0  0  0  0  0  0  0  0  0  0
    5.5864    6.7106    6.3666 H   0  0  0  0  0  0  0  0  0  0  0  0
    2.6092    7.2375    6.2731 C   0  0  0  0  0  0  0  0  0  0  0  0
    3.2434    7.7232    6.9846 H   0  0  0  0  0  0  0  0  0  0  0  0
    1.3649    7.5508    5.8460 C   0  0  0  0  0  0  0  0  0  0  0  0
    0.7249    8.3618    6.1282 H   0  0  0  0  0  0  0  0  0  0  0  0
   -0.2873    6.6117    4.2462 C   0  0  0  0  0  0  0  0  0  0  0  0
   -0.4281    7.5512    3.7111 H   0  0  0  0  0  0  0  0  0  0  0  0
   -1.0932    6.4898    4.9712 H   0  0  0  0  0  0  0  0  0  0  0  0
   -0.3008    5.7769    3.5378 H   0  0  0  0  0  0  0  0  0  0  0  0
    1.9580    5.7097    4.7443 C   0  0  0  0  0  0  0  0  0  0  0  0
    4.1424    4.3384    4.8309 N   0  0  0  0  0  0  0  0  0  0  0  0
    2.9721    6.0993    5.5877 N   0  0  0  0  0  0  0  0  0  0  0  0
    0.9849    6.6134    4.9180 N   0  0  0  0  0  0  0  0  0  0  0  0
    2.4974    4.1053    3.6932 Pd  0  0  0  0  0  0  0  0  0  0  0  0
    0.6342    3.9196    2.5047 Cl  0  0  0  0  0  0  0  0  0  0  0  0
    3.3435    2.3674    2.5620 Cl  0  0  0  0  0  0  0  0  0  0  0  0
  1  2  1  0  0  0  0
  1  4  1  0  0  0  0
  3  1  1  0  0  0  0
  5  1  1  0  0  0  0
  6  5  1  0  0  0  0
  6  7  1  0  0  0  0
  8  6  2  0  0  0  0
  9  8  1  0  0  0  0
 10 12  2  0  0  0  0
 10  8  1  0  0  0  0
 11 10  1  0  0  0  0
 12 17  1  0  0  0  0
 13 16  1  0  0  0  0
 13 12  1  0  0  0  0
 14 13  1  0  0  0  0
 15 13  1  0  0  0  0
 17 32  1  0  0  0  0
 17  5  2  0  0  0  0
 18 19  1  1  0  0  0
 19 21  1  0  0  0  0
 20 19  1  0  0  0  0
 22 19  1  0  0  0  0
 23 24  1  0  0  0  0
 25 26  1  0  0  0  0
 25 23  2  0  0  0  0
 27 34  1  0  0  0  0
 27 29  1  0  0  0  0
 28 27  1  0  0  0  0
 30 27  1  0  0  0  0
 31 34  1  0  0  0  0
 31 33  1  0  0  0  0
 32 18  1  0  0  0  0
 33 18  1  0  0  0  0
 33 23  1  0  0  0  0
 34 25  1  0  0  0  0
 35 31  2  0  0  0  0
 35 32  1  0  0  0  0
 36 35  1  0  0  0  0
 37 35  1  0  0  0  0
M  END
$$$$
