CSD_code = HUXCEK | q = 0 | S = 0 | Stoichiometry = C26H33Cl2N3Pd | MND = 4
 OpenBabel04212202053D

 65 68  0  0  1  0  0  0  0  0999 V2000
   -2.4533   10.7718    3.3512 C   0  0  0  0  0  0  0  0  0  0  0  0
    0.8197    8.8640    5.1643 Cl  0  0  0  0  0  0  0  0  0  0  0  0
   -1.6357   10.8271    5.7693 N   0  0  0  0  0  0  0  0  0  0  0  0
   -0.9944    9.7406    4.1563 Pd  0  0  0  0  0  0  0  0  0  0  0  0
   -4.0063   12.3852    3.5971 C   0  0  0  0  0  0  0  0  0  0  0  0
   -4.6388   13.0864    4.0999 H   0  0  0  0  0  0  0  0  0  0  0  0
   -0.6796    8.3728    2.4229 Cl  0  0  0  0  0  0  0  0  0  0  0  0
   -3.1084   11.5701    4.2545 N   0  0  0  0  0  0  0  0  0  0  0  0
   -3.8803   12.1013    2.2811 C   0  0  0  0  0  0  0  0  0  0  0  0
   -4.3798   12.5236    1.4332 H   0  0  0  0  0  0  0  0  0  0  0  0
   -2.9231   11.1239    2.1491 N   0  0  0  0  0  0  0  0  0  0  0  0
   -2.4041   10.6479    0.9132 C   0  0  0  0  0  0  0  0  0  0  0  0
   -3.1915    9.8296    0.1080 C   0  0  0  0  0  0  0  0  0  0  0  0
   -4.5506    9.3935    0.5662 C   0  0  0  0  0  0  0  0  0  0  0  0
   -2.6673    9.3961   -1.0993 C   0  0  0  0  0  0  0  0  0  0  0  0
   -3.2632    8.7521   -1.7295 H   0  0  0  0  0  0  0  0  0  0  0  0
   -1.3880    9.7510   -1.5004 C   0  0  0  0  0  0  0  0  0  0  0  0
   -0.8213    9.2430   -2.7895 C   0  0  0  0  0  0  0  0  0  0  0  0
   -1.6115    8.9635   -3.4819 H   0  0  0  0  0  0  0  0  0  0  0  0
   -0.2118    8.3609   -2.5945 H   0  0  0  0  0  0  0  0  0  0  0  0
   -0.1863    9.9920   -3.2573 H   0  0  0  0  0  0  0  0  0  0  0  0
   -0.6221   10.5538   -0.6665 C   0  0  0  0  0  0  0  0  0  0  0  0
    0.3834   10.8144   -0.9620 H   0  0  0  0  0  0  0  0  0  0  0  0
   -1.1056   11.0101    0.5486 C   0  0  0  0  0  0  0  0  0  0  0  0
   -0.2402   11.8328    1.4560 C   0  0  0  0  0  0  0  0  0  0  0  0
    0.6314   12.1971    0.9189 H   0  0  0  0  0  0  0  0  0  0  0  0
    0.1176   11.2041    2.2947 H   0  0  0  0  0  0  0  0  0  0  0  0
   -0.7827   12.6861    1.8664 H   0  0  0  0  0  0  0  0  0  0  0  0
   -2.6855   11.5372    5.5699 C   0  0  2  0  0  3  0  0  0  0  0  0
   -3.4385   12.3292    6.5898 C   0  0  0  0  0  0  0  0  0  0  0  0
   -2.9890   12.1869    7.5696 H   0  0  0  0  0  0  0  0  0  0  0  0
   -4.4815   12.0151    6.6248 H   0  0  0  0  0  0  0  0  0  0  0  0
   -3.4127   13.3895    6.3371 H   0  0  0  0  0  0  0  0  0  0  0  0
   -1.0593   10.6032    7.0302 C   0  0  0  0  0  0  0  0  0  0  0  0
   -1.6448    9.6812    7.9109 C   0  0  0  0  0  0  0  0  0  0  0  0
   -2.8760    8.9043    7.4912 C   0  0  0  0  0  0  0  0  0  0  0  0
   -3.5283    9.5615    6.9026 H   0  0  0  0  0  0  0  0  0  0  0  0
   -2.4529    7.7306    6.5959 C   0  0  0  0  0  0  0  0  0  0  0  0
   -1.9709    8.0844    5.6643 H   0  0  0  0  0  0  0  0  0  0  0  0
   -3.3212    7.1331    6.3241 H   0  0  0  0  0  0  0  0  0  0  0  0
   -1.7403    7.0986    7.1212 H   0  0  0  0  0  0  0  0  0  0  0  0
   -3.6989    8.3916    8.6731 C   0  0  0  0  0  0  0  0  0  0  0  0
   -3.1840    7.5850    9.1877 H   0  0  0  0  0  0  0  0  0  0  0  0
   -4.6499    8.0030    8.3142 H   0  0  0  0  0  0  0  0  0  0  0  0
   -3.9003    9.1913    9.3833 H   0  0  0  0  0  0  0  0  0  0  0  0
   -1.0063    9.4505    9.1196 C   0  0  0  0  0  0  0  0  0  0  0  0
   -1.4169    8.7381    9.8163 H   0  0  0  0  0  0  0  0  0  0  0  0
    0.1605   10.1168    9.4474 C   0  0  0  0  0  0  0  0  0  0  0  0
    0.6338    9.9289   10.3996 H   0  0  0  0  0  0  0  0  0  0  0  0
    0.7386   10.9974    8.5535 C   0  0  0  0  0  0  0  0  0  0  0  0
    1.6640   11.4854    8.8129 H   0  0  0  0  0  0  0  0  0  0  0  0
    0.1518   11.2413    7.3216 C   0  0  0  0  0  0  0  0  0  0  0  0
    0.7743   12.1697    6.3034 C   0  0  0  0  0  0  0  0  0  0  0  0
    0.3976   11.8787    5.3050 H   0  0  0  0  0  0  0  0  0  0  0  0
    0.3568   13.6162    6.5829 C   0  0  0  0  0  0  0  0  0  0  0  0
   -0.7264   13.7235    6.5577 H   0  0  0  0  0  0  0  0  0  0  0  0
    0.7874   14.2838    5.8396 H   0  0  0  0  0  0  0  0  0  0  0  0
    0.7070   13.9232    7.5664 H   0  0  0  0  0  0  0  0  0  0  0  0
    2.2950   12.0399    6.2567 C   0  0  0  0  0  0  0  0  0  0  0  0
    2.7598   12.4209    7.1624 H   0  0  0  0  0  0  0  0  0  0  0  0
    2.6854   12.6052    5.4130 H   0  0  0  0  0  0  0  0  0  0  0  0
    2.5633   10.9947    6.1274 H   0  0  0  0  0  0  0  0  0  0  0  0
   -4.4818    8.9581    1.5626 H   0  0  0  0  0  0  0  0  0  0  0  0
   -4.9554    8.6458   -0.1098 H   0  0  0  0  0  0  0  0  0  0  0  0
   -5.2469   10.2314    0.6073 H   0  0  0  0  0  0  0  0  0  0  0  0
  1  4  2  0  0  0  0
  1  8  1  0  0  0  0
  3 34  1  0  0  0  0
  4  2  1  0  0  0  0
  4  3  1  0  0  0  0
  5  6  1  0  0  0  0
  5  8  1  0  0  0  0
  7  4  1  0  0  0  0
  8 29  1  0  0  0  0
  9  5  2  0  0  0  0
 10  9  1  0  0  0  0
 11  9  1  0  0  0  0
 11  1  1  0  0  0  0
 12 11  1  0  0  0  0
 13 14  1  0  0  0  0
 13 12  2  0  0  0  0
 14 65  1  0  0  0  0
 14 63  1  0  0  0  0
 15 13  1  0  0  0  0
 16 15  1  0  0  0  0
 17 15  2  0  0  0  0
 17 22  1  0  0  0  0
 18 20  1  0  0  0  0
 18 17  1  0  0  0  0
 19 18  1  0  0  0  0
 21 18  1  0  0  0  0
 22 24  2  0  0  0  0
 23 22  1  0  0  0  0
 24 12  1  0  0  0  0
 24 25  1  0  0  0  0
 25 28  1  0  0  0  0
 25 27  1  0  0  0  0
 26 25  1  0  0  0  0
 29  3  1  0  0  0  0
 29 30  1  6  0  0  0
 30 32  1  0  0  0  0
 30 31  1  0  0  0  0
 33 30  1  0  0  0  0
 34 52  2  0  0  0  0
 34 35  1  0  0  0  0
 35 46  2  0  0  0  0
 36 35  1  0  0  0  0
 36 42  1  0  0  0  0
 37 36  1  0  0  0  0
 38 41  1  0  0  0  0
 38 36  1  0  0  0  0
 39 38  1  0  0  0  0
 40 38  1  0  0  0  0
 42 43  1  0  0  0  0
 42 45  1  0  0  0  0
 44 42  1  0  0  0  0
 46 48  1  0  0  0  0
 46 47  1  0  0  0  0
 48 49  1  0  0  0  0
 50 51  1  0  0  0  0
 50 48  2  0  0  0  0
 52 50  1  0  0  0  0
 53 55  1  0  0  0  0
 53 52  1  0  0  0  0
 54 53  1  0  0  0  0
 55 58  1  0  0  0  0
 56 55  1  0  0  0  0
 57 55  1  0  0  0  0
 59 53  1  0  0  0  0
 59 60  1  0  0  0  0
 61 59  1  0  0  0  0
 62 59  1  0  0  0  0
 64 14  1  0  0  0  0
M  END
$$$$
