CSD_code = HUXCIO | q = 0 | S = 0 | Stoichiometry = C19H28ClN3Pd | MND = 4
 OpenBabel04212202053D

 52 54  0  0  1  0  0  0  0  0999 V2000
    5.9914    6.6802   13.5764 C   0  0  0  0  0  0  0  0  0  0  0  0
    5.6163    6.6219   14.6150 H   0  0  0  0  0  0  0  0  0  0  0  0
    5.4586    7.4805   13.0654 H   0  0  0  0  0  0  0  0  0  0  0  0
    7.0484    6.9327   13.6193 H   0  0  0  0  0  0  0  0  0  0  0  0
    7.0244    5.8879   17.0783 Cl  0  0  0  0  0  0  0  0  0  0  0  0
    1.6487    5.8917   16.8577 N   0  0  0  0  0  0  0  0  0  0  0  0
    4.8165    5.8227   16.7952 Pd  0  0  1  0  0  0  0  0  0  0  0  0
    5.7989    5.3524   12.8304 C   0  0  0  0  0  0  0  0  0  0  0  0
    4.7309    5.1025   12.8530 H   0  0  0  0  0  0  0  0  0  0  0  0
    2.6541    4.5512   15.4993 N   0  0  0  0  0  0  0  0  0  0  0  0
    6.1943    5.5156   11.3636 C   0  0  0  0  0  0  0  0  0  0  0  0
    7.1957    5.9281   11.2738 H   0  0  0  0  0  0  0  0  0  0  0  0
    5.5059    6.2022   10.8744 H   0  0  0  0  0  0  0  0  0  0  0  0
    6.1563    4.5615   10.8414 H   0  0  0  0  0  0  0  0  0  0  0  0
    4.8699    4.2250   15.2749 N   0  0  0  0  0  0  0  0  0  0  0  0
    6.5709    4.2641   13.5479 C   0  0  0  0  0  0  0  0  0  0  0  0
    7.8058    3.8124   13.1105 C   0  0  0  0  0  0  0  0  0  0  0  0
    8.2219    4.1877   12.1897 H   0  0  0  0  0  0  0  0  0  0  0  0
    8.5253    2.8857   13.8438 C   0  0  0  0  0  0  0  0  0  0  0  0
    9.4792    2.5374   13.4760 H   0  0  0  0  0  0  0  0  0  0  0  0
    8.0484    2.4307   15.0582 C   0  0  0  0  0  0  0  0  0  0  0  0
    8.6409    1.7381   15.6339 H   0  0  0  0  0  0  0  0  0  0  0  0
    6.8294    2.8718   15.5481 C   0  0  0  0  0  0  0  0  0  0  0  0
    6.2877    2.4396   16.8923 C   0  0  0  0  0  0  0  0  0  0  0  0
    5.6190    3.2436   17.2610 H   0  0  0  0  0  0  0  0  0  0  0  0
    7.3882    2.2664   17.9361 C   0  0  0  0  0  0  0  0  0  0  0  0
    8.0219    1.4108   17.7144 H   0  0  0  0  0  0  0  0  0  0  0  0
    6.9422    2.1107   18.9164 H   0  0  0  0  0  0  0  0  0  0  0  0
    7.9982    3.1652   17.9741 H   0  0  0  0  0  0  0  0  0  0  0  0
    5.4709    1.1527   16.7457 C   0  0  0  0  0  0  0  0  0  0  0  0
    4.6485    1.2873   16.0452 H   0  0  0  0  0  0  0  0  0  0  0  0
    5.0587    0.8546   17.7075 H   0  0  0  0  0  0  0  0  0  0  0  0
    6.1047    0.3477   16.3773 H   0  0  0  0  0  0  0  0  0  0  0  0
    6.0803    3.7531   14.7592 C   0  0  0  0  0  0  0  0  0  0  0  0
    3.7064    3.9030   14.8695 C   0  0  1  0  0  3  0  0  0  0  0  0
    3.3790    2.8918   13.8129 C   0  0  0  0  0  0  0  0  0  0  0  0
    4.3019    2.4738   13.4169 H   0  0  0  0  0  0  0  0  0  0  0  0
    2.8182    3.3500   12.9986 H   0  0  0  0  0  0  0  0  0  0  0  0
    2.7764    2.0862   14.2326 H   0  0  0  0  0  0  0  0  0  0  0  0
    1.3013    4.3562   15.3213 C   0  0  0  0  0  0  0  0  0  0  0  0
    0.8933    3.6514   14.6281 H   0  0  0  0  0  0  0  0  0  0  0  0
    0.6812    5.1991   16.1737 C   0  0  0  0  0  0  0  0  0  0  0  0
   -0.3638    5.3570   16.3473 H   0  0  0  0  0  0  0  0  0  0  0  0
    1.3532    6.8810   17.8584 C   0  0  0  0  0  0  0  0  0  0  0  0
    2.0715    6.7976   18.6727 H   0  0  0  0  0  0  0  0  0  0  0  0
    0.3460    6.7189   18.2400 H   0  0  0  0  0  0  0  0  0  0  0  0
    1.4175    7.8861   17.4352 H   0  0  0  0  0  0  0  0  0  0  0  0
    2.8792    5.5191   16.4554 C   0  0  0  0  0  0  0  0  0  0  0  0
    4.6610    7.3923   18.1083 C   0  0  0  0  0  0  0  0  0  0  0  0
    3.9707    8.1611   17.7385 H   0  0  0  0  0  0  0  0  0  0  0  0
    5.6453    7.8476   18.2368 H   0  0  0  0  0  0  0  0  0  0  0  0
    4.3250    7.0376   19.0926 H   0  0  0  0  0  0  0  0  0  0  0  0
  1  4  1  0  0  0  0
  1  2  1  0  0  0  0
  3  1  1  0  0  0  0
  6 44  1  0  0  0  0
  7  5  1  1  0  0  0
  7 49  1  0  0  0  0
  8  9  1  0  0  0  0
  8 16  1  0  0  0  0
  8  1  1  0  0  0  0
 10 48  1  0  0  0  0
 11  8  1  0  0  0  0
 12 11  1  0  0  0  0
 13 11  1  0  0  0  0
 14 11  1  0  0  0  0
 15  7  1  0  0  0  0
 16 34  1  0  0  0  0
 17 16  2  0  0  0  0
 17 19  1  0  0  0  0
 18 17  1  0  0  0  0
 19 21  2  0  0  0  0
 20 19  1  0  0  0  0
 21 23  1  0  0  0  0
 21 22  1  0  0  0  0
 23 24  1  0  0  0  0
 24 25  1  0  0  0  0
 24 26  1  0  0  0  0
 26 29  1  0  0  0  0
 26 28  1  0  0  0  0
 27 26  1  0  0  0  0
 30 24  1  0  0  0  0
 30 32  1  0  0  0  0
 31 30  1  0  0  0  0
 33 30  1  0  0  0  0
 34 15  1  0  0  0  0
 34 23  2  0  0  0  0
 35 36  1  1  0  0  0
 35 15  1  0  0  0  0
 35 10  1  0  0  0  0
 36 39  1  0  0  0  0
 37 36  1  0  0  0  0
 38 36  1  0  0  0  0
 40 10  1  0  0  0  0
 40 42  2  0  0  0  0
 41 40  1  0  0  0  0
 42 43  1  0  0  0  0
 42  6  1  0  0  0  0
 44 46  1  0  0  0  0
 44 45  1  0  0  0  0
 47 44  1  0  0  0  0
 48  7  2  0  0  0  0
 48  6  1  0  0  0  0
 49 51  1  0  0  0  0
 49 52  1  0  0  0  0
 50 49  1  0  0  0  0
M  END
$$$$
