CSD_code = HUXJOB | q = 0 | S = 0 | Stoichiometry = C33H32ClN2Rh | MND = 6
 OpenBabel04212202053D

 69 72  0  0  1  0  0  0  0  0999 V2000
   -1.7785    5.1061   12.0364 C   0  0  0  0  0  3  0  0  0  0  0  0
   -1.8528    2.4715   10.3746 C   0  0  1  0  0  0  0  0  0  0  0  0
   -2.8450    2.9120   10.2792 H   0  0  0  0  0  0  0  0  0  0  0  0
   -0.7970    3.1478    9.7637 C   0  0  0  0  0  3  0  0  0  0  0  0
   -1.0524    4.0690    9.2473 H   0  0  0  0  0  0  0  0  0  0  0  0
    0.4382    2.4626    9.2164 C   0  0  0  0  0  0  0  0  0  0  0  0
    0.7992    3.0220    8.3505 H   0  0  0  0  0  0  0  0  0  0  0  0
    0.1658    1.4663    8.8636 H   0  0  0  0  0  0  0  0  0  0  0  0
    1.5760    2.3768   10.2509 C   0  0  0  0  0  0  0  0  0  0  0  0
    2.2239    1.5215   10.0269 H   0  0  0  0  0  0  0  0  0  0  0  0
    2.1897    3.2787   10.1754 H   0  0  0  0  0  0  0  0  0  0  0  0
    1.0851    2.2691   11.6753 C   0  0  0  0  0  3  0  0  0  0  0  0
    1.7880    2.6607   12.4115 H   0  0  0  0  0  0  0  0  0  0  0  0
    0.0900    1.4244   12.1118 C   0  0  0  0  0  3  0  0  0  0  0  0
    0.0361    1.2167   13.1803 H   0  0  0  0  0  0  0  0  0  0  0  0
   -0.6077    0.4152   11.2298 C   0  0  0  0  0  0  0  0  0  0  0  0
   -0.8573   -0.4657   11.8251 H   0  0  0  0  0  0  0  0  0  0  0  0
    0.0781    0.0900   10.4459 H   0  0  0  0  0  0  0  0  0  0  0  0
   -1.9012    0.9807   10.6158 C   0  0  0  0  0  0  0  0  0  0  0  0
   -2.1210    0.4727    9.6694 H   0  0  0  0  0  0  0  0  0  0  0  0
   -2.7362    0.7791   11.2915 H   0  0  0  0  0  0  0  0  0  0  0  0
   -3.8491    3.9876   12.5216 C   0  0  0  0  0  0  0  0  0  0  0  0
   -3.3618    2.9687   13.3371 C   0  0  0  0  0  0  0  0  0  0  0  0
   -2.4341    3.1009   13.8787 H   0  0  0  0  0  0  0  0  0  0  0  0
   -4.1017    1.8083   13.4987 C   0  0  0  0  0  0  0  0  0  0  0  0
   -3.7221    1.0233   14.1357 H   0  0  0  0  0  0  0  0  0  0  0  0
   -5.3234    1.6581   12.8658 C   0  0  0  0  0  0  0  0  0  0  0  0
   -5.8964    0.7521   12.9956 H   0  0  0  0  0  0  0  0  0  0  0  0
   -5.8163    2.6818   12.0721 C   0  0  0  0  0  0  0  0  0  0  0  0
   -6.7716    2.5741   11.5800 H   0  0  0  0  0  0  0  0  0  0  0  0
   -5.0864    3.8423   11.8985 C   0  0  0  0  0  0  0  0  0  0  0  0
   -5.4673    4.6357   11.2713 H   0  0  0  0  0  0  0  0  0  0  0  0
   -3.8588    6.3712   12.3095 C   0  0  0  0  0  0  0  0  0  0  0  0
   -3.7576    7.2620   11.2462 C   0  0  0  0  0  0  0  0  0  0  0  0
   -3.0904    7.0408   10.4259 H   0  0  0  0  0  0  0  0  0  0  0  0
   -4.5115    8.4202   11.2417 C   0  0  0  0  0  0  0  0  0  0  0  0
   -4.4264    9.1091   10.4146 H   0  0  0  0  0  0  0  0  0  0  0  0
   -5.3769    8.6934   12.2872 C   0  0  0  0  0  0  0  0  0  0  0  0
   -5.9613    9.6007   12.2822 H   0  0  0  0  0  0  0  0  0  0  0  0
   -5.4968    7.7951   13.3345 C   0  0  0  0  0  0  0  0  0  0  0  0
   -6.1763    8.0000   14.1480 H   0  0  0  0  0  0  0  0  0  0  0  0
   -4.7456    6.6355   13.3478 C   0  0  0  0  0  0  0  0  0  0  0  0
   -4.8336    5.9318   14.1620 H   0  0  0  0  0  0  0  0  0  0  0  0
    0.2366    6.2571   11.5254 C   0  0  0  0  0  0  0  0  0  0  0  0
    0.3969    6.2120   10.1442 C   0  0  0  0  0  0  0  0  0  0  0  0
   -0.4748    6.1874    9.5064 H   0  0  0  0  0  0  0  0  0  0  0  0
    1.6669    6.2280    9.5950 C   0  0  0  0  0  0  0  0  0  0  0  0
    1.7874    6.1851    8.5223 H   0  0  0  0  0  0  0  0  0  0  0  0
    2.7778    6.3089   10.4173 C   0  0  0  0  0  0  0  0  0  0  0  0
    3.7687    6.3151    9.9875 H   0  0  0  0  0  0  0  0  0  0  0  0
    2.6160    6.3955   11.7907 C   0  0  0  0  0  0  0  0  0  0  0  0
    3.4807    6.4712   12.4329 H   0  0  0  0  0  0  0  0  0  0  0  0
    1.3512    6.3819   12.3488 C   0  0  0  0  0  0  0  0  0  0  0  0
    1.2169    6.4420   13.4176 H   0  0  0  0  0  0  0  0  0  0  0  0
   -1.3741    7.3754   12.8993 C   0  0  0  0  0  0  0  0  0  0  0  0
   -1.1587    8.6577   12.4079 C   0  0  0  0  0  0  0  0  0  0  0  0
   -0.7812    8.7895   11.4042 H   0  0  0  0  0  0  0  0  0  0  0  0
   -1.4317    9.7532   13.2053 C   0  0  0  0  0  0  0  0  0  0  0  0
   -1.2708   10.7487   12.8187 H   0  0  0  0  0  0  0  0  0  0  0  0
   -1.9094    9.5769   14.4928 C   0  0  0  0  0  0  0  0  0  0  0  0
   -2.1259   10.4352   15.1109 H   0  0  0  0  0  0  0  0  0  0  0  0
   -2.0904    8.2978   14.9925 C   0  0  0  0  0  0  0  0  0  0  0  0
   -2.4345    8.1562   16.0059 H   0  0  0  0  0  0  0  0  0  0  0  0
   -1.8196    7.1961   14.2044 C   0  0  0  0  0  0  0  0  0  0  0  0
   -1.9166    6.1950   14.5971 H   0  0  0  0  0  0  0  0  0  0  0  0
   -3.1022    5.1730   12.3186 N   0  0  0  0  0  0  0  0  0  0  0  0
   -1.0761    6.2566   12.0861 N   0  0  0  0  0  0  0  0  0  0  0  0
   -0.0833    3.9973   14.0480 Cl  0  0  0  0  0 15  0  0  0  0  0  0
   -0.7164    3.4452   11.8801 Rh  0  0  0  0  0  0  0  0  0  0  0  0
  1 67  1  0  0  0  0
  1 66  1  0  0  0  0
  2  3  1  6  0  0  0
  2 19  1  0  0  0  0
  2 69  1  0  0  0  0
  4  2  1  0  0  0  0
  5  4  1  0  0  0  0
  6  4  1  0  0  0  0
  6  9  1  0  0  0  0
  7  6  1  0  0  0  0
  8  6  1  0  0  0  0
  9 12  1  0  0  0  0
 10  9  1  0  0  0  0
 11  9  1  0  0  0  0
 12 14  1  0  0  0  0
 12 13  1  0  0  0  0
 14 15  1  0  0  0  0
 16 17  1  0  0  0  0
 16 14  1  0  0  0  0
 18 16  1  0  0  0  0
 19 16  1  0  0  0  0
 19 21  1  0  0  0  0
 20 19  1  0  0  0  0
 22 23  1  0  0  0  0
 23 25  2  0  0  0  0
 23 24  1  0  0  0  0
 25 26  1  0  0  0  0
 27 28  1  0  0  0  0
 27 25  1  0  0  0  0
 29 27  2  0  0  0  0
 30 29  1  0  0  0  0
 31 29  1  0  0  0  0
 31 22  2  0  0  0  0
 32 31  1  0  0  0  0
 33 66  1  0  0  0  0
 33 42  1  0  0  0  0
 34 33  2  0  0  0  0
 35 34  1  0  0  0  0
 36 34  1  0  0  0  0
 36 38  2  0  0  0  0
 37 36  1  0  0  0  0
 38 40  1  0  0  0  0
 39 38  1  0  0  0  0
 40 42  2  0  0  0  0
 40 41  1  0  0  0  0
 42 43  1  0  0  0  0
 44 67  1  0  0  0  0
 44 53  1  0  0  0  0
 45 44  2  0  0  0  0
 46 45  1  0  0  0  0
 47 45  1  0  0  0  0
 47 49  2  0  0  0  0
 48 47  1  0  0  0  0
 49 51  1  0  0  0  0
 50 49  1  0  0  0  0
 51 53  2  0  0  0  0
 51 52  1  0  0  0  0
 53 54  1  0  0  0  0
 55 64  1  0  0  0  0
 56 55  2  0  0  0  0
 56 58  1  0  0  0  0
 57 56  1  0  0  0  0
 58 60  2  0  0  0  0
 59 58  1  0  0  0  0
 60 62  1  0  0  0  0
 60 61  1  0  0  0  0
 62 63  1  0  0  0  0
 64 65  1  0  0  0  0
 64 62  2  0  0  0  0
 66 22  1  0  0  0  0
 67 55  1  0  0  0  0
 69  1  1  0  0  0  0
M  END
$$$$
