CSD_code = HUXKAO | q = 0 | S = 0 | Stoichiometry = C24H38ClN2Rh | MND = 6
 OpenBabel04212202053D

 66 66  0  0  1  0  0  0  0  0999 V2000
   -8.0790   -3.1163   -4.2991 C   0  0  2  0  0  3  0  0  0  0  0  0
   -8.3388   -3.8372   -6.6131 C   0  0  0  0  0  0  0  0  0  0  0  0
   -7.5653   -2.8741   -7.2529 C   0  0  0  0  0  0  0  0  0  0  0  0
   -6.8204   -2.3416   -6.6806 H   0  0  0  0  0  0  0  0  0  0  0  0
   -7.7319   -2.6358   -8.6047 C   0  0  0  0  0  0  0  0  0  0  0  0
   -7.1226   -1.8913   -9.0949 H   0  0  0  0  0  0  0  0  0  0  0  0
   -8.6663   -3.3571   -9.3290 C   0  0  0  0  0  0  0  0  0  0  0  0
   -8.7936   -3.1743  -10.3854 H   0  0  0  0  0  0  0  0  0  0  0  0
   -9.4348   -4.3189   -8.6952 C   0  0  0  0  0  0  0  0  0  0  0  0
  -10.1644   -4.8845   -9.2561 H   0  0  0  0  0  0  0  0  0  0  0  0
   -9.2759   -4.5625   -7.3424 C   0  0  0  0  0  0  0  0  0  0  0  0
   -9.8932   -5.3010   -6.8534 H   0  0  0  0  0  0  0  0  0  0  0  0
   -7.3458   -5.3340   -4.9723 C   0  0  0  0  0  0  0  0  0  0  0  0
   -6.8684   -5.1919   -3.9840 H   0  0  0  0  0  0  0  0  0  0  0  0
   -6.2325   -5.5592   -5.9905 C   0  0  0  0  0  0  0  0  0  0  0  0
   -5.6559   -6.4337   -5.7000 H   0  0  0  0  0  0  0  0  0  0  0  0
   -5.5706   -4.6966   -6.0015 H   0  0  0  0  0  0  0  0  0  0  0  0
   -6.6271   -5.7203   -6.9916 H   0  0  0  0  0  0  0  0  0  0  0  0
   -8.2854   -6.5368   -4.8993 C   0  0  0  0  0  0  0  0  0  0  0  0
   -9.1594   -6.3075   -4.2931 H   0  0  0  0  0  0  0  0  0  0  0  0
   -7.7642   -7.3766   -4.4466 H   0  0  0  0  0  0  0  0  0  0  0  0
   -8.6110   -6.8410   -5.8911 H   0  0  0  0  0  0  0  0  0  0  0  0
   -8.4085   -0.8096   -3.7687 C   0  0  0  0  0  0  0  0  0  0  0  0
   -7.6868   -1.1713   -3.0055 H   0  0  0  0  0  0  0  0  0  0  0  0
   -7.6027    0.0823   -4.7172 C   0  0  0  0  0  0  0  0  0  0  0  0
   -8.2060    0.4790   -5.5271 H   0  0  0  0  0  0  0  0  0  0  0  0
   -6.7741   -0.4864   -5.1311 H   0  0  0  0  0  0  0  0  0  0  0  0
   -7.1884    0.9162   -4.1558 H   0  0  0  0  0  0  0  0  0  0  0  0
   -9.4735   -0.0050   -3.0327 C   0  0  0  0  0  0  0  0  0  0  0  0
  -10.0357   -0.6295   -2.3447 H   0  0  0  0  0  0  0  0  0  0  0  0
  -10.1589    0.4939   -3.7120 H   0  0  0  0  0  0  0  0  0  0  0  0
   -8.9707    0.7642   -2.4501 H   0  0  0  0  0  0  0  0  0  0  0  0
  -10.1241   -2.0745   -5.1986 C   0  0  0  0  0  0  0  0  0  0  0  0
  -10.1234   -3.0280   -5.7251 H   0  0  0  0  0  0  0  0  0  0  0  0
  -11.3427   -2.1348   -4.2626 C   0  0  0  0  0  0  0  0  0  0  0  0
  -11.6459   -1.1566   -3.9072 H   0  0  0  0  0  0  0  0  0  0  0  0
  -11.1290   -2.7736   -3.4084 H   0  0  0  0  0  0  0  0  0  0  0  0
  -12.1810   -2.5650   -4.8069 H   0  0  0  0  0  0  0  0  0  0  0  0
  -10.2981   -0.9870   -6.2557 C   0  0  0  0  0  0  0  0  0  0  0  0
  -11.1911   -1.2063   -6.8377 H   0  0  0  0  0  0  0  0  0  0  0  0
   -9.4472   -0.9757   -6.9316 H   0  0  0  0  0  0  0  0  0  0  0  0
  -10.4190   -0.0034   -5.8128 H   0  0  0  0  0  0  0  0  0  0  0  0
   -8.2298   -3.2200   -1.1822 C   0  0  0  0  0  3  0  0  0  0  0  0
   -9.1528   -2.7480   -1.5148 H   0  0  0  0  0  0  0  0  0  0  0  0
   -8.0105   -4.5303   -1.6105 C   0  0  2  0  0  0  0  0  0  0  0  0
   -8.7925   -4.9892   -2.2159 H   0  0  0  0  0  0  0  0  0  0  0  0
   -7.1672   -5.5461   -0.8726 C   0  0  0  0  0  0  0  0  0  0  0  0
   -7.7217   -5.9082    0.0014 H   0  0  0  0  0  0  0  0  0  0  0  0
   -7.0177   -6.4043   -1.5335 H   0  0  0  0  0  0  0  0  0  0  0  0
   -5.7922   -5.0058   -0.4346 C   0  0  0  0  0  0  0  0  0  0  0  0
   -5.0809   -5.8344   -0.4107 H   0  0  0  0  0  0  0  0  0  0  0  0
   -5.8489   -4.6018    0.5775 H   0  0  0  0  0  0  0  0  0  0  0  0
   -5.2680   -3.9323   -1.3621 C   0  0  0  0  0  3  0  0  0  0  0  0
   -4.4186   -4.2259   -1.9791 H   0  0  0  0  0  0  0  0  0  0  0  0
   -5.4844   -2.5870   -1.1635 C   0  0  0  0  0  3  0  0  0  0  0  0
   -4.7790   -1.8846   -1.6083 H   0  0  0  0  0  0  0  0  0  0  0  0
   -6.3104   -1.9982   -0.0429 C   0  0  0  0  0  0  0  0  0  0  0  0
   -6.4574   -0.9355   -0.2529 H   0  0  0  0  0  0  0  0  0  0  0  0
   -5.7469   -2.0664    0.8946 H   0  0  0  0  0  0  0  0  0  0  0  0
   -7.6876   -2.6703    0.1212 C   0  0  0  0  0  0  0  0  0  0  0  0
   -7.6298   -3.4806    0.8501 H   0  0  0  0  0  0  0  0  0  0  0  0
   -8.3908   -1.9338    0.5169 H   0  0  0  0  0  0  0  0  0  0  0  0
   -5.2629   -2.5560   -4.3527 Cl  0  0  0  0  0 15  0  0  0  0  0  0
   -8.0892   -4.0905   -5.2317 N   0  0  0  0  0  0  0  0  0  0  0  0
   -8.8658   -2.0270   -4.4546 N   0  0  0  0  0  0  0  0  0  0  0  0
   -6.7967   -3.2308   -2.7611 Rh  0  0  0  0  0  0  0  0  0  0  0  0
  1 66  1  6  0  0  0
  2 64  1  0  0  0  0
  3  4  1  0  0  0  0
  3  2  1  0  0  0  0
  5  3  2  0  0  0  0
  6  5  1  0  0  0  0
  7  9  2  0  0  0  0
  7  5  1  0  0  0  0
  8  7  1  0  0  0  0
  9 11  1  0  0  0  0
 10  9  1  0  0  0  0
 11 12  1  0  0  0  0
 11  2  2  0  0  0  0
 13 19  1  0  0  0  0
 13 14  1  0  0  0  0
 15 16  1  0  0  0  0
 15 13  1  0  0  0  0
 17 15  1  0  0  0  0
 18 15  1  0  0  0  0
 19 21  1  0  0  0  0
 19 20  1  0  0  0  0
 22 19  1  0  0  0  0
 23 29  1  0  0  0  0
 23 24  1  0  0  0  0
 25 28  1  0  0  0  0
 25 23  1  0  0  0  0
 26 25  1  0  0  0  0
 27 25  1  0  0  0  0
 29 32  1  0  0  0  0
 29 30  1  0  0  0  0
 31 29  1  0  0  0  0
 33 65  1  0  0  0  0
 33 35  1  0  0  0  0
 34 33  1  0  0  0  0
 35 36  1  0  0  0  0
 35 37  1  0  0  0  0
 38 35  1  0  0  0  0
 39 42  1  0  0  0  0
 39 33  1  0  0  0  0
 40 39  1  0  0  0  0
 41 39  1  0  0  0  0
 43 60  1  0  0  0  0
 44 43  1  0  0  0  0
 45 46  1  6  0  0  0
 45 43  1  0  0  0  0
 45 47  1  0  0  0  0
 47 50  1  0  0  0  0
 47 48  1  0  0  0  0
 49 47  1  0  0  0  0
 50 51  1  0  0  0  0
 50 52  1  0  0  0  0
 53 55  1  0  0  0  0
 53 50  1  0  0  0  0
 54 53  1  0  0  0  0
 55 57  1  0  0  0  0
 56 55  1  0  0  0  0
 57 60  1  0  0  0  0
 57 59  1  0  0  0  0
 58 57  1  0  0  0  0
 60 62  1  0  0  0  0
 60 61  1  0  0  0  0
 64 13  1  0  0  0  0
 64  1  1  0  0  0  0
 65  1  1  0  0  0  0
 65 23  1  0  0  0  0
 66 45  1  0  0  0  0
M  END
$$$$
