CSD_code = HUXSOK | q = 0 | S = 0 | Stoichiometry = C13H24ClN2Rh | MND = 6
 OpenBabel04212202053D

 41 40  0  0  1  0  0  0  0  0999 V2000
    9.7445    2.9987    2.5978 C   0  0  0  0  0  3  0  0  0  0  0  0
    8.8663    4.9695    3.6650 C   0  0  0  0  0  0  0  0  0  0  0  0
    9.1122    5.9415    3.2302 H   0  0  0  0  0  0  0  0  0  0  0  0
    9.6465    4.7129    4.3916 H   0  0  0  0  0  0  0  0  0  0  0  0
    7.8981    5.0368    4.1677 H   0  0  0  0  0  0  0  0  0  0  0  0
    7.8961    4.3170    1.5641 C   0  0  0  0  0  0  0  0  0  0  0  0
    6.8714    3.9995    1.7800 H   0  0  0  0  0  0  0  0  0  0  0  0
    8.2215    3.9051    0.6144 H   0  0  0  0  0  0  0  0  0  0  0  0
    7.8954    5.4038    1.4646 H   0  0  0  0  0  0  0  0  0  0  0  0
    8.4847    1.4934    1.0332 C   0  0  0  0  0  0  0  0  0  0  0  0
    8.4745    1.7522   -0.0298 H   0  0  0  0  0  0  0  0  0  0  0  0
    7.5770    1.8507    1.5090 H   0  0  0  0  0  0  0  0  0  0  0  0
    8.4912    0.4018    1.1065 H   0  0  0  0  0  0  0  0  0  0  0  0
   10.8388    1.2010    1.4208 C   0  0  0  0  0  0  0  0  0  0  0  0
   11.0332    1.2270    0.3459 H   0  0  0  0  0  0  0  0  0  0  0  0
   10.6987    0.1599    1.7275 H   0  0  0  0  0  0  0  0  0  0  0  0
   11.7040    1.6299    1.9415 H   0  0  0  0  0  0  0  0  0  0  0  0
   11.0066    1.3163    4.7971 C   0  0  2  0  0  0  0  0  0  0  0  0
   10.2915    0.6932    4.2598 H   0  0  0  0  0  0  0  0  0  0  0  0
   10.4813    2.3561    5.5679 C   0  0  0  0  0  3  0  0  0  0  0  0
    9.3984    2.4767    5.5485 H   0  0  0  0  0  0  0  0  0  0  0  0
   11.1379    2.8633    6.8365 C   0  0  0  0  0  0  0  0  0  0  0  0
   11.6597    2.0359    7.3200 H   0  0  0  0  0  0  0  0  0  0  0  0
   10.3627    3.1999    7.5288 H   0  0  0  0  0  0  0  0  0  0  0  0
   12.1096    4.0317    6.5779 C   0  0  0  0  0  0  0  0  0  0  0  0
   11.5629    4.9747    6.6650 H   0  0  0  0  0  0  0  0  0  0  0  0
   12.8933    4.0431    7.3436 H   0  0  0  0  0  0  0  0  0  0  0  0
   12.7520    3.9868    5.2099 C   0  0  0  0  0  3  0  0  0  0  0  0
   13.0385    4.9642    4.8218 H   0  0  0  0  0  0  0  0  0  0  0  0
   13.3420    2.8719    4.6546 C   0  0  0  0  0  3  0  0  0  0  0  0
   14.0411    3.0257    3.8326 H   0  0  0  0  0  0  0  0  0  0  0  0
   13.4813    1.5519    5.3797 C   0  0  0  0  0  0  0  0  0  0  0  0
   13.5629    1.7417    6.4510 H   0  0  0  0  0  0  0  0  0  0  0  0
   14.4098    1.0694    5.0668 H   0  0  0  0  0  0  0  0  0  0  0  0
   12.3054    0.5994    5.0913 C   0  0  0  0  0  0  0  0  0  0  0  0
   12.5543   -0.0175    4.2235 H   0  0  0  0  0  0  0  0  0  0  0  0
   12.1593   -0.0815    5.9381 H   0  0  0  0  0  0  0  0  0  0  0  0
    8.8141    3.9571    2.6289 N   0  0  0  0  0  0  0  0  0  0  0  0
    9.6621    1.9925    1.7139 N   0  0  0  0  0  0  0  0  0  0  0  0
   12.0818    4.5742    2.1531 Cl  0  0  0  0  0 15  0  0  0  0  0  0
   11.3597    3.1440    3.7924 Rh  0  0  0  0  0  0  0  0  0  0  0  0
  1 38  1  0  0  0  0
  1 41  1  0  0  0  0
  2  5  1  0  0  0  0
  2  4  1  0  0  0  0
  3  2  1  0  0  0  0
  6  7  1  0  0  0  0
  6 38  1  0  0  0  0
  8  6  1  0  0  0  0
  9  6  1  0  0  0  0
 10 13  1  0  0  0  0
 10 12  1  0  0  0  0
 10 39  1  0  0  0  0
 11 10  1  0  0  0  0
 14 39  1  0  0  0  0
 14 16  1  0  0  0  0
 14 17  1  0  0  0  0
 15 14  1  0  0  0  0
 18 19  1  6  0  0  0
 18 35  1  0  0  0  0
 18 20  1  0  0  0  0
 20 22  1  0  0  0  0
 21 20  1  0  0  0  0
 22 23  1  0  0  0  0
 22 24  1  0  0  0  0
 25 26  1  0  0  0  0
 25 22  1  0  0  0  0
 25 27  1  0  0  0  0
 28 25  1  0  0  0  0
 29 28  1  0  0  0  0
 30 28  1  0  0  0  0
 30 32  1  0  0  0  0
 31 30  1  0  0  0  0
 32 33  1  0  0  0  0
 34 32  1  0  0  0  0
 35 32  1  0  0  0  0
 35 37  1  0  0  0  0
 36 35  1  0  0  0  0
 38  2  1  0  0  0  0
 39  1  1  0  0  0  0
 41 18  1  0  0  0  0
M  END
$$$$
