CSD_code = HUXSEZ | q = 0 | S = 0 | Stoichiometry = C16H8ClF5N2Pd | MND = 4
 OpenBabel04212202053D

 33 36  0  0  0  0  0  0  0  0999 V2000
    4.2526    3.8690    4.4001 Pd  0  0  2  0  0  0  0  0  0  0  0  0
    4.4309    5.8912    5.2582 Cl  0  0  0  0  0  0  0  0  0  0  0  0
    4.1728    4.7828    2.6517 C   0  0  0  0  0  0  0  0  0  0  0  0
    2.9324    5.1896    2.1868 C   0  0  0  0  0  0  0  0  0  0  0  0
    2.7721    5.9349    1.0286 C   0  0  0  0  0  0  0  0  0  0  0  0
    3.9124    6.2921    0.3092 C   0  0  0  0  0  0  0  0  0  0  0  0
    5.1780    5.9026    0.7450 C   0  0  0  0  0  0  0  0  0  0  0  0
    5.2821    5.1571    1.9119 C   0  0  0  0  0  0  0  0  0  0  0  0
    1.8720    4.7877    2.9398 F   0  0  0  0  0  0  0  0  0  0  0  0
    1.5630    6.3056    0.5868 F   0  0  0  0  0  0  0  0  0  0  0  0
    3.7891    7.0062   -0.8178 F   0  0  0  0  0  0  0  0  0  0  0  0
    6.2588    6.2438    0.0307 F   0  0  0  0  0  0  0  0  0  0  0  0
    6.4817    4.7355    2.3790 F   0  0  0  0  0  0  0  0  0  0  0  0
    4.3030    2.8869    6.2063 N   0  0  0  0  0  0  0  0  0  0  0  0
    4.4215    3.4403    7.4080 C   0  0  0  0  0  0  0  0  0  0  0  0
    4.4873    4.5237    7.4252 H   0  0  0  0  0  0  0  0  0  0  0  0
    4.4599    2.6870    8.5699 C   0  0  0  0  0  0  0  0  0  0  0  0
    4.5570    3.1728    9.5270 H   0  0  0  0  0  0  0  0  0  0  0  0
    4.3726    1.3058    8.4704 C   0  0  0  0  0  0  0  0  0  0  0  0
    4.4007    0.6858    9.3533 H   0  0  0  0  0  0  0  0  0  0  0  0
    4.2488    0.7295    7.2191 C   0  0  0  0  0  0  0  0  0  0  0  0
    4.1811   -0.3419    7.1269 H   0  0  0  0  0  0  0  0  0  0  0  0
    4.2148    1.5473    6.0887 C   0  0  0  0  0  0  0  0  0  0  0  0
    4.0893    1.9885    3.7431 N   0  0  0  0  0  0  0  0  0  0  0  0
    3.9732    1.6029    2.4718 C   0  0  0  0  0  0  0  0  0  0  0  0
    3.9818    2.3891    1.7267 H   0  0  0  0  0  0  0  0  0  0  0  0
    3.8482    0.2787    2.0964 C   0  0  0  0  0  0  0  0  0  0  0  0
    3.7570    0.0198    1.0543 H   0  0  0  0  0  0  0  0  0  0  0  0
    3.8432   -0.6990    3.0826 C   0  0  0  0  0  0  0  0  0  0  0  0
    3.7475   -1.7428    2.8277 H   0  0  0  0  0  0  0  0  0  0  0  0
    3.9632   -0.3065    4.4020 C   0  0  0  0  0  0  0  0  0  0  0  0
    3.9602   -1.0479    5.1837 H   0  0  0  0  0  0  0  0  0  0  0  0
    4.0856    1.0473    4.7149 C   0  0  0  0  0  0  0  0  0  0  0  0
  1  2  1  6  0  0  0
  1 14  1  0  0  0  0
  3  1  1  0  0  0  0
  4  3  1  0  0  0  0
  4  9  1  0  0  0  0
  5  4  2  0  0  0  0
  6  7  2  0  0  0  0
  6  5  1  0  0  0  0
  7  8  1  0  0  0  0
  8 13  1  0  0  0  0
  8  3  2  0  0  0  0
 10  5  1  0  0  0  0
 11  6  1  0  0  0  0
 12  7  1  0  0  0  0
 14 15  1  0  0  0  0
 15 16  1  0  0  0  0
 15 17  2  0  0  0  0
 17 18  1  0  0  0  0
 19 17  1  0  0  0  0
 19 20  1  0  0  0  0
 21 19  2  0  0  0  0
 22 21  1  0  0  0  0
 23 14  1  0  0  0  0
 23 21  1  0  0  0  0
 24  1  1  0  0  0  0
 24 33  1  0  0  0  0
 25 24  1  0  0  0  0
 26 25  1  0  0  0  0
 27 25  2  0  0  0  0
 27 29  1  0  0  0  0
 28 27  1  0  0  0  0
 29 31  2  0  0  0  0
 30 29  1  0  0  0  0
 31 33  1  0  0  0  0
 31 32  1  0  0  0  0
 33 23  2  0  0  0  0
M  END
$$$$
