CSD_code = HUXXON | q = 0 | S = 0 | Stoichiometry = C5H9Cl2NO2Pt | MND = 5
 OpenBabel04212202053D

 20 17  0  0  1  0  0  0  0  0999 V2000
    3.4709    5.5546    4.3388 Pt  0  0  0  0  0  0  0  0  0  0  0  0
    1.5483    6.5783    4.7877 Cl  0  0  0  0  0 15  0  0  0  0  0  0
    4.4578    7.5483    4.0842 Cl  0  0  0  0  0 15  0  0  0  0  0  0
    2.4728    3.6543    4.7010 N   0  0  0  0  0  0  0  0  0  0  0  0
    2.0517    3.7371    5.6321 H   0  0  0  0  0  0  0  0  0  0  0  0
    1.7001    3.4989    4.0548 H   0  0  0  0  0  0  0  0  0  0  0  0
    3.4332    2.5520    4.6976 C   0  0  2  0  0  0  0  0  0  0  0  0
    3.5955    2.1943    3.6766 H   0  0  0  0  0  0  0  0  0  0  0  0
    2.9219    1.3903    5.5447 C   0  0  0  0  0  0  0  0  0  0  0  0
    1.9844    1.4758    6.2887 O   0  0  0  0  0  0  0  0  0  0  0  0
    3.6491    0.2903    5.3764 O   0  0  0  0  0  0  0  0  0  0  0  0
    3.3302   -0.4325    5.9414 H   0  0  0  0  0  0  0  0  0  0  0  0
    4.7655    3.0524    5.2904 C   0  0  0  0  0  0  0  0  0  0  0  0
    4.6323    3.2232    6.3625 H   0  0  0  0  0  0  0  0  0  0  0  0
    5.5322    2.2829    5.1672 H   0  0  0  0  0  0  0  0  0  0  0  0
    5.2205    4.3420    4.6397 C   0  0  1  0  0  0  0  0  0  0  0  0
    5.9642    4.8931    5.2102 H   0  0  0  0  0  0  0  0  0  0  0  0
    5.0926    4.6057    3.2857 C   0  0  0  0  0  3  0  0  0  0  0  0
    4.6941    3.8643    2.6022 H   0  0  0  0  0  0  0  0  0  0  0  0
    5.7311    5.3540    2.8341 H   0  0  0  0  0  0  0  0  0  0  0  0
  1 16  1  0  0  0  0
  4  5  1  0  0  0  0
  6  4  1  0  0  0  0
  7  8  1  6  0  0  0
  7  4  1  0  0  0  0
  7 13  1  0  0  0  0
  7  9  1  0  0  0  0
  9 10  2  0  0  0  0
 11  9  1  0  0  0  0
 11 12  1  0  0  0  0
 13 14  1  0  0  0  0
 15 13  1  0  0  0  0
 16 17  1  1  0  0  0
 16 13  1  0  0  0  0
 18 16  1  0  0  0  0
 19 18  1  0  0  0  0
 20 18  1  0  0  0  0
M  END
$$$$
