CSD_code = HUXZOP | q = 0 | S = 0 | Stoichiometry = C15H26Cl3N2V | MND = 5
 OpenBabel04212202053D

 47 51  0  0  1  0  0  0  0  0999 V2000
    2.9122   11.1979   16.1612 V   0  0  0  0  0  0  0  0  0  0  0  0
    1.6976    9.8064   17.0566 Cl  0  0  0  0  0  0  0  0  0  0  0  0
    4.3185   10.7753   14.6335 Cl  0  0  0  0  0  0  0  0  0  0  0  0
    4.6319   10.7237   17.6219 Cl  0  0  0  0  0  0  0  0  0  0  0  0
    2.5377   13.2126   16.6454 N   0  0  1  0  0  4  0  0  0  0  0  0
    1.3817   11.5906   14.5571 N   0  0  2  0  0  4  0  0  0  0  0  0
    1.1797   10.2734   13.9367 C   0  0  0  0  0  0  0  0  0  0  0  0
    0.6828    9.6301   14.6670 H   0  0  0  0  0  0  0  0  0  0  0  0
    2.1714    9.8617   13.7284 H   0  0  0  0  0  0  0  0  0  0  0  0
    0.3892   10.2894   12.6272 C   0  0  0  0  0  0  0  0  0  0  0  0
    0.3576    9.2730   12.2330 H   0  0  0  0  0  0  0  0  0  0  0  0
   -0.6422   10.6081   12.7924 H   0  0  0  0  0  0  0  0  0  0  0  0
    1.0688   11.2249   11.6356 C   0  0  0  0  0  0  0  0  0  0  0  0
    0.5067   11.2719   10.7009 H   0  0  0  0  0  0  0  0  0  0  0  0
    2.0706   10.8533   11.4114 H   0  0  0  0  0  0  0  0  0  0  0  0
    1.1639   12.6096   12.2648 C   0  0  0  0  0  0  0  0  0  0  0  0
    0.1543   12.9920   12.4174 H   0  0  0  0  0  0  0  0  0  0  0  0
    1.6826   13.2973   11.5943 H   0  0  0  0  0  0  0  0  0  0  0  0
    1.9498   12.5317   13.5846 C   0  0  1  0  0  0  0  0  0  0  0  0
    2.9441   12.1456   13.3307 H   0  0  0  0  0  0  0  0  0  0  0  0
    2.1210   13.9127   14.2309 C   0  0  2  0  0  0  0  0  0  0  0  0
    2.5836   14.5710   13.4867 H   0  0  0  0  0  0  0  0  0  0  0  0
    3.0503   13.9140   15.4557 C   0  0  0  0  0  0  0  0  0  0  0  0
    4.0175   13.4692   15.1934 H   0  0  0  0  0  0  0  0  0  0  0  0
    3.2259   14.9713   15.7178 H   0  0  0  0  0  0  0  0  0  0  0  0
    1.1572   13.6374   16.9329 C   0  0  2  0  0  0  0  0  0  0  0  0
    1.1885   14.7166   17.1740 H   0  0  0  0  0  0  0  0  0  0  0  0
    0.6121   12.9235   18.1693 C   0  0  0  0  0  0  0  0  0  0  0  0
    0.6789   11.8423   18.0351 H   0  0  0  0  0  0  0  0  0  0  0  0
   -0.4364   13.1963   18.3057 H   0  0  0  0  0  0  0  0  0  0  0  0
    1.4358   13.3257   19.3865 C   0  0  0  0  0  0  0  0  0  0  0  0
    1.3290   14.3985   19.5732 H   0  0  0  0  0  0  0  0  0  0  0  0
    1.0872   12.7945   20.2722 H   0  0  0  0  0  0  0  0  0  0  0  0
    2.8896   12.9768   19.1024 C   0  0  0  0  0  0  0  0  0  0  0  0
    2.9927   11.8927   19.0220 H   0  0  0  0  0  0  0  0  0  0  0  0
    3.5382   13.3188   19.9096 H   0  0  0  0  0  0  0  0  0  0  0  0
    3.3629   13.6161   17.8005 C   0  0  0  0  0  0  0  0  0  0  0  0
    3.3253   14.7130   17.9036 H   0  0  0  0  0  0  0  0  0  0  0  0
    4.3957   13.3128   17.6079 H   0  0  0  0  0  0  0  0  0  0  0  0
    0.1321   12.0900   15.1341 C   0  0  0  0  0  0  0  0  0  0  0  0
   -0.1702   11.3920   15.9193 H   0  0  0  0  0  0  0  0  0  0  0  0
   -0.6628   12.1094   14.3762 H   0  0  0  0  0  0  0  0  0  0  0  0
    0.2401   13.5039   15.7120 C   0  0  2  0  0  0  0  0  0  0  0  0
   -0.7654   13.8044   16.0284 H   0  0  0  0  0  0  0  0  0  0  0  0
    0.7605   14.4620   14.6464 C   0  0  0  0  0  0  0  0  0  0  0  0
    0.0811   14.5224   13.7976 H   0  0  0  0  0  0  0  0  0  0  0  0
    0.8612   15.4708   15.0541 H   0  0  0  0  0  0  0  0  0  0  0  0
  1  5  1  0  0  0  0
  1  2  1  0  0  0  0
  1  4  1  0  0  0  0
  3  1  1  0  0  0  0
  5 23  1  6  0  0  0
  5 26  1  0  0  0  0
  5 37  1  0  0  0  0
  6  7  1  6  0  0  0
  6 40  1  0  0  0  0
  6  1  1  0  0  0  0
  7  8  1  0  0  0  0
  9  7  1  0  0  0  0
 10 12  1  0  0  0  0
 10  7  1  0  0  0  0
 11 10  1  0  0  0  0
 13 16  1  0  0  0  0
 13 10  1  0  0  0  0
 14 13  1  0  0  0  0
 15 13  1  0  0  0  0
 16 17  1  0  0  0  0
 16 19  1  0  0  0  0
 18 16  1  0  0  0  0
 19 20  1  6  0  0  0
 19 21  1  0  0  0  0
 19  6  1  0  0  0  0
 21 22  1  6  0  0  0
 21 45  1  0  0  0  0
 21 23  1  0  0  0  0
 23 25  1  0  0  0  0
 24 23  1  0  0  0  0
 26 27  1  1  0  0  0
 26 28  1  0  0  0  0
 28 30  1  0  0  0  0
 28 31  1  0  0  0  0
 29 28  1  0  0  0  0
 31 32  1  0  0  0  0
 31 33  1  0  0  0  0
 34 31  1  0  0  0  0
 34 36  1  0  0  0  0
 35 34  1  0  0  0  0
 37 38  1  0  0  0  0
 37 34  1  0  0  0  0
 39 37  1  0  0  0  0
 40 43  1  0  0  0  0
 40 41  1  0  0  0  0
 42 40  1  0  0  0  0
 43 44  1  1  0  0  0
 43 26  1  0  0  0  0
 45 47  1  0  0  0  0
 45 43  1  0  0  0  0
 46 45  1  0  0  0  0
M  END
$$$$
