CSD_code = HUYBIM | q = 0 | S = 0 | Stoichiometry = C18H28Cl2P2Pd | MND = 4
 OpenBabel04212202053D

 51 54  0  0  1  0  0  0  0  0999 V2000
    6.8657   -0.3091    8.7342 Pd  0  0  0  0  0  0  0  0  0  0  0  0
    6.7726   -1.6410   10.5749 Cl  0  0  0  0  0  0  0  0  0  0  0  0
    8.6522    0.9131    9.4310 Cl  0  0  0  0  0  0  0  0  0  0  0  0
    7.0238    0.6521    6.7355 P   0  0  1  0  0  4  0  0  0  0  0  0
    4.9203   -1.1494    8.0613 P   0  0  2  0  0  4  0  0  0  0  0  0
    7.5949    2.3838    6.3830 C   0  0  1  0  0  0  0  0  0  0  0  0
    8.7237    2.2374    5.3573 C   0  0  0  0  0  0  0  0  0  0  0  0
    9.4767    0.9637    5.7327 C   0  0  0  0  0  0  0  0  0  0  0  0
    8.4312   -0.1517    5.8254 C   0  0  1  0  0  0  0  0  0  0  0  0
    6.5030    3.3847    6.0346 C   0  0  0  0  0  0  0  0  0  0  0  0
    8.8922   -1.3984    6.5771 C   0  0  0  0  0  0  0  0  0  0  0  0
    3.5778   -0.3345    9.0566 C   0  0  1  0  0  0  0  0  0  0  0  0
    3.0335   -1.4752    9.9216 C   0  0  0  0  0  0  0  0  0  0  0  0
    2.9189   -2.6962    9.0126 C   0  0  0  0  0  0  0  0  0  0  0  0
    4.2938   -2.8720    8.3598 C   0  0  1  0  0  0  0  0  0  0  0  0
    4.1527    0.8426    9.8415 C   0  0  0  0  0  0  0  0  0  0  0  0
    4.3505   -3.8154    7.1672 C   0  0  0  0  0  0  0  0  0  0  0  0
    4.5833   -0.5905    6.3536 C   0  0  0  0  0  0  0  0  0  0  0  0
    5.5584    0.2061    5.7376 C   0  0  0  0  0  0  0  0  0  0  0  0
    5.3806    0.6117    4.4201 C   0  0  0  0  0  0  0  0  0  0  0  0
    4.2318    0.2645    3.7312 C   0  0  0  0  0  0  0  0  0  0  0  0
    3.2452   -0.4812    4.3569 C   0  0  0  0  0  0  0  0  0  0  0  0
    3.4222   -0.9114    5.6601 C   0  0  0  0  0  0  0  0  0  0  0  0
    8.0458    2.6746    7.3440 H   0  0  0  0  0  0  0  0  0  0  0  0
    9.3780    3.1096    5.3811 H   0  0  0  0  0  0  0  0  0  0  0  0
    8.3163    2.1488    4.3467 H   0  0  0  0  0  0  0  0  0  0  0  0
    9.9394    1.0972    6.7134 H   0  0  0  0  0  0  0  0  0  0  0  0
   10.2533    0.7201    5.0065 H   0  0  0  0  0  0  0  0  0  0  0  0
    8.0863   -0.4268    4.8189 H   0  0  0  0  0  0  0  0  0  0  0  0
    5.7331    3.3838    6.8052 H   0  0  0  0  0  0  0  0  0  0  0  0
    6.9254    4.3862    5.9759 H   0  0  0  0  0  0  0  0  0  0  0  0
    6.0320    3.1566    5.0811 H   0  0  0  0  0  0  0  0  0  0  0  0
    8.0749   -2.1284    6.6369 H   0  0  0  0  0  0  0  0  0  0  0  0
    9.7362   -1.8664    6.0725 H   0  0  0  0  0  0  0  0  0  0  0  0
    9.2051   -1.1296    7.5962 H   0  0  0  0  0  0  0  0  0  0  0  0
    2.7973    0.0192    8.3684 H   0  0  0  0  0  0  0  0  0  0  0  0
    2.0755   -1.2100   10.3706 H   0  0  0  0  0  0  0  0  0  0  0  0
    3.7502   -1.6881   10.7184 H   0  0  0  0  0  0  0  0  0  0  0  0
    2.1507   -2.5282    8.2532 H   0  0  0  0  0  0  0  0  0  0  0  0
    2.6457   -3.5891    9.5761 H   0  0  0  0  0  0  0  0  0  0  0  0
    4.9906   -3.2363    9.1301 H   0  0  0  0  0  0  0  0  0  0  0  0
    4.5588    1.5948    9.1531 H   0  0  0  0  0  0  0  0  0  0  0  0
    3.3847    1.3139   10.4530 H   0  0  0  0  0  0  0  0  0  0  0  0
    4.9577    0.4956   10.5053 H   0  0  0  0  0  0  0  0  0  0  0  0
    5.3582   -3.8380    6.7542 H   0  0  0  0  0  0  0  0  0  0  0  0
    4.0883   -4.8240    7.4818 H   0  0  0  0  0  0  0  0  0  0  0  0
    3.6647   -3.5151    6.3783 H   0  0  0  0  0  0  0  0  0  0  0  0
    6.1476    1.1910    3.9271 H   0  0  0  0  0  0  0  0  0  0  0  0
    4.1013    0.5810    2.7070 H   0  0  0  0  0  0  0  0  0  0  0  0
    2.3398   -0.7329    3.8247 H   0  0  0  0  0  0  0  0  0  0  0  0
    2.6488   -1.4900    6.1438 H   0  0  0  0  0  0  0  0  0  0  0  0
  1  3  1  0  0  0  0
  1  2  1  0  0  0  0
  4 19  1  6  0  0  0
  4  1  1  0  0  0  0
  5 18  1  6  0  0  0
  5 15  1  0  0  0  0
  5  1  1  0  0  0  0
  5 12  1  0  0  0  0
  6  4  1  0  0  0  0
  6 24  1  1  0  0  0
  7 25  1  0  0  0  0
  7  8  1  0  0  0  0
  7  6  1  0  0  0  0
  8  9  1  0  0  0  0
  8 27  1  0  0  0  0
  9 29  1  6  0  0  0
  9 11  1  0  0  0  0
  9  4  1  0  0  0  0
 10  6  1  0  0  0  0
 10 30  1  0  0  0  0
 11 33  1  0  0  0  0
 11 35  1  0  0  0  0
 12 36  1  6  0  0  0
 12 16  1  0  0  0  0
 12 13  1  0  0  0  0
 13 37  1  0  0  0  0
 13 38  1  0  0  0  0
 14 40  1  0  0  0  0
 14 13  1  0  0  0  0
 15 14  1  0  0  0  0
 15 41  1  1  0  0  0
 16 43  1  0  0  0  0
 16 44  1  0  0  0  0
 17 46  1  0  0  0  0
 17 15  1  0  0  0  0
 19 18  1  0  0  0  0
 20 19  2  0  0  0  0
 21 22  2  0  0  0  0
 21 20  1  0  0  0  0
 22 23  1  0  0  0  0
 23 51  1  0  0  0  0
 23 18  2  0  0  0  0
 26  7  1  0  0  0  0
 28  8  1  0  0  0  0
 31 10  1  0  0  0  0
 32 10  1  0  0  0  0
 34 11  1  0  0  0  0
 39 14  1  0  0  0  0
 42 16  1  0  0  0  0
 45 17  1  0  0  0  0
 47 17  1  0  0  0  0
 48 20  1  0  0  0  0
 49 21  1  0  0  0  0
 50 22  1  0  0  0  0
M  END
$$$$
