CSD_code = HUYNAR | q = 0 | S = 0 | Stoichiometry = C13H13IN2O2PdS | MND = 4
 OpenBabel04212202053D

 33 35  0  0  1  0  0  0  0  0999 V2000
   -0.9778    7.3644   14.2882 I   0  0  0  0  0  0  0  0  0  0  0  0
   -1.2877    8.5877   16.4983 Pd  0  0  1  0  0  0  0  0  0  0  0  0
   -1.6589    9.6891   18.5452 S   0  0  2  0  0  3  0  0  0  0  0  0
    0.3551    7.5850   17.6605 N   0  0  0  0  0  0  0  0  0  0  0  0
   -3.6091   11.5489   14.6213 C   0  0  0  0  0  0  0  0  0  0  0  0
   -3.4592   12.5192   14.1725 H   0  0  0  0  0  0  0  0  0  0  0  0
    0.6155    8.0899   18.8704 C   0  0  2  0  0  3  0  0  0  0  0  0
    0.8984    6.4195   17.3185 C   0  0  0  0  0  0  0  0  0  0  0  0
    0.6674    6.0525   16.3255 H   0  0  0  0  0  0  0  0  0  0  0  0
   -4.9021   11.0443   14.7323 C   0  0  0  0  0  0  0  0  0  0  0  0
   -2.7857    9.5502   15.6609 C   0  0  0  0  0  0  0  0  0  0  0  0
   -4.0773    9.0396   15.7437 C   0  0  0  0  0  0  0  0  0  0  0  0
   -4.2480    8.0444   16.1510 H   0  0  0  0  0  0  0  0  0  0  0  0
   -2.5497   10.7955   15.0867 C   0  0  0  0  0  0  0  0  0  0  0  0
   -1.5306   11.1684   14.9924 H   0  0  0  0  0  0  0  0  0  0  0  0
    0.0244    9.4249   19.2155 C   0  0  0  0  0  0  0  0  0  0  0  0
    0.6214   10.2262   18.7680 H   0  0  0  0  0  0  0  0  0  0  0  0
   -0.0132    9.5758   20.2960 H   0  0  0  0  0  0  0  0  0  0  0  0
   -2.5371    8.2917   19.3191 C   0  0  0  0  0  0  0  0  0  0  0  0
   -2.2035    7.3366   18.9056 H   0  0  0  0  0  0  0  0  0  0  0  0
   -3.5929    8.4384   19.1036 H   0  0  0  0  0  0  0  0  0  0  0  0
   -2.3748    8.3229   20.3939 H   0  0  0  0  0  0  0  0  0  0  0  0
   -7.1260   11.3761   14.4072 O   0  0  0  0  0  0  0  0  0  0  0  0
   -5.7669   12.9190   13.7834 O   0  0  0  0  0  0  0  0  0  0  0  0
   -6.0076   11.8329   14.2724 N   0  0  0  0  0  0  0  0  0  0  0  0
    1.9859    6.2113   19.4297 C   0  0  0  0  0  0  0  0  0  0  0  0
    2.6171    5.6788   20.1244 H   0  0  0  0  0  0  0  0  0  0  0  0
    1.7217    5.7009   18.1693 C   0  0  0  0  0  0  0  0  0  0  0  0
    2.1397    4.7616   17.8465 H   0  0  0  0  0  0  0  0  0  0  0  0
   -5.1423    9.7882   15.2823 C   0  0  0  0  0  0  0  0  0  0  0  0
   -6.1561    9.4206   15.3336 H   0  0  0  0  0  0  0  0  0  0  0  0
    1.4214    7.4250   19.7859 C   0  0  0  0  0  0  0  0  0  0  0  0
    1.6068    7.8594   20.7563 H   0  0  0  0  0  0  0  0  0  0  0  0
  2  1  1  1  0  0  0
  2  4  1  0  0  0  0
  2  3  1  0  0  0  0
  3 16  1  0  0  0  0
  3 19  1  1  0  0  0
  4  7  1  0  0  0  0
  5 10  2  0  0  0  0
  5 14  1  0  0  0  0
  6  5  1  0  0  0  0
  7 16  1  0  0  0  0
  7 32  1  6  0  0  0
  8  4  1  0  0  0  0
  8 28  2  0  0  0  0
  9  8  1  0  0  0  0
 10 30  1  0  0  0  0
 11 12  1  0  0  0  0
 11  2  1  0  0  0  0
 12 13  1  0  0  0  0
 14 11  2  0  0  0  0
 15 14  1  0  0  0  0
 16 18  1  0  0  0  0
 17 16  1  0  0  0  0
 19 22  1  0  0  0  0
 20 19  1  0  0  0  0
 21 19  1  0  0  0  0
 24 25  2  0  0  0  0
 25 23  2  0  0  0  0
 25 10  1  0  0  0  0
 26 32  2  0  0  0  0
 26 27  1  0  0  0  0
 28 26  1  0  0  0  0
 29 28  1  0  0  0  0
 30 31  1  0  0  0  0
 30 12  2  0  0  0  0
 32 33  1  0  0  0  0
M  END
$$$$
