CSD_code = HUYNIY | q = 0 | S = 0 | Stoichiometry = C16H21Cl2NZr | MND = 12
 OpenBabel04212202053D

 41 42  0  0  1  0  0  0  0  0999 V2000
   -0.6759    2.6675    2.7969 C   0  0  1  0  0  0  0  0  0  0  0  0
   -0.9917    1.7531    1.7551 C   0  0  0  0  0  0  0  0  0  0  0  0
   -1.8845    1.1400    1.7057 H   0  0  0  0  0  0  0  0  0  0  0  0
   -0.0251    1.8950    0.7386 C   0  0  0  0  0  0  0  0  0  0  0  0
   -0.0346    1.3919   -0.2208 H   0  0  0  0  0  0  0  0  0  0  0  0
    0.8999    2.8845    1.1438 C   0  0  0  0  0  0  0  0  0  0  0  0
    1.7122    3.2723    0.5404 H   0  0  0  0  0  0  0  0  0  0  0  0
    0.4968    3.3726    2.4054 C   0  0  0  0  0  0  0  0  0  0  0  0
    0.9274    4.2192    2.9270 H   0  0  0  0  0  0  0  0  0  0  0  0
   -1.4195    2.8014    4.0707 C   0  0  0  0  0  0  0  0  0  0  0  0
   -1.7085    1.6770    4.7461 C   0  0  0  0  0  0  0  0  0  0  0  0
   -2.2629    1.6679    5.6662 H   0  0  0  0  0  0  0  0  0  0  0  0
   -1.4077    0.7133    4.3542 H   0  0  0  0  0  0  0  0  0  0  0  0
   -2.2370    4.2906    5.8247 C   0  0  0  0  0  0  0  0  0  0  0  0
   -2.5981    5.3191    5.8843 H   0  0  0  0  0  0  0  0  0  0  0  0
   -3.0942    3.6282    6.0012 H   0  0  0  0  0  0  0  0  0  0  0  0
   -1.1834    4.0810    6.9104 C   0  0  0  0  0  0  0  0  0  0  0  0
   -0.8112    3.0607    6.8996 H   0  0  0  0  0  0  0  0  0  0  0  0
   -1.6145    4.2830    7.8873 H   0  0  0  0  0  0  0  0  0  0  0  0
   -0.3477    4.7587    6.7537 H   0  0  0  0  0  0  0  0  0  0  0  0
   -2.0849    5.0647    3.5004 C   0  0  0  0  0  0  0  0  0  0  0  0
   -1.4468    4.9538    2.6230 H   0  0  0  0  0  0  0  0  0  0  0  0
   -1.9286    6.0656    3.9127 H   0  0  0  0  0  0  0  0  0  0  0  0
   -3.5443    4.8955    3.0730 C   0  0  0  0  0  0  0  0  0  0  0  0
   -3.6956    3.8976    2.6676 H   0  0  0  0  0  0  0  0  0  0  0  0
   -3.7953    5.6246    2.3075 H   0  0  0  0  0  0  0  0  0  0  0  0
   -4.2168    5.0329    3.9166 H   0  0  0  0  0  0  0  0  0  0  0  0
    1.4856    0.7313    5.2317 C   0  0  2  0  0  0  0  0  0  0  0  0
    0.7469    0.3350    5.9185 H   0  0  0  0  0  0  0  0  0  0  0  0
    1.7104    2.0982    4.9460 C   0  0  0  0  0  0  0  0  0  0  0  0
    1.1823    2.9317    5.3910 H   0  0  0  0  0  0  0  0  0  0  0  0
    2.8639    2.1886    4.1274 C   0  0  0  0  0  0  0  0  0  0  0  0
    3.3667    3.1026    3.8326 H   0  0  0  0  0  0  0  0  0  0  0  0
    3.3636    0.8825    3.9343 C   0  0  0  0  0  0  0  0  0  0  0  0
    4.2869    0.6249    3.4305 H   0  0  0  0  0  0  0  0  0  0  0  0
    2.5081   -0.0193    4.6012 C   0  0  0  0  0  0  0  0  0  0  0  0
    2.6606   -1.0885    4.6956 H   0  0  0  0  0  0  0  0  0  0  0  0
   -1.6733    4.0972    4.5015 N   0  0  0  0  0  0  0  0  0  0  0  0
    2.4881    0.1241    1.1371 Cl  0  0  0  0  0  0  0  0  0  0  0  0
   -0.0625   -1.0067    2.9200 Cl  0  0  0  0  0  0  0  0  0  0  0  0
    1.1075    1.0082    2.8163 Zr  0  0  0  0  0  0  0  0  0  0  0  0
  1 41  1  0  0  0  0
  1 10  1  1  0  0  0
  2  1  1  0  0  0  0
  3  2  1  0  0  0  0
  4  6  1  0  0  0  0
  4  2  2  0  0  0  0
  5  4  1  0  0  0  0
  6  8  2  0  0  0  0
  7  6  1  0  0  0  0
  8  1  1  0  0  0  0
  8  9  1  0  0  0  0
 10 38  1  0  0  0  0
 10 11  2  0  0  0  0
 11 12  1  0  0  0  0
 13 11  1  0  0  0  0
 14 15  1  0  0  0  0
 14 16  1  0  0  0  0
 14 17  1  0  0  0  0
 17 19  1  0  0  0  0
 18 17  1  0  0  0  0
 20 17  1  0  0  0  0
 21 23  1  0  0  0  0
 21 38  1  0  0  0  0
 22 21  1  0  0  0  0
 24 21  1  0  0  0  0
 24 27  1  0  0  0  0
 25 24  1  0  0  0  0
 26 24  1  0  0  0  0
 28 29  1  1  0  0  0
 30 28  1  0  0  0  0
 30 31  1  0  0  0  0
 32 30  2  0  0  0  0
 33 32  1  0  0  0  0
 34 32  1  0  0  0  0
 34 36  2  0  0  0  0
 35 34  1  0  0  0  0
 36 37  1  0  0  0  0
 36 28  1  0  0  0  0
 38 14  1  0  0  0  0
 39 41  1  0  0  0  0
 41 40  1  0  0  0  0
 41 28  1  0  0  0  0
M  END
$$$$
