CSD_code = HUYNOE | q = 0 | S = 0 | Stoichiometry = C22H32Cl2N2Zr | MND = 12
 OpenBabel04212202053D

 59 60  0  0  1  0  0  0  0  0999 V2000
   -2.6988    0.7191    3.1894 C   0  0  1  0  0  0  0  0  0  0  0  0
   -2.7134    2.1391    3.1339 C   0  0  0  0  0  0  0  0  0  0  0  0
   -2.8524    2.7344    2.2396 H   0  0  0  0  0  0  0  0  0  0  0  0
   -2.6543    2.6309    4.4520 C   0  0  0  0  0  0  0  0  0  0  0  0
   -2.7228    3.6720    4.7434 H   0  0  0  0  0  0  0  0  0  0  0  0
   -2.6048    1.5270    5.3348 C   0  0  0  0  0  0  0  0  0  0  0  0
   -2.6453    1.5844    6.4155 H   0  0  0  0  0  0  0  0  0  0  0  0
   -2.6414    0.3460    4.5638 C   0  0  0  0  0  0  0  0  0  0  0  0
   -2.7303   -0.6631    4.9439 H   0  0  0  0  0  0  0  0  0  0  0  0
   -2.6673   -0.1984    2.0341 C   0  0  0  0  0  0  0  0  0  0  0  0
   -1.9617    0.1441    0.9449 C   0  0  0  0  0  0  0  0  0  0  0  0
   -1.9251   -0.4650    0.0599 H   0  0  0  0  0  0  0  0  0  0  0  0
   -1.4026    1.0684    0.9207 H   0  0  0  0  0  0  0  0  0  0  0  0
   -4.6662   -1.3855    2.7066 C   0  0  0  0  0  0  0  0  0  0  0  0
   -4.7396   -0.5884    3.4479 H   0  0  0  0  0  0  0  0  0  0  0  0
   -4.9008   -2.3309    3.2005 H   0  0  0  0  0  0  0  0  0  0  0  0
   -5.6829   -1.1128    1.5950 C   0  0  0  0  0  0  0  0  0  0  0  0
   -5.4135   -0.2036    1.0618 H   0  0  0  0  0  0  0  0  0  0  0  0
   -6.6724   -0.9835    2.0257 H   0  0  0  0  0  0  0  0  0  0  0  0
   -5.7243   -1.9349    0.8849 H   0  0  0  0  0  0  0  0  0  0  0  0
   -2.9480   -2.5184    1.3419 C   0  0  0  0  0  0  0  0  0  0  0  0
   -1.8867   -2.4098    1.1044 H   0  0  0  0  0  0  0  0  0  0  0  0
   -3.5083   -2.4764    0.3973 H   0  0  0  0  0  0  0  0  0  0  0  0
   -3.1543   -3.8818    1.9982 C   0  0  0  0  0  0  0  0  0  0  0  0
   -2.6951   -3.8963    2.9840 H   0  0  0  0  0  0  0  0  0  0  0  0
   -2.6863   -4.6499    1.3879 H   0  0  0  0  0  0  0  0  0  0  0  0
   -4.2082   -4.1270    2.0970 H   0  0  0  0  0  0  0  0  0  0  0  0
    0.3961   -0.6783    4.8996 C   0  0  1  0  0  0  0  0  0  0  0  0
    1.5176    0.1913    4.8215 C   0  0  0  0  0  0  0  0  0  0  0  0
    2.1109    0.5336    5.6607 H   0  0  0  0  0  0  0  0  0  0  0  0
    1.8043    0.4174    3.4615 C   0  0  0  0  0  0  0  0  0  0  0  0
    2.6470    0.9786    3.0762 H   0  0  0  0  0  0  0  0  0  0  0  0
    0.8699   -0.3071    2.6854 C   0  0  0  0  0  0  0  0  0  0  0  0
    0.8899   -0.4047    1.6070 H   0  0  0  0  0  0  0  0  0  0  0  0
    0.0057   -0.9923    3.5653 C   0  0  0  0  0  0  0  0  0  0  0  0
   -0.7453   -1.7198    3.2865 H   0  0  0  0  0  0  0  0  0  0  0  0
   -0.2878   -1.1117    6.1331 C   0  0  0  0  0  0  0  0  0  0  0  0
   -0.4060   -0.2498    7.1550 C   0  0  0  0  0  0  0  0  0  0  0  0
   -0.8640   -0.5158    8.0907 H   0  0  0  0  0  0  0  0  0  0  0  0
   -0.0271    0.7584    7.0702 H   0  0  0  0  0  0  0  0  0  0  0  0
   -0.0094   -3.4699    5.6639 C   0  0  0  0  0  0  0  0  0  0  0  0
    0.6279   -3.1063    4.8564 H   0  0  0  0  0  0  0  0  0  0  0  0
   -0.6267   -4.2803    5.2700 H   0  0  0  0  0  0  0  0  0  0  0  0
    0.8832   -3.9967    6.7904 C   0  0  0  0  0  0  0  0  0  0  0  0
    1.4572   -3.1790    7.2211 H   0  0  0  0  0  0  0  0  0  0  0  0
    1.5740   -4.7373    6.3961 H   0  0  0  0  0  0  0  0  0  0  0  0
    0.2952   -4.4629    7.5771 H   0  0  0  0  0  0  0  0  0  0  0  0
   -1.9002   -2.6926    7.0494 C   0  0  0  0  0  0  0  0  0  0  0  0
   -2.4647   -1.7732    7.2243 H   0  0  0  0  0  0  0  0  0  0  0  0
   -1.4769   -3.0133    8.0117 H   0  0  0  0  0  0  0  0  0  0  0  0
   -2.8668   -3.7576    6.5362 C   0  0  0  0  0  0  0  0  0  0  0  0
   -3.2086   -3.5025    5.5356 H   0  0  0  0  0  0  0  0  0  0  0  0
   -3.7307   -3.8066    7.1941 H   0  0  0  0  0  0  0  0  0  0  0  0
   -2.4071   -4.7418    6.5110 H   0  0  0  0  0  0  0  0  0  0  0  0
    0.1540    2.8141    2.2403 Cl  0  0  0  0  0  0  0  0  0  0  0  0
    0.2997    2.9291    5.5241 Cl  0  0  0  0  0  0  0  0  0  0  0  0
   -3.2909   -1.4313    2.2395 N   0  0  0  0  0  0  0  0  0  0  0  0
   -0.8770   -2.3771    6.0702 N   0  0  0  0  0  0  0  0  0  0  0  0
   -0.4987    1.3708    3.9669 Zr  0  0  0  0  0  0  0  0  0  0  0  0
  1 10  1  6  0  0  0
  1 59  1  0  0  0  0
  1  8  1  0  0  0  0
  2  1  1  0  0  0  0
  2  4  2  0  0  0  0
  3  2  1  0  0  0  0
  4  5  1  0  0  0  0
  4  6  1  0  0  0  0
  6  7  1  0  0  0  0
  8  9  1  0  0  0  0
  8  6  2  0  0  0  0
 10 57  1  0  0  0  0
 11 10  2  0  0  0  0
 12 11  1  0  0  0  0
 13 11  1  0  0  0  0
 14 16  1  0  0  0  0
 14 15  1  0  0  0  0
 17 19  1  0  0  0  0
 17 14  1  0  0  0  0
 18 17  1  0  0  0  0
 20 17  1  0  0  0  0
 21 24  1  0  0  0  0
 21 57  1  0  0  0  0
 22 21  1  0  0  0  0
 23 21  1  0  0  0  0
 24 27  1  0  0  0  0
 24 25  1  0  0  0  0
 26 24  1  0  0  0  0
 28 37  1  1  0  0  0
 29 28  1  0  0  0  0
 29 30  1  0  0  0  0
 31 29  2  0  0  0  0
 32 31  1  0  0  0  0
 33 31  1  0  0  0  0
 33 35  2  0  0  0  0
 34 33  1  0  0  0  0
 35 28  1  0  0  0  0
 36 35  1  0  0  0  0
 37 38  2  0  0  0  0
 38 39  1  0  0  0  0
 40 38  1  0  0  0  0
 41 58  1  0  0  0  0
 41 44  1  0  0  0  0
 42 41  1  0  0  0  0
 43 41  1  0  0  0  0
 44 45  1  0  0  0  0
 44 47  1  0  0  0  0
 46 44  1  0  0  0  0
 48 49  1  0  0  0  0
 48 50  1  0  0  0  0
 51 48  1  0  0  0  0
 51 53  1  0  0  0  0
 52 51  1  0  0  0  0
 54 51  1  0  0  0  0
 55 59  1  0  0  0  0
 57 14  1  0  0  0  0
 58 37  1  0  0  0  0
 58 48  1  0  0  0  0
 59 28  1  0  0  0  0
 59 56  1  0  0  0  0
M  END
$$$$
