CSD_code = HUYYOQ | q = 0 | S = 0 | Stoichiometry = C22H24BrN2O3Re | MND = 6
 OpenBabel04212202053D

 53 56  0  0  1  0  0  0  0  0999 V2000
    6.4194    4.8320   12.0769 Re  0  0  0  0  0  0  0  0  0  0  0  0
    7.3984    3.6212   13.9837 Br  0  0  0  0  0  0  0  0  0  0  0  0
    5.9862    3.4978   11.2084 O   0  0  0  0  0  1  0  0  0  0  0  0
    2.6135    5.8853   14.0431 C   0  0  0  0  0  0  0  0  0  0  0  0
    2.5051    6.8991   14.4232 H   0  0  0  0  0  0  0  0  0  0  0  0
    2.8682    5.2142   14.8592 H   0  0  0  0  0  0  0  0  0  0  0  0
    1.6655    5.5771   13.6067 H   0  0  0  0  0  0  0  0  0  0  0  0
    3.7011    5.8341   12.9916 C   0  0  0  0  0  0  0  0  0  0  0  0
    3.5589    6.6768   11.8968 C   0  0  0  0  0  0  0  0  0  0  0  0
    2.6790    7.3027   11.9003 H   0  0  0  0  0  0  0  0  0  0  0  0
    4.3716    6.7681   10.7589 C   0  0  2  0  0  3  0  0  0  0  0  0
    3.8715    7.6528    9.6443 C   0  0  0  0  0  0  0  0  0  0  0  0
    3.5928    7.0377    8.7893 H   0  0  0  0  0  0  0  0  0  0  0  0
    4.6550    8.3345    9.3165 H   0  0  0  0  0  0  0  0  0  0  0  0
    3.0054    8.2268    9.9593 H   0  0  0  0  0  0  0  0  0  0  0  0
    4.6308    5.0115   13.2216 O   0  0  0  0  0  0  0  0  0  0  0  0
    5.5097    6.1442   10.5895 N   0  0  0  0  0  0  0  0  0  0  0  0
    6.1615    6.2173    9.3453 C   0  0  0  0  0  0  0  0  0  0  0  0
    5.8231    5.3091    8.3440 C   0  0  0  0  0  0  0  0  0  0  0  0
    5.0675    4.5653    8.5496 H   0  0  0  0  0  0  0  0  0  0  0  0
    6.4726    5.3498    7.1237 C   0  0  0  0  0  0  0  0  0  0  0  0
    6.2066    4.6415    6.3532 H   0  0  0  0  0  0  0  0  0  0  0  0
    7.4668    6.2872    6.8923 C   0  0  0  0  0  0  0  0  0  0  0  0
    7.9763    6.3130    5.9410 H   0  0  0  0  0  0  0  0  0  0  0  0
    7.8060    7.1894    7.8863 C   0  0  0  0  0  0  0  0  0  0  0  0
    8.5795    7.9227    7.7109 H   0  0  0  0  0  0  0  0  0  0  0  0
    7.1528    7.1642    9.1052 C   0  0  0  0  0  0  0  0  0  0  0  0
    7.4081    7.8758    9.8777 H   0  0  0  0  0  0  0  0  0  0  0  0
    7.5120    8.6275   13.6683 C   0  0  0  0  0  0  0  0  0  0  0  0
    7.5832    8.3546   14.7211 H   0  0  0  0  0  0  0  0  0  0  0  0
    6.5067    9.0106   13.4953 H   0  0  0  0  0  0  0  0  0  0  0  0
    8.2431    9.3987   13.4476 H   0  0  0  0  0  0  0  0  0  0  0  0
    7.7382    7.3995   12.8302 C   0  0  0  0  0  0  0  0  0  0  0  0
    8.8593    7.2662   12.0428 C   0  0  0  0  0  0  0  0  0  0  0  0
    9.5728    8.0739   12.0267 H   0  0  0  0  0  0  0  0  0  0  0  0
    9.1957    6.0860   11.3280 C   0  0  1  0  0  3  0  0  0  0  0  0
   10.5432    6.0558   10.6639 C   0  0  0  0  0  0  0  0  0  0  0  0
   10.4826    5.5436    9.7058 H   0  0  0  0  0  0  0  0  0  0  0  0
   11.2494    5.5113   11.2894 H   0  0  0  0  0  0  0  0  0  0  0  0
   10.9186    7.0642   10.5158 H   0  0  0  0  0  0  0  0  0  0  0  0
    6.8517    6.4751   12.9013 O   0  0  0  0  0  0  0  0  0  0  0  0
    8.4169    5.0434   11.2517 N   0  0  0  0  0  0  0  0  0  0  0  0
    8.9347    3.8349   10.7109 C   0  0  0  0  0  0  0  0  0  0  0  0
    8.5690    3.4130    9.4382 C   0  0  0  0  0  0  0  0  0  0  0  0
    7.9018    4.0210    8.8496 H   0  0  0  0  0  0  0  0  0  0  0  0
    9.0537    2.2147    8.9467 C   0  0  0  0  0  0  0  0  0  0  0  0
    8.7633    1.8908    7.9585 H   0  0  0  0  0  0  0  0  0  0  0  0
    9.8977    1.4318    9.7161 C   0  0  0  0  0  0  0  0  0  0  0  0
   10.2648    0.4923    9.3312 H   0  0  0  0  0  0  0  0  0  0  0  0
   10.2587    1.8520   10.9848 C   0  0  0  0  0  0  0  0  0  0  0  0
   10.9039    1.2411   11.5972 H   0  0  0  0  0  0  0  0  0  0  0  0
    9.7885    3.0526   11.4837 C   0  0  0  0  0  0  0  0  0  0  0  0
   10.0444    3.3662   12.4841 H   0  0  0  0  0  0  0  0  0  0  0  0
  1 41  1  0  0  0  0
  1 16  1  0  0  0  0
  1  2  1  0  0  0  0
  3  1  1  0  0  0  0
  4  5  1  0  0  0  0
  4  6  1  0  0  0  0
  7  4  1  0  0  0  0
  8 16  1  0  0  0  0
  8  4  1  0  0  0  0
  9 10  1  0  0  0  0
  9  8  2  0  0  0  0
 11 12  1  6  0  0  0
 11  9  1  0  0  0  0
 12 15  1  0  0  0  0
 13 12  1  0  0  0  0
 14 12  1  0  0  0  0
 17 11  1  0  0  0  0
 17  1  1  0  0  0  0
 18 17  1  0  0  0  0
 19 20  1  0  0  0  0
 19 18  2  0  0  0  0
 21 19  1  0  0  0  0
 22 21  1  0  0  0  0
 23 21  2  0  0  0  0
 23 25  1  0  0  0  0
 24 23  1  0  0  0  0
 25 27  2  0  0  0  0
 26 25  1  0  0  0  0
 27 18  1  0  0  0  0
 27 28  1  0  0  0  0
 29 30  1  0  0  0  0
 31 29  1  0  0  0  0
 32 29  1  0  0  0  0
 33 41  1  0  0  0  0
 33 29  1  0  0  0  0
 34 33  2  0  0  0  0
 35 34  1  0  0  0  0
 36 37  1  1  0  0  0
 36 34  1  0  0  0  0
 37 39  1  0  0  0  0
 38 37  1  0  0  0  0
 40 37  1  0  0  0  0
 42 36  1  0  0  0  0
 42  1  1  0  0  0  0
 43 42  1  0  0  0  0
 43 52  1  0  0  0  0
 44 43  2  0  0  0  0
 45 44  1  0  0  0  0
 46 44  1  0  0  0  0
 46 48  2  0  0  0  0
 47 46  1  0  0  0  0
 48 50  1  0  0  0  0
 49 48  1  0  0  0  0
 50 52  2  0  0  0  0
 50 51  1  0  0  0  0
 52 53  1  0  0  0  0
M  END
$$$$
