CSD_code = HUZVOP | q = 0 | S = 0 | Stoichiometry = C15H31Cl2P2V | MND = 9
 OpenBabel04212202053D

 51 47  0  0  1  0  0  0  0  0999 V2000
    4.8406    6.7712   19.8283 V   0  0  0  0  0  0  0  0  0  0  0  0
    3.7777    8.7333   20.3637 Cl  0  0  0  0  0 15  0  0  0  0  0  0
    6.4185    6.3564   21.4467 Cl  0  0  0  0  0 15  0  0  0  0  0  0
    3.5671    6.2415   21.7331 P   0  0  0  0  0  0  0  0  0  0  0  0
    6.4660    8.4325   19.4697 P   0  0  0  0  0  0  0  0  0  0  0  0
    3.7015    6.3072   17.9210 C   0  0  0  0  0  0  0  0  0  0  0  0
    3.5507    5.2824   18.8738 C   0  0  0  0  0  0  0  0  0  0  0  0
    2.6129    4.8468   19.1888 H   0  0  0  0  0  0  0  0  0  0  0  0
    4.8289    4.7550   19.1848 C   0  0  0  0  0  0  0  0  0  0  0  0
    5.0255    3.8710   19.7753 H   0  0  0  0  0  0  0  0  0  0  0  0
    5.7766    5.4721   18.4445 C   0  0  1  0  0  0  0  0  0  0  0  0
    6.8287    5.2354   18.3668 H   0  0  0  0  0  0  0  0  0  0  0  0
    5.0814    6.4406   17.6780 C   0  0  0  0  0  0  0  0  0  0  0  0
    5.5307    7.0540   16.9097 H   0  0  0  0  0  0  0  0  0  0  0  0
    2.5904    7.0196   17.1891 C   0  0  0  0  0  0  0  0  0  0  0  0
    1.3481    7.1576   18.0742 C   0  0  0  0  0  0  0  0  0  0  0  0
    0.9336    6.1846   18.3288 H   0  0  0  0  0  0  0  0  0  0  0  0
    0.5787    7.7214   17.5503 H   0  0  0  0  0  0  0  0  0  0  0  0
    1.6050    7.6893   18.9881 H   0  0  0  0  0  0  0  0  0  0  0  0
    2.2456    6.1802   15.9474 C   0  0  0  0  0  0  0  0  0  0  0  0
    3.1146    6.0795   15.2992 H   0  0  0  0  0  0  0  0  0  0  0  0
    1.4455    6.6544   15.3825 H   0  0  0  0  0  0  0  0  0  0  0  0
    1.9203    5.1824   16.2375 H   0  0  0  0  0  0  0  0  0  0  0  0
    3.0282    8.4212   16.7538 C   0  0  0  0  0  0  0  0  0  0  0  0
    3.3427    8.9948   17.6233 H   0  0  0  0  0  0  0  0  0  0  0  0
    2.1977    8.9399   16.2789 H   0  0  0  0  0  0  0  0  0  0  0  0
    3.8461    8.3756   16.0379 H   0  0  0  0  0  0  0  0  0  0  0  0
    3.7238    4.5358   22.3867 C   0  0  0  0  0  0  0  0  0  0  0  0
    4.7798    4.3119   22.5287 H   0  0  0  0  0  0  0  0  0  0  0  0
    3.2956    3.8300   21.6765 H   0  0  0  0  0  0  0  0  0  0  0  0
    3.2004    4.4535   23.3396 H   0  0  0  0  0  0  0  0  0  0  0  0
    1.7396    6.4260   21.7136 C   0  0  0  0  0  0  0  0  0  0  0  0
    1.3365    6.1459   22.6873 H   0  0  0  0  0  0  0  0  0  0  0  0
    1.3009    5.7914   20.9473 H   0  0  0  0  0  0  0  0  0  0  0  0
    1.4932    7.4649   21.5027 H   0  0  0  0  0  0  0  0  0  0  0  0
    3.9286    7.2026   23.2518 C   0  0  0  0  0  0  0  0  0  0  0  0
    3.2596    6.8696   24.0466 H   0  0  0  0  0  0  0  0  0  0  0  0
    3.7673    8.2622   23.0560 H   0  0  0  0  0  0  0  0  0  0  0  0
    4.9637    7.0441   23.5483 H   0  0  0  0  0  0  0  0  0  0  0  0
    8.1280    7.8664   18.9419 C   0  0  0  0  0  0  0  0  0  0  0  0
    8.8259    8.7041   18.9514 H   0  0  0  0  0  0  0  0  0  0  0  0
    8.0723    7.4530   17.9361 H   0  0  0  0  0  0  0  0  0  0  0  0
    8.4706    7.0972   19.6321 H   0  0  0  0  0  0  0  0  0  0  0  0
    6.1701    9.7789   18.2556 C   0  0  0  0  0  0  0  0  0  0  0  0
    5.2857   10.3368   18.5578 H   0  0  0  0  0  0  0  0  0  0  0  0
    6.0113    9.3674   17.2617 H   0  0  0  0  0  0  0  0  0  0  0  0
    7.0329   10.4454   18.2359 H   0  0  0  0  0  0  0  0  0  0  0  0
    6.9224    9.4571   20.9199 C   0  0  0  0  0  0  0  0  0  0  0  0
    7.3561    8.8250   21.6924 H   0  0  0  0  0  0  0  0  0  0  0  0
    6.0319    9.9470   21.3124 H   0  0  0  0  0  0  0  0  0  0  0  0
    7.6473   10.2092   20.6052 H   0  0  0  0  0  0  0  0  0  0  0  0
  4 28  1  0  0  0  0
  4 36  1  0  0  0  0
  5 48  1  0  0  0  0
  6  7  1  0  0  0  0
  7  9  2  0  0  0  0
  7  8  1  0  0  0  0
  9 10  1  0  0  0  0
 11 12  1  6  0  0  0
 11  9  1  0  0  0  0
 11  1  1  0  0  0  0
 13  6  2  0  0  0  0
 13 11  1  0  0  0  0
 14 13  1  0  0  0  0
 15  6  1  0  0  0  0
 15 16  1  0  0  0  0
 16 17  1  0  0  0  0
 16 19  1  0  0  0  0
 18 16  1  0  0  0  0
 20 23  1  0  0  0  0
 20 15  1  0  0  0  0
 21 20  1  0  0  0  0
 22 20  1  0  0  0  0
 24 15  1  0  0  0  0
 24 25  1  0  0  0  0
 26 24  1  0  0  0  0
 27 24  1  0  0  0  0
 28 29  1  0  0  0  0
 28 31  1  0  0  0  0
 30 28  1  0  0  0  0
 32  4  1  0  0  0  0
 32 33  1  0  0  0  0
 34 32  1  0  0  0  0
 35 32  1  0  0  0  0
 36 39  1  0  0  0  0
 36 37  1  0  0  0  0
 38 36  1  0  0  0  0
 40 41  1  0  0  0  0
 40  5  1  0  0  0  0
 40 43  1  0  0  0  0
 42 40  1  0  0  0  0
 44 45  1  0  0  0  0
 44  5  1  0  0  0  0
 46 44  1  0  0  0  0
 47 44  1  0  0  0  0
 48 50  1  0  0  0  0
 48 49  1  0  0  0  0
 51 48  1  0  0  0  0
M  END
$$$$
