CSD_code = HUZVEF | q = 0 | S = 0 | Stoichiometry = C6H18FeI2P2 | MND = 4
 OpenBabel04212202053D

 29 28  0  0  0  0  0  0  0  0999 V2000
    2.5841    8.7071    2.7658 Fe  0  0  0  0  0  0  0  0  0  0  0  0
    2.8219   11.1349    2.6739 I   0  0  0  0  0  0  0  0  0  0  0  0
    1.1652    7.0090    1.7345 I   0  0  0  0  0  0  0  0  0  0  0  0
    2.3923    8.3195    4.8799 P   0  0  0  0  0  4  0  0  0  0  0  0
    4.5775    7.9797    2.3728 P   0  0  0  0  0  4  0  0  0  0  0  0
    0.6515    8.5607    5.4014 C   0  0  0  0  0  0  0  0  0  0  0  0
    0.0183    7.8337    4.8910 H   0  0  0  0  0  0  0  0  0  0  0  0
    0.3302    9.5668    5.1238 H   0  0  0  0  0  0  0  0  0  0  0  0
    0.5604    8.4351    6.4808 H   0  0  0  0  0  0  0  0  0  0  0  0
    3.2646    9.3661    6.1033 C   0  0  0  0  0  0  0  0  0  0  0  0
    3.0116    9.0444    7.1139 H   0  0  0  0  0  0  0  0  0  0  0  0
    2.9654   10.4042    5.9609 H   0  0  0  0  0  0  0  0  0  0  0  0
    4.3406    9.2921    5.9529 H   0  0  0  0  0  0  0  0  0  0  0  0
    2.7339    6.6458    5.5386 C   0  0  0  0  0  0  0  0  0  0  0  0
    2.4044    6.5792    6.5756 H   0  0  0  0  0  0  0  0  0  0  0  0
    3.8038    6.4473    5.4821 H   0  0  0  0  0  0  0  0  0  0  0  0
    2.2030    5.9086    4.9365 H   0  0  0  0  0  0  0  0  0  0  0  0
    5.1097    8.5047    0.6991 C   0  0  0  0  0  0  0  0  0  0  0  0
    5.1674    9.5935    0.6649 H   0  0  0  0  0  0  0  0  0  0  0  0
    4.3744    8.1660   -0.0339 H   0  0  0  0  0  0  0  0  0  0  0  0
    6.0839    8.0763    0.4608 H   0  0  0  0  0  0  0  0  0  0  0  0
    5.9847    8.5576    3.3917 C   0  0  0  0  0  0  0  0  0  0  0  0
    6.9256    8.2484    2.9361 H   0  0  0  0  0  0  0  0  0  0  0  0
    5.9060    8.1310    4.3912 H   0  0  0  0  0  0  0  0  0  0  0  0
    5.9516    9.6444    3.4646 H   0  0  0  0  0  0  0  0  0  0  0  0
    4.9154    6.1818    2.2921 C   0  0  0  0  0  0  0  0  0  0  0  0
    4.2772    5.7337    1.5309 H   0  0  0  0  0  0  0  0  0  0  0  0
    4.6873    5.7191    3.2513 H   0  0  0  0  0  0  0  0  0  0  0  0
    5.9630    6.0122    2.0419 H   0  0  0  0  0  0  0  0  0  0  0  0
  1  4  1  0  0  0  0
  2  1  1  0  0  0  0
  3  1  1  0  0  0  0
  4  6  1  0  0  0  0
  4 14  1  0  0  0  0
  4 10  1  0  0  0  0
  5  1  1  0  0  0  0
  5 22  1  0  0  0  0
  6  9  1  0  0  0  0
  7  6  1  0  0  0  0
  8  6  1  0  0  0  0
 10 11  1  0  0  0  0
 12 10  1  0  0  0  0
 13 10  1  0  0  0  0
 14 15  1  0  0  0  0
 16 14  1  0  0  0  0
 17 14  1  0  0  0  0
 18  5  1  0  0  0  0
 19 18  1  0  0  0  0
 20 18  1  0  0  0  0
 21 18  1  0  0  0  0
 22 25  1  0  0  0  0
 22 24  1  0  0  0  0
 23 22  1  0  0  0  0
 26  5  1  0  0  0  0
 26 28  1  0  0  0  0
 27 26  1  0  0  0  0
 29 26  1  0  0  0  0
M  END
$$$$
