CSD_code = IBAGEZ | q = 0 | S = 0 | Stoichiometry = C23H28ClF3N4O6Pd | MND = 4
 OpenBabel04212202053D

 66 70  0  0  1  0  0  0  0  0999 V2000
    5.3761    1.8762    7.6908 Pd  0  0  2  0  0  0  0  0  0  0  0  0
    7.3295    1.6673    6.7280 Cl  0  0  0  0  0  0  0  0  0  0  0  0
    4.1870    1.9126    6.0953 C   0  0  0  0  0  0  0  0  0  0  0  0
    4.4965    1.7813    4.7511 C   0  0  0  0  0  0  0  0  0  0  0  0
    5.5341    1.6974    4.4602 H   0  0  0  0  0  0  0  0  0  0  0  0
    3.4978    1.7372    3.7807 C   0  0  0  0  0  0  0  0  0  0  0  0
    2.1346    1.8188    4.1711 C   0  0  0  0  0  0  0  0  0  0  0  0
    1.8202    2.0004    5.5010 C   0  0  0  0  0  0  0  0  0  0  0  0
    0.7878    2.0892    5.7999 H   0  0  0  0  0  0  0  0  0  0  0  0
    2.8277    2.0440    6.4786 C   0  0  0  0  0  0  0  0  0  0  0  0
    2.5757    2.1699    7.8980 C   0  0  0  0  0  0  0  0  0  0  0  0
    4.8880    1.9274   10.5954 C   0  0  2  0  0  3  0  0  0  0  0  0
    7.1582    1.6532   10.4677 C   0  0  0  0  0  0  0  0  0  0  0  0
    8.0385    1.5790    9.8402 H   0  0  0  0  0  0  0  0  0  0  0  0
    7.2304    1.5666   11.8571 C   0  0  0  0  0  0  0  0  0  0  0  0
    8.1621    1.4146   12.3723 H   0  0  0  0  0  0  0  0  0  0  0  0
    6.0256    1.6845   12.5350 C   0  0  0  0  0  0  0  0  0  0  0  0
    1.2240    2.3715    8.5136 C   0  0  0  0  0  0  0  0  0  0  0  0
    0.8458    1.4323    8.9200 H   0  0  0  0  0  0  0  0  0  0  0  0
    0.5167    2.7321    7.7747 H   0  0  0  0  0  0  0  0  0  0  0  0
    1.2717    3.1041    9.3195 H   0  0  0  0  0  0  0  0  0  0  0  0
    5.9522    1.6303   14.0449 C   0  0  0  0  0  0  0  0  0  0  0  0
    5.0268    1.6453    1.9584 C   0  0  0  0  0  0  0  0  0  0  0  0
    5.5868    0.7535    2.2695 H   0  0  0  0  0  0  0  0  0  0  0  0
    5.5427    2.5449    2.3128 H   0  0  0  0  0  0  0  0  0  0  0  0
    4.9350    1.6978    0.4366 C   0  0  0  0  0  0  0  0  0  0  0  0
    5.8875    1.3630   -0.0058 H   0  0  0  0  0  0  0  0  0  0  0  0
    4.1341    1.0216    0.1056 H   0  0  0  0  0  0  0  0  0  0  0  0
    4.3876    3.1558   -1.3255 C   0  0  0  0  0  0  0  0  0  0  0  0
    3.5974    2.4584   -1.6358 H   0  0  0  0  0  0  0  0  0  0  0  0
    5.2978    2.9427   -1.9095 H   0  0  0  0  0  0  0  0  0  0  0  0
    3.9103    4.5797   -1.5947 C   0  0  0  0  0  0  0  0  0  0  0  0
    4.3925    5.2519   -0.8716 H   0  0  0  0  0  0  0  0  0  0  0  0
    4.1982    4.8913   -2.6124 H   0  0  0  0  0  0  0  0  0  0  0  0
    1.9850    5.9253   -1.4833 C   0  0  0  0  0  0  0  0  0  0  0  0
    2.1297    6.3734   -2.4806 H   0  0  0  0  0  0  0  0  0  0  0  0
    2.4840    6.5593   -0.7369 H   0  0  0  0  0  0  0  0  0  0  0  0
    0.4968    5.8623   -1.1569 C   0  0  0  0  0  0  0  0  0  0  0  0
   -0.0115    6.7552   -1.5572 H   0  0  0  0  0  0  0  0  0  0  0  0
    0.0681    4.9689   -1.6321 H   0  0  0  0  0  0  0  0  0  0  0  0
   -0.9831    5.5873    0.6544 C   0  0  0  0  0  0  0  0  0  0  0  0
   -1.4421    4.7685    0.0835 H   0  0  0  0  0  0  0  0  0  0  0  0
   -1.5815    6.5012    0.5050 H   0  0  0  0  0  0  0  0  0  0  0  0
   -0.9732    5.1975    2.1292 C   0  0  0  0  0  0  0  0  0  0  0  0
   -0.1539    5.7328    2.6282 H   0  0  0  0  0  0  0  0  0  0  0  0
   -1.9258    5.4802    2.6062 H   0  0  0  0  0  0  0  0  0  0  0  0
   -0.5248    3.3315    3.5091 C   0  0  0  0  0  0  0  0  0  0  0  0
   -1.4248    3.4360    4.1395 H   0  0  0  0  0  0  0  0  0  0  0  0
    0.2932    3.9027    3.9740 H   0  0  0  0  0  0  0  0  0  0  0  0
   -0.1266    1.8543    3.3904 C   0  0  0  0  0  0  0  0  0  0  0  0
   -0.4544    1.2894    4.2723 H   0  0  0  0  0  0  0  0  0  0  0  0
   -0.6206    1.4497    2.5041 H   0  0  0  0  0  0  0  0  0  0  0  0
    3.6573    2.0696    8.6126 N   0  0  0  0  0  0  0  0  0  0  0  0
    3.7027    2.0947    9.9720 N   0  0  0  0  0  0  0  0  0  0  0  0
    6.0093    1.8310    9.8394 N   0  0  0  0  0  0  0  0  0  0  0  0
    4.8649    1.8666   11.9272 N   0  0  0  0  0  0  0  0  0  0  0  0
    3.7080    1.5964    2.4594 O   0  0  0  0  0  0  0  0  0  0  0  0
    4.6563    3.0194    0.0480 O   0  0  0  0  0  0  0  0  0  0  0  0
    2.5118    4.6234   -1.4570 O   0  0  0  0  0  0  0  0  0  0  0  0
    0.3418    5.8009    0.2385 O   0  0  0  0  0  0  0  0  0  0  0  0
   -0.7825    3.8071    2.2136 O   0  0  0  0  0  0  0  0  0  0  0  0
    1.2442    1.6726    3.1512 O   0  0  0  0  0  0  0  0  0  0  0  0
    5.8536    2.8588   14.5774 F   0  0  0  0  0  0  0  0  0  0  0  0
    4.8998    0.9322   14.4795 F   0  0  0  0  0  0  0  0  0  0  0  0
    7.0435    1.0681   14.5826 F   0  0  0  0  0  0  0  0  0  0  0  0
    2.8647    2.1413   10.5444 H   0  0  0  0  0  0  0  0  0  0  0  0
  1  2  1  6  0  0  0
  1 53  1  0  0  0  0
  1 55  1  0  0  0  0
  3 10  1  0  0  0  0
  3  1  2  0  0  0  0
  4  3  1  0  0  0  0
  5  4  1  0  0  0  0
  6  7  1  0  0  0  0
  6  4  2  0  0  0  0
  7  8  2  0  0  0  0
  8  9  1  0  0  0  0
  8 10  1  0  0  0  0
 10 11  2  0  0  0  0
 11 18  1  0  0  0  0
 11 53  1  0  0  0  0
 12 56  1  6  0  0  0
 13 15  2  0  0  0  0
 14 13  1  0  0  0  0
 15 16  1  0  0  0  0
 15 17  1  0  0  0  0
 17 22  1  0  0  0  0
 18 19  1  0  0  0  0
 18 21  1  0  0  0  0
 20 18  1  0  0  0  0
 22 64  1  0  0  0  0
 22 63  1  0  0  0  0
 22 65  1  0  0  0  0
 23 24  1  0  0  0  0
 23 25  1  0  0  0  0
 23 57  1  0  0  0  0
 26 23  1  0  0  0  0
 27 26  1  0  0  0  0
 28 26  1  0  0  0  0
 29 58  1  0  0  0  0
 30 29  1  0  0  0  0
 31 29  1  0  0  0  0
 32 59  1  0  0  0  0
 32 29  1  0  0  0  0
 32 33  1  0  0  0  0
 34 32  1  0  0  0  0
 35 59  1  0  0  0  0
 35 38  1  0  0  0  0
 35 37  1  0  0  0  0
 36 35  1  0  0  0  0
 38 60  1  0  0  0  0
 39 38  1  0  0  0  0
 40 38  1  0  0  0  0
 41 44  1  0  0  0  0
 42 41  1  0  0  0  0
 43 41  1  0  0  0  0
 44 61  1  0  0  0  0
 44 46  1  0  0  0  0
 44 45  1  0  0  0  0
 47 49  1  0  0  0  0
 47 48  1  0  0  0  0
 50 47  1  0  0  0  0
 50 51  1  0  0  0  0
 52 50  1  0  0  0  0
 53 54  1  0  0  0  0
 54 66  1  0  0  0  0
 54 12  1  0  0  0  0
 55 13  1  0  0  0  0
 55 12  1  0  0  0  0
 56 17  2  0  0  0  0
 57  6  1  0  0  0  0
 58 26  1  0  0  0  0
 60 41  1  0  0  0  0
 61 47  1  0  0  0  0
 62 50  1  0  0  0  0
 62  7  1  0  0  0  0
M  END
$$$$
