CSD_code = IBAGEA | q = 0 | S = 0 | Stoichiometry = C8H12Cl2N4O2PdS2 | MND = 4
 OpenBabel04212202053D

 31 32  0  0  1  0  0  0  0  0999 V2000
    0.0005    3.8016   -0.0003 Pd  0  0  0  0  0  0  0  0  0  0  0  0
   -0.2481    4.4362    2.2104 Cl  0  0  0  0  0  0  0  0  0  0  0  0
    2.3233    4.0608    0.2616 S   0  0  0  0  0  0  0  0  0  0  0  0
    5.1316    0.4236    1.8264 O   0  0  0  0  0  0  0  0  0  0  0  0
    2.6119    2.4125    0.3682 C   0  0  1  0  0  3  0  0  0  0  0  0
    1.7447    1.4943   -0.0638 N   0  0  0  0  0  0  0  0  0  0  0  0
    1.0371    1.8346   -0.7571 H   0  0  0  0  0  0  0  0  0  0  0  0
    2.1291    0.0978   -0.1107 C   0  0  0  0  0  0  0  0  0  0  0  0
    1.2207   -0.5027   -0.1809 H   0  0  0  0  0  0  0  0  0  0  0  0
    2.7431   -0.0933   -1.0010 H   0  0  0  0  0  0  0  0  0  0  0  0
    2.9094   -0.2492    1.1513 C   0  0  0  0  0  0  0  0  0  0  0  0
    3.2809   -1.2724    1.1230 H   0  0  0  0  0  0  0  0  0  0  0  0
    2.2632   -0.1435    2.0280 H   0  0  0  0  0  0  0  0  0  0  0  0
    4.0705    0.6997    1.3372 C   0  0  0  0  0  0  0  0  0  0  0  0
    3.7892    1.9908    0.9211 N   0  0  0  0  0  0  0  0  0  0  0  0
    4.4684    2.7070    1.1544 H   0  0  0  0  0  0  0  0  0  0  0  0
    0.2465    3.1655   -2.2105 Cl  0  0  0  0  0  0  0  0  0  0  0  0
   -2.3230    3.5416   -0.2608 S   0  0  0  0  0  0  0  0  0  0  0  0
   -5.1312    7.1784   -1.8271 O   0  0  0  0  0  0  0  0  0  0  0  0
   -2.6117    5.1899   -0.3681 C   0  0  2  0  0  3  0  0  0  0  0  0
   -1.7448    6.1081    0.0642 N   0  0  0  0  0  0  0  0  0  0  0  0
   -1.0373    5.7679    0.7577 H   0  0  0  0  0  0  0  0  0  0  0  0
   -2.1294    7.5046    0.1109 C   0  0  0  0  0  0  0  0  0  0  0  0
   -1.2210    8.1052    0.1813 H   0  0  0  0  0  0  0  0  0  0  0  0
   -2.7436    7.6958    1.0009 H   0  0  0  0  0  0  0  0  0  0  0  0
   -2.9092    7.8515   -1.1514 C   0  0  0  0  0  0  0  0  0  0  0  0
   -3.2809    8.8746   -1.1234 H   0  0  0  0  0  0  0  0  0  0  0  0
   -2.2627    7.7456   -2.0279 H   0  0  0  0  0  0  0  0  0  0  0  0
   -4.0701    6.9024   -1.3378 C   0  0  0  0  0  0  0  0  0  0  0  0
   -3.7890    5.6114   -0.9213 N   0  0  0  0  0  0  0  0  0  0  0  0
   -4.4682    4.8952   -1.1545 H   0  0  0  0  0  0  0  0  0  0  0  0
  1  3  1  0  0  0  0
  1  2  1  0  0  0  0
  5  3  1  6  0  0  0
  5 15  1  0  0  0  0
  6  5  1  0  0  0  0
  7  6  1  0  0  0  0
  8  6  1  0  0  0  0
  8 11  1  0  0  0  0
  9  8  1  0  0  0  0
 10  8  1  0  0  0  0
 11 14  1  0  0  0  0
 11 13  1  0  0  0  0
 12 11  1  0  0  0  0
 14  4  2  0  0  0  0
 15 16  1  0  0  0  0
 15 14  1  0  0  0  0
 17  1  1  0  0  0  0
 18  1  1  0  0  0  0
 19 29  2  0  0  0  0
 20 18  1  1  0  0  0
 20 21  1  0  0  0  0
 21 23  1  0  0  0  0
 21 22  1  0  0  0  0
 23 24  1  0  0  0  0
 23 25  1  0  0  0  0
 26 27  1  0  0  0  0
 26 23  1  0  0  0  0
 28 26  1  0  0  0  0
 29 26  1  0  0  0  0
 29 30  1  0  0  0  0
 30 20  1  0  0  0  0
 31 30  1  0  0  0  0
M  END
$$$$
