CSD_code = IBAKAA | q = 0 | S = 0 | Stoichiometry = C14H20Cl2NO3RhS2 | MND = 6
 OpenBabel04212202053D

 43 45  0  0  1  0  0  0  0  0999 V2000
    0.9322    5.9723    3.4189 Rh  0  0  0  0  0  0  0  0  0  0  0  0
   -0.4210    5.2769    1.6877 S   0  0  0  0  0  0  0  0  0  0  0  0
    2.2492    6.7527    5.0985 Cl  0  0  0  0  0  0  0  0  0  0  0  0
    2.7474    6.1870    2.1232 S   0  0  0  0  0  0  0  0  0  0  0  0
    0.3010    7.8488    2.9274 O   0  0  0  0  0  0  0  0  0  0  0  0
    2.5564    5.7450    0.7466 O   0  0  0  0  0  1  0  0  0  0  0  0
   -0.7345    6.0363    4.6229 N   0  0  0  0  0  0  0  0  0  0  0  0
   -2.8708    9.4458    3.6443 C   0  0  0  0  0  0  0  0  0  0  0  0
   -3.4048   10.3439    3.3708 H   0  0  0  0  0  0  0  0  0  0  0  0
   -0.8866    8.0835    3.4175 C   0  0  0  0  0  0  0  0  0  0  0  0
   -3.4390    8.5522    4.5168 C   0  0  0  0  0  0  0  0  0  0  0  0
   -4.4151    8.7309    4.9400 H   0  0  0  0  0  0  0  0  0  0  0  0
   -1.4676    7.1425    4.3165 C   0  0  2  0  0  3  0  0  0  0  0  0
   -1.6084    9.2277    3.0986 C   0  0  0  0  0  0  0  0  0  0  0  0
   -1.1683    9.9473    2.4255 H   0  0  0  0  0  0  0  0  0  0  0  0
   -2.7431    7.3865    4.8782 C   0  0  0  0  0  0  0  0  0  0  0  0
    0.0683    3.7706    0.8000 C   0  0  0  0  0  0  0  0  0  0  0  0
    1.0520    3.9493    0.3819 H   0  0  0  0  0  0  0  0  0  0  0  0
    0.1041    2.9557    1.5146 H   0  0  0  0  0  0  0  0  0  0  0  0
   -0.6729    3.5770    0.0338 H   0  0  0  0  0  0  0  0  0  0  0  0
   -1.1766    5.1825    5.5268 C   0  0  0  0  0  0  0  0  0  0  0  0
   -2.4484    5.3573    6.1130 C   0  0  0  0  0  0  0  0  0  0  0  0
   -2.7861    4.6203    6.8249 H   0  0  0  0  0  0  0  0  0  0  0  0
    4.2973    5.4563    2.7131 C   0  0  0  0  0  0  0  0  0  0  0  0
    4.1898    4.3773    2.6886 H   0  0  0  0  0  0  0  0  0  0  0  0
    5.0934    5.7804    2.0535 H   0  0  0  0  0  0  0  0  0  0  0  0
    4.4446    5.7941    3.7327 H   0  0  0  0  0  0  0  0  0  0  0  0
   -0.3303    4.0364    5.9575 C   0  0  0  0  0  0  0  0  0  0  0  0
   -0.3450    3.2490    5.2045 H   0  0  0  0  0  0  0  0  0  0  0  0
    0.7050    4.3550    6.0746 H   0  0  0  0  0  0  0  0  0  0  0  0
   -0.6921    3.6289    6.8974 H   0  0  0  0  0  0  0  0  0  0  0  0
   -3.2315    6.4240    5.7845 C   0  0  0  0  0  0  0  0  0  0  0  0
   -4.2114    6.5538    6.2203 H   0  0  0  0  0  0  0  0  0  0  0  0
    3.2692    7.9211    2.0528 C   0  0  0  0  0  0  0  0  0  0  0  0
    2.4040    8.5101    1.7674 H   0  0  0  0  0  0  0  0  0  0  0  0
    3.5935    8.2033    3.0475 H   0  0  0  0  0  0  0  0  0  0  0  0
    4.0627    8.0176    1.3210 H   0  0  0  0  0  0  0  0  0  0  0  0
   -0.4331    6.4155    0.2708 C   0  0  0  0  0  0  0  0  0  0  0  0
   -0.6993    7.4019    0.6339 H   0  0  0  0  0  0  0  0  0  0  0  0
    0.5639    6.4171   -0.1532 H   0  0  0  0  0  0  0  0  0  0  0  0
   -1.1749    6.0608   -0.4347 H   0  0  0  0  0  0  0  0  0  0  0  0
   -1.8076    5.1036    2.0932 O   0  0  0  0  0  1  0  0  0  0  0  0
    1.7060    3.8090    3.5853 Cl  0  0  0  0  0  0  0  0  0  0  0  0
  1 43  1  0  0  0  0
  1  7  1  0  0  0  0
  1  3  1  0  0  0  0
  2 42  1  0  0  0  0
  2  1  1  0  0  0  0
  4 24  1  0  0  0  0
  4  1  1  0  0  0  0
  5 10  1  0  0  0  0
  5  1  1  0  0  0  0
  6  4  1  0  0  0  0
  7 21  1  0  0  0  0
  8 11  2  0  0  0  0
  9  8  1  0  0  0  0
 11 16  1  0  0  0  0
 11 12  1  0  0  0  0
 13 10  1  1  0  0  0
 13  7  1  0  0  0  0
 13 16  1  0  0  0  0
 14 10  2  0  0  0  0
 14  8  1  0  0  0  0
 15 14  1  0  0  0  0
 16 32  2  0  0  0  0
 17 19  1  0  0  0  0
 17  2  1  0  0  0  0
 18 17  1  0  0  0  0
 20 17  1  0  0  0  0
 21 28  1  0  0  0  0
 21 22  2  0  0  0  0
 22 23  1  0  0  0  0
 24 27  1  0  0  0  0
 25 24  1  0  0  0  0
 26 24  1  0  0  0  0
 28 30  1  0  0  0  0
 28 31  1  0  0  0  0
 29 28  1  0  0  0  0
 32 22  1  0  0  0  0
 32 33  1  0  0  0  0
 34  4  1  0  0  0  0
 34 36  1  0  0  0  0
 35 34  1  0  0  0  0
 37 34  1  0  0  0  0
 38 39  1  0  0  0  0
 38  2  1  0  0  0  0
 40 38  1  0  0  0  0
 41 38  1  0  0  0  0
M  END
$$$$
