CSD_code = IBAWEQ | q = 0 | S = 0 | Stoichiometry = C20H21ClO6Ti | MND = 6
 OpenBabel04212202053D

 49 52  0  0  1  0  0  0  0  0999 V2000
    6.7170    3.8683    8.4959 Ti  0  0  0  0  0  0  0  0  0  0  0  0
    8.1974    5.5595    8.6008 Cl  0  0  0  0  0  0  0  0  0  0  0  0
    5.4451    2.4135    8.2576 O   0  0  0  0  0  0  0  0  0  0  0  0
    5.3182    4.9843    9.0934 O   0  0  0  0  0  0  0  0  0  0  0  0
    6.3111    4.4474    6.7181 O   0  0  0  0  0  0  0  0  0  0  0  0
    8.0688    2.7635    7.7207 O   0  0  0  0  0  0  0  0  0  0  0  0
    7.0737    3.3328   10.0776 O   0  0  0  0  0  0  0  0  0  0  0  0
    9.7419    2.6795   10.0552 O   0  0  0  0  0  0  0  0  0  0  0  0
    9.1017    2.7507    9.3200 H   0  0  0  0  0  0  0  0  0  0  0  0
    3.8680    0.8629    9.1279 C   0  0  0  0  0  0  0  0  0  0  0  0
    4.3300    0.2191    8.3833 H   0  0  0  0  0  0  0  0  0  0  0  0
    2.7941    0.9066    8.9629 H   0  0  0  0  0  0  0  0  0  0  0  0
    4.0439    0.4468   10.1183 H   0  0  0  0  0  0  0  0  0  0  0  0
    4.4763    2.2442    9.0502 C   0  0  0  0  0  0  0  0  0  0  0  0
    3.9100    3.2562    9.8360 C   0  0  0  0  0  0  0  0  0  0  0  0
    3.0677    3.0078   10.4633 H   0  0  0  0  0  0  0  0  0  0  0  0
    4.3431    4.5848    9.7943 C   0  0  2  0  0  3  0  0  0  0  0  0
    3.6021    5.6180   10.6090 C   0  0  0  0  0  0  0  0  0  0  0  0
    3.8007    5.4560   11.6674 H   0  0  0  0  0  0  0  0  0  0  0  0
    2.5294    5.5415   10.4487 H   0  0  0  0  0  0  0  0  0  0  0  0
    3.9513    6.6111   10.3343 H   0  0  0  0  0  0  0  0  0  0  0  0
    6.7120    5.4627    4.6051 C   0  0  0  0  0  0  0  0  0  0  0  0
    6.9264    4.9977    3.6469 H   0  0  0  0  0  0  0  0  0  0  0  0
    7.2904    6.3826    4.6781 H   0  0  0  0  0  0  0  0  0  0  0  0
    5.6551    5.7081    4.6774 H   0  0  0  0  0  0  0  0  0  0  0  0
    7.1072    4.5626    5.7474 C   0  0  0  0  0  0  0  0  0  0  0  0
    8.3454    3.9023    5.6828 C   0  0  0  0  0  0  0  0  0  0  0  0
    8.9846    4.0776    4.8330 H   0  0  0  0  0  0  0  0  0  0  0  0
    8.7717    3.0440    6.6893 C   0  0  1  0  0  3  0  0  0  0  0  0
   10.1287    2.4009    6.6081 C   0  0  0  0  0  0  0  0  0  0  0  0
   10.7983    2.9567    7.2660 H   0  0  0  0  0  0  0  0  0  0  0  0
   10.5255    2.4188    5.5987 H   0  0  0  0  0  0  0  0  0  0  0  0
   10.0782    1.3787    6.9783 H   0  0  0  0  0  0  0  0  0  0  0  0
    7.7405    3.3462   11.2270 C   0  0  0  0  0  0  0  0  0  0  0  0
    9.1368    3.0223   11.2179 C   0  0  0  0  0  0  0  0  0  0  0  0
    9.8448    3.0443   12.3892 C   0  0  0  0  0  0  0  0  0  0  0  0
   10.8964    2.8033   12.3675 H   0  0  0  0  0  0  0  0  0  0  0  0
    9.2266    3.3739   13.6127 C   0  0  0  0  0  0  0  0  0  0  0  0
    9.9413    3.3994   14.8265 C   0  0  0  0  0  0  0  0  0  0  0  0
   10.9955    3.1631   14.8110 H   0  0  0  0  0  0  0  0  0  0  0  0
    9.3181    3.7178   16.0021 C   0  0  0  0  0  0  0  0  0  0  0  0
    9.8755    3.7357   16.9274 H   0  0  0  0  0  0  0  0  0  0  0  0
    7.9498    4.0245   16.0170 C   0  0  0  0  0  0  0  0  0  0  0  0
    7.4715    4.2739   16.9532 H   0  0  0  0  0  0  0  0  0  0  0  0
    7.2278    4.0089   14.8555 C   0  0  0  0  0  0  0  0  0  0  0  0
    6.1730    4.2456   14.8623 H   0  0  0  0  0  0  0  0  0  0  0  0
    7.8409    3.6860   13.6279 C   0  0  0  0  0  0  0  0  0  0  0  0
    7.1235    3.6607   12.4168 C   0  0  0  0  0  0  0  0  0  0  0  0
    6.0666    3.8970   12.4069 H   0  0  0  0  0  0  0  0  0  0  0  0
  1  2  1  0  0  0  0
  1  4  1  0  0  0  0
  1  7  1  0  0  0  0
  3  1  1  0  0  0  0
  3 14  1  0  0  0  0
  4 17  1  0  0  0  0
  5  1  1  0  0  0  0
  6  1  1  0  0  0  0
  7 34  1  0  0  0  0
  8 35  1  0  0  0  0
  9  8  1  0  0  0  0
 10 13  1  0  0  0  0
 11 10  1  0  0  0  0
 12 10  1  0  0  0  0
 14 10  1  0  0  0  0
 14 15  2  0  0  0  0
 15 16  1  0  0  0  0
 17 15  1  0  0  0  0
 17 18  1  6  0  0  0
 18 19  1  0  0  0  0
 20 18  1  0  0  0  0
 21 18  1  0  0  0  0
 22 25  1  0  0  0  0
 22 24  1  0  0  0  0
 22 26  1  0  0  0  0
 23 22  1  0  0  0  0
 26  5  1  0  0  0  0
 27 26  2  0  0  0  0
 27 29  1  0  0  0  0
 28 27  1  0  0  0  0
 29 30  1  1  0  0  0
 29  6  1  0  0  0  0
 30 33  1  0  0  0  0
 30 31  1  0  0  0  0
 32 30  1  0  0  0  0
 34 48  1  0  0  0  0
 35 34  2  0  0  0  0
 35 36  1  0  0  0  0
 36 38  2  0  0  0  0
 37 36  1  0  0  0  0
 38 47  1  0  0  0  0
 38 39  1  0  0  0  0
 39 41  2  0  0  0  0
 40 39  1  0  0  0  0
 41 43  1  0  0  0  0
 41 42  1  0  0  0  0
 43 44  1  0  0  0  0
 45 46  1  0  0  0  0
 45 43  2  0  0  0  0
 47 45  1  0  0  0  0
 48 47  2  0  0  0  0
 49 48  1  0  0  0  0
M  END
$$$$
