CSD_code = IBEWEU | q = 0 | S = 0 | Stoichiometry = C30H28Cl2F3N2PPd | MND = 4
 OpenBabel04212202053D

 67 73  0  0  1  0  0  0  0  0999 V2000
    1.2037    3.8305    3.4964 Pd  0  0  0  0  0  0  0  0  0  0  0  0
    0.1796    3.4414    1.5784 Cl  0  0  0  0  0  0  0  0  0  0  0  0
    1.2960    1.6220    3.9702 Cl  0  0  0  0  0  0  0  0  0  0  0  0
    1.7667    5.9856    3.1394 P   0  0  0  0  0  4  0  0  0  0  0  0
    2.0684    4.1828    5.3062 N   0  0  0  0  0  0  0  0  0  0  0  0
    3.2828    4.7108    5.5051 N   0  0  0  0  0  0  0  0  0  0  0  0
   -0.5771    3.6136    5.4805 F   0  0  0  0  0  0  0  0  0  0  0  0
    0.0058    2.1285    6.9534 F   0  0  0  0  0  0  0  0  0  0  0  0
   -0.5218    4.1074    7.5756 F   0  0  0  0  0  0  0  0  0  0  0  0
    1.5886    6.9947    1.6440 C   0  0  0  0  0  0  0  0  0  0  0  0
    1.6433    6.3106    0.4295 C   0  0  0  0  0  0  0  0  0  0  0  0
    1.7735    5.2351    0.4343 H   0  0  0  0  0  0  0  0  0  0  0  0
    1.4953    7.0052   -0.7563 C   0  0  0  0  0  0  0  0  0  0  0  0
    1.5356    6.4768   -1.6967 H   0  0  0  0  0  0  0  0  0  0  0  0
    1.2812    8.3749   -0.7353 C   0  0  0  0  0  0  0  0  0  0  0  0
    1.1591    8.9165   -1.6617 H   0  0  0  0  0  0  0  0  0  0  0  0
    1.2077    9.0507    0.4721 C   0  0  0  0  0  0  0  0  0  0  0  0
    1.0275   10.1158    0.4861 H   0  0  0  0  0  0  0  0  0  0  0  0
    1.3566    8.3657    1.6652 C   0  0  0  0  0  0  0  0  0  0  0  0
    1.2880    8.8933    2.6060 H   0  0  0  0  0  0  0  0  0  0  0  0
    1.3862    7.1069    4.5217 C   0  0  0  0  0  0  0  0  0  0  0  0
    2.2592    8.0972    4.9608 C   0  0  0  0  0  0  0  0  0  0  0  0
    3.2209    8.2179    4.4789 H   0  0  0  0  0  0  0  0  0  0  0  0
    1.8863    8.9228    6.0065 C   0  0  0  0  0  0  0  0  0  0  0  0
    2.5580    9.6980    6.3452 H   0  0  0  0  0  0  0  0  0  0  0  0
    0.6538    8.7571    6.6203 C   0  0  0  0  0  0  0  0  0  0  0  0
    0.3715    9.4026    7.4382 H   0  0  0  0  0  0  0  0  0  0  0  0
   -0.2127    7.7633    6.1927 C   0  0  0  0  0  0  0  0  0  0  0  0
   -1.1675    7.6300    6.6777 H   0  0  0  0  0  0  0  0  0  0  0  0
    0.1518    6.9401    5.1425 C   0  0  0  0  0  0  0  0  0  0  0  0
   -0.5127    6.1587    4.7840 H   0  0  0  0  0  0  0  0  0  0  0  0
    3.5812    5.7656    3.3092 C   0  0  0  0  0  0  0  0  0  0  0  0
    4.4588    6.1260    2.2903 C   0  0  0  0  0  0  0  0  0  0  0  0
    4.0722    6.6511    1.4289 H   0  0  0  0  0  0  0  0  0  0  0  0
    5.8060    5.8180    2.3606 C   0  0  0  0  0  0  0  0  0  0  0  0
    6.4645    6.1107    1.5574 H   0  0  0  0  0  0  0  0  0  0  0  0
    6.3016    5.1134    3.4444 C   0  0  0  0  0  0  0  0  0  0  0  0
    7.3439    4.8384    3.4873 H   0  0  0  0  0  0  0  0  0  0  0  0
    5.4501    4.7440    4.4703 C   0  0  0  0  0  0  0  0  0  0  0  0
    5.8153    4.1607    5.3010 H   0  0  0  0  0  0  0  0  0  0  0  0
    4.1049    5.0824    4.4203 C   0  0  0  0  0  0  0  0  0  0  0  0
    3.5345    4.7706    6.8259 C   0  0  2  0  0  3  0  0  0  0  0  0
    4.5574    5.1615    7.8522 C   0  0  2  0  0  0  0  0  0  0  0  0
    5.6213    6.1709    7.4776 C   0  0  0  0  0  0  0  0  0  0  0  0
    6.3437    5.7505    6.7835 H   0  0  0  0  0  0  0  0  0  0  0  0
    6.1557    6.4882    8.3695 H   0  0  0  0  0  0  0  0  0  0  0  0
    5.1682    7.0440    7.0132 H   0  0  0  0  0  0  0  0  0  0  0  0
    5.0710    3.7860    8.3626 C   0  0  0  0  0  0  0  0  0  0  0  0
    5.9250    3.9270    9.0227 H   0  0  0  0  0  0  0  0  0  0  0  0
    5.3945    3.1569    7.5338 H   0  0  0  0  0  0  0  0  0  0  0  0
    3.8604    3.1785    9.1012 C   0  0  0  0  0  0  0  0  0  0  0  0
    3.5422    2.2368    8.6566 H   0  0  0  0  0  0  0  0  0  0  0  0
    4.0750    2.9983   10.1524 H   0  0  0  0  0  0  0  0  0  0  0  0
    2.7608    4.2550    8.9500 C   0  0  1  0  0  0  0  0  0  0  0  0
    1.9274    4.1615    9.6392 H   0  0  0  0  0  0  0  0  0  0  0  0
    3.5854    5.5688    9.0175 C   0  0  0  0  0  0  0  0  0  0  0  0
    4.2621    5.8026   10.3644 C   0  0  0  0  0  0  0  0  0  0  0  0
    4.7961    6.7500   10.3549 H   0  0  0  0  0  0  0  0  0  0  0  0
    4.9622    5.0205   10.6329 H   0  0  0  0  0  0  0  0  0  0  0  0
    3.5016    5.8563   11.1401 H   0  0  0  0  0  0  0  0  0  0  0  0
    2.7443    6.8051    8.7059 C   0  0  0  0  0  0  0  0  0  0  0  0
    2.0044    6.9490    9.4896 H   0  0  0  0  0  0  0  0  0  0  0  0
    2.2176    6.7177    7.7599 H   0  0  0  0  0  0  0  0  0  0  0  0
    3.3738    7.6909    8.6672 H   0  0  0  0  0  0  0  0  0  0  0  0
    2.4358    4.2468    7.4933 C   0  0  0  0  0  0  0  0  0  0  0  0
    1.5347    3.8897    6.4967 C   0  0  0  0  0  0  0  0  0  0  0  0
    0.1289    3.4081    6.6179 C   0  0  0  0  0  0  0  0  0  0  0  0
  1  3  1  0  0  0  0
  1  5  1  0  0  0  0
  2  1  1  0  0  0  0
  4 32  1  0  0  0  0
  4  1  1  0  0  0  0
  4 21  1  0  0  0  0
  5  6  1  0  0  0  0
  5 66  1  0  0  0  0
  6 42  1  0  0  0  0
  7 67  1  0  0  0  0
 10 19  1  0  0  0  0
 10  4  1  0  0  0  0
 11 12  1  0  0  0  0
 11 10  2  0  0  0  0
 13 15  2  0  0  0  0
 13 11  1  0  0  0  0
 14 13  1  0  0  0  0
 15 17  1  0  0  0  0
 16 15  1  0  0  0  0
 17 18  1  0  0  0  0
 17 19  2  0  0  0  0
 19 20  1  0  0  0  0
 21 22  2  0  0  0  0
 21 30  1  0  0  0  0
 22 24  1  0  0  0  0
 23 22  1  0  0  0  0
 24 25  1  0  0  0  0
 24 26  2  0  0  0  0
 26 27  1  0  0  0  0
 28 26  1  0  0  0  0
 28 29  1  0  0  0  0
 30 28  2  0  0  0  0
 31 30  1  0  0  0  0
 32 41  1  0  0  0  0
 33 35  1  0  0  0  0
 33 32  2  0  0  0  0
 34 33  1  0  0  0  0
 35 37  2  0  0  0  0
 36 35  1  0  0  0  0
 37 38  1  0  0  0  0
 37 39  1  0  0  0  0
 39 40  1  0  0  0  0
 41 39  2  0  0  0  0
 41  6  1  0  0  0  0
 42 65  1  6  0  0  0
 42 43  1  0  0  0  0
 43 44  1  6  0  0  0
 43 48  1  0  0  0  0
 43 56  1  0  0  0  0
 44 46  1  0  0  0  0
 45 44  1  0  0  0  0
 47 44  1  0  0  0  0
 48 49  1  0  0  0  0
 48 51  1  0  0  0  0
 50 48  1  0  0  0  0
 51 53  1  0  0  0  0
 52 51  1  0  0  0  0
 54 56  1  0  0  0  0
 54 51  1  0  0  0  0
 54 55  1  1  0  0  0
 56 57  1  0  0  0  0
 57 59  1  0  0  0  0
 57 60  1  0  0  0  0
 58 57  1  0  0  0  0
 61 56  1  0  0  0  0
 61 62  1  0  0  0  0
 63 61  1  0  0  0  0
 64 61  1  0  0  0  0
 65 54  1  0  0  0  0
 66 67  1  0  0  0  0
 66 65  2  0  0  0  0
 67  8  1  0  0  0  0
 67  9  1  0  0  0  0
M  END
$$$$
