CSD_code = IBIDEC | q = 1 | S = 0 | Stoichiometry = C9H15ClN7Pd(1+) | MND = 4
 OpenBabel04212202053D

 33 36  0  0  1  0  0  0  0  0999 V2000
    0.4962    2.9966    3.5572 Pd  0  0  1  0  0  0  0  0  0  0  0  0
   -1.5597    2.4122    4.1702 Cl  0  0  0  0  0  0  0  0  0  0  0  0
    1.2905    1.5339    4.6366 N   0  0  0  0  0  0  0  0  0  0  0  0
    1.0151    1.3224    5.9306 C   0  0  0  0  0  3  0  0  0  0  0  0
    0.2561    1.9532    6.3832 H   0  0  0  0  0  0  0  0  0  0  0  0
    1.5696    0.4302    6.7072 N   0  0  0  0  0  0  0  0  0  0  0  0
    2.5113   -0.4081    6.2435 C   0  0  0  0  0  0  0  0  0  0  0  0
    2.8822   -0.2797    4.8850 C   0  0  0  0  0  0  0  0  0  0  0  0
    3.7746   -0.9370    4.0858 N   0  0  0  0  0  0  0  0  0  0  0  0
    3.6649   -0.3886    2.9199 C   0  0  0  0  0  0  0  0  0  0  0  0
    4.2298   -0.6875    2.0596 H   0  0  0  0  0  0  0  0  0  0  0  0
    2.7396    0.6269    2.8702 N   0  0  0  0  0  0  0  0  0  0  0  0
    2.2254    0.7084    4.1332 C   0  0  0  0  0  0  0  0  0  0  0  0
    3.0449   -1.2982    7.0690 N   0  0  0  0  0  0  0  0  0  0  0  0
    2.7139   -1.3465    8.0186 H   0  0  0  0  0  0  0  0  0  0  0  0
    3.7336   -1.9483    6.7292 H   0  0  0  0  0  0  0  0  0  0  0  0
    2.3519    1.4007    1.7176 C   0  0  0  0  0  0  0  0  0  0  0  0
    1.2436    1.5049    1.7126 H   0  0  0  0  0  0  0  0  0  0  0  0
    2.6612    0.8505    0.8258 H   0  0  0  0  0  0  0  0  0  0  0  0
    2.9989    2.7981    1.6970 C   0  0  0  0  0  0  0  0  0  0  0  0
    4.0823    2.6911    1.8195 H   0  0  0  0  0  0  0  0  0  0  0  0
    2.8115    3.2342    0.7129 H   0  0  0  0  0  0  0  0  0  0  0  0
    2.4384    3.6844    2.7325 N   0  0  1  0  0  4  0  0  0  0  0  0
    3.0955    3.7500    3.5092 H   0  0  0  0  0  0  0  0  0  0  0  0
    2.1216    5.0453    2.2604 C   0  0  0  0  0  0  0  0  0  0  0  0
    2.8958    5.4242    1.5823 H   0  0  0  0  0  0  0  0  0  0  0  0
    2.0756    5.7062    3.1327 H   0  0  0  0  0  0  0  0  0  0  0  0
    0.7578    5.0584    1.5567 C   0  0  0  0  0  0  0  0  0  0  0  0
    0.5455    6.0722    1.1964 H   0  0  0  0  0  0  0  0  0  0  0  0
    0.7734    4.3850    0.6934 H   0  0  0  0  0  0  0  0  0  0  0  0
   -0.2710    4.5835    2.4946 N   0  0  0  0  0  4  0  0  0  0  0  0
   -1.1434    4.3436    2.0164 H   0  0  0  0  0  0  0  0  0  0  0  0
   -0.5041    5.3083    3.1823 H   0  0  0  0  0  0  0  0  0  0  0  0
  1  2  1  6  0  0  0
  1  3  1  0  0  0  0
  3  4  1  0  0  0  0
  4  5  1  0  0  0  0
  4  6  1  0  0  0  0
  7  6  2  0  0  0  0
  7 14  1  0  0  0  0
  8  7  1  0  0  0  0
  9  8  1  0  0  0  0
 10  9  2  0  0  0  0
 11 10  1  0  0  0  0
 12 10  1  0  0  0  0
 12 13  1  0  0  0  0
 13  3  1  0  0  0  0
 13  8  2  0  0  0  0
 14 15  1  0  0  0  0
 16 14  1  0  0  0  0
 17 12  1  0  0  0  0
 18 17  1  0  0  0  0
 19 17  1  0  0  0  0
 20 17  1  0  0  0  0
 20 21  1  0  0  0  0
 20 23  1  0  0  0  0
 22 20  1  0  0  0  0
 23 24  1  1  0  0  0
 23  1  1  0  0  0  0
 25 23  1  0  0  0  0
 25 27  1  0  0  0  0
 26 25  1  0  0  0  0
 28 25  1  0  0  0  0
 28 31  1  0  0  0  0
 29 28  1  0  0  0  0
 30 28  1  0  0  0  0
 31 33  1  0  0  0  0
 31  1  1  0  0  0  0
 32 31  1  0  0  0  0
M  END
$$$$
