CSD_code = IBUDUG | q = 0 | S = 0 | Stoichiometry = C16H19Cl2N4O2Re | MND = 6
 OpenBabel04212202053D

 44 47  0  0  1  0  0  0  0  0999 V2000
   12.2919    9.1783    0.3086 Re  0  0  0  0  0  0  0  0  0  0  0  0
    9.5825   10.4510    0.0635 C   0  0  0  0  0  0  0  0  0  0  0  0
    8.8577    9.2572   -0.2462 C   0  0  0  0  0  0  0  0  0  0  0  0
    9.4280    7.9663   -0.1271 C   0  0  0  0  0  3  0  0  0  0  0  0
    8.7399    7.1424   -0.2978 H   0  0  0  0  0  0  0  0  0  0  0  0
   11.8637    9.3053   -1.9942 Cl  0  0  0  0  0  0  0  0  0  0  0  0
   12.0171    8.7101    2.5817 Cl  0  0  0  0  0  0  0  0  0  0  0  0
   10.7839   10.4267    0.5092 O   0  0  0  0  0  0  0  0  0  0  0  0
   13.7385    9.9865    0.3043 O   0  0  0  0  0  1  0  0  0  0  0  0
   14.4845    7.2839    0.0698 N   0  0  0  0  0  2  0  0  0  0  0  0
   10.6732    7.7062    0.1469 N   0  0  1  0  0  0  0  0  0  0  0  0
   11.0896    6.4057    0.2610 N   0  0  0  0  0  0  0  0  0  0  0  0
   13.1874    7.3425    0.1537 N   0  0  0  0  0  0  0  0  0  0  0  0
    8.9085   11.6907   -0.0601 C   0  0  0  0  0  0  0  0  0  0  0  0
    9.4691   12.5815    0.1767 H   0  0  0  0  0  0  0  0  0  0  0  0
   10.1683    5.3334    0.5573 C   0  0  0  0  0  0  0  0  0  0  0  0
   10.6901    4.5594    1.1154 H   0  0  0  0  0  0  0  0  0  0  0  0
    9.7386    4.9008   -0.3505 H   0  0  0  0  0  0  0  0  0  0  0  0
    9.3691    5.7176    1.1928 H   0  0  0  0  0  0  0  0  0  0  0  0
   15.1351    6.1496    0.0160 C   0  0  0  0  0  0  0  0  0  0  0  0
   14.4300    4.9279    0.0203 C   0  0  0  0  0  0  0  0  0  0  0  0
   14.9462    3.9845   -0.0458 H   0  0  0  0  0  0  0  0  0  0  0  0
   12.4308    6.2201    0.1816 C   0  0  0  0  0  0  0  0  0  0  0  0
   13.0621    4.9661    0.0950 C   0  0  0  0  0  0  0  0  0  0  0  0
   12.4801    4.0594    0.0691 H   0  0  0  0  0  0  0  0  0  0  0  0
   16.6431    6.2233   -0.0407 C   0  0  0  0  0  0  0  0  0  0  0  0
   17.0883    7.6843   -0.0941 C   0  0  0  0  0  0  0  0  0  0  0  0
   16.7228    8.2245    0.7732 H   0  0  0  0  0  0  0  0  0  0  0  0
   16.6864    8.1707   -0.9771 H   0  0  0  0  0  0  0  0  0  0  0  0
   18.1733    7.7411   -0.1192 H   0  0  0  0  0  0  0  0  0  0  0  0
   17.1425    5.4885   -1.2908 C   0  0  0  0  0  0  0  0  0  0  0  0
   16.7081    5.9289   -2.1846 H   0  0  0  0  0  0  0  0  0  0  0  0
   16.8877    4.4318   -1.2648 H   0  0  0  0  0  0  0  0  0  0  0  0
   18.2240    5.5749   -1.3562 H   0  0  0  0  0  0  0  0  0  0  0  0
    7.6084   11.7512   -0.4780 C   0  0  0  0  0  0  0  0  0  0  0  0
    7.1223   12.7102   -0.5787 H   0  0  0  0  0  0  0  0  0  0  0  0
   17.2068    5.5593    1.2227 C   0  0  0  0  0  0  0  0  0  0  0  0
   16.9260    4.5103    1.2806 H   0  0  0  0  0  0  0  0  0  0  0  0
   16.8367    6.0670    2.1097 H   0  0  0  0  0  0  0  0  0  0  0  0
   18.2917    5.6231    1.2171 H   0  0  0  0  0  0  0  0  0  0  0  0
    6.8978   10.5816   -0.7780 C   0  0  0  0  0  0  0  0  0  0  0  0
    5.8711   10.6447   -1.1031 H   0  0  0  0  0  0  0  0  0  0  0  0
    7.5124    9.3666   -0.6555 C   0  0  0  0  0  0  0  0  0  0  0  0
    6.9709    8.4592   -0.8841 H   0  0  0  0  0  0  0  0  0  0  0  0
  1  8  1  0  0  0  0
  1  7  1  0  0  0  0
  2  8  1  0  0  0  0
  3  4  1  0  0  0  0
  3  2  2  0  0  0  0
  5  4  1  0  0  0  0
  6  1  1  0  0  0  0
  9  1  1  0  0  0  0
 10 13  1  0  0  0  0
 11  4  1  6  0  0  0
 11 12  1  0  0  0  0
 11  1  1  0  0  0  0
 12 16  1  0  0  0  0
 13 23  1  0  0  0  0
 13  1  1  0  0  0  0
 14  2  1  0  0  0  0
 14 15  1  0  0  0  0
 16 17  1  0  0  0  0
 16 19  1  0  0  0  0
 18 16  1  0  0  0  0
 20 21  2  0  0  0  0
 20 10  1  0  0  0  0
 21 24  1  0  0  0  0
 22 21  1  0  0  0  0
 23 12  1  0  0  0  0
 24 23  2  0  0  0  0
 25 24  1  0  0  0  0
 26 20  1  0  0  0  0
 26 37  1  0  0  0  0
 27 26  1  0  0  0  0
 27 28  1  0  0  0  0
 29 27  1  0  0  0  0
 30 27  1  0  0  0  0
 31 33  1  0  0  0  0
 31 26  1  0  0  0  0
 32 31  1  0  0  0  0
 34 31  1  0  0  0  0
 35 14  2  0  0  0  0
 36 35  1  0  0  0  0
 37 38  1  0  0  0  0
 37 39  1  0  0  0  0
 40 37  1  0  0  0  0
 41 43  2  0  0  0  0
 41 35  1  0  0  0  0
 42 41  1  0  0  0  0
 43  3  1  0  0  0  0
 44 43  1  0  0  0  0
M  END
$$$$
