CSD_code = IBUWEJ | q = 0 | S = 0 | Stoichiometry = C12H11Cl2HgN5O3 | MND = 5
 OpenBabel04212202053D

 34 34  0  0  0  0  0  0  0  0999 V2000
    5.9862    6.0011    8.7749 Hg  0  0  0  0  0  0  0  0  0  0  0  0
    5.4015    7.9607    7.8120 Cl  0  0  0  0  0  0  0  0  0  0  0  0
    5.0444    4.2373    9.9573 Cl  0  0  0  0  0  0  0  0  0  0  0  0
    6.9021    5.1441   13.7102 N   0  0  0  0  0  0  0  0  0  0  0  0
    8.9271    3.0052   15.7408 N   0  0  0  0  0  0  0  0  0  0  0  0
    8.3819    4.3558   10.4871 N   0  0  0  0  0  0  0  0  0  0  0  0
    8.7627    3.4618   10.7985 H   0  0  0  0  0  0  0  0  0  0  0  0
    8.1694    4.5862    9.1970 N   0  0  0  0  0  0  0  0  0  0  0  0
    7.2330    5.0514    6.7245 N   0  0  0  0  0  0  0  0  0  0  0  0
    8.4507    3.0548   16.8565 O   0  0  0  0  0  0  0  0  0  0  0  0
    9.8979    2.3482   15.4232 O   0  0  0  0  0  0  0  0  0  0  0  0
    7.2497    6.2414   11.0478 O   0  0  0  0  0  0  0  0  0  0  0  0
    7.7732    5.1981   11.3963 C   0  0  0  0  0  0  0  0  0  0  0  0
    7.8223    4.7296   12.7756 C   0  0  0  0  0  0  0  0  0  0  0  0
    8.7107    3.8659   13.3901 C   0  0  0  0  0  0  0  0  0  0  0  0
    9.5707    3.3810   12.9739 H   0  0  0  0  0  0  0  0  0  0  0  0
    8.3036    3.7723   14.7310 C   0  0  0  0  0  0  0  0  0  0  0  0
    7.1740    4.5701   14.8825 C   0  0  0  0  0  0  0  0  0  0  0  0
    6.5850    4.7256   15.7650 H   0  0  0  0  0  0  0  0  0  0  0  0
    5.7786    5.9981   13.4395 C   0  0  0  0  0  0  0  0  0  0  0  0
    5.2075    5.6041   12.5962 H   0  0  0  0  0  0  0  0  0  0  0  0
    6.1186    6.9999   13.1746 H   0  0  0  0  0  0  0  0  0  0  0  0
    5.1431    6.0453   14.3210 H   0  0  0  0  0  0  0  0  0  0  0  0
    8.5397    3.7955    8.2731 C   0  0  0  0  0  0  0  0  0  0  0  0
    9.1111    2.8836    8.4601 H   0  0  0  0  0  0  0  0  0  0  0  0
    8.1744    4.1143    6.9018 C   0  0  0  0  0  0  0  0  0  0  0  0
    8.7762    3.4638    5.8252 C   0  0  0  0  0  0  0  0  0  0  0  0
    9.5259    2.7079    6.0021 H   0  0  0  0  0  0  0  0  0  0  0  0
    8.4050    3.8140    4.5381 C   0  0  0  0  0  0  0  0  0  0  0  0
    8.8579    3.3272    3.6873 H   0  0  0  0  0  0  0  0  0  0  0  0
    7.4478    4.8008    4.3659 C   0  0  0  0  0  0  0  0  0  0  0  0
    7.1322    5.1078    3.3818 H   0  0  0  0  0  0  0  0  0  0  0  0
    6.8882    5.3881    5.4937 C   0  0  0  0  0  0  0  0  0  0  0  0
    6.1332    6.1587    5.4092 H   0  0  0  0  0  0  0  0  0  0  0  0
  1  3  1  0  0  0  0
  2  1  1  0  0  0  0
  4 18  1  0  0  0  0
  5 10  2  0  0  0  0
  6  7  1  0  0  0  0
  6 13  1  0  0  0  0
  8  6  1  0  0  0  0
  9 26  1  0  0  0  0
 11  5  2  0  0  0  0
 12 13  2  0  0  0  0
 13 14  1  0  0  0  0
 14 15  2  0  0  0  0
 14  4  1  0  0  0  0
 15 17  1  0  0  0  0
 16 15  1  0  0  0  0
 17 18  2  0  0  0  0
 17  5  1  0  0  0  0
 18 19  1  0  0  0  0
 20  4  1  0  0  0  0
 20 23  1  0  0  0  0
 21 20  1  0  0  0  0
 22 20  1  0  0  0  0
 24 25  1  0  0  0  0
 24  8  2  0  0  0  0
 26 24  1  0  0  0  0
 27 28  1  0  0  0  0
 27 26  2  0  0  0  0
 29 27  1  0  0  0  0
 30 29  1  0  0  0  0
 31 29  2  0  0  0  0
 31 33  1  0  0  0  0
 32 31  1  0  0  0  0
 33  9  2  0  0  0  0
 34 33  1  0  0  0  0
M  END
$$$$
