CSD_code = IBUXOS | q = 0 | S = 0 | Stoichiometry = C10H12Cl2N2O2PdS2 | MND = 4
 OpenBabel04212202053D

 31 32  0  0  0  0  0  0  0  0999 V2000
    2.0117    5.2868    7.1475 Pd  0  0  0  0  0  0  0  0  0  0  0  0
    4.3064    5.8438    6.8580 S   0  0  2  0  0  3  0  0  0  0  0  0
    2.7195    3.9443    8.9437 S   0  0  1  0  0  3  0  0  0  0  0  0
   -0.1317    4.6487    7.3289 Cl  0  0  0  0  0  0  0  0  0  0  0  0
    1.4216    6.2752    5.2233 Cl  0  0  0  0  0  0  0  0  0  0  0  0
    2.7542    7.7481    8.2586 O   0  0  0  0  0  0  0  0  0  0  0  0
    1.9184    6.3905   10.4001 O   0  0  0  0  0  0  0  0  0  0  0  0
    4.7055    4.8095   11.9237 N   0  0  0  0  0  0  0  0  0  0  0  0
    6.6928    7.2401    9.2857 N   0  0  0  0  0  0  0  0  0  0  0  0
    4.0428    4.9977    9.4662 C   0  0  0  0  0  0  0  0  0  0  0  0
    4.7136    5.7891    8.5901 C   0  0  0  0  0  0  0  0  0  0  0  0
    4.4047    7.6437    6.5555 C   0  0  0  0  0  0  0  0  0  0  0  0
    5.3009    7.9930    7.0671 H   0  0  0  0  0  0  0  0  0  0  0  0
    4.5184    7.7553    5.4785 H   0  0  0  0  0  0  0  0  0  0  0  0
    3.1488    8.3623    7.0452 C   0  0  0  0  0  0  0  0  0  0  0  0
    3.3745    9.4256    7.2134 H   0  0  0  0  0  0  0  0  0  0  0  0
    2.3490    8.2681    6.2971 H   0  0  0  0  0  0  0  0  0  0  0  0
    1.4761    8.1245    8.7540 C   0  0  0  0  0  0  0  0  0  0  0  0
    0.6860    7.5952    8.1877 H   0  0  0  0  0  0  0  0  0  0  0  0
    1.3289    9.2074    8.6663 H   0  0  0  0  0  0  0  0  0  0  0  0
    1.4867    7.7216   10.2346 C   0  0  0  0  0  0  0  0  0  0  0  0
    2.2316    8.3295   10.7568 H   0  0  0  0  0  0  0  0  0  0  0  0
    0.5010    7.8812   10.6842 H   0  0  0  0  0  0  0  0  0  0  0  0
    0.9005    5.4055   10.4177 C   0  0  0  0  0  0  0  0  0  0  0  0
    0.2271    5.5132    9.5549 H   0  0  0  0  0  0  0  0  0  0  0  0
    0.3161    5.4803   11.3474 H   0  0  0  0  0  0  0  0  0  0  0  0
    1.5833    4.0482   10.3655 C   0  0  0  0  0  0  0  0  0  0  0  0
    0.8526    3.2556   10.2116 H   0  0  0  0  0  0  0  0  0  0  0  0
    2.1744    3.8594   11.2612 H   0  0  0  0  0  0  0  0  0  0  0  0
    5.8024    6.5759    8.9984 C   0  0  0  0  0  0  0  0  0  0  0  0
    4.4222    4.9130   10.8176 C   0  0  0  0  0  0  0  0  0  0  0  0
  1  4  1  0  0  0  0
  1  3  1  0  0  0  0
  2  1  1  0  0  0  0
  2 11  1  1  0  0  0
  3 10  1  1  0  0  0
  3 27  1  0  0  0  0
  5  1  1  0  0  0  0
  6 18  1  0  0  0  0
  7 24  1  0  0  0  0
 10 31  1  0  0  0  0
 11 30  1  0  0  0  0
 11 10  2  0  0  0  0
 12  2  1  0  0  0  0
 12 15  1  0  0  0  0
 12 13  1  0  0  0  0
 14 12  1  0  0  0  0
 15 16  1  0  0  0  0
 15  6  1  0  0  0  0
 17 15  1  0  0  0  0
 18 21  1  0  0  0  0
 19 18  1  0  0  0  0
 20 18  1  0  0  0  0
 21  7  1  0  0  0  0
 21 23  1  0  0  0  0
 21 22  1  0  0  0  0
 24 26  1  0  0  0  0
 25 24  1  0  0  0  0
 27 24  1  0  0  0  0
 27 29  1  0  0  0  0
 28 27  1  0  0  0  0
 30  9  3  0  0  0  0
 31  8  3  0  0  0  0
M  END
$$$$
