CSD_code = ICEFUR | q = 0 | S = 0 | Stoichiometry = C7H19IN2Pd | MND = 4
 OpenBabel04212202053D

 30 30  0  0  0  0  0  0  0  0999 V2000
   -0.6238    7.6530    7.8776 Pd  0  0  0  0  0  0  0  0  0  0  0  0
    0.2483    9.1197    5.9949 I   0  0  0  0  0  0  0  0  0  0  0  0
   -1.1859    6.3712    9.5968 N   0  0  0  0  0  4  0  0  0  0  0  0
    1.3128    6.4020    8.0314 N   0  0  0  0  0  4  0  0  0  0  0  0
   -0.2797    5.2186    9.5356 C   0  0  0  0  0  0  0  0  0  0  0  0
    1.1745    5.5982    9.2454 C   0  0  0  0  0  0  0  0  0  0  0  0
   -2.5539    5.8740    9.7105 C   0  0  0  0  0  0  0  0  0  0  0  0
   -0.8803    7.2135   10.7539 C   0  0  0  0  0  0  0  0  0  0  0  0
    1.1677    5.5726    6.8334 C   0  0  0  0  0  0  0  0  0  0  0  0
    2.6200    7.0523    8.0175 C   0  0  0  0  0  0  0  0  0  0  0  0
   -2.4484    8.5579    7.8005 C   0  0  0  0  0  0  0  0  0  0  0  0
   -0.3099    4.6637   10.4899 H   0  0  0  0  0  0  0  0  0  0  0  0
   -0.6431    4.5466    8.7512 H   0  0  0  0  0  0  0  0  0  0  0  0
    1.7658    4.6686    9.1687 H   0  0  0  0  0  0  0  0  0  0  0  0
    1.5762    6.1701   10.0876 H   0  0  0  0  0  0  0  0  0  0  0  0
   -2.6686    5.2383   10.6003 H   0  0  0  0  0  0  0  0  0  0  0  0
   -2.8126    5.2893    8.8266 H   0  0  0  0  0  0  0  0  0  0  0  0
   -3.2508    6.7065    9.7881 H   0  0  0  0  0  0  0  0  0  0  0  0
   -0.8612    6.6219   11.6818 H   0  0  0  0  0  0  0  0  0  0  0  0
   -1.6426    7.9873   10.8541 H   0  0  0  0  0  0  0  0  0  0  0  0
    0.0862    7.7088   10.6272 H   0  0  0  0  0  0  0  0  0  0  0  0
    1.8594    4.7167    6.8532 H   0  0  0  0  0  0  0  0  0  0  0  0
    1.3832    6.1743    5.9490 H   0  0  0  0  0  0  0  0  0  0  0  0
    0.1408    5.1981    6.7448 H   0  0  0  0  0  0  0  0  0  0  0  0
    3.4338    6.3146    8.0631 H   0  0  0  0  0  0  0  0  0  0  0  0
    2.7075    7.7305    8.8684 H   0  0  0  0  0  0  0  0  0  0  0  0
    2.7275    7.6387    7.1061 H   0  0  0  0  0  0  0  0  0  0  0  0
   -2.7124    8.8764    8.8194 H   0  0  0  0  0  0  0  0  0  0  0  0
   -3.1457    7.7843    7.4420 H   0  0  0  0  0  0  0  0  0  0  0  0
   -2.5116    9.4225    7.1388 H   0  0  0  0  0  0  0  0  0  0  0  0
  1  4  1  0  0  0  0
  1  3  1  0  0  0  0
  2  1  1  0  0  0  0
  3  7  1  0  0  0  0
  3  8  1  0  0  0  0
  4  6  1  0  0  0  0
  5  3  1  0  0  0  0
  5 12  1  0  0  0  0
  6  5  1  0  0  0  0
  6 15  1  0  0  0  0
  7 18  1  0  0  0  0
  7 16  1  0  0  0  0
  8 20  1  0  0  0  0
  8 19  1  0  0  0  0
  9 22  1  0  0  0  0
  9  4  1  0  0  0  0
 10  4  1  0  0  0  0
 10 25  1  0  0  0  0
 10 26  1  0  0  0  0
 11  1  1  0  0  0  0
 11 28  1  0  0  0  0
 13  5  1  0  0  0  0
 14  6  1  0  0  0  0
 17  7  1  0  0  0  0
 21  8  1  0  0  0  0
 23  9  1  0  0  0  0
 24  9  1  0  0  0  0
 27 10  1  0  0  0  0
 29 11  1  0  0  0  0
 30 11  1  0  0  0  0
M  END
$$$$
