CSD_code = ICEHED | q = 1 | S = 0 | Stoichiometry = C20H30Cl2HfP(1+) | MND = 12
 OpenBabel04212202053D

 54 56  0  0  1  0  0  0  0  0999 V2000
   11.3118   -5.0733    3.3799 Hf  0  0  0  0  0  0  0  0  0  0  0  0
   12.6160   -6.5654    2.2645 Cl  0  0  0  0  0  0  0  0  0  0  0  0
   11.3122   -1.7079    3.3799 P   0  0  0  0  0  4  0  0  0  0  0  0
   10.1621   -2.8246    2.5844 C   0  0  1  0  0  3  0  0  0  0  0  0
   10.6954   -3.8118    1.6492 C   0  0  2  0  0  0  0  0  0  0  0  0
    9.7053   -4.8437    1.5391 C   0  0  1  0  0  3  0  0  0  0  0  0
    8.6307   -4.5195    2.4035 C   0  0  0  0  0  0  0  0  0  0  0  0
    8.9064   -3.3029    3.0466 C   0  0  0  0  0  0  0  0  0  0  0  0
   11.8576   -3.6227    0.7048 C   0  0  0  0  0  0  0  0  0  0  0  0
    9.7130   -6.0083    0.5909 C   0  0  0  0  0  0  0  0  0  0  0  0
    7.3609   -5.2940    2.5444 C   0  0  0  0  0  0  0  0  0  0  0  0
    7.9095   -2.6011    3.9138 C   0  0  0  0  0  0  0  0  0  0  0  0
   10.6106   -0.5475    4.5928 C   0  0  0  0  0  0  0  0  0  0  0  0
   12.1449   -4.5744    0.2560 H   0  0  0  0  0  0  0  0  0  0  0  0
   12.7345   -3.2179    1.2103 H   0  0  0  0  0  0  0  0  0  0  0  0
   11.5790   -2.9487   -0.1091 H   0  0  0  0  0  0  0  0  0  0  0  0
    9.5161   -6.9408    1.1255 H   0  0  0  0  0  0  0  0  0  0  0  0
   10.6630   -6.1066    0.0693 H   0  0  0  0  0  0  0  0  0  0  0  0
    8.9278   -5.8848   -0.1560 H   0  0  0  0  0  0  0  0  0  0  0  0
    7.5037   -6.3305    2.2525 H   0  0  0  0  0  0  0  0  0  0  0  0
    6.5850   -4.8664    1.9084 H   0  0  0  0  0  0  0  0  0  0  0  0
    7.0047   -5.2698    3.5715 H   0  0  0  0  0  0  0  0  0  0  0  0
    6.9778   -2.4865    3.3601 H   0  0  0  0  0  0  0  0  0  0  0  0
    8.2462   -1.6129    4.2072 H   0  0  0  0  0  0  0  0  0  0  0  0
    7.6763   -3.1837    4.8055 H   0  0  0  0  0  0  0  0  0  0  0  0
    9.8963    0.1078    4.0961 H   0  0  0  0  0  0  0  0  0  0  0  0
   11.4434    0.0528    4.9626 H   0  0  0  0  0  0  0  0  0  0  0  0
   10.1384   -1.0362    5.4380 H   0  0  0  0  0  0  0  0  0  0  0  0
   10.0082   -6.5651    4.4959 Cl  0  0  0  0  0  0  0  0  0  0  0  0
   12.4623   -2.8246    4.1754 C   0  0  1  0  0  3  0  0  0  0  0  0
   11.9288   -3.8119    5.1104 C   0  0  2  0  0  0  0  0  0  0  0  0
   13.7180   -3.3029    3.7132 C   0  0  0  0  0  0  0  0  0  0  0  0
   12.9190   -4.8438    5.2206 C   0  0  1  0  0  3  0  0  0  0  0  0
   10.7669   -3.6226    6.0551 C   0  0  0  0  0  0  0  0  0  0  0  0
   10.4796   -4.5742    6.5041 H   0  0  0  0  0  0  0  0  0  0  0  0
    9.8899   -3.2178    5.5497 H   0  0  0  0  0  0  0  0  0  0  0  0
   11.0457   -2.9485    6.8689 H   0  0  0  0  0  0  0  0  0  0  0  0
   13.9936   -4.5195    4.3563 C   0  0  0  0  0  0  0  0  0  0  0  0
   14.7150   -2.6010    2.8463 C   0  0  0  0  0  0  0  0  0  0  0  0
   15.6468   -2.4868    3.3999 H   0  0  0  0  0  0  0  0  0  0  0  0
   14.3784   -1.6126    2.5533 H   0  0  0  0  0  0  0  0  0  0  0  0
   14.9479   -3.1832    1.9542 H   0  0  0  0  0  0  0  0  0  0  0  0
   15.2636   -5.2939    4.2156 C   0  0  0  0  0  0  0  0  0  0  0  0
   15.1209   -6.3304    4.5074 H   0  0  0  0  0  0  0  0  0  0  0  0
   16.0393   -4.8662    4.8516 H   0  0  0  0  0  0  0  0  0  0  0  0
   15.6199   -5.2696    3.1884 H   0  0  0  0  0  0  0  0  0  0  0  0
   12.9112   -6.0085    6.1686 C   0  0  0  0  0  0  0  0  0  0  0  0
   13.1086   -6.9409    5.6339 H   0  0  0  0  0  0  0  0  0  0  0  0
   11.9610   -6.1071    6.6898 H   0  0  0  0  0  0  0  0  0  0  0  0
   13.6962   -5.8849    6.9158 H   0  0  0  0  0  0  0  0  0  0  0  0
   12.0138   -0.5476    2.1668 C   0  0  0  0  0  0  0  0  0  0  0  0
   12.7278    0.1080    2.6635 H   0  0  0  0  0  0  0  0  0  0  0  0
   11.1811    0.0523    1.7966 H   0  0  0  0  0  0  0  0  0  0  0  0
   12.4865   -1.0365    1.3219 H   0  0  0  0  0  0  0  0  0  0  0  0
  1 29  1  0  0  0  0
  1 31  1  0  0  0  0
  2  1  1  0  0  0  0
  3 30  1  0  0  0  0
  3 13  1  0  0  0  0
  4  8  1  1  0  0  0
  4  3  1  0  0  0  0
  5  9  1  6  0  0  0
  5  4  1  0  0  0  0
  5  1  1  0  0  0  0
  6 10  1  6  0  0  0
  6  5  1  0  0  0  0
  6  7  1  0  0  0  0
  7 11  1  0  0  0  0
  7  8  2  0  0  0  0
  8 12  1  0  0  0  0
  9 15  1  0  0  0  0
 10 17  1  0  0  0  0
 11 22  1  0  0  0  0
 12 24  1  0  0  0  0
 12 25  1  0  0  0  0
 13 27  1  0  0  0  0
 13 28  1  0  0  0  0
 14  9  1  0  0  0  0
 16  9  1  0  0  0  0
 18 10  1  0  0  0  0
 19 10  1  0  0  0  0
 20 11  1  0  0  0  0
 21 11  1  0  0  0  0
 23 12  1  0  0  0  0
 26 13  1  0  0  0  0
 30 32  1  6  0  0  0
 30 31  1  0  0  0  0
 31 33  1  0  0  0  0
 31 34  1  1  0  0  0
 32 38  2  0  0  0  0
 33 47  1  1  0  0  0
 34 35  1  0  0  0  0
 34 37  1  0  0  0  0
 36 34  1  0  0  0  0
 38 33  1  0  0  0  0
 39 40  1  0  0  0  0
 39 32  1  0  0  0  0
 41 39  1  0  0  0  0
 42 39  1  0  0  0  0
 43 38  1  0  0  0  0
 43 44  1  0  0  0  0
 43 45  1  0  0  0  0
 46 43  1  0  0  0  0
 47 49  1  0  0  0  0
 47 50  1  0  0  0  0
 48 47  1  0  0  0  0
 51 52  1  0  0  0  0
 51  3  1  0  0  0  0
 53 51  1  0  0  0  0
 54 51  1  0  0  0  0
M  END
$$$$
