CSD_code = ICEHUT | q = 0 | S = 0 | Stoichiometry = C15H14ClMnN2O3 | MND = 6
 OpenBabel04212202053D

 36 37  0  0  0  0  0  0  0  0999 V2000
    7.4892    0.8722    3.0862 Mn  0  0  0  0  0  0  0  0  0  0  0  0
    9.3579    0.6400    4.3318 Cl  0  0  0  0  0  0  0  0  0  0  0  0
    7.8184   -1.1035    2.3771 N   0  0  0  0  0  0  0  0  0  0  0  0
    8.7893    1.5260    1.5049 N   0  0  0  0  0  0  0  0  0  0  0  0
    8.2591   -2.0570    3.1991 C   0  0  0  0  0  3  0  0  0  0  0  0
    8.5924   -3.3304    2.7746 C   0  0  0  0  0  0  0  0  0  0  0  0
    8.4740   -3.6682    1.4318 C   0  0  0  0  0  0  0  0  0  0  0  0
    8.8437   -5.0211    0.9229 C   0  0  0  0  0  0  0  0  0  0  0  0
    8.0066   -2.6712    0.5799 C   0  0  0  0  0  0  0  0  0  0  0  0
    7.6919   -1.4257    1.0870 C   0  0  0  0  0  0  0  0  0  0  0  0
    9.9613    0.9222    1.3065 C   0  0  0  0  0  3  0  0  0  0  0  0
   10.8745    1.3294    0.3517 C   0  0  0  0  0  0  0  0  0  0  0  0
   10.5922    2.4260   -0.4545 C   0  0  0  0  0  0  0  0  0  0  0  0
   11.5466    2.8911   -1.5029 C   0  0  0  0  0  0  0  0  0  0  0  0
    9.3691    3.0543   -0.2408 C   0  0  0  0  0  0  0  0  0  0  0  0
    8.5106    2.5792    0.7317 C   0  0  0  0  0  0  0  0  0  0  0  0
    6.5315    0.2995    4.4711 C   0  0  0  0  0  2  0  0  0  0  0  0
    7.4603    2.5078    3.7903 C   0  0  0  0  0  2  0  0  0  0  0  0
    6.0432    1.0912    2.0861 C   0  0  0  0  0  2  0  0  0  0  0  0
    5.9542   -0.0308    5.4075 O   0  0  0  0  0  1  0  0  0  0  0  0
    5.0829    1.2505    1.4621 O   0  0  0  0  0  1  0  0  0  0  0  0
    7.5080    3.5212    4.3259 O   0  0  0  0  0  1  0  0  0  0  0  0
    8.3695   -1.7902    4.2420 H   0  0  0  0  0  0  0  0  0  0  0  0
    8.9425   -4.0542    3.4942 H   0  0  0  0  0  0  0  0  0  0  0  0
    8.7661   -5.7668    1.7099 H   0  0  0  0  0  0  0  0  0  0  0  0
    9.8751   -5.0096    0.5686 H   0  0  0  0  0  0  0  0  0  0  0  0
    8.2069   -5.3091    0.0897 H   0  0  0  0  0  0  0  0  0  0  0  0
    7.8827   -2.8647   -0.4748 H   0  0  0  0  0  0  0  0  0  0  0  0
    7.3150   -0.6560    0.4237 H   0  0  0  0  0  0  0  0  0  0  0  0
   10.2020    0.0914    1.9577 H   0  0  0  0  0  0  0  0  0  0  0  0
   11.8073    0.7965    0.2472 H   0  0  0  0  0  0  0  0  0  0  0  0
   11.3356    3.9163   -1.7953 H   0  0  0  0  0  0  0  0  0  0  0  0
   11.4581    2.2584   -2.3868 H   0  0  0  0  0  0  0  0  0  0  0  0
   12.5720    2.8230   -1.1466 H   0  0  0  0  0  0  0  0  0  0  0  0
    9.0856    3.9161   -0.8251 H   0  0  0  0  0  0  0  0  0  0  0  0
    7.5583    3.0677    0.8983 H   0  0  0  0  0  0  0  0  0  0  0  0
  1 18  1  0  0  0  0
  1  2  1  0  0  0  0
  1 17  1  0  0  0  0
  3  1  1  0  0  0  0
  3  5  1  0  0  0  0
  4  1  1  0  0  0  0
  5 23  1  0  0  0  0
  6  5  1  0  0  0  0
  6 24  1  0  0  0  0
  7  6  2  0  0  0  0
  8  7  1  0  0  0  0
  8 25  1  0  0  0  0
  9 10  2  0  0  0  0
  9  7  1  0  0  0  0
 10  3  1  0  0  0  0
 11  4  1  0  0  0  0
 11 30  1  0  0  0  0
 12 11  1  0  0  0  0
 13 15  1  0  0  0  0
 13 12  2  0  0  0  0
 14 34  1  0  0  0  0
 14 13  1  0  0  0  0
 15 16  2  0  0  0  0
 16 36  1  0  0  0  0
 16  4  1  0  0  0  0
 17 20  1  0  0  0  0
 18 22  1  0  0  0  0
 19  1  1  0  0  0  0
 21 19  1  0  0  0  0
 26  8  1  0  0  0  0
 27  8  1  0  0  0  0
 28  9  1  0  0  0  0
 29 10  1  0  0  0  0
 31 12  1  0  0  0  0
 32 14  1  0  0  0  0
 33 14  1  0  0  0  0
 35 15  1  0  0  0  0
M  END
$$$$
