CSD_code = ICERIR | q = 0 | S = 0 | Stoichiometry = C15H16Cl2OTi | MND = 8
 OpenBabel04212202053D

 35 36  0  0  1  0  0  0  0  0999 V2000
    3.2120    0.8517   10.6157 Ti  0  0  0  0  0  0  0  0  0  0  0  0
    2.4088    0.4379   12.5978 Cl  0  0  0  0  0  0  0  0  0  0  0  0
    4.1603   -1.0938   10.3490 Cl  0  0  0  0  0  0  0  0  0  0  0  0
    4.5469    1.7922   10.9284 O   0  0  0  0  0  0  0  0  0  0  0  0
    2.5245    0.8429    8.4067 C   0  0  1  0  0  0  0  0  0  0  0  0
    1.4780    0.2932    9.1846 C   0  0  0  0  0  3  0  0  0  0  0  0
    0.9959    1.3015   10.0399 C   0  0  0  0  0  0  0  0  0  0  0  0
    1.7552    2.4742    9.8111 C   0  0  0  0  0  0  0  0  0  0  0  0
    2.6881    2.1948    8.7851 C   0  0  0  0  0  3  0  0  0  0  0  0
    5.3734    2.8064   10.6969 C   0  0  0  0  0  0  0  0  0  0  0  0
    5.2580    3.9924   11.4395 C   0  0  0  0  0  0  0  0  0  0  0  0
    6.1001    5.0516   11.1390 C   0  0  0  0  0  0  0  0  0  0  0  0
    7.0414    4.9427   10.1300 C   0  0  0  0  0  0  0  0  0  0  0  0
    7.1637    3.7621    9.4151 C   0  0  0  0  0  0  0  0  0  0  0  0
    6.3391    2.6821    9.6826 C   0  0  0  0  0  0  0  0  0  0  0  0
    4.2926    4.0296   12.5965 C   0  0  0  0  0  0  0  0  0  0  0  0
    5.0449    3.5478   13.8102 C   0  0  0  0  0  0  0  0  0  0  0  0
    5.1587    2.2743   14.1355 C   0  0  0  0  0  0  0  0  0  0  0  0
    6.4358    1.3781    8.9494 C   0  0  0  0  0  0  0  0  0  0  0  0
    3.0214    0.3461    7.5822 H   0  0  0  0  0  0  0  0  0  0  0  0
    1.0498   -0.6942    9.0578 H   0  0  0  0  0  0  0  0  0  0  0  0
    0.1339    1.2261   10.6918 H   0  0  0  0  0  0  0  0  0  0  0  0
    1.5568    3.4507   10.2377 H   0  0  0  0  0  0  0  0  0  0  0  0
    3.3329    2.9215    8.3042 H   0  0  0  0  0  0  0  0  0  0  0  0
    6.0171    5.9683   11.7040 H   0  0  0  0  0  0  0  0  0  0  0  0
    7.6897    5.7762    9.9066 H   0  0  0  0  0  0  0  0  0  0  0  0
    7.9113    3.6762    8.6404 H   0  0  0  0  0  0  0  0  0  0  0  0
    5.5539    4.3137   14.3806 H   0  0  0  0  0  0  0  0  0  0  0  0
    3.4469    3.3555   12.3944 H   0  0  0  0  0  0  0  0  0  0  0  0
    3.9255    5.0445   12.7532 H   0  0  0  0  0  0  0  0  0  0  0  0
    4.6688    1.4956   13.5645 H   0  0  0  0  0  0  0  0  0  0  0  0
    5.7344    1.9556   14.9880 H   0  0  0  0  0  0  0  0  0  0  0  0
    7.2733    1.3844    8.2570 H   0  0  0  0  0  0  0  0  0  0  0  0
    5.5137    1.1813    8.3920 H   0  0  0  0  0  0  0  0  0  0  0  0
    6.5665    0.5592    9.6621 H   0  0  0  0  0  0  0  0  0  0  0  0
  1  4  1  0  0  0  0
  1  2  1  0  0  0  0
  3  1  1  0  0  0  0
  5 20  1  6  0  0  0
  5  9  1  0  0  0  0
  5  6  1  0  0  0  0
  5  1  1  0  0  0  0
  6  7  1  0  0  0  0
  7 22  1  0  0  0  0
  8  7  2  0  0  0  0
  8 23  1  0  0  0  0
  9  8  1  0  0  0  0
 10  4  1  0  0  0  0
 10 11  1  0  0  0  0
 11 16  1  0  0  0  0
 12 11  2  0  0  0  0
 12 25  1  0  0  0  0
 13 12  1  0  0  0  0
 14 15  1  0  0  0  0
 14 13  2  0  0  0  0
 15 10  2  0  0  0  0
 16 30  1  0  0  0  0
 16 17  1  0  0  0  0
 17 18  2  0  0  0  0
 17 28  1  0  0  0  0
 18 32  1  0  0  0  0
 19 35  1  0  0  0  0
 19 15  1  0  0  0  0
 21  6  1  0  0  0  0
 24  9  1  0  0  0  0
 26 13  1  0  0  0  0
 27 14  1  0  0  0  0
 29 16  1  0  0  0  0
 31 18  1  0  0  0  0
 33 19  1  0  0  0  0
 34 19  1  0  0  0  0
M  END
$$$$
