CSD_code = ICICUT | q = 1 | S = 0 | Stoichiometry = C9H20ClCoN9(1+) | MND = 6
 OpenBabel04212202053D

 40 43  0  0  1  0  0  0  0  0999 V2000
    7.1584    1.8161    7.9676 Co  0  0  0  0  0  0  0  0  0  0  0  0
    7.3509   -0.0586    9.0085 Cl  0  0  0  0  0  0  0  0  0  0  0  0
    3.1673    2.2568    4.3252 N   0  0  0  0  0  0  0  0  0  0  0  0
    5.3028    2.4172    5.3536 N   0  0  0  0  0  2  0  0  0  0  0  0
    1.3035    1.3583    5.3353 N   0  0  0  0  0  0  0  0  0  0  0  0
    0.7918    1.5293    4.4872 H   0  0  0  0  0  0  0  0  0  0  0  0
    0.8720    0.8927    6.1141 H   0  0  0  0  0  0  0  0  0  0  0  0
    3.1861    0.8862    7.7590 N   0  0  0  0  0  0  0  0  0  0  0  0
    5.3391    1.5192    7.6214 N   0  0  0  0  0  0  0  0  0  0  0  0
    6.9711    3.6386    7.1231 N   0  0  0  0  0  4  0  0  0  0  0  0
    7.8334    4.0988    6.8414 H   0  0  0  0  0  0  0  0  0  0  0  0
    6.4095    3.4805    6.2620 H   0  0  0  0  0  0  0  0  0  0  0  0
    6.6941    2.7467    9.6470 N   0  0  0  0  0  4  0  0  0  0  0  0
    5.7251    2.4940    9.8578 H   0  0  0  0  0  0  0  0  0  0  0  0
    7.2333    2.4533   10.4634 H   0  0  0  0  0  0  0  0  0  0  0  0
    7.6014    0.9700    6.2793 N   0  0  0  0  0  4  0  0  0  0  0  0
    7.4585   -0.0361    6.3966 H   0  0  0  0  0  0  0  0  0  0  0  0
    6.9584    1.2867    5.5393 H   0  0  0  0  0  0  0  0  0  0  0  0
    9.1872    2.0055    8.1922 N   0  0  0  0  0  4  0  0  0  0  0  0
    9.5725    2.9430    8.0840 H   0  0  0  0  0  0  0  0  0  0  0  0
    9.4589    1.6784    9.1183 H   0  0  0  0  0  0  0  0  0  0  0  0
    4.4384    2.5863    4.3600 C   0  0  0  0  0  0  0  0  0  0  0  0
    4.8324    3.0536    3.4672 H   0  0  0  0  0  0  0  0  0  0  0  0
    4.7454    1.8299    6.4364 C   0  0  0  0  0  0  0  0  0  0  0  0
    3.4023    1.4398    6.5238 C   0  0  0  0  0  0  0  0  0  0  0  0
    2.5978    1.6758    5.3908 C   0  0  2  0  0  3  0  0  0  0  0  0
    4.3403    0.9465    8.3569 C   0  0  0  0  0  0  0  0  0  0  0  0
    4.4968    0.5588    9.3454 H   0  0  0  0  0  0  0  0  0  0  0  0
    6.2431    4.5036    8.0610 C   0  0  0  0  0  0  0  0  0  0  0  0
    5.1814    4.2528    8.0134 H   0  0  0  0  0  0  0  0  0  0  0  0
    6.3580    5.5634    7.8179 H   0  0  0  0  0  0  0  0  0  0  0  0
    6.7698    4.2065    9.4634 C   0  0  0  0  0  0  0  0  0  0  0  0
    7.8132    4.5220    9.5440 H   0  0  0  0  0  0  0  0  0  0  0  0
    6.1883    4.7416   10.2196 H   0  0  0  0  0  0  0  0  0  0  0  0
    9.0010    1.2155    5.9114 C   0  0  0  0  0  0  0  0  0  0  0  0
    9.0883    2.2180    5.4848 H   0  0  0  0  0  0  0  0  0  0  0  0
    9.3582    0.4941    5.1712 H   0  0  0  0  0  0  0  0  0  0  0  0
    9.8132    1.1118    7.1974 C   0  0  0  0  0  0  0  0  0  0  0  0
    9.7469    0.0909    7.5776 H   0  0  0  0  0  0  0  0  0  0  0  0
   10.8635    1.3613    7.0259 H   0  0  0  0  0  0  0  0  0  0  0  0
  1 19  1  0  0  0  0
  1  2  1  0  0  0  0
  1 13  1  0  0  0  0
  3 22  2  0  0  0  0
  3 26  1  0  0  0  0
  4 24  1  0  0  0  0
  5  7  1  0  0  0  0
  6  5  1  0  0  0  0
  8 27  2  0  0  0  0
  9  1  1  0  0  0  0
  9 27  1  0  0  0  0
 10  1  1  0  0  0  0
 10 29  1  0  0  0  0
 11 10  1  0  0  0  0
 12 10  1  0  0  0  0
 13 14  1  0  0  0  0
 13 15  1  0  0  0  0
 16 17  1  0  0  0  0
 16  1  1  0  0  0  0
 18 16  1  0  0  0  0
 19 21  1  0  0  0  0
 20 19  1  0  0  0  0
 22  4  1  0  0  0  0
 23 22  1  0  0  0  0
 24 25  2  0  0  0  0
 24  9  1  0  0  0  0
 25  8  1  0  0  0  0
 26  5  1  1  0  0  0
 26 25  1  0  0  0  0
 27 28  1  0  0  0  0
 29 32  1  0  0  0  0
 30 29  1  0  0  0  0
 31 29  1  0  0  0  0
 32 33  1  0  0  0  0
 32 13  1  0  0  0  0
 32 34  1  0  0  0  0
 35 16  1  0  0  0  0
 35 38  1  0  0  0  0
 36 35  1  0  0  0  0
 37 35  1  0  0  0  0
 38 39  1  0  0  0  0
 38 19  1  0  0  0  0
 40 38  1  0  0  0  0
M  END
$$$$
