CSD_code = ICIKOX | q = 0 | S = 0 | Stoichiometry = C23H42ClCrNP2 | MND = 4
 OpenBabel04212202053D

 70 72  0  0  1  0  0  0  0  0999 V2000
    3.7732    5.7018    4.3589 C   0  0  1  0  0  3  0  0  0  0  0  0
    3.2386    4.8423    3.4355 C   0  0  0  0  0  0  0  0  0  0  0  0
    3.8739    4.3618    2.7079 H   0  0  0  0  0  0  0  0  0  0  0  0
    1.8473    4.6043    3.4326 C   0  0  0  0  0  0  0  0  0  0  0  0
    1.4191    3.9212    2.7144 H   0  0  0  0  0  0  0  0  0  0  0  0
    1.0787    5.2637    4.3301 C   0  0  0  0  0  0  0  0  0  0  0  0
    0.0071    5.1379    4.3573 H   0  0  0  0  0  0  0  0  0  0  0  0
    1.6652    6.1654    5.2819 C   0  0  0  0  0  0  0  0  0  0  0  0
    5.2454    6.0026    4.2995 C   0  0  0  0  0  0  0  0  0  0  0  0
    5.3844    6.8943    3.6776 H   0  0  0  0  0  0  0  0  0  0  0  0
    5.8034    5.1791    3.8450 H   0  0  0  0  0  0  0  0  0  0  0  0
    6.3214    4.7740    6.7317 C   0  0  0  0  0  0  0  0  0  0  0  0
    5.0703    3.9007    6.5873 C   0  0  0  0  0  0  0  0  0  0  0  0
    5.1846    2.9851    7.1662 H   0  0  0  0  0  0  0  0  0  0  0  0
    4.8878    3.6228    5.5512 H   0  0  0  0  0  0  0  0  0  0  0  0
    4.1921    4.4347    6.9651 H   0  0  0  0  0  0  0  0  0  0  0  0
    7.5164    4.0723    6.0952 C   0  0  0  0  0  0  0  0  0  0  0  0
    8.4426    4.6042    6.2978 H   0  0  0  0  0  0  0  0  0  0  0  0
    7.3937    3.9731    5.0182 H   0  0  0  0  0  0  0  0  0  0  0  0
    7.6117    3.0703    6.5135 H   0  0  0  0  0  0  0  0  0  0  0  0
    6.5599    5.0041    8.2264 C   0  0  0  0  0  0  0  0  0  0  0  0
    6.5541    4.0549    8.7606 H   0  0  0  0  0  0  0  0  0  0  0  0
    5.7695    5.6357    8.6378 H   0  0  0  0  0  0  0  0  0  0  0  0
    7.5136    5.4878    8.4140 H   0  0  0  0  0  0  0  0  0  0  0  0
    7.3206    7.5287    5.6281 C   0  0  0  0  0  0  0  0  0  0  0  0
    8.2046    7.0621    4.4724 C   0  0  0  0  0  0  0  0  0  0  0  0
    9.0272    7.7662    4.3481 H   0  0  0  0  0  0  0  0  0  0  0  0
    7.6551    7.0263    3.5349 H   0  0  0  0  0  0  0  0  0  0  0  0
    8.6313    6.0819    4.6602 H   0  0  0  0  0  0  0  0  0  0  0  0
    8.1464    7.6893    6.9035 C   0  0  0  0  0  0  0  0  0  0  0  0
    8.7269    6.7950    7.1163 H   0  0  0  0  0  0  0  0  0  0  0  0
    7.4924    7.9034    7.7486 H   0  0  0  0  0  0  0  0  0  0  0  0
    8.8429    8.5201    6.7944 H   0  0  0  0  0  0  0  0  0  0  0  0
    6.7029    8.8905    5.2871 C   0  0  0  0  0  0  0  0  0  0  0  0
    6.1102    9.2535    6.1289 H   0  0  0  0  0  0  0  0  0  0  0  0
    6.0583    8.8325    4.4099 H   0  0  0  0  0  0  0  0  0  0  0  0
    7.4860    9.6183    5.0798 H   0  0  0  0  0  0  0  0  0  0  0  0
    0.8636    6.8584    6.1525 C   0  0  0  0  0  3  0  0  0  0  0  0
   -0.2107    6.7546    6.1016 H   0  0  0  0  0  0  0  0  0  0  0  0
    0.9748    7.4398    8.9670 C   0  0  0  0  0  0  0  0  0  0  0  0
    1.7341    6.1410    9.2650 C   0  0  0  0  0  0  0  0  0  0  0  0
    1.3807    5.6929   10.1926 H   0  0  0  0  0  0  0  0  0  0  0  0
    2.8034    6.3427    9.3637 H   0  0  0  0  0  0  0  0  0  0  0  0
    1.5849    5.4223    8.4561 H   0  0  0  0  0  0  0  0  0  0  0  0
   -0.5241    7.1497    8.9636 C   0  0  0  0  0  0  0  0  0  0  0  0
   -0.7578    6.3369    8.2802 H   0  0  0  0  0  0  0  0  0  0  0  0
   -1.1041    8.0224    8.6784 H   0  0  0  0  0  0  0  0  0  0  0  0
   -0.8358    6.8488    9.9640 H   0  0  0  0  0  0  0  0  0  0  0  0
    1.3223    8.4763   10.0319 C   0  0  0  0  0  0  0  0  0  0  0  0
    1.1831    8.0507   11.0258 H   0  0  0  0  0  0  0  0  0  0  0  0
    0.6823    9.3519    9.9515 H   0  0  0  0  0  0  0  0  0  0  0  0
    2.3628    8.7853    9.9357 H   0  0  0  0  0  0  0  0  0  0  0  0
    1.1500    9.6828    6.7779 C   0  0  0  0  0  0  0  0  0  0  0  0
   -0.3468    9.9536    6.8736 C   0  0  0  0  0  0  0  0  0  0  0  0
   -0.5851   10.8929    6.3738 H   0  0  0  0  0  0  0  0  0  0  0  0
   -0.6664   10.0380    7.9097 H   0  0  0  0  0  0  0  0  0  0  0  0
   -0.9135    9.1595    6.3910 H   0  0  0  0  0  0  0  0  0  0  0  0
    1.9498   10.7148    7.5726 C   0  0  0  0  0  0  0  0  0  0  0  0
    2.9999   10.4225    7.6212 H   0  0  0  0  0  0  0  0  0  0  0  0
    1.5763   10.8194    8.5870 H   0  0  0  0  0  0  0  0  0  0  0  0
    1.8870   11.6901    7.0900 H   0  0  0  0  0  0  0  0  0  0  0  0
    1.5986    9.7515    5.3141 C   0  0  0  0  0  0  0  0  0  0  0  0
    1.4812   10.7609    4.9224 H   0  0  0  0  0  0  0  0  0  0  0  0
    1.0134    9.0697    4.6984 H   0  0  0  0  0  0  0  0  0  0  0  0
    2.6543    9.4672    5.2358 H   0  0  0  0  0  0  0  0  0  0  0  0
    3.0450    6.3394    5.3107 N   0  0  0  0  0  0  0  0  0  0  0  0
    5.8118    6.4445    5.9926 P   0  0  0  0  0  4  0  0  0  0  0  0
    1.6859    7.9338    7.2824 P   0  0  0  0  0  4  0  0  0  0  0  0
    4.7346    8.3667    8.3997 Cl  0  0  0  0  0  0  0  0  0  0  0  0
    3.8414    7.3000    6.7662 Cr  0  0  2  0  0  0  0  0  0  0  0  0
  1  2  1  6  0  0  0
  1 66  1  0  0  0  0
  3  2  1  0  0  0  0
  4  2  2  0  0  0  0
  4  6  1  0  0  0  0
  5  4  1  0  0  0  0
  6  7  1  0  0  0  0
  6  8  2  0  0  0  0
  8 66  1  0  0  0  0
  8 38  1  0  0  0  0
  9  1  1  0  0  0  0
  9 67  1  0  0  0  0
 10  9  1  0  0  0  0
 11  9  1  0  0  0  0
 12 21  1  0  0  0  0
 13 12  1  0  0  0  0
 13 16  1  0  0  0  0
 13 14  1  0  0  0  0
 15 13  1  0  0  0  0
 17 18  1  0  0  0  0
 17 20  1  0  0  0  0
 17 12  1  0  0  0  0
 19 17  1  0  0  0  0
 21 24  1  0  0  0  0
 21 23  1  0  0  0  0
 21 22  1  0  0  0  0
 25 67  1  0  0  0  0
 25 30  1  0  0  0  0
 26 29  1  0  0  0  0
 26 25  1  0  0  0  0
 27 26  1  0  0  0  0
 28 26  1  0  0  0  0
 30 31  1  0  0  0  0
 30 32  1  0  0  0  0
 33 30  1  0  0  0  0
 34 25  1  0  0  0  0
 34 35  1  0  0  0  0
 36 34  1  0  0  0  0
 37 34  1  0  0  0  0
 38 68  1  0  0  0  0
 39 38  1  0  0  0  0
 40 41  1  0  0  0  0
 40 49  1  0  0  0  0
 41 43  1  0  0  0  0
 41 42  1  0  0  0  0
 44 41  1  0  0  0  0
 45 40  1  0  0  0  0
 45 48  1  0  0  0  0
 46 45  1  0  0  0  0
 47 45  1  0  0  0  0
 49 50  1  0  0  0  0
 51 49  1  0  0  0  0
 52 49  1  0  0  0  0
 53 54  1  0  0  0  0
 53 68  1  0  0  0  0
 53 58  1  0  0  0  0
 54 56  1  0  0  0  0
 55 54  1  0  0  0  0
 57 54  1  0  0  0  0
 58 59  1  0  0  0  0
 58 60  1  0  0  0  0
 61 58  1  0  0  0  0
 62 53  1  0  0  0  0
 63 62  1  0  0  0  0
 64 62  1  0  0  0  0
 65 62  1  0  0  0  0
 66 70  1  0  0  0  0
 67 12  1  0  0  0  0
 67 70  1  0  0  0  0
 68 40  1  0  0  0  0
 70 68  1  0  0  0  0
 70 69  1  6  0  0  0
M  END
$$$$
