CSD_code = ICIRIX | q = 0 | S = 0 | Stoichiometry = C15H10Cl4CoN3 | MND = 6
 OpenBabel04212202053D

 33 37  0  0  1  0  0  0  0  0999 V2000
    0.2249    7.1574    3.3639 Co  0  0  0  0  0  0  0  0  0  0  0  0
    1.7274    8.0012    4.1391 N   0  0  0  0  0  0  0  0  0  0  0  0
   -0.4858    7.3326    4.9933 N   0  0  0  0  0  0  0  0  0  0  0  0
   -1.4291    6.3484    2.9398 N   0  0  0  0  0  0  0  0  0  0  0  0
    2.8811    8.3081    3.5605 C   0  0  0  0  0  3  0  0  0  0  0  0
    3.9141    8.9288    4.2442 C   0  0  0  0  0  0  0  0  0  0  0  0
    3.7452    9.2447    5.5829 C   0  0  0  0  0  0  0  0  0  0  0  0
    2.5435    8.9275    6.1913 C   0  0  0  0  0  0  0  0  0  0  0  0
    1.5498    8.3050    5.4460 C   0  0  0  0  0  0  0  0  0  0  0  0
    0.2410    7.9114    5.9520 C   0  0  2  0  0  3  0  0  0  0  0  0
   -0.2796    8.0667    7.2303 C   0  0  0  0  0  0  0  0  0  0  0  0
   -1.5688    7.6026    7.4714 C   0  0  0  0  0  0  0  0  0  0  0  0
   -2.3102    7.0019    6.4589 C   0  0  0  0  0  0  0  0  0  0  0  0
   -1.7242    6.8811    5.2055 C   0  0  0  0  0  0  0  0  0  0  0  0
   -2.2801    6.2978    3.9911 C   0  0  2  0  0  3  0  0  0  0  0  0
   -3.5456    5.7357    3.8780 C   0  0  0  0  0  0  0  0  0  0  0  0
   -3.9469    5.2145    2.6605 C   0  0  0  0  0  0  0  0  0  0  0  0
   -3.0664    5.2734    1.5920 C   0  0  0  0  0  0  0  0  0  0  0  0
   -1.8189    5.8482    1.7747 C   0  0  0  0  0  0  0  0  0  0  0  0
   -2.2529    7.7724    9.0376 Cl  0  0  0  0  0  0  0  0  0  0  0  0
   -0.6366    9.1569    2.8754 Cl  0  0  0  0  0  0  0  0  0  0  0  0
    1.0834    6.9462    1.3954 Cl  0  0  0  0  0  0  0  0  0  0  0  0
    1.0124    5.1761    4.0228 Cl  0  0  0  0  0  0  0  0  0  0  0  0
    2.9785    8.0465    2.5145 H   0  0  0  0  0  0  0  0  0  0  0  0
    4.8326    9.1563    3.7280 H   0  0  0  0  0  0  0  0  0  0  0  0
    4.5314    9.7274    6.1428 H   0  0  0  0  0  0  0  0  0  0  0  0
    2.3706    9.1562    7.2304 H   0  0  0  0  0  0  0  0  0  0  0  0
    0.2899    8.5315    8.0173 H   0  0  0  0  0  0  0  0  0  0  0  0
   -3.3079    6.6445    6.6509 H   0  0  0  0  0  0  0  0  0  0  0  0
   -4.1992    5.7102    4.7347 H   0  0  0  0  0  0  0  0  0  0  0  0
   -4.9250    4.7724    2.5501 H   0  0  0  0  0  0  0  0  0  0  0  0
   -3.3346    4.8812    0.6246 H   0  0  0  0  0  0  0  0  0  0  0  0
   -1.1061    5.9110    0.9622 H   0  0  0  0  0  0  0  0  0  0  0  0
  1 23  1  0  0  0  0
  1  2  1  0  0  0  0
  1  3  1  0  0  0  0
  2  9  1  0  0  0  0
  3 14  1  0  0  0  0
  3 10  1  0  0  0  0
  4  1  1  0  0  0  0
  4 15  1  0  0  0  0
  5  2  1  0  0  0  0
  5  6  1  0  0  0  0
  6  7  2  0  0  0  0
  7 26  1  0  0  0  0
  7  8  1  0  0  0  0
  8 27  1  0  0  0  0
  9  8  2  0  0  0  0
 10  9  1  1  0  0  0
 10 11  1  0  0  0  0
 11 12  2  0  0  0  0
 11 28  1  0  0  0  0
 12 20  1  0  0  0  0
 13 29  1  0  0  0  0
 13 12  1  0  0  0  0
 14 13  2  0  0  0  0
 15 16  1  1  0  0  0
 15 14  1  0  0  0  0
 16 30  1  0  0  0  0
 17 16  2  0  0  0  0
 18 19  2  0  0  0  0
 18 17  1  0  0  0  0
 19  4  1  0  0  0  0
 21  1  1  0  0  0  0
 22  1  1  0  0  0  0
 24  5  1  0  0  0  0
 25  6  1  0  0  0  0
 31 17  1  0  0  0  0
 32 18  1  0  0  0  0
 33 19  1  0  0  0  0
M  END
$$$$
