CSD_code = ICITAQ | q = 0 | S = 0 | Stoichiometry = C26H30Cl2Zr | MND = 12
 OpenBabel04212202053D

 59 64  0  0  1  0  0  0  0  0999 V2000
   -1.3274   11.2231    4.4821 Zr  0  0  0  0  0  0  0  0  0  0  0  0
   -1.1107    9.5338    2.8662 Cl  0  0  0  0  0  0  0  0  0  0  0  0
   -1.1741    9.4576    6.0264 Cl  0  0  0  0  0  0  0  0  0  0  0  0
    0.7177   11.9792    3.2003 C   0  0  0  0  0  0  0  0  0  0  0  0
   -3.4788   11.4805    5.7866 C   0  0  0  0  0  0  0  0  0  0  0  0
    0.0361   13.1811    3.6253 C   0  0  0  0  0  0  0  0  0  0  0  0
   -3.0683   12.8151    5.4128 C   0  0  0  0  0  0  0  0  0  0  0  0
    0.0395   13.1909    5.0537 C   0  0  2  0  0  0  0  0  0  0  0  0
   -0.2236   14.0465    5.6613 H   0  0  0  0  0  0  0  0  0  0  0  0
   -3.0807   12.8812    3.9858 C   0  0  2  0  0  0  0  0  0  0  0  0
   -3.0064   13.7966    3.4140 H   0  0  0  0  0  0  0  0  0  0  0  0
    0.7753   12.0602    5.5034 C   0  0  1  0  0  3  0  0  0  0  0  0
   -3.5643   11.6400    3.4885 C   0  0  1  0  0  3  0  0  0  0  0  0
    1.1333   11.2796    4.3762 C   0  0  1  0  0  0  0  0  0  0  0  0
    1.7509   10.3896    4.3788 H   0  0  0  0  0  0  0  0  0  0  0  0
   -3.7438   10.7568    4.5821 C   0  0  1  0  0  0  0  0  0  0  0  0
   -4.1602    9.7576    4.5418 H   0  0  0  0  0  0  0  0  0  0  0  0
   -0.3673   14.1280    2.6640 C   0  0  0  0  0  0  0  0  0  0  0  0
   -0.8158   15.0627    2.9768 H   0  0  0  0  0  0  0  0  0  0  0  0
   -2.8697   13.7863    6.4132 C   0  0  0  0  0  0  0  0  0  0  0  0
   -2.6287   14.8063    6.1404 H   0  0  0  0  0  0  0  0  0  0  0  0
   -0.1233   13.8748    1.3367 C   0  0  0  0  0  0  0  0  0  0  0  0
   -0.4046   14.6034    0.5906 H   0  0  0  0  0  0  0  0  0  0  0  0
   -3.0494   13.4343    7.7281 C   0  0  0  0  0  0  0  0  0  0  0  0
   -2.9246   14.1752    8.5041 H   0  0  0  0  0  0  0  0  0  0  0  0
    0.5095   12.6899    0.9224 C   0  0  0  0  0  0  0  0  0  0  0  0
    0.6840   12.5360   -0.1315 H   0  0  0  0  0  0  0  0  0  0  0  0
   -3.4158   12.1269    8.0920 C   0  0  0  0  0  0  0  0  0  0  0  0
   -3.5500   11.8976    9.1380 H   0  0  0  0  0  0  0  0  0  0  0  0
    0.9299   11.7475    1.8285 C   0  0  0  0  0  0  0  0  0  0  0  0
    1.4469   10.8555    1.5026 H   0  0  0  0  0  0  0  0  0  0  0  0
   -3.6315   11.1542    7.1470 C   0  0  0  0  0  0  0  0  0  0  0  0
   -3.9475   10.1608    7.4342 H   0  0  0  0  0  0  0  0  0  0  0  0
    1.2537   11.8826    6.9311 C   0  0  0  0  0  0  0  0  0  0  0  0
   -4.0035   11.4220    2.0538 C   0  0  0  0  0  0  0  0  0  0  0  0
    2.2982   12.9779    7.2082 C   0  0  0  0  0  0  0  0  0  0  0  0
    3.1216   12.9027    6.5016 H   0  0  0  0  0  0  0  0  0  0  0  0
    2.6945   12.8681    8.2148 H   0  0  0  0  0  0  0  0  0  0  0  0
    1.8590   13.9680    7.1163 H   0  0  0  0  0  0  0  0  0  0  0  0
   -4.3531    9.9549    1.7892 C   0  0  0  0  0  0  0  0  0  0  0  0
   -4.6217    9.8245    0.7434 H   0  0  0  0  0  0  0  0  0  0  0  0
   -5.2014    9.6453    2.3954 H   0  0  0  0  0  0  0  0  0  0  0  0
   -3.5039    9.3117    2.0071 H   0  0  0  0  0  0  0  0  0  0  0  0
    1.9066   10.5135    7.1403 C   0  0  0  0  0  0  0  0  0  0  0  0
    1.2120    9.7145    6.8926 H   0  0  0  0  0  0  0  0  0  0  0  0
    2.1990   10.4021    8.1818 H   0  0  0  0  0  0  0  0  0  0  0  0
    2.7997   10.4144    6.5277 H   0  0  0  0  0  0  0  0  0  0  0  0
   -2.8921   11.8674    1.0939 C   0  0  0  0  0  0  0  0  0  0  0  0
   -2.6841   12.9307    1.1985 H   0  0  0  0  0  0  0  0  0  0  0  0
   -3.1965   11.6851    0.0655 H   0  0  0  0  0  0  0  0  0  0  0  0
   -1.9752   11.3066    1.2855 H   0  0  0  0  0  0  0  0  0  0  0  0
    0.0750   12.0439    7.9004 C   0  0  0  0  0  0  0  0  0  0  0  0
   -0.3558   13.0412    7.8341 H   0  0  0  0  0  0  0  0  0  0  0  0
    0.4135   11.8924    8.9231 H   0  0  0  0  0  0  0  0  0  0  0  0
   -0.7011   11.3075    7.6826 H   0  0  0  0  0  0  0  0  0  0  0  0
   -5.2583   12.2809    1.8184 C   0  0  0  0  0  0  0  0  0  0  0  0
   -5.0392   13.3371    1.9539 H   0  0  0  0  0  0  0  0  0  0  0  0
   -6.0437   12.0026    2.5174 H   0  0  0  0  0  0  0  0  0  0  0  0
   -5.6266   12.1318    0.8062 H   0  0  0  0  0  0  0  0  0  0  0  0
  1 16  1  0  0  0  0
  1  8  1  0  0  0  0
  1  3  1  0  0  0  0
  2  1  1  0  0  0  0
  4  6  1  0  0  0  0
  4 14  1  0  0  0  0
  5 32  1  0  0  0  0
  6  8  1  0  0  0  0
  7  5  2  0  0  0  0
  7 20  1  0  0  0  0
  8 12  1  0  0  0  0
  8  9  1  1  0  0  0
 10 11  1  6  0  0  0
 10  1  1  0  0  0  0
 10  7  1  0  0  0  0
 12 34  1  6  0  0  0
 13 35  1  1  0  0  0
 13 10  1  0  0  0  0
 13 16  1  0  0  0  0
 14 15  1  1  0  0  0
 14  1  1  0  0  0  0
 14 12  1  0  0  0  0
 16 17  1  6  0  0  0
 16  5  1  0  0  0  0
 18 19  1  0  0  0  0
 18  6  2  0  0  0  0
 20 24  2  0  0  0  0
 21 20  1  0  0  0  0
 22 18  1  0  0  0  0
 23 22  1  0  0  0  0
 24 28  1  0  0  0  0
 24 25  1  0  0  0  0
 26 22  2  0  0  0  0
 26 30  1  0  0  0  0
 27 26  1  0  0  0  0
 28 29  1  0  0  0  0
 30  4  2  0  0  0  0
 31 30  1  0  0  0  0
 32 33  1  0  0  0  0
 32 28  2  0  0  0  0
 34 44  1  0  0  0  0
 34 36  1  0  0  0  0
 34 52  1  0  0  0  0
 36 38  1  0  0  0  0
 37 36  1  0  0  0  0
 39 36  1  0  0  0  0
 40 43  1  0  0  0  0
 40 35  1  0  0  0  0
 40 42  1  0  0  0  0
 41 40  1  0  0  0  0
 44 46  1  0  0  0  0
 45 44  1  0  0  0  0
 47 44  1  0  0  0  0
 48 49  1  0  0  0  0
 48 51  1  0  0  0  0
 48 35  1  0  0  0  0
 50 48  1  0  0  0  0
 52 54  1  0  0  0  0
 53 52  1  0  0  0  0
 55 52  1  0  0  0  0
 56 57  1  0  0  0  0
 56 35  1  0  0  0  0
 56 58  1  0  0  0  0
 59 56  1  0  0  0  0
M  END
$$$$
