CSD_code = ICITET | q = 0 | S = 0 | Stoichiometry = C12H12Cl3NO3PtS | MND = 6
 OpenBabel04212202053D

 33 35  0  0  0  0  0  0  0  0999 V2000
    0.8210    2.5417    2.5847 Pt  0  0  0  0  0  0  0  0  0  0  0  0
    1.7134    4.2684    1.2516 Cl  0  0  0  0  0  0  0  0  0  0  0  0
   -0.1423    0.9805    4.0654 Cl  0  0  0  0  0  0  0  0  0  0  0  0
    1.1113    0.9143    0.8769 Cl  0  0  0  0  0  0  0  0  0  0  0  0
   -1.2070    2.7387    1.4691 S   0  0  0  0  0  0  0  0  0  0  0  0
   -2.0956    3.7241    2.0246 O   0  0  0  0  0  1  0  0  0  0  0  0
    2.6640    2.3485    3.5782 O   0  0  0  0  0  0  0  0  0  0  0  0
   -0.4488    4.5250    4.0700 O   0  0  0  0  0  1  0  0  0  0  0  0
    0.5961    3.9018    4.0336 N   0  0  0  0  0  0  0  0  0  0  0  0
    1.6272    4.0198    4.8666 C   0  0  0  0  0  0  0  0  0  0  0  0
    2.7283    3.1402    4.5605 C   0  0  0  0  0  0  0  0  0  0  0  0
    1.6905    4.9283    5.9915 C   0  0  0  0  0  0  0  0  0  0  0  0
    3.8892    3.1854    5.3909 C   0  0  0  0  0  0  0  0  0  0  0  0
    2.8713    4.9192    6.7739 C   0  0  0  0  0  0  0  0  0  0  0  0
    0.7808    6.6388    7.4254 C   0  0  0  0  0  0  0  0  0  0  0  0
   -0.9824    3.1141   -0.2857 C   0  0  0  0  0  0  0  0  0  0  0  0
   -2.0936    1.1643    1.3957 C   0  0  0  0  0  0  0  0  0  0  0  0
    2.9713    5.7825    7.8732 C   0  0  0  0  0  0  0  0  0  0  0  0
    3.9426    4.0382    6.4418 C   0  0  0  0  0  0  0  0  0  0  0  0
    0.6542    5.8000    6.3367 C   0  0  0  0  0  0  0  0  0  0  0  0
    1.9389    6.6328    8.1968 C   0  0  0  0  0  0  0  0  0  0  0  0
    4.7011    2.5204    5.1436 H   0  0  0  0  0  0  0  0  0  0  0  0
    4.8250    4.0651    7.0653 H   0  0  0  0  0  0  0  0  0  0  0  0
    3.8748    5.7694    8.4647 H   0  0  0  0  0  0  0  0  0  0  0  0
    2.0255    7.2935    9.0458 H   0  0  0  0  0  0  0  0  0  0  0  0
   -0.0293    7.3054    7.6786 H   0  0  0  0  0  0  0  0  0  0  0  0
   -0.2499    5.8173    5.7494 H   0  0  0  0  0  0  0  0  0  0  0  0
   -1.4460    0.4436    0.9089 H   0  0  0  0  0  0  0  0  0  0  0  0
   -3.0133    1.3317    0.8463 H   0  0  0  0  0  0  0  0  0  0  0  0
   -2.3078    0.8560    2.4140 H   0  0  0  0  0  0  0  0  0  0  0  0
   -0.4888    4.0778   -0.3586 H   0  0  0  0  0  0  0  0  0  0  0  0
   -1.9660    3.1535   -0.7404 H   0  0  0  0  0  0  0  0  0  0  0  0
   -0.3606    2.3350   -0.7124 H   0  0  0  0  0  0  0  0  0  0  0  0
  1  7  1  0  0  0  0
  1  9  1  0  0  0  0
  1  3  1  0  0  0  0
  2  1  1  0  0  0  0
  4  1  1  0  0  0  0
  5  6  1  0  0  0  0
  5  1  1  0  0  0  0
  7 11  1  0  0  0  0
  9  8  1  0  0  0  0
  9 10  1  0  0  0  0
 10 12  1  0  0  0  0
 11 10  2  0  0  0  0
 11 13  1  0  0  0  0
 12 20  2  0  0  0  0
 12 14  1  0  0  0  0
 13 19  2  0  0  0  0
 14 18  2  0  0  0  0
 15 26  1  0  0  0  0
 15 21  2  0  0  0  0
 16  5  1  0  0  0  0
 17  5  1  0  0  0  0
 17 30  1  0  0  0  0
 18 21  1  0  0  0  0
 18 24  1  0  0  0  0
 19 14  1  0  0  0  0
 19 23  1  0  0  0  0
 20 15  1  0  0  0  0
 21 25  1  0  0  0  0
 22 13  1  0  0  0  0
 27 20  1  0  0  0  0
 28 17  1  0  0  0  0
 29 17  1  0  0  0  0
 31 16  1  0  0  0  0
 32 16  1  0  0  0  0
 33 16  1  0  0  0  0
M  END
$$$$
