CSD_code = ICIXAT | q = 0 | S = 0 | Stoichiometry = C18H22Cl2O4W | MND = 6
 OpenBabel04212202053D

 47 49  0  0  0  0  0  0  0  0999 V2000
    7.1413   11.5716    0.7603 W   0  0  0  0  0  0  0  0  0  0  0  0
    5.3867   12.9029    1.7111 Cl  0  0  0  0  0  0  0  0  0  0  0  0
    8.9229   10.1542   -0.0120 Cl  0  0  0  0  0  0  0  0  0  0  0  0
    8.2306   12.0855    2.1577 O   0  0  0  0  0  0  0  0  0  0  0  0
    6.6504   10.2132    1.9065 O   0  0  0  0  0  0  0  0  0  0  0  0
    6.0901   10.8971   -0.5047 O   0  0  0  0  0  0  0  0  0  0  0  0
    7.6869   12.9843   -0.1691 O   0  0  0  0  0  0  0  0  0  0  0  0
    8.3807   11.1505    3.1810 C   0  0  0  0  0  0  0  0  0  0  0  0
    8.6136   11.6437    4.1365 H   0  0  0  0  0  0  0  0  0  0  0  0
    9.2041   10.4607    2.9074 H   0  0  0  0  0  0  0  0  0  0  0  0
    7.0419   10.3753    3.2346 C   0  0  0  0  0  0  0  0  0  0  0  0
    7.1450    9.4026    3.7381 H   0  0  0  0  0  0  0  0  0  0  0  0
    6.2749   10.9844    3.7541 H   0  0  0  0  0  0  0  0  0  0  0  0
    5.2348   10.5614   -1.4941 C   0  0  0  0  0  0  0  0  0  0  0  0
    3.9425   10.1418   -1.1494 C   0  0  0  0  0  0  0  0  0  0  0  0
    3.0657    9.8089   -2.1683 C   0  0  0  0  0  0  0  0  0  0  0  0
    2.0671    9.4811   -1.9209 H   0  0  0  0  0  0  0  0  0  0  0  0
    3.4611    9.8938   -3.4940 C   0  0  0  0  0  0  0  0  0  0  0  0
    2.7680    9.6286   -4.2778 H   0  0  0  0  0  0  0  0  0  0  0  0
    4.7374   10.3178   -3.8193 C   0  0  0  0  0  0  0  0  0  0  0  0
    5.0393   10.3860   -4.8538 H   0  0  0  0  0  0  0  0  0  0  0  0
    5.6469   10.6597   -2.8281 C   0  0  0  0  0  0  0  0  0  0  0  0
    3.5834   10.1043    0.3054 C   0  0  0  0  0  0  0  0  0  0  0  0
    4.4592    9.8118    0.8994 H   0  0  0  0  0  0  0  0  0  0  0  0
    2.7706    9.4072    0.4915 H   0  0  0  0  0  0  0  0  0  0  0  0
    3.2765   11.0979    0.6398 H   0  0  0  0  0  0  0  0  0  0  0  0
    7.0385   11.1313   -3.1395 C   0  0  0  0  0  0  0  0  0  0  0  0
    7.5665   10.3916   -3.7388 H   0  0  0  0  0  0  0  0  0  0  0  0
    7.6064   11.2953   -2.2116 H   0  0  0  0  0  0  0  0  0  0  0  0
    7.0103   12.0658   -3.6999 H   0  0  0  0  0  0  0  0  0  0  0  0
    8.0867   13.9118   -1.0632 C   0  0  0  0  0  0  0  0  0  0  0  0
    7.1211   14.5996   -1.8084 C   0  0  0  0  0  0  0  0  0  0  0  0
    7.5546   15.5296   -2.7408 C   0  0  0  0  0  0  0  0  0  0  0  0
    6.8253   16.0690   -3.3267 H   0  0  0  0  0  0  0  0  0  0  0  0
    8.9066   15.7697   -2.9218 C   0  0  0  0  0  0  0  0  0  0  0  0
    9.2278   16.4990   -3.6499 H   0  0  0  0  0  0  0  0  0  0  0  0
    9.8495   15.0823   -2.1752 C   0  0  0  0  0  0  0  0  0  0  0  0
   10.9016   15.2763   -2.3211 H   0  0  0  0  0  0  0  0  0  0  0  0
    9.4569   14.1416   -1.2360 C   0  0  0  0  0  0  0  0  0  0  0  0
    5.6736   14.3037   -1.5464 C   0  0  0  0  0  0  0  0  0  0  0  0
    5.5504   13.2609   -1.2193 H   0  0  0  0  0  0  0  0  0  0  0  0
    5.0708   14.4734   -2.4352 H   0  0  0  0  0  0  0  0  0  0  0  0
    5.2984   14.9433   -0.7456 H   0  0  0  0  0  0  0  0  0  0  0  0
   10.4142   13.3418   -0.4050 C   0  0  0  0  0  0  0  0  0  0  0  0
   11.3470   13.8794   -0.2549 H   0  0  0  0  0  0  0  0  0  0  0  0
   10.6343   12.3907   -0.8941 H   0  0  0  0  0  0  0  0  0  0  0  0
    9.9619   13.1148    0.5697 H   0  0  0  0  0  0  0  0  0  0  0  0
  1  2  1  0  0  0  0
  1  5  1  0  0  0  0
  1  4  1  0  0  0  0
  3  1  1  0  0  0  0
  4  8  1  0  0  0  0
  5 11  1  0  0  0  0
  6  1  1  0  0  0  0
  7  1  1  0  0  0  0
  8 11  1  0  0  0  0
  8  9  1  0  0  0  0
 10  8  1  0  0  0  0
 11 12  1  0  0  0  0
 11 13  1  0  0  0  0
 14 15  1  0  0  0  0
 14  6  1  0  0  0  0
 15 23  1  0  0  0  0
 16 17  1  0  0  0  0
 16 15  2  0  0  0  0
 18 16  1  0  0  0  0
 19 18  1  0  0  0  0
 20 18  2  0  0  0  0
 20 22  1  0  0  0  0
 21 20  1  0  0  0  0
 22 14  2  0  0  0  0
 23 25  1  0  0  0  0
 23 26  1  0  0  0  0
 23 24  1  0  0  0  0
 27 22  1  0  0  0  0
 27 29  1  0  0  0  0
 28 27  1  0  0  0  0
 30 27  1  0  0  0  0
 31  7  1  0  0  0  0
 32 40  1  0  0  0  0
 32 31  2  0  0  0  0
 33 32  1  0  0  0  0
 34 33  1  0  0  0  0
 35 33  2  0  0  0  0
 35 37  1  0  0  0  0
 36 35  1  0  0  0  0
 37 39  2  0  0  0  0
 38 37  1  0  0  0  0
 39 31  1  0  0  0  0
 39 44  1  0  0  0  0
 40 41  1  0  0  0  0
 40 43  1  0  0  0  0
 42 40  1  0  0  0  0
 44 45  1  0  0  0  0
 44 47  1  0  0  0  0
 46 44  1  0  0  0  0
M  END
$$$$
