CSD_code = ICOGUD | q = 1 | S = 0 | Stoichiometry = C34H28Cl2N2P2Rh(1+) | MND = 6
 OpenBabel04212202053D

 69 76  0  0  1  0  0  0  0  0999 V2000
    0.0006    0.0002   12.8217 Rh  0  0  0  0  0  0  0  0  0  0  0  0
    0.3781    1.8268   11.5437 P   0  0  0  0  0  4  0  0  0  0  0  0
    2.2620   -0.5141   12.9009 Cl  0  0  0  0  0  0  0  0  0  0  0  0
    0.4202    1.6443   14.0523 N   0  0  0  0  0  0  0  0  0  0  0  0
    0.6769    2.6228   13.1650 C   0  0  2  0  0  3  0  0  0  0  0  0
    1.0470    3.8958   13.5578 C   0  0  0  0  0  0  0  0  0  0  0  0
    1.2340    4.6646   12.8247 H   0  0  0  0  0  0  0  0  0  0  0  0
    1.1644    4.1548   14.9175 C   0  0  0  0  0  0  0  0  0  0  0  0
    1.4535    5.1357   15.2628 H   0  0  0  0  0  0  0  0  0  0  0  0
    0.9021    3.1390   15.8216 C   0  0  0  0  0  0  0  0  0  0  0  0
    0.9828    3.3070   16.8835 H   0  0  0  0  0  0  0  0  0  0  0  0
    0.5286    1.8890   15.3470 C   0  0  0  0  0  0  0  0  0  0  0  0
    0.3147    1.0792   16.0311 H   0  0  0  0  0  0  0  0  0  0  0  0
   -0.9124    2.8133   10.7517 C   0  0  0  0  0  0  0  0  0  0  0  0
   -1.8445    3.5215   11.5042 C   0  0  0  0  0  0  0  0  0  0  0  0
   -1.7846    3.5200   12.5830 H   0  0  0  0  0  0  0  0  0  0  0  0
   -2.8538    4.2141   10.8614 C   0  0  0  0  0  0  0  0  0  0  0  0
   -3.5758    4.7678   11.4416 H   0  0  0  0  0  0  0  0  0  0  0  0
   -2.9447    4.1911    9.4783 C   0  0  0  0  0  0  0  0  0  0  0  0
   -3.7370    4.7308    8.9828 H   0  0  0  0  0  0  0  0  0  0  0  0
   -2.0252    3.4726    8.7299 C   0  0  0  0  0  0  0  0  0  0  0  0
   -2.1007    3.4511    7.6533 H   0  0  0  0  0  0  0  0  0  0  0  0
   -1.0107    2.7784    9.3624 C   0  0  0  0  0  0  0  0  0  0  0  0
   -0.2897    2.2114    8.7878 H   0  0  0  0  0  0  0  0  0  0  0  0
    1.8339    2.0296   10.4895 C   0  0  0  0  0  0  0  0  0  0  0  0
    2.4214    0.9024    9.9267 C   0  0  0  0  0  0  0  0  0  0  0  0
    2.0228   -0.0785   10.1514 H   0  0  0  0  0  0  0  0  0  0  0  0
    3.5206    1.0465    9.0988 C   0  0  0  0  0  0  0  0  0  0  0  0
    3.9832    0.1730    8.6654 H   0  0  0  0  0  0  0  0  0  0  0  0
    4.0274    2.3083    8.8338 C   0  0  0  0  0  0  0  0  0  0  0  0
    4.8900    2.4191    8.1948 H   0  0  0  0  0  0  0  0  0  0  0  0
    3.4281    3.4331    9.3816 C   0  0  0  0  0  0  0  0  0  0  0  0
    3.8208    4.4148    9.1643 H   0  0  0  0  0  0  0  0  0  0  0  0
    2.3264    3.3003   10.2053 C   0  0  0  0  0  0  0  0  0  0  0  0
    1.8418    4.1741   10.6176 H   0  0  0  0  0  0  0  0  0  0  0  0
   -0.3783   -1.8270   11.5436 P   0  0  0  0  0  4  0  0  0  0  0  0
   -2.2615    0.5132   12.9015 Cl  0  0  0  0  0  0  0  0  0  0  0  0
   -0.4205   -1.6440   14.0519 N   0  0  0  0  0  0  0  0  0  0  0  0
   -0.6770   -2.6229   13.1648 C   0  0  2  0  0  3  0  0  0  0  0  0
   -1.0469   -3.8959   13.5577 C   0  0  0  0  0  0  0  0  0  0  0  0
   -1.2339   -4.6648   12.8248 H   0  0  0  0  0  0  0  0  0  0  0  0
   -1.1644   -4.1547   14.9175 C   0  0  0  0  0  0  0  0  0  0  0  0
   -1.4533   -5.1356   15.2629 H   0  0  0  0  0  0  0  0  0  0  0  0
   -0.9021   -3.1388   15.8214 C   0  0  0  0  0  0  0  0  0  0  0  0
   -0.9827   -3.3067   16.8834 H   0  0  0  0  0  0  0  0  0  0  0  0
   -0.5288   -1.8887   15.3467 C   0  0  0  0  0  0  0  0  0  0  0  0
   -0.3148   -1.0789   16.0307 H   0  0  0  0  0  0  0  0  0  0  0  0
    0.9124   -2.8133   10.7516 C   0  0  0  0  0  0  0  0  0  0  0  0
    1.8445   -3.5214   11.5042 C   0  0  0  0  0  0  0  0  0  0  0  0
    1.7846   -3.5199   12.5830 H   0  0  0  0  0  0  0  0  0  0  0  0
    2.8538   -4.2141   10.8614 C   0  0  0  0  0  0  0  0  0  0  0  0
    3.5758   -4.7678   11.4417 H   0  0  0  0  0  0  0  0  0  0  0  0
    2.9447   -4.1912    9.4783 C   0  0  0  0  0  0  0  0  0  0  0  0
    3.7371   -4.7308    8.9829 H   0  0  0  0  0  0  0  0  0  0  0  0
    2.0253   -3.4727    8.7299 C   0  0  0  0  0  0  0  0  0  0  0  0
    2.1007   -3.4512    7.6533 H   0  0  0  0  0  0  0  0  0  0  0  0
    1.0108   -2.7784    9.3623 C   0  0  0  0  0  0  0  0  0  0  0  0
    0.2898   -2.2115    8.7878 H   0  0  0  0  0  0  0  0  0  0  0  0
   -1.8340   -2.0297   10.4894 C   0  0  0  0  0  0  0  0  0  0  0  0
   -2.4215   -0.9024    9.9267 C   0  0  0  0  0  0  0  0  0  0  0  0
   -2.0229    0.0785   10.1514 H   0  0  0  0  0  0  0  0  0  0  0  0
   -3.5207   -1.0464    9.0988 C   0  0  0  0  0  0  0  0  0  0  0  0
   -3.9833   -0.1729    8.6654 H   0  0  0  0  0  0  0  0  0  0  0  0
   -4.0275   -2.3082    8.8337 C   0  0  0  0  0  0  0  0  0  0  0  0
   -4.8901   -2.4190    8.1948 H   0  0  0  0  0  0  0  0  0  0  0  0
   -3.4282   -3.4331    9.3815 C   0  0  0  0  0  0  0  0  0  0  0  0
   -3.8209   -4.4147    9.1642 H   0  0  0  0  0  0  0  0  0  0  0  0
   -2.3265   -3.3003   10.2051 C   0  0  0  0  0  0  0  0  0  0  0  0
   -1.8419   -4.1741   10.6174 H   0  0  0  0  0  0  0  0  0  0  0  0
  1  3  1  0  0  0  0
  1 37  1  0  0  0  0
  1 38  1  0  0  0  0
  1  4  1  0  0  0  0
  2  1  1  0  0  0  0
  2  5  1  0  0  0  0
  4 12  1  0  0  0  0
  5  6  1  1  0  0  0
  5  4  1  0  0  0  0
  6  8  2  0  0  0  0
  7  6  1  0  0  0  0
  8  9  1  0  0  0  0
  8 10  1  0  0  0  0
 10 11  1  0  0  0  0
 12 10  2  0  0  0  0
 12 13  1  0  0  0  0
 14 15  1  0  0  0  0
 14  2  1  0  0  0  0
 15 16  1  0  0  0  0
 17 18  1  0  0  0  0
 17 15  2  0  0  0  0
 19 17  1  0  0  0  0
 20 19  1  0  0  0  0
 21 23  1  0  0  0  0
 21 19  2  0  0  0  0
 22 21  1  0  0  0  0
 23 14  2  0  0  0  0
 24 23  1  0  0  0  0
 25  2  1  0  0  0  0
 26 27  1  0  0  0  0
 26 25  2  0  0  0  0
 28 26  1  0  0  0  0
 29 28  1  0  0  0  0
 30 28  2  0  0  0  0
 30 32  1  0  0  0  0
 31 30  1  0  0  0  0
 32 34  2  0  0  0  0
 33 32  1  0  0  0  0
 34 25  1  0  0  0  0
 34 35  1  0  0  0  0
 36  1  1  0  0  0  0
 36 39  1  0  0  0  0
 38 46  1  0  0  0  0
 39 40  1  1  0  0  0
 39 38  1  0  0  0  0
 40 42  2  0  0  0  0
 41 40  1  0  0  0  0
 42 43  1  0  0  0  0
 42 44  1  0  0  0  0
 44 45  1  0  0  0  0
 46 44  2  0  0  0  0
 46 47  1  0  0  0  0
 48 49  1  0  0  0  0
 48 36  1  0  0  0  0
 49 50  1  0  0  0  0
 51 52  1  0  0  0  0
 51 49  2  0  0  0  0
 53 51  1  0  0  0  0
 54 53  1  0  0  0  0
 55 57  1  0  0  0  0
 55 53  2  0  0  0  0
 56 55  1  0  0  0  0
 57 48  2  0  0  0  0
 58 57  1  0  0  0  0
 59 36  1  0  0  0  0
 60 61  1  0  0  0  0
 60 59  2  0  0  0  0
 62 60  1  0  0  0  0
 63 62  1  0  0  0  0
 64 62  2  0  0  0  0
 64 66  1  0  0  0  0
 65 64  1  0  0  0  0
 66 68  2  0  0  0  0
 67 66  1  0  0  0  0
 68 59  1  0  0  0  0
 68 69  1  0  0  0  0
M  END
$$$$
