CSD_code = ICOJUH | q = 0 | S = 0 | Stoichiometry = C26H36BrN3Pt | MND = 6
 OpenBabel04212202053D

 67 70  0  0  1  0  0  0  0  0999 V2000
   -1.9330    7.7774    3.4720 Pt  0  0  0  0  0  0  0  0  0  0  0  0
   -4.1439    6.5356    3.9638 Br  0  0  0  0  0  0  0  0  0  0  0  0
   -2.4357    8.2663    1.5378 C   0  0  0  0  0  0  0  0  0  0  0  0
   -1.5613    8.0928    0.9068 H   0  0  0  0  0  0  0  0  0  0  0  0
   -2.7608    9.2965    1.3977 H   0  0  0  0  0  0  0  0  0  0  0  0
   -3.2482    7.6030    1.2311 H   0  0  0  0  0  0  0  0  0  0  0  0
   -2.7947    9.5562    4.0520 C   0  0  0  0  0  0  0  0  0  0  0  0
   -2.2299   10.4478    3.7780 H   0  0  0  0  0  0  0  0  0  0  0  0
   -2.9072    9.5318    5.1401 H   0  0  0  0  0  0  0  0  0  0  0  0
   -3.7956    9.6382    3.6242 H   0  0  0  0  0  0  0  0  0  0  0  0
   -1.2969    6.9493    5.4563 N   0  0  0  0  0  0  0  0  0  0  0  0
   -1.4811    7.5293    6.6325 C   0  0  0  0  0  3  0  0  0  0  0  0
   -1.5692    8.6079    6.6265 H   0  0  0  0  0  0  0  0  0  0  0  0
   -1.5610    6.8309    7.8201 C   0  0  0  0  0  0  0  0  0  0  0  0
   -1.7201    7.3757    8.7362 H   0  0  0  0  0  0  0  0  0  0  0  0
   -1.4656    5.4399    7.8082 C   0  0  0  0  0  0  0  0  0  0  0  0
   -1.2353    4.8478    6.5742 C   0  0  0  0  0  0  0  0  0  0  0  0
   -1.1669    3.7780    6.4922 H   0  0  0  0  0  0  0  0  0  0  0  0
   -1.1378    5.6211    5.4187 C   0  0  0  0  0  0  0  0  0  0  0  0
   -0.8776    5.0146    4.1017 C   0  0  2  0  0  3  0  0  0  0  0  0
   -0.3506    3.7305    3.9785 C   0  0  0  0  0  0  0  0  0  0  0  0
   -0.0891    3.1858    4.8682 H   0  0  0  0  0  0  0  0  0  0  0  0
   -0.1448    3.1659    2.7277 C   0  0  0  0  0  0  0  0  0  0  0  0
   -0.4910    3.9507    1.6293 C   0  0  0  0  0  0  0  0  0  0  0  0
   -0.3762    3.5874    0.6214 H   0  0  0  0  0  0  0  0  0  0  0  0
   -0.9759    5.2281    1.8253 C   0  0  0  0  0  0  0  0  0  0  0  0
   -1.2274    5.8552    0.9823 H   0  0  0  0  0  0  0  0  0  0  0  0
   -1.1575    5.7553    3.0252 N   0  0  0  0  0  0  0  0  0  0  0  0
   -1.6217    4.6522    9.0937 C   0  0  0  0  0  0  0  0  0  0  0  0
   -0.5546    5.1146   10.0962 C   0  0  0  0  0  0  0  0  0  0  0  0
   -0.6616    6.1688   10.3357 H   0  0  0  0  0  0  0  0  0  0  0  0
    0.4428    4.9545    9.6907 H   0  0  0  0  0  0  0  0  0  0  0  0
   -0.6449    4.5473   11.0195 H   0  0  0  0  0  0  0  0  0  0  0  0
   -3.0239    4.9244    9.6564 C   0  0  0  0  0  0  0  0  0  0  0  0
   -3.7829    4.6401    8.9308 H   0  0  0  0  0  0  0  0  0  0  0  0
   -3.1587    5.9757    9.8950 H   0  0  0  0  0  0  0  0  0  0  0  0
   -3.1784    4.3460   10.5642 H   0  0  0  0  0  0  0  0  0  0  0  0
   -1.4672    3.1442    8.8821 C   0  0  0  0  0  0  0  0  0  0  0  0
   -2.2267    2.7646    8.2025 H   0  0  0  0  0  0  0  0  0  0  0  0
   -1.5869    2.6329    9.8346 H   0  0  0  0  0  0  0  0  0  0  0  0
   -0.4802    2.8997    8.4943 H   0  0  0  0  0  0  0  0  0  0  0  0
    0.4254    1.7756    2.5254 C   0  0  0  0  0  0  0  0  0  0  0  0
    1.7448    1.8983    1.7507 C   0  0  0  0  0  0  0  0  0  0  0  0
    2.4605    2.4886    2.3192 H   0  0  0  0  0  0  0  0  0  0  0  0
    1.5960    2.3778    0.7871 H   0  0  0  0  0  0  0  0  0  0  0  0
    2.1691    0.9115    1.5804 H   0  0  0  0  0  0  0  0  0  0  0  0
   -0.5802    0.9410    1.7197 C   0  0  0  0  0  0  0  0  0  0  0  0
   -0.7461    1.3612    0.7319 H   0  0  0  0  0  0  0  0  0  0  0  0
   -1.5361    0.8973    2.2374 H   0  0  0  0  0  0  0  0  0  0  0  0
   -0.2069   -0.0732    1.5985 H   0  0  0  0  0  0  0  0  0  0  0  0
    0.7029    1.0543    3.8467 C   0  0  0  0  0  0  0  0  0  0  0  0
    1.4370    1.5922    4.4430 H   0  0  0  0  0  0  0  0  0  0  0  0
    1.1035    0.0645    3.6396 H   0  0  0  0  0  0  0  0  0  0  0  0
   -0.2105    0.9308    4.4245 H   0  0  0  0  0  0  0  0  0  0  0  0
   -0.0948    8.7778    3.2482 C   0  0  0  0  0  0  0  0  0  0  0  0
   -0.1290    9.4693    2.4081 H   0  0  0  0  0  0  0  0  0  0  0  0
    0.0967    9.3148    4.1802 H   0  0  0  0  0  0  0  0  0  0  0  0
    0.9040    7.7322    3.0201 C   0  0  0  0  0  0  0  0  0  0  0  0
    1.1235    7.3583    1.7543 N   0  0  0  0  0  0  0  0  0  0  0  0
    1.9791    6.3853    1.5123 C   0  0  0  0  0  0  0  0  0  0  0  0
    2.1102    6.1337    0.4664 H   0  0  0  0  0  0  0  0  0  0  0  0
    2.6803    5.7091    2.4976 C   0  0  0  0  0  0  0  0  0  0  0  0
    3.3694    4.9183    2.2447 H   0  0  0  0  0  0  0  0  0  0  0  0
    2.4803    6.1002    3.8152 C   0  0  0  0  0  0  0  0  0  0  0  0
    3.0165    5.6143    4.6199 H   0  0  0  0  0  0  0  0  0  0  0  0
    1.5962    7.1240    4.0814 C   0  0  0  0  0  0  0  0  0  0  0  0
    1.4320    7.4620    5.0950 H   0  0  0  0  0  0  0  0  0  0  0  0
  1  2  1  0  0  0  0
  1  7  1  0  0  0  0
  1 11  1  0  0  0  0
  3  1  1  0  0  0  0
  4  3  1  0  0  0  0
  5  3  1  0  0  0  0
  6  3  1  0  0  0  0
  7  9  1  0  0  0  0
  8  7  1  0  0  0  0
 10  7  1  0  0  0  0
 11 12  1  0  0  0  0
 12 14  1  0  0  0  0
 13 12  1  0  0  0  0
 14 15  1  0  0  0  0
 16 14  2  0  0  0  0
 16 29  1  0  0  0  0
 17 16  1  0  0  0  0
 18 17  1  0  0  0  0
 19 11  1  0  0  0  0
 19 17  2  0  0  0  0
 20 21  1  1  0  0  0
 20 19  1  0  0  0  0
 21 22  1  0  0  0  0
 23 21  2  0  0  0  0
 24 26  2  0  0  0  0
 24 23  1  0  0  0  0
 25 24  1  0  0  0  0
 26 28  1  0  0  0  0
 27 26  1  0  0  0  0
 28  1  1  0  0  0  0
 28 20  1  0  0  0  0
 29 34  1  0  0  0  0
 29 30  1  0  0  0  0
 30 31  1  0  0  0  0
 30 33  1  0  0  0  0
 32 30  1  0  0  0  0
 34 36  1  0  0  0  0
 34 37  1  0  0  0  0
 35 34  1  0  0  0  0
 38 29  1  0  0  0  0
 38 40  1  0  0  0  0
 39 38  1  0  0  0  0
 41 38  1  0  0  0  0
 42 23  1  0  0  0  0
 42 51  1  0  0  0  0
 43 44  1  0  0  0  0
 43 42  1  0  0  0  0
 45 43  1  0  0  0  0
 46 43  1  0  0  0  0
 47 49  1  0  0  0  0
 47 42  1  0  0  0  0
 48 47  1  0  0  0  0
 50 47  1  0  0  0  0
 51 54  1  0  0  0  0
 51 52  1  0  0  0  0
 53 51  1  0  0  0  0
 55  1  1  0  0  0  0
 55 57  1  0  0  0  0
 56 55  1  0  0  0  0
 58 55  1  0  0  0  0
 58 66  1  0  0  0  0
 59 58  2  0  0  0  0
 60 59  1  0  0  0  0
 60 62  2  0  0  0  0
 61 60  1  0  0  0  0
 62 64  1  0  0  0  0
 63 62  1  0  0  0  0
 64 66  2  0  0  0  0
 64 65  1  0  0  0  0
 66 67  1  0  0  0  0
M  END
$$$$
