CSD_code = IDAPAG | q = 0 | S = 0 | Stoichiometry = C14H12CdI2N2 | MND = 4
 OpenBabel04212202053D

 31 34  0  0  0  0  0  0  0  0999 V2000
    6.8196    3.6393    2.2350 Cd  0  0  0  0  0  0  0  0  0  0  0  0
    7.5808    4.5450    4.6434 I   0  0  0  0  0  0  0  0  0  0  0  0
    5.5347    1.7080    2.7294 N   0  0  0  0  0  0  0  0  0  0  0  0
    4.3106    1.7350    3.2225 C   0  0  0  0  0  0  0  0  0  0  0  0
    3.6123    0.5502    3.5162 C   0  0  0  0  0  0  0  0  0  0  0  0
    2.6138    0.6070    3.9204 H   0  0  0  0  0  0  0  0  0  0  0  0
    4.2103   -0.6593    3.2815 C   0  0  0  0  0  0  0  0  0  0  0  0
    3.6957   -1.5853    3.4930 H   0  0  0  0  0  0  0  0  0  0  0  0
    5.5145   -0.7002    2.7576 C   0  0  0  0  0  0  0  0  0  0  0  0
    6.1487    0.5353    2.4988 C   0  0  0  0  0  0  0  0  0  0  0  0
    6.1915   -1.9213    2.4880 C   0  0  0  0  0  0  0  0  0  0  0  0
    5.6757   -2.8466    2.6971 H   0  0  0  0  0  0  0  0  0  0  0  0
    3.6981    3.0739    3.4729 C   0  0  0  0  0  0  0  0  0  0  0  0
    4.1959    3.5527    4.3208 H   0  0  0  0  0  0  0  0  0  0  0  0
    2.6400    2.9830    3.7019 H   0  0  0  0  0  0  0  0  0  0  0  0
    3.8169    3.7196    2.5977 H   0  0  0  0  0  0  0  0  0  0  0  0
    6.0576    4.5449   -0.1742 I   0  0  0  0  0  0  0  0  0  0  0  0
    8.1042    1.7079    1.7404 N   0  0  0  0  0  0  0  0  0  0  0  0
    9.3283    1.7349    1.2473 C   0  0  0  0  0  0  0  0  0  0  0  0
   10.0266    0.5501    0.9537 C   0  0  0  0  0  0  0  0  0  0  0  0
   11.0251    0.6070    0.5496 H   0  0  0  0  0  0  0  0  0  0  0  0
    9.4285   -0.6594    1.1883 C   0  0  0  0  0  0  0  0  0  0  0  0
    9.9432   -1.5854    0.9768 H   0  0  0  0  0  0  0  0  0  0  0  0
    8.1243   -0.7002    1.7121 C   0  0  0  0  0  0  0  0  0  0  0  0
    7.4901    0.5353    1.9710 C   0  0  0  0  0  0  0  0  0  0  0  0
    7.4472   -1.9213    1.9817 C   0  0  0  0  0  0  0  0  0  0  0  0
    7.9630   -2.8466    1.7726 H   0  0  0  0  0  0  0  0  0  0  0  0
    9.9407    3.0739    0.9971 C   0  0  0  0  0  0  0  0  0  0  0  0
    9.4430    3.5528    0.1493 H   0  0  0  0  0  0  0  0  0  0  0  0
   10.9989    2.9830    0.7680 H   0  0  0  0  0  0  0  0  0  0  0  0
    9.8220    3.7195    1.8723 H   0  0  0  0  0  0  0  0  0  0  0  0
  1  3  1  0  0  0  0
  1  2  1  0  0  0  0
  3  4  1  0  0  0  0
  4 13  1  0  0  0  0
  4  5  2  0  0  0  0
  5  6  1  0  0  0  0
  7  8  1  0  0  0  0
  7  5  1  0  0  0  0
  9  7  2  0  0  0  0
 10  3  1  0  0  0  0
 10  9  1  0  0  0  0
 11 12  1  0  0  0  0
 11  9  1  0  0  0  0
 13 15  1  0  0  0  0
 13 14  1  0  0  0  0
 16 13  1  0  0  0  0
 17  1  1  0  0  0  0
 18 25  1  0  0  0  0
 18  1  1  0  0  0  0
 19 18  1  0  0  0  0
 20 22  1  0  0  0  0
 20 19  2  0  0  0  0
 21 20  1  0  0  0  0
 22 24  2  0  0  0  0
 23 22  1  0  0  0  0
 24 25  1  0  0  0  0
 24 26  1  0  0  0  0
 25 10  2  0  0  0  0
 26 11  2  0  0  0  0
 27 26  1  0  0  0  0
 28 19  1  0  0  0  0
 28 31  1  0  0  0  0
 29 28  1  0  0  0  0
 30 28  1  0  0  0  0
M  END
$$$$
