CSD_code = IDAWER | q = 0 | S = 0 | Stoichiometry = C19H34Cl2Si3Ti | MND = 12
 OpenBabel04212202053D

 59 60  0  0  1  0  0  0  0  0999 V2000
    8.0266    4.3461    5.3678 Ti  0  0  0  0  0  0  0  0  0  0  0  0
    5.8952    4.4055    6.0645 Cl  0  0  0  0  0  0  0  0  0  0  0  0
    8.5414    2.9262    7.0180 Cl  0  0  0  0  0  0  0  0  0  0  0  0
   11.7357    5.0021    5.9325 Si  0  0  0  0  0  0  0  0  0  0  0  0
    6.7831    7.7721    4.3131 Si  0  0  0  0  0  0  0  0  0  0  0  0
    6.1880    1.1467    4.6641 Si  0  0  0  0  0  0  0  0  0  0  0  0
    9.2668    6.2165    4.8109 C   0  0  2  0  0  0  0  0  0  0  0  0
    9.7070    6.4326    3.8475 H   0  0  0  0  0  0  0  0  0  0  0  0
    9.9463    5.5924    5.8850 C   0  0  2  0  0  3  0  0  0  0  0  0
    9.1066    5.7420    7.0253 C   0  0  0  0  0  0  0  0  0  0  0  0
    9.3703    5.4555    8.0355 H   0  0  0  0  0  0  0  0  0  0  0  0
    7.9309    6.3859    6.6399 C   0  0  0  0  0  0  0  0  0  0  0  0
    7.1278    6.6872    7.3010 H   0  0  0  0  0  0  0  0  0  0  0  0
    7.9967    6.6701    5.2440 C   0  0  1  0  0  3  0  0  0  0  0  0
    6.9785    3.6788    3.3803 C   0  0  0  0  0  0  0  0  0  0  0  0
    5.9619    3.9241    3.1088 H   0  0  0  0  0  0  0  0  0  0  0  0
    8.1314    4.3549    2.9554 C   0  0  0  0  0  0  0  0  0  0  0  0
    8.1564    5.2071    2.2890 H   0  0  0  0  0  0  0  0  0  0  0  0
    9.2544    3.6293    3.4194 C   0  0  0  0  0  0  0  0  0  0  0  0
   10.2867    3.8374    3.1725 H   0  0  0  0  0  0  0  0  0  0  0  0
    8.7832    2.5039    4.1150 C   0  0  0  0  0  0  0  0  0  0  0  0
    9.3920    1.7005    4.5080 H   0  0  0  0  0  0  0  0  0  0  0  0
    7.3636    2.5234    4.1130 C   0  0  1  0  0  0  0  0  0  0  0  0
    6.8322   -0.4401    3.8080 C   0  0  0  0  0  0  0  0  0  0  0  0
    6.9252   -0.3094    2.7344 H   0  0  0  0  0  0  0  0  0  0  0  0
    6.1496   -1.2648    3.9813 H   0  0  0  0  0  0  0  0  0  0  0  0
    7.8046   -0.7350    4.1898 H   0  0  0  0  0  0  0  0  0  0  0  0
    6.0725    0.8326    6.5406 C   0  0  0  0  0  0  0  0  0  0  0  0
    5.3307    0.0677    6.7518 H   0  0  0  0  0  0  0  0  0  0  0  0
    5.7825    1.7340    7.0737 H   0  0  0  0  0  0  0  0  0  0  0  0
    7.0206    0.4991    6.9522 H   0  0  0  0  0  0  0  0  0  0  0  0
    4.4559    1.5905    3.9883 C   0  0  0  0  0  0  0  0  0  0  0  0
    4.4602    1.7141    2.9094 H   0  0  0  0  0  0  0  0  0  0  0  0
    4.0878    2.5104    4.4328 H   0  0  0  0  0  0  0  0  0  0  0  0
    3.7444    0.8056    4.2231 H   0  0  0  0  0  0  0  0  0  0  0  0
   12.6510    5.7950    4.4502 C   0  0  0  0  0  0  0  0  0  0  0  0
   12.5750    6.8778    4.4694 H   0  0  0  0  0  0  0  0  0  0  0  0
   12.2661    5.4554    3.4930 H   0  0  0  0  0  0  0  0  0  0  0  0
   13.7055    5.5418    4.4809 H   0  0  0  0  0  0  0  0  0  0  0  0
   11.9178    3.1006    5.8583 C   0  0  0  0  0  0  0  0  0  0  0  0
   11.8633    2.7185    4.8425 H   0  0  0  0  0  0  0  0  0  0  0  0
   11.1383    2.6153    6.4407 H   0  0  0  0  0  0  0  0  0  0  0  0
   12.8752    2.7926    6.2685 H   0  0  0  0  0  0  0  0  0  0  0  0
   12.5011    5.6368    7.5632 C   0  0  0  0  0  0  0  0  0  0  0  0
   13.5730    5.4672    7.5773 H   0  0  0  0  0  0  0  0  0  0  0  0
   12.0780    5.1225    8.4206 H   0  0  0  0  0  0  0  0  0  0  0  0
   12.3341    6.7010    7.7004 H   0  0  0  0  0  0  0  0  0  0  0  0
    7.7895    8.7540    3.0150 C   0  0  0  0  0  0  0  0  0  0  0  0
    8.2060    8.1107    2.2454 H   0  0  0  0  0  0  0  0  0  0  0  0
    8.6120    9.2945    3.4730 H   0  0  0  0  0  0  0  0  0  0  0  0
    7.1560    9.4814    2.5187 H   0  0  0  0  0  0  0  0  0  0  0  0
    5.3776    6.8255    3.4290 C   0  0  0  0  0  0  0  0  0  0  0  0
    4.9542    6.0653    4.0807 H   0  0  0  0  0  0  0  0  0  0  0  0
    5.7171    6.3414    2.5174 H   0  0  0  0  0  0  0  0  0  0  0  0
    4.5768    7.5061    3.1545 H   0  0  0  0  0  0  0  0  0  0  0  0
    6.0092    8.9698    5.5827 C   0  0  0  0  0  0  0  0  0  0  0  0
    5.4164    9.7305    5.0846 H   0  0  0  0  0  0  0  0  0  0  0  0
    6.7657    9.4767    6.1743 H   0  0  0  0  0  0  0  0  0  0  0  0
    5.3525    8.4403    6.2663 H   0  0  0  0  0  0  0  0  0  0  0  0
  1  2  1  0  0  0  0
  1  3  1  0  0  0  0
  4 44  1  0  0  0  0
  5 56  1  0  0  0  0
  6 28  1  0  0  0  0
  7  8  1  6  0  0  0
  7 14  1  0  0  0  0
  7  1  1  0  0  0  0
  7  9  1  0  0  0  0
  9  4  1  1  0  0  0
  9 10  1  0  0  0  0
 10 11  1  0  0  0  0
 12 10  2  0  0  0  0
 12 13  1  0  0  0  0
 14  5  1  1  0  0  0
 14 12  1  0  0  0  0
 15 23  1  0  0  0  0
 16 15  1  0  0  0  0
 17 15  2  0  0  0  0
 17 19  1  0  0  0  0
 18 17  1  0  0  0  0
 19 21  2  0  0  0  0
 20 19  1  0  0  0  0
 21 22  1  0  0  0  0
 23 21  1  0  0  0  0
 23  6  1  1  0  0  0
 23  1  1  0  0  0  0
 24 26  1  0  0  0  0
 24 27  1  0  0  0  0
 24  6  1  0  0  0  0
 25 24  1  0  0  0  0
 28 29  1  0  0  0  0
 28 31  1  0  0  0  0
 28 30  1  0  0  0  0
 32 35  1  0  0  0  0
 32 34  1  0  0  0  0
 32  6  1  0  0  0  0
 33 32  1  0  0  0  0
 36 37  1  0  0  0  0
 36 39  1  0  0  0  0
 36  4  1  0  0  0  0
 38 36  1  0  0  0  0
 40  4  1  0  0  0  0
 40 43  1  0  0  0  0
 40 42  1  0  0  0  0
 41 40  1  0  0  0  0
 44 45  1  0  0  0  0
 44 47  1  0  0  0  0
 44 46  1  0  0  0  0
 48 50  1  0  0  0  0
 48  5  1  0  0  0  0
 49 48  1  0  0  0  0
 51 48  1  0  0  0  0
 52 53  1  0  0  0  0
 52  5  1  0  0  0  0
 54 52  1  0  0  0  0
 55 52  1  0  0  0  0
 56 58  1  0  0  0  0
 56 59  1  0  0  0  0
 57 56  1  0  0  0  0
M  END
$$$$
