CSD_code = IDAYUJ | q = 0 | S = 0 | Stoichiometry = C18H22Cl2N4Zn | MND = 4
 OpenBabel04212202053D

 47 50  0  0  1  0  0  0  0  0999 V2000
    1.1311    5.0111    2.3372 Zn  0  0  0  0  0  0  0  0  0  0  0  0
   -0.2284    5.0611    4.0999 Cl  0  0  0  0  0  0  0  0  0  0  0  0
    1.6316    3.3543    0.9909 Cl  0  0  0  0  0  0  0  0  0  0  0  0
    0.4344    6.7541    1.3415 N   0  0  2  0  0  0  0  0  0  0  0  0
    0.2515    7.9095    2.0036 N   0  0  0  0  0  0  0  0  0  0  0  0
    3.8150    6.6160    2.9114 N   0  0  2  0  0  0  0  0  0  0  0  0
    3.0029    5.5761    3.1691 N   0  0  0  0  0  0  0  0  0  0  0  0
   -0.3532    5.7068   -0.7524 C   0  0  0  0  0  0  0  0  0  0  0  0
   -1.1690    5.0325   -0.4896 H   0  0  0  0  0  0  0  0  0  0  0  0
    0.5678    5.1283   -0.7408 H   0  0  0  0  0  0  0  0  0  0  0  0
   -0.5359    6.0950   -1.7520 H   0  0  0  0  0  0  0  0  0  0  0  0
   -0.2890    6.8184    0.2261 C   0  0  1  0  0  3  0  0  0  0  0  0
   -0.9418    8.0535    0.1726 C   0  0  0  0  0  0  0  0  0  0  0  0
   -1.5975    8.4025   -0.5981 H   0  0  0  0  0  0  0  0  0  0  0  0
   -0.5799    8.7238    1.3246 C   0  0  0  0  0  0  0  0  0  0  0  0
   -0.9837   10.0670    1.8056 C   0  0  0  0  0  0  0  0  0  0  0  0
   -0.1295   10.7432    1.8313 H   0  0  0  0  0  0  0  0  0  0  0  0
   -1.4020   10.0049    2.8095 H   0  0  0  0  0  0  0  0  0  0  0  0
   -1.7367   10.4782    1.1395 H   0  0  0  0  0  0  0  0  0  0  0  0
    0.8990    8.1827    3.2630 C   0  0  0  0  0  0  0  0  0  0  0  0
    1.2668    7.2356    3.6577 H   0  0  0  0  0  0  0  0  0  0  0  0
    0.1457    8.5544    3.9632 H   0  0  0  0  0  0  0  0  0  0  0  0
    2.0034    9.2035    3.1191 C   0  0  0  0  0  0  0  0  0  0  0  0
    1.8184   10.4654    3.6742 C   0  0  0  0  0  0  0  0  0  0  0  0
    0.9214   10.6630    4.2424 H   0  0  0  0  0  0  0  0  0  0  0  0
    2.7591   11.4676    3.5229 C   0  0  0  0  0  0  0  0  0  0  0  0
    2.5920   12.4371    3.9666 H   0  0  0  0  0  0  0  0  0  0  0  0
    3.9044   11.2211    2.7880 C   0  0  0  0  0  0  0  0  0  0  0  0
    4.6375   11.9990    2.6394 H   0  0  0  0  0  0  0  0  0  0  0  0
    4.1113    9.9633    2.2520 C   0  0  0  0  0  0  0  0  0  0  0  0
    5.0102    9.7730    1.6837 H   0  0  0  0  0  0  0  0  0  0  0  0
    3.1855    8.9393    2.4214 C   0  0  0  0  0  0  0  0  0  0  0  0
    3.5159    7.5696    1.8705 C   0  0  0  0  0  0  0  0  0  0  0  0
    2.6882    7.1588    1.2904 H   0  0  0  0  0  0  0  0  0  0  0  0
    4.3870    7.6487    1.2116 H   0  0  0  0  0  0  0  0  0  0  0  0
    6.0031    7.5750    3.6401 C   0  0  0  0  0  0  0  0  0  0  0  0
    5.6440    8.5588    3.9408 H   0  0  0  0  0  0  0  0  0  0  0  0
    6.4050    7.6511    2.6301 H   0  0  0  0  0  0  0  0  0  0  0  0
    6.8032    7.2741    4.3102 H   0  0  0  0  0  0  0  0  0  0  0  0
    4.9109    6.5735    3.6981 C   0  0  2  0  0  3  0  0  0  0  0  0
    4.7843    5.4539    4.4947 C   0  0  0  0  0  0  0  0  0  0  0  0
    5.4741    5.1102    5.2376 H   0  0  0  0  0  0  0  0  0  0  0  0
    3.5752    4.8541    4.1270 C   0  0  0  0  0  0  0  0  0  0  0  0
    2.9622    3.6160    4.6605 C   0  0  0  0  0  0  0  0  0  0  0  0
    2.7487    2.9246    3.8458 H   0  0  0  0  0  0  0  0  0  0  0  0
    2.0195    3.8472    5.1555 H   0  0  0  0  0  0  0  0  0  0  0  0
    3.6327    3.1398    5.3705 H   0  0  0  0  0  0  0  0  0  0  0  0
  1  7  1  0  0  0  0
  1  2  1  0  0  0  0
  3  1  1  0  0  0  0
  4  5  1  1  0  0  0
  4  1  1  0  0  0  0
  5 20  1  0  0  0  0
  6 33  1  6  0  0  0
  6  7  1  0  0  0  0
  6 40  1  0  0  0  0
  7 43  1  0  0  0  0
  8 10  1  0  0  0  0
  8  9  1  0  0  0  0
 11  8  1  0  0  0  0
 12  8  1  1  0  0  0
 12  4  1  0  0  0  0
 13 12  1  0  0  0  0
 13 15  2  0  0  0  0
 14 13  1  0  0  0  0
 15 16  1  0  0  0  0
 15  5  1  0  0  0  0
 16 17  1  0  0  0  0
 16 18  1  0  0  0  0
 19 16  1  0  0  0  0
 20 21  1  0  0  0  0
 20 22  1  0  0  0  0
 23 20  1  0  0  0  0
 23 24  1  0  0  0  0
 24 25  1  0  0  0  0
 26 24  2  0  0  0  0
 26 27  1  0  0  0  0
 28 26  1  0  0  0  0
 29 28  1  0  0  0  0
 30 32  1  0  0  0  0
 30 28  2  0  0  0  0
 31 30  1  0  0  0  0
 32 23  2  0  0  0  0
 33 32  1  0  0  0  0
 34 33  1  0  0  0  0
 35 33  1  0  0  0  0
 36 37  1  0  0  0  0
 36 39  1  0  0  0  0
 38 36  1  0  0  0  0
 40 36  1  6  0  0  0
 40 41  1  0  0  0  0
 41 42  1  0  0  0  0
 43 41  2  0  0  0  0
 43 44  1  0  0  0  0
 44 46  1  0  0  0  0
 44 47  1  0  0  0  0
 45 44  1  0  0  0  0
M  END
$$$$
