CSD_code = IDEYIC | q = 0 | S = 0 | Stoichiometry = C15H21Br4N3OPt | MND = 6
 OpenBabel04212202053D

 45 47  0  0  1  0  0  0  0  0999 V2000
    1.4373    1.1898   22.1830 C   0  0  1  0  0  3  0  0  0  0  0  0
   -0.0471    1.5568   23.7880 C   0  0  0  0  0  0  0  0  0  0  0  0
   -0.4319    1.9652   24.6991 H   0  0  0  0  0  0  0  0  0  0  0  0
   -0.6187    0.7359   22.8806 C   0  0  0  0  0  0  0  0  0  0  0  0
   -1.5910    0.2909   22.8487 H   0  0  0  0  0  0  0  0  0  0  0  0
    2.0927    2.6461   24.1534 C   0  0  0  0  0  0  0  0  0  0  0  0
    2.8171    3.1791   23.5457 H   0  0  0  0  0  0  0  0  0  0  0  0
    2.6307    2.0238   24.8699 H   0  0  0  0  0  0  0  0  0  0  0  0
    1.4894    3.3743   24.6922 H   0  0  0  0  0  0  0  0  0  0  0  0
   -0.0336   -0.3647   20.7967 C   0  0  0  0  0  0  0  0  0  0  0  0
    0.8630   -0.6164   20.2310 H   0  0  0  0  0  0  0  0  0  0  0  0
   -0.7232    0.1624   20.1304 H   0  0  0  0  0  0  0  0  0  0  0  0
   -0.6608   -1.6356   21.3086 C   0  0  0  0  0  0  0  0  0  0  0  0
    0.0118   -2.4104   22.2462 C   0  0  0  0  0  0  0  0  0  0  0  0
    0.9840   -2.1021   22.6000 H   0  0  0  0  0  0  0  0  0  0  0  0
   -0.5525   -3.5820   22.7155 C   0  0  0  0  0  0  0  0  0  0  0  0
   -0.0210   -4.1790   23.4408 H   0  0  0  0  0  0  0  0  0  0  0  0
   -1.7912   -3.9918   22.2506 C   0  0  0  0  0  0  0  0  0  0  0  0
   -2.2295   -4.9089   22.6142 H   0  0  0  0  0  0  0  0  0  0  0  0
   -2.4631   -3.2262   21.3135 C   0  0  0  0  0  0  0  0  0  0  0  0
   -3.4273   -3.5430   20.9450 H   0  0  0  0  0  0  0  0  0  0  0  0
   -1.9019   -2.0498   20.8469 C   0  0  0  0  0  0  0  0  0  0  0  0
   -2.4283   -1.4549   20.1142 H   0  0  0  0  0  0  0  0  0  0  0  0
    5.1437    0.5656   18.6391 C   0  0  0  0  0  0  0  0  0  0  0  0
    4.2241    0.2080   18.1710 H   0  0  0  0  0  0  0  0  0  0  0  0
    5.6217   -0.2628   19.1681 H   0  0  0  0  0  0  0  0  0  0  0  0
    6.0917    1.0956   17.5589 C   0  0  0  0  0  0  0  0  0  0  0  0
    6.3715    0.2942   16.8741 H   0  0  0  0  0  0  0  0  0  0  0  0
    5.5895    1.8957   16.9896 H   0  0  0  0  0  0  0  0  0  0  0  0
    7.0336    2.5984   19.0557 C   0  0  0  0  0  0  0  0  0  0  0  0
    6.5775    3.4681   18.5536 H   0  0  0  0  0  0  0  0  0  0  0  0
    8.0009    2.8917   19.4649 H   0  0  0  0  0  0  0  0  0  0  0  0
    6.1086    2.1113   20.1756 C   0  0  0  0  0  0  0  0  0  0  0  0
    6.5868    1.2869   20.7110 H   0  0  0  0  0  0  0  0  0  0  0  0
    5.9223    2.9307   20.8737 H   0  0  0  0  0  0  0  0  0  0  0  0
    1.2162    1.8314   23.3489 N   0  0  0  0  0  0  0  0  0  0  0  0
    0.3060    0.5134   21.9010 N   0  0  0  0  0  0  0  0  0  0  0  0
    4.8420    1.6314   19.6052 N   0  0  0  0  0  4  0  0  0  0  0  0
    4.4550    2.4136   19.0605 H   0  0  0  0  0  0  0  0  0  0  0  0
    7.2894    1.5778   18.1202 O   0  0  0  0  0  0  0  0  0  0  0  0
    3.3340   -1.1941   20.7799 Br  0  0  0  0  0  0  0  0  0  0  0  0
    1.7288    1.6167   18.8435 Br  0  0  0  0  0  0  0  0  0  0  0  0
    3.1167    3.9006   21.0768 Br  0  0  0  0  0  0  0  0  0  0  0  0
    4.6875    1.0531   22.9624 Br  0  0  0  0  0  0  0  0  0  0  0  0
    3.1147    1.3347   20.9841 Pt  0  0  0  0  0  0  0  0  0  0  0  0
  1 45  1  6  0  0  0
  1 36  1  0  0  0  0
  2  3  1  0  0  0  0
  4  2  2  0  0  0  0
  5  4  1  0  0  0  0
  6  9  1  0  0  0  0
  6  8  1  0  0  0  0
  7  6  1  0  0  0  0
 10 13  1  0  0  0  0
 10 37  1  0  0  0  0
 11 10  1  0  0  0  0
 12 10  1  0  0  0  0
 13 14  1  0  0  0  0
 14 15  1  0  0  0  0
 14 16  2  0  0  0  0
 16 17  1  0  0  0  0
 18 19  1  0  0  0  0
 18 16  1  0  0  0  0
 20 18  2  0  0  0  0
 21 20  1  0  0  0  0
 22 13  2  0  0  0  0
 22 20  1  0  0  0  0
 23 22  1  0  0  0  0
 24 26  1  0  0  0  0
 24 38  1  0  0  0  0
 25 24  1  0  0  0  0
 27 40  1  0  0  0  0
 27 24  1  0  0  0  0
 28 27  1  0  0  0  0
 29 27  1  0  0  0  0
 30 32  1  0  0  0  0
 30 33  1  0  0  0  0
 31 30  1  0  0  0  0
 33 34  1  0  0  0  0
 33 35  1  0  0  0  0
 36  2  1  0  0  0  0
 36  6  1  0  0  0  0
 37  1  1  0  0  0  0
 37  4  1  0  0  0  0
 38 33  1  0  0  0  0
 38 45  1  0  0  0  0
 39 38  1  0  0  0  0
 40 30  1  0  0  0  0
 41 45  1  0  0  0  0
 42 45  1  0  0  0  0
 45 43  1  0  0  0  0
 45 44  1  0  0  0  0
M  END
$$$$
