CSD_code = IDILOZ | q = 0 | S = 0 | Stoichiometry = C20H23Br2FeN2P | MND = 5
 OpenBabel04212202053D

 49 53  0  0  1  0  0  0  0  0999 V2000
    4.2195    2.7414   17.2259 Fe  0  0  0  0  0  0  0  0  0  0  0  0
    3.7230    4.5408   15.9345 Br  0  0  0  0  0  0  0  0  0  0  0  0
    6.1075    1.9714   18.2087 Br  0  0  0  0  0  0  0  0  0  0  0  0
    4.6388    1.6874   15.6429 N   0  0  0  0  0  0  0  0  0  0  0  0
    2.6792    1.7540   17.1748 N   0  0  0  0  0  0  0  0  0  0  0  0
    3.4155    3.6142   19.1047 P   0  0  0  0  0  4  0  0  0  0  0  0
    5.7203    1.8032   14.8793 C   0  0  0  0  0  3  0  0  0  0  0  0
    6.4275    2.5703   15.1671 H   0  0  0  0  0  0  0  0  0  0  0  0
    5.9472    1.0012   13.7821 C   0  0  0  0  0  0  0  0  0  0  0  0
    6.8395    1.1313   13.1926 H   0  0  0  0  0  0  0  0  0  0  0  0
    5.0054    0.0250   13.4619 C   0  0  0  0  0  0  0  0  0  0  0  0
    5.1585   -0.6258   12.6149 H   0  0  0  0  0  0  0  0  0  0  0  0
    3.8737   -0.0914   14.2369 C   0  0  0  0  0  0  0  0  0  0  0  0
    3.1227   -0.8300   14.0093 H   0  0  0  0  0  0  0  0  0  0  0  0
    3.7022    0.7644   15.3301 C   0  0  0  0  0  0  0  0  0  0  0  0
    2.5591    0.8203   16.2011 C   0  0  0  0  0  0  0  0  0  0  0  0
    1.3892    0.0538   16.0429 C   0  0  0  0  0  0  0  0  0  0  0  0
    1.3587   -0.6959   15.2691 H   0  0  0  0  0  0  0  0  0  0  0  0
    0.3064    0.2761   16.8407 C   0  0  0  0  0  0  0  0  0  0  0  0
   -0.6050   -0.2888   16.7236 H   0  0  0  0  0  0  0  0  0  0  0  0
    0.3765    1.2914   17.8273 C   0  0  0  0  0  0  0  0  0  0  0  0
   -0.7049    1.6452   18.6504 C   0  0  0  0  0  0  0  0  0  0  0  0
   -1.6365    1.1112   18.5353 H   0  0  0  0  0  0  0  0  0  0  0  0
   -0.5895    2.6578   19.5706 C   0  0  0  0  0  0  0  0  0  0  0  0
   -1.4360    2.9315   20.1826 H   0  0  0  0  0  0  0  0  0  0  0  0
    0.6208    3.3339   19.7334 C   0  0  0  0  0  0  0  0  0  0  0  0
    0.6934    4.1267   20.4626 H   0  0  0  0  0  0  0  0  0  0  0  0
    1.7116    2.9947   18.9603 C   0  0  0  0  0  0  0  0  0  0  0  0
    1.5963    1.9907   17.9775 C   0  0  2  0  0  3  0  0  0  0  0  0
    3.9405    2.7445   20.6872 C   0  0  0  0  0  0  0  0  0  0  0  0
    5.0346    2.8207   20.7017 H   0  0  0  0  0  0  0  0  0  0  0  0
    3.5622    1.2669   20.5750 C   0  0  0  0  0  0  0  0  0  0  0  0
    4.0869    0.6912   21.3347 H   0  0  0  0  0  0  0  0  0  0  0  0
    3.8322    0.8569   19.6022 H   0  0  0  0  0  0  0  0  0  0  0  0
    2.4909    1.1321   20.7182 H   0  0  0  0  0  0  0  0  0  0  0  0
    3.3943    3.3192   21.9896 C   0  0  0  0  0  0  0  0  0  0  0  0
    2.3068    3.3590   21.9786 H   0  0  0  0  0  0  0  0  0  0  0  0
    3.7911    4.3098   22.1975 H   0  0  0  0  0  0  0  0  0  0  0  0
    3.6937    2.6670   22.8089 H   0  0  0  0  0  0  0  0  0  0  0  0
    3.2421    5.3966   19.6138 C   0  0  0  0  0  0  0  0  0  0  0  0
    2.8087    5.3908   20.6204 H   0  0  0  0  0  0  0  0  0  0  0  0
    2.3258    6.2049   18.7012 C   0  0  0  0  0  0  0  0  0  0  0  0
    2.1228    7.1723   19.1583 H   0  0  0  0  0  0  0  0  0  0  0  0
    1.3774    5.6959   18.5384 H   0  0  0  0  0  0  0  0  0  0  0  0
    2.7870    6.3792   17.7344 H   0  0  0  0  0  0  0  0  0  0  0  0
    4.6481    5.9920   19.6593 C   0  0  0  0  0  0  0  0  0  0  0  0
    5.0847    5.9919   18.6609 H   0  0  0  0  0  0  0  0  0  0  0  0
    5.2986    5.4175   20.3189 H   0  0  0  0  0  0  0  0  0  0  0  0
    4.6167    7.0204   20.0145 H   0  0  0  0  0  0  0  0  0  0  0  0
  1  3  1  0  0  0  0
  1  6  1  0  0  0  0
  2  1  1  0  0  0  0
  4  1  1  0  0  0  0
  5  1  1  0  0  0  0
  5 29  1  0  0  0  0
  6 40  1  0  0  0  0
  6 30  1  0  0  0  0
  7  8  1  0  0  0  0
  7  4  1  0  0  0  0
  9  7  1  0  0  0  0
 10  9  1  0  0  0  0
 11  9  2  0  0  0  0
 11 13  1  0  0  0  0
 12 11  1  0  0  0  0
 13 15  2  0  0  0  0
 14 13  1  0  0  0  0
 15  4  1  0  0  0  0
 15 16  1  0  0  0  0
 16  5  1  0  0  0  0
 17 16  2  0  0  0  0
 17 19  1  0  0  0  0
 18 17  1  0  0  0  0
 19 21  2  0  0  0  0
 20 19  1  0  0  0  0
 21 22  1  0  0  0  0
 22 24  2  0  0  0  0
 23 22  1  0  0  0  0
 24 26  1  0  0  0  0
 24 25  1  0  0  0  0
 26 27  1  0  0  0  0
 28  6  1  0  0  0  0
 28 26  2  0  0  0  0
 29 21  1  6  0  0  0
 29 28  1  0  0  0  0
 30 31  1  0  0  0  0
 30 36  1  0  0  0  0
 32 30  1  0  0  0  0
 32 35  1  0  0  0  0
 32 33  1  0  0  0  0
 34 32  1  0  0  0  0
 36 38  1  0  0  0  0
 36 39  1  0  0  0  0
 37 36  1  0  0  0  0
 40 46  1  0  0  0  0
 40 41  1  0  0  0  0
 42 43  1  0  0  0  0
 42 40  1  0  0  0  0
 44 42  1  0  0  0  0
 45 42  1  0  0  0  0
 46 49  1  0  0  0  0
 46 48  1  0  0  0  0
 47 46  1  0  0  0  0
M  END
$$$$
