CSD_code = IDILUF | q = 0 | S = 0 | Stoichiometry = C25H23Br2FeN3 | MND = 5
 OpenBabel04212202053D

 54 59  0  0  1  0  0  0  0  0999 V2000
    6.4524    8.0592    7.0815 Fe  0  0  0  0  0  0  0  0  0  0  0  0
    4.9442    6.4007    6.5491 Br  0  0  0  0  0  0  0  0  0  0  0  0
    5.6498    9.4277    5.4029 Br  0  0  0  0  0  0  0  0  0  0  0  0
    7.6530    6.6880    7.8254 N   0  0  0  0  0  0  0  0  0  0  0  0
    7.9957    9.0300    7.1716 N   0  0  0  0  0  0  0  0  0  0  0  0
    5.8276    9.0876    8.5194 N   0  0  0  0  0  0  0  0  0  0  0  0
    7.3869    5.5077    8.3795 C   0  0  0  0  0  3  0  0  0  0  0  0
    6.3931    5.3947    8.7870 H   0  0  0  0  0  0  0  0  0  0  0  0
    8.3062    4.4818    8.4288 C   0  0  0  0  0  0  0  0  0  0  0  0
    8.0397    3.5405    8.8797 H   0  0  0  0  0  0  0  0  0  0  0  0
    9.5694    4.6827    7.8733 C   0  0  0  0  0  0  0  0  0  0  0  0
   10.3011    3.8895    7.8751 H   0  0  0  0  0  0  0  0  0  0  0  0
    9.8749    5.9137    7.3363 C   0  0  0  0  0  0  0  0  0  0  0  0
   10.8477    6.1121    6.9161 H   0  0  0  0  0  0  0  0  0  0  0  0
    8.9042    6.9195    7.3405 C   0  0  0  0  0  0  0  0  0  0  0  0
    9.1120    8.2983    6.9759 C   0  0  0  0  0  0  0  0  0  0  0  0
   10.3094    8.9120    6.5688 C   0  0  0  0  0  0  0  0  0  0  0  0
   11.1745    8.3052    6.3552 H   0  0  0  0  0  0  0  0  0  0  0  0
   10.3409   10.2693    6.4105 C   0  0  0  0  0  0  0  0  0  0  0  0
   11.2208   10.7643    6.0299 H   0  0  0  0  0  0  0  0  0  0  0  0
    9.2281   11.0543    6.8079 C   0  0  0  0  0  0  0  0  0  0  0  0
    8.0692   10.3683    7.2577 C   0  0  0  0  0  0  0  0  0  0  0  0
    9.2187   12.4545    6.7904 C   0  0  0  0  0  3  0  0  0  0  0  0
   10.0823   12.9796    6.4114 H   0  0  0  0  0  0  0  0  0  0  0  0
    8.1214   13.1425    7.2572 C   0  0  0  0  0  0  0  0  0  0  0  0
    8.1077   14.2212    7.2166 H   0  0  0  0  0  0  0  0  0  0  0  0
    7.0459   12.4727    7.8265 C   0  0  0  0  0  0  0  0  0  0  0  0
    6.2319   13.0502    8.2326 H   0  0  0  0  0  0  0  0  0  0  0  0
    6.9975   11.0811    7.8658 C   0  0  0  0  0  0  0  0  0  0  0  0
    6.0018   10.3673    8.6441 C   0  0  2  0  0  3  0  0  0  0  0  0
    5.2355   11.1568    9.6675 C   0  0  0  0  0  0  0  0  0  0  0  0
    4.4977   11.7846    9.1696 H   0  0  0  0  0  0  0  0  0  0  0  0
    5.9047   11.7987   10.2362 H   0  0  0  0  0  0  0  0  0  0  0  0
    4.7121   10.4896   10.3474 H   0  0  0  0  0  0  0  0  0  0  0  0
    4.9955    8.3600    9.3934 C   0  0  0  0  0  0  0  0  0  0  0  0
    5.5906    7.7125   10.4844 C   0  0  0  0  0  0  0  0  0  0  0  0
    4.8086    6.9062   11.2950 C   0  0  0  0  0  0  0  0  0  0  0  0
    5.2719    6.3997   12.1300 H   0  0  0  0  0  0  0  0  0  0  0  0
    3.4516    6.7406   11.0586 C   0  0  0  0  0  0  0  0  0  0  0  0
    2.8752    7.4278    9.9996 C   0  0  0  0  0  0  0  0  0  0  0  0
    1.8167    7.3224    9.8135 H   0  0  0  0  0  0  0  0  0  0  0  0
    3.6174    8.2430    9.1605 C   0  0  0  0  0  0  0  0  0  0  0  0
    7.0398    7.9352   10.8032 C   0  0  0  0  0  0  0  0  0  0  0  0
    7.6312    8.0403    9.8951 H   0  0  0  0  0  0  0  0  0  0  0  0
    7.4346    7.1096   11.3903 H   0  0  0  0  0  0  0  0  0  0  0  0
    7.1555    8.8520   11.3838 H   0  0  0  0  0  0  0  0  0  0  0  0
    2.6132    5.8629   11.9356 C   0  0  0  0  0  0  0  0  0  0  0  0
    3.2338    5.2674   12.6006 H   0  0  0  0  0  0  0  0  0  0  0  0
    2.0032    5.1951   11.3304 H   0  0  0  0  0  0  0  0  0  0  0  0
    1.9410    6.4696   12.5426 H   0  0  0  0  0  0  0  0  0  0  0  0
    2.9492    8.9416    8.0206 C   0  0  0  0  0  0  0  0  0  0  0  0
    2.8266    8.2444    7.1919 H   0  0  0  0  0  0  0  0  0  0  0  0
    3.5297    9.7848    7.6576 H   0  0  0  0  0  0  0  0  0  0  0  0
    1.9606    9.2870    8.3139 H   0  0  0  0  0  0  0  0  0  0  0  0
  1  5  1  0  0  0  0
  1  4  1  0  0  0  0
  1  6  1  0  0  0  0
  2  1  1  0  0  0  0
  3  1  1  0  0  0  0
  4  7  1  0  0  0  0
  5 22  1  0  0  0  0
  6 30  1  0  0  0  0
  6 35  1  0  0  0  0
  7  9  1  0  0  0  0
  7  8  1  0  0  0  0
  9 10  1  0  0  0  0
 11 12  1  0  0  0  0
 11  9  2  0  0  0  0
 13 15  2  0  0  0  0
 13 11  1  0  0  0  0
 14 13  1  0  0  0  0
 15  4  1  0  0  0  0
 16  5  1  0  0  0  0
 16 15  1  0  0  0  0
 17 16  2  0  0  0  0
 18 17  1  0  0  0  0
 19 17  1  0  0  0  0
 19 21  2  0  0  0  0
 20 19  1  0  0  0  0
 21 22  1  0  0  0  0
 22 29  2  0  0  0  0
 23 21  1  0  0  0  0
 23 25  1  0  0  0  0
 24 23  1  0  0  0  0
 25 27  2  0  0  0  0
 26 25  1  0  0  0  0
 27 29  1  0  0  0  0
 27 28  1  0  0  0  0
 29 30  1  0  0  0  0
 30 31  1  1  0  0  0
 31 33  1  0  0  0  0
 31 34  1  0  0  0  0
 32 31  1  0  0  0  0
 35 36  1  0  0  0  0
 36 43  1  0  0  0  0
 36 37  2  0  0  0  0
 37 38  1  0  0  0  0
 39 37  1  0  0  0  0
 39 47  1  0  0  0  0
 40 39  2  0  0  0  0
 41 40  1  0  0  0  0
 42 35  2  0  0  0  0
 42 40  1  0  0  0  0
 43 46  1  0  0  0  0
 43 45  1  0  0  0  0
 44 43  1  0  0  0  0
 47 50  1  0  0  0  0
 47 48  1  0  0  0  0
 49 47  1  0  0  0  0
 51 54  1  0  0  0  0
 51 42  1  0  0  0  0
 52 51  1  0  0  0  0
 53 51  1  0  0  0  0
M  END
$$$$
