CSD_code = IDIMIT | q = -1 | S = 0 | Stoichiometry = C12H14Cl2NO2Pd(1-) | MND = 4
 OpenBabel04212202053D

 32 34  0  0  1  0  0  0  0  0999 V2000
   -0.3884    2.5746   10.3725 Pd  0  0  0  0  0  0  0  0  0  0  0  0
    0.0977    4.7524   10.0551 Cl  0  0  0  0  0  0  0  0  0  0  0  0
   -1.4616    2.9355   12.3034 Cl  0  0  0  0  0  0  0  0  0  0  0  0
   -0.8305    0.5322   10.2563 O   0  0  0  0  0  0  0  0  0  0  0  0
   -0.2530   -1.3015    9.1498 O   0  0  0  0  0  0  0  0  0  0  0  0
    0.5035    2.1138    8.5484 N   0  0  2  0  0  4  0  0  0  0  0  0
    1.2985    2.7299    8.3517 H   0  0  0  0  0  0  0  0  0  0  0  0
   -0.4075    2.1525    7.4068 C   0  0  0  0  0  0  0  0  0  0  0  0
   -0.5947    3.1837    7.0971 H   0  0  0  0  0  0  0  0  0  0  0  0
   -1.3566    1.6843    7.6977 H   0  0  0  0  0  0  0  0  0  0  0  0
    0.2914    1.2987    6.3367 C   0  0  0  0  0  0  0  0  0  0  0  0
   -0.4194    0.8651    5.6354 H   0  0  0  0  0  0  0  0  0  0  0  0
    0.9970    1.9129    5.7720 H   0  0  0  0  0  0  0  0  0  0  0  0
    1.0352    0.2332    7.1564 C   0  0  0  0  0  0  0  0  0  0  0  0
    2.0730    0.1312    6.8323 H   0  0  0  0  0  0  0  0  0  0  0  0
    0.5596   -0.7469    7.0899 H   0  0  0  0  0  0  0  0  0  0  0  0
    0.9461    0.7153    8.6200 C   0  0  2  0  0  0  0  0  0  0  0  0
   -0.1576   -0.1091    9.4124 C   0  0  0  0  0  0  0  0  0  0  0  0
    2.2778    0.5813    9.3800 C   0  0  0  0  0  0  0  0  0  0  0  0
    2.5540   -0.4758    9.3755 H   0  0  0  0  0  0  0  0  0  0  0  0
    3.0542    1.1516    8.8540 H   0  0  0  0  0  0  0  0  0  0  0  0
    2.1299    1.0776   10.7951 C   0  0  0  0  0  0  0  0  0  0  0  0
    2.3758    2.4175   11.1105 C   0  0  0  0  0  0  0  0  0  0  0  0
    2.8019    3.0850   10.3677 H   0  0  0  0  0  0  0  0  0  0  0  0
    2.1150    2.8983   12.3884 C   0  0  0  0  0  0  0  0  0  0  0  0
    2.2954    3.9398   12.6136 H   0  0  0  0  0  0  0  0  0  0  0  0
    1.6063    2.0485   13.3586 C   0  0  0  0  0  0  0  0  0  0  0  0
    1.3671    2.4305   14.3395 H   0  0  0  0  0  0  0  0  0  0  0  0
    1.3965    0.7118   13.0624 C   0  0  0  0  0  0  0  0  0  0  0  0
    1.0022    0.0465   13.8166 H   0  0  0  0  0  0  0  0  0  0  0  0
    1.6608    0.2270   11.7927 C   0  0  0  0  0  0  0  0  0  0  0  0
    1.4726   -0.8117   11.5593 H   0  0  0  0  0  0  0  0  0  0  0  0
  1  3  1  0  0  0  0
  2  1  1  0  0  0  0
  4  1  1  0  0  0  0
  5 18  2  0  0  0  0
  6  7  1  6  0  0  0
  6 17  1  0  0  0  0
  6  1  1  0  0  0  0
  8 10  1  0  0  0  0
  8  6  1  0  0  0  0
  9  8  1  0  0  0  0
 11 14  1  0  0  0  0
 11  8  1  0  0  0  0
 12 11  1  0  0  0  0
 13 11  1  0  0  0  0
 14 17  1  0  0  0  0
 15 14  1  0  0  0  0
 16 14  1  0  0  0  0
 17 19  1  1  0  0  0
 17 18  1  0  0  0  0
 18  4  1  0  0  0  0
 19 22  1  0  0  0  0
 20 19  1  0  0  0  0
 21 19  1  0  0  0  0
 22 23  2  0  0  0  0
 22 31  1  0  0  0  0
 23 25  1  0  0  0  0
 24 23  1  0  0  0  0
 25 26  1  0  0  0  0
 25 27  2  0  0  0  0
 27 28  1  0  0  0  0
 29 27  1  0  0  0  0
 29 30  1  0  0  0  0
 31 29  2  0  0  0  0
 32 31  1  0  0  0  0
M  END
$$$$
