CSD_code = IDOSAX | q = 0 | S = 0 | Stoichiometry = C17H28Cl2N2Pd | MND = 4
 OpenBabel04212202053D

 50 52  0  0  1  0  0  0  0  0999 V2000
   17.9424    7.0498   17.0614 Pd  0  0  0  0  0  0  0  0  0  0  0  0
   16.1966    8.2249   16.3318 Cl  0  0  0  0  0  0  0  0  0  0  0  0
   18.6868    8.6954   18.3772 Cl  0  0  0  0  0  0  0  0  0  0  0  0
   17.1493    5.2713   16.1596 N   0  0  1  0  0  4  0  0  0  0  0  0
   16.1774    5.3673   16.4672 H   0  0  0  0  0  0  0  0  0  0  0  0
   19.5012    5.7340   17.6756 N   0  0  0  0  0  4  0  0  0  0  0  0
   19.2419    5.6762   18.6621 H   0  0  0  0  0  0  0  0  0  0  0  0
   17.1215    4.9084   14.7434 C   0  0  0  0  0  0  0  0  0  0  0  0
   18.1116    5.0569   14.3037 H   0  0  0  0  0  0  0  0  0  0  0  0
   16.4039    5.5282   14.2071 H   0  0  0  0  0  0  0  0  0  0  0  0
   16.7705    3.4182   14.7596 C   0  0  0  0  0  0  0  0  0  0  0  0
   15.6964    3.2905   14.8997 H   0  0  0  0  0  0  0  0  0  0  0  0
   17.0579    2.9131   13.8410 H   0  0  0  0  0  0  0  0  0  0  0  0
   17.5388    2.8933   15.9809 C   0  0  0  0  0  0  0  0  0  0  0  0
   18.4875    2.4505   15.6783 H   0  0  0  0  0  0  0  0  0  0  0  0
   16.9726    2.1345   16.5174 H   0  0  0  0  0  0  0  0  0  0  0  0
   17.7900    4.1428   16.8601 C   0  0  1  0  0  0  0  0  0  0  0  0
   17.3410    4.0372   17.8566 H   0  0  0  0  0  0  0  0  0  0  0  0
   19.2930    4.4293   17.0327 C   0  0  0  0  0  0  0  0  0  0  0  0
   19.7519    3.6202   17.6200 H   0  0  0  0  0  0  0  0  0  0  0  0
   19.7805    4.4440   16.0548 H   0  0  0  0  0  0  0  0  0  0  0  0
   20.8430    6.2483   17.5924 C   0  0  0  0  0  0  0  0  0  0  0  0
   21.6819    6.1580   18.7134 C   0  0  0  0  0  0  0  0  0  0  0  0
   21.1979    5.5393   20.0095 C   0  0  0  0  0  0  0  0  0  0  0  0
   20.4672    4.7502   19.7891 H   0  0  0  0  0  0  0  0  0  0  0  0
   20.5215    6.6264   20.8541 C   0  0  0  0  0  0  0  0  0  0  0  0
   21.2621    7.3549   21.1742 H   0  0  0  0  0  0  0  0  0  0  0  0
   20.0589    6.1916   21.7379 H   0  0  0  0  0  0  0  0  0  0  0  0
   19.7650    7.1642   20.2836 H   0  0  0  0  0  0  0  0  0  0  0  0
   22.3126    4.8615   20.8093 C   0  0  0  0  0  0  0  0  0  0  0  0
   22.9809    5.5915   21.2567 H   0  0  0  0  0  0  0  0  0  0  0  0
   22.8940    4.1953   20.1750 H   0  0  0  0  0  0  0  0  0  0  0  0
   21.8762    4.2763   21.6163 H   0  0  0  0  0  0  0  0  0  0  0  0
   22.9530    6.7086   18.6413 C   0  0  0  0  0  0  0  0  0  0  0  0
   23.6036    6.6729   19.4994 H   0  0  0  0  0  0  0  0  0  0  0  0
   23.4011    7.3102   17.4820 C   0  0  0  0  0  0  0  0  0  0  0  0
   24.3929    7.7348   17.4426 H   0  0  0  0  0  0  0  0  0  0  0  0
   22.5748    7.3775   16.3800 C   0  0  0  0  0  0  0  0  0  0  0  0
   22.9291    7.8621   15.4840 H   0  0  0  0  0  0  0  0  0  0  0  0
   21.2875    6.8551   16.4108 C   0  0  0  0  0  0  0  0  0  0  0  0
   20.4228    7.0152   15.1756 C   0  0  0  0  0  0  0  0  0  0  0  0
   19.4538    6.5119   15.3192 H   0  0  0  0  0  0  0  0  0  0  0  0
   20.0933    8.4968   14.9457 C   0  0  0  0  0  0  0  0  0  0  0  0
   20.9958    9.0938   14.8465 H   0  0  0  0  0  0  0  0  0  0  0  0
   19.5122    8.8803   15.7924 H   0  0  0  0  0  0  0  0  0  0  0  0
   19.4978    8.6066   14.0409 H   0  0  0  0  0  0  0  0  0  0  0  0
   21.0933    6.3994   13.9439 C   0  0  0  0  0  0  0  0  0  0  0  0
   21.9899    6.9482   13.6703 H   0  0  0  0  0  0  0  0  0  0  0  0
   20.4121    6.4273   13.0959 H   0  0  0  0  0  0  0  0  0  0  0  0
   21.3759    5.3638   14.1298 H   0  0  0  0  0  0  0  0  0  0  0  0
  1  6  1  0  0  0  0
  1  3  1  0  0  0  0
  2  1  1  0  0  0  0
  4  5  1  1  0  0  0
  4 17  1  0  0  0  0
  4  1  1  0  0  0  0
  6  7  1  0  0  0  0
  8 11  1  0  0  0  0
  8  4  1  0  0  0  0
  9  8  1  0  0  0  0
 10  8  1  0  0  0  0
 11 12  1  0  0  0  0
 11 14  1  0  0  0  0
 13 11  1  0  0  0  0
 14 16  1  0  0  0  0
 14 17  1  0  0  0  0
 15 14  1  0  0  0  0
 17 19  1  0  0  0  0
 17 18  1  1  0  0  0
 19 20  1  0  0  0  0
 19  6  1  0  0  0  0
 21 19  1  0  0  0  0
 22  6  1  0  0  0  0
 22 23  1  0  0  0  0
 23 24  1  0  0  0  0
 24 30  1  0  0  0  0
 24 26  1  0  0  0  0
 25 24  1  0  0  0  0
 26 27  1  0  0  0  0
 26 28  1  0  0  0  0
 29 26  1  0  0  0  0
 30 31  1  0  0  0  0
 30 33  1  0  0  0  0
 32 30  1  0  0  0  0
 34 23  2  0  0  0  0
 34 35  1  0  0  0  0
 36 34  1  0  0  0  0
 37 36  1  0  0  0  0
 38 40  1  0  0  0  0
 38 36  2  0  0  0  0
 39 38  1  0  0  0  0
 40 22  2  0  0  0  0
 41 42  1  0  0  0  0
 41 40  1  0  0  0  0
 43 41  1  0  0  0  0
 43 45  1  0  0  0  0
 44 43  1  0  0  0  0
 46 43  1  0  0  0  0
 47 50  1  0  0  0  0
 47 41  1  0  0  0  0
 48 47  1  0  0  0  0
 49 47  1  0  0  0  0
M  END
$$$$
