CSD_code = IFAWUH | q = 0 | S = 0 | Stoichiometry = C12H17Br2HgN5S | MND = 5
 OpenBabel04212202053D

 38 39  0  0  1  0  0  0  0  0999 V2000
    3.9456    3.9098    7.7538 Hg  0  0  0  0  0  0  0  0  0  0  0  0
    3.3863    5.4055    9.6094 Br  0  0  0  0  0  0  0  0  0  0  0  0
    4.6626    1.4957    7.4660 Br  0  0  0  0  0  0  0  0  0  0  0  0
    5.2235    5.1478    5.6692 S   0  0  0  0  0  0  0  0  0  0  0  0
    1.3631    3.4783    7.2453 N   0  0  0  0  0  0  0  0  0  0  0  0
    3.0847    3.2465    5.1777 N   0  0  0  0  0  2  0  0  0  0  0  0
    4.1871    3.0670    4.4111 N   0  0  0  0  0  0  0  0  0  0  0  0
    4.3134    2.1878    3.9171 H   0  0  0  0  0  0  0  0  0  0  0  0
    6.2743    3.7651    3.6823 N   0  0  0  0  0  0  0  0  0  0  0  0
    2.2063    1.0794    4.7594 N   0  0  0  0  0  4  0  0  0  0  0  0
    1.5652    0.4233    5.1792 H   0  0  0  0  0  0  0  0  0  0  0  0
    3.1179    0.6650    4.6179 H   0  0  0  0  0  0  0  0  0  0  0  0
    0.3856    3.8536    8.0549 C   0  0  0  0  0  0  0  0  0  0  0  0
    0.6735    4.4812    8.8875 H   0  0  0  0  0  0  0  0  0  0  0  0
   -0.9352    3.4713    7.8703 C   0  0  0  0  0  0  0  0  0  0  0  0
   -1.6954    3.8004    8.5599 H   0  0  0  0  0  0  0  0  0  0  0  0
   -1.2452    2.6620    6.7900 C   0  0  0  0  0  0  0  0  0  0  0  0
   -2.2612    2.3429    6.6106 H   0  0  0  0  0  0  0  0  0  0  0  0
   -0.2272    2.2687    5.9372 C   0  0  0  0  0  0  0  0  0  0  0  0
   -0.4317    1.6577    5.0714 H   0  0  0  0  0  0  0  0  0  0  0  0
    1.0679    2.7051    6.1978 C   0  0  0  0  0  0  0  0  0  0  0  0
    2.2055    2.3286    5.3355 C   0  0  0  0  0  0  0  0  0  0  0  0
    5.2361    3.9189    4.5151 C   0  0  1  0  0  3  0  0  0  0  0  0
    6.2264    3.0628    2.4145 C   0  0  0  0  0  0  0  0  0  0  0  0
    5.3834    2.3745    2.3624 H   0  0  0  0  0  0  0  0  0  0  0  0
    7.1488    2.4808    2.3187 H   0  0  0  0  0  0  0  0  0  0  0  0
    6.1321    4.0793    1.2716 C   0  0  0  0  0  0  0  0  0  0  0  0
    5.2014    4.6413    1.3750 H   0  0  0  0  0  0  0  0  0  0  0  0
    6.1076    3.5485    0.3190 H   0  0  0  0  0  0  0  0  0  0  0  0
    7.3181    5.0386    1.3201 C   0  0  0  0  0  0  0  0  0  0  0  0
    8.2402    4.4857    1.1258 H   0  0  0  0  0  0  0  0  0  0  0  0
    7.2132    5.7988    0.5453 H   0  0  0  0  0  0  0  0  0  0  0  0
    7.3986    5.6951    2.6957 C   0  0  0  0  0  0  0  0  0  0  0  0
    6.5229    6.3242    2.8632 H   0  0  0  0  0  0  0  0  0  0  0  0
    8.2872    6.3213    2.7701 H   0  0  0  0  0  0  0  0  0  0  0  0
    7.4444    4.6176    3.7763 C   0  0  0  0  0  0  0  0  0  0  0  0
    8.3267    3.9843    3.6402 H   0  0  0  0  0  0  0  0  0  0  0  0
    7.4765    5.0654    4.7687 H   0  0  0  0  0  0  0  0  0  0  0  0
  1  2  1  0  0  0  0
  3  1  1  0  0  0  0
  4  1  1  0  0  0  0
  5 13  1  0  0  0  0
  6 22  1  0  0  0  0
  7 23  1  0  0  0  0
  7  6  1  0  0  0  0
  8  7  1  0  0  0  0
  9 36  1  0  0  0  0
  9 23  1  0  0  0  0
 10 11  1  0  0  0  0
 10 22  2  0  0  0  0
 12 10  1  0  0  0  0
 13 14  1  0  0  0  0
 15 13  2  0  0  0  0
 15 16  1  0  0  0  0
 17 15  1  0  0  0  0
 18 17  1  0  0  0  0
 19 21  1  0  0  0  0
 19 17  2  0  0  0  0
 20 19  1  0  0  0  0
 21  5  2  0  0  0  0
 22 21  1  0  0  0  0
 23  4  1  6  0  0  0
 24  9  1  0  0  0  0
 25 24  1  0  0  0  0
 26 24  1  0  0  0  0
 27 30  1  0  0  0  0
 27 28  1  0  0  0  0
 27 24  1  0  0  0  0
 29 27  1  0  0  0  0
 30 33  1  0  0  0  0
 31 30  1  0  0  0  0
 32 30  1  0  0  0  0
 33 35  1  0  0  0  0
 33 34  1  0  0  0  0
 33 36  1  0  0  0  0
 36 38  1  0  0  0  0
 37 36  1  0  0  0  0
M  END
$$$$
