CSD_code = IFETOF | q = 0 | S = 0 | Stoichiometry = C18H19AuIN3 | MND = 2
 OpenBabel04212202053D

 42 44  0  0  0  0  0  0  0  0999 V2000
    5.0668    8.1075    9.3120 Au  0  0  0  0  0  0  0  0  0  0  0  0
    6.0524    8.5400   11.6293 I   0  0  0  0  0  0  0  0  0  0  0  0
    3.6047    7.3244    5.4352 N   0  0  0  0  0  0  0  0  0  0  0  0
    2.5791    7.9168    5.9919 N   0  0  0  0  0  2  0  0  0  0  0  0
    4.2309    7.8156    7.4958 C   0  0  0  0  0  0  0  0  0  0  0  0
    2.9670    8.1958    7.2136 N   0  0  0  0  0  0  0  0  0  0  0  0
    4.6492    7.2306    6.2993 C   0  0  0  0  0  0  0  0  0  0  0  0
    5.9402    6.6342    5.9934 C   0  0  0  0  0  0  0  0  0  0  0  0
    7.0982    7.2645    6.4480 C   0  0  0  0  0  0  0  0  0  0  0  0
    7.0158    8.1904    6.9965 H   0  0  0  0  0  0  0  0  0  0  0  0
    3.5267    6.9277    4.0591 C   0  0  0  0  0  0  0  0  0  0  0  0
    3.1454    5.9084    3.9724 H   0  0  0  0  0  0  0  0  0  0  0  0
    4.5154    6.9839    3.6057 H   0  0  0  0  0  0  0  0  0  0  0  0
    2.8386    7.6000    3.5485 H   0  0  0  0  0  0  0  0  0  0  0  0
    2.1135    8.8445    8.1418 C   0  0  0  0  0  0  0  0  0  0  0  0
    1.2599    8.0725    8.9267 C   0  0  0  0  0  0  0  0  0  0  0  0
    0.4769    8.7202    9.8686 C   0  0  0  0  0  0  0  0  0  0  0  0
   -0.1832    8.1360   10.4928 H   0  0  0  0  0  0  0  0  0  0  0  0
    1.2201    6.5848    8.7595 C   0  0  0  0  0  0  0  0  0  0  0  0
    0.9606    6.3202    7.7343 H   0  0  0  0  0  0  0  0  0  0  0  0
    0.4875    6.1436    9.4289 H   0  0  0  0  0  0  0  0  0  0  0  0
    2.1964    6.1532    8.9849 H   0  0  0  0  0  0  0  0  0  0  0  0
    6.0491    5.4331    5.2953 C   0  0  0  0  0  0  0  0  0  0  0  0
    5.1619    4.9059    4.9763 H   0  0  0  0  0  0  0  0  0  0  0  0
    0.5336   10.0972   10.0350 C   0  0  0  0  0  0  0  0  0  0  0  0
    3.1308   11.0222    7.4216 C   0  0  0  0  0  0  0  0  0  0  0  0
    4.1630   10.7713    7.6710 H   0  0  0  0  0  0  0  0  0  0  0  0
    2.9897   12.0869    7.5830 H   0  0  0  0  0  0  0  0  0  0  0  0
    2.9751   10.8046    6.3651 H   0  0  0  0  0  0  0  0  0  0  0  0
   -0.2870   10.7734   11.0876 C   0  0  0  0  0  0  0  0  0  0  0  0
   -1.1716   10.1895   11.3287 H   0  0  0  0  0  0  0  0  0  0  0  0
   -0.5916   11.7663   10.7653 H   0  0  0  0  0  0  0  0  0  0  0  0
    0.3051   10.8823   11.9965 H   0  0  0  0  0  0  0  0  0  0  0  0
    2.1888   10.2296    8.2742 C   0  0  0  0  0  0  0  0  0  0  0  0
    8.4396    5.5230    5.4903 C   0  0  0  0  0  0  0  0  0  0  0  0
    9.4090    5.0903    5.2949 H   0  0  0  0  0  0  0  0  0  0  0  0
    8.3382    6.7115    6.1950 C   0  0  0  0  0  0  0  0  0  0  0  0
    9.2275    7.2081    6.5518 H   0  0  0  0  0  0  0  0  0  0  0  0
    7.2938    4.8845    5.0469 C   0  0  0  0  0  0  0  0  0  0  0  0
    7.3671    3.9500    4.5105 H   0  0  0  0  0  0  0  0  0  0  0  0
    1.3886   10.8365    9.2283 C   0  0  0  0  0  0  0  0  0  0  0  0
    1.4411   11.9081    9.3524 H   0  0  0  0  0  0  0  0  0  0  0  0
  1  2  1  0  0  0  0
  3  4  1  0  0  0  0
  3  7  1  0  0  0  0
  4  6  1  0  0  0  0
  5  1  1  0  0  0  0
  6  5  1  0  0  0  0
  6 15  1  0  0  0  0
  7  5  2  0  0  0  0
  8  7  1  0  0  0  0
  8  9  1  0  0  0  0
  9 10  1  0  0  0  0
 11  3  1  0  0  0  0
 12 11  1  0  0  0  0
 13 11  1  0  0  0  0
 14 11  1  0  0  0  0
 15 34  2  0  0  0  0
 15 16  1  0  0  0  0
 16 17  2  0  0  0  0
 17 25  1  0  0  0  0
 17 18  1  0  0  0  0
 19 16  1  0  0  0  0
 19 22  1  0  0  0  0
 19 21  1  0  0  0  0
 20 19  1  0  0  0  0
 23  8  2  0  0  0  0
 24 23  1  0  0  0  0
 25 30  1  0  0  0  0
 26 28  1  0  0  0  0
 26 27  1  0  0  0  0
 26 34  1  0  0  0  0
 29 26  1  0  0  0  0
 30 31  1  0  0  0  0
 30 33  1  0  0  0  0
 32 30  1  0  0  0  0
 34 41  1  0  0  0  0
 35 37  1  0  0  0  0
 36 35  1  0  0  0  0
 37  9  2  0  0  0  0
 37 38  1  0  0  0  0
 39 23  1  0  0  0  0
 39 35  2  0  0  0  0
 40 39  1  0  0  0  0
 41 42  1  0  0  0  0
 41 25  2  0  0  0  0
M  END
$$$$
