CSD_code = IFEXID | q = 0 | S = 0 | Stoichiometry = C10H9ClN4OPtS | MND = 4
 OpenBabel04212202053D

 27 30  0  0  0  0  0  0  0  0999 V2000
    7.0327    4.8033    0.9236 Pt  0  0  1  0  0  0  0  0  0  0  0  0
    6.4934    6.8839    1.4863 Cl  0  0  0  0  0  0  0  0  0  0  0  0
    6.3415    1.3836    3.6587 S   0  0  0  0  0  0  0  0  0  0  0  0
    5.5644    5.1179    4.2353 O   0  0  0  0  0  0  0  0  0  0  0  0
    6.4546    3.7736    2.6083 N   0  0  0  0  0  0  0  0  0  0  0  0
    7.5092    3.0318    0.4064 N   0  0  0  0  0  0  0  0  0  0  0  0
    7.7519    5.2230   -0.8826 N   0  0  0  0  0  0  0  0  0  0  0  0
    7.2803    2.0296    1.2667 N   0  0  0  0  0  0  0  0  0  0  0  0
    5.8951    4.0396    3.8234 C   0  0  0  0  0  0  0  0  0  0  0  0
    5.7232    2.7572    4.6531 C   0  0  0  0  0  0  0  0  0  0  0  0
    4.6713    2.6045    4.8941 H   0  0  0  0  0  0  0  0  0  0  0  0
    6.2888    2.8333    5.5817 H   0  0  0  0  0  0  0  0  0  0  0  0
    6.7404    2.4753    2.3722 C   0  0  0  0  0  0  0  0  0  0  0  0
    8.1896    4.0951   -1.5158 C   0  0  0  0  0  0  0  0  0  0  0  0
    7.8446    6.4007   -1.4900 C   0  0  0  0  0  0  0  0  0  0  0  0
    7.4769    7.2492   -0.9261 H   0  0  0  0  0  0  0  0  0  0  0  0
    8.3759    6.5383   -2.7604 C   0  0  0  0  0  0  0  0  0  0  0  0
    8.4324    7.5122   -3.2172 H   0  0  0  0  0  0  0  0  0  0  0  0
    8.8298    5.4046   -3.4248 C   0  0  0  0  0  0  0  0  0  0  0  0
    9.2500    5.4807   -4.4158 H   0  0  0  0  0  0  0  0  0  0  0  0
    8.4610    1.5271   -1.2953 C   0  0  0  0  0  0  0  0  0  0  0  0
    8.2367    0.7769   -0.5418 H   0  0  0  0  0  0  0  0  0  0  0  0
    9.5290    1.5127   -1.5081 H   0  0  0  0  0  0  0  0  0  0  0  0
    7.9233    1.2870   -2.2114 H   0  0  0  0  0  0  0  0  0  0  0  0
    8.0451    2.8629   -0.7749 C   0  0  0  0  0  0  0  0  0  0  0  0
    8.7361    4.1770   -2.7996 C   0  0  0  0  0  0  0  0  0  0  0  0
    9.0793    3.2796   -3.2874 H   0  0  0  0  0  0  0  0  0  0  0  0
  1  2  1  6  0  0  0
  1  5  1  0  0  0  0
  3 10  1  0  0  0  0
  5  9  1  0  0  0  0
  6  1  1  0  0  0  0
  6  8  1  0  0  0  0
  7  1  1  0  0  0  0
  8 13  2  0  0  0  0
  9  4  2  0  0  0  0
  9 10  1  0  0  0  0
 10 11  1  0  0  0  0
 10 12  1  0  0  0  0
 13  5  1  0  0  0  0
 13  3  1  0  0  0  0
 14  7  1  0  0  0  0
 14 25  2  0  0  0  0
 15 16  1  0  0  0  0
 15  7  1  0  0  0  0
 17 15  2  0  0  0  0
 18 17  1  0  0  0  0
 19 26  2  0  0  0  0
 19 17  1  0  0  0  0
 20 19  1  0  0  0  0
 21 25  1  0  0  0  0
 21 22  1  0  0  0  0
 23 21  1  0  0  0  0
 24 21  1  0  0  0  0
 25  6  1  0  0  0  0
 26 14  1  0  0  0  0
 27 26  1  0  0  0  0
M  END
$$$$
