CSD_code = IFIBAA | q = 1 | S = 0 | Stoichiometry = C4H14ClN6S2Zn(1+) | MND = 5
 OpenBabel04212202053D

 28 29  0  0  1  0  0  0  0  0999 V2000
   -4.5861    0.6292    2.4945 Zn  0  0  0  0  0  0  0  0  0  0  0  0
   -2.8664    0.1345    3.6599 Cl  0  0  0  0  0  0  0  0  0  0  0  0
   -3.4463    3.1127   -1.1593 S   0  0  0  0  0  0  0  0  0  0  0  0
   -8.3782   -1.0982    4.3515 S   0  0  0  0  0  0  0  0  0  0  0  0
   -5.5642    1.6424    4.3485 N   0  0  0  0  0  4  0  0  0  0  0  0
   -4.8279    1.4856    5.0425 H   0  0  0  0  0  0  0  0  0  0  0  0
   -5.8306    2.6264    4.3796 H   0  0  0  0  0  0  0  0  0  0  0  0
   -3.6266   -0.3800    0.6288 N   0  0  0  0  0  4  0  0  0  0  0  0
   -2.7377   -0.6876    1.0334 H   0  0  0  0  0  0  0  0  0  0  0  0
   -4.0452   -1.1687    0.1361 H   0  0  0  0  0  0  0  0  0  0  0  0
   -6.6808    0.8349    4.5994 N   0  0  0  0  0  0  0  0  0  0  0  0
   -7.1840    0.9244    5.4753 H   0  0  0  0  0  0  0  0  0  0  0  0
   -6.2711   -0.4475    2.7454 N   0  0  0  0  0  0  0  0  0  0  0  0
   -6.5894   -1.2229    2.1830 H   0  0  0  0  0  0  0  0  0  0  0  0
   -3.4410    0.6925   -0.2528 N   0  0  0  0  0  0  0  0  0  0  0  0
   -2.8561    0.5783   -1.0733 H   0  0  0  0  0  0  0  0  0  0  0  0
   -4.4666    2.1546    1.1826 N   0  0  0  0  0  0  0  0  0  0  0  0
   -4.7665    3.1077    1.3258 H   0  0  0  0  0  0  0  0  0  0  0  0
   -3.8434    1.9325    0.0790 C   0  0  2  0  0  3  0  0  0  0  0  0
   -6.9710   -0.2055    3.7977 C   0  0  2  0  0  3  0  0  0  0  0  0
   -8.5196   -2.4174    3.1151 C   0  0  0  0  0  0  0  0  0  0  0  0
   -9.3672   -3.0185    3.4314 H   0  0  0  0  0  0  0  0  0  0  0  0
   -7.6211   -3.0280    3.1201 H   0  0  0  0  0  0  0  0  0  0  0  0
   -8.7234   -1.9927    2.1361 H   0  0  0  0  0  0  0  0  0  0  0  0
   -4.0799    4.6568   -0.4496 C   0  0  0  0  0  0  0  0  0  0  0  0
   -3.8298    5.4291   -1.1714 H   0  0  0  0  0  0  0  0  0  0  0  0
   -3.5787    4.8652    0.4915 H   0  0  0  0  0  0  0  0  0  0  0  0
   -5.1592    4.6025   -0.3382 H   0  0  0  0  0  0  0  0  0  0  0  0
  1 13  1  0  0  0  0
  1  2  1  0  0  0  0
  1  5  1  0  0  0  0
  3 25  1  0  0  0  0
  5  7  1  0  0  0  0
  5 11  1  0  0  0  0
  5  6  1  0  0  0  0
  8  9  1  0  0  0  0
  8  1  1  0  0  0  0
 10  8  1  0  0  0  0
 11 12  1  0  0  0  0
 13 20  1  0  0  0  0
 14 13  1  0  0  0  0
 15 19  1  0  0  0  0
 15  8  1  0  0  0  0
 16 15  1  0  0  0  0
 17 18  1  0  0  0  0
 17  1  1  0  0  0  0
 19  3  1  6  0  0  0
 19 17  1  0  0  0  0
 20  4  1  6  0  0  0
 20 11  1  0  0  0  0
 21 23  1  0  0  0  0
 21 22  1  0  0  0  0
 21  4  1  0  0  0  0
 24 21  1  0  0  0  0
 25 28  1  0  0  0  0
 25 27  1  0  0  0  0
 26 25  1  0  0  0  0
M  END
$$$$
