CSD_code = IFIJAK | q = 1 | S = 0 | Stoichiometry = C28H22Br2N3Pd(1+) | MND = 6
 OpenBabel04212202053D

 56 62  0  0  1  0  0  0  0  0999 V2000
    2.0540    1.7813   14.2432 Pd  0  0  0  0  0  0  0  0  0  0  0  0
    3.1246   -0.2710   14.9351 Br  0  0  0  0  0  0  0  0  0  0  0  0
    4.0352    2.4174   13.0138 Br  0  0  0  0  0  0  0  0  0  0  0  0
    1.3086    0.6591   12.2944 N   0  0  0  0  0  0  0  0  0  0  0  0
    0.2317    1.0672   15.0168 N   0  0  0  0  0  0  0  0  0  0  0  0
    1.0446    3.4105   13.3855 N   0  0  0  0  0  0  0  0  0  0  0  0
    2.0615   -0.1358   11.5427 C   0  0  0  0  0  3  0  0  0  0  0  0
    3.0864   -0.2800   11.8625 H   0  0  0  0  0  0  0  0  0  0  0  0
    1.5681   -0.7538   10.4053 C   0  0  0  0  0  0  0  0  0  0  0  0
    2.2069   -1.3929    9.8189 H   0  0  0  0  0  0  0  0  0  0  0  0
    0.2486   -0.5298   10.0480 C   0  0  0  0  0  0  0  0  0  0  0  0
   -0.1718   -0.9924    9.1687 H   0  0  0  0  0  0  0  0  0  0  0  0
   -0.5330    0.3014   10.8379 C   0  0  0  0  0  0  0  0  0  0  0  0
   -1.5637    0.4947   10.5857 H   0  0  0  0  0  0  0  0  0  0  0  0
    0.0405    0.8788   11.9598 C   0  0  0  0  0  0  0  0  0  0  0  0
   -0.7576    1.8035   12.8779 C   0  0  1  0  0  0  0  0  0  0  0  0
   -1.7725    1.8789   12.4794 H   0  0  0  0  0  0  0  0  0  0  0  0
   -0.8494    1.1555   14.2429 C   0  0  1  0  0  3  0  0  0  0  0  0
   -2.0508    0.5674   14.6242 C   0  0  0  0  0  0  0  0  0  0  0  0
   -2.9192    0.6582   13.9912 H   0  0  0  0  0  0  0  0  0  0  0  0
   -2.1159   -0.1517   15.8052 C   0  0  0  0  0  0  0  0  0  0  0  0
   -3.0358   -0.6305   16.1021 H   0  0  0  0  0  0  0  0  0  0  0  0
   -0.9758   -0.2521   16.5855 C   0  0  0  0  0  0  0  0  0  0  0  0
   -0.9701   -0.8114   17.5062 H   0  0  0  0  0  0  0  0  0  0  0  0
    0.1734    0.3907   16.1625 C   0  0  0  0  0  0  0  0  0  0  0  0
    1.0808    0.3467   16.7520 H   0  0  0  0  0  0  0  0  0  0  0  0
   -0.1403    3.1840   12.8205 C   0  0  2  0  0  3  0  0  0  0  0  0
   -0.7867    4.1771   12.0918 C   0  0  0  0  0  0  0  0  0  0  0  0
   -1.7487    3.9782   11.6467 H   0  0  0  0  0  0  0  0  0  0  0  0
   -0.1789    5.4099   11.9277 C   0  0  0  0  0  0  0  0  0  0  0  0
   -0.6607    6.1832   11.3503 H   0  0  0  0  0  0  0  0  0  0  0  0
    1.0599    5.6230   12.5105 C   0  0  0  0  0  0  0  0  0  0  0  0
    1.5789    6.5612   12.4047 H   0  0  0  0  0  0  0  0  0  0  0  0
    1.6300    4.5991   13.2451 C   0  0  0  0  0  0  0  0  0  0  0  0
    2.5917    4.7320   13.7256 H   0  0  0  0  0  0  0  0  0  0  0  0
    2.6342    2.7999   15.9994 C   0  0  0  0  0  0  0  0  0  0  0  0
    3.9588    2.6575   16.3716 C   0  0  0  0  0  0  0  0  0  0  0  0
    4.6610    2.0720   15.7941 H   0  0  0  0  0  0  0  0  0  0  0  0
    4.4279    3.2730   17.5250 C   0  0  0  0  0  0  0  0  0  0  0  0
    5.4634    3.1502   17.7993 H   0  0  0  0  0  0  0  0  0  0  0  0
    3.5694    4.0249   18.3035 C   0  0  0  0  0  0  0  0  0  0  0  0
    3.9237    4.5032   19.2031 H   0  0  0  0  0  0  0  0  0  0  0  0
    2.2494    4.1602   17.9261 C   0  0  0  0  0  0  0  0  0  0  0  0
    1.5625    4.7431   18.5219 H   0  0  0  0  0  0  0  0  0  0  0  0
    1.7541    3.5539   16.7675 C   0  0  0  0  0  0  0  0  0  0  0  0
    0.3103    3.7795   16.4866 C   0  0  0  0  0  0  0  0  0  0  0  0
   -0.6535    3.0056   17.1261 C   0  0  0  0  0  0  0  0  0  0  0  0
   -0.3426    2.2535   17.8364 H   0  0  0  0  0  0  0  0  0  0  0  0
   -1.9985    3.2149   16.8790 C   0  0  0  0  0  0  0  0  0  0  0  0
   -2.7360    2.6033   17.3766 H   0  0  0  0  0  0  0  0  0  0  0  0
   -2.3988    4.2216   16.0159 C   0  0  0  0  0  0  0  0  0  0  0  0
   -3.4479    4.3835   15.8218 H   0  0  0  0  0  0  0  0  0  0  0  0
   -1.4496    5.0524   15.4454 C   0  0  0  0  0  0  0  0  0  0  0  0
   -1.7568    5.8792   14.8224 H   0  0  0  0  0  0  0  0  0  0  0  0
   -0.1038    4.8432   15.6927 C   0  0  0  0  0  0  0  0  0  0  0  0
    0.6321    5.5268   15.2953 H   0  0  0  0  0  0  0  0  0  0  0  0
  1  2  1  0  0  0  0
  1  5  1  0  0  0  0
  1 36  1  0  0  0  0
  3  1  1  0  0  0  0
  4  1  1  0  0  0  0
  5 25  1  0  0  0  0
  6  1  1  0  0  0  0
  7  8  1  0  0  0  0
  7  4  1  0  0  0  0
  9  7  1  0  0  0  0
 10  9  1  0  0  0  0
 11  9  2  0  0  0  0
 11 13  1  0  0  0  0
 12 11  1  0  0  0  0
 13 15  2  0  0  0  0
 14 13  1  0  0  0  0
 15  4  1  0  0  0  0
 15 16  1  0  0  0  0
 16 17  1  6  0  0  0
 16 18  1  0  0  0  0
 18 19  1  6  0  0  0
 18  5  1  0  0  0  0
 19 21  2  0  0  0  0
 20 19  1  0  0  0  0
 21 22  1  0  0  0  0
 21 23  1  0  0  0  0
 23 24  1  0  0  0  0
 25 23  2  0  0  0  0
 25 26  1  0  0  0  0
 27 28  1  6  0  0  0
 27 16  1  0  0  0  0
 27  6  1  0  0  0  0
 29 28  1  0  0  0  0
 30 28  2  0  0  0  0
 30 32  1  0  0  0  0
 31 30  1  0  0  0  0
 32 34  2  0  0  0  0
 33 32  1  0  0  0  0
 34  6  1  0  0  0  0
 34 35  1  0  0  0  0
 36 37  2  0  0  0  0
 36 45  1  0  0  0  0
 37 39  1  0  0  0  0
 38 37  1  0  0  0  0
 39 40  1  0  0  0  0
 39 41  2  0  0  0  0
 41 42  1  0  0  0  0
 43 41  1  0  0  0  0
 43 44  1  0  0  0  0
 45 43  2  0  0  0  0
 46 45  1  0  0  0  0
 46 47  1  0  0  0  0
 47 48  1  0  0  0  0
 49 47  2  0  0  0  0
 49 50  1  0  0  0  0
 51 49  1  0  0  0  0
 52 51  1  0  0  0  0
 53 55  1  0  0  0  0
 53 51  2  0  0  0  0
 54 53  1  0  0  0  0
 55 46  2  0  0  0  0
 56 55  1  0  0  0  0
M  END
$$$$
