CSD_code = IFIJIS | q = 1 | S = 0 | Stoichiometry = C28H22Cl2N3Pd(1+) | MND = 6
 OpenBabel04212202053D

 56 62  0  0  1  0  0  0  0  0999 V2000
    1.0979    7.3396    4.7793 Pd  0  0  0  0  0  0  0  0  0  0  0  0
   -0.2437    5.5954    5.2685 Cl  0  0  0  0  0  0  0  0  0  0  0  0
    0.0899    8.6297    6.3364 Cl  0  0  0  0  0  0  0  0  0  0  0  0
    2.2270    6.2576    7.6591 C   0  0  0  0  0  3  0  0  0  0  0  0
    1.1633    6.2472    7.8647 H   0  0  0  0  0  0  0  0  0  0  0  0
    3.1636    5.8961    8.6151 C   0  0  0  0  0  0  0  0  0  0  0  0
    2.8448    5.5939    9.5990 H   0  0  0  0  0  0  0  0  0  0  0  0
    4.5064    5.9345    8.2754 C   0  0  0  0  0  0  0  0  0  0  0  0
    5.2644    5.6618    8.9933 H   0  0  0  0  0  0  0  0  0  0  0  0
    4.8707    6.3294    6.9955 C   0  0  0  0  0  0  0  0  0  0  0  0
    5.9087    6.3667    6.7046 H   0  0  0  0  0  0  0  0  0  0  0  0
    3.8692    6.6748    6.1011 C   0  0  0  0  0  0  0  0  0  0  0  0
    4.1833    7.1251    4.6736 C   0  0  2  0  0  0  0  0  0  0  0  0
    5.2669    7.0843    4.5358 H   0  0  0  0  0  0  0  0  0  0  0  0
    3.7533    8.5705    4.5323 C   0  0  2  0  0  3  0  0  0  0  0  0
    4.7231    9.5675    4.5123 C   0  0  0  0  0  0  0  0  0  0  0  0
    5.7692    9.3049    4.5146 H   0  0  0  0  0  0  0  0  0  0  0  0
    4.3342   10.8965    4.5054 C   0  0  0  0  0  0  0  0  0  0  0  0
    5.0742   11.6815    4.5027 H   0  0  0  0  0  0  0  0  0  0  0  0
    2.9805   11.1945    4.5132 C   0  0  0  0  0  0  0  0  0  0  0  0
    2.6294   12.2132    4.5191 H   0  0  0  0  0  0  0  0  0  0  0  0
    2.0721   10.1505    4.5069 C   0  0  0  0  0  0  0  0  0  0  0  0
    1.0044   10.3326    4.5041 H   0  0  0  0  0  0  0  0  0  0  0  0
    1.6764    5.1020    2.8652 C   0  0  0  0  0  3  0  0  0  0  0  0
    0.5944    5.0946    2.8240 H   0  0  0  0  0  0  0  0  0  0  0  0
    2.4296    4.1352    2.2227 C   0  0  0  0  0  0  0  0  0  0  0  0
    1.9402    3.3537    1.6654 H   0  0  0  0  0  0  0  0  0  0  0  0
    3.8105    4.2057    2.3081 C   0  0  0  0  0  0  0  0  0  0  0  0
    4.4355    3.4808    1.8104 H   0  0  0  0  0  0  0  0  0  0  0  0
    4.3793    5.2183    3.0623 C   0  0  0  0  0  0  0  0  0  0  0  0
    5.4511    5.2900    3.1587 H   0  0  0  0  0  0  0  0  0  0  0  0
    3.5579    6.1305    3.7160 C   0  0  0  0  0  0  0  0  0  0  0  0
   -0.2434    7.9625    3.3029 C   0  0  0  0  0  0  0  0  0  0  0  0
   -1.5695    8.0661    3.6842 C   0  0  0  0  0  0  0  0  0  0  0  0
   -1.8870    7.8294    4.6904 H   0  0  0  0  0  0  0  0  0  0  0  0
   -2.5291    8.4769    2.7679 C   0  0  0  0  0  0  0  0  0  0  0  0
   -3.5582    8.5550    3.0811 H   0  0  0  0  0  0  0  0  0  0  0  0
   -2.1605    8.7766    1.4700 C   0  0  0  0  0  0  0  0  0  0  0  0
   -2.8992    9.0962    0.7516 H   0  0  0  0  0  0  0  0  0  0  0  0
   -0.8385    8.6581    1.0914 C   0  0  0  0  0  0  0  0  0  0  0  0
   -0.5335    8.8798    0.0792 H   0  0  0  0  0  0  0  0  0  0  0  0
    0.1443    8.2509    1.9980 C   0  0  0  0  0  0  0  0  0  0  0  0
    1.5283    8.1375    1.4626 C   0  0  0  0  0  0  0  0  0  0  0  0
    1.8914    7.0149    0.7235 C   0  0  0  0  0  0  0  0  0  0  0  0
    1.1580    6.2437    0.5393 H   0  0  0  0  0  0  0  0  0  0  0  0
    3.1689    6.8979    0.2062 C   0  0  0  0  0  0  0  0  0  0  0  0
    3.4389    6.0213   -0.3634 H   0  0  0  0  0  0  0  0  0  0  0  0
    4.0933    7.9115    0.3988 C   0  0  0  0  0  0  0  0  0  0  0  0
    5.0903    7.8192   -0.0036 H   0  0  0  0  0  0  0  0  0  0  0  0
    3.7164    9.0639    1.0667 C   0  0  0  0  0  0  0  0  0  0  0  0
    4.4124    9.8833    1.1698 H   0  0  0  0  0  0  0  0  0  0  0  0
    2.4367    9.1830    1.5817 C   0  0  0  0  0  0  0  0  0  0  0  0
    2.1252   10.1065    2.0470 H   0  0  0  0  0  0  0  0  0  0  0  0
    2.5838    6.6361    6.4387 N   0  0  0  0  0  0  0  0  0  0  0  0
    2.4563    8.8752    4.5198 N   0  0  0  0  0  0  0  0  0  0  0  0
    2.2318    6.0692    3.5916 N   0  0  0  0  0  0  0  0  0  0  0  0
  1  2  1  0  0  0  0
  1  3  1  0  0  0  0
  1 54  1  0  0  0  0
  4  5  1  0  0  0  0
  4  6  1  0  0  0  0
  6  7  1  0  0  0  0
  8  6  2  0  0  0  0
  8  9  1  0  0  0  0
 10  8  1  0  0  0  0
 11 10  1  0  0  0  0
 12 54  1  0  0  0  0
 12 10  2  0  0  0  0
 13 14  1  6  0  0  0
 13 12  1  0  0  0  0
 15 16  1  1  0  0  0
 15 13  1  0  0  0  0
 16 17  1  0  0  0  0
 18 16  2  0  0  0  0
 18 20  1  0  0  0  0
 19 18  1  0  0  0  0
 20 21  1  0  0  0  0
 22 20  2  0  0  0  0
 22 55  1  0  0  0  0
 23 22  1  0  0  0  0
 24 56  1  0  0  0  0
 25 24  1  0  0  0  0
 26 28  2  0  0  0  0
 26 24  1  0  0  0  0
 27 26  1  0  0  0  0
 28 30  1  0  0  0  0
 29 28  1  0  0  0  0
 30 31  1  0  0  0  0
 30 32  2  0  0  0  0
 32 13  1  0  0  0  0
 33 34  1  0  0  0  0
 33  1  1  0  0  0  0
 34 35  1  0  0  0  0
 36 37  1  0  0  0  0
 36 34  2  0  0  0  0
 38 36  1  0  0  0  0
 39 38  1  0  0  0  0
 40 38  2  0  0  0  0
 40 42  1  0  0  0  0
 41 40  1  0  0  0  0
 42 33  2  0  0  0  0
 43 52  1  0  0  0  0
 43 42  1  0  0  0  0
 44 43  2  0  0  0  0
 45 44  1  0  0  0  0
 46 48  2  0  0  0  0
 46 44  1  0  0  0  0
 47 46  1  0  0  0  0
 48 50  1  0  0  0  0
 49 48  1  0  0  0  0
 50 51  1  0  0  0  0
 50 52  2  0  0  0  0
 52 53  1  0  0  0  0
 54  4  1  0  0  0  0
 55 15  1  0  0  0  0
 55  1  1  0  0  0  0
 56 32  1  0  0  0  0
 56  1  1  0  0  0  0
M  END
$$$$
