CSD_code = IFIWOK | q = 0 | S = 0 | Stoichiometry = C28H28Cl2N4Zn | MND = 4
 OpenBabel04212202053D

 63 68  0  0  0  0  0  0  0  0999 V2000
    0.9005    5.1921    0.9079 Zn  0  0  0  0  0  0  0  0  0  0  0  0
   -0.1753    3.4224    0.2044 Cl  0  0  0  0  0  0  0  0  0  0  0  0
    0.3809    7.1317    1.7765 Cl  0  0  0  0  0  0  0  0  0  0  0  0
    2.1086    4.1785    2.4889 N   0  0  0  0  0  4  0  0  0  0  0  0
    2.1024    3.1948    2.2226 H   0  0  0  0  0  0  0  0  0  0  0  0
    3.0830    4.4625    2.5673 H   0  0  0  0  0  0  0  0  0  0  0  0
    1.5752    3.6398    6.1699 N   0  0  0  0  0  0  0  0  0  0  0  0
    2.0845    5.9011   -0.8539 N   0  0  0  0  0  4  0  0  0  0  0  0
    1.8881    6.9012   -0.8770 H   0  0  0  0  0  0  0  0  0  0  0  0
    3.0913    5.8097   -0.7320 H   0  0  0  0  0  0  0  0  0  0  0  0
    2.1640    5.2476   -4.5528 N   0  0  0  0  0  0  0  0  0  0  0  0
    0.5543    2.8465    6.6470 C   0  0  0  0  0  0  0  0  0  0  0  0
   -0.0622    1.7490    6.0642 C   0  0  0  0  0  0  0  0  0  0  0  0
    0.2147    1.3954    5.0821 H   0  0  0  0  0  0  0  0  0  0  0  0
   -1.0605    1.1143    6.7787 C   0  0  0  0  0  0  0  0  0  0  0  0
   -1.5565    0.2586    6.3452 H   0  0  0  0  0  0  0  0  0  0  0  0
   -1.4440    1.5563    8.0425 C   0  0  0  0  0  0  0  0  0  0  0  0
   -2.2288    1.0332    8.5681 H   0  0  0  0  0  0  0  0  0  0  0  0
   -0.8393    2.6520    8.6254 C   0  0  0  0  0  0  0  0  0  0  0  0
   -1.1395    2.9973    9.6031 H   0  0  0  0  0  0  0  0  0  0  0  0
    0.1662    3.3067    7.9267 C   0  0  0  0  0  0  0  0  0  0  0  0
    0.9853    4.4509    8.2135 C   0  0  0  0  0  0  0  0  0  0  0  0
    1.0690    5.3199    9.2930 C   0  0  0  0  0  0  0  0  0  0  0  0
    0.4267    5.1896   10.1507 H   0  0  0  0  0  0  0  0  0  0  0  0
    1.9865    6.3504    9.2434 C   0  0  0  0  0  0  0  0  0  0  0  0
    2.0669    7.0385   10.0716 H   0  0  0  0  0  0  0  0  0  0  0  0
    2.8119    6.5215    8.1349 C   0  0  0  0  0  0  0  0  0  0  0  0
    3.5159    7.3405    8.1219 H   0  0  0  0  0  0  0  0  0  0  0  0
    2.7472    5.6695    7.0487 C   0  0  0  0  0  0  0  0  0  0  0  0
    3.3907    5.8235    6.1951 H   0  0  0  0  0  0  0  0  0  0  0  0
    1.8312    4.6288    7.0940 C   0  0  0  0  0  0  0  0  0  0  0  0
    2.6991    4.0629   -5.0083 C   0  0  0  0  0  0  0  0  0  0  0  0
    3.6924    3.2683   -4.4548 C   0  0  0  0  0  0  0  0  0  0  0  0
    4.1699    3.5244   -3.5202 H   0  0  0  0  0  0  0  0  0  0  0  0
    4.0589    2.1229   -5.1358 C   0  0  0  0  0  0  0  0  0  0  0  0
    4.8291    1.4874   -4.7240 H   0  0  0  0  0  0  0  0  0  0  0  0
    3.4547    1.7683   -6.3392 C   0  0  0  0  0  0  0  0  0  0  0  0
    3.7678    0.8643   -6.8397 H   0  0  0  0  0  0  0  0  0  0  0  0
    2.4636    2.5529   -6.8945 C   0  0  0  0  0  0  0  0  0  0  0  0
    1.9936    2.2762   -7.8260 H   0  0  0  0  0  0  0  0  0  0  0  0
    2.0783    3.7086   -6.2287 C   0  0  0  0  0  0  0  0  0  0  0  0
    1.1054    4.7292   -6.5005 C   0  0  0  0  0  0  0  0  0  0  0  0
    0.1978    4.9331   -7.5314 C   0  0  0  0  0  0  0  0  0  0  0  0
    0.1356    4.2333   -8.3509 H   0  0  0  0  0  0  0  0  0  0  0  0
   -0.6192    6.0448   -7.4831 C   0  0  0  0  0  0  0  0  0  0  0  0
   -1.3323    6.2221   -8.2741 H   0  0  0  0  0  0  0  0  0  0  0  0
   -0.5417    6.9449   -6.4232 C   0  0  0  0  0  0  0  0  0  0  0  0
   -1.1975    7.8028   -6.4098 H   0  0  0  0  0  0  0  0  0  0  0  0
    0.3534    6.7634   -5.3860 C   0  0  0  0  0  0  0  0  0  0  0  0
    0.3933    7.4700   -4.5703 H   0  0  0  0  0  0  0  0  0  0  0  0
    1.1818    5.6517   -5.4310 C   0  0  0  0  0  0  0  0  0  0  0  0
    2.2076    3.5073    4.8919 C   0  0  0  0  0  0  0  0  0  0  0  0
    2.2251    2.4468    4.6172 H   0  0  0  0  0  0  0  0  0  0  0  0
    3.2433    3.8557    4.9756 H   0  0  0  0  0  0  0  0  0  0  0  0
    1.4732    4.3126    3.8054 C   0  0  0  0  0  0  0  0  0  0  0  0
    0.4401    3.9648    3.7278 H   0  0  0  0  0  0  0  0  0  0  0  0
    1.4548    5.3706    4.0763 H   0  0  0  0  0  0  0  0  0  0  0  0
    2.5038    5.8875   -3.3174 C   0  0  0  0  0  0  0  0  0  0  0  0
    2.3034    6.9599   -3.4090 H   0  0  0  0  0  0  0  0  0  0  0  0
    3.5775    5.7557   -3.1379 H   0  0  0  0  0  0  0  0  0  0  0  0
    1.7056    5.3028   -2.1384 C   0  0  0  0  0  0  0  0  0  0  0  0
    0.6379    5.4665   -2.2979 H   0  0  0  0  0  0  0  0  0  0  0  0
    1.8699    4.2246   -2.0814 H   0  0  0  0  0  0  0  0  0  0  0  0
  1  3  1  0  0  0  0
  1  4  1  0  0  0  0
  2  1  1  0  0  0  0
  4  6  1  0  0  0  0
  4 55  1  0  0  0  0
  5  4  1  0  0  0  0
  7 12  1  0  0  0  0
  7 31  1  0  0  0  0
  8 10  1  0  0  0  0
  8  1  1  0  0  0  0
  9  8  1  0  0  0  0
 11 58  1  0  0  0  0
 12 21  1  0  0  0  0
 13 12  2  0  0  0  0
 13 15  1  0  0  0  0
 14 13  1  0  0  0  0
 15 17  2  0  0  0  0
 16 15  1  0  0  0  0
 17 18  1  0  0  0  0
 17 19  1  0  0  0  0
 19 20  1  0  0  0  0
 21 22  1  0  0  0  0
 21 19  2  0  0  0  0
 22 23  1  0  0  0  0
 23 24  1  0  0  0  0
 25 23  2  0  0  0  0
 25 26  1  0  0  0  0
 27 25  1  0  0  0  0
 28 27  1  0  0  0  0
 29 31  1  0  0  0  0
 29 27  2  0  0  0  0
 30 29  1  0  0  0  0
 31 22  2  0  0  0  0
 32 11  1  0  0  0  0
 32 33  1  0  0  0  0
 33 34  1  0  0  0  0
 35 36  1  0  0  0  0
 35 33  2  0  0  0  0
 37 35  1  0  0  0  0
 38 37  1  0  0  0  0
 39 37  2  0  0  0  0
 39 41  1  0  0  0  0
 40 39  1  0  0  0  0
 41 32  2  0  0  0  0
 42 41  1  0  0  0  0
 42 51  1  0  0  0  0
 43 45  1  0  0  0  0
 43 42  2  0  0  0  0
 44 43  1  0  0  0  0
 45 47  2  0  0  0  0
 46 45  1  0  0  0  0
 47 48  1  0  0  0  0
 47 49  1  0  0  0  0
 49 50  1  0  0  0  0
 51 49  2  0  0  0  0
 51 11  1  0  0  0  0
 52 54  1  0  0  0  0
 52  7  1  0  0  0  0
 53 52  1  0  0  0  0
 55 57  1  0  0  0  0
 55 52  1  0  0  0  0
 56 55  1  0  0  0  0
 58 60  1  0  0  0  0
 58 61  1  0  0  0  0
 59 58  1  0  0  0  0
 61 63  1  0  0  0  0
 61  8  1  0  0  0  0
 62 61  1  0  0  0  0
M  END
$$$$
