CSD_code = IFOHOA | q = 0 | S = 0 | Stoichiometry = C21H20Br2CuN5O2 | MND = 5
 OpenBabel04212202053D

 51 56  0  0  1  0  0  0  0  0999 V2000
    1.7326   -0.1531    2.0066 Br  0  0  0  0  0  0  0  0  0  0  0  0
    4.4250    1.9014    2.5308 Br  0  0  0  0  0  0  0  0  0  0  0  0
    2.4834    1.2223    3.5860 Cu  0  0  0  0  0  0  0  0  0  0  0  0
    1.8227    2.4403    7.1939 O   0  0  0  0  0  0  0  0  0  0  0  0
    3.3635   -3.3179    3.4776 O   0  0  0  0  0  0  0  0  0  0  0  0
    1.0639    2.8717    2.9498 N   0  0  0  0  0  0  0  0  0  0  0  0
    2.4960    2.3592    5.0242 N   0  0  0  0  0  0  0  0  0  0  0  0
    2.7715   -0.2367    5.1178 N   0  0  0  0  0  0  0  0  0  0  0  0
    4.4369   -1.3757    3.1571 N   0  0  0  0  0  0  0  0  0  0  0  0
    2.9605   -3.4853    1.1676 N   0  0  0  0  0  0  0  0  0  0  0  0
    0.2577    2.9451    1.8999 C   0  0  0  0  0  3  0  0  0  0  0  0
   -0.3397    4.1303    1.5149 C   0  0  0  0  0  0  0  0  0  0  0  0
   -0.0817    5.2728    2.2591 C   0  0  0  0  0  0  0  0  0  0  0  0
    0.7572    5.1867    3.3547 C   0  0  0  0  0  0  0  0  0  0  0  0
    1.3237    3.9578    3.6735 C   0  0  0  0  0  0  0  0  0  0  0  0
    2.2542    3.7739    4.8404 C   0  0  2  0  0  0  0  0  0  0  0  0
    3.5460    4.5821    4.6652 C   0  0  0  0  0  0  0  0  0  0  0  0
    2.2034    1.8200    6.2093 C   0  0  0  0  0  0  0  0  0  0  0  0
    2.4033    0.3379    6.2546 C   0  0  2  0  0  3  0  0  0  0  0  0
    2.2302   -0.3843    7.4282 C   0  0  0  0  0  0  0  0  0  0  0  0
    2.4382   -1.7531    7.3954 C   0  0  0  0  0  0  0  0  0  0  0  0
    2.8740   -2.3398    6.2179 C   0  0  0  0  0  0  0  0  0  0  0  0
    3.0549   -1.5374    5.0961 C   0  0  0  0  0  0  0  0  0  0  0  0
    3.6420   -2.0618    3.8622 C   0  0  0  0  0  0  0  0  0  0  0  0
    4.8467   -2.1644    2.0307 C   0  0  1  0  0  0  0  0  0  0  0  0
    6.3595   -2.3358    2.0190 C   0  0  0  0  0  0  0  0  0  0  0  0
    3.9976   -3.4889    2.1501 C   0  0  1  0  0  0  0  0  0  0  0  0
    4.7492   -4.7737    2.1501 C   0  0  0  0  0  0  0  0  0  0  0  0
    4.3526   -5.8325    1.4259 C   0  0  0  0  0  0  0  0  0  0  0  0
    3.2098   -5.7590    0.5760 C   0  0  0  0  0  0  0  0  0  0  0  0
    2.5475   -4.5797    0.4965 C   0  0  0  0  0  0  0  0  0  0  0  0
    0.0945    2.0265    1.3527 H   0  0  0  0  0  0  0  0  0  0  0  0
   -0.9860    4.1545    0.6529 H   0  0  0  0  0  0  0  0  0  0  0  0
   -0.5294    6.2174    1.9884 H   0  0  0  0  0  0  0  0  0  0  0  0
    0.9740    6.0504    3.9628 H   0  0  0  0  0  0  0  0  0  0  0  0
    1.7531    4.1295    5.7552 H   0  0  0  0  0  0  0  0  0  0  0  0
    4.0478    4.3239    3.7369 H   0  0  0  0  0  0  0  0  0  0  0  0
    3.3186    5.6447    4.6593 H   0  0  0  0  0  0  0  0  0  0  0  0
    4.2156    4.3708    5.4952 H   0  0  0  0  0  0  0  0  0  0  0  0
    1.9300    0.1443    8.3192 H   0  0  0  0  0  0  0  0  0  0  0  0
    2.2825   -2.3538    8.2791 H   0  0  0  0  0  0  0  0  0  0  0  0
    3.0857   -3.3946    6.1467 H   0  0  0  0  0  0  0  0  0  0  0  0
    4.5461   -1.6335    1.1200 H   0  0  0  0  0  0  0  0  0  0  0  0
    6.7086   -2.7702    2.9530 H   0  0  0  0  0  0  0  0  0  0  0  0
    6.6576   -2.9698    1.1884 H   0  0  0  0  0  0  0  0  0  0  0  0
    6.8116   -1.3543    1.9069 H   0  0  0  0  0  0  0  0  0  0  0  0
    5.5911   -4.8297    2.8198 H   0  0  0  0  0  0  0  0  0  0  0  0
    4.9073   -6.7573    1.4770 H   0  0  0  0  0  0  0  0  0  0  0  0
    2.8894   -6.6187    0.0152 H   0  0  0  0  0  0  0  0  0  0  0  0
    1.6839   -4.4370   -0.1345 H   0  0  0  0  0  0  0  0  0  0  0  0
    2.4096   -2.6361    1.1165 H   0  0  0  0  0  0  0  0  0  0  0  0
  1  3  1  0  0  0  0
  2  3  1  0  0  0  0
  3  7  1  0  0  0  0
  3  8  1  0  0  0  0
  5 24  1  0  0  0  0
  6  3  1  0  0  0  0
  6 15  1  0  0  0  0
  7 18  1  0  0  0  0
  8 19  1  0  0  0  0
  9 24  2  0  0  0  0
 10 27  1  0  0  0  0
 11  6  1  0  0  0  0
 12 11  1  0  0  0  0
 12 13  2  0  0  0  0
 13 14  1  0  0  0  0
 14 15  2  0  0  0  0
 14 35  1  0  0  0  0
 15 16  1  0  0  0  0
 16  7  1  0  0  0  0
 16 36  1  1  0  0  0
 17 16  1  0  0  0  0
 17 39  1  0  0  0  0
 18  4  2  0  0  0  0
 19 18  1  1  0  0  0
 19 20  1  0  0  0  0
 20 40  1  0  0  0  0
 21 20  2  0  0  0  0
 21 41  1  0  0  0  0
 22 21  1  0  0  0  0
 23  8  1  0  0  0  0
 23 22  2  0  0  0  0
 24 23  1  0  0  0  0
 25 43  1  6  0  0  0
 25 27  1  0  0  0  0
 25  9  1  0  0  0  0
 26 25  1  0  0  0  0
 26 44  1  0  0  0  0
 27 28  1  6  0  0  0
 27  5  1  0  0  0  0
 28 47  1  0  0  0  0
 29 48  1  0  0  0  0
 29 28  2  0  0  0  0
 30 29  1  0  0  0  0
 31 30  2  0  0  0  0
 31 10  1  0  0  0  0
 32 11  1  0  0  0  0
 33 12  1  0  0  0  0
 34 13  1  0  0  0  0
 37 17  1  0  0  0  0
 38 17  1  0  0  0  0
 42 22  1  0  0  0  0
 45 26  1  0  0  0  0
 46 26  1  0  0  0  0
 49 30  1  0  0  0  0
 50 31  1  0  0  0  0
 51 10  1  0  0  0  0
M  END
$$$$
