CSD_code = IFOYIN | q = 0 | S = 0 | Stoichiometry = C27H38ClPPd | MND = 5
 OpenBabel04212202053D

 68 68  0  0  1  0  0  0  0  0999 V2000
    0.3418    3.4040   12.5060 Pd  0  0  0  0  0  0  0  0  0  0  0  0
   -0.6418    1.9002   11.0048 Cl  0  0  0  0  0 15  0  0  0  0  0  0
   -1.1185    5.2096   12.2398 P   0  0  0  0  0  0  0  0  0  0  0  0
    1.5661    1.7551   13.0936 C   0  0  0  0  0  3  0  0  0  0  0  0
    1.4155    2.6378   14.1670 C   0  0  0  0  0  0  0  0  0  0  0  0
    1.8082    3.9716   13.9969 C   0  0  0  0  0  3  0  0  0  0  0  0
   -2.8819    4.4991   12.4863 C   0  0  0  0  0  0  0  0  0  0  0  0
   -3.9679    5.4522   12.9892 C   0  0  0  0  0  0  0  0  0  0  0  0
   -2.7351    3.3646   13.5133 C   0  0  0  0  0  0  0  0  0  0  0  0
   -3.3586    3.8995   11.1615 C   0  0  0  0  0  0  0  0  0  0  0  0
   -0.8667    6.6280   13.4945 C   0  0  0  0  0  0  0  0  0  0  0  0
   -1.7719    7.8608   13.4596 C   0  0  0  0  0  0  0  0  0  0  0  0
   -0.9577    5.9938   14.8875 C   0  0  0  0  0  0  0  0  0  0  0  0
    0.5602    7.1195   13.2441 C   0  0  0  0  0  0  0  0  0  0  0  0
   -1.0798    5.9842   10.5604 C   0  0  2  0  0  0  0  0  0  0  0  0
   -1.9985    7.1511   10.2501 C   0  0  0  0  0  0  0  0  0  0  0  0
   -0.9052    4.9771    9.4484 C   0  0  0  0  0  0  0  0  0  0  0  0
    0.2339    5.8911    9.7730 C   0  0  0  0  0  0  0  0  0  0  0  0
    0.5432    6.9810    8.7876 C   0  0  0  0  0  0  0  0  0  0  0  0
    0.7157    8.3075    9.1637 C   0  0  0  0  0  0  0  0  0  0  0  0
    1.0332    9.2727    8.2243 C   0  0  0  0  0  0  0  0  0  0  0  0
    1.1920    8.9249    6.8947 C   0  0  0  0  0  0  0  0  0  0  0  0
    1.0372    7.6036    6.5109 C   0  0  0  0  0  0  0  0  0  0  0  0
    0.7176    6.6409    7.4504 C   0  0  0  0  0  0  0  0  0  0  0  0
    1.5131    5.3179   10.3185 C   0  0  0  0  0  0  0  0  0  0  0  0
    2.5025    6.1605   10.8268 C   0  0  0  0  0  0  0  0  0  0  0  0
    3.7421    5.6732   11.2008 C   0  0  0  0  0  0  0  0  0  0  0  0
    4.0426    4.3308   11.0429 C   0  0  0  0  0  0  0  0  0  0  0  0
    3.0899    3.4846   10.5000 C   0  0  0  0  0  0  0  0  0  0  0  0
    1.8317    3.9634   10.1502 C   0  0  0  0  0  0  0  0  0  0  0  0
    1.1683    0.7480   13.1785 H   0  0  0  0  0  0  0  0  0  0  0  0
    2.4358    1.8485   12.4475 H   0  0  0  0  0  0  0  0  0  0  0  0
    0.8087    2.3531   15.0297 H   0  0  0  0  0  0  0  0  0  0  0  0
    2.6634    4.1817   13.3549 H   0  0  0  0  0  0  0  0  0  0  0  0
    1.6917    4.6599   14.8248 H   0  0  0  0  0  0  0  0  0  0  0  0
   -4.9091    4.9034   13.0303 H   0  0  0  0  0  0  0  0  0  0  0  0
   -4.1153    6.2971   12.3220 H   0  0  0  0  0  0  0  0  0  0  0  0
   -3.7636    5.8139   13.9927 H   0  0  0  0  0  0  0  0  0  0  0  0
   -1.9379    2.6676   13.2177 H   0  0  0  0  0  0  0  0  0  0  0  0
   -3.6641    2.7980   13.5648 H   0  0  0  0  0  0  0  0  0  0  0  0
   -2.5210    3.7503   14.5088 H   0  0  0  0  0  0  0  0  0  0  0  0
   -2.6612    3.1452   10.8071 H   0  0  0  0  0  0  0  0  0  0  0  0
   -3.4804    4.6627   10.3978 H   0  0  0  0  0  0  0  0  0  0  0  0
   -4.3227    3.4157   11.3135 H   0  0  0  0  0  0  0  0  0  0  0  0
   -1.5024    8.4953   14.3050 H   0  0  0  0  0  0  0  0  0  0  0  0
   -2.8243    7.6264   13.5489 H   0  0  0  0  0  0  0  0  0  0  0  0
   -1.6239    8.4437   12.5577 H   0  0  0  0  0  0  0  0  0  0  0  0
   -0.4038    6.5903   15.6120 H   0  0  0  0  0  0  0  0  0  0  0  0
   -0.5406    4.9850   14.8812 H   0  0  0  0  0  0  0  0  0  0  0  0
   -1.9893    5.9383   15.2273 H   0  0  0  0  0  0  0  0  0  0  0  0
    0.5974    7.6907   12.3205 H   0  0  0  0  0  0  0  0  0  0  0  0
    1.2544    6.2861   13.1587 H   0  0  0  0  0  0  0  0  0  0  0  0
    0.8893    7.7669   14.0563 H   0  0  0  0  0  0  0  0  0  0  0  0
   -1.5849    8.1034   10.5697 H   0  0  0  0  0  0  0  0  0  0  0  0
   -2.9612    7.0161   10.7352 H   0  0  0  0  0  0  0  0  0  0  0  0
   -2.1654    7.2180    9.1760 H   0  0  0  0  0  0  0  0  0  0  0  0
   -0.8267    3.9337    9.7144 H   0  0  0  0  0  0  0  0  0  0  0  0
   -1.4528    5.1496    8.5322 H   0  0  0  0  0  0  0  0  0  0  0  0
    0.5996    8.5998   10.1974 H   0  0  0  0  0  0  0  0  0  0  0  0
    1.1582   10.3006    8.5332 H   0  0  0  0  0  0  0  0  0  0  0  0
    1.4389    9.6790    6.1621 H   0  0  0  0  0  0  0  0  0  0  0  0
    1.1672    7.3222    5.4762 H   0  0  0  0  0  0  0  0  0  0  0  0
    0.6046    5.6095    7.1502 H   0  0  0  0  0  0  0  0  0  0  0  0
    2.3191    7.2200   10.9069 H   0  0  0  0  0  0  0  0  0  0  0  0
    4.4839    6.3511   11.5980 H   0  0  0  0  0  0  0  0  0  0  0  0
    5.0182    3.9539   11.3153 H   0  0  0  0  0  0  0  0  0  0  0  0
    3.3345    2.4492   10.3025 H   0  0  0  0  0  0  0  0  0  0  0  0
    1.1541    3.2984    9.6296 H   0  0  0  0  0  0  0  0  0  0  0  0
  1  5  1  0  0  0  0
  3  7  1  0  0  0  0
  3 11  1  0  0  0  0
  4 31  1  0  0  0  0
  4  5  1  0  0  0  0
  5 33  1  0  0  0  0
  6  5  1  0  0  0  0
  6 35  1  0  0  0  0
  7  8  1  0  0  0  0
  7  9  1  0  0  0  0
  8 36  1  0  0  0  0
  8 38  1  0  0  0  0
  9 40  1  0  0  0  0
  9 41  1  0  0  0  0
 10 44  1  0  0  0  0
 10  7  1  0  0  0  0
 11 13  1  0  0  0  0
 12 11  1  0  0  0  0
 12 46  1  0  0  0  0
 12 45  1  0  0  0  0
 13 50  1  0  0  0  0
 13 48  1  0  0  0  0
 14 11  1  0  0  0  0
 14 53  1  0  0  0  0
 15 16  1  6  0  0  0
 15  3  1  0  0  0  0
 16 54  1  0  0  0  0
 16 55  1  0  0  0  0
 17 57  1  0  0  0  0
 17 18  1  0  0  0  0
 17 15  1  0  0  0  0
 18 25  1  0  0  0  0
 18 15  1  0  0  0  0
 19 20  1  0  0  0  0
 19 18  1  0  0  0  0
 20 59  1  0  0  0  0
 21 60  1  0  0  0  0
 21 20  2  0  0  0  0
 22 21  1  0  0  0  0
 23 22  2  0  0  0  0
 23 24  1  0  0  0  0
 24 19  2  0  0  0  0
 25 26  1  0  0  0  0
 26 64  1  0  0  0  0
 26 27  2  0  0  0  0
 27 65  1  0  0  0  0
 28 27  1  0  0  0  0
 28 66  1  0  0  0  0
 29 28  2  0  0  0  0
 30 25  2  0  0  0  0
 30 29  1  0  0  0  0
 32  4  1  0  0  0  0
 34  6  1  0  0  0  0
 37  8  1  0  0  0  0
 39  9  1  0  0  0  0
 42 10  1  0  0  0  0
 43 10  1  0  0  0  0
 47 12  1  0  0  0  0
 49 13  1  0  0  0  0
 51 14  1  0  0  0  0
 52 14  1  0  0  0  0
 56 16  1  0  0  0  0
 58 17  1  0  0  0  0
 61 22  1  0  0  0  0
 62 23  1  0  0  0  0
 63 24  1  0  0  0  0
 67 29  1  0  0  0  0
 68 30  1  0  0  0  0
M  END
$$$$
