CSD_code = IGAFOL | q = 0 | S = 0 | Stoichiometry = C28H30ClN3O3Ru | MND = 6
 OpenBabel04212202053D

 66 71  0  0  0  0  0  0  0  0999 V2000
    4.5594   18.1544    2.0704 Ru  0  0  0  0  0  0  0  0  0  0  0  0
    2.5299   18.3486    1.1190 Cl  0  0  0  0  0  0  0  0  0  0  0  0
    5.1038   17.2582    0.3693 N   0  0  0  0  0  0  0  0  0  0  0  0
    3.8882   16.3903    2.8964 O   0  0  0  0  0  0  0  0  0  0  0  0
    3.8030   19.2060    3.6742 O   0  0  0  0  0  0  0  0  0  0  0  0
    5.0135   19.8248    1.0725 N   0  0  0  0  0  0  0  0  0  0  0  0
    6.0688   18.0091    2.7817 N   0  0  0  0  0  2  0  0  0  0  0  0
    7.1275   17.9147    3.2506 O   0  0  0  0  0  1  0  0  0  0  0  0
    3.8994   15.2486    2.3272 C   0  0  0  0  0  0  0  0  0  0  0  0
    3.4343   14.1172    3.0928 C   0  0  0  0  0  0  0  0  0  0  0  0
    3.3899   12.8844    2.4985 C   0  0  0  0  0  0  0  0  0  0  0  0
    3.0406   12.0289    3.0526 H   0  0  0  0  0  0  0  0  0  0  0  0
    3.7791   12.6744    1.1661 C   0  0  0  0  0  0  0  0  0  0  0  0
    3.7170   11.6831    0.7446 H   0  0  0  0  0  0  0  0  0  0  0  0
    4.2283   13.7199    0.4226 C   0  0  0  0  0  0  0  0  0  0  0  0
    4.5328   13.5677   -0.6032 H   0  0  0  0  0  0  0  0  0  0  0  0
    4.3254   15.0261    0.9677 C   0  0  0  0  0  0  0  0  0  0  0  0
    4.8325   16.0143    0.0955 C   0  0  0  0  0  3  0  0  0  0  0  0
    5.0139   15.6652   -0.9204 H   0  0  0  0  0  0  0  0  0  0  0  0
    3.7377   20.4768    3.7661 C   0  0  0  0  0  0  0  0  0  0  0  0
    3.2591   21.0324    5.0089 C   0  0  0  0  0  0  0  0  0  0  0  0
    3.1017   22.3885    5.1144 C   0  0  0  0  0  0  0  0  0  0  0  0
    2.7344   22.8209    6.0305 H   0  0  0  0  0  0  0  0  0  0  0  0
    3.3960   23.2668    4.0595 C   0  0  0  0  0  0  0  0  0  0  0  0
    3.2433   24.3267    4.1924 H   0  0  0  0  0  0  0  0  0  0  0  0
    3.8757   22.7746    2.8867 C   0  0  0  0  0  0  0  0  0  0  0  0
    4.1174   23.4436    2.0731 H   0  0  0  0  0  0  0  0  0  0  0  0
    4.0885   21.3842    2.7018 C   0  0  0  0  0  0  0  0  0  0  0  0
    4.6337   21.0108    1.4539 C   0  0  0  0  0  3  0  0  0  0  0  0
    4.7489   21.8336    0.7491 H   0  0  0  0  0  0  0  0  0  0  0  0
    5.6129   18.1726   -0.5486 C   0  0  0  0  0  0  0  0  0  0  0  0
    6.1848   17.8252   -1.7728 C   0  0  0  0  0  0  0  0  0  0  0  0
    6.2596   16.7894   -2.0641 H   0  0  0  0  0  0  0  0  0  0  0  0
    6.6866   18.7962   -2.6169 C   0  0  0  0  0  0  0  0  0  0  0  0
    7.1266   18.5083   -3.5591 H   0  0  0  0  0  0  0  0  0  0  0  0
    6.6405   20.1318   -2.2498 C   0  0  0  0  0  0  0  0  0  0  0  0
    7.0449   20.8880   -2.9045 H   0  0  0  0  0  0  0  0  0  0  0  0
    6.0913   20.5005   -1.0375 C   0  0  0  0  0  0  0  0  0  0  0  0
    6.0945   21.5416   -0.7555 H   0  0  0  0  0  0  0  0  0  0  0  0
    5.5641   19.5402   -0.1738 C   0  0  0  0  0  0  0  0  0  0  0  0
    2.9871   14.3437    4.5318 C   0  0  0  0  0  0  0  0  0  0  0  0
    2.5705   13.0412    5.2239 C   0  0  0  0  0  0  0  0  0  0  0  0
    2.2761   13.2622    6.2476 H   0  0  0  0  0  0  0  0  0  0  0  0
    3.3941   12.3312    5.2582 H   0  0  0  0  0  0  0  0  0  0  0  0
    1.7196   12.5820    4.7259 H   0  0  0  0  0  0  0  0  0  0  0  0
    4.1374   14.9564    5.3447 C   0  0  0  0  0  0  0  0  0  0  0  0
    3.8334   15.0740    6.3823 H   0  0  0  0  0  0  0  0  0  0  0  0
    4.4104   15.9335    4.9560 H   0  0  0  0  0  0  0  0  0  0  0  0
    5.0113   14.3082    5.3105 H   0  0  0  0  0  0  0  0  0  0  0  0
    1.7777   15.2896    4.5359 C   0  0  0  0  0  0  0  0  0  0  0  0
    1.4447   15.4629    5.5567 H   0  0  0  0  0  0  0  0  0  0  0  0
    0.9561   14.8536    3.9708 H   0  0  0  0  0  0  0  0  0  0  0  0
    2.0355   16.2457    4.0910 H   0  0  0  0  0  0  0  0  0  0  0  0
    2.9298   20.0827    6.1541 C   0  0  0  0  0  0  0  0  0  0  0  0
    4.1693   19.2451    6.5035 C   0  0  0  0  0  0  0  0  0  0  0  0
    3.9513   18.5992    7.3509 H   0  0  0  0  0  0  0  0  0  0  0  0
    5.0022   19.8945    6.7673 H   0  0  0  0  0  0  0  0  0  0  0  0
    4.4646   18.6199    5.6652 H   0  0  0  0  0  0  0  0  0  0  0  0
    1.7765   19.1626    5.7300 C   0  0  0  0  0  0  0  0  0  0  0  0
    1.5262   18.4830    6.5414 H   0  0  0  0  0  0  0  0  0  0  0  0
    2.0545   18.5745    4.8610 H   0  0  0  0  0  0  0  0  0  0  0  0
    0.8949   19.7516    5.4843 H   0  0  0  0  0  0  0  0  0  0  0  0
    2.4995   20.8278    7.4225 C   0  0  0  0  0  0  0  0  0  0  0  0
    2.2998   20.1032    8.2090 H   0  0  0  0  0  0  0  0  0  0  0  0
    1.5881   21.3979    7.2576 H   0  0  0  0  0  0  0  0  0  0  0  0
    3.2834   21.4955    7.7734 H   0  0  0  0  0  0  0  0  0  0  0  0
  1  7  1  0  0  0  0
  1  4  1  0  0  0  0
  1  5  1  0  0  0  0
  2  1  1  0  0  0  0
  3  1  1  0  0  0  0
  5 20  1  0  0  0  0
  6 29  1  0  0  0  0
  6  1  1  0  0  0  0
  7  8  1  0  0  0  0
  9  4  1  0  0  0  0
  9 10  1  0  0  0  0
 10 41  1  0  0  0  0
 11 12  1  0  0  0  0
 11 10  2  0  0  0  0
 13 11  1  0  0  0  0
 14 13  1  0  0  0  0
 15 17  1  0  0  0  0
 15 13  2  0  0  0  0
 16 15  1  0  0  0  0
 17  9  2  0  0  0  0
 18  3  1  0  0  0  0
 18 17  1  0  0  0  0
 19 18  1  0  0  0  0
 20 21  1  0  0  0  0
 21 22  2  0  0  0  0
 21 54  1  0  0  0  0
 22 23  1  0  0  0  0
 24 25  1  0  0  0  0
 24 22  1  0  0  0  0
 26 24  2  0  0  0  0
 27 26  1  0  0  0  0
 28 26  1  0  0  0  0
 28 20  2  0  0  0  0
 29 28  1  0  0  0  0
 30 29  1  0  0  0  0
 31 40  1  0  0  0  0
 31  3  1  0  0  0  0
 32 31  2  0  0  0  0
 33 32  1  0  0  0  0
 34 36  2  0  0  0  0
 34 32  1  0  0  0  0
 35 34  1  0  0  0  0
 36 38  1  0  0  0  0
 37 36  1  0  0  0  0
 38 39  1  0  0  0  0
 38 40  2  0  0  0  0
 40  6  1  0  0  0  0
 41 50  1  0  0  0  0
 41 42  1  0  0  0  0
 41 46  1  0  0  0  0
 42 44  1  0  0  0  0
 42 43  1  0  0  0  0
 45 42  1  0  0  0  0
 46 47  1  0  0  0  0
 48 46  1  0  0  0  0
 49 46  1  0  0  0  0
 50 51  1  0  0  0  0
 52 50  1  0  0  0  0
 53 50  1  0  0  0  0
 54 55  1  0  0  0  0
 54 63  1  0  0  0  0
 55 57  1  0  0  0  0
 55 56  1  0  0  0  0
 58 55  1  0  0  0  0
 59 54  1  0  0  0  0
 59 60  1  0  0  0  0
 61 59  1  0  0  0  0
 62 59  1  0  0  0  0
 63 66  1  0  0  0  0
 63 64  1  0  0  0  0
 65 63  1  0  0  0  0
M  END
$$$$
