CSD_code = IGAKAF | q = 0 | S = 0 | Stoichiometry = C28H33ClNO2Rh | MND = 6
 OpenBabel04212202053D

 66 68  0  0  1  0  0  0  0  0999 V2000
    5.4902    4.1047   11.8061 Rh  0  0  0  0  0  0  0  0  0  0  0  0
    4.8071    6.1257   10.9454 Cl  0  0  0  0  0 15  0  0  0  0  0  0
    7.4756    7.6324   14.1904 O   0  0  0  0  0  0  0  0  0  0  0  0
    9.3959    7.1761   13.2073 O   0  0  0  0  0  0  0  0  0  0  0  0
    7.6893    5.7149   12.8746 N   0  0  0  0  0  0  0  0  0  0  0  0
    8.8084    5.0283   10.7959 C   0  0  0  0  0  0  0  0  0  0  0  0
    6.4043    5.3111   13.0143 C   0  0  1  0  0  3  0  0  0  0  0  0
    8.6086    4.8589   12.1656 C   0  0  0  0  0  0  0  0  0  0  0  0
    9.2995    3.8935   12.9077 C   0  0  0  0  0  0  0  0  0  0  0  0
    5.6313    6.1109   13.9401 C   0  0  0  0  0  0  0  0  0  0  0  0
    5.4703    8.0801   15.3534 C   0  0  0  0  0  0  0  0  0  0  0  0
    5.9375    8.9665   15.7515 H   0  0  0  0  0  0  0  0  0  0  0  0
    5.3977    2.3951   13.0644 C   0  0  2  0  0  0  0  0  0  0  0  0
    5.6937    2.6628   14.0799 H   0  0  0  0  0  0  0  0  0  0  0  0
    6.1955    7.2654   14.4929 C   0  0  0  0  0  0  0  0  0  0  0  0
    8.2022    6.1843   10.0401 C   0  0  0  0  0  0  0  0  0  0  0  0
    7.3943    6.6217   10.6319 H   0  0  0  0  0  0  0  0  0  0  0  0
    9.6730    4.1465   10.1558 C   0  0  0  0  0  0  0  0  0  0  0  0
    9.8464    4.2484    9.0964 H   0  0  0  0  0  0  0  0  0  0  0  0
   10.3306    3.1576   10.8586 C   0  0  0  0  0  0  0  0  0  0  0  0
   10.9998    2.4836   10.3440 H   0  0  0  0  0  0  0  0  0  0  0  0
    8.2534    6.8673   13.4096 C   0  0  0  0  0  0  0  0  0  0  0  0
    4.8636    3.1100    9.9631 C   0  0  0  0  0  3  0  0  0  0  0  0
    4.8515    3.8786    9.1905 H   0  0  0  0  0  0  0  0  0  0  0  0
    9.2813    7.2517    9.8346 C   0  0  0  0  0  0  0  0  0  0  0  0
    9.6973    7.5594   10.7913 H   0  0  0  0  0  0  0  0  0  0  0  0
    8.8533    8.1218    9.3424 H   0  0  0  0  0  0  0  0  0  0  0  0
   10.0893    6.8642    9.2173 H   0  0  0  0  0  0  0  0  0  0  0  0
    7.5967    5.7503    8.7064 C   0  0  0  0  0  0  0  0  0  0  0  0
    8.3601    5.4466    7.9940 H   0  0  0  0  0  0  0  0  0  0  0  0
    7.0358    6.5763    8.2771 H   0  0  0  0  0  0  0  0  0  0  0  0
    6.9109    4.9222    8.8690 H   0  0  0  0  0  0  0  0  0  0  0  0
    4.3083    5.7899   14.2723 C   0  0  0  0  0  0  0  0  0  0  0  0
    3.8678    4.9064   13.8205 H   0  0  0  0  0  0  0  0  0  0  0  0
   10.1627    3.0464   12.2260 C   0  0  0  0  0  0  0  0  0  0  0  0
   10.7147    2.2952   12.7683 H   0  0  0  0  0  0  0  0  0  0  0  0
    4.1695    7.7391   15.6653 C   0  0  0  0  0  0  0  0  0  0  0  0
    3.5985    8.3701   16.3290 H   0  0  0  0  0  0  0  0  0  0  0  0
    3.8004    3.0759   10.8331 C   0  0  0  0  0  3  0  0  0  0  0  0
    3.0341    3.8432   10.7252 H   0  0  0  0  0  0  0  0  0  0  0  0
    9.1853    3.8198   14.4147 C   0  0  0  0  0  0  0  0  0  0  0  0
    8.2777    4.3449   14.7330 H   0  0  0  0  0  0  0  0  0  0  0  0
    6.4106    2.1948   12.1288 C   0  0  0  0  0  3  0  0  0  0  0  0
    7.4334    2.3606   12.4538 H   0  0  0  0  0  0  0  0  0  0  0  0
    3.5884    6.5956   15.1240 C   0  0  0  0  0  0  0  0  0  0  0  0
    2.5671    6.3479   15.3692 H   0  0  0  0  0  0  0  0  0  0  0  0
    6.2925    1.2497   10.9529 C   0  0  0  0  0  0  0  0  0  0  0  0
    5.6231    0.4291   11.2155 H   0  0  0  0  0  0  0  0  0  0  0  0
    7.2740    0.8147   10.7531 H   0  0  0  0  0  0  0  0  0  0  0  0
    4.0284    1.7564   12.9955 C   0  0  0  0  0  0  0  0  0  0  0  0
    3.3840    2.2551   13.7244 H   0  0  0  0  0  0  0  0  0  0  0  0
    4.1056    0.7078   13.3041 H   0  0  0  0  0  0  0  0  0  0  0  0
    5.8036    1.9628    9.6793 C   0  0  0  0  0  0  0  0  0  0  0  0
    6.6717    2.3581    9.1455 H   0  0  0  0  0  0  0  0  0  0  0  0
    5.3094    1.2479    9.0121 H   0  0  0  0  0  0  0  0  0  0  0  0
    9.0902    2.3897   14.9500 C   0  0  0  0  0  0  0  0  0  0  0  0
    8.2741    1.8470   14.4786 H   0  0  0  0  0  0  0  0  0  0  0  0
    8.9082    2.4166   16.0223 H   0  0  0  0  0  0  0  0  0  0  0  0
   10.0138    1.8424   14.7834 H   0  0  0  0  0  0  0  0  0  0  0  0
    3.3739    1.8457   11.6026 C   0  0  0  0  0  0  0  0  0  0  0  0
    3.6131    0.9600   11.0124 H   0  0  0  0  0  0  0  0  0  0  0  0
    2.2893    1.8654   11.7269 H   0  0  0  0  0  0  0  0  0  0  0  0
   10.3983    4.5312   15.0257 C   0  0  0  0  0  0  0  0  0  0  0  0
   11.3117    3.9993   14.7697 H   0  0  0  0  0  0  0  0  0  0  0  0
   10.3089    4.5672   16.1093 H   0  0  0  0  0  0  0  0  0  0  0  0
   10.4800    5.5465   14.6459 H   0  0  0  0  0  0  0  0  0  0  0  0
  1 13  1  0  0  0  0
  3 15  1  0  0  0  0
  4 22  2  0  0  0  0
  5  7  1  0  0  0  0
  5 22  1  0  0  0  0
  6  8  1  0  0  0  0
  7  1  1  6  0  0  0
  7 10  1  0  0  0  0
  8  5  1  0  0  0  0
  8  9  2  0  0  0  0
  9 41  1  0  0  0  0
 10 33  2  0  0  0  0
 10 15  1  0  0  0  0
 11 37  1  0  0  0  0
 11 12  1  0  0  0  0
 13 14  1  1  0  0  0
 15 11  2  0  0  0  0
 16 17  1  0  0  0  0
 16  6  1  0  0  0  0
 18  6  2  0  0  0  0
 18 20  1  0  0  0  0
 19 18  1  0  0  0  0
 20 35  2  0  0  0  0
 21 20  1  0  0  0  0
 22  3  1  0  0  0  0
 23 39  1  0  0  0  0
 24 23  1  0  0  0  0
 25 16  1  0  0  0  0
 25 26  1  0  0  0  0
 27 25  1  0  0  0  0
 28 25  1  0  0  0  0
 29 32  1  0  0  0  0
 29 16  1  0  0  0  0
 30 29  1  0  0  0  0
 31 29  1  0  0  0  0
 33 45  1  0  0  0  0
 34 33  1  0  0  0  0
 35 36  1  0  0  0  0
 35  9  1  0  0  0  0
 37 38  1  0  0  0  0
 39 60  1  0  0  0  0
 40 39  1  0  0  0  0
 41 42  1  0  0  0  0
 41 56  1  0  0  0  0
 41 63  1  0  0  0  0
 43 44  1  0  0  0  0
 43 13  1  0  0  0  0
 45 46  1  0  0  0  0
 45 37  2  0  0  0  0
 47 48  1  0  0  0  0
 47 43  1  0  0  0  0
 49 47  1  0  0  0  0
 50 13  1  0  0  0  0
 50 52  1  0  0  0  0
 50 51  1  0  0  0  0
 53 23  1  0  0  0  0
 53 47  1  0  0  0  0
 54 53  1  0  0  0  0
 55 53  1  0  0  0  0
 56 58  1  0  0  0  0
 57 56  1  0  0  0  0
 59 56  1  0  0  0  0
 60 62  1  0  0  0  0
 60 50  1  0  0  0  0
 61 60  1  0  0  0  0
 63 65  1  0  0  0  0
 64 63  1  0  0  0  0
 66 63  1  0  0  0  0
M  END
$$$$
