CSD_code = IGAWIW | q = 0 | S = 0 | Stoichiometry = C15H11Cl3N3Rh | MND = 6
 OpenBabel04212202053D

 33 37  0  0  1  0  0  0  0  0999 V2000
    1.4962    6.7609    8.4952 Rh  0  0  0  0  0  0  0  0  0  0  0  0
    0.6314    6.3282   10.6186 Cl  0  0  0  0  0  0  0  0  0  0  0  0
    2.3966    7.0533    6.3620 Cl  0  0  0  0  0  0  0  0  0  0  0  0
    0.9567    8.9586    8.6452 Cl  0  0  0  0  0  0  0  0  0  0  0  0
    3.3142    6.8888    9.2682 N   0  0  0  0  0  0  0  0  0  0  0  0
    1.9416    4.9467    8.3735 N   0  0  0  0  0  0  0  0  0  0  0  0
   -0.1984    6.1331    7.6875 N   0  0  0  0  0  0  0  0  0  0  0  0
    3.9401    7.9717    9.7082 C   0  0  0  0  0  3  0  0  0  0  0  0
    3.3868    8.9015    9.6421 H   0  0  0  0  0  0  0  0  0  0  0  0
    5.2256    7.9250   10.2225 C   0  0  0  0  0  0  0  0  0  0  0  0
    5.6977    8.8298   10.5695 H   0  0  0  0  0  0  0  0  0  0  0  0
    5.8820    6.7051   10.2786 C   0  0  0  0  0  0  0  0  0  0  0  0
    6.8848    6.6360   10.6720 H   0  0  0  0  0  0  0  0  0  0  0  0
    5.2298    5.5732    9.8213 C   0  0  0  0  0  0  0  0  0  0  0  0
    5.7142    4.6107    9.8526 H   0  0  0  0  0  0  0  0  0  0  0  0
    3.9383    5.6841    9.3173 C   0  0  0  0  0  0  0  0  0  0  0  0
    3.1484    4.5610    8.8063 C   0  0  1  0  0  3  0  0  0  0  0  0
    3.5004    3.2178    8.7311 C   0  0  0  0  0  0  0  0  0  0  0  0
    4.4641    2.8776    9.0724 H   0  0  0  0  0  0  0  0  0  0  0  0
    2.5824    2.3179    8.2063 C   0  0  0  0  0  0  0  0  0  0  0  0
    2.8369    1.2714    8.1408 H   0  0  0  0  0  0  0  0  0  0  0  0
    1.3397    2.7525    7.7653 C   0  0  0  0  0  0  0  0  0  0  0  0
    0.6297    2.0518    7.3583 H   0  0  0  0  0  0  0  0  0  0  0  0
    1.0346    4.1059    7.8611 C   0  0  0  0  0  0  0  0  0  0  0  0
   -0.1970    4.7938    7.4653 C   0  0  2  0  0  3  0  0  0  0  0  0
   -1.3025    4.1662    6.9011 C   0  0  0  0  0  0  0  0  0  0  0  0
   -1.2873    3.1020    6.7300 H   0  0  0  0  0  0  0  0  0  0  0  0
   -2.4144    4.9184    6.5640 C   0  0  0  0  0  0  0  0  0  0  0  0
   -3.2799    4.4464    6.1243 H   0  0  0  0  0  0  0  0  0  0  0  0
   -2.3952    6.2845    6.7994 C   0  0  0  0  0  0  0  0  0  0  0  0
   -3.2396    6.9070    6.5518 H   0  0  0  0  0  0  0  0  0  0  0  0
   -1.2644    6.8520    7.3641 C   0  0  0  0  0  0  0  0  0  0  0  0
   -1.2026    7.9151    7.5670 H   0  0  0  0  0  0  0  0  0  0  0  0
  1  4  1  0  0  0  0
  1  5  1  0  0  0  0
  1  2  1  0  0  0  0
  3  1  1  0  0  0  0
  5 16  1  0  0  0  0
  5  8  1  0  0  0  0
  6  1  1  0  0  0  0
  6 17  1  0  0  0  0
  7  1  1  0  0  0  0
  8 10  1  0  0  0  0
  9  8  1  0  0  0  0
 10 12  2  0  0  0  0
 10 11  1  0  0  0  0
 12 13  1  0  0  0  0
 14 15  1  0  0  0  0
 14 12  1  0  0  0  0
 16 14  2  0  0  0  0
 17 18  1  1  0  0  0
 17 16  1  0  0  0  0
 18 19  1  0  0  0  0
 20 18  2  0  0  0  0
 21 20  1  0  0  0  0
 22 24  2  0  0  0  0
 22 20  1  0  0  0  0
 23 22  1  0  0  0  0
 24  6  1  0  0  0  0
 25 26  1  6  0  0  0
 25  7  1  0  0  0  0
 25 24  1  0  0  0  0
 27 26  1  0  0  0  0
 28 30  1  0  0  0  0
 28 26  2  0  0  0  0
 29 28  1  0  0  0  0
 30 32  2  0  0  0  0
 31 30  1  0  0  0  0
 32 33  1  0  0  0  0
 32  7  1  0  0  0  0
M  END
$$$$
