CSD_code = IGEFAB | q = 0 | S = 0 | Stoichiometry = C11H10Cl2N2S2Zn | MND = 4
 OpenBabel04212202053D

 28 30  0  0  1  0  0  0  0  0999 V2000
   -0.8367    1.7736    3.4521 Zn  0  0  0  0  0  0  0  0  0  0  0  0
   -1.7534   -0.9255    4.7146 S   0  0  0  0  0  0  0  0  0  0  0  0
    0.7482    2.8167    2.3407 Cl  0  0  0  0  0  0  0  0  0  0  0  0
    0.2530    0.7640    5.0260 N   0  0  0  0  0  0  0  0  0  0  0  0
   -0.8367   -1.8773    3.4521 C   0  0  0  0  0  0  0  0  0  0  0  0
   -1.5815   -2.4960    2.9578 H   0  0  0  0  0  0  0  0  0  0  0  0
   -0.0918   -2.4960    3.9464 H   0  0  0  0  0  0  0  0  0  0  0  0
   -0.3593   -0.2594    5.6008 C   0  0  2  0  0  3  0  0  0  0  0  0
    0.0411   -0.7978    6.8119 C   0  0  0  0  0  0  0  0  0  0  0  0
   -0.5016   -1.6246    7.2410 H   0  0  0  0  0  0  0  0  0  0  0  0
    1.1412   -0.2337    7.4394 C   0  0  0  0  0  0  0  0  0  0  0  0
    1.4799   -0.6169    8.3902 H   0  0  0  0  0  0  0  0  0  0  0  0
    1.7978    0.8217    6.8244 C   0  0  0  0  0  0  0  0  0  0  0  0
    2.6607    1.2812    7.2787 H   0  0  0  0  0  0  0  0  0  0  0  0
    1.3181    1.2917    5.6125 C   0  0  0  0  0  0  0  0  0  0  0  0
    1.7833    2.1116    5.0832 H   0  0  0  0  0  0  0  0  0  0  0  0
   -2.4216    2.8167    4.5636 Cl  0  0  0  0  0  0  0  0  0  0  0  0
    0.0800   -0.9254    2.1896 S   0  0  0  0  0  0  0  0  0  0  0  0
   -1.3142   -0.2594    1.3035 C   0  0  2  0  0  3  0  0  0  0  0  0
   -1.9264    0.7641    1.8783 N   0  0  0  0  0  0  0  0  0  0  0  0
   -2.9916    1.2917    1.2918 C   0  0  0  0  0  0  0  0  0  0  0  0
   -3.4713    0.8217    0.0799 C   0  0  0  0  0  0  0  0  0  0  0  0
   -2.8147   -0.2338   -0.5351 C   0  0  0  0  0  0  0  0  0  0  0  0
   -1.7146   -0.7979    0.0924 C   0  0  0  0  0  0  0  0  0  0  0  0
   -1.1719   -1.6246   -0.3367 H   0  0  0  0  0  0  0  0  0  0  0  0
   -3.1535   -0.6170   -1.4858 H   0  0  0  0  0  0  0  0  0  0  0  0
   -4.3342    1.2812   -0.3744 H   0  0  0  0  0  0  0  0  0  0  0  0
   -3.4567    2.1116    1.8211 H   0  0  0  0  0  0  0  0  0  0  0  0
  1 17  1  0  0  0  0
  1  4  1  0  0  0  0
  3  1  1  0  0  0  0
  4  8  1  0  0  0  0
  4 15  1  0  0  0  0
  5  7  1  0  0  0  0
  5  2  1  0  0  0  0
  6  5  1  0  0  0  0
  8  2  1  6  0  0  0
  8  9  1  0  0  0  0
  9 10  1  0  0  0  0
  9 11  2  0  0  0  0
 11 12  1  0  0  0  0
 13 14  1  0  0  0  0
 13 11  1  0  0  0  0
 15 13  2  0  0  0  0
 16 15  1  0  0  0  0
 18  5  1  0  0  0  0
 19 24  1  1  0  0  0
 19 20  1  0  0  0  0
 19 18  1  0  0  0  0
 20  1  1  0  0  0  0
 21 28  1  0  0  0  0
 21 20  1  0  0  0  0
 22 21  2  0  0  0  0
 23 22  1  0  0  0  0
 23 24  2  0  0  0  0
 25 24  1  0  0  0  0
 26 23  1  0  0  0  0
 27 22  1  0  0  0  0
M  END
$$$$
