CSD_code = IGETUK | q = 1 | S = 0 | Stoichiometry = C15H20ClN4Zn(1+) | MND = 5
 OpenBabel04212202053D

 41 45  0  0  1  0  0  0  0  0999 V2000
    1.9766    7.6146    7.8705 Zn  0  0  0  0  0  0  0  0  0  0  0  0
    3.4818    8.9622    8.6417 Cl  0  0  0  0  0  0  0  0  0  0  0  0
    2.5792    6.3529    6.3159 N   0  0  0  0  0  0  0  0  0  0  0  0
    2.7879    5.9379    8.9976 N   0  0  2  0  0  4  0  0  0  0  0  0
    3.1784    6.3490    9.8439 H   0  0  0  0  0  0  0  0  0  0  0  0
    0.0934    7.3793    8.9583 N   0  0  2  0  0  4  0  0  0  0  0  0
    0.2658    7.9487    9.7882 H   0  0  0  0  0  0  0  0  0  0  0  0
    0.7909    9.0539    6.8808 N   0  0  0  0  0  0  0  0  0  0  0  0
    2.2158    6.3952    5.0367 C   0  0  0  0  0  3  0  0  0  0  0  0
    1.4593    7.1238    4.7820 H   0  0  0  0  0  0  0  0  0  0  0  0
    2.7632    5.5634    4.0786 C   0  0  0  0  0  0  0  0  0  0  0  0
    2.4440    5.6321    3.0517 H   0  0  0  0  0  0  0  0  0  0  0  0
    3.7282    4.6458    4.4712 C   0  0  0  0  0  0  0  0  0  0  0  0
    4.1806    3.9801    3.7529 H   0  0  0  0  0  0  0  0  0  0  0  0
    4.0981    4.5982    5.8040 C   0  0  0  0  0  0  0  0  0  0  0  0
    4.8434    3.8983    6.1473 H   0  0  0  0  0  0  0  0  0  0  0  0
    3.5009    5.4727    6.7043 C   0  0  0  0  0  0  0  0  0  0  0  0
    3.9009    5.5103    8.1532 C   0  0  0  0  0  0  0  0  0  0  0  0
    4.2996    4.5358    8.4615 H   0  0  0  0  0  0  0  0  0  0  0  0
    4.7001    6.2544    8.2448 H   0  0  0  0  0  0  0  0  0  0  0  0
    1.9151    4.8318    9.3933 C   0  0  0  0  0  0  0  0  0  0  0  0
    2.4785    4.0857    9.9703 H   0  0  0  0  0  0  0  0  0  0  0  0
    1.5427    4.3475    8.4867 H   0  0  0  0  0  0  0  0  0  0  0  0
    0.7418    5.3320   10.2314 C   0  0  0  0  0  0  0  0  0  0  0  0
    0.2732    4.4723   10.7115 H   0  0  0  0  0  0  0  0  0  0  0  0
    1.1117    5.9897   11.0211 H   0  0  0  0  0  0  0  0  0  0  0  0
   -0.3303    6.0503    9.4174 C   0  0  0  0  0  0  0  0  0  0  0  0
   -0.5705    5.4530    8.5337 H   0  0  0  0  0  0  0  0  0  0  0  0
   -1.2405    6.1368   10.0260 H   0  0  0  0  0  0  0  0  0  0  0  0
   -0.9627    8.0355    8.1826 C   0  0  0  0  0  0  0  0  0  0  0  0
   -1.7939    8.3636    8.8186 H   0  0  0  0  0  0  0  0  0  0  0  0
   -1.3567    7.3024    7.4685 H   0  0  0  0  0  0  0  0  0  0  0  0
   -0.4321    9.1986    7.3876 C   0  0  2  0  0  3  0  0  0  0  0  0
   -1.1910   10.3376    7.1577 C   0  0  0  0  0  0  0  0  0  0  0  0
   -2.1778   10.4274    7.5837 H   0  0  0  0  0  0  0  0  0  0  0  0
   -0.6564   11.3538    6.3821 C   0  0  0  0  0  0  0  0  0  0  0  0
   -1.2217   12.2534    6.1950 H   0  0  0  0  0  0  0  0  0  0  0  0
    0.6188   11.1957    5.8598 C   0  0  0  0  0  0  0  0  0  0  0  0
    1.0738   11.9632    5.2558 H   0  0  0  0  0  0  0  0  0  0  0  0
    1.3080   10.0297    6.1396 C   0  0  0  0  0  0  0  0  0  0  0  0
    2.3105    9.8657    5.7703 H   0  0  0  0  0  0  0  0  0  0  0  0
  1  2  1  0  0  0  0
  1  6  1  0  0  0  0
  1  4  1  0  0  0  0
  3 17  1  0  0  0  0
  3  1  1  0  0  0  0
  4 21  1  0  0  0  0
  4  5  1  1  0  0  0
  6 27  1  0  0  0  0
  6  7  1  1  0  0  0
  8 33  1  0  0  0  0
  8  1  1  0  0  0  0
  9  3  1  0  0  0  0
 10  9  1  0  0  0  0
 11 13  2  0  0  0  0
 11  9  1  0  0  0  0
 12 11  1  0  0  0  0
 13 15  1  0  0  0  0
 14 13  1  0  0  0  0
 15 16  1  0  0  0  0
 15 17  2  0  0  0  0
 17 18  1  0  0  0  0
 18 20  1  0  0  0  0
 18 19  1  0  0  0  0
 18  4  1  0  0  0  0
 21 22  1  0  0  0  0
 21 24  1  0  0  0  0
 23 21  1  0  0  0  0
 24 25  1  0  0  0  0
 24 26  1  0  0  0  0
 27 29  1  0  0  0  0
 27 24  1  0  0  0  0
 28 27  1  0  0  0  0
 30 31  1  0  0  0  0
 30  6  1  0  0  0  0
 32 30  1  0  0  0  0
 33 34  1  6  0  0  0
 33 30  1  0  0  0  0
 34 35  1  0  0  0  0
 36 34  2  0  0  0  0
 37 36  1  0  0  0  0
 38 40  2  0  0  0  0
 38 36  1  0  0  0  0
 39 38  1  0  0  0  0
 40  8  1  0  0  0  0
 41 40  1  0  0  0  0
M  END
$$$$
