CSD_code = IGEWUN | q = 0 | S = 0 | Stoichiometry = C31H24Cl2N2O2PRe | MND = 6
 OpenBabel04212202053D

 63 69  0  0  1  0  0  0  0  0999 V2000
    3.7667   10.0720   12.3908 Re  0  0  0  0  0  0  0  0  0  0  0  0
    5.4240   11.6492   13.0770 Cl  0  0  0  0  0  0  0  0  0  0  0  0
    2.0262    8.7503   11.4268 Cl  0  0  0  0  0  0  0  0  0  0  0  0
    2.2786   11.1625   13.9545 P   0  0  0  0  0  4  0  0  0  0  0  0
    4.1899    8.9249   13.5043 O   0  0  0  0  0  1  0  0  0  0  0  0
    3.2925   11.3184   11.1318 O   0  0  0  0  0  0  0  0  0  0  0  0
    5.0617    9.4232   10.7347 N   0  0  0  0  0  0  0  0  0  0  0  0
    6.0126    9.2782    8.7484 N   0  0  0  0  0  0  0  0  0  0  0  0
    6.2172    9.4698    7.7829 H   0  0  0  0  0  0  0  0  0  0  0  0
    3.0646   11.7029   15.4989 C   0  0  0  0  0  0  0  0  0  0  0  0
    2.6060   12.8121   16.2005 C   0  0  0  0  0  0  0  0  0  0  0  0
    1.8066   13.4192   15.7986 H   0  0  0  0  0  0  0  0  0  0  0  0
    3.1891   13.1455   17.4098 C   0  0  0  0  0  0  0  0  0  0  0  0
    2.8413   14.0133   17.9510 H   0  0  0  0  0  0  0  0  0  0  0  0
    4.2176   12.3729   17.9237 C   0  0  0  0  0  0  0  0  0  0  0  0
    4.6724   12.6418   18.8657 H   0  0  0  0  0  0  0  0  0  0  0  0
    4.6651   11.2594   17.2306 C   0  0  0  0  0  0  0  0  0  0  0  0
    5.4674   10.6588   17.6317 H   0  0  0  0  0  0  0  0  0  0  0  0
    4.0888   10.9199   16.0208 C   0  0  0  0  0  0  0  0  0  0  0  0
    4.4360   10.0615   15.4586 H   0  0  0  0  0  0  0  0  0  0  0  0
    0.9133   10.1630   14.6091 C   0  0  0  0  0  0  0  0  0  0  0  0
    1.0586    8.7809   14.6536 C   0  0  0  0  0  0  0  0  0  0  0  0
    1.9465    8.3268   14.2329 H   0  0  0  0  0  0  0  0  0  0  0  0
    0.0610    8.0043   15.2156 C   0  0  0  0  0  0  0  0  0  0  0  0
    0.1676    6.9306   15.2415 H   0  0  0  0  0  0  0  0  0  0  0  0
   -1.0731    8.6027   15.7398 C   0  0  0  0  0  0  0  0  0  0  0  0
   -1.8537    7.9953   16.1736 H   0  0  0  0  0  0  0  0  0  0  0  0
   -1.2086    9.9819   15.7130 C   0  0  0  0  0  0  0  0  0  0  0  0
   -2.0904   10.4478   16.1283 H   0  0  0  0  0  0  0  0  0  0  0  0
   -0.2161   10.7660   15.1548 C   0  0  0  0  0  0  0  0  0  0  0  0
   -0.3193   11.8422   15.1375 H   0  0  0  0  0  0  0  0  0  0  0  0
    1.5701   12.6313   13.1828 C   0  0  0  0  0  0  0  0  0  0  0  0
    2.3410   13.7910   13.1224 C   0  0  0  0  0  0  0  0  0  0  0  0
    3.3203   13.8035   13.5818 H   0  0  0  0  0  0  0  0  0  0  0  0
    1.8549   14.9032   12.4599 C   0  0  0  0  0  0  0  0  0  0  0  0
    2.4491   15.8038   12.4138 H   0  0  0  0  0  0  0  0  0  0  0  0
    0.6116   14.8589   11.8466 C   0  0  0  0  0  0  0  0  0  0  0  0
    0.2341   15.7295   11.3304 H   0  0  0  0  0  0  0  0  0  0  0  0
   -0.1382   13.6927   11.8739 C   0  0  0  0  0  0  0  0  0  0  0  0
   -1.0932   13.6517   11.3709 H   0  0  0  0  0  0  0  0  0  0  0  0
    0.3411   12.5732   12.5318 C   0  0  0  0  0  0  0  0  0  0  0  0
   -0.2246   11.6518   12.5332 H   0  0  0  0  0  0  0  0  0  0  0  0
    3.3230   11.6267    9.8723 C   0  0  0  0  0  0  0  0  0  0  0  0
    2.5124   12.6537    9.3621 C   0  0  0  0  0  0  0  0  0  0  0  0
    1.8677   13.1779   10.0506 H   0  0  0  0  0  0  0  0  0  0  0  0
    2.5331   12.9701    8.0240 C   0  0  0  0  0  0  0  0  0  0  0  0
    1.8966   13.7584    7.6509 H   0  0  0  0  0  0  0  0  0  0  0  0
    3.3632   12.2771    7.1502 C   0  0  0  0  0  0  0  0  0  0  0  0
    3.3699   12.5220    6.0995 H   0  0  0  0  0  0  0  0  0  0  0  0
    4.1772   11.2735    7.6275 C   0  0  0  0  0  0  0  0  0  0  0  0
    4.8075   10.7392    6.9313 H   0  0  0  0  0  0  0  0  0  0  0  0
    4.1858   10.9279    8.9814 C   0  0  0  0  0  0  0  0  0  0  0  0
    5.0533    9.8947    9.4970 C   0  0  2  0  0  3  0  0  0  0  0  0
    6.0471    8.4748   10.8095 C   0  0  0  0  0  0  0  0  0  0  0  0
    6.4688    7.6850   11.8730 C   0  0  0  0  0  0  0  0  0  0  0  0
    5.9860    7.7739   12.8354 H   0  0  0  0  0  0  0  0  0  0  0  0
    7.5057    6.8086   11.6344 C   0  0  0  0  0  0  0  0  0  0  0  0
    7.8625    6.1786   12.4345 H   0  0  0  0  0  0  0  0  0  0  0  0
    8.1139    6.7132   10.3796 C   0  0  0  0  0  0  0  0  0  0  0  0
    8.9241    6.0133   10.2413 H   0  0  0  0  0  0  0  0  0  0  0  0
    7.7063    7.4907    9.3141 C   0  0  0  0  0  0  0  0  0  0  0  0
    8.1765    7.4170    8.3455 H   0  0  0  0  0  0  0  0  0  0  0  0
    6.6635    8.3734    9.5463 C   0  0  0  0  0  0  0  0  0  0  0  0
  1  2  1  0  0  0  0
  1  5  1  0  0  0  0
  1  4  1  0  0  0  0
  3  1  1  0  0  0  0
  4 21  1  0  0  0  0
  4 10  1  0  0  0  0
  6  1  1  0  0  0  0
  7 54  1  0  0  0  0
  7  1  1  0  0  0  0
  8 53  1  0  0  0  0
  8 63  1  0  0  0  0
  9  8  1  0  0  0  0
 10 19  2  0  0  0  0
 10 11  1  0  0  0  0
 11 13  2  0  0  0  0
 12 11  1  0  0  0  0
 13 15  1  0  0  0  0
 13 14  1  0  0  0  0
 15 16  1  0  0  0  0
 17 18  1  0  0  0  0
 17 15  2  0  0  0  0
 19 17  1  0  0  0  0
 20 19  1  0  0  0  0
 21 22  2  0  0  0  0
 21 30  1  0  0  0  0
 22 24  1  0  0  0  0
 23 22  1  0  0  0  0
 24 25  1  0  0  0  0
 24 26  2  0  0  0  0
 26 27  1  0  0  0  0
 28 26  1  0  0  0  0
 28 29  1  0  0  0  0
 30 28  2  0  0  0  0
 31 30  1  0  0  0  0
 32  4  1  0  0  0  0
 33 32  1  0  0  0  0
 33 34  1  0  0  0  0
 35 33  2  0  0  0  0
 36 35  1  0  0  0  0
 37 39  2  0  0  0  0
 37 35  1  0  0  0  0
 38 37  1  0  0  0  0
 39 41  1  0  0  0  0
 40 39  1  0  0  0  0
 41 42  1  0  0  0  0
 41 32  2  0  0  0  0
 43  6  1  0  0  0  0
 44 43  1  0  0  0  0
 44 45  1  0  0  0  0
 46 44  2  0  0  0  0
 47 46  1  0  0  0  0
 48 50  2  0  0  0  0
 48 46  1  0  0  0  0
 49 48  1  0  0  0  0
 50 52  1  0  0  0  0
 51 50  1  0  0  0  0
 52 43  2  0  0  0  0
 53 52  1  1  0  0  0
 53  7  1  0  0  0  0
 54 55  1  0  0  0  0
 55 56  1  0  0  0  0
 57 55  2  0  0  0  0
 57 58  1  0  0  0  0
 59 57  1  0  0  0  0
 60 59  1  0  0  0  0
 61 63  1  0  0  0  0
 61 59  2  0  0  0  0
 62 61  1  0  0  0  0
 63 54  2  0  0  0  0
M  END
$$$$
