CSD_code = IGEXOI | q = 0 | S = 0 | Stoichiometry = C31H24AsBr2N2O2Re | MND = 6
 OpenBabel04212202053D

 63 68  0  0  1  0  0  0  0  0999 V2000
   10.2841    2.2257    0.7132 Re  0  0  0  0  0  0  0  0  0  0  0  0
    8.8904    4.2432   -0.0336 As  0  0  0  0  0  0  0  0  0  0  0  0
   11.4049    0.1827    1.6601 Br  0  0  0  0  0  0  0  0  0  0  0  0
    9.6559    1.1243   -1.4051 Br  0  0  0  0  0  0  0  0  0  0  0  0
   11.6733    2.8465    0.0663 O   0  0  0  0  0  1  0  0  0  0  0  0
    8.7042    1.6837    1.5220 O   0  0  0  0  0  0  0  0  0  0  0  0
   10.5201    3.1573    2.7077 N   0  0  0  0  0  0  0  0  0  0  0  0
   10.2546    3.6266    4.8457 N   0  0  0  0  0  0  0  0  0  0  0  0
    9.8862    3.5953    5.7806 H   0  0  0  0  0  0  0  0  0  0  0  0
    6.9535    4.0411   -0.0697 C   0  0  0  0  0  0  0  0  0  0  0  0
    6.4107    2.8489   -0.5392 C   0  0  0  0  0  0  0  0  0  0  0  0
    7.0629    2.0587   -0.8961 H   0  0  0  0  0  0  0  0  0  0  0  0
    5.0377    2.6711   -0.5591 C   0  0  0  0  0  0  0  0  0  0  0  0
    4.6238    1.7422   -0.9222 H   0  0  0  0  0  0  0  0  0  0  0  0
    4.1999    3.6808   -0.1160 C   0  0  0  0  0  0  0  0  0  0  0  0
    3.1293    3.5402   -0.1274 H   0  0  0  0  0  0  0  0  0  0  0  0
    4.7348    4.8755    0.3385 C   0  0  0  0  0  0  0  0  0  0  0  0
    4.0825    5.6682    0.6757 H   0  0  0  0  0  0  0  0  0  0  0  0
    6.1065    5.0575    0.3638 C   0  0  0  0  0  0  0  0  0  0  0  0
    6.5262    5.9939    0.7204 H   0  0  0  0  0  0  0  0  0  0  0  0
    9.3134    5.0201   -1.7636 C   0  0  0  0  0  0  0  0  0  0  0  0
   10.5270    4.6966   -2.3583 C   0  0  0  0  0  0  0  0  0  0  0  0
   11.2057    4.0129   -1.8539 H   0  0  0  0  0  0  0  0  0  0  0  0
   10.8547    5.2302   -3.5929 C   0  0  0  0  0  0  0  0  0  0  0  0
   11.7948    4.9738   -4.0575 H   0  0  0  0  0  0  0  0  0  0  0  0
    9.9698    6.0815   -4.2337 C   0  0  0  0  0  0  0  0  0  0  0  0
   10.2218    6.4927   -5.1998 H   0  0  0  0  0  0  0  0  0  0  0  0
    8.7561    6.4003   -3.6451 C   0  0  0  0  0  0  0  0  0  0  0  0
    8.0650    7.0582   -4.1515 H   0  0  0  0  0  0  0  0  0  0  0  0
    8.4231    5.8695   -2.4113 C   0  0  0  0  0  0  0  0  0  0  0  0
    7.4698    6.1050   -1.9481 H   0  0  0  0  0  0  0  0  0  0  0  0
    9.1689    5.6928    1.2261 C   0  0  0  0  0  0  0  0  0  0  0  0
    8.5673    5.6260    2.4817 C   0  0  0  0  0  0  0  0  0  0  0  0
    7.8215    4.8583    2.6761 H   0  0  0  0  0  0  0  0  0  0  0  0
    8.9145    6.5248    3.4731 C   0  0  0  0  0  0  0  0  0  0  0  0
    8.4404    6.4687    4.4430 H   0  0  0  0  0  0  0  0  0  0  0  0
    9.8746    7.4927    3.2245 C   0  0  0  0  0  0  0  0  0  0  0  0
   10.1536    8.1872    4.0025 H   0  0  0  0  0  0  0  0  0  0  0  0
   10.4791    7.5651    1.9809 C   0  0  0  0  0  0  0  0  0  0  0  0
   11.2290    8.3178    1.7889 H   0  0  0  0  0  0  0  0  0  0  0  0
   10.1334    6.6659    0.9871 C   0  0  0  0  0  0  0  0  0  0  0  0
   10.6136    6.7065    0.0148 H   0  0  0  0  0  0  0  0  0  0  0  0
    8.1188    1.4684    2.6621 C   0  0  0  0  0  0  0  0  0  0  0  0
    8.6428    2.0343    3.8567 C   0  0  0  0  0  0  0  0  0  0  0  0
    9.7985    2.8980    3.7879 C   0  0  1  0  0  3  0  0  0  0  0  0
   11.4766    4.0721    3.0557 C   0  0  0  0  0  0  0  0  0  0  0  0
   12.4719    4.6795    2.3001 C   0  0  0  0  0  0  0  0  0  0  0  0
   12.5985    4.4222    1.2582 H   0  0  0  0  0  0  0  0  0  0  0  0
   13.2828    5.5907    2.9412 C   0  0  0  0  0  0  0  0  0  0  0  0
   14.0695    6.0797    2.3879 H   0  0  0  0  0  0  0  0  0  0  0  0
   13.1165    5.8976    4.2936 C   0  0  0  0  0  0  0  0  0  0  0  0
   13.7767    6.6175    4.7527 H   0  0  0  0  0  0  0  0  0  0  0  0
   12.1343    5.3005    5.0579 C   0  0  0  0  0  0  0  0  0  0  0  0
   12.0092    5.5338    6.1039 H   0  0  0  0  0  0  0  0  0  0  0  0
   11.3160    4.3829    4.4205 C   0  0  0  0  0  0  0  0  0  0  0  0
    6.9568    0.6852    2.7258 C   0  0  0  0  0  0  0  0  0  0  0  0
    6.5767    0.2695    1.8045 H   0  0  0  0  0  0  0  0  0  0  0  0
    7.9953    1.7615    5.0645 C   0  0  0  0  0  0  0  0  0  0  0  0
    8.3905    2.1582    5.9886 H   0  0  0  0  0  0  0  0  0  0  0  0
    6.8645    0.9760    5.1057 C   0  0  0  0  0  0  0  0  0  0  0  0
    6.3857    0.7733    6.0510 H   0  0  0  0  0  0  0  0  0  0  0  0
    6.3435    0.4421    3.9318 C   0  0  0  0  0  0  0  0  0  0  0  0
    5.4563   -0.1715    3.9664 H   0  0  0  0  0  0  0  0  0  0  0  0
  1  6  1  0  0  0  0
  1  3  1  0  0  0  0
  1  7  1  0  0  0  0
  2 32  1  0  0  0  0
  4  1  1  0  0  0  0
  5  1  1  0  0  0  0
  6 43  1  0  0  0  0
  7 46  1  0  0  0  0
  7 45  1  0  0  0  0
  8  9  1  0  0  0  0
 10  2  1  0  0  0  0
 10 19  1  0  0  0  0
 11 10  2  0  0  0  0
 12 11  1  0  0  0  0
 13 11  1  0  0  0  0
 13 15  2  0  0  0  0
 14 13  1  0  0  0  0
 15 17  1  0  0  0  0
 16 15  1  0  0  0  0
 17 19  2  0  0  0  0
 17 18  1  0  0  0  0
 19 20  1  0  0  0  0
 21  2  1  0  0  0  0
 22 23  1  0  0  0  0
 22 21  1  0  0  0  0
 24 22  2  0  0  0  0
 25 24  1  0  0  0  0
 26 28  2  0  0  0  0
 26 24  1  0  0  0  0
 27 26  1  0  0  0  0
 28 30  1  0  0  0  0
 29 28  1  0  0  0  0
 30 31  1  0  0  0  0
 30 21  2  0  0  0  0
 32 33  1  0  0  0  0
 33 34  1  0  0  0  0
 33 35  2  0  0  0  0
 35 36  1  0  0  0  0
 37 35  1  0  0  0  0
 37 38  1  0  0  0  0
 39 37  2  0  0  0  0
 40 39  1  0  0  0  0
 41 32  2  0  0  0  0
 41 39  1  0  0  0  0
 42 41  1  0  0  0  0
 43 56  2  0  0  0  0
 43 44  1  0  0  0  0
 44 58  2  0  0  0  0
 45 44  1  6  0  0  0
 45  8  1  0  0  0  0
 46 55  1  0  0  0  0
 47 49  1  0  0  0  0
 47 46  2  0  0  0  0
 48 47  1  0  0  0  0
 49 51  2  0  0  0  0
 50 49  1  0  0  0  0
 51 52  1  0  0  0  0
 51 53  1  0  0  0  0
 53 54  1  0  0  0  0
 55  8  1  0  0  0  0
 55 53  2  0  0  0  0
 56 62  1  0  0  0  0
 57 56  1  0  0  0  0
 58 60  1  0  0  0  0
 58 59  1  0  0  0  0
 60 61  1  0  0  0  0
 62 63  1  0  0  0  0
 62 60  2  0  0  0  0
M  END
$$$$
