CSD_code = IGEXIC | q = 0 | S = 0 | Stoichiometry = C31H24AsCl2N2O2Re | MND = 6
 OpenBabel04212202053D

 63 68  0  0  1  0  0  0  0  0999 V2000
    1.9706    3.6119    0.8409 Re  0  0  0  0  0  0  0  0  0  0  0  0
    2.7270    4.8781    0.0826 O   0  0  0  0  0  1  0  0  0  0  0  0
    1.4136    2.0524    1.7750 O   0  0  0  0  0  0  0  0  0  0  0  0
    0.1445    4.7184    1.7363 Cl  0  0  0  0  0  0  0  0  0  0  0  0
    0.7391    2.9627   -0.9841 Cl  0  0  0  0  0  0  0  0  0  0  0  0
    2.9594    3.9581    2.7703 N   0  0  0  0  0  0  0  0  0  0  0  0
    3.7582    3.6681    4.8074 N   0  0  0  0  0  0  0  0  0  0  0  0
    3.9613    3.2254    5.6868 H   0  0  0  0  0  0  0  0  0  0  0  0
    3.8517    2.1065    0.0032 As  0  0  0  0  0  0  0  0  0  0  0  0
    5.2162    2.0386    1.3891 C   0  0  0  0  0  0  0  0  0  0  0  0
    5.8477    3.2476    1.6824 C   0  0  0  0  0  0  0  0  0  0  0  0
    5.6598    4.1036    1.0389 H   0  0  0  0  0  0  0  0  0  0  0  0
    6.6738    3.3595    2.7847 C   0  0  0  0  0  0  0  0  0  0  0  0
    7.1515    4.3021    3.0093 H   0  0  0  0  0  0  0  0  0  0  0  0
    6.8736    2.2625    3.6099 C   0  0  0  0  0  0  0  0  0  0  0  0
    7.5155    2.3486    4.4746 H   0  0  0  0  0  0  0  0  0  0  0  0
    6.2456    1.0602    3.3307 C   0  0  0  0  0  0  0  0  0  0  0  0
    6.3953    0.2080    3.9779 H   0  0  0  0  0  0  0  0  0  0  0  0
    5.4111    0.9483    2.2302 C   0  0  0  0  0  0  0  0  0  0  0  0
    4.8952    0.0150    2.0278 H   0  0  0  0  0  0  0  0  0  0  0  0
    4.8333    2.7001   -1.5669 C   0  0  0  0  0  0  0  0  0  0  0  0
    4.0863    3.2458   -2.6060 C   0  0  0  0  0  0  0  0  0  0  0  0
    3.0108    3.3419   -2.4893 H   0  0  0  0  0  0  0  0  0  0  0  0
    4.7189    3.6741   -3.7600 C   0  0  0  0  0  0  0  0  0  0  0  0
    4.1397    4.1019   -4.5647 H   0  0  0  0  0  0  0  0  0  0  0  0
    6.0949    3.5605   -3.8790 C   0  0  0  0  0  0  0  0  0  0  0  0
    6.5891    3.8988   -4.7777 H   0  0  0  0  0  0  0  0  0  0  0  0
    6.8411    3.0198   -2.8445 C   0  0  0  0  0  0  0  0  0  0  0  0
    7.9145    2.9374   -2.9373 H   0  0  0  0  0  0  0  0  0  0  0  0
    6.2143    2.5882   -1.6876 C   0  0  0  0  0  0  0  0  0  0  0  0
    6.7954    2.1740   -0.8687 H   0  0  0  0  0  0  0  0  0  0  0  0
    3.5273    0.2374   -0.4453 C   0  0  0  0  0  0  0  0  0  0  0  0
    2.2286   -0.2187   -0.6304 C   0  0  0  0  0  0  0  0  0  0  0  0
    1.4017    0.4773   -0.5388 H   0  0  0  0  0  0  0  0  0  0  0  0
    2.0036   -1.5463   -0.9576 C   0  0  0  0  0  0  0  0  0  0  0  0
    0.9936   -1.9008   -1.1022 H   0  0  0  0  0  0  0  0  0  0  0  0
    3.0705   -2.4160   -1.1056 C   0  0  0  0  0  0  0  0  0  0  0  0
    2.8934   -3.4509   -1.3585 H   0  0  0  0  0  0  0  0  0  0  0  0
    4.3694   -1.9591   -0.9413 C   0  0  0  0  0  0  0  0  0  0  0  0
    5.2015   -2.6359   -1.0706 H   0  0  0  0  0  0  0  0  0  0  0  0
    4.6003   -0.6348   -0.6150 C   0  0  0  0  0  0  0  0  0  0  0  0
    5.6140   -0.2631   -0.4930 H   0  0  0  0  0  0  0  0  0  0  0  0
    1.7895    1.2630    2.7316 C   0  0  0  0  0  0  0  0  0  0  0  0
    1.3311   -0.0665    2.7777 C   0  0  0  0  0  0  0  0  0  0  0  0
    0.6509   -0.3914    2.0050 H   0  0  0  0  0  0  0  0  0  0  0  0
    1.7440   -0.9226    3.7700 C   0  0  0  0  0  0  0  0  0  0  0  0
    1.3867   -1.9414    3.7803 H   0  0  0  0  0  0  0  0  0  0  0  0
    2.6221   -0.4864    4.7573 C   0  0  0  0  0  0  0  0  0  0  0  0
    2.9489   -1.1650    5.5299 H   0  0  0  0  0  0  0  0  0  0  0  0
    3.0693    0.8159    4.7497 C   0  0  0  0  0  0  0  0  0  0  0  0
    3.7592    1.1387    5.5164 H   0  0  0  0  0  0  0  0  0  0  0  0
    2.6704    1.7139    3.7561 C   0  0  0  0  0  0  0  0  0  0  0  0
    3.1130    3.0873    3.7565 C   0  0  1  0  0  3  0  0  0  0  0  0
    4.0215    4.9733    4.4789 C   0  0  0  0  0  0  0  0  0  0  0  0
    4.6501    6.0065    5.1547 C   0  0  0  0  0  0  0  0  0  0  0  0
    5.0437    5.8708    6.1503 H   0  0  0  0  0  0  0  0  0  0  0  0
    4.7423    7.2169    4.4963 C   0  0  0  0  0  0  0  0  0  0  0  0
    5.2215    8.0493    4.9891 H   0  0  0  0  0  0  0  0  0  0  0  0
    4.2244    7.3957    3.2107 C   0  0  0  0  0  0  0  0  0  0  0  0
    4.3150    8.3637    2.7429 H   0  0  0  0  0  0  0  0  0  0  0  0
    3.5966    6.3725    2.5327 C   0  0  0  0  0  0  0  0  0  0  0  0
    3.1825    6.4924    1.5423 H   0  0  0  0  0  0  0  0  0  0  0  0
    3.5026    5.1466    3.1804 C   0  0  0  0  0  0  0  0  0  0  0  0
  1  4  1  0  0  0  0
  1  3  1  0  0  0  0
  1  6  1  0  0  0  0
  2  1  1  0  0  0  0
  3 43  1  0  0  0  0
  5  1  1  0  0  0  0
  6 63  1  0  0  0  0
  6 53  1  0  0  0  0
  7  8  1  0  0  0  0
  9 10  1  0  0  0  0
 10 11  2  0  0  0  0
 10 19  1  0  0  0  0
 11 13  1  0  0  0  0
 12 11  1  0  0  0  0
 13 14  1  0  0  0  0
 13 15  2  0  0  0  0
 15 16  1  0  0  0  0
 17 15  1  0  0  0  0
 17 18  1  0  0  0  0
 19 17  2  0  0  0  0
 20 19  1  0  0  0  0
 21  9  1  0  0  0  0
 22 23  1  0  0  0  0
 22 21  2  0  0  0  0
 24 22  1  0  0  0  0
 25 24  1  0  0  0  0
 26 24  2  0  0  0  0
 26 28  1  0  0  0  0
 27 26  1  0  0  0  0
 28 30  2  0  0  0  0
 29 28  1  0  0  0  0
 30 21  1  0  0  0  0
 30 31  1  0  0  0  0
 32  9  1  0  0  0  0
 33 34  1  0  0  0  0
 33 32  2  0  0  0  0
 35 33  1  0  0  0  0
 36 35  1  0  0  0  0
 37 35  2  0  0  0  0
 37 39  1  0  0  0  0
 38 37  1  0  0  0  0
 39 41  2  0  0  0  0
 40 39  1  0  0  0  0
 41 42  1  0  0  0  0
 41 32  1  0  0  0  0
 43 44  2  0  0  0  0
 43 52  1  0  0  0  0
 44 46  1  0  0  0  0
 45 44  1  0  0  0  0
 46 47  1  0  0  0  0
 46 48  2  0  0  0  0
 48 49  1  0  0  0  0
 50 48  1  0  0  0  0
 50 51  1  0  0  0  0
 52 50  2  0  0  0  0
 53 52  1  1  0  0  0
 53  7  1  0  0  0  0
 54  7  1  0  0  0  0
 54 55  1  0  0  0  0
 55 56  1  0  0  0  0
 57 58  1  0  0  0  0
 57 55  2  0  0  0  0
 59 57  1  0  0  0  0
 60 59  1  0  0  0  0
 61 63  1  0  0  0  0
 61 59  2  0  0  0  0
 62 61  1  0  0  0  0
 63 54  2  0  0  0  0
M  END
$$$$
