CSD_code = IGIKOZ | q = 0 | S = 0 | Stoichiometry = C5H4ClN2O5Re | MND = 6
 OpenBabel04212202053D

 18 18  0  0  0  0  0  0  0  0999 V2000
    4.7355    7.2453    6.0256 C   0  0  0  0  0  2  0  0  0  0  0  0
    2.9257    8.6378    7.7369 C   0  0  0  0  0  2  0  0  0  0  0  0
    0.7923    7.9258    4.7527 C   0  0  0  0  0  0  0  0  0  0  0  0
   -0.0247    7.3538    4.3317 H   0  0  0  0  0  0  0  0  0  0  0  0
    3.8002    8.6376    3.5087 Cl  0  0  0  0  0  0  0  0  0  0  0  0
    1.8179    7.3435    5.2746 N   0  0  0  0  0  0  0  0  0  0  0  0
    5.5027    6.3998    6.0127 O   0  0  0  0  0  1  0  0  0  0  0  0
    2.6375    8.6378    8.8457 O   0  0  0  0  0  1  0  0  0  0  0  0
    1.7652    5.9737    5.2712 O   0  0  0  0  0  0  0  0  0  0  0  0
    2.6129    5.6329    5.5970 H   0  0  0  0  0  0  0  0  0  0  0  0
    3.3774    8.6378    5.8401 Re  0  0  0  0  0  0  0  0  0  0  0  0
    4.7356   10.0303    6.0255 C   0  0  0  0  0  2  0  0  0  0  0  0
    0.7922    9.3497    4.7528 C   0  0  0  0  0  0  0  0  0  0  0  0
   -0.0248    9.9217    4.3319 H   0  0  0  0  0  0  0  0  0  0  0  0
    1.8178    9.9320    5.2748 N   0  0  0  0  0  0  0  0  0  0  0  0
    5.5029   10.8757    6.0125 O   0  0  0  0  0  1  0  0  0  0  0  0
    1.7651   11.3019    5.2713 O   0  0  0  0  0  0  0  0  0  0  0  0
    2.6128   11.6426    5.5971 H   0  0  0  0  0  0  0  0  0  0  0  0
  2  8  1  0  0  0  0
  3 13  2  0  0  0  0
  3  6  1  0  0  0  0
  4  3  1  0  0  0  0
  5 11  1  0  0  0  0
  6 11  1  0  0  0  0
  7  1  1  0  0  0  0
  9  6  1  0  0  0  0
  9 10  1  0  0  0  0
 11 12  1  0  0  0  0
 11  1  1  0  0  0  0
 11  2  1  0  0  0  0
 13 15  1  0  0  0  0
 14 13  1  0  0  0  0
 15 11  1  0  0  0  0
 16 12  1  0  0  0  0
 17 15  1  0  0  0  0
 17 18  1  0  0  0  0
M  END
$$$$
