CSD_code = IGILIU | q = 0 | S = 0 | Stoichiometry = C7H8BrN2O5Re | MND = 6
 OpenBabel04212202053D

 24 24  0  0  0  0  0  0  0  0999 V2000
    5.1957    6.0285    9.9996 Br  0  0  0  0  0  0  0  0  0  0  0  0
    6.5854    7.6906    7.6385 C   0  0  0  0  0  2  0  0  0  0  0  0
    5.1943    6.4557    5.5084 C   0  0  0  0  0  2  0  0  0  0  0  0
    5.9195    3.4883    7.5516 C   0  0  0  0  0  0  0  0  0  0  0  0
    6.6759    2.2094    7.6610 C   0  0  0  0  0  0  0  0  0  0  0  0
    7.7447    2.4045    7.6547 H   0  0  0  0  0  0  0  0  0  0  0  0
    6.4288    1.5522    6.8286 H   0  0  0  0  0  0  0  0  0  0  0  0
    6.4136    1.6996    8.5870 H   0  0  0  0  0  0  0  0  0  0  0  0
    6.4804    4.6510    7.4588 N   0  0  0  0  0  0  0  0  0  0  0  0
    7.4422    8.4252    7.8258 O   0  0  0  0  0  1  0  0  0  0  0  0
    5.1949    6.5218    4.3662 O   0  0  0  0  0  1  0  0  0  0  0  0
    7.8614    4.6553    7.4406 O   0  0  0  0  0  0  0  0  0  0  0  0
    8.1550    5.5766    7.5103 H   0  0  0  0  0  0  0  0  0  0  0  0
    5.1945    6.3296    7.4498 Re  0  0  0  0  0  0  0  0  0  0  0  0
    3.8034    7.6904    7.6381 C   0  0  0  0  0  2  0  0  0  0  0  0
    4.4694    3.4883    7.5517 C   0  0  0  0  0  0  0  0  0  0  0  0
    3.7131    2.2094    7.6613 C   0  0  0  0  0  0  0  0  0  0  0  0
    2.6443    2.4046    7.6558 H   0  0  0  0  0  0  0  0  0  0  0  0
    3.9595    1.5524    6.8286 H   0  0  0  0  0  0  0  0  0  0  0  0
    3.9759    1.6993    8.5869 H   0  0  0  0  0  0  0  0  0  0  0  0
    3.9086    4.6511    7.4590 N   0  0  0  0  0  0  0  0  0  0  0  0
    2.9462    8.4248    7.8248 O   0  0  0  0  0  1  0  0  0  0  0  0
    2.5275    4.6552    7.4409 O   0  0  0  0  0  0  0  0  0  0  0  0
    2.2338    5.5765    7.5097 H   0  0  0  0  0  0  0  0  0  0  0  0
  2 10  1  0  0  0  0
  3 14  1  0  0  0  0
  4 16  2  0  0  0  0
  4  5  1  0  0  0  0
  5  8  1  0  0  0  0
  6  5  1  0  0  0  0
  7  5  1  0  0  0  0
  9  4  1  0  0  0  0
 11  3  1  0  0  0  0
 12  9  1  0  0  0  0
 12 13  1  0  0  0  0
 14  9  1  0  0  0  0
 14 21  1  0  0  0  0
 14 15  1  0  0  0  0
 14  2  1  0  0  0  0
 14  1  1  0  0  0  0
 15 22  1  0  0  0  0
 16 17  1  0  0  0  0
 17 20  1  0  0  0  0
 18 17  1  0  0  0  0
 19 17  1  0  0  0  0
 21 16  1  0  0  0  0
 23 21  1  0  0  0  0
 23 24  1  0  0  0  0
M  END
$$$$
