CSD_code = IGILEQ | q = 0 | S = 0 | Stoichiometry = C7H8ClN2O5Re | MND = 6
 OpenBabel04212202053D

 24 24  0  0  0  0  0  0  0  0999 V2000
    5.0660    6.4594    1.3350 Re  0  0  0  0  0  0  0  0  0  0  0  0
    5.0634    5.9644    3.6506 Cl  0  0  0  0  0  0  0  0  0  0  0  0
    2.4008    4.7911    1.2483 O   0  0  0  0  0  0  0  0  0  0  0  0
    2.1126    5.7165    1.2574 H   0  0  0  0  0  0  0  0  0  0  0  0
    3.7803    4.7865    1.2802 N   0  0  0  0  0  0  0  0  0  0  0  0
    5.0590    6.8490   -1.7344 O   0  0  0  0  0  1  0  0  0  0  0  0
    2.8346    8.5149    1.9270 O   0  0  0  0  0  1  0  0  0  0  0  0
    5.0632    6.7182   -0.5950 C   0  0  0  0  0  2  0  0  0  0  0  0
    3.6818    7.7983    1.6512 C   0  0  0  0  0  2  0  0  0  0  0  0
    4.3400    3.6299    1.4091 C   0  0  0  0  0  0  0  0  0  0  0  0
    3.5847    2.3519    1.5437 C   0  0  0  0  0  0  0  0  0  0  0  0
    2.5156    2.5451    1.5222 H   0  0  0  0  0  0  0  0  0  0  0  0
    3.8384    1.8665    2.4852 H   0  0  0  0  0  0  0  0  0  0  0  0
    3.8408    1.6733    0.7312 H   0  0  0  0  0  0  0  0  0  0  0  0
    7.7328    4.7880    1.2410 O   0  0  0  0  0  0  0  0  0  0  0  0
    8.0222    5.7130    1.2512 H   0  0  0  0  0  0  0  0  0  0  0  0
    6.3534    4.7854    1.2778 N   0  0  0  0  0  0  0  0  0  0  0  0
    7.2954    8.5171    1.9295 O   0  0  0  0  0  1  0  0  0  0  0  0
    6.4492    7.8001    1.6512 C   0  0  0  0  0  2  0  0  0  0  0  0
    5.7927    3.6295    1.4099 C   0  0  0  0  0  0  0  0  0  0  0  0
    6.5465    2.3510    1.5490 C   0  0  0  0  0  0  0  0  0  0  0  0
    7.6159    2.5432    1.5322 H   0  0  0  0  0  0  0  0  0  0  0  0
    6.2878    1.8675    2.4900 H   0  0  0  0  0  0  0  0  0  0  0  0
    6.2939    1.6713    0.7365 H   0  0  0  0  0  0  0  0  0  0  0  0
  1 19  1  0  0  0  0
  1  9  1  0  0  0  0
  1  2  1  0  0  0  0
  3  4  1  0  0  0  0
  3  5  1  0  0  0  0
  5  1  1  0  0  0  0
  5 10  1  0  0  0  0
  6  8  1  0  0  0  0
  8  1  1  0  0  0  0
  9  7  1  0  0  0  0
 10 20  2  0  0  0  0
 10 11  1  0  0  0  0
 11 13  1  0  0  0  0
 12 11  1  0  0  0  0
 14 11  1  0  0  0  0
 15 16  1  0  0  0  0
 15 17  1  0  0  0  0
 17  1  1  0  0  0  0
 17 20  1  0  0  0  0
 19 18  1  0  0  0  0
 20 21  1  0  0  0  0
 21 23  1  0  0  0  0
 22 21  1  0  0  0  0
 24 21  1  0  0  0  0
M  END
$$$$
