CSD_code = IGILAM | q = 0 | S = 0 | Stoichiometry = C5H4BrN2O5Re | MND = 6
 OpenBabel04212202053D

 18 18  0  0  0  0  0  0  0  0999 V2000
   14.1678    4.4809    7.3167 Br  0  0  0  0  0  0  0  0  0  0  0  0
   15.6403    6.9789    5.9937 C   0  0  0  0  0  2  0  0  0  0  0  0
   15.8753    4.4911    4.6488 C   0  0  0  0  0  2  0  0  0  0  0  0
   14.6074    6.6856    3.3959 C   0  0  0  0  0  2  0  0  0  0  0  0
   11.7151    4.7777    4.7680 C   0  0  0  0  0  0  0  0  0  0  0  0
   10.8669    4.1252    4.5827 H   0  0  0  0  0  0  0  0  0  0  0  0
   11.5561    6.0325    5.4168 C   0  0  0  0  0  0  0  0  0  0  0  0
   10.5888    6.4072    5.7232 H   0  0  0  0  0  0  0  0  0  0  0  0
   12.9230    4.4582    4.4394 N   0  0  0  0  0  0  0  0  0  0  0  0
   12.6380    6.7093    5.6366 N   0  0  0  0  0  0  0  0  0  0  0  0
   16.2829    7.6936    6.6141 O   0  0  0  0  0  1  0  0  0  0  0  0
   16.6431    3.6745    4.4606 O   0  0  0  0  0  1  0  0  0  0  0  0
   14.6936    7.2385    2.3991 O   0  0  0  0  0  1  0  0  0  0  0  0
   13.1699    3.2805    3.8209 O   0  0  0  0  0  0  0  0  0  0  0  0
   12.3681    2.7258    3.7667 H   0  0  0  0  0  0  0  0  0  0  0  0
   12.4364    7.9232    6.2457 O   0  0  0  0  0  0  0  0  0  0  0  0
   13.3004    8.3030    6.4698 H   0  0  0  0  0  0  0  0  0  0  0  0
   14.4274    5.7428    5.0902 Re  0  0  0  0  0  0  0  0  0  0  0  0
  2 11  1  0  0  0  0
  3 18  1  0  0  0  0
  4 18  1  0  0  0  0
  5  7  2  0  0  0  0
  6  5  1  0  0  0  0
  7 10  1  0  0  0  0
  7  8  1  0  0  0  0
  9  5  1  0  0  0  0
  9 18  1  0  0  0  0
 10 16  1  0  0  0  0
 12  3  1  0  0  0  0
 13  4  1  0  0  0  0
 14  9  1  0  0  0  0
 15 14  1  0  0  0  0
 16 17  1  0  0  0  0
 18 10  1  0  0  0  0
 18  2  1  0  0  0  0
 18  1  1  0  0  0  0
M  END
$$$$
