CSD_code = IGOGAO | q = 0 | S = 0 | Stoichiometry = C21H34Cl4N2O2Zr | MND = 6
 OpenBabel04212202053D

 64 65  0  0  0  0  0  0  0  0999 V2000
    7.7000    6.2483   -1.5735 N   0  0  0  0  0  4  0  0  0  0  0  0
    8.8505    3.9146    3.0222 N   0  0  0  0  0  2  0  0  0  0  0  0
    9.0131    4.1071    4.1436 C   0  0  0  0  0  2  0  0  0  0  0  0
    7.3562    5.7546   -2.9204 C   0  0  0  0  0  0  0  0  0  0  0  0
    7.3639    6.6030   -3.6108 H   0  0  0  0  0  0  0  0  0  0  0  0
    6.3612    5.3102   -2.8964 H   0  0  0  0  0  0  0  0  0  0  0  0
    6.7235    7.2482   -1.0563 C   0  0  0  0  0  0  0  0  0  0  0  0
    7.0091    7.4607   -0.0192 H   0  0  0  0  0  0  0  0  0  0  0  0
    6.8192    8.1550   -1.6589 H   0  0  0  0  0  0  0  0  0  0  0  0
    9.0764    6.7860   -1.5780 C   0  0  0  0  0  0  0  0  0  0  0  0
    9.3325    7.0798   -0.5580 H   0  0  0  0  0  0  0  0  0  0  0  0
    9.1091    7.6475   -2.2503 H   0  0  0  0  0  0  0  0  0  0  0  0
   10.0358    5.7000   -2.0652 C   0  0  0  0  0  0  0  0  0  0  0  0
   11.0490    6.0962   -2.1376 H   0  0  0  0  0  0  0  0  0  0  0  0
   10.0157    4.8602   -1.3584 H   0  0  0  0  0  0  0  0  0  0  0  0
    0.8318    6.5474   -3.2263 C   0  0  0  0  0  0  0  0  0  0  0  0
    0.8804    5.4692   -3.3577 H   0  0  0  0  0  0  0  0  0  0  0  0
    0.3437    6.7722   -2.2813 H   0  0  0  0  0  0  0  0  0  0  0  0
    0.2167    6.9543   -4.0262 H   0  0  0  0  0  0  0  0  0  0  0  0
    2.8437    6.8346   -4.6524 C   0  0  0  0  0  0  0  0  0  0  0  0
    2.9904    5.7603   -4.7412 H   0  0  0  0  0  0  0  0  0  0  0  0
    2.1831    7.1596   -5.4530 H   0  0  0  0  0  0  0  0  0  0  0  0
    3.8046    7.3233   -4.7870 H   0  0  0  0  0  0  0  0  0  0  0  0
    2.0715    8.6962   -3.1525 C   0  0  0  0  0  0  0  0  0  0  0  0
    3.0264    9.2039   -3.2545 H   0  0  0  0  0  0  0  0  0  0  0  0
    1.4008    9.0749   -3.9206 H   0  0  0  0  0  0  0  0  0  0  0  0
    1.6568    8.9447   -2.1783 H   0  0  0  0  0  0  0  0  0  0  0  0
    9.6851    5.2627   -3.3597 O   0  0  0  0  0  0  0  0  0  0  0  0
    8.3898    4.7114   -3.3549 C   0  0  0  0  0  0  0  0  0  0  0  0
    8.3397    3.8543   -2.6705 H   0  0  0  0  0  0  0  0  0  0  0  0
    8.1900    4.3851   -4.3765 H   0  0  0  0  0  0  0  0  0  0  0  0
    9.1975    4.3546    5.5326 C   0  0  0  0  0  0  0  0  0  0  0  0
    7.7040    5.4040   -0.9287 H   0  0  0  0  0  0  0  0  0  0  0  0
    8.3418    4.9431    5.8746 H   0  0  0  0  0  0  0  0  0  0  0  0
    9.2351    3.4109    6.0760 H   0  0  0  0  0  0  0  0  0  0  0  0
   10.1165    4.9180    5.6918 H   0  0  0  0  0  0  0  0  0  0  0  0
    6.9260    4.6462    1.9650 Zr  0  0  0  0  0  0  0  0  0  0  0  0
    7.8407    3.6140   -0.0402 Cl  0  0  0  0  0  0  0  0  0  0  0  0
    8.5674    6.4091    1.6023 Cl  0  0  0  0  0  0  0  0  0  0  0  0
    6.2807    2.5621    2.8806 Cl  0  0  0  0  0  0  0  0  0  0  0  0
    6.4155    5.7391    4.0242 Cl  0  0  0  0  0  0  0  0  0  0  0  0
    5.7260    5.5039    0.8457 O   0  0  0  0  0  0  0  0  0  0  0  0
    3.5858    5.2714   -0.2295 C   0  0  0  0  0  0  0  0  0  0  0  0
    4.8859    5.8155   -0.1333 C   0  0  0  0  0  0  0  0  0  0  0  0
    5.3117    6.7351   -1.1110 C   0  0  0  0  0  0  0  0  0  0  0  0
    4.4477    7.1499   -2.1103 C   0  0  0  0  0  0  0  0  0  0  0  0
    4.8083    7.8687   -2.8312 H   0  0  0  0  0  0  0  0  0  0  0  0
    4.0585    2.9420    0.4196 C   0  0  0  0  0  0  0  0  0  0  0  0
    5.1195    3.2114    0.4583 H   0  0  0  0  0  0  0  0  0  0  0  0
    3.8832    2.1539    1.1492 H   0  0  0  0  0  0  0  0  0  0  0  0
    3.8424    2.5526   -0.5746 H   0  0  0  0  0  0  0  0  0  0  0  0
    2.7588    5.7258   -1.2456 C   0  0  0  0  0  0  0  0  0  0  0  0
    1.7647    5.3240   -1.3052 H   0  0  0  0  0  0  0  0  0  0  0  0
    3.1480    6.6723   -2.1872 C   0  0  0  0  0  0  0  0  0  0  0  0
    3.2973    4.5851    2.1858 C   0  0  0  0  0  0  0  0  0  0  0  0
    2.6998    5.4769    2.3716 H   0  0  0  0  0  0  0  0  0  0  0  0
    2.9400    3.7875    2.8353 H   0  0  0  0  0  0  0  0  0  0  0  0
    4.3360    4.7983    2.4618 H   0  0  0  0  0  0  0  0  0  0  0  0
    3.1589    4.1541    0.7165 C   0  0  0  0  0  0  0  0  0  0  0  0
    2.2265    7.1750   -3.2881 C   0  0  0  0  0  0  0  0  0  0  0  0
    1.7026    3.7199    0.5091 C   0  0  0  0  0  0  0  0  0  0  0  0
    1.0169    4.5433    0.6950 H   0  0  0  0  0  0  0  0  0  0  0  0
    1.5397    3.3352   -0.4948 H   0  0  0  0  0  0  0  0  0  0  0  0
    1.4689    2.9222    1.2104 H   0  0  0  0  0  0  0  0  0  0  0  0
  1  7  1  0  0  0  0
  1 33  1  0  0  0  0
  2  3  1  0  0  0  0
  3 32  1  0  0  0  0
  4  6  1  0  0  0  0
  4  1  1  0  0  0  0
  5  4  1  0  0  0  0
  7  8  1  0  0  0  0
  9  7  1  0  0  0  0
 10  1  1  0  0  0  0
 10 11  1  0  0  0  0
 12 10  1  0  0  0  0
 13 10  1  0  0  0  0
 13 15  1  0  0  0  0
 14 13  1  0  0  0  0
 16 18  1  0  0  0  0
 17 16  1  0  0  0  0
 19 16  1  0  0  0  0
 20 60  1  0  0  0  0
 21 20  1  0  0  0  0
 22 20  1  0  0  0  0
 23 20  1  0  0  0  0
 24 27  1  0  0  0  0
 25 24  1  0  0  0  0
 26 24  1  0  0  0  0
 28 29  1  0  0  0  0
 28 13  1  0  0  0  0
 29  4  1  0  0  0  0
 29 30  1  0  0  0  0
 31 29  1  0  0  0  0
 32 36  1  0  0  0  0
 32 34  1  0  0  0  0
 32 35  1  0  0  0  0
 37 40  1  0  0  0  0
 37  2  1  0  0  0  0
 37 41  1  0  0  0  0
 38 37  1  0  0  0  0
 39 37  1  0  0  0  0
 42 37  1  0  0  0  0
 43 44  1  0  0  0  0
 43 59  1  0  0  0  0
 44 42  1  0  0  0  0
 45  7  1  0  0  0  0
 45 44  2  0  0  0  0
 46 45  1  0  0  0  0
 47 46  1  0  0  0  0
 48 49  1  0  0  0  0
 48 59  1  0  0  0  0
 48 50  1  0  0  0  0
 51 48  1  0  0  0  0
 52 43  2  0  0  0  0
 53 52  1  0  0  0  0
 54 46  2  0  0  0  0
 54 52  1  0  0  0  0
 55 56  1  0  0  0  0
 55 58  1  0  0  0  0
 55 57  1  0  0  0  0
 59 55  1  0  0  0  0
 60 16  1  0  0  0  0
 60 24  1  0  0  0  0
 60 54  1  0  0  0  0
 61 62  1  0  0  0  0
 61 59  1  0  0  0  0
 61 64  1  0  0  0  0
 63 61  1  0  0  0  0
M  END
$$$$
