CSD_code = IGOROL | q = 0 | S = 0 | Stoichiometry = C13H15Cl2NOPtS | MND = 4
 OpenBabel04212202053D

 34 35  0  0  0  0  0  0  0  0999 V2000
    4.8036    8.5841    5.4151 Pt  0  0  0  0  0  0  0  0  0  0  0  0
    5.2182    6.8530    4.0329 Cl  0  0  0  0  0  0  0  0  0  0  0  0
    6.4459    9.8323    4.4911 Cl  0  0  0  0  0  0  0  0  0  0  0  0
    3.2108    7.2997    6.4772 S   0  0  2  0  0  0  0  0  0  0  0  0
    2.1093    8.0311    7.0992 O   0  0  0  0  0  1  0  0  0  0  0  0
    4.3957   10.1227    6.6319 N   0  0  0  0  0  0  0  0  0  0  0  0
    3.2064   10.7151    6.5719 C   0  0  0  0  0  3  0  0  0  0  0  0
    2.8687   11.7734    7.3956 C   0  0  0  0  0  0  0  0  0  0  0  0
    3.7995   12.2329    8.3143 C   0  0  0  0  0  0  0  0  0  0  0  0
    5.0392   11.6138    8.3658 C   0  0  0  0  0  0  0  0  0  0  0  0
    5.2992   10.5634    7.5052 C   0  0  0  0  0  0  0  0  0  0  0  0
    4.0853    6.4469    7.7961 C   0  0  0  0  0  0  0  0  0  0  0  0
    5.4371    6.1974    7.6424 C   0  0  0  0  0  0  0  0  0  0  0  0
    6.1270    5.5570    8.6567 C   0  0  0  0  0  0  0  0  0  0  0  0
    5.4772    5.1743    9.8251 C   0  0  0  0  0  0  0  0  0  0  0  0
    4.1188    5.4493    9.9630 C   0  0  0  0  0  0  0  0  0  0  0  0
    3.4209    6.0853    8.9540 C   0  0  0  0  0  0  0  0  0  0  0  0
    6.2189    4.4936   10.9330 C   0  0  0  0  0  0  0  0  0  0  0  0
    2.4991    5.8423    5.6483 C   0  0  0  0  0  0  0  0  0  0  0  0
    2.5028   10.3270    5.8475 H   0  0  0  0  0  0  0  0  0  0  0  0
    1.8940   12.2265    7.3144 H   0  0  0  0  0  0  0  0  0  0  0  0
    3.5664   13.0569    8.9711 H   0  0  0  0  0  0  0  0  0  0  0  0
    5.7974   11.9407    9.0591 H   0  0  0  0  0  0  0  0  0  0  0  0
    6.2592   10.0629    7.4990 H   0  0  0  0  0  0  0  0  0  0  0  0
    5.9410    6.4967    6.7287 H   0  0  0  0  0  0  0  0  0  0  0  0
    7.1813    5.3556    8.5400 H   0  0  0  0  0  0  0  0  0  0  0  0
    3.6077    5.1617   10.8702 H   0  0  0  0  0  0  0  0  0  0  0  0
    2.3717    6.3201    9.0530 H   0  0  0  0  0  0  0  0  0  0  0  0
    7.2223    4.2186   10.6203 H   0  0  0  0  0  0  0  0  0  0  0  0
    6.2951    5.1565   11.7946 H   0  0  0  0  0  0  0  0  0  0  0  0
    5.6909    3.5967   11.2514 H   0  0  0  0  0  0  0  0  0  0  0  0
    1.9923    5.2389    6.3921 H   0  0  0  0  0  0  0  0  0  0  0  0
    1.8004    6.1979    4.8993 H   0  0  0  0  0  0  0  0  0  0  0  0
    3.3192    5.3111    5.1792 H   0  0  0  0  0  0  0  0  0  0  0  0
  1  4  1  0  0  0  0
  1  6  1  0  0  0  0
  2  1  1  0  0  0  0
  3  1  1  0  0  0  0
  4  5  1  1  0  0  0
  4 12  1  0  0  0  0
  6 11  1  0  0  0  0
  7  6  1  0  0  0  0
  7  8  1  0  0  0  0
  8  9  2  0  0  0  0
  9 10  1  0  0  0  0
  9 22  1  0  0  0  0
 10 23  1  0  0  0  0
 11 10  2  0  0  0  0
 12 17  1  0  0  0  0
 13 12  2  0  0  0  0
 13 14  1  0  0  0  0
 14 15  2  0  0  0  0
 15 16  1  0  0  0  0
 15 18  1  0  0  0  0
 16 27  1  0  0  0  0
 17 28  1  0  0  0  0
 17 16  2  0  0  0  0
 18 31  1  0  0  0  0
 18 30  1  0  0  0  0
 19 32  1  0  0  0  0
 19  4  1  0  0  0  0
 20  7  1  0  0  0  0
 21  8  1  0  0  0  0
 24 11  1  0  0  0  0
 25 13  1  0  0  0  0
 26 14  1  0  0  0  0
 29 18  1  0  0  0  0
 33 19  1  0  0  0  0
 34 19  1  0  0  0  0
M  END
$$$$
