CSD_code = IGUCES | q = 0 | S = 0 | Stoichiometry = C18H28Cl2O4P2Pd | MND = 4
 OpenBabel04212202053D

 55 58  0  0  1  0  0  0  0  0999 V2000
    2.3991   -4.1552    2.9792 Pd  0  0  0  0  0  0  0  0  0  0  0  0
    2.7324   -2.1012    2.1945 P   0  0  1  0  0  4  0  0  0  0  0  0
    4.2007   -4.8917    1.7821 Cl  0  0  0  0  0  0  0  0  0  0  0  0
    4.1538   -1.3417    3.1070 C   0  0  1  0  0  0  0  0  0  0  0  0
    3.8606   -0.3314    3.4166 H   0  0  0  0  0  0  0  0  0  0  0  0
    3.3990   -1.7099    0.5077 C   0  0  1  0  0  0  0  0  0  0  0  0
    3.8144   -2.6701    0.1688 H   0  0  0  0  0  0  0  0  0  0  0  0
    1.3108   -1.0473    2.6373 C   0  0  0  0  0  0  0  0  0  0  0  0
    4.5087   -2.1885    4.3284 C   0  0  0  0  0  0  0  0  0  0  0  0
    3.6476   -2.2396    5.0058 H   0  0  0  0  0  0  0  0  0  0  0  0
    5.3504   -1.7541    4.8642 H   0  0  0  0  0  0  0  0  0  0  0  0
    4.7888   -3.2071    4.0271 H   0  0  0  0  0  0  0  0  0  0  0  0
    5.2793   -1.2080    2.0566 C   0  0  2  0  0  0  0  0  0  0  0  0
    5.9793   -0.4207    2.3620 H   0  0  0  0  0  0  0  0  0  0  0  0
    2.3651   -1.2405   -0.5083 C   0  0  0  0  0  0  0  0  0  0  0  0
    1.5852   -1.9938   -0.6107 H   0  0  0  0  0  0  0  0  0  0  0  0
    2.8329   -1.1018   -1.4823 H   0  0  0  0  0  0  0  0  0  0  0  0
    1.8949   -0.3073   -0.2052 H   0  0  0  0  0  0  0  0  0  0  0  0
    4.5827   -0.7536    0.7497 C   0  0  2  0  0  0  0  0  0  0  0  0
    5.3019   -0.8248   -0.0773 H   0  0  0  0  0  0  0  0  0  0  0  0
    1.2464    0.3087    2.3373 C   0  0  0  0  0  0  0  0  0  0  0  0
    2.0907    0.7901    1.8651 H   0  0  0  0  0  0  0  0  0  0  0  0
    0.1180    1.0377    2.6709 C   0  0  0  0  0  0  0  0  0  0  0  0
    0.0728    2.0917    2.4406 H   0  0  0  0  0  0  0  0  0  0  0  0
    6.0448   -2.3501    1.8803 O   0  0  0  0  0  0  0  0  0  0  0  0
    5.4773   -3.1470    1.7965 H   0  0  0  0  0  0  0  0  0  0  0  0
    4.1635    0.5813    0.9286 O   0  0  0  0  0  0  0  0  0  0  0  0
    3.9342    0.9491    0.0683 H   0  0  0  0  0  0  0  0  0  0  0  0
    0.2516   -1.6589    3.3214 C   0  0  0  0  0  0  0  0  0  0  0  0
    0.4536   -3.4169    3.7642 P   0  0  1  0  0  4  0  0  0  0  0  0
    2.1362   -6.0836    4.1765 Cl  0  0  0  0  0  0  0  0  0  0  0  0
   -0.9149   -4.2682    2.8517 C   0  0  1  0  0  0  0  0  0  0  0  0
   -1.6432   -3.5090    2.5421 H   0  0  0  0  0  0  0  0  0  0  0  0
   -0.3590   -4.9989    1.6302 C   0  0  0  0  0  0  0  0  0  0  0  0
    0.1158   -4.2786    0.9528 H   0  0  0  0  0  0  0  0  0  0  0  0
   -1.1560   -5.5106    1.0945 H   0  0  0  0  0  0  0  0  0  0  0  0
    0.3832   -5.7506    1.9315 H   0  0  0  0  0  0  0  0  0  0  0  0
   -1.5935   -5.1761    3.9020 C   0  0  2  0  0  0  0  0  0  0  0  0
   -2.6253   -5.3886    3.5966 H   0  0  0  0  0  0  0  0  0  0  0  0
   -1.6387   -4.3456    5.2089 C   0  0  1  0  0  0  0  0  0  0  0  0
   -0.2187   -3.7986    5.4509 C   0  0  2  0  0  0  0  0  0  0  0  0
    0.4051   -4.6384    5.7899 H   0  0  0  0  0  0  0  0  0  0  0  0
   -0.1084   -2.6685    6.4670 C   0  0  0  0  0  0  0  0  0  0  0  0
    0.9339   -2.3697    6.5695 H   0  0  0  0  0  0  0  0  0  0  0  0
   -0.4625   -3.0043    7.4409 H   0  0  0  0  0  0  0  0  0  0  0  0
   -0.6815   -1.7947    6.1638 H   0  0  0  0  0  0  0  0  0  0  0  0
   -1.9367   -5.0040    6.0359 H   0  0  0  0  0  0  0  0  0  0  0  0
   -2.5852   -3.3151    5.0299 O   0  0  0  0  0  0  0  0  0  0  0  0
   -2.7891   -2.9326    5.8902 H   0  0  0  0  0  0  0  0  0  0  0  0
   -0.9871   -6.4100    4.0783 O   0  0  0  0  0  0  0  0  0  0  0  0
   -0.0132   -6.3169    4.1621 H   0  0  0  0  0  0  0  0  0  0  0  0
   -0.8906   -0.9251    3.6213 C   0  0  0  0  0  0  0  0  0  0  0  0
   -1.7296   -1.4155    4.0934 H   0  0  0  0  0  0  0  0  0  0  0  0
   -0.9576    0.4167    3.2877 C   0  0  0  0  0  0  0  0  0  0  0  0
   -1.8479    0.9828    3.5179 H   0  0  0  0  0  0  0  0  0  0  0  0
  1 30  1  0  0  0  0
  1 31  1  0  0  0  0
  2  8  1  1  0  0  0
  2  1  1  0  0  0  0
  2  4  1  0  0  0  0
  3  1  1  0  0  0  0
  4  5  1  1  0  0  0
  4  9  1  0  0  0  0
  6  7  1  6  0  0  0
  6 19  1  0  0  0  0
  6  2  1  0  0  0  0
  8 29  1  0  0  0  0
  9 11  1  0  0  0  0
  9 10  1  0  0  0  0
 12  9  1  0  0  0  0
 13 14  1  1  0  0  0
 13  4  1  0  0  0  0
 15 18  1  0  0  0  0
 15  6  1  0  0  0  0
 16 15  1  0  0  0  0
 17 15  1  0  0  0  0
 19 20  1  6  0  0  0
 19 27  1  0  0  0  0
 19 13  1  0  0  0  0
 21  8  2  0  0  0  0
 21 23  1  0  0  0  0
 22 21  1  0  0  0  0
 23 54  2  0  0  0  0
 24 23  1  0  0  0  0
 25 13  1  0  0  0  0
 26 25  1  0  0  0  0
 28 27  1  0  0  0  0
 29 52  2  0  0  0  0
 30 29  1  6  0  0  0
 30 41  1  0  0  0  0
 32 33  1  6  0  0  0
 32 30  1  0  0  0  0
 32 38  1  0  0  0  0
 34 37  1  0  0  0  0
 34 32  1  0  0  0  0
 35 34  1  0  0  0  0
 36 34  1  0  0  0  0
 38 39  1  6  0  0  0
 38 50  1  0  0  0  0
 38 40  1  0  0  0  0
 40 41  1  0  0  0  0
 40 47  1  1  0  0  0
 41 42  1  1  0  0  0
 41 43  1  0  0  0  0
 43 44  1  0  0  0  0
 43 45  1  0  0  0  0
 46 43  1  0  0  0  0
 48 40  1  0  0  0  0
 48 49  1  0  0  0  0
 50 51  1  0  0  0  0
 52 53  1  0  0  0  0
 54 55  1  0  0  0  0
 54 52  1  0  0  0  0
M  END
$$$$
