CSD_code = IGUDET | q = 0 | S = 0 | Stoichiometry = C20H26Cl2Zr | MND = 12
 OpenBabel04212202053D

 49 50  0  0  1  0  0  0  0  0999 V2000
   -0.0873    1.6107    3.3100 Zr  0  0  0  0  0  0  0  0  0  0  0  0
   -1.2654    2.6628    5.0331 Cl  0  0  0  0  0  0  0  0  0  0  0  0
   -2.0614    1.6982    2.0307 Cl  0  0  0  0  0  0  0  0  0  0  0  0
   -0.8535   -0.4001    4.5452 C   0  0  0  0  0  0  0  0  0  0  0  0
   -1.7343   -0.3927    5.1776 H   0  0  0  0  0  0  0  0  0  0  0  0
   -0.8094   -0.8078    3.1940 C   0  0  0  0  0  0  0  0  0  0  0  0
   -1.6485   -1.1732    2.6154 H   0  0  0  0  0  0  0  0  0  0  0  0
    0.5332   -0.7615    2.7643 C   0  0  0  0  0  0  0  0  0  0  0  0
    0.9038   -1.1252    1.8134 H   0  0  0  0  0  0  0  0  0  0  0  0
    1.3279   -0.3538    3.8641 C   0  0  0  0  0  0  0  0  0  0  0  0
    2.4088   -0.3945    3.9058 H   0  0  0  0  0  0  0  0  0  0  0  0
    0.4707   -0.1188    4.9688 C   0  0  2  0  0  3  0  0  0  0  0  0
    0.9066    0.3022    6.3465 C   0  0  0  0  0  0  0  0  0  0  0  0
    0.0239    0.4526    6.9740 H   0  0  0  0  0  0  0  0  0  0  0  0
    1.5162   -0.4862    6.8025 H   0  0  0  0  0  0  0  0  0  0  0  0
    1.7163    1.6056    6.2984 C   0  0  0  0  0  0  0  0  0  0  0  0
    1.0968    2.3783    5.8248 H   0  0  0  0  0  0  0  0  0  0  0  0
    2.6212    1.4522    5.7005 H   0  0  0  0  0  0  0  0  0  0  0  0
    2.1194    2.1004    7.6861 C   0  0  0  0  0  0  0  0  0  0  0  0
    1.2206    2.2852    8.2770 H   0  0  0  0  0  0  0  0  0  0  0  0
    2.7043    1.3305    8.1952 H   0  0  0  0  0  0  0  0  0  0  0  0
    2.9485    3.3865    7.6085 C   0  0  0  0  0  0  0  0  0  0  0  0
    3.2990    3.6286    8.6171 H   0  0  0  0  0  0  0  0  0  0  0  0
    3.8302    3.2200    6.9848 H   0  0  0  0  0  0  0  0  0  0  0  0
    2.1768    4.5636    7.0943 C   0  0  0  0  0  0  0  0  0  0  0  0
    1.2322    4.7502    7.5885 H   0  0  0  0  0  0  0  0  0  0  0  0
    2.6018    5.3841    6.1460 C   0  0  0  0  0  0  0  0  0  0  0  0
    3.5511    5.1915    5.6577 H   0  0  0  0  0  0  0  0  0  0  0  0
    1.8925    6.6170    5.6775 C   0  0  0  0  0  0  0  0  0  0  0  0
    2.6040    7.4471    5.6974 H   0  0  0  0  0  0  0  0  0  0  0  0
    1.0718    6.8566    6.3554 H   0  0  0  0  0  0  0  0  0  0  0  0
    1.3408    6.4689    4.2514 C   0  0  0  0  0  0  0  0  0  0  0  0
    1.1433    7.4597    3.8369 H   0  0  0  0  0  0  0  0  0  0  0  0
    2.0941    5.9969    3.6185 H   0  0  0  0  0  0  0  0  0  0  0  0
    0.0489    5.6487    4.2421 C   0  0  0  0  0  0  0  0  0  0  0  0
   -0.7813    6.2973    4.5279 H   0  0  0  0  0  0  0  0  0  0  0  0
    0.1099    4.8566    4.9916 H   0  0  0  0  0  0  0  0  0  0  0  0
   -0.2607    5.0250    2.8782 C   0  0  0  0  0  0  0  0  0  0  0  0
   -1.3118    4.7042    2.8597 H   0  0  0  0  0  0  0  0  0  0  0  0
   -0.1399    5.7841    2.0967 H   0  0  0  0  0  0  0  0  0  0  0  0
    0.6111    3.8359    2.5535 C   0  0  0  0  0  0  0  0  0  0  0  0
    0.5237    3.0664    1.3678 C   0  0  0  0  0  0  0  0  0  0  0  0
   -0.1375    3.2704    0.5346 H   0  0  0  0  0  0  0  0  0  0  0  0
    1.5152    2.0616    1.4075 C   0  0  0  0  0  0  0  0  0  0  0  0
    1.7621    1.3888    0.5956 H   0  0  0  0  0  0  0  0  0  0  0  0
    2.2422    2.2184    2.6067 C   0  0  0  0  0  0  0  0  0  0  0  0
    3.1691    1.7172    2.8533 H   0  0  0  0  0  0  0  0  0  0  0  0
    1.6765    3.3003    3.3280 C   0  0  2  0  0  0  0  0  0  0  0  0
    2.1062    3.7475    4.2141 H   0  0  0  0  0  0  0  0  0  0  0  0
  1 48  1  0  0  0  0
  1  2  1  0  0  0  0
  3  1  1  0  0  0  0
  4 12  1  0  0  0  0
  4  5  1  0  0  0  0
  6  4  2  0  0  0  0
  7  6  1  0  0  0  0
  8  6  1  0  0  0  0
  8 10  2  0  0  0  0
  9  8  1  0  0  0  0
 10 11  1  0  0  0  0
 10 12  1  0  0  0  0
 12 13  1  1  0  0  0
 13 15  1  0  0  0  0
 13 14  1  0  0  0  0
 16 13  1  0  0  0  0
 16 19  1  0  0  0  0
 17 16  1  0  0  0  0
 18 16  1  0  0  0  0
 19 21  1  0  0  0  0
 19 20  1  0  0  0  0
 22 19  1  0  0  0  0
 22 23  1  0  0  0  0
 24 22  1  0  0  0  0
 25 26  1  0  0  0  0
 25 22  1  0  0  0  0
 27 25  2  0  0  0  0
 28 27  1  0  0  0  0
 29 30  1  0  0  0  0
 29 27  1  0  0  0  0
 29 31  1  0  0  0  0
 32 29  1  0  0  0  0
 33 32  1  0  0  0  0
 34 32  1  0  0  0  0
 35 32  1  0  0  0  0
 35 36  1  0  0  0  0
 35 37  1  0  0  0  0
 38 35  1  0  0  0  0
 39 38  1  0  0  0  0
 40 38  1  0  0  0  0
 41 38  1  0  0  0  0
 41 48  1  0  0  0  0
 42 44  1  0  0  0  0
 42 41  2  0  0  0  0
 43 42  1  0  0  0  0
 44 46  2  0  0  0  0
 45 44  1  0  0  0  0
 46 47  1  0  0  0  0
 46 48  1  0  0  0  0
 48 49  1  1  0  0  0
M  END
$$$$
