CSD_code = IGUGAS | q = 0 | S = 0 | Stoichiometry = C14H26Cl4NbP | MND = 10
 OpenBabel04212202053D

 46 42  0  0  1  0  0  0  0  0999 V2000
    7.0229    2.9078    7.7751 Nb  0  0  0  0  0  0  0  0  0  0  0  0
    9.1643    2.9074    9.1192 P   0  0  0  0  0  0  0  0  0  0  0  0
    5.8131    2.9063    9.8123 Cl  0  0  0  0  0  0  0  0  0  0  0  0
    7.5772    0.5936    8.2457 Cl  0  0  0  0  0 15  0  0  0  0  0  0
    9.1889    2.9075    6.4960 Cl  0  0  0  0  0 15  0  0  0  0  0  0
    6.2090    2.1934    5.6093 C   0  0  0  0  0  0  0  0  0  0  0  0
    5.1908    1.7576    6.5069 C   0  0  0  0  0  0  0  0  0  0  0  0
    4.5541    2.9076    7.0445 C   0  0  0  0  0  0  0  0  0  0  0  0
    6.9764    1.2943    4.6940 C   0  0  0  0  0  0  0  0  0  0  0  0
    4.7408    0.3461    6.6984 C   0  0  0  0  0  0  0  0  0  0  0  0
    3.3386    2.9076    7.9099 C   0  0  0  0  0  0  0  0  0  0  0  0
    9.2737    2.9076   10.9748 C   0  0  0  0  0  0  0  0  0  0  0  0
   10.7600    2.9077   11.3349 C   0  0  0  0  0  0  0  0  0  0  0  0
    8.5944    1.6432   11.4950 C   0  0  0  0  0  0  0  0  0  0  0  0
   10.0192    1.8474    8.8570 H   0  0  0  0  0  0  0  0  0  0  0  0
    7.3228    0.4101    5.2306 H   0  0  0  0  0  0  0  0  0  0  0  0
    7.8460    1.8025    4.2831 H   0  0  0  0  0  0  0  0  0  0  0  0
    6.3389    0.9695    3.8695 H   0  0  0  0  0  0  0  0  0  0  0  0
    5.5615   -0.3487    6.5301 H   0  0  0  0  0  0  0  0  0  0  0  0
    3.9392    0.1122    5.9949 H   0  0  0  0  0  0  0  0  0  0  0  0
    4.3670    0.1927    7.7103 H   0  0  0  0  0  0  0  0  0  0  0  0
    3.3130    2.0252    8.5475 H   0  0  0  0  0  0  0  0  0  0  0  0
    2.4422    2.9076    7.2861 H   0  0  0  0  0  0  0  0  0  0  0  0
   10.8812    2.9078   12.4168 H   0  0  0  0  0  0  0  0  0  0  0  0
   11.2559    2.0233   10.9355 H   0  0  0  0  0  0  0  0  0  0  0  0
    7.5427    1.6282   11.2100 H   0  0  0  0  0  0  0  0  0  0  0  0
    8.6575    1.5964   12.5808 H   0  0  0  0  0  0  0  0  0  0  0  0
    9.0756    0.7570   11.0796 H   0  0  0  0  0  0  0  0  0  0  0  0
   11.2557    3.7921   10.9354 H   0  0  0  0  0  0  0  0  0  0  0  0
    8.5943    4.1721   11.4948 C   0  0  0  0  0  0  0  0  0  0  0  0
    7.5426    4.1870   11.2098 H   0  0  0  0  0  0  0  0  0  0  0  0
    8.6574    4.2191   12.5806 H   0  0  0  0  0  0  0  0  0  0  0  0
    9.0754    5.0582   11.0791 H   0  0  0  0  0  0  0  0  0  0  0  0
   10.0192    3.9672    8.8566 H   0  0  0  0  0  0  0  0  0  0  0  0
    7.5775    5.2221    8.2447 Cl  0  0  0  0  0 15  0  0  0  0  0  0
    6.2090    3.6219    5.6093 C   0  0  1  0  0  0  0  0  0  0  0  0
    5.1908    4.0577    6.5069 C   0  0  0  0  0  0  0  0  0  0  0  0
    6.9765    4.5210    4.6941 C   0  0  0  0  0  0  0  0  0  0  0  0
    7.3229    5.4052    5.2308 H   0  0  0  0  0  0  0  0  0  0  0  0
    7.8461    4.0128    4.2832 H   0  0  0  0  0  0  0  0  0  0  0  0
    6.3390    4.8459    3.8696 H   0  0  0  0  0  0  0  0  0  0  0  0
    3.3131    3.7900    8.5476 H   0  0  0  0  0  0  0  0  0  0  0  0
    4.7409    5.4692    6.6986 C   0  0  0  0  0  0  0  0  0  0  0  0
    5.5615    6.1639    6.5303 H   0  0  0  0  0  0  0  0  0  0  0  0
    3.9392    5.7031    5.9951 H   0  0  0  0  0  0  0  0  0  0  0  0
    4.3671    5.6225    7.7106 H   0  0  0  0  0  0  0  0  0  0  0  0
  1  3  1  0  0  0  0
  2 12  1  0  0  0  0
  6 36  1  0  0  0  0
  6  7  2  0  0  0  0
  7 10  1  0  0  0  0
  7  8  1  0  0  0  0
  8 11  1  0  0  0  0
  9 16  1  0  0  0  0
  9  6  1  0  0  0  0
 10 21  1  0  0  0  0
 11 22  1  0  0  0  0
 11 42  1  0  0  0  0
 12 13  1  0  0  0  0
 12 30  1  0  0  0  0
 12 14  1  0  0  0  0
 13 24  1  0  0  0  0
 14 27  1  0  0  0  0
 15  2  1  0  0  0  0
 17  9  1  0  0  0  0
 18  9  1  0  0  0  0
 19 10  1  0  0  0  0
 20 10  1  0  0  0  0
 23 11  1  0  0  0  0
 25 13  1  0  0  0  0
 26 14  1  0  0  0  0
 28 14  1  0  0  0  0
 29 13  1  0  0  0  0
 30 32  1  0  0  0  0
 31 30  1  0  0  0  0
 33 30  1  0  0  0  0
 34  2  1  0  0  0  0
 36 37  1  0  0  0  0
 36  1  1  1  0  0  0
 37 43  1  0  0  0  0
 37  8  2  0  0  0  0
 38 39  1  0  0  0  0
 38 36  1  0  0  0  0
 40 38  1  0  0  0  0
 41 38  1  0  0  0  0
 43 46  1  0  0  0  0
 44 43  1  0  0  0  0
 45 43  1  0  0  0  0
M  END
$$$$
