CSD_code = IGUGUM | q = 0 | S = 0 | Stoichiometry = C19H28Cl4NbP | MND = 10
 OpenBabel04212202053D

 53 52  0  0  1  0  0  0  0  0999 V2000
    0.5302   12.3282    6.2037 Nb  0  0  0  0  0  0  0  0  0  0  0  0
    2.3384   11.3483    4.9619 Cl  0  0  0  0  0  0  0  0  0  0  0  0
   -0.5738   12.3673    3.9792 Cl  0  0  0  0  0 15  0  0  0  0  0  0
    1.2391   14.2986    4.7260 P   0  0  0  0  0  0  0  0  0  0  0  0
    2.1056   13.3498    7.6714 Cl  0  0  0  0  0  0  0  0  0  0  0  0
   -0.9019   14.2492    6.6747 Cl  0  0  0  0  0  0  0  0  0  0  0  0
   -1.3852   10.8967    6.7128 C   0  0  2  0  0  3  0  0  0  0  0  0
    2.3049   15.6768    5.2228 C   0  0  0  0  0  0  0  0  0  0  0  0
    0.2520   10.9401    8.3320 C   0  0  0  0  0  0  0  0  0  0  0  0
    3.6838   15.4430    5.3447 C   0  0  0  0  0  0  0  0  0  0  0  0
   -0.3174   10.0552    6.2804 C   0  0  2  0  0  0  0  0  0  0  0  0
    0.6955   10.0883    7.2841 C   0  0  2  0  0  3  0  0  0  0  0  0
    1.7844   16.9510    5.5035 C   0  0  0  0  0  0  0  0  0  0  0  0
   -1.0301   11.4391    7.9825 C   0  0  0  0  0  0  0  0  0  0  0  0
   -1.9275   12.2287    8.8782 C   0  0  0  0  0  0  0  0  0  0  0  0
   -1.3649   12.9854    9.4247 H   0  0  0  0  0  0  0  0  0  0  0  0
   -2.4033   11.5635    9.6020 H   0  0  0  0  0  0  0  0  0  0  0  0
   -2.7053   12.7305    8.3068 H   0  0  0  0  0  0  0  0  0  0  0  0
    0.3261   17.2647    5.3725 C   0  0  0  0  0  0  0  0  0  0  0  0
    0.1140   18.2488    5.7832 H   0  0  0  0  0  0  0  0  0  0  0  0
   -0.2793   16.5330    5.9033 H   0  0  0  0  0  0  0  0  0  0  0  0
    0.0283   17.2654    4.3232 H   0  0  0  0  0  0  0  0  0  0  0  0
    0.9468   11.1284    9.6396 C   0  0  0  0  0  0  0  0  0  0  0  0
    0.5643   12.0025   10.1627 H   0  0  0  0  0  0  0  0  0  0  0  0
    2.0186   11.2610    9.4925 H   0  0  0  0  0  0  0  0  0  0  0  0
    0.7939   10.2502   10.2703 H   0  0  0  0  0  0  0  0  0  0  0  0
    4.2560   14.0961    5.0487 C   0  0  0  0  0  0  0  0  0  0  0  0
    5.3304   14.0871    5.2158 H   0  0  0  0  0  0  0  0  0  0  0  0
    4.0665   13.8108    4.0122 H   0  0  0  0  0  0  0  0  0  0  0  0
    3.8010   13.3421    5.6941 H   0  0  0  0  0  0  0  0  0  0  0  0
   -0.3316    9.1527    5.0885 C   0  0  0  0  0  0  0  0  0  0  0  0
    0.6786    9.0071    4.7071 H   0  0  0  0  0  0  0  0  0  0  0  0
   -0.9353    9.5787    4.2884 H   0  0  0  0  0  0  0  0  0  0  0  0
   -0.7452    8.1792    5.3581 H   0  0  0  0  0  0  0  0  0  0  0  0
   -2.7258   11.0430    6.0671 C   0  0  0  0  0  0  0  0  0  0  0  0
   -2.6896   10.7445    5.0217 H   0  0  0  0  0  0  0  0  0  0  0  0
   -3.0605   12.0803    6.1117 H   0  0  0  0  0  0  0  0  0  0  0  0
   -3.4591   10.4207    6.5834 H   0  0  0  0  0  0  0  0  0  0  0  0
    1.9233    9.2390    7.3408 C   0  0  0  0  0  0  0  0  0  0  0  0
    2.2347    8.9324    6.3445 H   0  0  0  0  0  0  0  0  0  0  0  0
    1.7280    8.3433    7.9341 H   0  0  0  0  0  0  0  0  0  0  0  0
    2.7452    9.7859    7.8033 H   0  0  0  0  0  0  0  0  0  0  0  0
    4.0208   17.7392    6.0222 C   0  0  0  0  0  0  0  0  0  0  0  0
    2.6552   17.9554    5.8934 C   0  0  0  0  0  0  0  0  0  0  0  0
    2.2585   18.9374    6.1103 H   0  0  0  0  0  0  0  0  0  0  0  0
    4.5181   16.4774    5.7380 C   0  0  0  0  0  0  0  0  0  0  0  0
    5.5785   16.2903    5.8315 H   0  0  0  0  0  0  0  0  0  0  0  0
    4.9244   18.8549    6.4465 C   0  0  0  0  0  0  0  0  0  0  0  0
    5.9299   18.4908    6.6400 H   0  0  0  0  0  0  0  0  0  0  0  0
    4.5431   19.3324    7.3473 H   0  0  0  0  0  0  0  0  0  0  0  0
    4.9753   19.6126    5.6648 H   0  0  0  0  0  0  0  0  0  0  0  0
    1.8574   13.8893    3.5486 H   0  0  0  0  0  0  0  0  0  0  0  0
    0.1751   14.9609    4.1528 H   0  0  0  0  0  0  0  0  0  0  0  0
  1 11  1  0  0  0  0
  1  6  1  0  0  0  0
  1  5  1  0  0  0  0
  2  1  1  0  0  0  0
  4  8  1  0  0  0  0
  7 35  1  1  0  0  0
  7 14  1  0  0  0  0
  8 10  2  0  0  0  0
  8 13  1  0  0  0  0
  9 23  1  0  0  0  0
 10 46  1  0  0  0  0
 11 31  1  6  0  0  0
 11  7  1  0  0  0  0
 11 12  1  0  0  0  0
 12 39  1  1  0  0  0
 12  9  1  0  0  0  0
 13 44  2  0  0  0  0
 14  9  2  0  0  0  0
 14 15  1  0  0  0  0
 15 16  1  0  0  0  0
 15 17  1  0  0  0  0
 18 15  1  0  0  0  0
 19 13  1  0  0  0  0
 19 20  1  0  0  0  0
 19 21  1  0  0  0  0
 22 19  1  0  0  0  0
 23 24  1  0  0  0  0
 23 26  1  0  0  0  0
 25 23  1  0  0  0  0
 27 28  1  0  0  0  0
 27 10  1  0  0  0  0
 27 30  1  0  0  0  0
 29 27  1  0  0  0  0
 31 34  1  0  0  0  0
 32 31  1  0  0  0  0
 33 31  1  0  0  0  0
 35 37  1  0  0  0  0
 35 38  1  0  0  0  0
 36 35  1  0  0  0  0
 39 42  1  0  0  0  0
 39 41  1  0  0  0  0
 40 39  1  0  0  0  0
 43 48  1  0  0  0  0
 44 43  1  0  0  0  0
 44 45  1  0  0  0  0
 46 47  1  0  0  0  0
 46 43  2  0  0  0  0
 48 49  1  0  0  0  0
 48 50  1  0  0  0  0
 51 48  1  0  0  0  0
 52  4  1  0  0  0  0
 53  4  1  0  0  0  0
M  END
$$$$
