CSD_code = IGUGIB | q = 0 | S = 0 | Stoichiometry = C29H23Cl3N2O2PRe | MND = 6
 OpenBabel04212202053D

 61 66  0  0  1  0  0  0  0  0999 V2000
    5.6081   13.8654   11.1199 Re  0  0  0  0  0  0  0  0  0  0  0  0
    3.6846   14.7339   10.2257 Cl  0  0  0  0  0  0  0  0  0  0  0  0
    4.7034   11.7807   11.2904 Cl  0  0  0  0  0  0  0  0  0  0  0  0
    5.0740   14.3959   13.2913 Cl  0  0  0  0  0  0  0  0  0  0  0  0
    6.2842   13.3577    9.0059 O   0  0  0  0  0  0  0  0  0  0  0  0
    5.7854   13.8107    7.6676 P   0  0  0  0  0  4  0  0  0  0  0  0
    6.0697   15.5849    7.3724 C   0  0  0  0  0  0  0  0  0  0  0  0
    7.2569   15.9777    6.7662 C   0  0  0  0  0  0  0  0  0  0  0  0
    7.9765   15.2306    6.4635 H   0  0  0  0  0  0  0  0  0  0  0  0
    7.5142   17.3220    6.5666 C   0  0  0  0  0  0  0  0  0  0  0  0
    8.4352   17.6272    6.0928 H   0  0  0  0  0  0  0  0  0  0  0  0
    6.5923   18.2728    6.9738 C   0  0  0  0  0  0  0  0  0  0  0  0
    6.7925   19.3218    6.8121 H   0  0  0  0  0  0  0  0  0  0  0  0
    5.4157   17.8806    7.5912 C   0  0  0  0  0  0  0  0  0  0  0  0
    4.7000   18.6209    7.9164 H   0  0  0  0  0  0  0  0  0  0  0  0
    5.1493   16.5375    7.7916 C   0  0  0  0  0  0  0  0  0  0  0  0
    4.2386   16.2237    8.2823 H   0  0  0  0  0  0  0  0  0  0  0  0
    6.7364   12.9244    6.4066 C   0  0  0  0  0  0  0  0  0  0  0  0
    7.8044   12.1291    6.7941 C   0  0  0  0  0  0  0  0  0  0  0  0
    8.0517   12.0537    7.8425 H   0  0  0  0  0  0  0  0  0  0  0  0
    8.5398   11.4536    5.8361 C   0  0  0  0  0  0  0  0  0  0  0  0
    9.3746   10.8368    6.1336 H   0  0  0  0  0  0  0  0  0  0  0  0
    8.2050   11.5713    4.4974 C   0  0  0  0  0  0  0  0  0  0  0  0
    8.7789   11.0442    3.7498 H   0  0  0  0  0  0  0  0  0  0  0  0
    7.1337   12.3633    4.1116 C   0  0  0  0  0  0  0  0  0  0  0  0
    6.8747   12.4509    3.0668 H   0  0  0  0  0  0  0  0  0  0  0  0
    6.3971   13.0411    5.0647 C   0  0  0  0  0  0  0  0  0  0  0  0
    5.5596   13.6609    4.7763 H   0  0  0  0  0  0  0  0  0  0  0  0
    4.0484   13.4063    7.3627 C   0  0  0  0  0  0  0  0  0  0  0  0
    3.2554   14.1372    6.4885 C   0  0  0  0  0  0  0  0  0  0  0  0
    3.6551   15.0124    5.9955 H   0  0  0  0  0  0  0  0  0  0  0  0
    1.9456   13.7490    6.2725 C   0  0  0  0  0  0  0  0  0  0  0  0
    1.3205   14.3208    5.6022 H   0  0  0  0  0  0  0  0  0  0  0  0
    1.4327   12.6372    6.9210 C   0  0  0  0  0  0  0  0  0  0  0  0
    0.4054   12.3469    6.7575 H   0  0  0  0  0  0  0  0  0  0  0  0
    2.2303   11.9016    7.7829 C   0  0  0  0  0  0  0  0  0  0  0  0
    1.8295   11.0392    8.2936 H   0  0  0  0  0  0  0  0  0  0  0  0
    3.5419   12.2800    7.9990 C   0  0  0  0  0  0  0  0  0  0  0  0
    4.1707   11.7276    8.6839 H   0  0  0  0  0  0  0  0  0  0  0  0
    9.3173   14.4999    8.9188 O   0  0  0  0  0  0  0  0  0  0  0  0
    7.4314   13.1285   11.6119 N   0  0  0  0  0  0  0  0  0  0  0  0
    6.5534   15.6389   10.8315 N   0  0  0  0  0  0  0  0  0  0  0  0
    7.5746   12.2071   12.5789 C   0  0  0  0  0  3  0  0  0  0  0  0
    6.7194   12.0670   13.2253 H   0  0  0  0  0  0  0  0  0  0  0  0
    8.7183   11.4639   12.7551 C   0  0  0  0  0  0  0  0  0  0  0  0
    8.7623   10.7339   13.5468 H   0  0  0  0  0  0  0  0  0  0  0  0
    9.7952   11.6569   11.8919 C   0  0  0  0  0  0  0  0  0  0  0  0
   10.6952   11.0697   11.9835 H   0  0  0  0  0  0  0  0  0  0  0  0
    9.6785   12.6331   10.9282 C   0  0  0  0  0  0  0  0  0  0  0  0
   10.4773   12.8608   10.2392 H   0  0  0  0  0  0  0  0  0  0  0  0
    8.5000   13.3767   10.8221 C   0  0  0  0  0  0  0  0  0  0  0  0
    7.7244   15.7023   10.1629 C   0  0  1  0  0  3  0  0  0  0  0  0
    8.2895   16.9222    9.7837 C   0  0  0  0  0  0  0  0  0  0  0  0
    9.2163   16.8960    9.2323 H   0  0  0  0  0  0  0  0  0  0  0  0
    7.6712   18.1037   10.1231 C   0  0  0  0  0  0  0  0  0  0  0  0
    8.0954   19.0542    9.8415 H   0  0  0  0  0  0  0  0  0  0  0  0
    6.4860   18.0314   10.8524 C   0  0  0  0  0  0  0  0  0  0  0  0
    5.9658   18.9236   11.1602 H   0  0  0  0  0  0  0  0  0  0  0  0
    5.9700   16.7993   11.1754 C   0  0  0  0  0  0  0  0  0  0  0  0
    5.0466   16.7146   11.7307 H   0  0  0  0  0  0  0  0  0  0  0  0
    8.5181   14.4914    9.8481 C   0  0  0  0  0  0  0  0  0  0  0  0
  1  3  1  0  0  0  0
  1 41  1  0  0  0  0
  1  4  1  0  0  0  0
  2  1  1  0  0  0  0
  5  1  1  0  0  0  0
  6  5  1  0  0  0  0
  7  6  1  0  0  0  0
  7 16  1  0  0  0  0
  8  7  2  0  0  0  0
  9  8  1  0  0  0  0
 10  8  1  0  0  0  0
 10 12  2  0  0  0  0
 11 10  1  0  0  0  0
 12 14  1  0  0  0  0
 13 12  1  0  0  0  0
 14 16  2  0  0  0  0
 14 15  1  0  0  0  0
 16 17  1  0  0  0  0
 18 19  1  0  0  0  0
 18  6  1  0  0  0  0
 19 20  1  0  0  0  0
 21 22  1  0  0  0  0
 21 19  2  0  0  0  0
 23 21  1  0  0  0  0
 24 23  1  0  0  0  0
 25 23  2  0  0  0  0
 25 27  1  0  0  0  0
 26 25  1  0  0  0  0
 27 18  2  0  0  0  0
 28 27  1  0  0  0  0
 29  6  1  0  0  0  0
 29 38  1  0  0  0  0
 30 29  2  0  0  0  0
 31 30  1  0  0  0  0
 32 30  1  0  0  0  0
 32 34  2  0  0  0  0
 33 32  1  0  0  0  0
 34 36  1  0  0  0  0
 35 34  1  0  0  0  0
 36 38  2  0  0  0  0
 36 37  1  0  0  0  0
 38 39  1  0  0  0  0
 40 61  2  0  0  0  0
 41 43  1  0  0  0  0
 42  1  1  0  0  0  0
 42 59  1  0  0  0  0
 43 45  1  0  0  0  0
 43 44  1  0  0  0  0
 45 46  1  0  0  0  0
 47 48  1  0  0  0  0
 47 45  2  0  0  0  0
 49 47  1  0  0  0  0
 50 49  1  0  0  0  0
 51 49  2  0  0  0  0
 51 41  1  0  0  0  0
 52 53  1  1  0  0  0
 52 42  1  0  0  0  0
 53 55  2  0  0  0  0
 54 53  1  0  0  0  0
 55 57  1  0  0  0  0
 56 55  1  0  0  0  0
 57 58  1  0  0  0  0
 57 59  2  0  0  0  0
 59 60  1  0  0  0  0
 61 52  1  0  0  0  0
 61 51  1  0  0  0  0
M  END
$$$$
