CSD_code = IGUHIB | q = 0 | S = 0 | Stoichiometry = C16H28Cl4PTa | MND = 10
 OpenBabel04212202053D

 50 50  0  0  1  0  0  0  0  0999 V2000
    8.5737    1.2734    2.3458 Ta  0  0  0  0  0  0  0  0  0  0  0  0
    7.6197   -0.8366    2.8839 Cl  0  0  0  0  0  0  0  0  0  0  0  0
   10.6661    0.2752    2.5446 Cl  0  0  0  0  0  0  0  0  0  0  0  0
    9.5664    2.7539    0.7852 Cl  0  0  0  0  0  0  0  0  0  0  0  0
    6.4695    1.7609    1.2296 Cl  0  0  0  0  0  0  0  0  0  0  0  0
    8.3107    0.0852    0.0952 P   0  0  0  0  0  0  0  0  0  0  0  0
    7.4332    2.1322    4.3563 C   0  0  1  0  0  0  0  0  0  0  0  0
    8.5022    1.5036    5.0659 C   0  0  0  0  0  0  0  0  0  0  0  0
    9.6785    2.2673    4.8663 C   0  0  0  0  0  0  0  0  0  0  0  0
    9.3615    3.3624    4.0292 C   0  0  0  0  0  0  0  0  0  0  0  0
    7.9746    3.2904    3.7058 C   0  0  0  0  0  0  0  0  0  0  0  0
    5.9829    1.8266    4.5614 C   0  0  0  0  0  0  0  0  0  0  0  0
    8.3482    0.3160    5.9538 C   0  0  0  0  0  0  0  0  0  0  0  0
   11.0197    1.9396    5.4226 C   0  0  0  0  0  0  0  0  0  0  0  0
   10.2614    4.4650    3.5911 C   0  0  0  0  0  0  0  0  0  0  0  0
    7.2013    4.4007    3.0697 C   0  0  0  0  0  0  0  0  0  0  0  0
    9.6568   -0.9750   -0.5927 C   0  0  0  0  0  0  0  0  0  0  0  0
    9.4492   -1.3018   -2.0725 C   0  0  0  0  0  0  0  0  0  0  0  0
    8.2925   -2.2757   -2.2678 C   0  0  0  0  0  0  0  0  0  0  0  0
    8.5214   -3.5468   -1.4560 C   0  0  0  0  0  0  0  0  0  0  0  0
    8.6863   -3.2198    0.0248 C   0  0  0  0  0  0  0  0  0  0  0  0
    9.8383   -2.2453    0.2417 C   0  0  0  0  0  0  0  0  0  0  0  0
   10.5573   -0.3497   -0.4837 H   0  0  0  0  0  0  0  0  0  0  0  0
    9.8654    5.4292    3.9102 H   0  0  0  0  0  0  0  0  0  0  0  0
   10.7780   -2.7223   -0.0470 H   0  0  0  0  0  0  0  0  0  0  0  0
    7.7572    4.8151    2.2299 H   0  0  0  0  0  0  0  0  0  0  0  0
    7.7627   -2.7834    0.4133 H   0  0  0  0  0  0  0  0  0  0  0  0
   10.3290    4.4773    2.5015 H   0  0  0  0  0  0  0  0  0  0  0  0
   10.9357    1.5228    6.4239 H   0  0  0  0  0  0  0  0  0  0  0  0
    9.2665   -0.3826   -2.6361 H   0  0  0  0  0  0  0  0  0  0  0  0
    7.1593   -0.6715   -0.0047 H   0  0  0  0  0  0  0  0  0  0  0  0
    7.0239    5.1988    3.7924 H   0  0  0  0  0  0  0  0  0  0  0  0
    8.8765   -4.1348    0.5881 H   0  0  0  0  0  0  0  0  0  0  0  0
    6.2403    4.0477    2.7043 H   0  0  0  0  0  0  0  0  0  0  0  0
    9.9070   -1.9842    1.3011 H   0  0  0  0  0  0  0  0  0  0  0  0
    5.3878    2.1890    3.7262 H   0  0  0  0  0  0  0  0  0  0  0  0
    7.7899    0.5828    6.8523 H   0  0  0  0  0  0  0  0  0  0  0  0
    9.3157   -0.0836    6.2450 H   0  0  0  0  0  0  0  0  0  0  0  0
   11.2639    4.3440    3.9913 H   0  0  0  0  0  0  0  0  0  0  0  0
    7.3597   -1.8006   -1.9514 H   0  0  0  0  0  0  0  0  0  0  0  0
   10.3671   -1.7527   -2.4583 H   0  0  0  0  0  0  0  0  0  0  0  0
    7.6817   -4.2302   -1.5940 H   0  0  0  0  0  0  0  0  0  0  0  0
    8.1968   -2.5216   -3.3272 H   0  0  0  0  0  0  0  0  0  0  0  0
    7.7957   -0.4697    5.4383 H   0  0  0  0  0  0  0  0  0  0  0  0
    5.8308    0.7522    4.6489 H   0  0  0  0  0  0  0  0  0  0  0  0
   11.6556    2.8202    5.4636 H   0  0  0  0  0  0  0  0  0  0  0  0
    5.6223    2.3012    5.4751 H   0  0  0  0  0  0  0  0  0  0  0  0
    9.4224   -4.0474   -1.8184 H   0  0  0  0  0  0  0  0  0  0  0  0
   11.5085    1.1974    4.7849 H   0  0  0  0  0  0  0  0  0  0  0  0
    8.0971    0.9474   -0.9699 H   0  0  0  0  0  0  0  0  0  0  0  0
  1  3  1  0  0  0  0
  1  2  1  0  0  0  0
  1  7  1  0  0  0  0
  4  1  1  0  0  0  0
  5  1  1  0  0  0  0
  7 12  1  1  0  0  0
  7  8  1  0  0  0  0
  8 13  1  0  0  0  0
  9  8  2  0  0  0  0
  9 14  1  0  0  0  0
 10  9  1  0  0  0  0
 11 10  2  0  0  0  0
 11  7  1  0  0  0  0
 12 45  1  0  0  0  0
 12 47  1  0  0  0  0
 13 38  1  0  0  0  0
 13 37  1  0  0  0  0
 14 46  1  0  0  0  0
 14 29  1  0  0  0  0
 15 24  1  0  0  0  0
 15 39  1  0  0  0  0
 15 10  1  0  0  0  0
 16 11  1  0  0  0  0
 16 32  1  0  0  0  0
 17 23  1  0  0  0  0
 17  6  1  0  0  0  0
 17 22  1  0  0  0  0
 18 17  1  0  0  0  0
 19 18  1  0  0  0  0
 19 40  1  0  0  0  0
 19 20  1  0  0  0  0
 20 21  1  0  0  0  0
 21 22  1  0  0  0  0
 21 27  1  0  0  0  0
 21 33  1  0  0  0  0
 22 35  1  0  0  0  0
 25 22  1  0  0  0  0
 26 16  1  0  0  0  0
 28 15  1  0  0  0  0
 30 18  1  0  0  0  0
 31  6  1  0  0  0  0
 34 16  1  0  0  0  0
 36 12  1  0  0  0  0
 41 18  1  0  0  0  0
 42 20  1  0  0  0  0
 43 19  1  0  0  0  0
 44 13  1  0  0  0  0
 48 20  1  0  0  0  0
 49 14  1  0  0  0  0
 50  6  1  0  0  0  0
M  END
$$$$
