CSD_code = IGULAY | q = 0 | S = 0 | Stoichiometry = C23H21ClMnN5O3 | MND = 6
 OpenBabel04212202053D

 54 60  0  0  1  0  0  0  0  0999 V2000
    1.3364    1.2996    4.2215 Mn  0  0  0  0  0  0  0  0  0  0  0  0
    2.1791    0.2982    5.9633 Cl  0  0  0  0  0  0  0  0  0  0  0  0
   -0.5216   -2.0746    3.2229 O   0  0  0  0  0  0  0  0  0  0  0  0
    4.4814    2.7390    2.3401 O   0  0  0  0  0  0  0  0  0  0  0  0
    0.9975   -0.3230    3.3792 N   0  0  0  0  0  0  0  0  0  0  0  0
    2.8876    1.2943    3.2152 N   0  0  0  0  0  0  0  0  0  0  0  0
    2.1048    2.9768    4.9702 N   0  0  0  0  0  0  0  0  0  0  0  0
   -0.4631    0.9751    5.0403 N   0  0  0  0  0  0  0  0  0  0  0  0
    2.0006   -0.7597    2.5379 C   0  0  0  0  0  0  0  0  0  0  0  0
    3.0752    0.1727    2.4320 C   0  0  0  0  0  0  0  0  0  0  0  0
    4.1623   -0.1082    1.6067 C   0  0  0  0  0  0  0  0  0  0  0  0
    4.9711    0.6009    1.5335 H   0  0  0  0  0  0  0  0  0  0  0  0
    4.1832   -1.2978    0.9044 C   0  0  0  0  0  0  0  0  0  0  0  0
    5.0273   -1.5236    0.2697 H   0  0  0  0  0  0  0  0  0  0  0  0
    3.1384   -2.2095    1.0105 C   0  0  0  0  0  0  0  0  0  0  0  0
    3.1804   -3.1360    0.4570 H   0  0  0  0  0  0  0  0  0  0  0  0
    2.0470   -1.9524    1.8178 C   0  0  0  0  0  0  0  0  0  0  0  0
    1.2378   -2.6587    1.9086 H   0  0  0  0  0  0  0  0  0  0  0  0
   -0.1254   -1.0122    3.6837 C   0  0  0  0  0  0  0  0  0  0  0  0
   -0.9189   -0.2452    4.7025 C   0  0  2  0  0  3  0  0  0  0  0  0
   -2.0833   -0.7806    5.2402 C   0  0  0  0  0  0  0  0  0  0  0  0
   -2.3853   -1.7663    4.9234 H   0  0  0  0  0  0  0  0  0  0  0  0
   -2.7976   -0.0373    6.1583 C   0  0  0  0  0  0  0  0  0  0  0  0
   -3.6939   -0.4287    6.6148 H   0  0  0  0  0  0  0  0  0  0  0  0
   -2.3448    1.2383    6.4711 C   0  0  0  0  0  0  0  0  0  0  0  0
   -2.8898    1.8576    7.1670 H   0  0  0  0  0  0  0  0  0  0  0  0
   -1.1821    1.7195    5.8876 C   0  0  0  0  0  0  0  0  0  0  0  0
   -0.6970    3.1199    6.1549 C   0  0  0  0  0  0  0  0  0  0  0  0
   -0.5839    3.6271    5.1910 H   0  0  0  0  0  0  0  0  0  0  0  0
   -1.4560    3.6523    6.7286 H   0  0  0  0  0  0  0  0  0  0  0  0
    0.6529    3.1636    6.9075 C   0  0  0  0  0  0  0  0  0  0  0  0
    0.5608    3.7832    7.7990 H   0  0  0  0  0  0  0  0  0  0  0  0
    0.9250    2.1492    7.2204 H   0  0  0  0  0  0  0  0  0  0  0  0
    1.7826    3.6814    6.0619 C   0  0  1  0  0  3  0  0  0  0  0  0
    2.4840    4.8241    6.4204 C   0  0  0  0  0  0  0  0  0  0  0  0
    2.1959    5.3706    7.3051 H   0  0  0  0  0  0  0  0  0  0  0  0
    3.5533    5.2531    5.6454 C   0  0  0  0  0  0  0  0  0  0  0  0
    4.0996    6.1459    5.9085 H   0  0  0  0  0  0  0  0  0  0  0  0
    3.9146    4.4949    4.5489 C   0  0  0  0  0  0  0  0  0  0  0  0
    4.7558    4.7406    3.9201 H   0  0  0  0  0  0  0  0  0  0  0  0
    3.1779    3.3562    4.2491 C   0  0  0  0  0  0  0  0  0  0  0  0
    3.6105    2.4354    3.1453 C   0  0  0  0  0  0  0  0  0  0  0  0
    0.3818    2.4052    2.9341 O   0  0  0  0  0  0  0  0  0  0  0  0
   -0.0974    2.7163    0.7176 N   0  0  0  0  0  0  0  0  0  0  0  0
   -0.2230    2.9694    2.0238 C   0  0  0  0  0  3  0  0  0  0  0  0
   -0.9419    3.7733    2.2499 H   0  0  0  0  0  0  0  0  0  0  0  0
    0.8073    1.7059    0.2222 C   0  0  0  0  0  0  0  0  0  0  0  0
    1.4277    1.3422    1.0382 H   0  0  0  0  0  0  0  0  0  0  0  0
    1.4522    2.1312   -0.5484 H   0  0  0  0  0  0  0  0  0  0  0  0
    0.2513    0.8658   -0.2002 H   0  0  0  0  0  0  0  0  0  0  0  0
   -0.8746    3.4085   -0.2768 C   0  0  0  0  0  0  0  0  0  0  0  0
   -1.5341    4.1331    0.1958 H   0  0  0  0  0  0  0  0  0  0  0  0
   -1.4793    2.6959   -0.8426 H   0  0  0  0  0  0  0  0  0  0  0  0
   -0.2146    3.9314   -0.9732 H   0  0  0  0  0  0  0  0  0  0  0  0
  1  7  1  0  0  0  0
  1  8  1  0  0  0  0
  1  2  1  0  0  0  0
  3 19  2  0  0  0  0
  4 42  2  0  0  0  0
  5 19  1  0  0  0  0
  5  1  1  0  0  0  0
  6  1  1  0  0  0  0
  7 34  1  0  0  0  0
  8 27  1  0  0  0  0
  9  5  1  0  0  0  0
 10  9  1  0  0  0  0
 10  6  1  0  0  0  0
 11 10  2  0  0  0  0
 12 11  1  0  0  0  0
 13 15  2  0  0  0  0
 13 11  1  0  0  0  0
 14 13  1  0  0  0  0
 15 17  1  0  0  0  0
 16 15  1  0  0  0  0
 17 18  1  0  0  0  0
 17  9  2  0  0  0  0
 20 19  1  6  0  0  0
 20  8  1  0  0  0  0
 20 21  1  0  0  0  0
 21 23  2  0  0  0  0
 22 21  1  0  0  0  0
 23 25  1  0  0  0  0
 23 24  1  0  0  0  0
 25 26  1  0  0  0  0
 27 28  1  0  0  0  0
 27 25  2  0  0  0  0
 28 30  1  0  0  0  0
 28 31  1  0  0  0  0
 29 28  1  0  0  0  0
 31 33  1  0  0  0  0
 31 32  1  0  0  0  0
 34 35  1  1  0  0  0
 34 31  1  0  0  0  0
 35 36  1  0  0  0  0
 37 38  1  0  0  0  0
 37 35  2  0  0  0  0
 39 37  1  0  0  0  0
 40 39  1  0  0  0  0
 41 39  2  0  0  0  0
 41  7  1  0  0  0  0
 42  6  1  0  0  0  0
 42 41  1  0  0  0  0
 43  1  1  0  0  0  0
 44 45  1  0  0  0  0
 45 46  1  0  0  0  0
 45 43  1  0  0  0  0
 47 44  1  0  0  0  0
 47 48  1  0  0  0  0
 49 47  1  0  0  0  0
 50 47  1  0  0  0  0
 51 52  1  0  0  0  0
 51 44  1  0  0  0  0
 53 51  1  0  0  0  0
 54 51  1  0  0  0  0
M  END
$$$$
