CSD_code = IGUVOW | q = 0 | S = 0 | Stoichiometry = C27H30BrN3Pd | MND = 4
 OpenBabel04212202053D

 62 66  0  0  1  0  0  0  0  0999 V2000
    7.7023    1.6507   13.0126 Pd  0  0  1  0  0  0  0  0  0  0  0  0
    7.6895   -0.2989   14.5621 Br  0  0  0  0  0  0  0  0  0  0  0  0
    8.3273    0.6016   11.3666 N   0  0  0  0  0  0  0  0  0  0  0  0
    6.0148    2.6501   15.2197 N   0  0  0  0  0  0  0  0  0  0  0  0
    7.8653    3.7466   15.1375 N   0  0  0  0  0  0  0  0  0  0  0  0
    8.8012   -0.6388   11.3585 C   0  0  0  0  0  0  0  0  0  0  0  0
    8.8270   -1.1617   12.3074 H   0  0  0  0  0  0  0  0  0  0  0  0
    9.2417   -1.2690   10.2077 C   0  0  0  0  0  0  0  0  0  0  0  0
    9.6147   -2.2793   10.2553 H   0  0  0  0  0  0  0  0  0  0  0  0
    9.1861   -0.5723    9.0109 C   0  0  0  0  0  0  0  0  0  0  0  0
    9.5170   -1.0279    8.0891 H   0  0  0  0  0  0  0  0  0  0  0  0
    8.7014    0.7208    9.0170 C   0  0  0  0  0  0  0  0  0  0  0  0
    8.6560    1.2829    8.0984 H   0  0  0  0  0  0  0  0  0  0  0  0
    8.2732    1.3000   10.2127 C   0  0  0  0  0  0  0  0  0  0  0  0
    7.7514    2.6603   10.3327 C   0  0  0  0  0  0  0  0  0  0  0  0
    7.5647    3.5018    9.2349 C   0  0  0  0  0  0  0  0  0  0  0  0
    7.8070    3.1661    8.2370 H   0  0  0  0  0  0  0  0  0  0  0  0
    7.0582    4.7731    9.4098 C   0  0  0  0  0  0  0  0  0  0  0  0
    6.9146    5.4205    8.5568 H   0  0  0  0  0  0  0  0  0  0  0  0
    6.7290    5.2113   10.6821 C   0  0  0  0  0  0  0  0  0  0  0  0
    6.3244    6.2044   10.8223 H   0  0  0  0  0  0  0  0  0  0  0  0
    6.9129    4.3810   11.7764 C   0  0  0  0  0  0  0  0  0  0  0  0
    6.6375    4.7577   12.7556 H   0  0  0  0  0  0  0  0  0  0  0  0
    7.4313    3.0950   11.6368 C   0  0  0  0  0  0  0  0  0  0  0  0
    7.1480    2.7934   14.5145 C   0  0  1  0  0  3  0  0  0  0  0  0
    4.9595    1.7333   14.8777 C   0  0  0  0  0  0  0  0  0  0  0  0
    3.9923    2.2341   14.9345 H   0  0  0  0  0  0  0  0  0  0  0  0
    4.9670    0.8741   15.5527 H   0  0  0  0  0  0  0  0  0  0  0  0
    5.1306    1.3771   13.8497 H   0  0  0  0  0  0  0  0  0  0  0  0
    6.0235    3.4949   16.2970 C   0  0  0  0  0  0  0  0  0  0  0  0
    5.2180    3.5358   17.0009 H   0  0  0  0  0  0  0  0  0  0  0  0
    7.1857    4.1867   16.2439 C   0  0  0  0  0  0  0  0  0  0  0  0
    7.5786    4.9349   16.8984 H   0  0  0  0  0  0  0  0  0  0  0  0
    9.1066    4.3169   14.6445 C   0  0  0  0  0  0  0  0  0  0  0  0
    8.9396    5.3806   14.4609 H   0  0  0  0  0  0  0  0  0  0  0  0
    9.3061    3.8616   13.6658 H   0  0  0  0  0  0  0  0  0  0  0  0
   10.2671    4.1086   15.5921 C   0  0  0  0  0  0  0  0  0  0  0  0
   10.6380    5.1130   16.4944 C   0  0  0  0  0  0  0  0  0  0  0  0
   11.7387    4.9199   17.3342 C   0  0  0  0  0  0  0  0  0  0  0  0
   12.4818    3.7419   17.2587 C   0  0  0  0  0  0  0  0  0  0  0  0
   12.0491    2.7040   16.4344 C   0  0  0  0  0  0  0  0  0  0  0  0
   10.9623    2.8939   15.5742 C   0  0  0  0  0  0  0  0  0  0  0  0
    9.9195    6.4335   16.6015 C   0  0  0  0  0  0  0  0  0  0  0  0
   10.6373    7.2501   16.5434 H   0  0  0  0  0  0  0  0  0  0  0  0
    9.4088    6.5092   17.5625 H   0  0  0  0  0  0  0  0  0  0  0  0
    9.1799    6.5940   15.8254 H   0  0  0  0  0  0  0  0  0  0  0  0
   12.1198    5.9874   18.3240 C   0  0  0  0  0  0  0  0  0  0  0  0
   12.6636    5.5658   19.1632 H   0  0  0  0  0  0  0  0  0  0  0  0
   11.2388    6.4824   18.7236 H   0  0  0  0  0  0  0  0  0  0  0  0
   12.7469    6.7463   17.8526 H   0  0  0  0  0  0  0  0  0  0  0  0
   13.7574    3.6014   18.0449 C   0  0  0  0  0  0  0  0  0  0  0  0
   14.2459    4.5647   18.1592 H   0  0  0  0  0  0  0  0  0  0  0  0
   14.4533    2.9444   17.5319 H   0  0  0  0  0  0  0  0  0  0  0  0
   13.5660    3.1919   19.0374 H   0  0  0  0  0  0  0  0  0  0  0  0
   12.7422    1.3702   16.4704 C   0  0  0  0  0  0  0  0  0  0  0  0
   12.0259    0.5642   16.3412 H   0  0  0  0  0  0  0  0  0  0  0  0
   13.2408    1.2139   17.4214 H   0  0  0  0  0  0  0  0  0  0  0  0
   13.4845    1.2936   15.6748 H   0  0  0  0  0  0  0  0  0  0  0  0
   10.6062    1.7532   14.6640 C   0  0  0  0  0  0  0  0  0  0  0  0
    9.8954    2.0112   13.8605 H   0  0  0  0  0  0  0  0  0  0  0  0
   10.1593    0.9483   15.2514 H   0  0  0  0  0  0  0  0  0  0  0  0
   11.5058    1.3610   14.1915 H   0  0  0  0  0  0  0  0  0  0  0  0
  1 25  1  0  0  0  0
  1  2  1  6  0  0  0
  3  1  1  0  0  0  0
  4 30  1  0  0  0  0
  5 32  1  0  0  0  0
  6  3  1  0  0  0  0
  6  7  1  0  0  0  0
  8  9  1  0  0  0  0
  8  6  2  0  0  0  0
 10 12  2  0  0  0  0
 10  8  1  0  0  0  0
 11 10  1  0  0  0  0
 12 14  1  0  0  0  0
 13 12  1  0  0  0  0
 14 15  2  0  0  0  0
 14  3  1  0  0  0  0
 15 24  1  0  0  0  0
 16 18  2  0  0  0  0
 16 15  1  0  0  0  0
 17 16  1  0  0  0  0
 18 20  1  0  0  0  0
 19 18  1  0  0  0  0
 20 21  1  0  0  0  0
 20 22  2  0  0  0  0
 22 23  1  0  0  0  0
 24 22  1  0  0  0  0
 24  1  2  0  0  0  0
 25  5  1  1  0  0  0
 25  4  1  0  0  0  0
 26 27  1  0  0  0  0
 26  4  1  0  0  0  0
 26 28  1  0  0  0  0
 29 26  1  0  0  0  0
 30 31  1  0  0  0  0
 32 30  2  0  0  0  0
 32 33  1  0  0  0  0
 34  5  1  0  0  0  0
 34 37  1  0  0  0  0
 35 34  1  0  0  0  0
 36 34  1  0  0  0  0
 37 38  1  0  0  0  0
 38 43  1  0  0  0  0
 38 39  2  0  0  0  0
 39 47  1  0  0  0  0
 40 39  1  0  0  0  0
 40 51  1  0  0  0  0
 41 55  1  0  0  0  0
 41 40  2  0  0  0  0
 42 37  2  0  0  0  0
 42 41  1  0  0  0  0
 43 45  1  0  0  0  0
 44 43  1  0  0  0  0
 46 43  1  0  0  0  0
 47 49  1  0  0  0  0
 47 48  1  0  0  0  0
 50 47  1  0  0  0  0
 51 52  1  0  0  0  0
 51 54  1  0  0  0  0
 53 51  1  0  0  0  0
 55 57  1  0  0  0  0
 56 55  1  0  0  0  0
 58 55  1  0  0  0  0
 59 61  1  0  0  0  0
 59 42  1  0  0  0  0
 60 59  1  0  0  0  0
 62 59  1  0  0  0  0
M  END
$$$$
