CSD_code = IHEKOW | q = 0 | S = 0 | Stoichiometry = C26H23ClN3PPdS | MND = 4
 OpenBabel04212202053D

 56 60  0  0  0  0  0  0  0  0999 V2000
    1.6551    7.1526    2.2498 C   0  0  0  0  0  0  0  0  0  0  0  0
    1.8952    7.8743    1.4865 H   0  0  0  0  0  0  0  0  0  0  0  0
    0.6427    6.2332    2.0527 C   0  0  0  0  0  0  0  0  0  0  0  0
    0.0911    6.2380    1.1235 H   0  0  0  0  0  0  0  0  0  0  0  0
    0.3304    5.3074    3.0350 C   0  0  0  0  0  0  0  0  0  0  0  0
   -0.4613    4.5906    2.8739 H   0  0  0  0  0  0  0  0  0  0  0  0
    1.0398    5.3053    4.2267 C   0  0  0  0  0  0  0  0  0  0  0  0
    0.8005    4.5856    4.9962 H   0  0  0  0  0  0  0  0  0  0  0  0
    2.0513    6.2201    4.4315 C   0  0  0  0  0  0  0  0  0  0  0  0
    2.6018    6.2167    5.3613 H   0  0  0  0  0  0  0  0  0  0  0  0
    2.3791    7.1627    3.4466 C   0  0  0  0  0  0  0  0  0  0  0  0
    3.4599    8.0783    3.7482 C   0  0  0  0  0  3  0  0  0  0  0  0
    3.9123    7.9543    4.7289 H   0  0  0  0  0  0  0  0  0  0  0  0
    4.1126   10.1133    1.0509 C   0  0  0  0  0  0  0  0  0  0  0  0
    8.5427    9.7104    5.0920 C   0  0  0  0  0  0  0  0  0  0  0  0
    8.4410    8.4585    4.4833 C   0  0  0  0  0  0  0  0  0  0  0  0
    7.7866    8.3450    3.6084 H   0  0  0  0  0  0  0  0  0  0  0  0
    9.1310    7.3796    4.9984 C   0  0  0  0  0  0  0  0  0  0  0  0
    9.0506    6.4090    4.5315 H   0  0  0  0  0  0  0  0  0  0  0  0
    9.9158    7.5438    6.1310 C   0  0  0  0  0  0  0  0  0  0  0  0
   10.4484    6.6993    6.5425 H   0  0  0  0  0  0  0  0  0  0  0  0
   10.0019    8.7807    6.7464 C   0  0  0  0  0  0  0  0  0  0  0  0
   10.5984    8.8986    7.6392 H   0  0  0  0  0  0  0  0  0  0  0  0
    9.3182    9.8697    6.2301 C   0  0  0  0  0  0  0  0  0  0  0  0
    9.3685   10.8278    6.7255 H   0  0  0  0  0  0  0  0  0  0  0  0
    7.2230   12.3964    5.3701 C   0  0  0  0  0  0  0  0  0  0  0  0
    5.8889   12.7519    5.5522 C   0  0  0  0  0  0  0  0  0  0  0  0
    5.1046   12.1583    5.0673 H   0  0  0  0  0  0  0  0  0  0  0  0
    5.5667   13.8412    6.3410 C   0  0  0  0  0  0  0  0  0  0  0  0
    4.5327   14.1152    6.4895 H   0  0  0  0  0  0  0  0  0  0  0  0
    6.5736   14.5806    6.9407 C   0  0  0  0  0  0  0  0  0  0  0  0
    6.3227   15.4266    7.5634 H   0  0  0  0  0  0  0  0  0  0  0  0
    7.9034   14.2482    6.7336 C   0  0  0  0  0  0  0  0  0  0  0  0
    8.6849   14.8404    7.1871 H   0  0  0  0  0  0  0  0  0  0  0  0
    8.2332   13.1645    5.9404 C   0  0  0  0  0  0  0  0  0  0  0  0
    9.2695   12.9217    5.7476 H   0  0  0  0  0  0  0  0  0  0  0  0
    8.7227   11.7445    3.0949 C   0  0  0  0  0  0  0  0  0  0  0  0
    9.9954   11.2439    2.8532 C   0  0  0  0  0  0  0  0  0  0  0  0
   10.3468   10.3753    3.3931 H   0  0  0  0  0  0  0  0  0  0  0  0
   10.8101   11.8613    1.9193 C   0  0  0  0  0  0  0  0  0  0  0  0
   11.8004   11.4720    1.7323 H   0  0  0  0  0  0  0  0  0  0  0  0
   10.3586   12.9697    1.2236 C   0  0  0  0  0  0  0  0  0  0  0  0
   10.9968   13.4444    0.4928 H   0  0  0  0  0  0  0  0  0  0  0  0
    9.0852   13.4669    1.4580 C   0  0  0  0  0  0  0  0  0  0  0  0
    8.7307   14.3272    0.9096 H   0  0  0  0  0  0  0  0  0  0  0  0
    8.2689   12.8560    2.3886 C   0  0  0  0  0  0  0  0  0  0  0  0
    7.2660   13.2229    2.5727 H   0  0  0  0  0  0  0  0  0  0  0  0
    5.5584    9.4182    5.8167 Cl  0  0  0  0  0  0  0  0  0  0  0  0
    3.9608    9.0356    3.0353 N   0  0  0  0  0  0  0  0  0  0  0  0
    3.4433    9.3094    1.8193 N   0  0  0  0  0  0  0  0  0  0  0  0
    3.5849   10.4627   -0.1432 N   0  0  0  0  0  0  0  0  0  0  0  0
    2.7713    9.9753   -0.4757 H   0  0  0  0  0  0  0  0  0  0  0  0
    4.1751   10.9355   -0.8044 H   0  0  0  0  0  0  0  0  0  0  0  0
    7.5541   10.9918    4.2729 P   0  0  0  0  0  4  0  0  0  0  0  0
    5.6562   10.0222    3.6027 Pd  0  0  2  0  0  0  0  0  0  0  0  0
    5.6672   10.7905    1.4246 S   0  0  0  0  0  0  0  0  0  0  0  0
  1 11  1  0  0  0  0
  2  1  1  0  0  0  0
  3  1  2  0  0  0  0
  3  5  1  0  0  0  0
  4  3  1  0  0  0  0
  5  7  2  0  0  0  0
  6  5  1  0  0  0  0
  7  9  1  0  0  0  0
  7  8  1  0  0  0  0
  9 10  1  0  0  0  0
 11 12  1  0  0  0  0
 11  9  2  0  0  0  0
 12 13  1  0  0  0  0
 14 56  1  0  0  0  0
 14 50  2  0  0  0  0
 15 24  1  0  0  0  0
 16 18  1  0  0  0  0
 16 15  2  0  0  0  0
 17 16  1  0  0  0  0
 18 20  2  0  0  0  0
 19 18  1  0  0  0  0
 20 21  1  0  0  0  0
 20 22  1  0  0  0  0
 22 23  1  0  0  0  0
 24 25  1  0  0  0  0
 24 22  2  0  0  0  0
 26 27  2  0  0  0  0
 26 35  1  0  0  0  0
 27 29  1  0  0  0  0
 28 27  1  0  0  0  0
 29 30  1  0  0  0  0
 29 31  2  0  0  0  0
 31 32  1  0  0  0  0
 33 31  1  0  0  0  0
 33 34  1  0  0  0  0
 35 33  2  0  0  0  0
 36 35  1  0  0  0  0
 37 54  1  0  0  0  0
 38 37  1  0  0  0  0
 38 39  1  0  0  0  0
 40 38  2  0  0  0  0
 41 40  1  0  0  0  0
 42 44  2  0  0  0  0
 42 40  1  0  0  0  0
 43 42  1  0  0  0  0
 44 46  1  0  0  0  0
 45 44  1  0  0  0  0
 46 47  1  0  0  0  0
 46 37  2  0  0  0  0
 49 55  1  0  0  0  0
 49 12  1  0  0  0  0
 50 49  1  0  0  0  0
 51 14  1  0  0  0  0
 52 51  1  0  0  0  0
 53 51  1  0  0  0  0
 54 15  1  0  0  0  0
 54 26  1  0  0  0  0
 55 54  1  0  0  0  0
 55 48  1  1  0  0  0
 56 55  1  0  0  0  0
M  END
$$$$
