CSD_code = IHEKIP | q = 0 | S = 0 | Stoichiometry = C13H15ClN2Pd | MND = 4
 OpenBabel04212202053D

 32 34  0  0  1  0  0  0  0  0999 V2000
    1.8581    0.0241    2.4830 Pd  0  0  2  0  0  0  0  0  0  0  0  0
    2.2200   -1.3706    0.6467 Cl  0  0  0  0  0  0  0  0  0  0  0  0
    2.6416   -1.3072    3.6363 N   0  0  0  0  0  0  0  0  0  0  0  0
    3.9227   -1.2583    4.0032 C   0  0  0  0  0  3  0  0  0  0  0  0
    4.4438   -0.3213    3.8206 H   0  0  0  0  0  0  0  0  0  0  0  0
    4.5669   -2.3342    4.5873 C   0  0  0  0  0  0  0  0  0  0  0  0
    5.6068   -2.2548    4.8620 H   0  0  0  0  0  0  0  0  0  0  0  0
    3.8584   -3.5063    4.8046 C   0  0  0  0  0  0  0  0  0  0  0  0
    4.3339   -4.3642    5.2544 H   0  0  0  0  0  0  0  0  0  0  0  0
    2.5246   -3.5506    4.4251 C   0  0  0  0  0  0  0  0  0  0  0  0
    1.9361   -4.4428    4.5695 H   0  0  0  0  0  0  0  0  0  0  0  0
    1.9543   -2.4330    3.8441 C   0  0  0  0  0  0  0  0  0  0  0  0
    0.9144   -2.4311    3.5191 H   0  0  0  0  0  0  0  0  0  0  0  0
    1.0224    1.4528    1.2596 N   0  0  0  0  0  4  0  0  0  0  0  0
    1.2962    1.2814    0.2874 H   0  0  0  0  0  0  0  0  0  0  0  0
    0.0010    1.4412    1.3154 H   0  0  0  0  0  0  0  0  0  0  0  0
    3.0591    2.7599    1.4193 C   0  0  0  0  0  0  0  0  0  0  0  0
    3.5406    3.6096    1.8965 H   0  0  0  0  0  0  0  0  0  0  0  0
    3.2030    2.8319    0.3420 H   0  0  0  0  0  0  0  0  0  0  0  0
    3.5285    1.8280    1.7830 H   0  0  0  0  0  0  0  0  0  0  0  0
    1.5681    2.7241    1.7708 C   0  0  2  0  0  0  0  0  0  0  0  0
    1.0602    3.5919    1.3203 H   0  0  0  0  0  0  0  0  0  0  0  0
    1.3915    2.6952    3.2749 C   0  0  0  0  0  0  0  0  0  0  0  0
    1.1380    3.8321    4.0236 C   0  0  0  0  0  0  0  0  0  0  0  0
    1.0388    4.7931    3.5365 H   0  0  0  0  0  0  0  0  0  0  0  0
    1.0112    3.7316    5.3993 C   0  0  0  0  0  0  0  0  0  0  0  0
    0.8137    4.6145    5.9897 H   0  0  0  0  0  0  0  0  0  0  0  0
    1.1347    2.4976    6.0120 C   0  0  0  0  0  0  0  0  0  0  0  0
    1.0338    2.4186    7.0857 H   0  0  0  0  0  0  0  0  0  0  0  0
    1.3864    1.3591    5.2584 C   0  0  0  0  0  0  0  0  0  0  0  0
    1.4773    0.4046    5.7658 H   0  0  0  0  0  0  0  0  0  0  0  0
    1.5236    1.4321    3.8769 C   0  0  0  0  0  0  0  0  0  0  0  0
  1  2  1  6  0  0  0
  1  3  1  0  0  0  0
  1 32  1  0  0  0  0
  3 12  1  0  0  0  0
  3  4  1  0  0  0  0
  4  6  1  0  0  0  0
  5  4  1  0  0  0  0
  6  8  2  0  0  0  0
  6  7  1  0  0  0  0
  8  9  1  0  0  0  0
 10 11  1  0  0  0  0
 10  8  1  0  0  0  0
 12 10  2  0  0  0  0
 13 12  1  0  0  0  0
 14 16  1  0  0  0  0
 14 21  1  0  0  0  0
 14  1  1  0  0  0  0
 15 14  1  0  0  0  0
 17 21  1  0  0  0  0
 17 20  1  0  0  0  0
 17 18  1  0  0  0  0
 19 17  1  0  0  0  0
 21 22  1  6  0  0  0
 21 23  1  0  0  0  0
 23 32  2  0  0  0  0
 23 24  1  0  0  0  0
 24 26  2  0  0  0  0
 25 24  1  0  0  0  0
 26 27  1  0  0  0  0
 26 28  1  0  0  0  0
 28 29  1  0  0  0  0
 30 31  1  0  0  0  0
 30 28  2  0  0  0  0
 32 30  1  0  0  0  0
M  END
$$$$
