CSD_code = IHEKIQ | q = 0 | S = 0 | Stoichiometry = C22H23ClN3PPdS | MND = 4
 OpenBabel04212202053D

 52 55  0  0  1  0  0  0  0  0999 V2000
   -0.5417    7.7400    2.2610 C   0  0  0  0  0  0  0  0  0  0  0  0
   -0.5685    8.0335    3.3220 H   0  0  0  0  0  0  0  0  0  0  0  0
    0.0943    6.8585    2.1678 H   0  0  0  0  0  0  0  0  0  0  0  0
   -1.5453    7.4836    1.9264 H   0  0  0  0  0  0  0  0  0  0  0  0
    0.0039    8.8586    1.4339 C   0  0  0  0  0  3  0  0  0  0  0  0
   -0.3459    8.9065   -0.0185 C   0  0  0  0  0  0  0  0  0  0  0  0
   -1.3596    9.2876   -0.1434 H   0  0  0  0  0  0  0  0  0  0  0  0
   -0.3021    7.9069   -0.4444 H   0  0  0  0  0  0  0  0  0  0  0  0
    0.3398    9.5681   -0.5416 H   0  0  0  0  0  0  0  0  0  0  0  0
    1.3293   11.9141    2.0002 C   0  0  1  0  0  3  0  0  0  0  0  0
    1.8860    8.4674    7.1122 C   0  0  0  0  0  0  0  0  0  0  0  0
    0.8664    7.5931    6.7545 C   0  0  0  0  0  0  0  0  0  0  0  0
    0.4498    7.6538    5.7521 H   0  0  0  0  0  0  0  0  0  0  0  0
    0.4085    6.6569    7.6638 C   0  0  0  0  0  0  0  0  0  0  0  0
   -0.3794    5.9729    7.3855 H   0  0  0  0  0  0  0  0  0  0  0  0
    0.9623    6.5986    8.9323 C   0  0  0  0  0  0  0  0  0  0  0  0
    0.6091    5.8649    9.6420 H   0  0  0  0  0  0  0  0  0  0  0  0
    1.9618    7.4865    9.2994 C   0  0  0  0  0  0  0  0  0  0  0  0
    2.3805    7.4469   10.2946 H   0  0  0  0  0  0  0  0  0  0  0  0
    2.4206    8.4278    8.3966 C   0  0  0  0  0  0  0  0  0  0  0  0
    3.1814    9.1404    8.6862 H   0  0  0  0  0  0  0  0  0  0  0  0
    4.1780    9.4470    5.5191 C   0  0  0  0  0  0  0  0  0  0  0  0
    5.0573    8.6436    6.2304 C   0  0  0  0  0  0  0  0  0  0  0  0
    4.7148    8.1026    7.1007 H   0  0  0  0  0  0  0  0  0  0  0  0
    6.3680    8.5180    5.8001 C   0  0  0  0  0  0  0  0  0  0  0  0
    7.0526    7.8873    6.3484 H   0  0  0  0  0  0  0  0  0  0  0  0
    6.7998    9.1864    4.6673 C   0  0  0  0  0  0  0  0  0  0  0  0
    7.8219    9.0790    4.3351 H   0  0  0  0  0  0  0  0  0  0  0  0
    5.9190    9.9789    3.9456 C   0  0  0  0  0  0  0  0  0  0  0  0
    6.2537   10.4846    3.0517 H   0  0  0  0  0  0  0  0  0  0  0  0
    4.6095   10.1055    4.3656 C   0  0  0  0  0  0  0  0  0  0  0  0
    3.8954   10.7121    3.7926 H   0  0  0  0  0  0  0  0  0  0  0  0
    2.4172   11.2123    6.9120 C   0  0  0  0  0  0  0  0  0  0  0  0
    1.1661   11.7248    7.2431 C   0  0  0  0  0  0  0  0  0  0  0  0
    0.2795   11.2207    6.8735 H   0  0  0  0  0  0  0  0  0  0  0  0
    1.0649   12.8667    8.0125 C   0  0  0  0  0  0  0  0  0  0  0  0
    0.0937   13.2652    8.2660 H   0  0  0  0  0  0  0  0  0  0  0  0
    2.2148   13.5059    8.4510 C   0  0  0  0  0  0  0  0  0  0  0  0
    2.1383   14.4023    9.0487 H   0  0  0  0  0  0  0  0  0  0  0  0
    3.4606   13.0031    8.1167 C   0  0  0  0  0  0  0  0  0  0  0  0
    4.3551   13.5068    8.4539 H   0  0  0  0  0  0  0  0  0  0  0  0
    3.5673   11.8571    7.3468 C   0  0  0  0  0  0  0  0  0  0  0  0
    4.5403   11.4674    7.0799 H   0  0  0  0  0  0  0  0  0  0  0  0
    2.3420    7.6105    3.7107 Cl  0  0  0  0  0  0  0  0  0  0  0  0
    0.7115    9.7595    2.0049 N   0  0  0  0  0  0  0  0  0  0  0  0
    1.1129   10.8549    1.2891 N   0  0  0  0  0  2  0  0  0  0  0  0
    1.7521   13.0494    1.3989 N   0  0  0  0  0  0  0  0  0  0  0  0
    1.7104   13.0987    0.3950 H   0  0  0  0  0  0  0  0  0  0  0  0
    1.6915   13.9042    1.9248 H   0  0  0  0  0  0  0  0  0  0  0  0
    2.4197    9.6997    5.8955 P   0  0  0  0  0  4  0  0  0  0  0  0
    1.4486    9.7234    3.8852 Pd  0  0  1  0  0  0  0  0  0  0  0  0
    1.0520   12.0254    3.7285 S   0  0  0  0  0  0  0  0  0  0  0  0
  1  2  1  0  0  0  0
  3  1  1  0  0  0  0
  4  1  1  0  0  0  0
  5 45  1  0  0  0  0
  5  1  1  0  0  0  0
  6  5  1  0  0  0  0
  7  6  1  0  0  0  0
  8  6  1  0  0  0  0
  9  6  1  0  0  0  0
 10 47  1  6  0  0  0
 10 52  1  0  0  0  0
 11 20  1  0  0  0  0
 12 11  2  0  0  0  0
 12 14  1  0  0  0  0
 13 12  1  0  0  0  0
 14 16  2  0  0  0  0
 15 14  1  0  0  0  0
 16 18  1  0  0  0  0
 16 17  1  0  0  0  0
 18 19  1  0  0  0  0
 20 21  1  0  0  0  0
 20 18  2  0  0  0  0
 22 50  1  0  0  0  0
 22 23  1  0  0  0  0
 23 24  1  0  0  0  0
 25 23  2  0  0  0  0
 25 26  1  0  0  0  0
 27 25  1  0  0  0  0
 28 27  1  0  0  0  0
 29 31  1  0  0  0  0
 29 27  2  0  0  0  0
 30 29  1  0  0  0  0
 31 22  2  0  0  0  0
 32 31  1  0  0  0  0
 33 34  2  0  0  0  0
 33 42  1  0  0  0  0
 34 36  1  0  0  0  0
 35 34  1  0  0  0  0
 36 37  1  0  0  0  0
 36 38  2  0  0  0  0
 38 39  1  0  0  0  0
 40 38  1  0  0  0  0
 40 41  1  0  0  0  0
 42 40  2  0  0  0  0
 43 42  1  0  0  0  0
 45 51  1  0  0  0  0
 46 10  1  0  0  0  0
 46 45  1  0  0  0  0
 47 49  1  0  0  0  0
 48 47  1  0  0  0  0
 50 33  1  0  0  0  0
 50 11  1  0  0  0  0
 51 44  1  6  0  0  0
 51 50  1  0  0  0  0
 52 51  1  0  0  0  0
M  END
$$$$
