CSD_code = IHIBOR | q = 0 | S = 0 | Stoichiometry = C28H32Cl2N2SiZr | MND = 12
 OpenBabel04212202053D

 66 71  0  0  1  0  0  0  0  0999 V2000
    6.9152    6.9164    8.0237 Zr  0  0  0  0  0  0  0  0  0  0  0  0
    8.7041    7.3958    6.5767 Cl  0  0  0  0  0  0  0  0  0  0  0  0
    5.4326    6.9026    6.2133 Cl  0  0  0  0  0  0  0  0  0  0  0  0
    5.0734    6.3066   10.5431 Si  0  0  0  0  0  0  0  0  0  0  0  0
    8.9008    9.6509    8.9610 N   0  0  0  0  0  0  0  0  0  0  0  0
    5.7979    7.9272    9.8732 C   0  0  1  0  0  0  0  0  0  0  0  0
    7.1998    8.2250   10.0083 C   0  0  0  0  0  0  0  0  0  0  0  0
    7.8024    7.9542   10.8661 H   0  0  0  0  0  0  0  0  0  0  0  0
    4.8336    4.1415    7.6646 N   0  0  0  0  0  0  0  0  0  0  0  0
    7.6230    9.1319    9.0090 C   0  0  0  0  0  0  0  0  0  0  0  0
    6.2581   10.2542    7.0681 C   0  0  0  0  0  0  0  0  0  0  0  0
    7.0713   10.8036    6.6185 H   0  0  0  0  0  0  0  0  0  0  0  0
    4.9930   10.3795    6.5500 C   0  0  0  0  0  0  0  0  0  0  0  0
    4.8305   11.0077    5.6872 H   0  0  0  0  0  0  0  0  0  0  0  0
    3.8975    9.7198    7.1294 C   0  0  0  0  0  0  0  0  0  0  0  0
    2.9144    9.8690    6.7091 H   0  0  0  0  0  0  0  0  0  0  0  0
    4.0598    8.8938    8.2113 C   0  0  0  0  0  0  0  0  0  0  0  0
    3.2058    8.4104    8.6608 H   0  0  0  0  0  0  0  0  0  0  0  0
    5.3447    8.7028    8.7547 C   0  0  0  0  0  0  0  0  0  0  0  0
    6.4711    9.4290    8.1903 C   0  0  0  0  0  0  0  0  0  0  0  0
    6.1724    5.1113    9.5528 C   0  0  0  0  0  0  0  0  0  0  0  0
    5.9998    4.5934    8.2170 C   0  0  0  0  0  0  0  0  0  0  0  0
    7.2588    4.5531    7.5497 C   0  0  0  0  0  0  0  0  0  0  0  0
    7.4531    4.1449    6.5650 H   0  0  0  0  0  0  0  0  0  0  0  0
    9.6738    4.8762    8.4270 C   0  0  0  0  0  3  0  0  0  0  0  0
   10.1654    4.6148    7.4992 H   0  0  0  0  0  0  0  0  0  0  0  0
   10.4037    5.1626    9.5596 C   0  0  0  0  0  0  0  0  0  0  0  0
   11.4825    5.1454    9.5222 H   0  0  0  0  0  0  0  0  0  0  0  0
    9.7674    5.4445   10.7748 C   0  0  0  0  0  0  0  0  0  0  0  0
   10.3700    5.6253   11.6527 H   0  0  0  0  0  0  0  0  0  0  0  0
    8.3919    5.4790   10.8749 C   0  0  0  0  0  0  0  0  0  0  0  0
    7.9252    5.6494   11.8336 H   0  0  0  0  0  0  0  0  0  0  0  0
    7.6076    5.2277    9.7397 C   0  0  0  0  0  0  0  0  0  0  0  0
    8.2718    4.8885    8.5031 C   0  0  0  0  0  0  0  0  0  0  0  0
    3.1836    6.2553   10.3048 C   0  0  0  0  0  0  0  0  0  0  0  0
    2.7606    5.3543   10.7334 H   0  0  0  0  0  0  0  0  0  0  0  0
    2.8901    6.3130    9.2639 H   0  0  0  0  0  0  0  0  0  0  0  0
    2.7402    7.0981   10.8249 H   0  0  0  0  0  0  0  0  0  0  0  0
    5.3527    6.1454   12.4319 C   0  0  0  0  0  0  0  0  0  0  0  0
    4.4526    6.4289   12.9662 H   0  0  0  0  0  0  0  0  0  0  0  0
    6.1508    6.7879   12.7874 H   0  0  0  0  0  0  0  0  0  0  0  0
    5.5913    5.1258   12.7155 H   0  0  0  0  0  0  0  0  0  0  0  0
    9.9936    8.7929    9.4066 C   0  0  0  0  0  0  0  0  0  0  0  0
    9.7506    7.7281    9.2472 H   0  0  0  0  0  0  0  0  0  0  0  0
   10.1748    8.9570   10.4759 H   0  0  0  0  0  0  0  0  0  0  0  0
   11.2006    9.2164    8.5671 C   0  0  0  0  0  0  0  0  0  0  0  0
   12.1357    9.1470    9.1186 H   0  0  0  0  0  0  0  0  0  0  0  0
   11.2607    8.5863    7.6798 H   0  0  0  0  0  0  0  0  0  0  0  0
   10.8485   10.6435    8.1588 C   0  0  0  0  0  0  0  0  0  0  0  0
   11.3998   10.9832    7.2853 H   0  0  0  0  0  0  0  0  0  0  0  0
   11.0301   11.3318    8.9853 H   0  0  0  0  0  0  0  0  0  0  0  0
    9.3528   10.5248    7.8922 C   0  0  0  0  0  0  0  0  0  0  0  0
    8.8342   11.4843    7.9537 H   0  0  0  0  0  0  0  0  0  0  0  0
    9.1872   10.0713    6.9056 H   0  0  0  0  0  0  0  0  0  0  0  0
    3.7409    3.6212    8.4662 C   0  0  0  0  0  0  0  0  0  0  0  0
    2.9195    4.3417    8.4945 H   0  0  0  0  0  0  0  0  0  0  0  0
    4.0755    3.4216    9.4873 H   0  0  0  0  0  0  0  0  0  0  0  0
    3.2832    2.3707    7.7166 C   0  0  0  0  0  0  0  0  0  0  0  0
    3.9184    1.5201    7.9674 H   0  0  0  0  0  0  0  0  0  0  0  0
    2.2487    2.1129    7.9322 H   0  0  0  0  0  0  0  0  0  0  0  0
    3.5089    2.7870    6.2659 C   0  0  0  0  0  0  0  0  0  0  0  0
    2.7233    3.4721    5.9472 H   0  0  0  0  0  0  0  0  0  0  0  0
    3.5424    1.9450    5.5781 H   0  0  0  0  0  0  0  0  0  0  0  0
    4.8456    3.5174    6.3489 C   0  0  0  0  0  0  0  0  0  0  0  0
    5.6708    2.7956    6.2716 H   0  0  0  0  0  0  0  0  0  0  0  0
    4.9648    4.2801    5.5752 H   0  0  0  0  0  0  0  0  0  0  0  0
  2  1  1  0  0  0  0
  3  1  1  0  0  0  0
  4 39  1  0  0  0  0
  5 10  1  0  0  0  0
  5 43  1  0  0  0  0
  6  1  1  6  0  0  0
  6  7  1  0  0  0  0
  6  4  1  0  0  0  0
  7  8  1  0  0  0  0
  9 22  1  0  0  0  0
  9 55  1  0  0  0  0
 10  7  2  0  0  0  0
 11 20  1  0  0  0  0
 12 11  1  0  0  0  0
 13 11  2  0  0  0  0
 13 15  1  0  0  0  0
 14 13  1  0  0  0  0
 15 17  2  0  0  0  0
 16 15  1  0  0  0  0
 17 18  1  0  0  0  0
 17 19  1  0  0  0  0
 19  6  1  0  0  0  0
 20 19  2  0  0  0  0
 20 10  1  0  0  0  0
 21 33  1  0  0  0  0
 21  4  1  0  0  0  0
 22 21  2  0  0  0  0
 23 22  1  0  0  0  0
 23 34  2  0  0  0  0
 24 23  1  0  0  0  0
 25 34  1  0  0  0  0
 25 27  1  0  0  0  0
 26 25  1  0  0  0  0
 27 29  2  0  0  0  0
 28 27  1  0  0  0  0
 29 31  1  0  0  0  0
 29 30  1  0  0  0  0
 31 32  1  0  0  0  0
 33 31  2  0  0  0  0
 34 33  1  0  0  0  0
 35  4  1  0  0  0  0
 35 36  1  0  0  0  0
 35 38  1  0  0  0  0
 37 35  1  0  0  0  0
 39 42  1  0  0  0  0
 39 41  1  0  0  0  0
 39 40  1  0  0  0  0
 43 45  1  0  0  0  0
 44 43  1  0  0  0  0
 46 47  1  0  0  0  0
 46 43  1  0  0  0  0
 48 46  1  0  0  0  0
 49 46  1  0  0  0  0
 49 51  1  0  0  0  0
 50 49  1  0  0  0  0
 52 53  1  0  0  0  0
 52 49  1  0  0  0  0
 52  5  1  0  0  0  0
 54 52  1  0  0  0  0
 55 56  1  0  0  0  0
 55 57  1  0  0  0  0
 58 60  1  0  0  0  0
 58 59  1  0  0  0  0
 58 55  1  0  0  0  0
 61 64  1  0  0  0  0
 61 58  1  0  0  0  0
 62 61  1  0  0  0  0
 63 61  1  0  0  0  0
 64  9  1  0  0  0  0
 65 64  1  0  0  0  0
 66 64  1  0  0  0  0
M  END
$$$$
