CSD_code = IHOFER | q = 0 | S = 0 | Stoichiometry = C25H18Cl2NOPPd | MND = 4
 OpenBabel04212202053D

 49 54  0  0  0  0  0  0  0  0999 V2000
    7.9190    8.2279    2.9454 O   0  0  0  0  0  0  0  0  0  0  0  0
    9.7825    5.7656    2.6408 Pd  0  0  1  0  0  0  0  0  0  0  0  0
    7.7530    6.5946    2.9833 P   0  0  0  0  0  4  0  0  0  0  0  0
    9.2710    3.5375    2.6132 Cl  0  0  0  0  0  0  0  0  0  0  0  0
   12.2194    1.5208   -0.3460 Cl  0  0  0  0  0  0  0  0  0  0  0  0
   11.8970    5.7223    2.4595 N   0  0  0  0  0  0  0  0  0  0  0  0
   12.1338    3.7254    1.1894 C   0  0  0  0  0  0  0  0  0  0  0  0
   11.2223    3.9953    0.6655 H   0  0  0  0  0  0  0  0  0  0  0  0
   12.8147    2.5603    0.8942 C   0  0  0  0  0  0  0  0  0  0  0  0
   13.9697    2.2134    1.5823 C   0  0  0  0  0  0  0  0  0  0  0  0
   14.4800    1.2932    1.3475 H   0  0  0  0  0  0  0  0  0  0  0  0
   14.4466    3.0537    2.5735 C   0  0  0  0  0  0  0  0  0  0  0  0
   15.3388    2.7829    3.1176 H   0  0  0  0  0  0  0  0  0  0  0  0
   13.7918    4.2332    2.8758 C   0  0  0  0  0  0  0  0  0  0  0  0
   14.1519    4.8732    3.6682 H   0  0  0  0  0  0  0  0  0  0  0  0
   12.6279    4.5700    2.1857 C   0  0  0  0  0  0  0  0  0  0  0  0
   12.4488    6.8767    2.6439 C   0  0  0  0  0  0  0  0  0  0  0  0
   13.5314    7.0000    2.5834 H   0  0  0  0  0  0  0  0  0  0  0  0
   11.5779    8.0033    2.8548 C   0  0  0  0  0  0  0  0  0  0  0  0
   10.2196    7.6595    2.8128 C   0  0  0  0  0  0  0  0  0  0  0  0
    9.2472    8.6385    2.9814 C   0  0  0  0  0  0  0  0  0  0  0  0
    9.6077    9.9608    3.1683 C   0  0  0  0  0  0  0  0  0  0  0  0
    8.8514   10.7199    3.2954 H   0  0  0  0  0  0  0  0  0  0  0  0
   10.9623   10.2955    3.1959 C   0  0  0  0  0  0  0  0  0  0  0  0
   11.2383   11.3287    3.3426 H   0  0  0  0  0  0  0  0  0  0  0  0
   11.9473    9.3404    3.0455 C   0  0  0  0  0  0  0  0  0  0  0  0
   12.9905    9.6188    3.0759 H   0  0  0  0  0  0  0  0  0  0  0  0
    6.1743    6.3521    2.1456 C   0  0  0  0  0  0  0  0  0  0  0  0
    5.3664    7.4006    1.7254 C   0  0  0  0  0  0  0  0  0  0  0  0
    5.6881    8.4196    1.8807 H   0  0  0  0  0  0  0  0  0  0  0  0
    4.1582    7.1212    1.1107 C   0  0  0  0  0  0  0  0  0  0  0  0
    3.5223    7.9306    0.7829 H   0  0  0  0  0  0  0  0  0  0  0  0
    3.7644    5.8073    0.9134 C   0  0  0  0  0  0  0  0  0  0  0  0
    2.8208    5.5967    0.4319 H   0  0  0  0  0  0  0  0  0  0  0  0
    4.5792    4.7622    1.3233 C   0  0  0  0  0  0  0  0  0  0  0  0
    4.2726    3.7403    1.1582 H   0  0  0  0  0  0  0  0  0  0  0  0
    5.7878    5.0309    1.9375 C   0  0  0  0  0  0  0  0  0  0  0  0
    6.4494    4.2330    2.2501 H   0  0  0  0  0  0  0  0  0  0  0  0
    7.3770    6.2872    4.7449 C   0  0  0  0  0  0  0  0  0  0  0  0
    6.1488    6.6050    5.3106 C   0  0  0  0  0  0  0  0  0  0  0  0
    5.3643    7.0156    4.6902 H   0  0  0  0  0  0  0  0  0  0  0  0
    5.9404    6.3893    6.6613 C   0  0  0  0  0  0  0  0  0  0  0  0
    4.9860    6.6326    7.1045 H   0  0  0  0  0  0  0  0  0  0  0  0
    6.9525    5.8576    7.4444 C   0  0  0  0  0  0  0  0  0  0  0  0
    6.7839    5.6867    8.4973 H   0  0  0  0  0  0  0  0  0  0  0  0
    8.1789    5.5399    6.8818 C   0  0  0  0  0  0  0  0  0  0  0  0
    8.9628    5.1211    7.4951 H   0  0  0  0  0  0  0  0  0  0  0  0
    8.3937    5.7551    5.5325 C   0  0  0  0  0  0  0  0  0  0  0  0
    9.3562    5.4937    5.0678 H   0  0  0  0  0  0  0  0  0  0  0  0
  1 21  1  0  0  0  0
  1  3  1  0  0  0  0
  2  4  1  1  0  0  0
  2 20  2  0  0  0  0
  2  3  1  0  0  0  0
  3 39  1  0  0  0  0
  5  9  1  0  0  0  0
  6  2  1  0  0  0  0
  6 17  1  0  0  0  0
  7 16  1  0  0  0  0
  8  7  1  0  0  0  0
  9  7  2  0  0  0  0
  9 10  1  0  0  0  0
 10 12  2  0  0  0  0
 11 10  1  0  0  0  0
 12 14  1  0  0  0  0
 12 13  1  0  0  0  0
 14 15  1  0  0  0  0
 16  6  1  0  0  0  0
 16 14  2  0  0  0  0
 17 19  2  0  0  0  0
 18 17  1  0  0  0  0
 19 26  1  0  0  0  0
 20 19  1  0  0  0  0
 20 21  1  0  0  0  0
 21 22  2  0  0  0  0
 22 24  1  0  0  0  0
 22 23  1  0  0  0  0
 24 25  1  0  0  0  0
 26 27  1  0  0  0  0
 26 24  2  0  0  0  0
 28  3  1  0  0  0  0
 29 30  1  0  0  0  0
 29 28  2  0  0  0  0
 31 29  1  0  0  0  0
 32 31  1  0  0  0  0
 33 31  2  0  0  0  0
 33 35  1  0  0  0  0
 34 33  1  0  0  0  0
 35 37  2  0  0  0  0
 36 35  1  0  0  0  0
 37 28  1  0  0  0  0
 37 38  1  0  0  0  0
 39 40  2  0  0  0  0
 39 48  1  0  0  0  0
 40 42  1  0  0  0  0
 41 40  1  0  0  0  0
 42 43  1  0  0  0  0
 42 44  2  0  0  0  0
 44 45  1  0  0  0  0
 46 44  1  0  0  0  0
 46 47  1  0  0  0  0
 48 46  2  0  0  0  0
 49 48  1  0  0  0  0
M  END
$$$$
