CSD_code = IHUCIX | q = -1 | S = 0 | Stoichiometry = C8H6Cl4IrN4(1-) | MND = 6
 OpenBabel04212202053D

 23 25  0  0  1  0  0  0  0  0999 V2000
   17.9775    7.9633    6.2194 Ir  0  0  0  0  0  0  0  0  0  0  0  0
   16.2204    9.4514    6.4225 Cl  0  0  0  0  0  0  0  0  0  0  0  0
   19.5196    9.6953    5.6959 Cl  0  0  0  0  0  0  0  0  0  0  0  0
   16.6409    6.1285    6.9269 Cl  0  0  0  0  0  0  0  0  0  0  0  0
   17.4699    7.6018    3.9934 Cl  0  0  0  0  0  0  0  0  0  0  0  0
   18.5344    8.1675    8.1072 N   0  0  0  0  0  0  0  0  0  0  0  0
   20.1481    7.4067    9.6651 N   0  0  0  0  0  0  0  0  0  0  0  0
   19.5127    6.7150    6.2039 N   0  0  0  0  0  0  0  0  0  0  0  0
   21.2042    5.8265    7.6036 N   0  0  0  0  0  0  0  0  0  0  0  0
   19.6084    7.4211    8.4578 C   0  0  2  0  0  3  0  0  0  0  0  0
   17.9856    8.9395    9.0402 C   0  0  0  0  0  0  0  0  0  0  0  0
   19.9654    5.9920    5.1840 C   0  0  0  0  0  3  0  0  0  0  0  0
   21.0561    5.1562    5.3326 C   0  0  0  0  0  0  0  0  0  0  0  0
   20.1562    6.6044    7.3900 C   0  0  0  0  0  0  0  0  0  0  0  0
   21.6508    5.1105    6.5914 C   0  0  0  0  0  0  0  0  0  0  0  0
   19.6024    8.1726   10.5882 C   0  0  0  0  0  0  0  0  0  0  0  0
   18.4963    8.9769   10.3241 C   0  0  0  0  0  0  0  0  0  0  0  0
   17.1284    9.5233    8.7256 H   0  0  0  0  0  0  0  0  0  0  0  0
   19.4273    6.1047    4.2499 H   0  0  0  0  0  0  0  0  0  0  0  0
   21.4222    4.5702    4.5059 H   0  0  0  0  0  0  0  0  0  0  0  0
   22.5088    4.4849    6.7997 H   0  0  0  0  0  0  0  0  0  0  0  0
   20.0678    8.1374   11.5645 H   0  0  0  0  0  0  0  0  0  0  0  0
   18.0516    9.6033   11.0796 H   0  0  0  0  0  0  0  0  0  0  0  0
  1  2  1  0  0  0  0
  1  4  1  0  0  0  0
  1  6  1  0  0  0  0
  3  1  1  0  0  0  0
  5  1  1  0  0  0  0
  6 10  1  0  0  0  0
  6 11  1  0  0  0  0
  7 16  2  0  0  0  0
  8  1  1  0  0  0  0
  8 14  1  0  0  0  0
 10 14  1  6  0  0  0
 10  7  1  0  0  0  0
 11 17  2  0  0  0  0
 12 13  1  0  0  0  0
 12  8  1  0  0  0  0
 13 15  2  0  0  0  0
 14  9  2  0  0  0  0
 15 21  1  0  0  0  0
 15  9  1  0  0  0  0
 16 22  1  0  0  0  0
 17 16  1  0  0  0  0
 17 23  1  0  0  0  0
 18 11  1  0  0  0  0
 19 12  1  0  0  0  0
 20 13  1  0  0  0  0
M  END
$$$$
