CSD_code = IHUHAV | q = 1 | S = 0 | Stoichiometry = C23H36I2N4PPd(1+) | MND = 4
 OpenBabel04212202053D

 67 69  0  0  1  0  0  0  0  0999 V2000
    2.4019    2.6690    3.8393 I   0  0  0  0  0  0  0  0  0  0  0  0
   -2.6624    2.5187    3.5719 I   0  0  0  0  0  0  0  0  0  0  0  0
   -0.1561    2.3222    4.4007 Pd  0  0  0  0  0  0  0  0  0  0  0  0
   -0.0230    0.1907    3.6151 P   0  0  0  0  0  4  0  0  0  0  0  0
   -0.4813    4.6274    6.3251 N   0  0  0  0  0  0  0  0  0  0  0  0
   -0.4020    5.2883    4.2730 N   0  0  0  0  0  0  0  0  0  0  0  0
    0.5672    6.1732    2.2827 N   0  0  0  0  0  0  0  0  0  0  0  0
    1.4045    7.7822    1.0854 N   0  0  0  0  0  0  0  0  0  0  0  0
   -0.9577    4.4540    8.7337 C   0  0  0  0  0  0  0  0  0  0  0  0
   -0.3186    5.2817    9.0315 H   0  0  0  0  0  0  0  0  0  0  0  0
   -0.9945    3.7508    9.5611 H   0  0  0  0  0  0  0  0  0  0  0  0
   -1.9672    4.8190    8.5567 H   0  0  0  0  0  0  0  0  0  0  0  0
    1.0605    3.3611    7.7070 C   0  0  0  0  0  0  0  0  0  0  0  0
    1.6749    4.2485    7.8446 H   0  0  0  0  0  0  0  0  0  0  0  0
    1.4418    2.8114    6.8430 H   0  0  0  0  0  0  0  0  0  0  0  0
    1.1626    2.7313    8.5861 H   0  0  0  0  0  0  0  0  0  0  0  0
   -1.2444    2.4874    7.2174 C   0  0  0  0  0  0  0  0  0  0  0  0
   -1.1833    1.8040    8.0608 H   0  0  0  0  0  0  0  0  0  0  0  0
   -0.8624    1.9614    6.3083 H   0  0  0  0  0  0  0  0  0  0  0  0
   -2.2911    2.7468    7.0547 H   0  0  0  0  0  0  0  0  0  0  0  0
    0.2079    9.2746   -0.4533 C   0  0  0  0  0  0  0  0  0  0  0  0
   -0.2340    8.4513   -1.0094 H   0  0  0  0  0  0  0  0  0  0  0  0
    0.3430   10.1012   -1.1447 H   0  0  0  0  0  0  0  0  0  0  0  0
   -0.4794    9.6037    0.3226 H   0  0  0  0  0  0  0  0  0  0  0  0
    2.1678   10.0792    0.8808 C   0  0  0  0  0  0  0  0  0  0  0  0
    2.2597   10.9243    0.2055 H   0  0  0  0  0  0  0  0  0  0  0  0
    3.1572    9.8506    1.2662 H   0  0  0  0  0  0  0  0  0  0  0  0
    1.5294   10.3756    1.7100 H   0  0  0  0  0  0  0  0  0  0  0  0
    2.4990    8.4118   -0.9840 C   0  0  0  0  0  0  0  0  0  0  0  0
    2.0867    7.5377   -1.4827 H   0  0  0  0  0  0  0  0  0  0  0  0
    3.4832    8.1602   -0.5992 H   0  0  0  0  0  0  0  0  0  0  0  0
    2.6170    9.1996   -1.7216 H   0  0  0  0  0  0  0  0  0  0  0  0
   -0.4094    3.7416    7.5005 C   0  0  0  0  0  0  0  0  0  0  0  0
   -0.3099    4.1987    5.0668 C   0  0  2  0  0  3  0  0  0  0  0  0
   -0.6711    5.9861    6.3274 C   0  0  0  0  0  0  0  0  0  0  0  0
   -0.8228    6.5558    7.2185 H   0  0  0  0  0  0  0  0  0  0  0  0
   -0.6341    6.4056    5.0438 C   0  0  0  0  0  0  0  0  0  0  0  0
   -0.7533    7.3835    4.6265 H   0  0  0  0  0  0  0  0  0  0  0  0
   -0.3785    5.2312    2.8387 C   0  0  0  0  0  0  0  0  0  0  0  0
   -1.3743    5.4430    2.4273 H   0  0  0  0  0  0  0  0  0  0  0  0
   -0.0861    4.1965    2.5520 H   0  0  0  0  0  0  0  0  0  0  0  0
    0.2910    7.1290    1.3945 C   0  0  0  0  0  3  0  0  0  0  0  0
   -0.6853    7.3167    0.9952 H   0  0  0  0  0  0  0  0  0  0  0  0
    1.9022    6.2208    2.5568 C   0  0  0  0  0  0  0  0  0  0  0  0
    2.3826    5.5303    3.2241 H   0  0  0  0  0  0  0  0  0  0  0  0
    2.4224    7.2268    1.8055 C   0  0  0  0  0  0  0  0  0  0  0  0
    3.4357    7.5628    1.7452 H   0  0  0  0  0  0  0  0  0  0  0  0
    1.5652    8.8917    0.1284 C   0  0  0  0  0  0  0  0  0  0  0  0
    1.3109   -0.7112    4.4513 C   0  0  0  0  0  0  0  0  0  0  0  0
    2.1380   -1.6382    3.8330 C   0  0  0  0  0  0  0  0  0  0  0  0
    2.0221   -1.8619    2.7827 H   0  0  0  0  0  0  0  0  0  0  0  0
    3.1271   -2.2677    4.5686 C   0  0  0  0  0  0  0  0  0  0  0  0
    3.7756   -2.9840    4.0871 H   0  0  0  0  0  0  0  0  0  0  0  0
    3.2927   -1.9784    5.9129 C   0  0  0  0  0  0  0  0  0  0  0  0
    4.0705   -2.4691    6.4774 H   0  0  0  0  0  0  0  0  0  0  0  0
    2.4679   -1.0539    6.5341 C   0  0  0  0  0  0  0  0  0  0  0  0
    2.6009   -0.8230    7.5807 H   0  0  0  0  0  0  0  0  0  0  0  0
    1.4824   -0.4220    5.8023 C   0  0  0  0  0  0  0  0  0  0  0  0
    0.8345    0.3180    6.2769 H   0  0  0  0  0  0  0  0  0  0  0  0
    0.2891    0.0726    1.8234 C   0  0  0  0  0  0  0  0  0  0  0  0
    0.2291   -0.9667    1.5002 H   0  0  0  0  0  0  0  0  0  0  0  0
    1.2717    0.4836    1.5858 H   0  0  0  0  0  0  0  0  0  0  0  0
   -0.4789    0.6512    1.3021 H   0  0  0  0  0  0  0  0  0  0  0  0
   -1.4291   -0.9544    3.8474 C   0  0  0  0  0  0  0  0  0  0  0  0
   -1.1169   -1.9572    3.5525 H   0  0  0  0  0  0  0  0  0  0  0  0
   -2.2749   -0.6363    3.2383 H   0  0  0  0  0  0  0  0  0  0  0  0
   -1.7301   -0.9636    4.8968 H   0  0  0  0  0  0  0  0  0  0  0  0
  1  3  1  0  0  0  0
  2  3  1  0  0  0  0
  4 64  1  0  0  0  0
  4  3  1  0  0  0  0
  4 49  1  0  0  0  0
  5 35  1  0  0  0  0
  5 33  1  0  0  0  0
  6 37  1  0  0  0  0
  6 34  1  0  0  0  0
  7 44  1  0  0  0  0
  7 39  1  0  0  0  0
  8 42  1  0  0  0  0
  8 46  1  0  0  0  0
  9 10  1  0  0  0  0
  9 11  1  0  0  0  0
 12  9  1  0  0  0  0
 13 14  1  0  0  0  0
 13 16  1  0  0  0  0
 15 13  1  0  0  0  0
 17 33  1  0  0  0  0
 17 18  1  0  0  0  0
 19 17  1  0  0  0  0
 20 17  1  0  0  0  0
 21 48  1  0  0  0  0
 21 24  1  0  0  0  0
 22 21  1  0  0  0  0
 23 21  1  0  0  0  0
 25 27  1  0  0  0  0
 25 28  1  0  0  0  0
 26 25  1  0  0  0  0
 29 31  1  0  0  0  0
 29 48  1  0  0  0  0
 30 29  1  0  0  0  0
 32 29  1  0  0  0  0
 33 13  1  0  0  0  0
 33  9  1  0  0  0  0
 34  3  1  6  0  0  0
 34  5  1  0  0  0  0
 35 36  1  0  0  0  0
 37 35  2  0  0  0  0
 38 37  1  0  0  0  0
 39  6  1  0  0  0  0
 40 39  1  0  0  0  0
 41 39  1  0  0  0  0
 42  7  1  0  0  0  0
 43 42  1  0  0  0  0
 44 45  1  0  0  0  0
 46 44  2  0  0  0  0
 47 46  1  0  0  0  0
 48 25  1  0  0  0  0
 48  8  1  0  0  0  0
 49 58  1  0  0  0  0
 50 49  2  0  0  0  0
 50 52  1  0  0  0  0
 51 50  1  0  0  0  0
 52 54  2  0  0  0  0
 53 52  1  0  0  0  0
 54 55  1  0  0  0  0
 54 56  1  0  0  0  0
 56 57  1  0  0  0  0
 58 59  1  0  0  0  0
 58 56  2  0  0  0  0
 60  4  1  0  0  0  0
 61 60  1  0  0  0  0
 62 60  1  0  0  0  0
 63 60  1  0  0  0  0
 64 67  1  0  0  0  0
 65 64  1  0  0  0  0
 66 64  1  0  0  0  0
M  END
$$$$
