CSD_code = IJANOX | q = 0 | S = 0 | Stoichiometry = C31H27Cl2N5O2PRe | MND = 6
 OpenBabel04212202053D

 69 75  0  0  0  0  0  0  0  0999 V2000
    8.7375    6.1515    6.5682 Re  0  0  0  0  0  0  0  0  0  0  0  0
    7.7760    6.4984    8.6581 Cl  0  0  0  0  0  0  0  0  0  0  0  0
    8.6413    3.9135    6.9975 Cl  0  0  0  0  0  0  0  0  0  0  0  0
    9.3733    5.6404    4.2337 P   0  0  0  0  0  4  0  0  0  0  0  0
    3.1449    8.6778    4.5795 O   0  0  0  0  0  0  0  0  0  0  0  0
    7.1455   10.7236    5.0546 O   0  0  0  0  0  0  0  0  0  0  0  0
   10.3530    6.7979    6.9147 N   0  0  0  0  0  2  0  0  0  0  0  0
    6.7426    6.1107    5.8813 N   0  0  0  0  0  0  0  0  0  0  0  0
    6.1095    5.3228    5.9478 H   0  0  0  0  0  0  0  0  0  0  0  0
    4.8835    7.3945    5.2627 N   0  0  0  0  0  0  0  0  0  0  0  0
    5.1685    9.6698    4.8335 N   0  0  0  0  0  0  0  0  0  0  0  0
    8.3326    8.1915    6.0514 N   0  0  0  0  0  0  0  0  0  0  0  0
   11.1527    7.8385    6.9239 C   0  0  0  0  0  0  0  0  0  0  0  0
   12.5107    7.7989    7.2918 C   0  0  0  0  0  0  0  0  0  0  0  0
   12.9282    6.8484    7.5863 H   0  0  0  0  0  0  0  0  0  0  0  0
   13.2689    8.9434    7.2761 C   0  0  0  0  0  0  0  0  0  0  0  0
   14.3088    8.9057    7.5625 H   0  0  0  0  0  0  0  0  0  0  0  0
   12.6968   10.1589    6.8938 C   0  0  0  0  0  0  0  0  0  0  0  0
   13.3005   11.0538    6.8898 H   0  0  0  0  0  0  0  0  0  0  0  0
   11.3720   10.2242    6.5263 C   0  0  0  0  0  0  0  0  0  0  0  0
   10.9346   11.1664    6.2318 H   0  0  0  0  0  0  0  0  0  0  0  0
   10.5572    9.0845    6.5224 C   0  0  0  0  0  0  0  0  0  0  0  0
    9.1958    9.1752    6.1263 C   0  0  0  0  0  3  0  0  0  0  0  0
    8.8531   10.1648    5.8427 H   0  0  0  0  0  0  0  0  0  0  0  0
    7.0451    8.4113    5.6162 C   0  0  0  0  0  0  0  0  0  0  0  0
    6.2062    7.2661    5.6018 C   0  0  0  0  0  0  0  0  0  0  0  0
    4.3175    8.6016    4.8776 C   0  0  0  0  0  0  0  0  0  0  0  0
    6.5289    9.6729    5.1757 C   0  0  0  0  0  0  0  0  0  0  0  0
    4.0111    6.2359    5.3052 C   0  0  0  0  0  0  0  0  0  0  0  0
    4.3382    5.4798    4.5874 H   0  0  0  0  0  0  0  0  0  0  0  0
    3.0135    6.5787    5.0355 H   0  0  0  0  0  0  0  0  0  0  0  0
    3.9850    5.8135    6.3113 H   0  0  0  0  0  0  0  0  0  0  0  0
    4.6224   10.9509    4.4163 C   0  0  0  0  0  0  0  0  0  0  0  0
    3.5616   10.8200    4.2221 H   0  0  0  0  0  0  0  0  0  0  0  0
    5.1365   11.2916    3.5176 H   0  0  0  0  0  0  0  0  0  0  0  0
    4.7799   11.6857    5.2050 H   0  0  0  0  0  0  0  0  0  0  0  0
    8.1864    4.7594    3.1773 C   0  0  0  0  0  0  0  0  0  0  0  0
    7.4763    3.7038    3.7436 C   0  0  0  0  0  0  0  0  0  0  0  0
    7.6440    3.4506    4.7827 H   0  0  0  0  0  0  0  0  0  0  0  0
    6.5761    2.9855    2.9776 C   0  0  0  0  0  0  0  0  0  0  0  0
    6.0247    2.1695    3.4207 H   0  0  0  0  0  0  0  0  0  0  0  0
    6.3844    3.3104    1.6441 C   0  0  0  0  0  0  0  0  0  0  0  0
    5.6788    2.7523    1.0469 H   0  0  0  0  0  0  0  0  0  0  0  0
    7.1026    4.3491    1.0744 C   0  0  0  0  0  0  0  0  0  0  0  0
    6.9607    4.5974    0.0328 H   0  0  0  0  0  0  0  0  0  0  0  0
    8.0041    5.0740    1.8336 C   0  0  0  0  0  0  0  0  0  0  0  0
    8.5595    5.8841    1.3820 H   0  0  0  0  0  0  0  0  0  0  0  0
    9.6843    7.2331    3.4245 C   0  0  0  0  0  0  0  0  0  0  0  0
    8.6202    7.9934    2.9419 C   0  0  0  0  0  0  0  0  0  0  0  0
    7.6258    7.5677    2.9137 H   0  0  0  0  0  0  0  0  0  0  0  0
    8.8336    9.2883    2.5097 C   0  0  0  0  0  0  0  0  0  0  0  0
    8.0071    9.8756    2.1395 H   0  0  0  0  0  0  0  0  0  0  0  0
   10.1033    9.8399    2.5708 C   0  0  0  0  0  0  0  0  0  0  0  0
   10.2627   10.8566    2.2462 H   0  0  0  0  0  0  0  0  0  0  0  0
   11.1629    9.0917    3.0565 C   0  0  0  0  0  0  0  0  0  0  0  0
   12.1509    9.5238    3.1123 H   0  0  0  0  0  0  0  0  0  0  0  0
   10.9564    7.7943    3.4884 C   0  0  0  0  0  0  0  0  0  0  0  0
   11.7768    7.2111    3.8839 H   0  0  0  0  0  0  0  0  0  0  0  0
   10.9111    4.7028    3.9856 C   0  0  0  0  0  0  0  0  0  0  0  0
   11.3386    4.4026    2.6949 C   0  0  0  0  0  0  0  0  0  0  0  0
   10.7527    4.7215    1.8444 H   0  0  0  0  0  0  0  0  0  0  0  0
   12.5120    3.6973    2.5067 C   0  0  0  0  0  0  0  0  0  0  0  0
   12.8442    3.4644    1.5057 H   0  0  0  0  0  0  0  0  0  0  0  0
   13.2598    3.2870    3.5998 C   0  0  0  0  0  0  0  0  0  0  0  0
   14.1740    2.7328    3.4478 H   0  0  0  0  0  0  0  0  0  0  0  0
   12.8339    3.5831    4.8839 C   0  0  0  0  0  0  0  0  0  0  0  0
   13.4147    3.2589    5.7343 H   0  0  0  0  0  0  0  0  0  0  0  0
   11.6602    4.2897    5.0809 C   0  0  0  0  0  0  0  0  0  0  0  0
   11.3128    4.5194    6.0792 H   0  0  0  0  0  0  0  0  0  0  0  0
  1  7  1  0  0  0  0
  1  3  1  0  0  0  0
  1  2  1  0  0  0  0
  4  1  1  0  0  0  0
  5 27  2  0  0  0  0
  6 28  2  0  0  0  0
  7 13  1  0  0  0  0
  8  9  1  0  0  0  0
  8  1  1  0  0  0  0
 10 29  1  0  0  0  0
 10 26  1  0  0  0  0
 11 27  1  0  0  0  0
 11 28  1  0  0  0  0
 12 23  1  0  0  0  0
 12  1  1  0  0  0  0
 13 14  1  0  0  0  0
 14 15  1  0  0  0  0
 16 14  2  0  0  0  0
 16 17  1  0  0  0  0
 18 16  1  0  0  0  0
 19 18  1  0  0  0  0
 20 18  2  0  0  0  0
 21 20  1  0  0  0  0
 22 20  1  0  0  0  0
 22 13  2  0  0  0  0
 23 22  1  0  0  0  0
 24 23  1  0  0  0  0
 25 12  1  0  0  0  0
 26 25  2  0  0  0  0
 26  8  1  0  0  0  0
 27 10  1  0  0  0  0
 28 25  1  0  0  0  0
 29 32  1  0  0  0  0
 30 29  1  0  0  0  0
 31 29  1  0  0  0  0
 33 11  1  0  0  0  0
 33 36  1  0  0  0  0
 34 33  1  0  0  0  0
 35 33  1  0  0  0  0
 37 38  1  0  0  0  0
 37  4  1  0  0  0  0
 38 39  1  0  0  0  0
 40 41  1  0  0  0  0
 40 38  2  0  0  0  0
 42 40  1  0  0  0  0
 43 42  1  0  0  0  0
 44 42  2  0  0  0  0
 44 46  1  0  0  0  0
 45 44  1  0  0  0  0
 46 37  2  0  0  0  0
 47 46  1  0  0  0  0
 48 57  1  0  0  0  0
 48  4  1  0  0  0  0
 49 48  2  0  0  0  0
 50 49  1  0  0  0  0
 51 53  2  0  0  0  0
 51 49  1  0  0  0  0
 52 51  1  0  0  0  0
 53 55  1  0  0  0  0
 54 53  1  0  0  0  0
 55 56  1  0  0  0  0
 55 57  2  0  0  0  0
 57 58  1  0  0  0  0
 59  4  1  0  0  0  0
 59 68  1  0  0  0  0
 60 59  2  0  0  0  0
 61 60  1  0  0  0  0
 62 60  1  0  0  0  0
 62 64  2  0  0  0  0
 63 62  1  0  0  0  0
 64 66  1  0  0  0  0
 65 64  1  0  0  0  0
 66 68  2  0  0  0  0
 66 67  1  0  0  0  0
 68 69  1  0  0  0  0
M  END
$$$$
