CSD_code = IJAQEP | q = 0 | S = 0 | Stoichiometry = C11H8AuCl2N | MND = 4
 OpenBabel04212202053D

 23 25  0  0  0  0  0  0  0  0999 V2000
    9.3233    0.2325    0.6129 Au  0  0  0  0  0  0  0  0  0  0  0  0
    7.5163    0.5897    1.3937 C   0  0  0  0  0  0  0  0  0  0  0  0
    6.9521    1.8133    1.6865 C   0  0  0  0  0  0  0  0  0  0  0  0
    7.5065    2.7179    1.4916 H   0  0  0  0  0  0  0  0  0  0  0  0
    5.6760    1.8833    2.2299 C   0  0  0  0  0  0  0  0  0  0  0  0
    5.2464    2.8477    2.4545 H   0  0  0  0  0  0  0  0  0  0  0  0
    4.9599    0.7250    2.4814 C   0  0  0  0  0  0  0  0  0  0  0  0
    3.9680    0.7817    2.9038 H   0  0  0  0  0  0  0  0  0  0  0  0
    5.5133   -0.5065    2.1924 C   0  0  0  0  0  0  0  0  0  0  0  0
    4.9488   -1.4046    2.3905 H   0  0  0  0  0  0  0  0  0  0  0  0
    6.7958   -0.5884    1.6464 C   0  0  0  0  0  0  0  0  0  0  0  0
    7.4564   -1.8363    1.3115 C   0  0  0  0  0  0  0  0  0  0  0  0
    6.9190   -3.1118    1.4836 C   0  0  0  0  0  0  0  0  0  0  0  0
    5.9308   -3.2250    1.8979 H   0  0  0  0  0  0  0  0  0  0  0  0
    7.6574   -4.2219    1.1217 C   0  0  0  0  0  0  0  0  0  0  0  0
    7.2491   -5.2128    1.2514 H   0  0  0  0  0  0  0  0  0  0  0  0
    8.9281   -4.0458    0.5902 C   0  0  0  0  0  0  0  0  0  0  0  0
    9.5367   -4.8844    0.2952 H   0  0  0  0  0  0  0  0  0  0  0  0
    9.4093   -2.7598    0.4426 C   0  0  0  0  0  0  0  0  0  0  0  0
   10.3896   -2.5450    0.0361 H   0  0  0  0  0  0  0  0  0  0  0  0
    8.6927   -1.6988    0.7934 N   0  0  0  0  0  0  0  0  0  0  0  0
   11.3665   -0.3982   -0.2806 Cl  0  0  0  0  0  0  0  0  0  0  0  0
    9.8346    2.3853    0.4932 Cl  0  0  0  0  0  0  0  0  0  0  0  0
  1 21  1  0  0  0  0
  1  2  2  0  0  0  0
  2 11  1  0  0  0  0
  2  3  1  0  0  0  0
  3  5  2  0  0  0  0
  4  3  1  0  0  0  0
  5  6  1  0  0  0  0
  5  7  1  0  0  0  0
  7  8  1  0  0  0  0
  9 10  1  0  0  0  0
  9  7  2  0  0  0  0
 11  9  1  0  0  0  0
 12 13  1  0  0  0  0
 12 11  2  0  0  0  0
 13 14  1  0  0  0  0
 15 16  1  0  0  0  0
 15 13  2  0  0  0  0
 17 15  1  0  0  0  0
 18 17  1  0  0  0  0
 19 17  2  0  0  0  0
 19 21  1  0  0  0  0
 20 19  1  0  0  0  0
 21 12  1  0  0  0  0
 22  1  1  0  0  0  0
 23  1  1  0  0  0  0
M  END
$$$$
