CSD_code = IJIDOW | q = 0 | S = 0 | Stoichiometry = C12H14BrClN4O2Pd | MND = 4
 OpenBabel04212202053D

 35 37  0  0  0  0  0  0  0  0999 V2000
   -0.7415    2.2439    6.1948 H   0  0  0  0  0  0  0  0  0  0  0  0
   -2.3311    3.5011    4.8083 H   0  0  0  0  0  0  0  0  0  0  0  0
   -3.4752    0.3161    9.9992 H   0  0  0  0  0  0  0  0  0  0  0  0
   -2.9762    6.2720    8.0003 H   0  0  0  0  0  0  0  0  0  0  0  0
    0.0307    3.2892    9.6403 H   0  0  0  0  0  0  0  0  0  0  0  0
   -1.3945    5.0259    9.4081 H   0  0  0  0  0  0  0  0  0  0  0  0
   -0.0770    2.8040    8.7464 N   0  0  0  0  0  4  0  0  0  0  0  0
    0.1995    0.2797    7.7957 N   0  0  0  0  0  0  0  0  0  0  0  0
    0.1983   -0.9237    7.2760 N   0  0  0  0  0  2  0  0  0  0  0  0
   -2.2441   -0.6020    8.8666 N   0  0  0  0  0  0  0  0  0  0  0  0
    2.1431    0.7965    6.6852 O   0  0  0  0  0  0  0  0  0  0  0  0
   -3.4073   -0.6038    9.6084 O   0  0  0  0  0  0  0  0  0  0  0  0
   -2.7936    2.1639   10.2109 Cl  0  0  0  0  0  0  0  0  0  0  0  0
   -1.2393    1.0824    8.8813 Pd  0  0  2  0  0  0  0  0  0  0  0  0
   -3.9641    5.9234    5.2349 Br  0  0  0  0  0  0  0  0  0  0  0  0
   -1.5879    4.6934    8.3979 C   0  0  0  0  0  0  0  0  0  0  0  0
   -2.4844    5.3939    7.6127 C   0  0  0  0  0  0  0  0  0  0  0  0
   -2.7429    4.9572    6.3248 C   0  0  0  0  0  0  0  0  0  0  0  0
   -2.1203    3.8288    5.8142 C   0  0  0  0  0  0  0  0  0  0  0  0
   -1.2334    3.1205    6.6041 C   0  0  0  0  0  0  0  0  0  0  0  0
   -0.9648    3.5470    7.9091 C   0  0  0  0  0  0  0  0  0  0  0  0
    1.2251    2.4530    8.1639 C   0  0  0  0  0  0  0  0  0  0  0  0
    1.2487    1.0840    7.4480 C   0  0  0  0  0  0  0  0  0  0  0  0
   -0.7082   -1.8142    7.4556 C   0  0  0  0  0  0  0  0  0  0  0  0
   -0.4476   -3.1134    6.7513 C   0  0  0  0  0  0  0  0  0  0  0  0
   -1.9260   -1.6976    8.2580 C   0  0  0  0  0  0  0  0  0  0  0  0
   -2.8085   -2.9033    8.3592 C   0  0  0  0  0  0  0  0  0  0  0  0
    1.9736    2.3920    8.9608 H   0  0  0  0  0  0  0  0  0  0  0  0
    1.5562    3.2146    7.4469 H   0  0  0  0  0  0  0  0  0  0  0  0
   -1.2573   -3.3598    6.0682 H   0  0  0  0  0  0  0  0  0  0  0  0
   -0.3362   -3.9299    7.4616 H   0  0  0  0  0  0  0  0  0  0  0  0
    0.4739   -3.0140    6.1863 H   0  0  0  0  0  0  0  0  0  0  0  0
   -2.2466   -3.7533    8.7378 H   0  0  0  0  0  0  0  0  0  0  0  0
   -3.6388   -2.6969    9.0282 H   0  0  0  0  0  0  0  0  0  0  0  0
   -3.2006   -3.1639    7.3787 H   0  0  0  0  0  0  0  0  0  0  0  0
  1 20  1  0  0  0  0
  2 19  1  0  0  0  0
  7 14  1  0  0  0  0
  7  5  1  0  0  0  0
  8 14  1  0  0  0  0
  9 24  1  0  0  0  0
  9  8  1  0  0  0  0
 10 14  1  0  0  0  0
 10 12  1  0  0  0  0
 11 23  2  0  0  0  0
 12  3  1  0  0  0  0
 14 13  1  1  0  0  0
 15 18  1  0  0  0  0
 16  6  1  0  0  0  0
 17  4  1  0  0  0  0
 17 16  2  0  0  0  0
 18 17  1  0  0  0  0
 19 18  2  0  0  0  0
 19 20  1  0  0  0  0
 20 21  2  0  0  0  0
 21 16  1  0  0  0  0
 21  7  1  0  0  0  0
 22  7  1  0  0  0  0
 22 28  1  0  0  0  0
 23  8  1  0  0  0  0
 23 22  1  0  0  0  0
 24 26  2  0  0  0  0
 25 24  1  0  0  0  0
 25 31  1  0  0  0  0
 26 27  1  0  0  0  0
 26 10  1  0  0  0  0
 27 33  1  0  0  0  0
 27 34  1  0  0  0  0
 29 22  1  0  0  0  0
 30 25  1  0  0  0  0
 32 25  1  0  0  0  0
 35 27  1  0  0  0  0
M  END
$$$$
