CSD_code = IJIDIQ | q = 0 | S = 0 | Stoichiometry = C12H14Cl2N4O2Pd | MND = 4
 OpenBabel04212202053D

 35 37  0  0  0  0  0  0  0  0999 V2000
    7.3395    3.0991   15.2108 H   0  0  0  0  0  0  0  0  0  0  0  0
   10.7941    0.8698   13.1489 H   0  0  0  0  0  0  0  0  0  0  0  0
    8.9215    2.6917   13.1222 Pd  0  0  2  0  0  0  0  0  0  0  0  0
    6.8886    5.9599   11.8905 O   0  0  0  0  0  0  0  0  0  0  0  0
   11.2530    1.2638   12.3497 O   0  0  0  0  0  0  0  0  0  0  0  0
    7.2116    3.1724   14.1985 N   0  0  0  0  0  4  0  0  0  0  0  0
    8.4918    4.3281   12.1072 N   0  0  0  0  0  0  0  0  0  0  0  0
    9.1003    4.7514   11.0258 N   0  0  0  0  0  2  0  0  0  0  0  0
   10.4804    2.3466   11.9834 N   0  0  0  0  0  0  0  0  0  0  0  0
    5.9390    1.1335   14.6568 C   0  0  0  0  0  0  0  0  0  0  0  0
    5.1745    0.0646   14.2271 C   0  0  0  0  0  0  0  0  0  0  0  0
    4.8362   -0.0387   12.8871 C   0  0  0  0  0  0  0  0  0  0  0  0
    5.2635    0.9158   11.9748 C   0  0  0  0  0  0  0  0  0  0  0  0
    6.0397    1.9777   12.4021 C   0  0  0  0  0  0  0  0  0  0  0  0
    6.3863    2.0922   13.7516 C   0  0  0  0  0  0  0  0  0  0  0  0
    6.7711    4.5202   13.8119 C   0  0  0  0  0  0  0  0  0  0  0  0
    7.3770    5.0240   12.4829 C   0  0  0  0  0  0  0  0  0  0  0  0
   10.1367    4.2126   10.4936 C   0  0  0  0  0  0  0  0  0  0  0  0
   10.6370    4.9149    9.2654 C   0  0  0  0  0  0  0  0  0  0  0  0
   10.8634    3.0294   10.9543 C   0  0  0  0  0  0  0  0  0  0  0  0
   12.0926    2.6314   10.1964 C   0  0  0  0  0  0  0  0  0  0  0  0
    3.8744   -1.3643   12.3470 Cl  0  0  0  0  0  0  0  0  0  0  0  0
    9.3087    0.8430   14.4563 Cl  0  0  0  0  0  0  0  0  0  0  0  0
    6.2125    1.2059   15.7001 H   0  0  0  0  0  0  0  0  0  0  0  0
    4.8430   -0.6835   14.9290 H   0  0  0  0  0  0  0  0  0  0  0  0
    4.9962    0.8246   10.9342 H   0  0  0  0  0  0  0  0  0  0  0  0
    6.3611    2.7251   11.6828 H   0  0  0  0  0  0  0  0  0  0  0  0
    7.0834    5.2373   14.5784 H   0  0  0  0  0  0  0  0  0  0  0  0
    5.6787    4.5698   13.7260 H   0  0  0  0  0  0  0  0  0  0  0  0
   10.6168    4.2550    8.4004 H   0  0  0  0  0  0  0  0  0  0  0  0
   11.6557    5.2712    9.4025 H   0  0  0  0  0  0  0  0  0  0  0  0
    9.9898    5.7652    9.0737 H   0  0  0  0  0  0  0  0  0  0  0  0
   12.8334    3.4271   10.2397 H   0  0  0  0  0  0  0  0  0  0  0  0
   12.5161    1.7293   10.6289 H   0  0  0  0  0  0  0  0  0  0  0  0
   11.8508    2.4478    9.1522 H   0  0  0  0  0  0  0  0  0  0  0  0
  3  6  1  0  0  0  0
  3 23  1  1  0  0  0
  4 17  2  0  0  0  0
  5  2  1  0  0  0  0
  6  1  1  0  0  0  0
  7 17  1  0  0  0  0
  7  3  1  0  0  0  0
  8  7  1  0  0  0  0
  9  5  1  0  0  0  0
  9  3  1  0  0  0  0
 10 24  1  0  0  0  0
 11 10  1  0  0  0  0
 11 25  1  0  0  0  0
 12 11  2  0  0  0  0
 13 14  2  0  0  0  0
 13 12  1  0  0  0  0
 14 15  1  0  0  0  0
 15  6  1  0  0  0  0
 15 10  2  0  0  0  0
 16  6  1  0  0  0  0
 16 28  1  0  0  0  0
 17 16  1  0  0  0  0
 18 20  2  0  0  0  0
 18  8  1  0  0  0  0
 19 31  1  0  0  0  0
 19 18  1  0  0  0  0
 20  9  1  0  0  0  0
 21 33  1  0  0  0  0
 21 34  1  0  0  0  0
 21 20  1  0  0  0  0
 22 12  1  0  0  0  0
 26 13  1  0  0  0  0
 27 14  1  0  0  0  0
 29 16  1  0  0  0  0
 30 19  1  0  0  0  0
 32 19  1  0  0  0  0
 35 21  1  0  0  0  0
M  END
$$$$
