CSD_code = IJIMAP | q = 0 | S = 0 | Stoichiometry = C32H31ClNPPd | MND = 4
 OpenBabel04212202053D

 67 72  0  0  1  0  0  0  0  0999 V2000
    1.3658   12.6371   21.5081 Pd  0  0  2  0  0  0  0  0  0  0  0  0
    1.5216   14.6255   21.3569 C   0  0  0  0  0  0  0  0  0  0  0  0
    1.4618   15.4433   20.2124 C   0  0  0  0  0  0  0  0  0  0  0  0
    1.6571   16.7936   20.3005 C   0  0  0  0  0  0  0  0  0  0  0  0
    1.9081   17.4114   21.5417 C   0  0  0  0  0  0  0  0  0  0  0  0
    2.0726   18.8078   21.6474 C   0  0  0  0  0  0  0  0  0  0  0  0
    2.3127   19.3989   22.8549 C   0  0  0  0  0  0  0  0  0  0  0  0
    2.3953   18.6116   24.0125 C   0  0  0  0  0  0  0  0  0  0  0  0
    2.2444   17.2550   23.9439 C   0  0  0  0  0  0  0  0  0  0  0  0
    2.0018   16.6074   22.7115 C   0  0  0  0  0  0  0  0  0  0  0  0
    1.8325   15.2074   22.5737 C   0  0  0  0  0  0  0  0  0  0  0  0
    1.9598   14.2413   23.7347 C   0  0  2  0  0  0  0  0  0  0  0  0
    2.5696   12.9980   23.2056 N   0  0  0  0  0  4  0  0  0  0  0  0
    1.3730   10.3161   21.7596 Cl  0  0  0  0  0  0  0  0  0  0  0  0
    0.0802   12.3197   19.7265 P   0  0  0  0  0  4  0  0  0  0  0  0
    1.1655   12.0923   18.2870 C   0  0  0  0  0  0  0  0  0  0  0  0
    2.5243   12.3278   18.4829 C   0  0  0  0  0  0  0  0  0  0  0  0
    3.4151   12.1663   17.4370 C   0  0  0  0  0  0  0  0  0  0  0  0
    2.9535   11.7658   16.1932 C   0  0  0  0  0  0  0  0  0  0  0  0
    1.6051   11.5093   15.9996 C   0  0  0  0  0  0  0  0  0  0  0  0
    0.7103   11.6647   17.0430 C   0  0  0  0  0  0  0  0  0  0  0  0
   -1.0483   13.7008   19.3431 C   0  0  0  0  0  0  0  0  0  0  0  0
   -1.6087   14.3275   20.4535 C   0  0  0  0  0  0  0  0  0  0  0  0
   -2.4801   15.3868   20.2938 C   0  0  0  0  0  0  0  0  0  0  0  0
   -2.7896   15.8347   19.0188 C   0  0  0  0  0  0  0  0  0  0  0  0
   -2.2276   15.2209   17.9124 C   0  0  0  0  0  0  0  0  0  0  0  0
   -1.3594   14.1534   18.0694 C   0  0  0  0  0  0  0  0  0  0  0  0
   -1.0375   10.8886   19.6199 C   0  0  0  0  0  0  0  0  0  0  0  0
   -2.3831   11.0003   19.9534 C   0  0  0  0  0  0  0  0  0  0  0  0
   -3.1978    9.8823   19.9251 C   0  0  0  0  0  0  0  0  0  0  0  0
   -2.6753    8.6490   19.5746 C   0  0  0  0  0  0  0  0  0  0  0  0
   -1.3326    8.5325   19.2521 C   0  0  0  0  0  0  0  0  0  0  0  0
   -0.5136    9.6448   19.2761 C   0  0  0  0  0  0  0  0  0  0  0  0
    0.5535   13.9648   24.2857 C   0  0  0  0  0  0  0  0  0  0  0  0
    3.9465   13.2425   22.7713 C   0  0  0  0  0  0  0  0  0  0  0  0
    2.5913   11.9386   24.2130 C   0  0  0  0  0  0  0  0  0  0  0  0
    1.2658   14.9975   19.2424 H   0  0  0  0  0  0  0  0  0  0  0  0
    1.6140   17.4124   19.4143 H   0  0  0  0  0  0  0  0  0  0  0  0
    2.0006   19.4030   20.7477 H   0  0  0  0  0  0  0  0  0  0  0  0
    2.4366   20.4695   22.9284 H   0  0  0  0  0  0  0  0  0  0  0  0
    2.5772   19.0878   24.9654 H   0  0  0  0  0  0  0  0  0  0  0  0
    2.2993   16.6746   24.8528 H   0  0  0  0  0  0  0  0  0  0  0  0
    2.6018   14.6367   24.5377 H   0  0  0  0  0  0  0  0  0  0  0  0
    2.8731   12.6257   19.4804 H   0  0  0  0  0  0  0  0  0  0  0  0
    4.4692   12.3462   17.5895 H   0  0  0  0  0  0  0  0  0  0  0  0
    3.6475   11.6396   15.3753 H   0  0  0  0  0  0  0  0  0  0  0  0
    1.2519   11.1794   15.0334 H   0  0  0  0  0  0  0  0  0  0  0  0
   -0.3372   11.4331   16.9023 H   0  0  0  0  0  0  0  0  0  0  0  0
   -1.3313   13.9749   21.4453 H   0  0  0  0  0  0  0  0  0  0  0  0
   -2.9113   15.8706   21.1579 H   0  0  0  0  0  0  0  0  0  0  0  0
   -3.4636   16.6684   18.8886 H   0  0  0  0  0  0  0  0  0  0  0  0
   -2.4630   15.5775   16.9201 H   0  0  0  0  0  0  0  0  0  0  0  0
   -0.9127   13.6893   17.2023 H   0  0  0  0  0  0  0  0  0  0  0  0
   -2.7926   11.9612   20.2349 H   0  0  0  0  0  0  0  0  0  0  0  0
   -4.2429    9.9745   20.1840 H   0  0  0  0  0  0  0  0  0  0  0  0
   -3.3127    7.7770   19.5597 H   0  0  0  0  0  0  0  0  0  0  0  0
   -0.9205    7.5691   18.9901 H   0  0  0  0  0  0  0  0  0  0  0  0
    0.5385    9.5528   19.0466 H   0  0  0  0  0  0  0  0  0  0  0  0
    0.5813   13.4829   25.2606 H   0  0  0  0  0  0  0  0  0  0  0  0
    0.0076   13.3193   23.5749 H   0  0  0  0  0  0  0  0  0  0  0  0
    0.0160   14.9063   24.3832 H   0  0  0  0  0  0  0  0  0  0  0  0
    3.9889   14.0963   22.0918 H   0  0  0  0  0  0  0  0  0  0  0  0
    4.3236   12.3545   22.2561 H   0  0  0  0  0  0  0  0  0  0  0  0
    4.5962   13.4519   23.6333 H   0  0  0  0  0  0  0  0  0  0  0  0
    1.5809   11.6024   24.4433 H   0  0  0  0  0  0  0  0  0  0  0  0
    3.0854   12.2857   25.1313 H   0  0  0  0  0  0  0  0  0  0  0  0
    3.1349   11.0799   23.8185 H   0  0  0  0  0  0  0  0  0  0  0  0
  1 14  1  6  0  0  0
  1 13  1  0  0  0  0
  2  1  1  0  0  0  0
  2 11  1  0  0  0  0
  3  4  1  0  0  0  0
  3  2  2  0  0  0  0
  4  5  2  0  0  0  0
  5  6  1  0  0  0  0
  5 10  1  0  0  0  0
  6  7  2  0  0  0  0
  7 40  1  0  0  0  0
  7  8  1  0  0  0  0
  8 41  1  0  0  0  0
  9  8  2  0  0  0  0
  9 42  1  0  0  0  0
 10  9  1  0  0  0  0
 11 10  2  0  0  0  0
 11 12  1  0  0  0  0
 12 34  1  0  0  0  0
 12 43  1  1  0  0  0
 13 12  1  0  0  0  0
 13 36  1  0  0  0  0
 15  1  1  0  0  0  0
 16 17  1  0  0  0  0
 16 15  1  0  0  0  0
 17 44  1  0  0  0  0
 18 45  1  0  0  0  0
 18 17  2  0  0  0  0
 19 18  1  0  0  0  0
 20 19  2  0  0  0  0
 20 21  1  0  0  0  0
 21 16  2  0  0  0  0
 22 15  1  0  0  0  0
 22 23  1  0  0  0  0
 23 49  1  0  0  0  0
 24 23  2  0  0  0  0
 24 50  1  0  0  0  0
 25 24  1  0  0  0  0
 26 27  1  0  0  0  0
 26 25  2  0  0  0  0
 27 22  2  0  0  0  0
 28 15  1  0  0  0  0
 28 29  1  0  0  0  0
 29 54  1  0  0  0  0
 30 29  2  0  0  0  0
 30 55  1  0  0  0  0
 31 30  1  0  0  0  0
 32 33  1  0  0  0  0
 32 31  2  0  0  0  0
 33 28  2  0  0  0  0
 34 61  1  0  0  0  0
 34 59  1  0  0  0  0
 35 13  1  0  0  0  0
 35 64  1  0  0  0  0
 36 65  1  0  0  0  0
 36 66  1  0  0  0  0
 37  3  1  0  0  0  0
 38  4  1  0  0  0  0
 39  6  1  0  0  0  0
 46 19  1  0  0  0  0
 47 20  1  0  0  0  0
 48 21  1  0  0  0  0
 51 25  1  0  0  0  0
 52 26  1  0  0  0  0
 53 27  1  0  0  0  0
 56 31  1  0  0  0  0
 57 32  1  0  0  0  0
 58 33  1  0  0  0  0
 60 34  1  0  0  0  0
 62 35  1  0  0  0  0
 63 35  1  0  0  0  0
 67 36  1  0  0  0  0
M  END
$$$$
