CSD_code = IJISIF | q = 0 | S = 0 | Stoichiometry = C7H14Cl2N2O2Pt | MND = 4
 OpenBabel04212202053D

 28 30  0  0  1  0  0  0  0  0999 V2000
    0.5394    0.0109    8.3758 C   0  0  0  0  0  0  0  0  0  0  0  0
    1.2282   -0.3737    9.1332 H   0  0  0  0  0  0  0  0  0  0  0  0
    0.9201   -0.2526    7.3803 H   0  0  0  0  0  0  0  0  0  0  0  0
   -0.8341   -0.6559    8.5309 C   0  0  1  0  0  0  0  0  0  0  0  0
   -0.7058   -1.7290    8.3559 H   0  0  0  0  0  0  0  0  0  0  0  0
   -1.4937   -0.4609    9.9030 C   0  0  0  0  0  0  0  0  0  0  0  0
   -2.4392   -1.0214    9.9064 H   0  0  0  0  0  0  0  0  0  0  0  0
   -0.8452   -0.8596   10.6881 H   0  0  0  0  0  0  0  0  0  0  0  0
   -2.5421    1.5919    9.1359 C   0  0  0  0  0  0  0  0  0  0  0  0
   -2.6369    2.6549    9.3750 H   0  0  0  0  0  0  0  0  0  0  0  0
   -3.5443    1.1459    9.0887 H   0  0  0  0  0  0  0  0  0  0  0  0
   -1.9009    1.4222    7.7520 C   0  0  1  0  0  0  0  0  0  0  0  0
   -2.5723    1.8747    7.0151 H   0  0  0  0  0  0  0  0  0  0  0  0
   -0.5126    2.0596    7.6029 C   0  0  0  0  0  0  0  0  0  0  0  0
   -0.1840    1.9150    6.5639 H   0  0  0  0  0  0  0  0  0  0  0  0
   -0.5711    3.1322    7.8077 H   0  0  0  0  0  0  0  0  0  0  0  0
   -1.7769   -0.0845    7.4544 C   0  0  0  0  0  0  0  0  0  0  0  0
    2.0141    3.0435   10.5940 Cl  0  0  0  0  0  0  0  0  0  0  0  0
   -0.6341    2.4203   12.5958 Cl  0  0  0  0  0  0  0  0  0  0  0  0
    0.4531    1.4632    8.5242 N   0  0  1  0  0  4  0  0  0  0  0  0
   -1.7446    0.9521   10.1815 N   0  0  2  0  0  4  0  0  0  0  0  0
   -1.2062   -0.3407    6.1994 O   0  0  0  0  0  0  0  0  0  0  0  0
   -3.0614   -0.6439    7.5111 O   0  0  0  0  0  0  0  0  0  0  0  0
    0.0305    1.9795   10.4877 Pt  0  0  0  0  0  0  0  0  0  0  0  0
    1.3764    1.8819    8.3794 H   0  0  0  0  0  0  0  0  0  0  0  0
   -2.2157    1.0501   11.0855 H   0  0  0  0  0  0  0  0  0  0  0  0
   -1.8029   -0.0193    5.5121 H   0  0  0  0  0  0  0  0  0  0  0  0
   -3.0044   -1.5833    7.2968 H   0  0  0  0  0  0  0  0  0  0  0  0
  1 20  1  0  0  0  0
  1  4  1  0  0  0  0
  1  2  1  0  0  0  0
  3  1  1  0  0  0  0
  4  5  1  6  0  0  0
  4  6  1  0  0  0  0
  6  7  1  0  0  0  0
  6 21  1  0  0  0  0
  6  8  1  0  0  0  0
  9 10  1  0  0  0  0
  9 21  1  0  0  0  0
 11  9  1  0  0  0  0
 12 13  1  6  0  0  0
 12  9  1  0  0  0  0
 14 12  1  0  0  0  0
 14 16  1  0  0  0  0
 14 20  1  0  0  0  0
 15 14  1  0  0  0  0
 17 23  1  0  0  0  0
 17 12  1  0  0  0  0
 17  4  1  0  0  0  0
 20 25  1  6  0  0  0
 20 24  1  0  0  0  0
 21 24  1  0  0  0  0
 21 26  1  1  0  0  0
 22 17  1  0  0  0  0
 24 18  1  0  0  0  0
 24 19  1  0  0  0  0
 27 22  1  0  0  0  0
 28 23  1  0  0  0  0
M  END
$$$$
