CSD_code = IJOVUY | q = 1 | S = 0 | Stoichiometry = C20H22BrN2NiO3(1+) | MND = 6
 OpenBabel04212202053D

 49 52  0  0  1  0  0  0  0  0999 V2000
   -4.0675  -18.5267  -22.5997 Ni  0  0  0  0  0  0  0  0  0  0  0  0
   -2.3169  -17.1036  -23.0403 Br  0  0  0  0  0  0  0  0  0  0  0  0
   -5.0959  -17.2014  -21.4512 O   0  0  0  0  0  0  0  0  0  0  0  0
   -5.2460  -17.8455  -24.4293 O   0  0  0  0  0  0  0  0  0  0  0  0
   -6.2915  -19.2271  -22.4660 O   0  0  0  0  0  0  0  0  0  0  0  0
   -6.5009  -19.4617  -21.5530 H   0  0  0  0  0  0  0  0  0  0  0  0
   -3.4786  -19.2184  -20.5356 N   0  0  2  0  0  0  0  0  0  0  0  0
   -3.3690  -19.8262  -23.6287 N   0  0  1  0  0  0  0  0  0  0  0  0
   -6.9286  -18.0083  -22.8033 C   0  0  1  0  0  0  0  0  0  0  0  0
   -8.0133  -18.0874  -22.6575 H   0  0  0  0  0  0  0  0  0  0  0  0
   -6.3768  -16.8387  -21.9444 C   0  0  0  0  0  0  0  0  0  0  0  0
   -6.3216  -15.9350  -22.5631 H   0  0  0  0  0  0  0  0  0  0  0  0
   -7.0401  -16.6465  -21.0905 H   0  0  0  0  0  0  0  0  0  0  0  0
   -4.5379  -16.3946  -20.4821 C   0  0  0  0  0  0  0  0  0  0  0  0
   -4.8712  -15.0544  -20.3515 C   0  0  0  0  0  0  0  0  0  0  0  0
   -5.5748  -14.5927  -21.0248 H   0  0  0  0  0  0  0  0  0  0  0  0
   -4.2855  -14.2764  -19.3666 C   0  0  0  0  0  0  0  0  0  0  0  0
   -4.5512  -13.2339  -19.2907 H   0  0  0  0  0  0  0  0  0  0  0  0
   -3.3652  -14.8298  -18.4933 C   0  0  0  0  0  0  0  0  0  0  0  0
   -2.9071  -14.2238  -17.7286 H   0  0  0  0  0  0  0  0  0  0  0  0
   -3.0357  -16.1636  -18.6118 C   0  0  0  0  0  0  0  0  0  0  0  0
   -2.3163  -16.5993  -17.9354 H   0  0  0  0  0  0  0  0  0  0  0  0
   -3.6071  -16.9754  -19.5971 C   0  0  0  0  0  0  0  0  0  0  0  0
   -3.1756  -18.3572  -19.6463 C   0  0  0  0  0  3  0  0  0  0  0  0
   -2.5098  -18.6426  -18.8252 H   0  0  0  0  0  0  0  0  0  0  0  0
   -2.8906  -20.5308  -20.4347 C   0  0  0  0  0  0  0  0  0  0  0  0
   -3.6983  -21.2594  -20.3025 H   0  0  0  0  0  0  0  0  0  0  0  0
   -2.2141  -20.5997  -19.5718 H   0  0  0  0  0  0  0  0  0  0  0  0
   -2.1154  -20.8592  -21.7143 C   0  0  0  0  0  0  0  0  0  0  0  0
   -1.3922  -20.0646  -21.9151 H   0  0  0  0  0  0  0  0  0  0  0  0
   -1.5653  -21.7852  -21.5483 H   0  0  0  0  0  0  0  0  0  0  0  0
   -3.0206  -21.0543  -22.9384 C   0  0  0  0  0  0  0  0  0  0  0  0
   -2.5193  -21.7289  -23.6424 H   0  0  0  0  0  0  0  0  0  0  0  0
   -3.9568  -21.5319  -22.6224 H   0  0  0  0  0  0  0  0  0  0  0  0
   -3.1900  -19.7717  -24.8972 C   0  0  0  0  0  3  0  0  0  0  0  0
   -2.6969  -20.6259  -25.3677 H   0  0  0  0  0  0  0  0  0  0  0  0
   -3.5846  -18.7639  -25.8557 C   0  0  0  0  0  0  0  0  0  0  0  0
   -2.9345  -18.7571  -27.0981 C   0  0  0  0  0  0  0  0  0  0  0  0
   -2.0971  -19.4205  -27.2509 H   0  0  0  0  0  0  0  0  0  0  0  0
   -3.3339  -17.9124  -28.1105 C   0  0  0  0  0  0  0  0  0  0  0  0
   -2.8089  -17.9113  -29.0519 H   0  0  0  0  0  0  0  0  0  0  0  0
   -4.4259  -17.0782  -27.9207 C   0  0  0  0  0  0  0  0  0  0  0  0
   -4.7568  -16.4277  -28.7148 H   0  0  0  0  0  0  0  0  0  0  0  0
   -5.0956  -17.0703  -26.7099 C   0  0  0  0  0  0  0  0  0  0  0  0
   -5.9390  -16.4126  -26.5700 H   0  0  0  0  0  0  0  0  0  0  0  0
   -4.6666  -17.8782  -25.6676 C   0  0  0  0  0  0  0  0  0  0  0  0
   -6.6508  -17.7764  -24.2969 C   0  0  0  0  0  0  0  0  0  0  0  0
   -7.1264  -18.5670  -24.8900 H   0  0  0  0  0  0  0  0  0  0  0  0
   -7.0494  -16.8023  -24.6024 H   0  0  0  0  0  0  0  0  0  0  0  0
  1  7  1  0  0  0  0
  2  1  1  0  0  0  0
  3 14  1  0  0  0  0
  4 47  1  0  0  0  0
  5  6  1  0  0  0  0
  7 26  1  0  0  0  0
  7 24  1  6  0  0  0
  8 35  1  6  0  0  0
  8 32  1  0  0  0  0
  8  1  1  0  0  0  0
  9 10  1  1  0  0  0
  9  5  1  0  0  0  0
  9 11  1  0  0  0  0
 11  3  1  0  0  0  0
 11 13  1  0  0  0  0
 12 11  1  0  0  0  0
 14 15  2  0  0  0  0
 14 23  1  0  0  0  0
 15 17  1  0  0  0  0
 16 15  1  0  0  0  0
 17 18  1  0  0  0  0
 17 19  2  0  0  0  0
 19 20  1  0  0  0  0
 21 19  1  0  0  0  0
 21 22  1  0  0  0  0
 23 21  2  0  0  0  0
 24 23  1  0  0  0  0
 24 25  1  0  0  0  0
 26 27  1  0  0  0  0
 26 28  1  0  0  0  0
 29 31  1  0  0  0  0
 29 26  1  0  0  0  0
 30 29  1  0  0  0  0
 32 34  1  0  0  0  0
 32 29  1  0  0  0  0
 33 32  1  0  0  0  0
 36 35  1  0  0  0  0
 37 46  1  0  0  0  0
 37 35  1  0  0  0  0
 38 37  2  0  0  0  0
 39 38  1  0  0  0  0
 40 42  2  0  0  0  0
 40 38  1  0  0  0  0
 41 40  1  0  0  0  0
 42 44  1  0  0  0  0
 43 42  1  0  0  0  0
 44 45  1  0  0  0  0
 44 46  2  0  0  0  0
 46  4  1  0  0  0  0
 47  9  1  0  0  0  0
 48 47  1  0  0  0  0
 49 47  1  0  0  0  0
M  END
$$$$
