CSD_code = IJUBAQ | q = 0 | S = 0 | Stoichiometry = C14H24Br2N4S2Zn | MND = 4
 OpenBabel04212202053D

 47 48  0  0  1  0  0  0  0  0999 V2000
    6.8150    4.0483    3.4596 Zn  0  0  0  0  0  0  0  0  0  0  0  0
    8.1496    3.2103    1.6052 Br  0  0  0  0  0  0  0  0  0  0  0  0
    5.3384    5.9153    2.3418 S   0  0  0  0  0  0  0  0  0  0  0  0
    4.8223    6.4942    4.9190 N   0  0  0  0  0  0  0  0  0  0  0  0
    5.0045    5.5440    5.2414 H   0  0  0  0  0  0  0  0  0  0  0  0
    4.5085    8.1982    3.5918 N   0  0  0  0  0  0  0  0  0  0  0  0
    4.8818    6.8932    3.6348 C   0  0  2  0  0  3  0  0  0  0  0  0
    4.4182    7.5377    5.6999 C   0  0  0  0  0  0  0  0  0  0  0  0
    4.3068    7.4443    6.7592 H   0  0  0  0  0  0  0  0  0  0  0  0
    4.2227    8.5932    4.8800 C   0  0  0  0  0  0  0  0  0  0  0  0
    3.9049    9.5823    5.1252 H   0  0  0  0  0  0  0  0  0  0  0  0
    4.3682    9.0208    2.3823 C   0  0  0  0  0  0  0  0  0  0  0  0
    5.7213    9.1034    1.6705 C   0  0  0  0  0  0  0  0  0  0  0  0
    6.0596    8.1154    1.3749 H   0  0  0  0  0  0  0  0  0  0  0  0
    6.4691    9.5504    2.3222 H   0  0  0  0  0  0  0  0  0  0  0  0
    5.6279    9.7149    0.7781 H   0  0  0  0  0  0  0  0  0  0  0  0
    3.3119    8.3816    1.4771 C   0  0  0  0  0  0  0  0  0  0  0  0
    2.3641    8.2970    2.0043 H   0  0  0  0  0  0  0  0  0  0  0  0
    3.6246    7.3912    1.1616 H   0  0  0  0  0  0  0  0  0  0  0  0
    3.1656    8.9940    0.5924 H   0  0  0  0  0  0  0  0  0  0  0  0
    3.9155   10.4320    2.7581 C   0  0  0  0  0  0  0  0  0  0  0  0
    2.9404   10.4195    3.2388 H   0  0  0  0  0  0  0  0  0  0  0  0
    3.8311   11.0212    1.8490 H   0  0  0  0  0  0  0  0  0  0  0  0
    4.6357   10.9222    3.4095 H   0  0  0  0  0  0  0  0  0  0  0  0
    5.4805    3.2101    5.3142 Br  0  0  0  0  0  0  0  0  0  0  0  0
    8.2918    5.9151    4.5775 S   0  0  0  0  0  0  0  0  0  0  0  0
    8.7483    6.8931    3.2845 C   0  0  2  0  0  3  0  0  0  0  0  0
    8.8078    6.4941    2.0003 N   0  0  0  0  0  0  0  0  0  0  0  0
    8.6257    5.5439    1.6779 H   0  0  0  0  0  0  0  0  0  0  0  0
    9.2118    7.5376    1.2194 C   0  0  0  0  0  0  0  0  0  0  0  0
    9.3233    7.4442    0.1601 H   0  0  0  0  0  0  0  0  0  0  0  0
    9.4073    8.5931    2.0393 C   0  0  0  0  0  0  0  0  0  0  0  0
    9.1215    8.1981    3.3275 N   0  0  0  0  0  0  0  0  0  0  0  0
    9.2619    9.0207    4.5370 C   0  0  0  0  0  0  0  0  0  0  0  0
    7.9087    9.1032    5.2489 C   0  0  0  0  0  0  0  0  0  0  0  0
    7.5705    8.1153    5.5445 H   0  0  0  0  0  0  0  0  0  0  0  0
    7.1609    9.5502    4.5971 H   0  0  0  0  0  0  0  0  0  0  0  0
    8.0021    9.7148    6.1412 H   0  0  0  0  0  0  0  0  0  0  0  0
   10.3182    8.3816    5.4421 C   0  0  0  0  0  0  0  0  0  0  0  0
   11.2660    8.2971    4.9149 H   0  0  0  0  0  0  0  0  0  0  0  0
   10.0055    7.3912    5.7577 H   0  0  0  0  0  0  0  0  0  0  0  0
   10.4645    8.9940    6.3269 H   0  0  0  0  0  0  0  0  0  0  0  0
    9.7145   10.4319    4.1611 C   0  0  0  0  0  0  0  0  0  0  0  0
   10.6895   10.4195    3.6804 H   0  0  0  0  0  0  0  0  0  0  0  0
    9.7988   11.0212    5.0703 H   0  0  0  0  0  0  0  0  0  0  0  0
    8.9942   10.9221    3.5098 H   0  0  0  0  0  0  0  0  0  0  0  0
    9.7251    9.5822    1.7941 H   0  0  0  0  0  0  0  0  0  0  0  0
  1 26  1  0  0  0  0
  1 25  1  0  0  0  0
  2  1  1  0  0  0  0
  3  1  1  0  0  0  0
  4  5  1  0  0  0  0
  4  8  1  0  0  0  0
  6  7  1  0  0  0  0
  6 10  1  0  0  0  0
  7  3  1  6  0  0  0
  7  4  1  0  0  0  0
  8  9  1  0  0  0  0
 10 11  1  0  0  0  0
 10  8  2  0  0  0  0
 12 21  1  0  0  0  0
 12  6  1  0  0  0  0
 13 15  1  0  0  0  0
 13 12  1  0  0  0  0
 14 13  1  0  0  0  0
 16 13  1  0  0  0  0
 17 18  1  0  0  0  0
 17 12  1  0  0  0  0
 19 17  1  0  0  0  0
 20 17  1  0  0  0  0
 21 22  1  0  0  0  0
 21 24  1  0  0  0  0
 23 21  1  0  0  0  0
 27 33  1  0  0  0  0
 27 26  1  1  0  0  0
 28 27  1  0  0  0  0
 29 28  1  0  0  0  0
 30 28  1  0  0  0  0
 30 32  2  0  0  0  0
 31 30  1  0  0  0  0
 32 33  1  0  0  0  0
 33 34  1  0  0  0  0
 34 35  1  0  0  0  0
 34 39  1  0  0  0  0
 35 36  1  0  0  0  0
 35 38  1  0  0  0  0
 37 35  1  0  0  0  0
 39 41  1  0  0  0  0
 39 42  1  0  0  0  0
 40 39  1  0  0  0  0
 43 34  1  0  0  0  0
 43 45  1  0  0  0  0
 44 43  1  0  0  0  0
 46 43  1  0  0  0  0
 47 32  1  0  0  0  0
M  END
$$$$
