CSD_code = IJUPAG | q = 0 | S = 0 | Stoichiometry = C28H32ClMnN2O4 | MND = 5
 OpenBabel04212202053D

 68 73  0  0  1  0  0  0  0  0999 V2000
    5.6034    0.0169    2.4965 Mn  0  0  0  0  0  0  0  0  0  0  0  0
    5.4532   -0.2404    4.6451 Cl  0  0  0  0  0  0  0  0  0  0  0  0
    4.3627    0.4879    1.3835 O   0  0  0  0  0  0  0  0  0  0  0  0
    5.8536    1.9927    2.6969 N   0  0  2  0  0  0  0  0  0  0  0  0
    7.4635    0.0327    2.4205 N   0  0  2  0  0  0  0  0  0  0  0  0
    5.5101   -1.7468    2.2489 O   0  0  0  0  0  0  0  0  0  0  0  0
    4.6127   -4.0958    1.5056 O   0  0  0  0  0  0  0  0  0  0  0  0
    2.0117    0.2015   -0.3249 O   0  0  0  0  0  0  0  0  0  0  0  0
    4.0257    2.8242    1.3806 C   0  0  0  0  0  0  0  0  0  0  0  0
    8.1320    1.2897    2.7689 C   0  0  1  0  0  0  0  0  0  0  0  0
    8.4617    1.7706    1.8330 H   0  0  0  0  0  0  0  0  0  0  0  0
    3.6470    1.5171    0.9795 C   0  0  0  0  0  0  0  0  0  0  0  0
    5.2048    2.9821    2.1941 C   0  0  0  0  0  3  0  0  0  0  0  0
    5.5384    4.0062    2.3512 H   0  0  0  0  0  0  0  0  0  0  0  0
    5.9494   -3.8782    1.3663 C   0  0  0  0  0  0  0  0  0  0  0  0
    6.3695   -2.5614    1.7524 C   0  0  0  0  0  0  0  0  0  0  0  0
    7.7480   -2.2225    1.5936 C   0  0  0  0  0  0  0  0  0  0  0  0
    7.0812    2.1881    3.4486 C   0  0  1  0  0  0  0  0  0  0  0  0
    6.8785    1.7653    4.4439 H   0  0  0  0  0  0  0  0  0  0  0  0
    3.2914    3.9350    0.9696 C   0  0  0  0  0  0  0  0  0  0  0  0
    3.5982    4.9183    1.2947 H   0  0  0  0  0  0  0  0  0  0  0  0
    6.8608   -4.7822    0.8821 C   0  0  0  0  0  0  0  0  0  0  0  0
    6.5484   -5.7733    0.5907 H   0  0  0  0  0  0  0  0  0  0  0  0
    2.5113    1.3713    0.1527 C   0  0  0  0  0  0  0  0  0  0  0  0
    7.6406    3.5968    3.6247 C   0  0  0  0  0  0  0  0  0  0  0  0
    6.8975    4.2458    4.0905 H   0  0  0  0  0  0  0  0  0  0  0  0
    7.9247    4.0220    2.6588 H   0  0  0  0  0  0  0  0  0  0  0  0
    9.3284    1.1595    3.7145 C   0  0  0  0  0  0  0  0  0  0  0  0
   10.0993    0.5175    3.2874 H   0  0  0  0  0  0  0  0  0  0  0  0
    8.9880    0.7077    4.6475 H   0  0  0  0  0  0  0  0  0  0  0  0
    4.1047   -5.3617    1.1730 C   0  0  0  0  0  0  0  0  0  0  0  0
    3.0362   -5.3141    1.3772 H   0  0  0  0  0  0  0  0  0  0  0  0
    4.5548   -6.1497    1.7860 H   0  0  0  0  0  0  0  0  0  0  0  0
    4.2612   -5.5926    0.1133 H   0  0  0  0  0  0  0  0  0  0  0  0
    8.2136   -0.9338    1.9397 C   0  0  0  0  0  3  0  0  0  0  0  0
    9.2734   -0.7468    1.7799 H   0  0  0  0  0  0  0  0  0  0  0  0
    8.2227   -4.4484    0.7560 C   0  0  0  0  0  0  0  0  0  0  0  0
    8.8657    3.5043    4.5356 C   0  0  0  0  0  0  0  0  0  0  0  0
    9.3052    4.4954    4.6609 H   0  0  0  0  0  0  0  0  0  0  0  0
    8.5491    3.1494    5.5176 H   0  0  0  0  0  0  0  0  0  0  0  0
    2.1697    3.7850    0.1723 C   0  0  0  0  0  0  0  0  0  0  0  0
    8.6473   -3.1967    1.1074 C   0  0  0  0  0  0  0  0  0  0  0  0
    9.6912   -2.9336    1.0164 H   0  0  0  0  0  0  0  0  0  0  0  0
    1.7983    2.5077   -0.2217 C   0  0  0  0  0  0  0  0  0  0  0  0
    0.9256    2.3579   -0.8386 H   0  0  0  0  0  0  0  0  0  0  0  0
    9.1958   -5.4959    0.2826 C   0  0  0  0  0  0  0  0  0  0  0  0
    8.7216   -6.1177   -0.4818 H   0  0  0  0  0  0  0  0  0  0  0  0
   10.0786   -5.0233   -0.1496 H   0  0  0  0  0  0  0  0  0  0  0  0
    9.9123    2.5487    3.9688 C   0  0  0  0  0  0  0  0  0  0  0  0
   10.7482    2.4690    4.6653 H   0  0  0  0  0  0  0  0  0  0  0  0
   10.2991    2.9516    3.0293 H   0  0  0  0  0  0  0  0  0  0  0  0
    2.6467   -1.0305   -0.0461 C   0  0  0  0  0  0  0  0  0  0  0  0
    2.0271   -1.7839   -0.5328 H   0  0  0  0  0  0  0  0  0  0  0  0
    2.6942   -1.2381    1.0253 H   0  0  0  0  0  0  0  0  0  0  0  0
    3.6559   -1.0673   -0.4658 H   0  0  0  0  0  0  0  0  0  0  0  0
    1.3454    4.9736   -0.2268 C   0  0  0  0  0  0  0  0  0  0  0  0
    0.8556    4.7815   -1.1856 H   0  0  0  0  0  0  0  0  0  0  0  0
    1.9923    5.8463   -0.3594 H   0  0  0  0  0  0  0  0  0  0  0  0
    0.2842    5.3263    0.7800 C   0  0  0  0  0  0  0  0  0  0  0  0
   -0.3192    6.1816    0.5021 H   0  0  0  0  0  0  0  0  0  0  0  0
    9.5994   -6.3621    1.4393 C   0  0  0  0  0  0  0  0  0  0  0  0
    8.7861   -6.8799    1.9304 H   0  0  0  0  0  0  0  0  0  0  0  0
    0.0564    4.6940    1.9146 C   0  0  0  0  0  0  0  0  0  0  0  0
    0.6372    3.8402    2.2202 H   0  0  0  0  0  0  0  0  0  0  0  0
   -0.7250    5.0063    2.5863 H   0  0  0  0  0  0  0  0  0  0  0  0
   10.8366   -6.4915    1.8774 C   0  0  0  0  0  0  0  0  0  0  0  0
   11.6611   -5.9820    1.4057 H   0  0  0  0  0  0  0  0  0  0  0  0
   11.0830   -7.1171    2.7182 H   0  0  0  0  0  0  0  0  0  0  0  0
  1  4  1  0  0  0  0
  1  2  1  0  0  0  0
  3  1  1  0  0  0  0
  4 13  1  6  0  0  0
  4 18  1  0  0  0  0
  5 35  1  6  0  0  0
  5  1  1  0  0  0  0
  5 10  1  0  0  0  0
  6  1  1  0  0  0  0
  8 52  1  0  0  0  0
  8 24  1  0  0  0  0
  9 13  1  0  0  0  0
 10 11  1  6  0  0  0
 10 18  1  0  0  0  0
 10 28  1  0  0  0  0
 12  9  1  0  0  0  0
 12  3  1  0  0  0  0
 13 14  1  0  0  0  0
 15  7  1  0  0  0  0
 15 16  1  0  0  0  0
 16  6  1  0  0  0  0
 17 16  2  0  0  0  0
 17 35  1  0  0  0  0
 18 25  1  0  0  0  0
 18 19  1  1  0  0  0
 20 21  1  0  0  0  0
 20  9  2  0  0  0  0
 22 15  2  0  0  0  0
 23 22  1  0  0  0  0
 24 12  2  0  0  0  0
 25 26  1  0  0  0  0
 25 38  1  0  0  0  0
 27 25  1  0  0  0  0
 28 49  1  0  0  0  0
 28 30  1  0  0  0  0
 29 28  1  0  0  0  0
 31 32  1  0  0  0  0
 31  7  1  0  0  0  0
 31 33  1  0  0  0  0
 34 31  1  0  0  0  0
 36 35  1  0  0  0  0
 37 22  1  0  0  0  0
 37 42  2  0  0  0  0
 38 39  1  0  0  0  0
 38 40  1  0  0  0  0
 41 20  1  0  0  0  0
 42 17  1  0  0  0  0
 43 42  1  0  0  0  0
 44 24  1  0  0  0  0
 44 41  2  0  0  0  0
 45 44  1  0  0  0  0
 46 37  1  0  0  0  0
 46 61  1  0  0  0  0
 47 46  1  0  0  0  0
 48 46  1  0  0  0  0
 49 38  1  0  0  0  0
 49 50  1  0  0  0  0
 51 49  1  0  0  0  0
 52 54  1  0  0  0  0
 53 52  1  0  0  0  0
 55 52  1  0  0  0  0
 56 41  1  0  0  0  0
 56 59  1  0  0  0  0
 57 56  1  0  0  0  0
 58 56  1  0  0  0  0
 59 63  2  0  0  0  0
 60 59  1  0  0  0  0
 61 66  2  0  0  0  0
 61 62  1  0  0  0  0
 63 64  1  0  0  0  0
 63 65  1  0  0  0  0
 66 68  1  0  0  0  0
 67 66  1  0  0  0  0
M  END
$$$$
