CSD_code = IKAJEL | q = 1 | S = 0 | Stoichiometry = C24H25ClN5Pd(1+) | MND = 4
 OpenBabel04212202053D

 56 60  0  0  1  0  0  0  0  0999 V2000
    9.3488    3.7509    4.3854 Pd  0  0  2  0  0  0  0  0  0  0  0  0
    8.6035    5.4980    5.5320 Cl  0  0  0  0  0  0  0  0  0  0  0  0
    9.9460    2.2296    3.3764 N   0  0  0  0  0  2  0  0  0  0  0  0
   11.3892    5.8362    3.6675 N   0  0  0  0  0  0  0  0  0  0  0  0
    9.9419    5.6899    2.0910 N   0  0  0  0  0  0  0  0  0  0  0  0
    8.9498    2.1625    6.9513 N   0  0  0  0  0  0  0  0  0  0  0  0
    7.0873    2.5410    5.9579 N   0  0  0  0  0  0  0  0  0  0  0  0
   10.1404    1.2957    2.7341 C   0  0  0  0  0  2  0  0  0  0  0  0
   10.4130    0.1391    1.9455 C   0  0  0  0  0  0  0  0  0  0  0  0
    8.4163    2.6492    5.8193 C   0  0  0  0  0  0  0  0  0  0  0  0
    7.9564    1.7368    7.7929 C   0  0  0  0  0  0  0  0  0  0  0  0
    8.1581    1.3105    8.7536 H   0  0  0  0  0  0  0  0  0  0  0  0
    6.7798    1.9778    7.1637 C   0  0  0  0  0  0  0  0  0  0  0  0
    5.7732    1.7993    7.4811 H   0  0  0  0  0  0  0  0  0  0  0  0
   10.3585    2.1440    7.2459 C   0  0  0  0  0  0  0  0  0  0  0  0
   10.9031    2.5070    6.3621 H   0  0  0  0  0  0  0  0  0  0  0  0
   10.6885    1.1319    7.4851 H   0  0  0  0  0  0  0  0  0  0  0  0
   10.5755    2.7962    8.0941 H   0  0  0  0  0  0  0  0  0  0  0  0
    6.1736    3.0558    4.9642 C   0  0  0  0  0  0  0  0  0  0  0  0
    6.2390    4.1505    4.9770 H   0  0  0  0  0  0  0  0  0  0  0  0
    5.1579    2.7542    5.2365 H   0  0  0  0  0  0  0  0  0  0  0  0
    6.5254    2.5140    3.5931 C   0  0  0  0  0  0  0  0  0  0  0  0
    6.6279    1.1313    3.4526 C   0  0  0  0  0  0  0  0  0  0  0  0
    6.4906    0.5025    4.3215 H   0  0  0  0  0  0  0  0  0  0  0  0
    6.8728    0.5493    2.2239 C   0  0  0  0  0  0  0  0  0  0  0  0
    6.9305   -0.5252    2.1365 H   0  0  0  0  0  0  0  0  0  0  0  0
    6.9945    1.3512    1.1010 C   0  0  0  0  0  0  0  0  0  0  0  0
    7.1397    0.9070    0.1277 H   0  0  0  0  0  0  0  0  0  0  0  0
    6.9005    2.7237    1.2240 C   0  0  0  0  0  0  0  0  0  0  0  0
    6.9420    3.3412    0.3385 H   0  0  0  0  0  0  0  0  0  0  0  0
    6.6933    3.3333    2.4649 C   0  0  0  0  0  0  0  0  0  0  0  0
    6.5461    4.8072    2.5307 C   0  0  0  0  0  0  0  0  0  0  0  0
    5.3701    5.3365    3.0663 C   0  0  0  0  0  0  0  0  0  0  0  0
    4.5915    4.6606    3.3878 H   0  0  0  0  0  0  0  0  0  0  0  0
    5.1712    6.6997    3.1597 C   0  0  0  0  0  0  0  0  0  0  0  0
    4.2556    7.0823    3.5828 H   0  0  0  0  0  0  0  0  0  0  0  0
    6.1498    7.5692    2.7098 C   0  0  0  0  0  0  0  0  0  0  0  0
    6.0126    8.6359    2.7917 H   0  0  0  0  0  0  0  0  0  0  0  0
    7.2980    7.0609    2.1348 C   0  0  0  0  0  0  0  0  0  0  0  0
    8.0505    7.7407    1.7619 H   0  0  0  0  0  0  0  0  0  0  0  0
    7.5068    5.6903    2.0246 C   0  0  0  0  0  0  0  0  0  0  0  0
    8.7869    5.2284    1.3557 C   0  0  0  0  0  0  0  0  0  0  0  0
    8.8341    4.1346    1.3170 H   0  0  0  0  0  0  0  0  0  0  0  0
    8.8388    5.6302    0.3396 H   0  0  0  0  0  0  0  0  0  0  0  0
   10.7444    6.7550    1.7901 C   0  0  0  0  0  0  0  0  0  0  0  0
   10.6140    7.3496    0.9095 H   0  0  0  0  0  0  0  0  0  0  0  0
   11.6613    6.8455    2.7847 C   0  0  0  0  0  0  0  0  0  0  0  0
   12.4655    7.5368    2.9290 H   0  0  0  0  0  0  0  0  0  0  0  0
   10.3344    5.1225    3.2419 C   0  0  2  0  0  3  0  0  0  0  0  0
   12.1151    5.5755    4.8832 C   0  0  0  0  0  0  0  0  0  0  0  0
   11.5844    4.7891    5.4422 H   0  0  0  0  0  0  0  0  0  0  0  0
   12.1545    6.4768    5.4960 H   0  0  0  0  0  0  0  0  0  0  0  0
   13.1335    5.2495    4.6609 H   0  0  0  0  0  0  0  0  0  0  0  0
    9.8407   -0.7073    2.3238 H   0  0  0  0  0  0  0  0  0  0  0  0
   10.1325    0.3248    0.9092 H   0  0  0  0  0  0  0  0  0  0  0  0
   11.4760   -0.0976    1.9918 H   0  0  0  0  0  0  0  0  0  0  0  0
  1  2  1  6  0  0  0
  1 10  2  0  0  0  0
  3  1  1  0  0  0  0
  4 50  1  0  0  0  0
  6 15  1  0  0  0  0
  6 11  1  0  0  0  0
  7 13  1  0  0  0  0
  8  3  1  0  0  0  0
  9 56  1  0  0  0  0
  9 54  1  0  0  0  0
  9  8  1  0  0  0  0
 10  7  1  0  0  0  0
 10  6  1  0  0  0  0
 11 12  1  0  0  0  0
 13 14  1  0  0  0  0
 13 11  2  0  0  0  0
 15 17  1  0  0  0  0
 15 18  1  0  0  0  0
 16 15  1  0  0  0  0
 19 20  1  0  0  0  0
 19 21  1  0  0  0  0
 19  7  1  0  0  0  0
 22 19  1  0  0  0  0
 23 22  1  0  0  0  0
 23 24  1  0  0  0  0
 25 23  2  0  0  0  0
 26 25  1  0  0  0  0
 27 29  2  0  0  0  0
 27 25  1  0  0  0  0
 28 27  1  0  0  0  0
 29 31  1  0  0  0  0
 30 29  1  0  0  0  0
 31 32  1  0  0  0  0
 31 22  2  0  0  0  0
 32 33  1  0  0  0  0
 33 35  2  0  0  0  0
 33 34  1  0  0  0  0
 35 36  1  0  0  0  0
 37 38  1  0  0  0  0
 37 35  1  0  0  0  0
 39 37  2  0  0  0  0
 40 39  1  0  0  0  0
 41 39  1  0  0  0  0
 41 32  2  0  0  0  0
 42 41  1  0  0  0  0
 42  5  1  0  0  0  0
 43 42  1  0  0  0  0
 44 42  1  0  0  0  0
 45  5  1  0  0  0  0
 45 47  2  0  0  0  0
 46 45  1  0  0  0  0
 47 48  1  0  0  0  0
 47  4  1  0  0  0  0
 49  5  1  1  0  0  0
 49  4  1  0  0  0  0
 49  1  1  0  0  0  0
 50 51  1  0  0  0  0
 50 52  1  0  0  0  0
 53 50  1  0  0  0  0
 55  9  1  0  0  0  0
M  END
$$$$
