CSD_code = IKEKOY | q = 0 | S = 0 | Stoichiometry = C28H29Cl2OPRu | MND = 9
 OpenBabel04212202053D

 62 63  0  0  1  0  0  0  0  0999 V2000
   -4.2262   12.6541   17.1852 Ru  0  0  0  0  0  0  0  0  0  0  0  0
   -4.8738   12.4916   19.4370 Cl  0  0  0  0  0 15  0  0  0  0  0  0
   -4.5032   14.9934   17.1285 Cl  0  0  0  0  0 15  0  0  0  0  0  0
   -6.4733   12.7040   16.8175 P   0  0  0  0  0  4  0  0  0  0  0  0
   -2.2748   13.7781   18.8164 O   0  0  0  0  0  0  0  0  0  0  0  0
   -2.9723   14.2744   19.2698 H   0  0  0  0  0  0  0  0  0  0  0  0
   -1.8679   11.3983   17.2516 C   0  0  0  0  0  0  0  0  0  0  0  0
   -1.1319   11.1885   18.0143 H   0  0  0  0  0  0  0  0  0  0  0  0
   -3.0405   10.6007   17.1963 C   0  0  0  0  0  0  0  0  0  0  0  0
   -3.1546    9.7910   17.9095 H   0  0  0  0  0  0  0  0  0  0  0  0
   -3.8922   10.6759   16.0841 C   0  0  0  0  0  0  0  0  0  0  0  0
   -4.6424    9.9136   15.9004 H   0  0  0  0  0  0  0  0  0  0  0  0
   -3.7092   11.7274   15.1593 C   0  0  2  0  0  0  0  0  0  0  0  0
   -4.3046   11.7704   14.2544 H   0  0  0  0  0  0  0  0  0  0  0  0
   -2.7123   12.6824   15.3985 C   0  0  0  0  0  3  0  0  0  0  0  0
   -2.5826   13.4971   14.6923 H   0  0  0  0  0  0  0  0  0  0  0  0
   -1.6956   12.4511   16.3727 C   0  0  0  0  0  0  0  0  0  0  0  0
   -0.4639   13.3224   16.3760 C   0  0  1  0  0  0  0  0  0  0  0  0
   -0.6507   14.1747   15.7117 H   0  0  0  0  0  0  0  0  0  0  0  0
   -0.1264   13.8809   17.7640 C   0  0  0  0  0  0  0  0  0  0  0  0
    0.7415   14.5362   17.6718 H   0  0  0  0  0  0  0  0  0  0  0  0
    0.1319   13.0690   18.4453 H   0  0  0  0  0  0  0  0  0  0  0  0
   -1.2761   14.6761   18.3803 C   0  0  0  0  0  0  0  0  0  0  0  0
   -0.8962   15.2485   19.2385 H   0  0  0  0  0  0  0  0  0  0  0  0
   -1.6909   15.3823   17.6477 H   0  0  0  0  0  0  0  0  0  0  0  0
    0.7170   12.5214   15.8151 C   0  0  0  0  0  0  0  0  0  0  0  0
    0.4890   12.1528   14.8167 H   0  0  0  0  0  0  0  0  0  0  0  0
    0.9402   11.6697   16.4536 H   0  0  0  0  0  0  0  0  0  0  0  0
    1.6018   13.1505   15.7574 H   0  0  0  0  0  0  0  0  0  0  0  0
   -7.4943   14.1221   17.3432 C   0  0  0  0  0  0  0  0  0  0  0  0
   -8.3760   14.7604   16.4761 C   0  0  0  0  0  0  0  0  0  0  0  0
   -8.4456   14.4562   15.4412 H   0  0  0  0  0  0  0  0  0  0  0  0
   -9.1662   15.7990   16.9364 C   0  0  0  0  0  0  0  0  0  0  0  0
   -9.8446   16.2936   16.2559 H   0  0  0  0  0  0  0  0  0  0  0  0
   -9.0883   16.2044   18.2574 C   0  0  0  0  0  0  0  0  0  0  0  0
   -9.7046   17.0189   18.6095 H   0  0  0  0  0  0  0  0  0  0  0  0
   -8.2178   15.5642   19.1243 C   0  0  0  0  0  0  0  0  0  0  0  0
   -8.1530   15.8773   20.1558 H   0  0  0  0  0  0  0  0  0  0  0  0
   -7.4250   14.5256   18.6740 C   0  0  0  0  0  0  0  0  0  0  0  0
   -6.7365   14.0292   19.3432 H   0  0  0  0  0  0  0  0  0  0  0  0
   -7.4707   11.3203   17.4564 C   0  0  0  0  0  0  0  0  0  0  0  0
   -6.8727   10.2426   18.0952 C   0  0  0  0  0  0  0  0  0  0  0  0
   -5.8025   10.2447   18.2505 H   0  0  0  0  0  0  0  0  0  0  0  0
   -7.6474    9.1946   18.5612 C   0  0  0  0  0  0  0  0  0  0  0  0
   -7.1793    8.3621   19.0656 H   0  0  0  0  0  0  0  0  0  0  0  0
   -9.0208    9.2169   18.3881 C   0  0  0  0  0  0  0  0  0  0  0  0
   -9.6256    8.4005   18.7546 H   0  0  0  0  0  0  0  0  0  0  0  0
   -9.6223   10.2921   17.7523 C   0  0  0  0  0  0  0  0  0  0  0  0
  -10.6945   10.3127   17.6220 H   0  0  0  0  0  0  0  0  0  0  0  0
   -8.8534   11.3428   17.2890 C   0  0  0  0  0  0  0  0  0  0  0  0
   -9.3194   12.1863   16.7981 H   0  0  0  0  0  0  0  0  0  0  0  0
   -6.7523   12.6421   15.0225 C   0  0  0  0  0  0  0  0  0  0  0  0
   -7.3036   11.5468   14.3691 C   0  0  0  0  0  0  0  0  0  0  0  0
   -7.6589   10.7000   14.9394 H   0  0  0  0  0  0  0  0  0  0  0  0
   -7.4012   11.5458   12.9871 C   0  0  0  0  0  0  0  0  0  0  0  0
   -7.8333   10.6942   12.4818 H   0  0  0  0  0  0  0  0  0  0  0  0
   -6.9458   12.6285   12.2538 C   0  0  0  0  0  0  0  0  0  0  0  0
   -7.0245   12.6218   11.1766 H   0  0  0  0  0  0  0  0  0  0  0  0
   -6.3827   13.7188   12.9019 C   0  0  0  0  0  0  0  0  0  0  0  0
   -6.0218   14.5608   12.3297 H   0  0  0  0  0  0  0  0  0  0  0  0
   -6.2784   13.7245   14.2793 C   0  0  0  0  0  0  0  0  0  0  0  0
   -5.8278   14.5600   14.8013 H   0  0  0  0  0  0  0  0  0  0  0  0
  4  1  1  0  0  0  0
  4 30  1  0  0  0  0
  4 41  1  0  0  0  0
  5  6  1  0  0  0  0
  7  8  1  0  0  0  0
  9  7  1  0  0  0  0
  9 10  1  0  0  0  0
 11  9  2  0  0  0  0
 12 11  1  0  0  0  0
 13 14  1  6  0  0  0
 13 15  1  0  0  0  0
 13 11  1  0  0  0  0
 13  1  1  0  0  0  0
 15 17  1  0  0  0  0
 16 15  1  0  0  0  0
 17 18  1  0  0  0  0
 17  7  2  0  0  0  0
 18 19  1  6  0  0  0
 18 20  1  0  0  0  0
 20 23  1  0  0  0  0
 20 22  1  0  0  0  0
 21 20  1  0  0  0  0
 23  5  1  0  0  0  0
 23 24  1  0  0  0  0
 25 23  1  0  0  0  0
 26 18  1  0  0  0  0
 26 28  1  0  0  0  0
 27 26  1  0  0  0  0
 29 26  1  0  0  0  0
 30 39  1  0  0  0  0
 31 33  1  0  0  0  0
 31 30  2  0  0  0  0
 32 31  1  0  0  0  0
 33 35  2  0  0  0  0
 34 33  1  0  0  0  0
 35 36  1  0  0  0  0
 35 37  1  0  0  0  0
 37 38  1  0  0  0  0
 39 37  2  0  0  0  0
 39 40  1  0  0  0  0
 41 42  1  0  0  0  0
 42 43  1  0  0  0  0
 42 44  2  0  0  0  0
 44 45  1  0  0  0  0
 46 44  1  0  0  0  0
 46 47  1  0  0  0  0
 48 46  2  0  0  0  0
 49 48  1  0  0  0  0
 50 41  2  0  0  0  0
 50 48  1  0  0  0  0
 51 50  1  0  0  0  0
 52  4  1  0  0  0  0
 53 54  1  0  0  0  0
 53 52  1  0  0  0  0
 55 53  2  0  0  0  0
 56 55  1  0  0  0  0
 57 59  2  0  0  0  0
 57 55  1  0  0  0  0
 58 57  1  0  0  0  0
 59 61  1  0  0  0  0
 60 59  1  0  0  0  0
 61 62  1  0  0  0  0
 61 52  2  0  0  0  0
M  END
$$$$
