CSD_code = IKELAN | q = 0 | S = 0 | Stoichiometry = C15H8ClF6N2O3Re | MND = 6
 OpenBabel04212202053D

 36 37  0  0  0  0  0  0  0  0999 V2000
    7.6987    1.0960    2.6570 C   0  0  0  0  0  2  0  0  0  0  0  0
    8.7521   -1.4141    3.4357 C   0  0  0  0  0  2  0  0  0  0  0  0
    8.2173   -0.9551    0.7376 C   0  0  0  0  0  2  0  0  0  0  0  0
   11.2365    1.7188    0.5298 C   0  0  0  0  0  3  0  0  0  0  0  0
   11.8987    1.1431    1.1641 H   0  0  0  0  0  0  0  0  0  0  0  0
   11.7682    2.5927   -0.4052 C   0  0  0  0  0  0  0  0  0  0  0  0
   12.8347    2.7322   -0.4776 H   0  0  0  0  0  0  0  0  0  0  0  0
   10.8957    3.2718   -1.2398 C   0  0  0  0  0  0  0  0  0  0  0  0
    9.5295    3.0459   -1.1112 C   0  0  0  0  0  0  0  0  0  0  0  0
    8.8216    3.5508   -1.7483 H   0  0  0  0  0  0  0  0  0  0  0  0
    9.0977    2.1565   -0.1450 C   0  0  0  0  0  0  0  0  0  0  0  0
    8.0409    1.9621   -0.0172 H   0  0  0  0  0  0  0  0  0  0  0  0
   11.3931    4.2341   -2.2876 C   0  0  0  0  0  0  0  0  0  0  0  0
   10.5748    2.3016    3.7199 C   0  0  0  0  0  3  0  0  0  0  0  0
    9.8017    2.8651    3.2126 H   0  0  0  0  0  0  0  0  0  0  0  0
   11.5133    2.9650    4.4887 C   0  0  0  0  0  0  0  0  0  0  0  0
   11.4940    4.0397    4.5740 H   0  0  0  0  0  0  0  0  0  0  0  0
   12.4817    2.2112    5.1406 C   0  0  0  0  0  0  0  0  0  0  0  0
   12.4597    0.8307    5.0065 C   0  0  0  0  0  0  0  0  0  0  0  0
   13.1903    0.2107    5.5008 H   0  0  0  0  0  0  0  0  0  0  0  0
   11.4800    0.2610    4.2099 C   0  0  0  0  0  0  0  0  0  0  0  0
   11.4538   -0.8111    4.0679 H   0  0  0  0  0  0  0  0  0  0  0  0
   13.5102    2.8874    6.0100 C   0  0  0  0  0  0  0  0  0  0  0  0
   11.1337   -1.2006    1.4952 Cl  0  0  0  0  0  0  0  0  0  0  0  0
   12.6968    4.5040   -2.1663 F   0  0  0  0  0  0  0  0  0  0  0  0
   11.2051    3.7584   -3.5278 F   0  0  0  0  0  0  0  0  0  0  0  0
   10.7448    5.4083   -2.2265 F   0  0  0  0  0  0  0  0  0  0  0  0
   13.8327    4.1063    5.5558 F   0  0  0  0  0  0  0  0  0  0  0  0
   13.0591    3.0525    7.2651 F   0  0  0  0  0  0  0  0  0  0  0  0
   14.6469    2.1883    6.0975 F   0  0  0  0  0  0  0  0  0  0  0  0
    9.9306    1.5011    0.6663 N   0  0  0  0  0  0  0  0  0  0  0  0
   10.5563    0.9766    3.5687 N   0  0  0  0  0  0  0  0  0  0  0  0
    6.8226    1.7796    2.9510 O   0  0  0  0  0  1  0  0  0  0  0  0
    8.5724   -2.2609    4.1811 O   0  0  0  0  0  1  0  0  0  0  0  0
    7.7316   -1.5253   -0.1246 O   0  0  0  0  0  1  0  0  0  0  0  0
    9.1978   -0.0254    2.1437 Re  0  0  0  0  0  0  0  0  0  0  0  0
  1 33  1  0  0  0  0
  2 34  1  0  0  0  0
  3 36  1  0  0  0  0
  4 31  1  0  0  0  0
  4  5  1  0  0  0  0
  6  4  1  0  0  0  0
  7  6  1  0  0  0  0
  8  9  1  0  0  0  0
  8  6  2  0  0  0  0
  9 11  2  0  0  0  0
 10  9  1  0  0  0  0
 11 12  1  0  0  0  0
 11 31  1  0  0  0  0
 13 27  1  0  0  0  0
 13 25  1  0  0  0  0
 13  8  1  0  0  0  0
 14 16  1  0  0  0  0
 15 14  1  0  0  0  0
 16 17  1  0  0  0  0
 16 18  2  0  0  0  0
 18 23  1  0  0  0  0
 19 18  1  0  0  0  0
 19 20  1  0  0  0  0
 21 19  2  0  0  0  0
 22 21  1  0  0  0  0
 23 30  1  0  0  0  0
 23 29  1  0  0  0  0
 24 36  1  0  0  0  0
 26 13  1  0  0  0  0
 28 23  1  0  0  0  0
 31 36  1  0  0  0  0
 32 14  1  0  0  0  0
 32 21  1  0  0  0  0
 35  3  1  0  0  0  0
 36  1  1  0  0  0  0
 36  2  1  0  0  0  0
 36 32  1  0  0  0  0
M  END
$$$$
