CSD_code = IKENUI | q = 0 | S = 0 | Stoichiometry = C25H19ClNO2PPd | MND = 4
 OpenBabel04212202053D

 50 55  0  0  0  0  0  0  0  0999 V2000
    0.6527    6.0445    6.4620 Pd  0  0  2  0  0  0  0  0  0  0  0  0
    1.0048    8.3224    6.5863 Cl  0  0  0  0  0  0  0  0  0  0  0  0
    2.4598    3.2480    6.9535 O   0  0  0  0  0  0  0  0  0  0  0  0
   -1.1515    6.0999    5.7358 N   0  0  0  0  0  0  0  0  0  0  0  0
    3.0829    4.7042    6.6570 P   0  0  0  0  0  4  0  0  0  0  0  0
    1.1804    3.0042    6.4402 C   0  0  0  0  0  0  0  0  0  0  0  0
    2.5052    5.8066    7.4731 O   0  0  0  0  0  0  0  0  0  0  0  0
    0.3407    4.0766    6.1824 C   0  0  0  0  0  0  0  0  0  0  0  0
   -0.8878    3.7999    5.5464 C   0  0  0  0  0  0  0  0  0  0  0  0
   -1.2617    2.4918    5.2281 C   0  0  0  0  0  0  0  0  0  0  0  0
   -2.2035    2.3019    4.7348 H   0  0  0  0  0  0  0  0  0  0  0  0
   -0.4173    1.4504    5.5567 C   0  0  0  0  0  0  0  0  0  0  0  0
   -0.7003    0.4327    5.3344 H   0  0  0  0  0  0  0  0  0  0  0  0
    0.8115    1.6978    6.1588 C   0  0  0  0  0  0  0  0  0  0  0  0
    1.4836    0.8884    6.4013 H   0  0  0  0  0  0  0  0  0  0  0  0
    4.8148    4.4316    7.0738 C   0  0  0  0  0  0  0  0  0  0  0  0
    5.4747    3.2534    6.7551 C   0  0  0  0  0  0  0  0  0  0  0  0
    4.9383    2.4516    6.2712 H   0  0  0  0  0  0  0  0  0  0  0  0
    6.8112    3.1110    7.0808 C   0  0  0  0  0  0  0  0  0  0  0  0
    7.3291    2.1934    6.8433 H   0  0  0  0  0  0  0  0  0  0  0  0
    7.4862    4.1441    7.7124 C   0  0  0  0  0  0  0  0  0  0  0  0
    8.5298    4.0279    7.9648 H   0  0  0  0  0  0  0  0  0  0  0  0
    6.8272    5.3227    8.0231 C   0  0  0  0  0  0  0  0  0  0  0  0
    7.3552    6.1249    8.5163 H   0  0  0  0  0  0  0  0  0  0  0  0
    5.4899    5.4692    7.7009 C   0  0  0  0  0  0  0  0  0  0  0  0
    4.9494    6.3735    7.9391 H   0  0  0  0  0  0  0  0  0  0  0  0
    2.8922    4.9481    4.8528 C   0  0  0  0  0  0  0  0  0  0  0  0
    2.6315    6.2316    4.3680 C   0  0  0  0  0  0  0  0  0  0  0  0
    2.6682    7.0898    5.0373 H   0  0  0  0  0  0  0  0  0  0  0  0
    2.3865    6.4117    3.0157 C   0  0  0  0  0  0  0  0  0  0  0  0
    2.1786    7.4020    2.6394 H   0  0  0  0  0  0  0  0  0  0  0  0
    2.4142    5.3262    2.1518 C   0  0  0  0  0  0  0  0  0  0  0  0
    2.2134    5.4693    1.1005 H   0  0  0  0  0  0  0  0  0  0  0  0
    2.7140    4.0618    2.6300 C   0  0  0  0  0  0  0  0  0  0  0  0
    2.7528    3.2209    1.9537 H   0  0  0  0  0  0  0  0  0  0  0  0
    2.9554    3.8698    3.9801 C   0  0  0  0  0  0  0  0  0  0  0  0
    3.1753    2.8816    4.3572 H   0  0  0  0  0  0  0  0  0  0  0  0
   -1.6732    4.9828    5.3434 C   0  0  0  0  0  0  0  0  0  0  0  0
   -2.6904    4.9483    4.9566 H   0  0  0  0  0  0  0  0  0  0  0  0
   -1.9039    7.2806    5.7536 C   0  0  0  0  0  0  0  0  0  0  0  0
   -1.9712    7.9845    6.9575 C   0  0  0  0  0  0  0  0  0  0  0  0
   -1.4384    7.5949    7.8226 H   0  0  0  0  0  0  0  0  0  0  0  0
   -2.7093    9.1486    7.0281 C   0  0  0  0  0  0  0  0  0  0  0  0
   -2.7568    9.6966    7.9565 H   0  0  0  0  0  0  0  0  0  0  0  0
   -3.3753    9.6206    5.9069 C   0  0  0  0  0  0  0  0  0  0  0  0
   -3.9390   10.5396    5.9618 H   0  0  0  0  0  0  0  0  0  0  0  0
   -3.3128    8.9193    4.7151 C   0  0  0  0  0  0  0  0  0  0  0  0
   -3.8279    9.2887    3.8408 H   0  0  0  0  0  0  0  0  0  0  0  0
   -2.5864    7.7442    4.6344 C   0  0  0  0  0  0  0  0  0  0  0  0
   -2.5136    7.2018    3.7024 H   0  0  0  0  0  0  0  0  0  0  0  0
  1  2  1  6  0  0  0
  1  7  1  0  0  0  0
  4 40  1  0  0  0  0
  4  1  1  0  0  0  0
  5  3  1  0  0  0  0
  5 16  1  0  0  0  0
  5  7  1  0  0  0  0
  6  3  1  0  0  0  0
  8  6  1  0  0  0  0
  8  1  2  0  0  0  0
  9  8  1  0  0  0  0
 10  9  1  0  0  0  0
 10 12  2  0  0  0  0
 11 10  1  0  0  0  0
 12 14  1  0  0  0  0
 13 12  1  0  0  0  0
 14 15  1  0  0  0  0
 14  6  2  0  0  0  0
 16 25  1  0  0  0  0
 17 16  2  0  0  0  0
 17 19  1  0  0  0  0
 18 17  1  0  0  0  0
 19 21  2  0  0  0  0
 20 19  1  0  0  0  0
 21 22  1  0  0  0  0
 21 23  1  0  0  0  0
 23 24  1  0  0  0  0
 25 26  1  0  0  0  0
 25 23  2  0  0  0  0
 27  5  1  0  0  0  0
 28 27  1  0  0  0  0
 28 29  1  0  0  0  0
 30 28  2  0  0  0  0
 31 30  1  0  0  0  0
 32 34  2  0  0  0  0
 32 30  1  0  0  0  0
 33 32  1  0  0  0  0
 34 36  1  0  0  0  0
 35 34  1  0  0  0  0
 36 37  1  0  0  0  0
 36 27  2  0  0  0  0
 38  9  2  0  0  0  0
 38  4  1  0  0  0  0
 39 38  1  0  0  0  0
 40 41  1  0  0  0  0
 41 43  2  0  0  0  0
 41 42  1  0  0  0  0
 43 44  1  0  0  0  0
 45 46  1  0  0  0  0
 45 43  1  0  0  0  0
 47 45  2  0  0  0  0
 48 47  1  0  0  0  0
 49 47  1  0  0  0  0
 49 40  2  0  0  0  0
 50 49  1  0  0  0  0
M  END
$$$$
