CSD_code = IKEPAQ | q = 0 | S = 0 | Stoichiometry = C12H14Cl2N2Pd | MND = 4
 OpenBabel04212202053D

 31 32  0  0  0  0  0  0  0  0999 V2000
   -0.0001    0.0001   -0.0001 Pd  0  0  0  0  0  0  0  0  0  0  0  0
   -2.0373   -1.0556   -0.1876 Cl  0  0  0  0  0  0  0  0  0  0  0  0
   -1.0051    1.4893    1.0046 N   0  0  0  0  0  4  0  0  0  0  0  0
   -0.9871    2.4237    0.5895 H   0  0  0  0  0  0  0  0  0  0  0  0
   -1.9571    1.0983    0.9856 H   0  0  0  0  0  0  0  0  0  0  0  0
   -0.4397    1.4801    2.3165 C   0  0  0  0  0  0  0  0  0  0  0  0
    0.0783    2.6343    2.8866 C   0  0  0  0  0  0  0  0  0  0  0  0
    0.0502    3.5667    2.3402 H   0  0  0  0  0  0  0  0  0  0  0  0
    0.6576    2.5808    4.1440 C   0  0  0  0  0  0  0  0  0  0  0  0
    1.0690    3.4790    4.5787 H   0  0  0  0  0  0  0  0  0  0  0  0
    0.7127    1.3849    4.8365 C   0  0  0  0  0  0  0  0  0  0  0  0
    1.1677    1.3474    5.8143 H   0  0  0  0  0  0  0  0  0  0  0  0
    0.1939    0.2306    4.2682 C   0  0  0  0  0  0  0  0  0  0  0  0
    0.2451   -0.7050    4.8043 H   0  0  0  0  0  0  0  0  0  0  0  0
   -0.3799    0.2699    3.0115 C   0  0  0  0  0  0  0  0  0  0  0  0
   -0.7881   -0.6334    2.5522 H   0  0  0  0  0  0  0  0  0  0  0  0
    2.0374    1.0552    0.1875 Cl  0  0  0  0  0  0  0  0  0  0  0  0
    1.0051   -1.4894   -1.0045 N   0  0  0  0  0  4  0  0  0  0  0  0
    0.9871   -2.4238   -0.5895 H   0  0  0  0  0  0  0  0  0  0  0  0
    1.9570   -1.0983   -0.9856 H   0  0  0  0  0  0  0  0  0  0  0  0
    0.4397   -1.4801   -2.3165 C   0  0  0  0  0  0  0  0  0  0  0  0
   -0.0784   -2.6343   -2.8866 C   0  0  0  0  0  0  0  0  0  0  0  0
   -0.0503   -3.5667   -2.3403 H   0  0  0  0  0  0  0  0  0  0  0  0
   -0.6577   -2.5807   -4.1440 C   0  0  0  0  0  0  0  0  0  0  0  0
   -1.0692   -3.4789   -4.5787 H   0  0  0  0  0  0  0  0  0  0  0  0
   -0.7127   -1.3848   -4.8364 C   0  0  0  0  0  0  0  0  0  0  0  0
   -1.1678   -1.3473   -5.8142 H   0  0  0  0  0  0  0  0  0  0  0  0
   -0.1939   -0.2306   -4.2682 C   0  0  0  0  0  0  0  0  0  0  0  0
   -0.2449    0.7050   -4.8043 H   0  0  0  0  0  0  0  0  0  0  0  0
    0.3800   -0.2699   -3.0115 C   0  0  0  0  0  0  0  0  0  0  0  0
    0.7883    0.6333   -2.5522 H   0  0  0  0  0  0  0  0  0  0  0  0
  1 17  1  0  0  0  0
  1  3  1  0  0  0  0
  2  1  1  0  0  0  0
  3  6  1  0  0  0  0
  4  3  1  0  0  0  0
  5  3  1  0  0  0  0
  6  7  2  0  0  0  0
  6 15  1  0  0  0  0
  7  9  1  0  0  0  0
  8  7  1  0  0  0  0
  9 10  1  0  0  0  0
  9 11  2  0  0  0  0
 11 12  1  0  0  0  0
 13 14  1  0  0  0  0
 13 11  1  0  0  0  0
 15 13  2  0  0  0  0
 16 15  1  0  0  0  0
 18 20  1  0  0  0  0
 18 19  1  0  0  0  0
 18  1  1  0  0  0  0
 21 18  1  0  0  0  0
 22 23  1  0  0  0  0
 22 21  1  0  0  0  0
 24 22  2  0  0  0  0
 25 24  1  0  0  0  0
 26 28  2  0  0  0  0
 26 24  1  0  0  0  0
 27 26  1  0  0  0  0
 28 30  1  0  0  0  0
 29 28  1  0  0  0  0
 30 31  1  0  0  0  0
 30 21  2  0  0  0  0
M  END
$$$$
