CSD_code = IKEQUM | q = 0 | S = 0 | Stoichiometry = C19H30ClIrN2O2 | MND = 6
 OpenBabel04212202053D

 55 55  0  0  1  0  0  0  0  0999 V2000
    2.9197    7.7319    6.5926 C   0  0  0  0  0  3  0  0  0  0  0  0
    2.6663    5.7853    7.7432 C   0  0  0  0  0  0  0  0  0  0  0  0
    3.7846    6.5838    8.3564 C   0  0  0  0  0  0  0  0  0  0  0  0
    1.2929    5.9195    5.7002 C   0  0  0  0  0  0  0  0  0  0  0  0
   -0.0124    5.6078    6.4383 C   0  0  0  0  0  0  0  0  0  0  0  0
   -0.4703    6.5211    6.8105 H   0  0  0  0  0  0  0  0  0  0  0  0
    0.1633    4.9363    7.2728 H   0  0  0  0  0  0  0  0  0  0  0  0
   -0.7071    5.1301    5.7532 H   0  0  0  0  0  0  0  0  0  0  0  0
    1.9386    4.6289    5.1797 C   0  0  0  0  0  0  0  0  0  0  0  0
    1.2830    4.1626    4.4499 H   0  0  0  0  0  0  0  0  0  0  0  0
    2.1109    3.9217    5.9852 H   0  0  0  0  0  0  0  0  0  0  0  0
    2.8868    4.8561    4.6972 H   0  0  0  0  0  0  0  0  0  0  0  0
    0.9914    6.8135    4.5053 C   0  0  0  0  0  0  0  0  0  0  0  0
    0.4895    7.7274    4.8103 H   0  0  0  0  0  0  0  0  0  0  0  0
    0.3278    6.2756    3.8327 H   0  0  0  0  0  0  0  0  0  0  0  0
    1.8972    7.0584    3.9596 H   0  0  0  0  0  0  0  0  0  0  0  0
    5.0740    8.5966    7.7513 C   0  0  0  0  0  0  0  0  0  0  0  0
    5.1454    9.7198    6.7262 C   0  0  0  0  0  0  0  0  0  0  0  0
    5.2217    9.3245    5.7183 H   0  0  0  0  0  0  0  0  0  0  0  0
    6.0356   10.3111    6.9259 H   0  0  0  0  0  0  0  0  0  0  0  0
    4.2842   10.3796    6.7884 H   0  0  0  0  0  0  0  0  0  0  0  0
    5.0151    9.1945    9.1602 C   0  0  0  0  0  0  0  0  0  0  0  0
    4.1386    9.8273    9.2752 H   0  0  0  0  0  0  0  0  0  0  0  0
    5.9007    9.8004    9.3298 H   0  0  0  0  0  0  0  0  0  0  0  0
    4.9866    8.4122    9.9123 H   0  0  0  0  0  0  0  0  0  0  0  0
    6.3306    7.7304    7.5910 C   0  0  0  0  0  0  0  0  0  0  0  0
    6.3806    6.9619    8.3562 H   0  0  0  0  0  0  0  0  0  0  0  0
    7.2153    8.3550    7.6747 H   0  0  0  0  0  0  0  0  0  0  0  0
    6.3337    7.2571    6.6114 H   0  0  0  0  0  0  0  0  0  0  0  0
    1.8712   11.4766    5.1275 C   0  0  0  0  0  3  0  0  0  0  0  0
    2.7624   11.7603    4.5747 H   0  0  0  0  0  0  0  0  0  0  0  0
    0.9481   10.6816    4.4936 C   0  0  0  0  0  3  0  0  0  0  0  0
    1.1383   10.3983    3.4618 H   0  0  0  0  0  0  0  0  0  0  0  0
   -0.4920   10.5286    4.9162 C   0  0  0  0  0  0  0  0  0  0  0  0
   -1.0392   11.4396    4.6523 H   0  0  0  0  0  0  0  0  0  0  0  0
   -0.9323    9.7152    4.3365 H   0  0  0  0  0  0  0  0  0  0  0  0
   -0.6660   10.2307    6.4178 C   0  0  0  0  0  0  0  0  0  0  0  0
   -0.8229   11.1577    6.9717 H   0  0  0  0  0  0  0  0  0  0  0  0
   -1.5637    9.6242    6.5504 H   0  0  0  0  0  0  0  0  0  0  0  0
    0.5148    9.4998    7.0235 C   0  0  0  0  0  3  0  0  0  0  0  0
    0.2693    8.5227    7.4317 H   0  0  0  0  0  0  0  0  0  0  0  0
    1.6031   10.1578    7.6074 C   0  0  2  0  0  0  0  0  0  0  0  0
    2.0895    9.6503    8.4382 H   0  0  0  0  0  0  0  0  0  0  0  0
    1.7687   11.6585    7.6612 C   0  0  0  0  0  0  0  0  0  0  0  0
    1.0838   12.0646    8.4135 H   0  0  0  0  0  0  0  0  0  0  0  0
    2.7817   11.8762    8.0061 H   0  0  0  0  0  0  0  0  0  0  0  0
    1.5370   12.3575    6.3088 C   0  0  0  0  0  0  0  0  0  0  0  0
    0.4984   12.6804    6.2241 H   0  0  0  0  0  0  0  0  0  0  0  0
    2.1571   13.2545    6.2680 H   0  0  0  0  0  0  0  0  0  0  0  0
    2.2518    6.5270    6.6555 N   0  0  0  0  0  0  0  0  0  0  0  0
    3.9055    7.7026    7.5572 N   0  0  0  0  0  0  0  0  0  0  0  0
    2.2388    4.7216    8.1255 O   0  0  0  0  0  0  0  0  0  0  0  0
    4.4332    6.2942    9.3341 O   0  0  0  0  0  0  0  0  0  0  0  0
    3.5390    9.0594    3.7910 Cl  0  0  0  0  0 15  0  0  0  0  0  0
    2.2386    9.3573    5.7001 Ir  0  0  0  0  0  0  0  0  0  0  0  0
  1 50  1  0  0  0  0
  1 51  1  0  0  0  0
  2 52  2  0  0  0  0
  2  3  1  0  0  0  0
  3 53  2  0  0  0  0
  4  5  1  0  0  0  0
  4 50  1  0  0  0  0
  5  6  1  0  0  0  0
  5  7  1  0  0  0  0
  8  5  1  0  0  0  0
  9  4  1  0  0  0  0
  9 11  1  0  0  0  0
 10  9  1  0  0  0  0
 12  9  1  0  0  0  0
 13 14  1  0  0  0  0
 13  4  1  0  0  0  0
 15 13  1  0  0  0  0
 16 13  1  0  0  0  0
 17 22  1  0  0  0  0
 18 21  1  0  0  0  0
 18 20  1  0  0  0  0
 18 17  1  0  0  0  0
 19 18  1  0  0  0  0
 22 23  1  0  0  0  0
 22 24  1  0  0  0  0
 22 25  1  0  0  0  0
 26 28  1  0  0  0  0
 26 17  1  0  0  0  0
 26 27  1  0  0  0  0
 29 26  1  0  0  0  0
 30 47  1  0  0  0  0
 31 30  1  0  0  0  0
 32 34  1  0  0  0  0
 32 30  1  0  0  0  0
 33 32  1  0  0  0  0
 34 37  1  0  0  0  0
 35 34  1  0  0  0  0
 36 34  1  0  0  0  0
 37 39  1  0  0  0  0
 37 38  1  0  0  0  0
 37 40  1  0  0  0  0
 40 41  1  0  0  0  0
 40 42  1  0  0  0  0
 42 44  1  0  0  0  0
 42 43  1  1  0  0  0
 44 46  1  0  0  0  0
 44 45  1  0  0  0  0
 47 44  1  0  0  0  0
 48 47  1  0  0  0  0
 49 47  1  0  0  0  0
 50  2  1  0  0  0  0
 51 17  1  0  0  0  0
 51  3  1  0  0  0  0
 55  1  1  0  0  0  0
 55 42  1  0  0  0  0
M  END
$$$$
