CSD_code = IKIDOX | q = 0 | S = 0 | Stoichiometry = C22H40ClIrO2P2 | MND = 5
 OpenBabel04212202053D

 68 70  0  0  0  0  0  0  0  0999 V2000
    3.2336    2.1167    3.6818 Ir  0  0  0  0  0  0  0  0  0  0  0  0
    2.1086    2.6053    4.5720 H   0  0  0  0  0  0  0  0  0  0  0  0
    4.0198    4.2674    3.3161 P   0  0  0  0  0  4  0  0  0  0  0  0
    2.1943    0.0778    3.3050 P   0  0  0  0  0  4  0  0  0  0  0  0
    4.8074    1.4254    5.3032 Cl  0  0  0  0  0  0  0  0  0  0  0  0
    5.8047    4.3541    2.7135 C   0  0  0  0  0  0  0  0  0  0  0  0
    5.9591    3.0468    1.9292 C   0  0  0  0  0  0  0  0  0  0  0  0
    5.2306    2.9858    1.1183 H   0  0  0  0  0  0  0  0  0  0  0  0
    5.8307    2.1963    2.5988 H   0  0  0  0  0  0  0  0  0  0  0  0
    6.9554    2.9739    1.4932 H   0  0  0  0  0  0  0  0  0  0  0  0
    6.7515    4.3304    3.9078 C   0  0  0  0  0  0  0  0  0  0  0  0
    7.7684    4.1263    3.5732 H   0  0  0  0  0  0  0  0  0  0  0  0
    6.4589    3.5476    4.6066 H   0  0  0  0  0  0  0  0  0  0  0  0
    6.7563    5.2839    4.4310 H   0  0  0  0  0  0  0  0  0  0  0  0
    6.0910    5.5288    1.7826 C   0  0  0  0  0  0  0  0  0  0  0  0
    7.0405    5.3614    1.2742 H   0  0  0  0  0  0  0  0  0  0  0  0
    6.1642    6.4671    2.3227 H   0  0  0  0  0  0  0  0  0  0  0  0
    5.3132    5.6204    1.0274 H   0  0  0  0  0  0  0  0  0  0  0  0
    3.5628    5.6898    4.4591 C   0  0  0  0  0  0  0  0  0  0  0  0
    4.0083    5.3137    5.8693 C   0  0  0  0  0  0  0  0  0  0  0  0
    5.0904    5.3228    5.9637 H   0  0  0  0  0  0  0  0  0  0  0  0
    3.6545    4.3138    6.1169 H   0  0  0  0  0  0  0  0  0  0  0  0
    3.5976    6.0164    6.5926 H   0  0  0  0  0  0  0  0  0  0  0  0
    4.1421    7.0334    4.0301 C   0  0  0  0  0  0  0  0  0  0  0  0
    3.9331    7.2197    2.9788 H   0  0  0  0  0  0  0  0  0  0  0  0
    5.2150    7.0777    4.1986 H   0  0  0  0  0  0  0  0  0  0  0  0
    3.6818    7.8292    4.6151 H   0  0  0  0  0  0  0  0  0  0  0  0
    2.0351    5.7660    4.4155 C   0  0  0  0  0  0  0  0  0  0  0  0
    1.6770    6.4754    5.1593 H   0  0  0  0  0  0  0  0  0  0  0  0
    1.5992    4.7902    4.6280 H   0  0  0  0  0  0  0  0  0  0  0  0
    1.6918    6.0906    3.4360 H   0  0  0  0  0  0  0  0  0  0  0  0
    3.2367    4.7249    1.9585 O   0  0  0  0  0  0  0  0  0  0  0  0
    2.2299    2.5587    2.0029 C   0  0  0  0  0  0  0  0  0  0  0  0
    2.4184    3.7792    1.3611 C   0  0  0  0  0  0  0  0  0  0  0  0
    1.8346    4.0514    0.1340 C   0  0  0  0  0  0  0  0  0  0  0  0
    1.9964    5.0077   -0.3384 H   0  0  0  0  0  0  0  0  0  0  0  0
    1.0532    3.0781   -0.4682 C   0  0  0  0  0  0  0  0  0  0  0  0
    0.5907    3.2822   -1.4212 H   0  0  0  0  0  0  0  0  0  0  0  0
    0.8729    1.8397    0.1271 C   0  0  0  0  0  0  0  0  0  0  0  0
    0.2848    1.0718   -0.3507 H   0  0  0  0  0  0  0  0  0  0  0  0
    1.4672    1.5919    1.3542 C   0  0  0  0  0  0  0  0  0  0  0  0
    1.3322    0.3452    1.9445 O   0  0  0  0  0  0  0  0  0  0  0  0
    3.3460   -1.2891    2.7032 C   0  0  0  0  0  0  0  0  0  0  0  0
    4.4186   -0.5118    1.9330 C   0  0  0  0  0  0  0  0  0  0  0  0
    4.9554    0.1496    2.6131 H   0  0  0  0  0  0  0  0  0  0  0  0
    3.9761    0.0754    1.1258 H   0  0  0  0  0  0  0  0  0  0  0  0
    5.1474   -1.1926    1.4935 H   0  0  0  0  0  0  0  0  0  0  0  0
    2.6837   -2.2895    1.7603 C   0  0  0  0  0  0  0  0  0  0  0  0
    3.4544   -2.8754    1.2593 H   0  0  0  0  0  0  0  0  0  0  0  0
    2.1007   -1.7744    0.9997 H   0  0  0  0  0  0  0  0  0  0  0  0
    2.0338   -2.9786    2.2896 H   0  0  0  0  0  0  0  0  0  0  0  0
    3.9955   -1.9775    3.8980 C   0  0  0  0  0  0  0  0  0  0  0  0
    3.2941   -2.6319    4.4105 H   0  0  0  0  0  0  0  0  0  0  0  0
    4.3664   -1.2366    4.6052 H   0  0  0  0  0  0  0  0  0  0  0  0
    4.8381   -2.5836    3.5658 H   0  0  0  0  0  0  0  0  0  0  0  0
    0.8355   -0.5578    4.4402 C   0  0  0  0  0  0  0  0  0  0  0  0
    0.2422   -1.8917    4.0004 C   0  0  0  0  0  0  0  0  0  0  0  0
   -0.6571   -2.0967    4.5806 H   0  0  0  0  0  0  0  0  0  0  0  0
    0.9364   -2.7116    4.1661 H   0  0  0  0  0  0  0  0  0  0  0  0
   -0.0324   -1.8575    2.9483 H   0  0  0  0  0  0  0  0  0  0  0  0
    1.4086   -0.6386    5.8522 C   0  0  0  0  0  0  0  0  0  0  0  0
    1.9054    0.2967    6.1060 H   0  0  0  0  0  0  0  0  0  0  0  0
    2.1328   -1.4428    5.9456 H   0  0  0  0  0  0  0  0  0  0  0  0
    0.6105   -0.8143    6.5717 H   0  0  0  0  0  0  0  0  0  0  0  0
   -0.2566    0.5134    4.3994 C   0  0  0  0  0  0  0  0  0  0  0  0
   -0.7224    0.5539    3.4175 H   0  0  0  0  0  0  0  0  0  0  0  0
    0.1635    1.4938    4.6226 H   0  0  0  0  0  0  0  0  0  0  0  0
   -1.0250    0.2891    5.1370 H   0  0  0  0  0  0  0  0  0  0  0  0
  1  2  1  0  0  0  0
  1  5  1  0  0  0  0
  3  1  1  0  0  0  0
  3 19  1  0  0  0  0
  4  1  1  0  0  0  0
  4 56  1  0  0  0  0
  6  3  1  0  0  0  0
  6 11  1  0  0  0  0
  7  9  1  0  0  0  0
  7  6  1  0  0  0  0
  8  7  1  0  0  0  0
 10  7  1  0  0  0  0
 11 14  1  0  0  0  0
 11 13  1  0  0  0  0
 12 11  1  0  0  0  0
 15 17  1  0  0  0  0
 15  6  1  0  0  0  0
 16 15  1  0  0  0  0
 18 15  1  0  0  0  0
 19 20  1  0  0  0  0
 20 21  1  0  0  0  0
 20 22  1  0  0  0  0
 20 23  1  0  0  0  0
 24 26  1  0  0  0  0
 24 19  1  0  0  0  0
 24 27  1  0  0  0  0
 25 24  1  0  0  0  0
 28 19  1  0  0  0  0
 28 30  1  0  0  0  0
 28 29  1  0  0  0  0
 31 28  1  0  0  0  0
 32  3  1  0  0  0  0
 33  1  1  0  0  0  0
 34 32  1  0  0  0  0
 34 33  1  0  0  0  0
 35 34  2  0  0  0  0
 36 35  1  0  0  0  0
 37 39  2  0  0  0  0
 37 35  1  0  0  0  0
 38 37  1  0  0  0  0
 39 41  1  0  0  0  0
 40 39  1  0  0  0  0
 41 42  1  0  0  0  0
 41 33  2  0  0  0  0
 42  4  1  0  0  0  0
 43  4  1  0  0  0  0
 43 52  1  0  0  0  0
 44 45  1  0  0  0  0
 44 43  1  0  0  0  0
 46 44  1  0  0  0  0
 47 44  1  0  0  0  0
 48 51  1  0  0  0  0
 48 43  1  0  0  0  0
 49 48  1  0  0  0  0
 50 48  1  0  0  0  0
 52 53  1  0  0  0  0
 52 54  1  0  0  0  0
 55 52  1  0  0  0  0
 56 61  1  0  0  0  0
 57 59  1  0  0  0  0
 57 56  1  0  0  0  0
 57 58  1  0  0  0  0
 60 57  1  0  0  0  0
 61 63  1  0  0  0  0
 61 62  1  0  0  0  0
 61 64  1  0  0  0  0
 65 56  1  0  0  0  0
 65 67  1  0  0  0  0
 65 68  1  0  0  0  0
 66 65  1  0  0  0  0
M  END
$$$$
