CSD_code = IKIMIA | q = 0 | S = 0 | Stoichiometry = C15H30Cl2N4Pt | MND = 4
 OpenBabel04212202053D

 52 53  0  0  1  0  0  0  0  0999 V2000
    4.7081    6.7297    2.2682 Pt  0  0  0  0  0  0  0  0  0  0  0  0
    3.0995    7.8102    3.0564 N   0  0  2  0  0  0  0  0  0  0  0  0
    2.9836    7.9203    5.3985 N   0  0  0  0  0  0  0  0  0  0  0  0
    4.0464    9.5866    4.4354 N   0  0  0  0  0  0  0  0  0  0  0  0
    3.5480    6.8067    0.5011 N   0  0  0  0  0  4  0  0  0  0  0  0
    6.3428    5.5462    1.2158 Cl  0  0  0  0  0  0  0  0  0  0  0  0
    5.9244    6.7741    4.1758 Cl  0  0  0  0  0  0  0  0  0  0  0  0
    2.4834    8.5019    1.9372 C   0  0  0  0  0  0  0  0  0  0  0  0
    3.0622    9.3433    1.5276 H   0  0  0  0  0  0  0  0  0  0  0  0
    1.5070    8.9017    2.2505 H   0  0  0  0  0  0  0  0  0  0  0  0
    2.2706    7.4449    0.8533 C   0  0  0  0  0  0  0  0  0  0  0  0
    1.6107    6.6788    1.2665 H   0  0  0  0  0  0  0  0  0  0  0  0
    1.7957    7.8812   -0.0359 H   0  0  0  0  0  0  0  0  0  0  0  0
    3.3742    8.4246    4.2028 C   0  0  1  0  0  3  0  0  0  0  0  0
    3.4218    8.7649    6.3973 C   0  0  0  0  0  0  0  0  0  0  0  0
    4.0637    9.8052    5.8028 C   0  0  0  0  0  0  0  0  0  0  0  0
    2.2835    6.6491    5.4851 C   0  0  0  0  0  0  0  0  0  0  0  0
    2.0810    6.4037    4.4350 H   0  0  0  0  0  0  0  0  0  0  0  0
    3.1733    5.5510    6.0599 C   0  0  0  0  0  0  0  0  0  0  0  0
    4.1407    5.5744    5.5634 H   0  0  0  0  0  0  0  0  0  0  0  0
    2.7118    4.5835    5.8831 H   0  0  0  0  0  0  0  0  0  0  0  0
    3.3248    5.6673    7.1292 H   0  0  0  0  0  0  0  0  0  0  0  0
    0.9583    6.7830    6.2309 C   0  0  0  0  0  0  0  0  0  0  0  0
    1.1103    6.8814    7.3015 H   0  0  0  0  0  0  0  0  0  0  0  0
    0.3602    5.8926    6.0560 H   0  0  0  0  0  0  0  0  0  0  0  0
    0.4027    7.6469    5.8722 H   0  0  0  0  0  0  0  0  0  0  0  0
    3.1957    8.5534    7.8520 C   0  0  0  0  0  0  0  0  0  0  0  0
    3.8692    9.1907    8.4175 H   0  0  0  0  0  0  0  0  0  0  0  0
    3.3962    7.5228    8.1274 H   0  0  0  0  0  0  0  0  0  0  0  0
    2.1709    8.7985    8.1327 H   0  0  0  0  0  0  0  0  0  0  0  0
    4.6366   11.0098    6.4644 C   0  0  0  0  0  0  0  0  0  0  0  0
    4.0634   11.2389    7.3599 H   0  0  0  0  0  0  0  0  0  0  0  0
    4.5947   11.8724    5.8068 H   0  0  0  0  0  0  0  0  0  0  0  0
    5.6723   10.8406    6.7576 H   0  0  0  0  0  0  0  0  0  0  0  0
    4.9108   10.1778    3.4222 C   0  0  0  0  0  0  0  0  0  0  0  0
    4.9368    9.4305    2.6127 H   0  0  0  0  0  0  0  0  0  0  0  0
    4.3496   11.4973    2.8948 C   0  0  0  0  0  0  0  0  0  0  0  0
    3.2998   11.3966    2.6266 H   0  0  0  0  0  0  0  0  0  0  0  0
    4.9079   11.8057    2.0146 H   0  0  0  0  0  0  0  0  0  0  0  0
    4.4360   12.2826    3.6416 H   0  0  0  0  0  0  0  0  0  0  0  0
    6.3514   10.3139    3.9063 C   0  0  0  0  0  0  0  0  0  0  0  0
    6.4813   11.1417    4.5950 H   0  0  0  0  0  0  0  0  0  0  0  0
    6.9932   10.4822    3.0454 H   0  0  0  0  0  0  0  0  0  0  0  0
    6.6589    9.3853    4.3817 H   0  0  0  0  0  0  0  0  0  0  0  0
    3.3162    5.4770   -0.0594 C   0  0  0  0  0  0  0  0  0  0  0  0
    2.7033    5.5355   -0.9672 H   0  0  0  0  0  0  0  0  0  0  0  0
    2.8130    4.8498    0.6759 H   0  0  0  0  0  0  0  0  0  0  0  0
    4.2776    5.0236   -0.2977 H   0  0  0  0  0  0  0  0  0  0  0  0
    4.2783    7.6127   -0.4764 C   0  0  0  0  0  0  0  0  0  0  0  0
    5.2459    7.1480   -0.6650 H   0  0  0  0  0  0  0  0  0  0  0  0
    4.4439    8.6193   -0.0925 H   0  0  0  0  0  0  0  0  0  0  0  0
    3.7192    7.6823   -1.4185 H   0  0  0  0  0  0  0  0  0  0  0  0
  1  2  1  0  0  0  0
  1  7  1  0  0  0  0
  2  8  1  6  0  0  0
  2 14  1  0  0  0  0
  3 17  1  0  0  0  0
  3 15  1  0  0  0  0
  4 16  1  0  0  0  0
  5 11  1  0  0  0  0
  5  1  1  0  0  0  0
  6  1  1  0  0  0  0
  8 10  1  0  0  0  0
  9  8  1  0  0  0  0
 11 12  1  0  0  0  0
 11  8  1  0  0  0  0
 13 11  1  0  0  0  0
 14  4  1  1  0  0  0
 14  3  1  0  0  0  0
 15 27  1  0  0  0  0
 16 15  2  0  0  0  0
 16 31  1  0  0  0  0
 17 19  1  0  0  0  0
 17 23  1  0  0  0  0
 18 17  1  0  0  0  0
 19 22  1  0  0  0  0
 20 19  1  0  0  0  0
 21 19  1  0  0  0  0
 23 24  1  0  0  0  0
 25 23  1  0  0  0  0
 26 23  1  0  0  0  0
 27 29  1  0  0  0  0
 27 30  1  0  0  0  0
 27 28  1  0  0  0  0
 31 34  1  0  0  0  0
 31 32  1  0  0  0  0
 33 31  1  0  0  0  0
 35 41  1  0  0  0  0
 35  4  1  0  0  0  0
 36 35  1  0  0  0  0
 37 35  1  0  0  0  0
 37 40  1  0  0  0  0
 38 37  1  0  0  0  0
 39 37  1  0  0  0  0
 41 44  1  0  0  0  0
 41 42  1  0  0  0  0
 43 41  1  0  0  0  0
 45  5  1  0  0  0  0
 45 47  1  0  0  0  0
 46 45  1  0  0  0  0
 48 45  1  0  0  0  0
 49 51  1  0  0  0  0
 49  5  1  0  0  0  0
 50 49  1  0  0  0  0
 52 49  1  0  0  0  0
M  END
$$$$
