CSD_code = IKIXAD | q = 0 | S = 0 | Stoichiometry = C18H19ClIN3Pt | MND = 6
 OpenBabel04212202053D

 43 46  0  0  1  0  0  0  0  0999 V2000
    1.2213    6.9844   10.4751 Pt  0  0  0  0  0  0  0  0  0  0  0  0
    2.7085    4.7237   10.7380 I   0  0  0  0  0  0  0  0  0  0  0  0
    2.6338   10.9837    5.5434 Cl  0  0  0  0  0  0  0  0  0  0  0  0
    3.1253    8.0288   11.0548 N   0  0  0  0  0  0  0  0  0  0  0  0
    2.2112    7.5997    8.4738 N   0  0  0  0  0  0  0  0  0  0  0  0
   -0.1698    6.4865    6.1191 N   0  0  0  0  0  0  0  0  0  0  0  0
   -0.4952    6.0804    9.7815 C   0  0  0  0  0  0  0  0  0  0  0  0
   -0.2917    5.0242    9.5918 H   0  0  0  0  0  0  0  0  0  0  0  0
   -0.7931    6.5569    8.8448 H   0  0  0  0  0  0  0  0  0  0  0  0
   -1.3378    6.1443   10.4706 H   0  0  0  0  0  0  0  0  0  0  0  0
    0.4215    6.7192   12.3534 C   0  0  0  0  0  0  0  0  0  0  0  0
   -0.4712    7.3159   12.5364 H   0  0  0  0  0  0  0  0  0  0  0  0
    1.1890    7.0145   13.0737 H   0  0  0  0  0  0  0  0  0  0  0  0
    0.1793    5.6673   12.5123 H   0  0  0  0  0  0  0  0  0  0  0  0
    0.2055    8.7811   10.3479 C   0  0  0  0  0  0  0  0  0  0  0  0
   -0.8319    8.7420   10.6733 H   0  0  0  0  0  0  0  0  0  0  0  0
    0.2103    9.1392    9.3159 H   0  0  0  0  0  0  0  0  0  0  0  0
    0.7266    9.5161   10.9674 H   0  0  0  0  0  0  0  0  0  0  0  0
    3.7681    7.9398   12.2101 C   0  0  0  0  0  3  0  0  0  0  0  0
    3.2521    7.4338   13.0147 H   0  0  0  0  0  0  0  0  0  0  0  0
    5.0431    8.4401   12.4049 C   0  0  0  0  0  0  0  0  0  0  0  0
    5.5225    8.3409   13.3652 H   0  0  0  0  0  0  0  0  0  0  0  0
    5.6860    9.0474   11.3372 C   0  0  0  0  0  0  0  0  0  0  0  0
    6.6882    9.4344   11.4414 H   0  0  0  0  0  0  0  0  0  0  0  0
    5.0235    9.1327   10.1268 C   0  0  0  0  0  0  0  0  0  0  0  0
    5.5060    9.5634    9.2640 H   0  0  0  0  0  0  0  0  0  0  0  0
    3.7329    8.6160   10.0213 C   0  0  0  0  0  0  0  0  0  0  0  0
    3.0119    8.6400    8.7378 C   0  0  1  0  0  3  0  0  0  0  0  0
    3.1887    9.6959    7.8498 C   0  0  0  0  0  0  0  0  0  0  0  0
    3.8109   10.5369    8.1072 H   0  0  0  0  0  0  0  0  0  0  0  0
    2.5009    9.6678    6.6453 C   0  0  0  0  0  0  0  0  0  0  0  0
    1.7311    8.5616    6.3364 C   0  0  0  0  0  0  0  0  0  0  0  0
    1.2015    8.4709    5.4030 H   0  0  0  0  0  0  0  0  0  0  0  0
    1.6326    7.5330    7.2727 C   0  0  0  0  0  0  0  0  0  0  0  0
    0.9040    6.3128    6.8882 C   0  0  0  0  0  0  0  0  0  0  0  0
    1.3725    5.0535    7.2543 C   0  0  0  0  0  0  0  0  0  0  0  0
    2.2774    4.9498    7.8284 H   0  0  0  0  0  0  0  0  0  0  0  0
    0.6547    3.9410    6.8473 C   0  0  0  0  0  0  0  0  0  0  0  0
    0.9855    2.9520    7.1268 H   0  0  0  0  0  0  0  0  0  0  0  0
   -0.4870    4.1237    6.0844 C   0  0  0  0  0  0  0  0  0  0  0  0
   -1.0813    3.2855    5.7563 H   0  0  0  0  0  0  0  0  0  0  0  0
   -0.8442    5.4204    5.7375 C   0  0  0  0  0  0  0  0  0  0  0  0
   -1.7144    5.6183    5.1252 H   0  0  0  0  0  0  0  0  0  0  0  0
  1  2  1  0  0  0  0
  1  4  1  0  0  0  0
  1 11  1  0  0  0  0
  3 31  1  0  0  0  0
  4 19  1  0  0  0  0
  5 28  1  0  0  0  0
  5  1  1  0  0  0  0
  6 35  1  0  0  0  0
  7 10  1  0  0  0  0
  7  1  1  0  0  0  0
  8  7  1  0  0  0  0
  9  7  1  0  0  0  0
 11 14  1  0  0  0  0
 11 12  1  0  0  0  0
 11 13  1  0  0  0  0
 15  1  1  0  0  0  0
 15 16  1  0  0  0  0
 15 18  1  0  0  0  0
 17 15  1  0  0  0  0
 19 21  1  0  0  0  0
 19 20  1  0  0  0  0
 21 22  1  0  0  0  0
 23 24  1  0  0  0  0
 23 21  2  0  0  0  0
 25 23  1  0  0  0  0
 26 25  1  0  0  0  0
 27 25  2  0  0  0  0
 27  4  1  0  0  0  0
 28 29  1  6  0  0  0
 28 27  1  0  0  0  0
 29 30  1  0  0  0  0
 31 29  2  0  0  0  0
 32 31  1  0  0  0  0
 32 34  2  0  0  0  0
 33 32  1  0  0  0  0
 34  5  1  0  0  0  0
 35 36  2  0  0  0  0
 35 34  1  0  0  0  0
 36 37  1  0  0  0  0
 38 39  1  0  0  0  0
 38 36  1  0  0  0  0
 40 38  2  0  0  0  0
 41 40  1  0  0  0  0
 42 40  1  0  0  0  0
 42  6  2  0  0  0  0
 43 42  1  0  0  0  0
M  END
$$$$
