CSD_code = IKIXOR | q = 0 | S = 0 | Stoichiometry = C18H19ClIN3Pt | MND = 6
 OpenBabel04212202053D

 43 46  0  0  1  0  0  0  0  0999 V2000
    7.7244    0.7605    2.2010 Pt  0  0  0  0  0  0  0  0  0  0  0  0
   11.2621   -4.7215    2.2679 Cl  0  0  0  0  0  0  0  0  0  0  0  0
    9.1082    3.0863    1.8912 I   0  0  0  0  0  0  0  0  0  0  0  0
    8.3445    0.3810    0.0960 N   0  0  0  0  0  0  0  0  0  0  0  0
    9.6587   -0.5222    2.3608 N   0  0  0  0  0  0  0  0  0  0  0  0
    9.9446   -0.9836    5.8449 N   0  0  0  0  0  0  0  0  0  0  0  0
    7.2517    1.0585    4.1853 C   0  0  0  0  0  0  0  0  0  0  0  0
    7.6703    2.0100    4.5202 H   0  0  0  0  0  0  0  0  0  0  0  0
    7.6924    0.2534    4.7772 H   0  0  0  0  0  0  0  0  0  0  0  0
    6.1818    1.0697    4.3951 H   0  0  0  0  0  0  0  0  0  0  0  0
    5.9132    1.6034    1.6986 C   0  0  0  0  0  0  0  0  0  0  0  0
    6.0598    2.6633    1.4848 H   0  0  0  0  0  0  0  0  0  0  0  0
    5.1464    1.5146    2.4664 H   0  0  0  0  0  0  0  0  0  0  0  0
    5.5560    1.0921    0.8002 H   0  0  0  0  0  0  0  0  0  0  0  0
    6.7428   -1.0530    2.3502 C   0  0  0  0  0  0  0  0  0  0  0  0
    5.6982   -0.9781    2.6440 H   0  0  0  0  0  0  0  0  0  0  0  0
    7.2488   -1.6884    3.0799 H   0  0  0  0  0  0  0  0  0  0  0  0
    6.7871   -1.5497    1.3770 H   0  0  0  0  0  0  0  0  0  0  0  0
    7.9674    1.0812   -0.9645 C   0  0  0  0  0  3  0  0  0  0  0  0
    7.1518    1.7764   -0.8187 H   0  0  0  0  0  0  0  0  0  0  0  0
    8.5818    0.9621   -2.1984 C   0  0  0  0  0  0  0  0  0  0  0  0
    8.2430    1.5565   -3.0312 H   0  0  0  0  0  0  0  0  0  0  0  0
    9.6461    0.0824   -2.3272 C   0  0  0  0  0  0  0  0  0  0  0  0
   10.1641   -0.0248   -3.2680 H   0  0  0  0  0  0  0  0  0  0  0  0
   10.0448   -0.6447   -1.2208 C   0  0  0  0  0  0  0  0  0  0  0  0
   10.8907   -1.3113   -1.2736 H   0  0  0  0  0  0  0  0  0  0  0  0
    9.3636   -0.4732   -0.0169 C   0  0  0  0  0  0  0  0  0  0  0  0
    9.7815   -1.1842    1.2034 C   0  0  1  0  0  3  0  0  0  0  0  0
   10.2946   -2.4746    1.1273 C   0  0  0  0  0  0  0  0  0  0  0  0
   10.3504   -2.9927    0.1844 H   0  0  0  0  0  0  0  0  0  0  0  0
   10.6841   -3.1003    2.3028 C   0  0  0  0  0  0  0  0  0  0  0  0
   10.6240   -2.3966    3.4914 C   0  0  0  0  0  0  0  0  0  0  0  0
   10.9425   -2.8211    4.4286 H   0  0  0  0  0  0  0  0  0  0  0  0
   10.1274   -1.0938    3.4718 C   0  0  0  0  0  0  0  0  0  0  0  0
   10.1754   -0.3115    4.7181 C   0  0  0  0  0  0  0  0  0  0  0  0
   10.5168    1.0387    4.7024 C   0  0  0  0  0  0  0  0  0  0  0  0
   10.7524    1.5347    3.7764 H   0  0  0  0  0  0  0  0  0  0  0  0
   10.5591    1.7201    5.9073 C   0  0  0  0  0  0  0  0  0  0  0  0
   10.8067    2.7708    5.9264 H   0  0  0  0  0  0  0  0  0  0  0  0
   10.2763    1.0314    7.0755 C   0  0  0  0  0  0  0  0  0  0  0  0
   10.2867    1.5267    8.0337 H   0  0  0  0  0  0  0  0  0  0  0  0
    9.9895   -0.3245    6.9856 C   0  0  0  0  0  0  0  0  0  0  0  0
    9.7824   -0.9143    7.8692 H   0  0  0  0  0  0  0  0  0  0  0  0
  1 15  1  0  0  0  0
  1  5  1  0  0  0  0
  1  7  1  0  0  0  0
  2 31  1  0  0  0  0
  3  1  1  0  0  0  0
  4  1  1  0  0  0  0
  5 34  1  0  0  0  0
  6 42  1  0  0  0  0
  7 10  1  0  0  0  0
  7  8  1  0  0  0  0
  7  9  1  0  0  0  0
 11  1  1  0  0  0  0
 11 13  1  0  0  0  0
 12 11  1  0  0  0  0
 14 11  1  0  0  0  0
 15 16  1  0  0  0  0
 15 17  1  0  0  0  0
 18 15  1  0  0  0  0
 19 20  1  0  0  0  0
 19  4  1  0  0  0  0
 21 19  1  0  0  0  0
 22 21  1  0  0  0  0
 23 21  2  0  0  0  0
 23 25  1  0  0  0  0
 24 23  1  0  0  0  0
 25 27  2  0  0  0  0
 26 25  1  0  0  0  0
 27  4  1  0  0  0  0
 28 27  1  6  0  0  0
 28  5  1  0  0  0  0
 29 28  1  0  0  0  0
 29 31  2  0  0  0  0
 30 29  1  0  0  0  0
 31 32  1  0  0  0  0
 32 33  1  0  0  0  0
 34 32  2  0  0  0  0
 34 35  1  0  0  0  0
 35  6  2  0  0  0  0
 36 35  1  0  0  0  0
 36 38  2  0  0  0  0
 37 36  1  0  0  0  0
 38 39  1  0  0  0  0
 38 40  1  0  0  0  0
 40 41  1  0  0  0  0
 42 40  2  0  0  0  0
 42 43  1  0  0  0  0
M  END
$$$$
