CSD_code = IKIYEI | q = 0 | S = 0 | Stoichiometry = C25H26IN3Pt | MND = 6
 OpenBabel04212202053D

 56 60  0  0  1  0  0  0  0  0999 V2000
    2.9685   13.3312   11.8533 Pt  0  0  0  0  0  0  0  0  0  0  0  0
    1.8477   15.6325   10.8942 I   0  0  0  0  0  0  0  0  0  0  0  0
    3.0009   12.5327    9.7742 N   0  0  0  0  0  0  0  0  0  0  0  0
    4.9293   14.1357   10.9313 N   0  0  0  0  0  0  0  0  0  0  0  0
    6.3279   16.0280   13.5806 N   0  0  0  0  0  0  0  0  0  0  0  0
    3.1098   14.1338   13.7460 C   0  0  0  0  0  0  0  0  0  0  0  0
    2.1332   14.3823   14.1647 H   0  0  0  0  0  0  0  0  0  0  0  0
    3.6705   15.0679   13.6447 H   0  0  0  0  0  0  0  0  0  0  0  0
    3.6288   13.4925   14.4605 H   0  0  0  0  0  0  0  0  0  0  0  0
    1.1190   12.6287   12.4241 C   0  0  0  0  0  0  0  0  0  0  0  0
    1.1635   11.8227   13.1564 H   0  0  0  0  0  0  0  0  0  0  0  0
    0.6277   12.2702   11.5150 H   0  0  0  0  0  0  0  0  0  0  0  0
    0.5118   13.4361   12.8332 H   0  0  0  0  0  0  0  0  0  0  0  0
    3.7876   11.5158   12.4136 C   0  0  0  0  0  0  0  0  0  0  0  0
    4.0269   11.4296   13.4723 H   0  0  0  0  0  0  0  0  0  0  0  0
    4.7071   11.3723   11.8395 H   0  0  0  0  0  0  0  0  0  0  0  0
    3.1146   10.6940   12.1598 H   0  0  0  0  0  0  0  0  0  0  0  0
    2.2712   11.5534    9.2615 C   0  0  0  0  0  3  0  0  0  0  0  0
    1.5618   11.0797    9.9269 H   0  0  0  0  0  0  0  0  0  0  0  0
    2.3854   11.1367    7.9473 C   0  0  0  0  0  0  0  0  0  0  0  0
    1.7594   10.3428    7.5729 H   0  0  0  0  0  0  0  0  0  0  0  0
    3.3223   11.7594    7.1369 C   0  0  0  0  0  0  0  0  0  0  0  0
    3.4522   11.4577    6.1086 H   0  0  0  0  0  0  0  0  0  0  0  0
    4.0940   12.7727    7.6730 C   0  0  0  0  0  0  0  0  0  0  0  0
    4.8499   13.2585    7.0771 H   0  0  0  0  0  0  0  0  0  0  0  0
    3.8994   13.1495    9.0015 C   0  0  0  0  0  0  0  0  0  0  0  0
    4.6992   14.2247    9.6128 C   0  0  1  0  0  3  0  0  0  0  0  0
    5.1713   15.2765    8.8391 C   0  0  0  0  0  0  0  0  0  0  0  0
    4.9019   15.3446    7.7975 H   0  0  0  0  0  0  0  0  0  0  0  0
    5.8939   16.3052    9.4407 C   0  0  0  0  0  0  0  0  0  0  0  0
    6.1859   16.1637   10.7926 C   0  0  0  0  0  0  0  0  0  0  0  0
    6.7772   16.8918   11.3233 H   0  0  0  0  0  0  0  0  0  0  0  0
    5.7086   15.0620   11.4948 C   0  0  0  0  0  0  0  0  0  0  0  0
    6.1190   14.9030   12.9006 C   0  0  0  0  0  0  0  0  0  0  0  0
    6.3440   13.6437   13.4536 C   0  0  0  0  0  0  0  0  0  0  0  0
    6.2148   12.7573   12.8560 H   0  0  0  0  0  0  0  0  0  0  0  0
    6.7503   13.5658   14.7743 C   0  0  0  0  0  0  0  0  0  0  0  0
    6.9288   12.6048   15.2351 H   0  0  0  0  0  0  0  0  0  0  0  0
    6.9250   14.7376   15.4927 C   0  0  0  0  0  0  0  0  0  0  0  0
    7.2291   14.7200   16.5275 H   0  0  0  0  0  0  0  0  0  0  0  0
    6.7099   15.9429   14.8384 C   0  0  0  0  0  0  0  0  0  0  0  0
    6.8508   16.8890   15.3450 H   0  0  0  0  0  0  0  0  0  0  0  0
    6.3342   17.4774    8.6815 C   0  0  0  0  0  0  0  0  0  0  0  0
    6.2991   18.7428    9.2617 C   0  0  0  0  0  0  0  0  0  0  0  0
    5.9207   18.8579   10.2660 H   0  0  0  0  0  0  0  0  0  0  0  0
    6.7056   19.8524    8.5463 C   0  0  0  0  0  0  0  0  0  0  0  0
    6.6597   20.8281    9.0079 H   0  0  0  0  0  0  0  0  0  0  0  0
    7.1696   19.7322    7.2426 C   0  0  0  0  0  0  0  0  0  0  0  0
    7.2095   18.4657    6.6679 C   0  0  0  0  0  0  0  0  0  0  0  0
    7.5716   18.3541    5.6556 H   0  0  0  0  0  0  0  0  0  0  0  0
    6.7924   17.3543    7.3711 C   0  0  0  0  0  0  0  0  0  0  0  0
    6.8476   16.3784    6.9100 H   0  0  0  0  0  0  0  0  0  0  0  0
    7.6242   20.9271    6.4639 C   0  0  0  0  0  0  0  0  0  0  0  0
    7.4484   21.8448    7.0189 H   0  0  0  0  0  0  0  0  0  0  0  0
    7.0951   20.9858    5.5138 H   0  0  0  0  0  0  0  0  0  0  0  0
    8.6894   20.8522    6.2459 H   0  0  0  0  0  0  0  0  0  0  0  0
  1 14  1  0  0  0  0
  1 10  1  0  0  0  0
  1  6  1  0  0  0  0
  2  1  1  0  0  0  0
  3  1  1  0  0  0  0
  4 33  1  0  0  0  0
  4  1  1  0  0  0  0
  5 41  1  0  0  0  0
  6  7  1  0  0  0  0
  6  9  1  0  0  0  0
  8  6  1  0  0  0  0
 10 13  1  0  0  0  0
 10 11  1  0  0  0  0
 12 10  1  0  0  0  0
 14 15  1  0  0  0  0
 16 14  1  0  0  0  0
 17 14  1  0  0  0  0
 18  3  1  0  0  0  0
 18 19  1  0  0  0  0
 20 18  1  0  0  0  0
 21 20  1  0  0  0  0
 22 24  1  0  0  0  0
 22 20  2  0  0  0  0
 23 22  1  0  0  0  0
 24 26  2  0  0  0  0
 25 24  1  0  0  0  0
 26 27  1  0  0  0  0
 26  3  1  0  0  0  0
 27 28  1  1  0  0  0
 27  4  1  0  0  0  0
 28 30  2  0  0  0  0
 29 28  1  0  0  0  0
 30 31  1  0  0  0  0
 31 32  1  0  0  0  0
 31 33  2  0  0  0  0
 33 34  1  0  0  0  0
 34 35  1  0  0  0  0
 34  5  2  0  0  0  0
 35 37  2  0  0  0  0
 36 35  1  0  0  0  0
 37 38  1  0  0  0  0
 37 39  1  0  0  0  0
 39 40  1  0  0  0  0
 41 42  1  0  0  0  0
 41 39  2  0  0  0  0
 43 44  1  0  0  0  0
 43 30  1  0  0  0  0
 44 45  1  0  0  0  0
 46 47  1  0  0  0  0
 46 44  2  0  0  0  0
 48 46  1  0  0  0  0
 49 48  2  0  0  0  0
 49 51  1  0  0  0  0
 50 49  1  0  0  0  0
 51 43  2  0  0  0  0
 52 51  1  0  0  0  0
 53 54  1  0  0  0  0
 53 48  1  0  0  0  0
 55 53  1  0  0  0  0
 56 53  1  0  0  0  0
M  END
$$$$
