CSD_code = IKIYEH | q = 0 | S = 0 | Stoichiometry = C20H23ClN2O3Pd | MND = 4
 OpenBabel04212202053D

 50 52  0  0  1  0  0  0  0  0999 V2000
    0.1436   10.0505    8.4012 Pd  0  0  1  0  0  0  0  0  0  0  0  0
    1.9752    9.2929    9.6448 Cl  0  0  0  0  0  0  0  0  0  0  0  0
   -0.8163    8.7684    9.3652 C   0  0  0  0  0  2  0  0  0  0  0  0
   -1.2343    7.9351   10.0657 N   0  0  0  0  0  2  0  0  0  0  0  0
   -1.4775   11.1331    7.6267 C   0  0  0  0  0  0  0  0  0  0  0  0
   -1.3580   11.1492    6.5414 H   0  0  0  0  0  0  0  0  0  0  0  0
   -2.5025   10.9307    7.9347 H   0  0  0  0  0  0  0  0  0  0  0  0
   -0.8763   12.2614    8.3325 C   0  0  0  0  0  0  0  0  0  0  0  0
   -1.3162   12.8451    9.3123 O   0  0  0  0  0  0  0  0  0  0  0  0
    0.4674   12.6033    7.7154 C   0  0  1  0  0  3  0  0  0  0  0  0
    1.1386   11.4854    7.4182 N   0  0  0  0  0  0  0  0  0  0  0  0
    0.9707   13.8588    7.4125 C   0  0  0  0  0  0  0  0  0  0  0  0
    0.4216   14.7415    7.6989 H   0  0  0  0  0  0  0  0  0  0  0  0
    2.1793   13.9287    6.7352 C   0  0  0  0  0  0  0  0  0  0  0  0
    2.6080   14.8864    6.4808 H   0  0  0  0  0  0  0  0  0  0  0  0
    2.8201   12.7578    6.3578 C   0  0  0  0  0  0  0  0  0  0  0  0
    3.7306   12.7750    5.7796 H   0  0  0  0  0  0  0  0  0  0  0  0
    2.2670   11.5372    6.7239 C   0  0  0  0  0  0  0  0  0  0  0  0
    2.8854   10.2082    6.2958 C   0  0  0  0  0  0  0  0  0  0  0  0
    2.2891   10.4949    3.9965 C   0  0  0  0  0  0  0  0  0  0  0  0
    1.4502    9.8099    4.1457 H   0  0  0  0  0  0  0  0  0  0  0  0
    2.7424   10.3161    3.0239 H   0  0  0  0  0  0  0  0  0  0  0  0
    1.9219   11.5262    4.0459 H   0  0  0  0  0  0  0  0  0  0  0  0
    3.3106   10.2637    4.9465 O   0  0  0  0  0  0  0  0  0  0  0  0
    4.1412    9.9381    7.1296 C   0  0  0  0  0  0  0  0  0  0  0  0
    3.8511    9.7169    8.1552 H   0  0  0  0  0  0  0  0  0  0  0  0
    4.7782   10.8170    7.1079 H   0  0  0  0  0  0  0  0  0  0  0  0
    4.6881    9.1012    6.7063 H   0  0  0  0  0  0  0  0  0  0  0  0
    2.2743    7.8854    6.3803 C   0  0  0  0  0  0  0  0  0  0  0  0
    2.9497    7.7280    5.5350 H   0  0  0  0  0  0  0  0  0  0  0  0
    1.3593    7.3106    6.2368 H   0  0  0  0  0  0  0  0  0  0  0  0
    2.7531    7.5802    7.3140 H   0  0  0  0  0  0  0  0  0  0  0  0
    1.8617    9.2432    6.4478 O   0  0  0  0  0  0  0  0  0  0  0  0
   -1.6561    6.9480   10.8939 C   0  0  0  0  0  0  0  0  0  0  0  0
   -2.8398    6.2669   10.5842 C   0  0  0  0  0  0  0  0  0  0  0  0
   -3.2430    5.2510   11.4349 C   0  0  0  0  0  0  0  0  0  0  0  0
   -4.1522    4.7099   11.2197 H   0  0  0  0  0  0  0  0  0  0  0  0
   -2.4921    4.9272   12.5531 C   0  0  0  0  0  0  0  0  0  0  0  0
   -2.8202    4.1317   13.2052 H   0  0  0  0  0  0  0  0  0  0  0  0
   -1.3277    5.6173   12.8433 C   0  0  0  0  0  0  0  0  0  0  0  0
   -0.7525    5.3587   13.7197 H   0  0  0  0  0  0  0  0  0  0  0  0
   -0.8835    6.6435   12.0230 C   0  0  0  0  0  0  0  0  0  0  0  0
   -3.6214    6.6511    9.3674 C   0  0  0  0  0  0  0  0  0  0  0  0
   -4.4809    5.9991    9.2397 H   0  0  0  0  0  0  0  0  0  0  0  0
   -2.9960    6.5917    8.4766 H   0  0  0  0  0  0  0  0  0  0  0  0
   -3.9714    7.6800    9.4526 H   0  0  0  0  0  0  0  0  0  0  0  0
    0.3547    7.4224   12.3164 C   0  0  0  0  0  0  0  0  0  0  0  0
    0.0988    8.4521   12.5698 H   0  0  0  0  0  0  0  0  0  0  0  0
    1.0096    7.4687   11.4458 H   0  0  0  0  0  0  0  0  0  0  0  0
    0.8991    6.9853   13.1484 H   0  0  0  0  0  0  0  0  0  0  0  0
  1  3  1  0  0  0  0
  1  2  1  1  0  0  0
  3  4  1  0  0  0  0
  4 34  1  0  0  0  0
  5  7  1  0  0  0  0
  5  8  1  0  0  0  0
  5  1  1  0  0  0  0
  6  5  1  0  0  0  0
  8  9  2  0  0  0  0
 10 12  1  6  0  0  0
 10  8  1  0  0  0  0
 11 10  1  0  0  0  0
 11  1  1  0  0  0  0
 12 13  1  0  0  0  0
 14 12  2  0  0  0  0
 15 14  1  0  0  0  0
 16 18  2  0  0  0  0
 16 14  1  0  0  0  0
 17 16  1  0  0  0  0
 18 11  1  0  0  0  0
 19 33  1  0  0  0  0
 19 18  1  0  0  0  0
 19 25  1  0  0  0  0
 20 23  1  0  0  0  0
 20 21  1  0  0  0  0
 20 24  1  0  0  0  0
 22 20  1  0  0  0  0
 24 19  1  0  0  0  0
 25 26  1  0  0  0  0
 27 25  1  0  0  0  0
 28 25  1  0  0  0  0
 29 33  1  0  0  0  0
 29 32  1  0  0  0  0
 30 29  1  0  0  0  0
 31 29  1  0  0  0  0
 34 42  1  0  0  0  0
 35 34  2  0  0  0  0
 35 36  1  0  0  0  0
 36 38  2  0  0  0  0
 37 36  1  0  0  0  0
 38 40  1  0  0  0  0
 38 39  1  0  0  0  0
 40 41  1  0  0  0  0
 42 47  1  0  0  0  0
 42 40  2  0  0  0  0
 43 46  1  0  0  0  0
 43 35  1  0  0  0  0
 44 43  1  0  0  0  0
 45 43  1  0  0  0  0
 47 48  1  0  0  0  0
 47 50  1  0  0  0  0
 49 47  1  0  0  0  0
M  END
$$$$
