CSD_code = IKOJOI | q = 0 | S = 0 | Stoichiometry = C18H22Cl2Zr | MND = 12
 OpenBabel04212202053D

 43 44  0  0  1  0  0  0  0  0999 V2000
   -2.1943    5.4566    2.9945 Zr  0  0  0  0  0  0  0  0  0  0  0  0
   -0.5867    7.0497    2.4239 Cl  0  0  0  0  0  0  0  0  0  0  0  0
   -1.6274    5.5215    5.3449 C   0  0  1  0  0  0  0  0  0  0  0  0
   -2.6658    4.5492    5.2248 C   0  0  0  0  0  0  0  0  0  0  0  0
   -3.6433    4.6170    5.6908 H   0  0  0  0  0  0  0  0  0  0  0  0
   -2.1479    3.4348    4.5343 C   0  0  0  0  0  0  0  0  0  0  0  0
   -2.6500    2.4848    4.4015 H   0  0  0  0  0  0  0  0  0  0  0  0
   -0.8012    3.7103    4.1993 C   0  0  0  0  0  0  0  0  0  0  0  0
   -0.0968    3.0072    3.7716 H   0  0  0  0  0  0  0  0  0  0  0  0
   -0.4740    4.9867    4.7028 C   0  0  0  0  0  0  0  0  0  0  0  0
    0.5159    5.4260    4.7036 H   0  0  0  0  0  0  0  0  0  0  0  0
   -1.7877    6.8320    5.9599 C   0  0  0  0  0  0  0  0  0  0  0  0
   -2.6803    6.9499    6.5624 H   0  0  0  0  0  0  0  0  0  0  0  0
   -0.9471    7.8526    5.7884 C   0  0  0  0  0  0  0  0  0  0  0  0
   -0.0670    7.7263    5.1674 H   0  0  0  0  0  0  0  0  0  0  0  0
   -1.1037    9.2278    6.3551 C   0  0  0  0  0  0  0  0  0  0  0  0
   -1.0754    9.9335    5.5185 H   0  0  0  0  0  0  0  0  0  0  0  0
   -0.2301    9.4470    6.9790 H   0  0  0  0  0  0  0  0  0  0  0  0
   -2.3765    9.4540    7.1599 C   0  0  0  0  0  0  0  0  0  0  0  0
   -3.2519    9.2589    6.5452 H   0  0  0  0  0  0  0  0  0  0  0  0
   -2.4206   10.4853    7.5026 H   0  0  0  0  0  0  0  0  0  0  0  0
   -2.4043    8.8037    8.0313 H   0  0  0  0  0  0  0  0  0  0  0  0
   -3.8060    7.0493    3.5618 Cl  0  0  0  0  0  0  0  0  0  0  0  0
   -2.7630    5.5215    0.6445 C   0  0  1  0  0  0  0  0  0  0  0  0
   -1.7247    4.5490    0.7640 C   0  0  0  0  0  0  0  0  0  0  0  0
   -0.7474    4.6166    0.2977 H   0  0  0  0  0  0  0  0  0  0  0  0
   -2.2426    3.4347    1.4548 C   0  0  0  0  0  0  0  0  0  0  0  0
   -1.7406    2.4847    1.5874 H   0  0  0  0  0  0  0  0  0  0  0  0
   -3.5891    3.7104    1.7901 C   0  0  0  0  0  0  0  0  0  0  0  0
   -4.2937    3.0073    2.2176 H   0  0  0  0  0  0  0  0  0  0  0  0
   -3.9162    4.9872    1.2873 C   0  0  0  0  0  0  0  0  0  0  0  0
   -4.9062    5.4264    1.2862 H   0  0  0  0  0  0  0  0  0  0  0  0
   -2.6029    6.8319    0.0290 C   0  0  0  0  0  0  0  0  0  0  0  0
   -1.7110    6.9493   -0.5747 H   0  0  0  0  0  0  0  0  0  0  0  0
   -3.4430    7.8527    0.2015 C   0  0  0  0  0  0  0  0  0  0  0  0
   -4.3224    7.7266    0.8234 H   0  0  0  0  0  0  0  0  0  0  0  0
   -3.2867    9.2278   -0.3654 C   0  0  0  0  0  0  0  0  0  0  0  0
   -3.3146    9.9336    0.4711 H   0  0  0  0  0  0  0  0  0  0  0  0
   -4.1607    9.4469   -0.9888 H   0  0  0  0  0  0  0  0  0  0  0  0
   -2.0143    9.4539   -1.1710 C   0  0  0  0  0  0  0  0  0  0  0  0
   -1.1386    9.2585   -0.5569 H   0  0  0  0  0  0  0  0  0  0  0  0
   -1.9702   10.4853   -1.5134 H   0  0  0  0  0  0  0  0  0  0  0  0
   -1.9872    8.8039   -2.0426 H   0  0  0  0  0  0  0  0  0  0  0  0
  1 23  1  0  0  0  0
  1  3  1  0  0  0  0
  2  1  1  0  0  0  0
  3 12  1  1  0  0  0
  4  3  1  0  0  0  0
  4  5  1  0  0  0  0
  6  4  2  0  0  0  0
  7  6  1  0  0  0  0
  8  6  1  0  0  0  0
  8 10  2  0  0  0  0
  9  8  1  0  0  0  0
 10 11  1  0  0  0  0
 10  3  1  0  0  0  0
 12 13  1  0  0  0  0
 14 12  2  0  0  0  0
 14 16  1  0  0  0  0
 15 14  1  0  0  0  0
 16 18  1  0  0  0  0
 16 19  1  0  0  0  0
 17 16  1  0  0  0  0
 19 21  1  0  0  0  0
 19 22  1  0  0  0  0
 20 19  1  0  0  0  0
 24 33  1  6  0  0  0
 24 25  1  0  0  0  0
 24 31  1  0  0  0  0
 24  1  1  0  0  0  0
 25 27  2  0  0  0  0
 26 25  1  0  0  0  0
 27 28  1  0  0  0  0
 27 29  1  0  0  0  0
 29 30  1  0  0  0  0
 31 29  2  0  0  0  0
 32 31  1  0  0  0  0
 33 35  2  0  0  0  0
 34 33  1  0  0  0  0
 35 36  1  0  0  0  0
 37 35  1  0  0  0  0
 37 38  1  0  0  0  0
 39 37  1  0  0  0  0
 40 41  1  0  0  0  0
 40 37  1  0  0  0  0
 42 40  1  0  0  0  0
 43 40  1  0  0  0  0
M  END
$$$$
