CSD_code = IKOKAV | q = 0 | S = 0 | Stoichiometry = C16H18Cl2Zr | MND = 12
 OpenBabel04212202053D

 37 40  0  0  1  0  0  0  0  0999 V2000
    2.0897   15.4734    9.3560 Zr  0  0  0  0  0  0  0  0  0  0  0  0
    3.4114   16.7122   10.8255 Cl  0  0  0  0  0  0  0  0  0  0  0  0
    0.3135   16.9771    9.4735 Cl  0  0  0  0  0  0  0  0  0  0  0  0
    3.4254   14.4926    7.5240 C   0  0  0  0  0  0  0  0  0  0  0  0
    2.1668   14.8207    6.9514 C   0  0  0  0  0  0  0  0  0  0  0  0
    1.5089   14.1304    6.4370 H   0  0  0  0  0  0  0  0  0  0  0  0
    2.0235   16.2268    6.9617 C   0  0  0  0  0  0  0  0  0  0  0  0
    1.2182   16.7861    6.5008 H   0  0  0  0  0  0  0  0  0  0  0  0
    3.1754   16.7778    7.5623 C   0  0  0  0  0  0  0  0  0  0  0  0
    3.4077   17.8338    7.6484 H   0  0  0  0  0  0  0  0  0  0  0  0
    4.0402   15.7101    7.9155 C   0  0  1  0  0  0  0  0  0  0  0  0
    5.0430   15.8402    8.3051 H   0  0  0  0  0  0  0  0  0  0  0  0
    3.9437   13.0972    7.7190 C   0  0  1  0  0  0  0  0  0  0  0  0
    3.6487   12.4672    6.8751 H   0  0  0  0  0  0  0  0  0  0  0  0
    5.4350   13.0008    8.1142 C   0  0  2  0  0  0  0  0  0  0  0  0
    6.0351   13.8767    7.8657 H   0  0  0  0  0  0  0  0  0  0  0  0
    6.1199   11.7678    7.5466 C   0  0  0  0  0  0  0  0  0  0  0  0
    5.5384   10.8692    7.7356 H   0  0  0  0  0  0  0  0  0  0  0  0
    7.1063   11.6423    7.9860 H   0  0  0  0  0  0  0  0  0  0  0  0
    6.2372   11.8775    6.4705 H   0  0  0  0  0  0  0  0  0  0  0  0
    2.4157   13.1263    9.8319 C   0  0  1  0  0  0  0  0  0  0  0  0
    2.4282   13.7836   11.0890 C   0  0  0  0  0  3  0  0  0  0  0  0
    3.2512   13.8062   11.7937 H   0  0  0  0  0  0  0  0  0  0  0  0
    1.1268   14.2826   11.3386 C   0  0  0  0  0  0  0  0  0  0  0  0
    0.7990   14.7651   12.2523 H   0  0  0  0  0  0  0  0  0  0  0  0
    0.3045   13.9292   10.2476 C   0  0  0  0  0  0  0  0  0  0  0  0
   -0.7653   14.0867   10.1838 H   0  0  0  0  0  0  0  0  0  0  0  0
    1.0944   13.2210    9.3134 C   0  0  0  0  0  3  0  0  0  0  0  0
    0.7206   12.6992    8.4408 H   0  0  0  0  0  0  0  0  0  0  0  0
    3.5845   12.5118    9.1285 C   0  0  2  0  0  0  0  0  0  0  0  0
    3.4799   11.4238    9.0728 H   0  0  0  0  0  0  0  0  0  0  0  0
    5.0016   12.9051    9.5974 C   0  0  1  0  0  0  0  0  0  0  0  0
    4.9791   13.9124   10.0378 H   0  0  0  0  0  0  0  0  0  0  0  0
    5.7282   11.9572   10.5324 C   0  0  0  0  0  0  0  0  0  0  0  0
    5.2318   11.9382   11.5000 H   0  0  0  0  0  0  0  0  0  0  0  0
    6.7551   12.2832   10.6804 H   0  0  0  0  0  0  0  0  0  0  0  0
    5.7403   10.9449   10.1377 H   0  0  0  0  0  0  0  0  0  0  0  0
  1  3  1  0  0  0  0
  1 21  1  0  0  0  0
  1  2  1  0  0  0  0
  4 13  1  0  0  0  0
  4 11  1  0  0  0  0
  5  7  1  0  0  0  0
  5  4  2  0  0  0  0
  6  5  1  0  0  0  0
  7  9  2  0  0  0  0
  8  7  1  0  0  0  0
  9 10  1  0  0  0  0
  9 11  1  0  0  0  0
 11 12  1  1  0  0  0
 11  1  1  0  0  0  0
 13 14  1  6  0  0  0
 13 15  1  0  0  0  0
 13 30  1  0  0  0  0
 15 16  1  6  0  0  0
 15 32  1  0  0  0  0
 17 18  1  0  0  0  0
 17 19  1  0  0  0  0
 17 15  1  0  0  0  0
 20 17  1  0  0  0  0
 21 28  1  6  0  0  0
 21 22  1  0  0  0  0
 22 24  1  0  0  0  0
 22 23  1  0  0  0  0
 24 25  1  0  0  0  0
 26 24  2  0  0  0  0
 27 26  1  0  0  0  0
 28 26  1  0  0  0  0
 29 28  1  0  0  0  0
 30 31  1  6  0  0  0
 30 32  1  0  0  0  0
 30 21  1  0  0  0  0
 32 33  1  1  0  0  0
 32 34  1  0  0  0  0
 34 36  1  0  0  0  0
 34 35  1  0  0  0  0
 37 34  1  0  0  0  0
M  END
$$$$
