CSD_code = IKONIF | q = 1 | S = 0 | Stoichiometry = C9H18ClN2NiO3S(1+) | MND = 6
 OpenBabel04212202053D

 35 36  0  0  1  0  0  0  0  0999 V2000
    1.9641    7.0018    2.0142 Ni  0  0  0  0  0  0  0  0  0  0  0  0
    3.5802    6.5308    0.8623 Cl  0  0  0  0  0  0  0  0  0  0  0  0
    0.6533    5.0454    1.3809 S   0  0  1  0  0  3  0  0  0  0  0  0
    2.7669    8.5530    2.3750 O   0  0  0  0  0  0  0  0  0  0  0  0
    2.7699    9.1899    1.6472 H   0  0  0  0  0  0  0  0  0  0  0  0
    1.1257    7.7613    0.6301 O   0  0  0  0  0  0  0  0  0  0  0  0
    1.6256    7.9414   -0.1750 H   0  0  0  0  0  0  0  0  0  0  0  0
    0.1682    7.4982    3.1428 O   0  0  0  0  0  0  0  0  0  0  0  0
   -0.2863    8.1426    2.5757 H   0  0  0  0  0  0  0  0  0  0  0  0
    2.6726    6.0894    3.6407 N   0  0  1  0  0  0  0  0  0  0  0  0
    3.0460    4.7830    3.7170 N   0  0  0  0  0  0  0  0  0  0  0  0
    3.0079    6.6603    4.8055 C   0  0  1  0  0  3  0  0  0  0  0  0
    2.7681    8.0761    5.1579 C   0  0  0  0  0  0  0  0  0  0  0  0
    1.8087    8.4158    4.7775 H   0  0  0  0  0  0  0  0  0  0  0  0
    3.5342    8.7013    4.7029 H   0  0  0  0  0  0  0  0  0  0  0  0
    2.8084    8.1965    6.2365 H   0  0  0  0  0  0  0  0  0  0  0  0
    3.5940    5.6980    5.6310 C   0  0  0  0  0  0  0  0  0  0  0  0
    3.9644    5.8552    6.6221 H   0  0  0  0  0  0  0  0  0  0  0  0
    3.6057    4.5184    4.9170 C   0  0  0  0  0  0  0  0  0  0  0  0
    4.1138    3.1855    5.3165 C   0  0  0  0  0  0  0  0  0  0  0  0
    3.3209    2.4380    5.3176 H   0  0  0  0  0  0  0  0  0  0  0  0
    4.5230    3.2487    6.3204 H   0  0  0  0  0  0  0  0  0  0  0  0
    4.9046    2.8523    4.6457 H   0  0  0  0  0  0  0  0  0  0  0  0
    2.7594    3.8223    2.6825 C   0  0  0  0  0  0  0  0  0  0  0  0
    3.1732    2.8645    3.0011 H   0  0  0  0  0  0  0  0  0  0  0  0
    3.2520    4.1164    1.7484 H   0  0  0  0  0  0  0  0  0  0  0  0
    1.2559    3.6767    2.4490 C   0  0  0  0  0  0  0  0  0  0  0  0
   -0.9158    5.5396    2.1759 C   0  0  0  0  0  0  0  0  0  0  0  0
   -1.4342    6.1067    1.4008 H   0  0  0  0  0  0  0  0  0  0  0  0
   -1.4859    4.6419    2.4074 H   0  0  0  0  0  0  0  0  0  0  0  0
   -0.6877    6.4033    3.4115 C   0  0  0  0  0  0  0  0  0  0  0  0
   -1.6518    6.7630    3.7900 H   0  0  0  0  0  0  0  0  0  0  0  0
   -0.1982    5.8311    4.2062 H   0  0  0  0  0  0  0  0  0  0  0  0
    0.7045    3.6829    3.3882 H   0  0  0  0  0  0  0  0  0  0  0  0
    1.0507    2.7518    1.9114 H   0  0  0  0  0  0  0  0  0  0  0  0
  1  4  1  0  0  0  0
  1 10  1  0  0  0  0
  2  1  1  0  0  0  0
  3  1  1  0  0  0  0
  3 28  1  1  0  0  0
  3 27  1  0  0  0  0
  5  4  1  0  0  0  0
  6  1  1  0  0  0  0
  7  6  1  0  0  0  0
  8 31  1  0  0  0  0
  9  8  1  0  0  0  0
 10 11  1  6  0  0  0
 10 12  1  0  0  0  0
 11 19  1  0  0  0  0
 12 13  1  1  0  0  0
 12 17  1  0  0  0  0
 13 16  1  0  0  0  0
 14 13  1  0  0  0  0
 15 13  1  0  0  0  0
 17 18  1  0  0  0  0
 19 20  1  0  0  0  0
 19 17  2  0  0  0  0
 20 21  1  0  0  0  0
 20 22  1  0  0  0  0
 23 20  1  0  0  0  0
 24 25  1  0  0  0  0
 24 11  1  0  0  0  0
 26 24  1  0  0  0  0
 27 24  1  0  0  0  0
 27 34  1  0  0  0  0
 28 30  1  0  0  0  0
 28 31  1  0  0  0  0
 29 28  1  0  0  0  0
 31 32  1  0  0  0  0
 31 33  1  0  0  0  0
 35 27  1  0  0  0  0
M  END
$$$$
