CSD_code = IKOWOV | q = 0 | S = 0 | Stoichiometry = C25H31ClO5Ti | MND = 12
 OpenBabel04212202053D

 63 65  0  0  1  0  0  0  0  0999 V2000
    4.9559    7.5746    4.8124 C   0  0  0  0  0  0  0  0  0  0  0  0
    6.2716    7.8268    4.3405 C   0  0  0  0  0  3  0  0  0  0  0  0
    6.9513    8.5834    4.7105 H   0  0  0  0  0  0  0  0  0  0  0  0
    6.6335    6.7800    3.4625 C   0  0  0  0  0  0  0  0  0  0  0  0
    7.6275    6.6043    3.0756 H   0  0  0  0  0  0  0  0  0  0  0  0
    5.5247    5.9337    3.3068 C   0  0  0  0  0  0  0  0  0  0  0  0
    5.5036    4.9935    2.7695 H   0  0  0  0  0  0  0  0  0  0  0  0
    4.4987    6.4124    4.1554 C   0  0  0  0  0  0  0  0  0  0  0  0
    3.5622    5.9020    4.3349 H   0  0  0  0  0  0  0  0  0  0  0  0
    4.1577    8.3659    5.8262 C   0  0  0  0  0  0  0  0  0  0  0  0
    3.7381    7.4144    6.9659 C   0  0  0  0  0  0  0  0  0  0  0  0
    3.0637    6.6507    6.5756 H   0  0  0  0  0  0  0  0  0  0  0  0
    4.6369    6.9093    7.3298 H   0  0  0  0  0  0  0  0  0  0  0  0
    3.0684    8.1356    8.1333 C   0  0  0  0  0  0  0  0  0  0  0  0
    2.1195    8.5680    7.8152 H   0  0  0  0  0  0  0  0  0  0  0  0
    2.8532    7.4093    8.9204 H   0  0  0  0  0  0  0  0  0  0  0  0
    3.9653    9.2413    8.6766 C   0  0  0  0  0  0  0  0  0  0  0  0
    4.8850    8.8029    9.0734 H   0  0  0  0  0  0  0  0  0  0  0  0
    3.4610    9.7602    9.4933 H   0  0  0  0  0  0  0  0  0  0  0  0
    4.3071   10.2275    7.5656 C   0  0  0  0  0  0  0  0  0  0  0  0
    3.3985   10.7133    7.2116 H   0  0  0  0  0  0  0  0  0  0  0  0
    4.9704   11.0047    7.9519 H   0  0  0  0  0  0  0  0  0  0  0  0
    5.0063    9.5053    6.4166 C   0  0  0  0  0  0  0  0  0  0  0  0
    5.9368    9.0756    6.7986 H   0  0  0  0  0  0  0  0  0  0  0  0
    5.2574   10.2228    5.6290 H   0  0  0  0  0  0  0  0  0  0  0  0
    2.9002    8.9281    5.1162 C   0  0  0  0  0  0  0  0  0  0  0  0
    2.3693    8.1015    4.6289 H   0  0  0  0  0  0  0  0  0  0  0  0
    2.2375    9.4076    5.8294 H   0  0  0  0  0  0  0  0  0  0  0  0
    3.2852    9.9125    4.0409 C   0  0  0  0  0  0  0  0  0  0  0  0
    2.7116   11.1590    3.9112 C   0  0  0  0  0  0  0  0  0  0  0  0
    1.6580   11.6676    4.8035 C   0  0  0  0  0  0  0  0  0  0  0  0
   -0.2099   13.0836    4.9521 C   0  0  0  0  0  0  0  0  0  0  0  0
    0.2147   13.4519    5.8927 H   0  0  0  0  0  0  0  0  0  0  0  0
   -0.9466   12.3078    5.1927 H   0  0  0  0  0  0  0  0  0  0  0  0
   -0.8363   14.2067    4.1470 C   0  0  0  0  0  0  0  0  0  0  0  0
   -1.2317   13.8184    3.2122 H   0  0  0  0  0  0  0  0  0  0  0  0
   -0.0893   14.9634    3.9231 H   0  0  0  0  0  0  0  0  0  0  0  0
   -1.6439   14.6596    4.7149 H   0  0  0  0  0  0  0  0  0  0  0  0
    3.1415   11.9883    2.7689 C   0  0  0  0  0  0  0  0  0  0  0  0
    3.2949   14.1781    1.9178 C   0  0  0  0  0  0  0  0  0  0  0  0
    4.2177   13.8359    1.4360 H   0  0  0  0  0  0  0  0  0  0  0  0
    3.4595   15.1504    2.3876 H   0  0  0  0  0  0  0  0  0  0  0  0
    2.1643   14.2423    0.9005 C   0  0  0  0  0  0  0  0  0  0  0  0
    1.2381   14.5318    1.3904 H   0  0  0  0  0  0  0  0  0  0  0  0
    2.0278   13.2667    0.4408 H   0  0  0  0  0  0  0  0  0  0  0  0
    2.4053   14.9675    0.1283 H   0  0  0  0  0  0  0  0  0  0  0  0
    5.8649    9.6262    1.0320 C   0  0  0  0  0  0  0  0  0  0  0  0
    5.9730   10.6766    1.2635 H   0  0  0  0  0  0  0  0  0  0  0  0
    6.8291    8.6180    1.2343 C   0  0  0  0  0  0  0  0  0  0  0  0
    7.8315    8.7776    1.6106 H   0  0  0  0  0  0  0  0  0  0  0  0
    6.3393    7.4222    0.6606 C   0  0  0  0  0  0  0  0  0  0  0  0
    6.8917    6.4988    0.5446 H   0  0  0  0  0  0  0  0  0  0  0  0
    5.0613    7.6775    0.1492 C   0  0  0  0  0  0  0  0  0  0  0  0
    4.4545    6.9873   -0.4241 H   0  0  0  0  0  0  0  0  0  0  0  0
    4.7617    9.0460    0.3778 C   0  0  1  0  0  0  0  0  0  0  0  0
    3.8889    9.5799    0.0280 H   0  0  0  0  0  0  0  0  0  0  0  0
    2.7867    7.3256    2.0084 Cl  0  0  0  0  0  0  0  0  0  0  0  0
    4.2000    9.5241    3.2124 O   0  0  0  0  0  0  0  0  0  0  0  0
    1.5137   11.3694    5.9707 O   0  0  0  0  0  0  0  0  0  0  0  0
    0.8314   12.5015    4.1711 O   0  0  0  0  0  0  0  0  0  0  0  0
    3.6388   11.5499    1.7552 O   0  0  0  0  0  0  0  0  0  0  0  0
    2.9759   13.2990    2.9926 O   0  0  0  0  0  0  0  0  0  0  0  0
    4.8577    8.0824    2.4835 Ti  0  0  0  0  0  0  0  0  0  0  0  0
  1 10  1  0  0  0  0
  2  3  1  0  0  0  0
  2  1  1  0  0  0  0
  4  2  1  0  0  0  0
  5  4  1  0  0  0  0
  6  4  2  0  0  0  0
  6  8  1  0  0  0  0
  7  6  1  0  0  0  0
  8  9  1  0  0  0  0
  8  1  2  0  0  0  0
 10 23  1  0  0  0  0
 10 11  1  0  0  0  0
 11 13  1  0  0  0  0
 11 14  1  0  0  0  0
 12 11  1  0  0  0  0
 14 17  1  0  0  0  0
 14 16  1  0  0  0  0
 15 14  1  0  0  0  0
 17 18  1  0  0  0  0
 17 19  1  0  0  0  0
 20 22  1  0  0  0  0
 20 17  1  0  0  0  0
 21 20  1  0  0  0  0
 23 24  1  0  0  0  0
 23 20  1  0  0  0  0
 25 23  1  0  0  0  0
 26 10  1  0  0  0  0
 26 28  1  0  0  0  0
 27 26  1  0  0  0  0
 29 26  1  0  0  0  0
 30 29  2  0  0  0  0
 30 31  1  0  0  0  0
 31 59  2  0  0  0  0
 32 34  1  0  0  0  0
 32 33  1  0  0  0  0
 35 38  1  0  0  0  0
 35 32  1  0  0  0  0
 36 35  1  0  0  0  0
 37 35  1  0  0  0  0
 39 62  1  0  0  0  0
 39 30  1  0  0  0  0
 40 42  1  0  0  0  0
 40 62  1  0  0  0  0
 41 40  1  0  0  0  0
 43 44  1  0  0  0  0
 43 40  1  0  0  0  0
 45 43  1  0  0  0  0
 46 43  1  0  0  0  0
 47 49  2  0  0  0  0
 47 48  1  0  0  0  0
 49 50  1  0  0  0  0
 51 49  1  0  0  0  0
 52 51  1  0  0  0  0
 53 55  1  0  0  0  0
 53 51  2  0  0  0  0
 54 53  1  0  0  0  0
 55 56  1  6  0  0  0
 55 47  1  0  0  0  0
 55 63  1  0  0  0  0
 57 63  1  0  0  0  0
 58 29  1  0  0  0  0
 60 31  1  0  0  0  0
 60 32  1  0  0  0  0
 61 39  2  0  0  0  0
 63 58  1  0  0  0  0
M  END
$$$$
