CSD_code = IKUSOX | q = 0 | S = 0 | Stoichiometry = C30H25ClF4PRh | MND = 7
 OpenBabel04212202053D

 62 64  0  0  1  0  0  0  0  0999 V2000
    2.3573    7.6731    3.9418 Rh  0  0  0  0  0  0  0  0  0  0  0  0
    3.7618    7.0253    2.2571 Cl  0  0  0  0  0 15  0  0  0  0  0  0
    2.5452    9.7194    2.9627 P   0  0  0  0  0  0  0  0  0  0  0  0
    4.4171    9.3244    4.8603 F   0  0  0  0  0  0  0  0  0  0  0  0
    6.7760    8.6366    5.9158 F   0  0  0  0  0  0  0  0  0  0  0  0
    9.0490    8.6808    4.4166 F   0  0  0  0  0  0  0  0  0  0  0  0
    8.9195    9.4327    1.7934 F   0  0  0  0  0  0  0  0  0  0  0  0
    4.1331    9.9613    2.0700 C   0  0  0  0  0  0  0  0  0  0  0  0
    4.1282   10.2979    0.7358 C   0  0  0  0  0  0  0  0  0  0  0  0
    3.1902   10.4890    0.2373 H   0  0  0  0  0  0  0  0  0  0  0  0
    5.3096   10.3702   -0.0112 C   0  0  0  0  0  0  0  0  0  0  0  0
    5.2566   10.6384   -1.0554 H   0  0  0  0  0  0  0  0  0  0  0  0
    6.5127   10.0773    0.5650 C   0  0  0  0  0  0  0  0  0  0  0  0
    7.4280   10.0997   -0.0054 H   0  0  0  0  0  0  0  0  0  0  0  0
    6.5707    9.7178    1.9269 C   0  0  0  0  0  0  0  0  0  0  0  0
    7.8015    9.3803    2.5336 C   0  0  0  0  0  0  0  0  0  0  0  0
    7.8811    9.0057    3.8506 C   0  0  0  0  0  0  0  0  0  0  0  0
    6.7068    8.9815    4.6236 C   0  0  0  0  0  0  0  0  0  0  0  0
    5.5023    9.3228    4.0602 C   0  0  0  0  0  0  0  0  0  0  0  0
    5.3777    9.6779    2.7005 C   0  0  0  0  0  0  0  0  0  0  0  0
    1.2898    9.9302    1.6589 C   0  0  0  0  0  0  0  0  0  0  0  0
    0.6370    8.7794    1.2287 C   0  0  0  0  0  0  0  0  0  0  0  0
    0.9199    7.8228    1.6635 H   0  0  0  0  0  0  0  0  0  0  0  0
   -0.3476    8.8562    0.2604 C   0  0  0  0  0  0  0  0  0  0  0  0
   -0.8487    7.9600   -0.0744 H   0  0  0  0  0  0  0  0  0  0  0  0
   -0.6923   10.0858   -0.2766 C   0  0  0  0  0  0  0  0  0  0  0  0
   -1.4633   10.1498   -1.0301 H   0  0  0  0  0  0  0  0  0  0  0  0
   -0.0518   11.2372    0.1550 C   0  0  0  0  0  0  0  0  0  0  0  0
   -0.3246   12.1956   -0.2624 H   0  0  0  0  0  0  0  0  0  0  0  0
    0.9363   11.1646    1.1198 C   0  0  0  0  0  0  0  0  0  0  0  0
    1.4333   12.0637    1.4585 H   0  0  0  0  0  0  0  0  0  0  0  0
    2.3882   11.3185    3.8385 C   0  0  0  0  0  0  0  0  0  0  0  0
    1.1357   11.6607    4.3424 C   0  0  0  0  0  0  0  0  0  0  0  0
    0.2955   11.0035    4.1647 H   0  0  0  0  0  0  0  0  0  0  0  0
    0.9566   12.8347    5.0478 C   0  0  0  0  0  0  0  0  0  0  0  0
   -0.0207   13.0894    5.4307 H   0  0  0  0  0  0  0  0  0  0  0  0
    2.0311   13.6829    5.2643 C   0  0  0  0  0  0  0  0  0  0  0  0
    1.8945   14.6000    5.8176 H   0  0  0  0  0  0  0  0  0  0  0  0
    3.2793   13.3515    4.7665 C   0  0  0  0  0  0  0  0  0  0  0  0
    4.1188   14.0117    4.9284 H   0  0  0  0  0  0  0  0  0  0  0  0
    3.4601   12.1757    4.0584 C   0  0  0  0  0  0  0  0  0  0  0  0
    4.4394   11.9350    3.6695 H   0  0  0  0  0  0  0  0  0  0  0  0
    1.8844    5.6041    4.4345 C   0  0  0  0  0  3  0  0  0  0  0  0
    2.0388    5.0328    3.5196 H   0  0  0  0  0  0  0  0  0  0  0  0
    3.0074    6.0004    5.1343 C   0  0  0  0  0  3  0  0  0  0  0  0
    3.9806    5.7025    4.7425 H   0  0  0  0  0  0  0  0  0  0  0  0
    3.0365    6.4264    6.5822 C   0  0  0  0  0  0  0  0  0  0  0  0
    3.9959    6.9148    6.7690 H   0  0  0  0  0  0  0  0  0  0  0  0
    2.9958    5.5360    7.2191 H   0  0  0  0  0  0  0  0  0  0  0  0
    1.9046    7.4013    6.9588 C   0  0  0  0  0  0  0  0  0  0  0  0
    1.0234    6.8550    7.2983 H   0  0  0  0  0  0  0  0  0  0  0  0
    2.2428    8.0195    7.7922 H   0  0  0  0  0  0  0  0  0  0  0  0
    1.5190    8.3014    5.8051 C   0  0  0  0  0  3  0  0  0  0  0  0
    1.7595    9.3528    5.9558 H   0  0  0  0  0  0  0  0  0  0  0  0
    0.4995    7.9997    4.9047 C   0  0  2  0  0  0  0  0  0  0  0  0
   -0.0254    8.8332    4.4353 H   0  0  0  0  0  0  0  0  0  0  0  0
   -0.3280    6.7340    4.9230 C   0  0  0  0  0  0  0  0  0  0  0  0
   -0.8906    6.6888    3.9866 H   0  0  0  0  0  0  0  0  0  0  0  0
   -1.0600    6.7932    5.7364 H   0  0  0  0  0  0  0  0  0  0  0  0
    0.5158    5.4535    5.0603 C   0  0  0  0  0  0  0  0  0  0  0  0
    0.6321    5.1818    6.1102 H   0  0  0  0  0  0  0  0  0  0  0  0
   -0.0102    4.6317    4.5703 H   0  0  0  0  0  0  0  0  0  0  0  0
  1 55  1  0  0  0  0
  3 32  1  0  0  0  0
  7 16  1  0  0  0  0
  8 20  1  0  0  0  0
  8  3  1  0  0  0  0
  9  8  2  0  0  0  0
 10  9  1  0  0  0  0
 11 13  2  0  0  0  0
 11  9  1  0  0  0  0
 12 11  1  0  0  0  0
 13 15  1  0  0  0  0
 14 13  1  0  0  0  0
 15 16  2  0  0  0  0
 15 20  1  0  0  0  0
 16 17  1  0  0  0  0
 17  6  1  0  0  0  0
 17 18  2  0  0  0  0
 18  5  1  0  0  0  0
 19 18  1  0  0  0  0
 19  4  1  0  0  0  0
 20 19  2  0  0  0  0
 21  3  1  0  0  0  0
 22 21  1  0  0  0  0
 22 23  1  0  0  0  0
 24 22  2  0  0  0  0
 25 24  1  0  0  0  0
 26 28  2  0  0  0  0
 26 24  1  0  0  0  0
 27 26  1  0  0  0  0
 28 30  1  0  0  0  0
 29 28  1  0  0  0  0
 30 31  1  0  0  0  0
 30 21  2  0  0  0  0
 32 41  2  0  0  0  0
 32 33  1  0  0  0  0
 33 35  2  0  0  0  0
 34 33  1  0  0  0  0
 35 37  1  0  0  0  0
 35 36  1  0  0  0  0
 37 38  1  0  0  0  0
 39 40  1  0  0  0  0
 39 37  2  0  0  0  0
 41 39  1  0  0  0  0
 42 41  1  0  0  0  0
 43 60  1  0  0  0  0
 43 45  1  0  0  0  0
 44 43  1  0  0  0  0
 45 47  1  0  0  0  0
 46 45  1  0  0  0  0
 47 48  1  0  0  0  0
 47 50  1  0  0  0  0
 47 49  1  0  0  0  0
 50 51  1  0  0  0  0
 50 52  1  0  0  0  0
 53 54  1  0  0  0  0
 53 50  1  0  0  0  0
 55 56  1  6  0  0  0
 55 57  1  0  0  0  0
 55 53  1  0  0  0  0
 57 60  1  0  0  0  0
 57 59  1  0  0  0  0
 58 57  1  0  0  0  0
 60 61  1  0  0  0  0
 62 60  1  0  0  0  0
M  END
$$$$
