CSD_code = IKUSUD | q = 0 | S = 0 | Stoichiometry = C22H13AuClF4P | MND = 2
 OpenBabel04212202053D

 42 45  0  0  0  0  0  0  0  0999 V2000
   10.9026    2.7087    1.6564 Au  0  0  0  0  0  0  0  0  0  0  0  0
   12.5735    3.9361    2.5584 Cl  0  0  0  0  0  0  0  0  0  0  0  0
    9.1652    1.5128    0.8698 P   0  0  0  0  0  4  0  0  0  0  0  0
   10.8303    1.5483   -1.2136 F   0  0  0  0  0  0  0  0  0  0  0  0
   11.7884    2.0070   -3.6947 F   0  0  0  0  0  0  0  0  0  0  0  0
   10.2706    3.2850   -5.5497 F   0  0  0  0  0  0  0  0  0  0  0  0
    7.7559    4.1232   -4.8976 F   0  0  0  0  0  0  0  0  0  0  0  0
    8.1990    2.3201   -0.4508 C   0  0  0  0  0  0  0  0  0  0  0  0
    6.9377    2.7996   -0.1644 C   0  0  0  0  0  0  0  0  0  0  0  0
    6.5178    2.6384    0.8175 H   0  0  0  0  0  0  0  0  0  0  0  0
    6.1786    3.4863   -1.1177 C   0  0  0  0  0  0  0  0  0  0  0  0
    5.1936    3.8378   -0.8530 H   0  0  0  0  0  0  0  0  0  0  0  0
    6.6757    3.7049   -2.3723 C   0  0  0  0  0  0  0  0  0  0  0  0
    6.0980    4.2252   -3.1200 H   0  0  0  0  0  0  0  0  0  0  0  0
    7.9696    3.2561   -2.7060 C   0  0  0  0  0  0  0  0  0  0  0  0
    8.5088    3.4851   -3.9928 C   0  0  0  0  0  0  0  0  0  0  0  0
    9.7724    3.0704   -4.3313 C   0  0  0  0  0  0  0  0  0  0  0  0
   10.5586    2.4058   -3.3700 C   0  0  0  0  0  0  0  0  0  0  0  0
   10.0533    2.1718   -2.1143 C   0  0  0  0  0  0  0  0  0  0  0  0
    8.7541    2.5702   -1.7379 C   0  0  0  0  0  0  0  0  0  0  0  0
    7.9297    1.2629    2.1809 C   0  0  0  0  0  0  0  0  0  0  0  0
    7.9597    2.1150    3.2805 C   0  0  0  0  0  0  0  0  0  0  0  0
    8.7068    2.8981    3.3229 H   0  0  0  0  0  0  0  0  0  0  0  0
    7.0489    1.9541    4.3088 C   0  0  0  0  0  0  0  0  0  0  0  0
    7.0767    2.6181    5.1592 H   0  0  0  0  0  0  0  0  0  0  0  0
    6.1103    0.9370    4.2482 C   0  0  0  0  0  0  0  0  0  0  0  0
    5.4029    0.8069    5.0532 H   0  0  0  0  0  0  0  0  0  0  0  0
    6.0820    0.0808    3.1586 C   0  0  0  0  0  0  0  0  0  0  0  0
    5.3538   -0.7154    3.1153 H   0  0  0  0  0  0  0  0  0  0  0  0
    6.9872    0.2386    2.1257 C   0  0  0  0  0  0  0  0  0  0  0  0
    6.9670   -0.4320    1.2781 H   0  0  0  0  0  0  0  0  0  0  0  0
    9.4179   -0.1898    0.2944 C   0  0  0  0  0  0  0  0  0  0  0  0
    8.6923   -0.7592   -0.7463 C   0  0  0  0  0  0  0  0  0  0  0  0
    7.9400   -0.1812   -1.2677 H   0  0  0  0  0  0  0  0  0  0  0  0
    8.9421   -2.0697   -1.1127 C   0  0  0  0  0  0  0  0  0  0  0  0
    8.3818   -2.5147   -1.9218 H   0  0  0  0  0  0  0  0  0  0  0  0
    9.9080   -2.8083   -0.4485 C   0  0  0  0  0  0  0  0  0  0  0  0
   10.1004   -3.8288   -0.7433 H   0  0  0  0  0  0  0  0  0  0  0  0
   10.6322   -2.2389    0.5869 C   0  0  0  0  0  0  0  0  0  0  0  0
   11.3898   -2.8128    1.0985 H   0  0  0  0  0  0  0  0  0  0  0  0
   10.3911   -0.9291    0.9572 C   0  0  0  0  0  0  0  0  0  0  0  0
   10.9582   -0.4621    1.7522 H   0  0  0  0  0  0  0  0  0  0  0  0
  1  2  1  0  0  0  0
  3  1  1  0  0  0  0
  3 21  1  0  0  0  0
  5 18  1  0  0  0  0
  6 17  1  0  0  0  0
  7 16  1  0  0  0  0
  8  9  1  0  0  0  0
  8  3  1  0  0  0  0
  9 10  1  0  0  0  0
 11 12  1  0  0  0  0
 11  9  2  0  0  0  0
 13 11  1  0  0  0  0
 14 13  1  0  0  0  0
 15 13  2  0  0  0  0
 15 20  1  0  0  0  0
 16 15  1  0  0  0  0
 17 16  2  0  0  0  0
 17 18  1  0  0  0  0
 18 19  2  0  0  0  0
 19 20  1  0  0  0  0
 19  4  1  0  0  0  0
 20  8  2  0  0  0  0
 21 22  1  0  0  0  0
 22 23  1  0  0  0  0
 22 24  2  0  0  0  0
 24 25  1  0  0  0  0
 26 24  1  0  0  0  0
 26 27  1  0  0  0  0
 28 26  2  0  0  0  0
 29 28  1  0  0  0  0
 30 21  2  0  0  0  0
 30 28  1  0  0  0  0
 31 30  1  0  0  0  0
 32  3  1  0  0  0  0
 32 41  1  0  0  0  0
 33 32  2  0  0  0  0
 34 33  1  0  0  0  0
 35 33  1  0  0  0  0
 35 37  2  0  0  0  0
 36 35  1  0  0  0  0
 37 39  1  0  0  0  0
 38 37  1  0  0  0  0
 39 41  2  0  0  0  0
 39 40  1  0  0  0  0
 41 42  1  0  0  0  0
M  END
$$$$
