CSD_code = IKUTIS | q = 0 | S = 0 | Stoichiometry = C30H28ClN2OPPd | MND = 4
 OpenBabel04212202053D

 64 70  0  0  1  0  0  0  0  0999 V2000
    5.7178    6.1984    8.0435 Cl  0  0  0  0  0  0  0  0  0  0  0  0
    8.2892    8.0943    5.8456 C   0  0  0  0  0  0  0  0  0  0  0  0
    7.6698    9.0326    6.6669 C   0  0  0  0  0  0  0  0  0  0  0  0
    7.4589    8.7806    7.7172 H   0  0  0  0  0  0  0  0  0  0  0  0
    7.3042   10.2635    6.1523 C   0  0  0  0  0  0  0  0  0  0  0  0
    6.8158   10.9905    6.7844 H   0  0  0  0  0  0  0  0  0  0  0  0
    7.5589   10.5593    4.8222 C   0  0  0  0  0  0  0  0  0  0  0  0
    7.2683   11.5183    4.4192 H   0  0  0  0  0  0  0  0  0  0  0  0
    8.1806    9.6279    4.0059 C   0  0  0  0  0  0  0  0  0  0  0  0
    8.3758    9.8632    2.9700 H   0  0  0  0  0  0  0  0  0  0  0  0
    8.5464    8.3941    4.5138 C   0  0  0  0  0  0  0  0  0  0  0  0
    9.0275    7.6600    3.8822 H   0  0  0  0  0  0  0  0  0  0  0  0
    8.7141    5.3386    5.2343 C   0  0  0  0  0  0  0  0  0  0  0  0
    7.4476    4.8905    4.8693 C   0  0  0  0  0  0  0  0  0  0  0  0
    6.5864    5.2290    5.4310 H   0  0  0  0  0  0  0  0  0  0  0  0
    7.3124    4.0137    3.8095 C   0  0  0  0  0  0  0  0  0  0  0  0
    6.3330    3.6626    3.5206 H   0  0  0  0  0  0  0  0  0  0  0  0
    8.4363    3.5816    3.1211 C   0  0  0  0  0  0  0  0  0  0  0  0
    8.3301    2.8960    2.2932 H   0  0  0  0  0  0  0  0  0  0  0  0
    9.6968    4.0201    3.4943 C   0  0  0  0  0  0  0  0  0  0  0  0
   10.5694    3.6763    2.9577 H   0  0  0  0  0  0  0  0  0  0  0  0
    9.8420    4.8984    4.5541 C   0  0  0  0  0  0  0  0  0  0  0  0
   10.8185    5.2456    4.8578 H   0  0  0  0  0  0  0  0  0  0  0  0
    9.7806    6.9057    9.0915 C   0  0  0  0  0  0  0  0  0  0  0  0
   10.7586    7.0250    8.1110 C   0  0  0  0  0  0  0  0  0  0  0  0
   12.0380    7.4332    8.4421 C   0  0  0  0  0  0  0  0  0  0  0  0
   12.7938    7.5322    7.6780 H   0  0  0  0  0  0  0  0  0  0  0  0
   12.3252    7.7331    9.7714 C   0  0  0  0  0  0  0  0  0  0  0  0
   13.3176    8.0720   10.0273 H   0  0  0  0  0  0  0  0  0  0  0  0
   11.3736    7.6070   10.7668 C   0  0  0  0  0  0  0  0  0  0  0  0
   11.6227    7.8512   11.7888 H   0  0  0  0  0  0  0  0  0  0  0  0
   10.0935    7.1698   10.4250 C   0  0  0  0  0  0  0  0  0  0  0  0
    8.9395    6.9159   11.2840 C   0  0  0  0  0  0  0  0  0  0  0  0
    7.5397    6.4575   13.0329 C   0  0  0  0  0  0  0  0  0  0  0  0
    7.1910    7.2655   13.6832 H   0  0  0  0  0  0  0  0  0  0  0  0
    7.4659    5.5142   13.5783 H   0  0  0  0  0  0  0  0  0  0  0  0
    6.7696    6.4463   11.6911 C   0  0  2  0  0  0  0  0  0  0  0  0
    5.9468    7.1705   11.7100 H   0  0  0  0  0  0  0  0  0  0  0  0
    6.1865    5.0794   11.2573 C   0  0  0  0  0  0  0  0  0  0  0  0
    5.5927    5.2785   10.3570 H   0  0  0  0  0  0  0  0  0  0  0  0
    7.2876    4.0858   10.8731 C   0  0  0  0  0  0  0  0  0  0  0  0
    7.7910    4.4050    9.9371 H   0  0  0  0  0  0  0  0  0  0  0  0
    6.8467    3.1088   10.6891 H   0  0  0  0  0  0  0  0  0  0  0  0
    8.0333    3.9841   11.6622 H   0  0  0  0  0  0  0  0  0  0  0  0
    5.2588    4.5044   12.3229 C   0  0  0  0  0  0  0  0  0  0  0  0
    4.5336    5.2498   12.6410 H   0  0  0  0  0  0  0  0  0  0  0  0
    5.8098    4.1616   13.1969 H   0  0  0  0  0  0  0  0  0  0  0  0
    4.7167    3.6551   11.9152 H   0  0  0  0  0  0  0  0  0  0  0  0
    9.9858    6.3264   13.4530 C   0  0  0  0  0  0  0  0  0  0  0  0
   11.0287    5.5312   12.9817 C   0  0  0  0  0  0  0  0  0  0  0  0
   11.0217    5.1913   11.9571 H   0  0  0  0  0  0  0  0  0  0  0  0
   12.0636    5.1777   13.8263 C   0  0  0  0  0  0  0  0  0  0  0  0
   12.8697    4.5653   13.4508 H   0  0  0  0  0  0  0  0  0  0  0  0
   12.0621    5.5896   15.1490 C   0  0  0  0  0  0  0  0  0  0  0  0
   12.8715    5.3090   15.8055 H   0  0  0  0  0  0  0  0  0  0  0  0
   11.0116    6.3543   15.6276 C   0  0  0  0  0  0  0  0  0  0  0  0
   10.9983    6.6707   16.6599 H   0  0  0  0  0  0  0  0  0  0  0  0
    9.9759    6.7211   14.7887 C   0  0  0  0  0  0  0  0  0  0  0  0
    9.1620    7.3229   15.1635 H   0  0  0  0  0  0  0  0  0  0  0  0
    7.7633    6.8757   10.7259 N   0  0  0  0  0  0  0  0  0  0  0  0
    8.9198    6.6869   12.6225 N   0  0  0  0  0  0  0  0  0  0  0  0
   10.3995    6.7157    6.8044 O   0  0  0  0  0  0  0  0  0  0  0  0
    8.7827    6.5076    6.6078 P   0  0  0  0  0  4  0  0  0  0  0  0
    7.9159    6.5224    8.6446 Pd  0  0  2  0  0  0  0  0  0  0  0  0
  2 63  1  0  0  0  0
  2  3  1  0  0  0  0
  3  4  1  0  0  0  0
  5  3  2  0  0  0  0
  5  6  1  0  0  0  0
  7  5  1  0  0  0  0
  8  7  1  0  0  0  0
  9 11  1  0  0  0  0
  9  7  2  0  0  0  0
 10  9  1  0  0  0  0
 11  2  2  0  0  0  0
 12 11  1  0  0  0  0
 13 63  1  0  0  0  0
 14 13  1  0  0  0  0
 14 15  1  0  0  0  0
 16 14  2  0  0  0  0
 17 16  1  0  0  0  0
 18 20  2  0  0  0  0
 18 16  1  0  0  0  0
 19 18  1  0  0  0  0
 20 22  1  0  0  0  0
 21 20  1  0  0  0  0
 22 23  1  0  0  0  0
 22 13  2  0  0  0  0
 24 32  1  0  0  0  0
 25 26  2  0  0  0  0
 25 24  1  0  0  0  0
 26 28  1  0  0  0  0
 27 26  1  0  0  0  0
 28 29  1  0  0  0  0
 28 30  2  0  0  0  0
 30 31  1  0  0  0  0
 32 30  1  0  0  0  0
 32 33  2  0  0  0  0
 33 61  1  0  0  0  0
 34 36  1  0  0  0  0
 34 35  1  0  0  0  0
 37 38  1  1  0  0  0
 37 34  1  0  0  0  0
 39 37  1  0  0  0  0
 39 45  1  0  0  0  0
 40 39  1  0  0  0  0
 41 39  1  0  0  0  0
 41 44  1  0  0  0  0
 42 41  1  0  0  0  0
 43 41  1  0  0  0  0
 45 46  1  0  0  0  0
 45 47  1  0  0  0  0
 48 45  1  0  0  0  0
 49 58  1  0  0  0  0
 50 49  2  0  0  0  0
 50 52  1  0  0  0  0
 51 50  1  0  0  0  0
 52 54  2  0  0  0  0
 53 52  1  0  0  0  0
 54 56  1  0  0  0  0
 54 55  1  0  0  0  0
 56 57  1  0  0  0  0
 58 59  1  0  0  0  0
 58 56  2  0  0  0  0
 60 33  1  0  0  0  0
 60 37  1  0  0  0  0
 61 34  1  0  0  0  0
 61 49  1  0  0  0  0
 62 25  1  0  0  0  0
 63 62  1  0  0  0  0
 63 64  1  0  0  0  0
 64  1  1  1  0  0  0
 64 24  2  0  0  0  0
 64 60  1  0  0  0  0
M  END
$$$$
