CSD_code = ILEFEM | q = 0 | S = 0 | Stoichiometry = C24H19ClN3O3Re | MND = 6
 OpenBabel04212202053D

 51 54  0  0  0  0  0  0  0  0999 V2000
    6.6549    8.8256    1.5638 Re  0  0  0  0  0  0  0  0  0  0  0  0
    7.2366    6.5033    1.6131 Cl  0  0  0  0  0  0  0  0  0  0  0  0
    9.5231    9.6815    0.8073 O   0  0  0  0  0  1  0  0  0  0  0  0
    7.3563    8.3886    4.5357 O   0  0  0  0  0  1  0  0  0  0  0  0
    5.4913   11.6858    1.4852 O   0  0  0  0  0  1  0  0  0  0  0  0
    4.6537    7.8764    1.6507 N   0  0  0  0  0  0  0  0  0  0  0  0
    6.1579    8.4188   -0.4354 N   0  0  0  0  0  0  0  0  0  0  0  0
    4.5085    9.6263    3.7837 N   0  0  0  0  0  0  0  0  0  0  0  0
    4.8415    7.0421   -1.9997 C   0  0  0  0  0  0  0  0  0  0  0  0
    3.7741    7.1576   -2.1838 H   0  0  0  0  0  0  0  0  0  0  0  0
    5.3911    7.5635   -2.7805 H   0  0  0  0  0  0  0  0  0  0  0  0
    5.0877    5.9817   -2.0546 H   0  0  0  0  0  0  0  0  0  0  0  0
    5.1947    7.5894   -0.6512 C   0  0  0  0  0  0  0  0  0  0  0  0
    4.3768    7.2271    0.5047 C   0  0  0  0  0  0  0  0  0  0  0  0
    3.3745    6.2580    0.4326 C   0  0  0  0  0  0  0  0  0  0  0  0
    3.1892    5.7306   -0.4882 H   0  0  0  0  0  0  0  0  0  0  0  0
    2.6490    5.9581    1.5681 C   0  0  0  0  0  0  0  0  0  0  0  0
    1.8843    5.1966    1.5466 H   0  0  0  0  0  0  0  0  0  0  0  0
    2.9178    6.6542    2.7340 C   0  0  0  0  0  0  0  0  0  0  0  0
    2.3512    6.4587    3.6293 H   0  0  0  0  0  0  0  0  0  0  0  0
    3.9234    7.6195    2.7380 C   0  0  0  0  0  0  0  0  0  0  0  0
    4.1587    8.4198    3.9604 C   0  0  0  0  0  0  0  0  0  0  0  0
    3.9944    7.7299    5.2849 C   0  0  0  0  0  0  0  0  0  0  0  0
    4.4146    6.7272    5.2371 H   0  0  0  0  0  0  0  0  0  0  0  0
    4.5069    8.2998    6.0574 H   0  0  0  0  0  0  0  0  0  0  0  0
    2.9428    7.6513    5.5592 H   0  0  0  0  0  0  0  0  0  0  0  0
    7.0566    8.7797   -1.4568 C   0  0  0  0  0  0  0  0  0  0  0  0
    7.1905   10.1202   -1.8122 C   0  0  0  0  0  0  0  0  0  0  0  0
    6.5675   10.8599   -1.3302 H   0  0  0  0  0  0  0  0  0  0  0  0
    8.1159   10.4855   -2.7705 C   0  0  0  0  0  0  0  0  0  0  0  0
    8.2119   11.5241   -3.0485 H   0  0  0  0  0  0  0  0  0  0  0  0
    8.9254    9.5294   -3.3631 C   0  0  0  0  0  0  0  0  0  0  0  0
    9.6555    9.8219   -4.1023 H   0  0  0  0  0  0  0  0  0  0  0  0
    8.8068    8.2002   -2.9947 C   0  0  0  0  0  0  0  0  0  0  0  0
    9.4463    7.4535   -3.4411 H   0  0  0  0  0  0  0  0  0  0  0  0
    7.8697    7.8186   -2.0530 C   0  0  0  0  0  0  0  0  0  0  0  0
    7.7930    6.7882   -1.7377 H   0  0  0  0  0  0  0  0  0  0  0  0
    4.6470   10.5871    4.7622 C   0  0  0  0  0  0  0  0  0  0  0  0
    3.6106   10.8776    5.6527 C   0  0  0  0  0  0  0  0  0  0  0  0
    2.6951   10.3055    5.6059 H   0  0  0  0  0  0  0  0  0  0  0  0
    3.7368   11.9165    6.5549 C   0  0  0  0  0  0  0  0  0  0  0  0
    2.9242   12.1348    7.2326 H   0  0  0  0  0  0  0  0  0  0  0  0
    4.8988   12.6674    6.5979 C   0  0  0  0  0  0  0  0  0  0  0  0
    4.9990   13.4711    7.3115 H   0  0  0  0  0  0  0  0  0  0  0  0
    5.9282   12.3876    5.7119 C   0  0  0  0  0  0  0  0  0  0  0  0
    6.8340   12.9747    5.7344 H   0  0  0  0  0  0  0  0  0  0  0  0
    5.8036   11.3701    4.7883 C   0  0  0  0  0  0  0  0  0  0  0  0
    6.5988   11.1491    4.0902 H   0  0  0  0  0  0  0  0  0  0  0  0
    8.4601    9.4067    1.1345 C   0  0  0  0  0  2  0  0  0  0  0  0
    7.0963    8.6816    3.4617 C   0  0  0  0  0  2  0  0  0  0  0  0
    5.9462   10.6341    1.5421 C   0  0  0  0  0  2  0  0  0  0  0  0
  1  2  1  0  0  0  0
  1  6  1  0  0  0  0
  1 50  1  0  0  0  0
  3 49  1  0  0  0  0
  5 51  1  0  0  0  0
  6 21  1  0  0  0  0
  7  1  1  0  0  0  0
  8 22  2  0  0  0  0
  8 38  1  0  0  0  0
  9 13  1  0  0  0  0
 10  9  1  0  0  0  0
 11  9  1  0  0  0  0
 12  9  1  0  0  0  0
 13  7  1  0  0  0  0
 13 14  2  0  0  0  0
 14  6  1  0  0  0  0
 15 14  1  0  0  0  0
 15 17  2  0  0  0  0
 16 15  1  0  0  0  0
 17 19  1  0  0  0  0
 18 17  1  0  0  0  0
 19 21  2  0  0  0  0
 19 20  1  0  0  0  0
 21 22  1  0  0  0  0
 22 23  1  0  0  0  0
 23 26  1  0  0  0  0
 23 25  1  0  0  0  0
 24 23  1  0  0  0  0
 27  7  1  0  0  0  0
 28 27  1  0  0  0  0
 28 29  1  0  0  0  0
 30 28  2  0  0  0  0
 31 30  1  0  0  0  0
 32 34  2  0  0  0  0
 32 30  1  0  0  0  0
 33 32  1  0  0  0  0
 34 36  1  0  0  0  0
 35 34  1  0  0  0  0
 36 37  1  0  0  0  0
 36 27  2  0  0  0  0
 38 47  2  0  0  0  0
 38 39  1  0  0  0  0
 39 41  2  0  0  0  0
 40 39  1  0  0  0  0
 41 43  1  0  0  0  0
 41 42  1  0  0  0  0
 43 44  1  0  0  0  0
 45 46  1  0  0  0  0
 45 43  2  0  0  0  0
 47 45  1  0  0  0  0
 48 47  1  0  0  0  0
 49  1  1  0  0  0  0
 50  4  1  0  0  0  0
 51  1  1  0  0  0  0
M  END
$$$$
