CSD_code = ILEGAJ | q = 0 | S = 0 | Stoichiometry = C28H27BrN3O3Re | MND = 6
 OpenBabel04212202053D

 63 66  0  0  1  0  0  0  0  0999 V2000
    6.0884    7.7013    3.8896 Re  0  0  0  0  0  0  0  0  0  0  0  0
    5.2134    9.0906    1.8946 Br  0  0  0  0  0  0  0  0  0  0  0  0
    4.5996    5.1420    2.9992 O   0  0  0  0  0  1  0  0  0  0  0  0
    7.0539    6.2043    6.4099 O   0  0  0  0  0  1  0  0  0  0  0  0
    3.4750    8.8132    5.1200 O   0  0  0  0  0  1  0  0  0  0  0  0
    7.8242    7.2541    2.7600 N   0  0  0  0  0  0  0  0  0  0  0  0
    7.4180    9.5358    4.0765 N   0  0  0  0  0  0  0  0  0  0  0  0
    5.7566   11.8212    6.1603 N   0  0  0  0  0  0  0  0  0  0  0  0
    9.7862    8.1084    1.5556 C   0  0  0  0  0  0  0  0  0  0  0  0
   10.6606    8.5614    2.0201 H   0  0  0  0  0  0  0  0  0  0  0  0
    9.9936    7.0607    1.3487 H   0  0  0  0  0  0  0  0  0  0  0  0
    9.5997    8.6140    0.6077 H   0  0  0  0  0  0  0  0  0  0  0  0
    8.5899    8.2385    2.4443 C   0  0  2  0  0  3  0  0  0  0  0  0
    8.2787    9.5424    3.0331 C   0  0  2  0  0  3  0  0  0  0  0  0
    8.8520   10.7145    2.5457 C   0  0  0  0  0  0  0  0  0  0  0  0
    9.5160   10.6817    1.6984 H   0  0  0  0  0  0  0  0  0  0  0  0
    8.5107   11.9212    3.1269 C   0  0  0  0  0  0  0  0  0  0  0  0
    8.8945   12.8502    2.7351 H   0  0  0  0  0  0  0  0  0  0  0  0
    7.6841   11.9042    4.2324 C   0  0  0  0  0  0  0  0  0  0  0  0
    7.4049   12.8078    4.7491 H   0  0  0  0  0  0  0  0  0  0  0  0
    7.1736   10.6914    4.7034 C   0  0  0  0  0  0  0  0  0  0  0  0
    6.4127   10.7560    5.9741 C   0  0  0  0  0  0  0  0  0  0  0  0
    6.5543    9.6356    6.9641 C   0  0  0  0  0  0  0  0  0  0  0  0
    7.5314    9.1642    6.8858 H   0  0  0  0  0  0  0  0  0  0  0  0
    6.4069   10.0172    7.9709 H   0  0  0  0  0  0  0  0  0  0  0  0
    5.7915    8.8768    6.7863 H   0  0  0  0  0  0  0  0  0  0  0  0
    8.1398    5.9343    2.3370 C   0  0  0  0  0  0  0  0  0  0  0  0
    7.5891    5.4215    1.1567 C   0  0  0  0  0  0  0  0  0  0  0  0
    7.8588    4.1036    0.8195 C   0  0  0  0  0  0  0  0  0  0  0  0
    7.4324    3.6993   -0.0862 H   0  0  0  0  0  0  0  0  0  0  0  0
    8.6592    3.3108    1.6207 C   0  0  0  0  0  0  0  0  0  0  0  0
    8.8534    2.2853    1.3460 H   0  0  0  0  0  0  0  0  0  0  0  0
    9.2183    3.8388    2.7676 C   0  0  0  0  0  0  0  0  0  0  0  0
    9.8580    3.2314    3.3906 H   0  0  0  0  0  0  0  0  0  0  0  0
    8.9764    5.1540    3.1404 C   0  0  0  0  0  0  0  0  0  0  0  0
    6.7253    6.2656    0.2742 C   0  0  0  0  0  0  0  0  0  0  0  0
    7.1540    7.2534    0.1117 H   0  0  0  0  0  0  0  0  0  0  0  0
    6.5826    5.7862   -0.6906 H   0  0  0  0  0  0  0  0  0  0  0  0
    5.7433    6.4084    0.7256 H   0  0  0  0  0  0  0  0  0  0  0  0
    9.6400    5.6970    4.3730 C   0  0  0  0  0  0  0  0  0  0  0  0
    9.2598    6.6780    4.6488 H   0  0  0  0  0  0  0  0  0  0  0  0
    9.4803    5.0212    5.2108 H   0  0  0  0  0  0  0  0  0  0  0  0
   10.7155    5.7795    4.2103 H   0  0  0  0  0  0  0  0  0  0  0  0
    5.1000   12.2164    7.3092 C   0  0  0  0  0  0  0  0  0  0  0  0
    3.7069   12.3756    7.2421 C   0  0  0  0  0  0  0  0  0  0  0  0
    3.0294   12.8644    8.3447 C   0  0  0  0  0  0  0  0  0  0  0  0
    1.9555   12.9708    8.2970 H   0  0  0  0  0  0  0  0  0  0  0  0
    3.7107   13.2258    9.4942 C   0  0  0  0  0  0  0  0  0  0  0  0
    3.1724   13.6094   10.3478 H   0  0  0  0  0  0  0  0  0  0  0  0
    5.0865   13.1115    9.5357 C   0  0  0  0  0  0  0  0  0  0  0  0
    5.6280   13.4164   10.4201 H   0  0  0  0  0  0  0  0  0  0  0  0
    5.8019   12.6097    8.4574 C   0  0  0  0  0  0  0  0  0  0  0  0
    2.9802   11.9834    5.9943 C   0  0  0  0  0  0  0  0  0  0  0  0
    2.0146   12.4795    5.9387 H   0  0  0  0  0  0  0  0  0  0  0  0
    3.5722   12.2419    5.1177 H   0  0  0  0  0  0  0  0  0  0  0  0
    2.8118   10.9073    5.9737 H   0  0  0  0  0  0  0  0  0  0  0  0
    7.3020   12.5495    8.5439 C   0  0  0  0  0  0  0  0  0  0  0  0
    7.7558   12.3753    7.5710 H   0  0  0  0  0  0  0  0  0  0  0  0
    7.6872   13.4875    8.9408 H   0  0  0  0  0  0  0  0  0  0  0  0
    7.6177   11.7526    9.2189 H   0  0  0  0  0  0  0  0  0  0  0  0
    5.1331    6.0896    3.3572 C   0  0  0  0  0  2  0  0  0  0  0  0
    6.7258    6.7728    5.4666 C   0  0  0  0  0  2  0  0  0  0  0  0
    4.4637    8.3792    4.7393 C   0  0  0  0  0  2  0  0  0  0  0  0
  1  7  1  0  0  0  0
  1 63  1  0  0  0  0
  1 62  1  0  0  0  0
  2  1  1  0  0  0  0
  3 61  1  0  0  0  0
  6  1  1  0  0  0  0
  7 21  1  0  0  0  0
  8 44  1  0  0  0  0
  9 10  1  0  0  0  0
 11  9  1  0  0  0  0
 12  9  1  0  0  0  0
 13  9  1  1  0  0  0
 13  6  1  0  0  0  0
 13 14  1  0  0  0  0
 14 15  1  1  0  0  0
 14  7  1  0  0  0  0
 15 17  2  0  0  0  0
 16 15  1  0  0  0  0
 17 19  1  0  0  0  0
 18 17  1  0  0  0  0
 19 21  2  0  0  0  0
 19 20  1  0  0  0  0
 21 22  1  0  0  0  0
 22  8  2  0  0  0  0
 22 23  1  0  0  0  0
 23 25  1  0  0  0  0
 24 23  1  0  0  0  0
 26 23  1  0  0  0  0
 27  6  1  0  0  0  0
 27 35  1  0  0  0  0
 28 27  2  0  0  0  0
 29 28  1  0  0  0  0
 29 31  2  0  0  0  0
 30 29  1  0  0  0  0
 31 33  1  0  0  0  0
 32 31  1  0  0  0  0
 33 35  2  0  0  0  0
 33 34  1  0  0  0  0
 35 40  1  0  0  0  0
 36 39  1  0  0  0  0
 36 28  1  0  0  0  0
 37 36  1  0  0  0  0
 38 36  1  0  0  0  0
 40 41  1  0  0  0  0
 40 42  1  0  0  0  0
 43 40  1  0  0  0  0
 44 52  1  0  0  0  0
 45 44  2  0  0  0  0
 45 46  1  0  0  0  0
 46 48  2  0  0  0  0
 47 46  1  0  0  0  0
 48 50  1  0  0  0  0
 48 49  1  0  0  0  0
 50 51  1  0  0  0  0
 52 57  1  0  0  0  0
 52 50  2  0  0  0  0
 53 45  1  0  0  0  0
 54 53  1  0  0  0  0
 55 53  1  0  0  0  0
 56 53  1  0  0  0  0
 57 59  1  0  0  0  0
 57 60  1  0  0  0  0
 58 57  1  0  0  0  0
 61  1  1  0  0  0  0
 62  4  1  0  0  0  0
 63  5  1  0  0  0  0
M  END
$$$$
