CSD_code = ILEGIR | q = 0 | S = 0 | Stoichiometry = C18H11ClN3O3Re | MND = 6
 OpenBabel04212202053D

 37 40  0  0  1  0  0  0  0  0999 V2000
    8.6458    8.2520    3.7627 Re  0  0  0  0  0  0  0  0  0  0  0  0
    9.7631    9.5594    5.4259 Cl  0  0  0  0  0  0  0  0  0  0  0  0
    7.6869    7.4345    5.4730 N   0  0  0  0  0  0  0  0  0  0  0  0
    7.0877    9.7219    4.2843 N   0  0  0  0  0  0  0  0  0  0  0  0
    6.9666    9.7954    1.4874 N   0  0  0  0  0  0  0  0  0  0  0  0
   10.9532    6.2000    3.7648 O   0  0  0  0  0  1  0  0  0  0  0  0
   10.1758    9.9881    1.7120 O   0  0  0  0  0  1  0  0  0  0  0  0
    6.9022    6.7145    1.7261 O   0  0  0  0  0  1  0  0  0  0  0  0
    7.9281    6.2283    5.9807 C   0  0  0  0  0  3  0  0  0  0  0  0
    8.4924    5.5489    5.3546 H   0  0  0  0  0  0  0  0  0  0  0  0
    7.5009    5.8326    7.2339 C   0  0  0  0  0  0  0  0  0  0  0  0
    7.7358    4.8458    7.5983 H   0  0  0  0  0  0  0  0  0  0  0  0
    6.7784    6.7331    8.0027 C   0  0  0  0  0  0  0  0  0  0  0  0
    6.4323    6.4686    8.9901 H   0  0  0  0  0  0  0  0  0  0  0  0
    6.5059    7.9801    7.4756 C   0  0  0  0  0  0  0  0  0  0  0  0
    5.9350    8.6891    8.0517 H   0  0  0  0  0  0  0  0  0  0  0  0
    6.9768    8.3122    6.2053 C   0  0  0  0  0  0  0  0  0  0  0  0
    6.7009    9.6062    5.5657 C   0  0  2  0  0  3  0  0  0  0  0  0
    6.0582   10.6489    6.2316 C   0  0  0  0  0  0  0  0  0  0  0  0
    5.7860   10.5563    7.2694 H   0  0  0  0  0  0  0  0  0  0  0  0
    5.7971   11.8251    5.5551 C   0  0  0  0  0  0  0  0  0  0  0  0
    5.3166   12.6511    6.0571 H   0  0  0  0  0  0  0  0  0  0  0  0
    6.1539   11.9173    4.2227 C   0  0  0  0  0  0  0  0  0  0  0  0
    5.9339   12.8030    3.6488 H   0  0  0  0  0  0  0  0  0  0  0  0
    6.8011   10.8418    3.6182 C   0  0  0  0  0  0  0  0  0  0  0  0
    7.1492   10.9146    2.1853 C   0  0  0  0  0  0  0  0  0  0  0  0
    7.6276   12.0874    1.6059 C   0  0  0  0  0  0  0  0  0  0  0  0
    7.7998   12.9686    2.2042 H   0  0  0  0  0  0  0  0  0  0  0  0
    7.9222   12.0799    0.2528 C   0  0  0  0  0  0  0  0  0  0  0  0
    8.3120   12.9669   -0.2246 H   0  0  0  0  0  0  0  0  0  0  0  0
    7.7141   10.9185   -0.4738 C   0  0  0  0  0  0  0  0  0  0  0  0
    7.9284   10.8761   -1.5297 H   0  0  0  0  0  0  0  0  0  0  0  0
    7.2333    9.8024    0.1960 C   0  0  0  0  0  0  0  0  0  0  0  0
    7.0573    8.8670   -0.3172 H   0  0  0  0  0  0  0  0  0  0  0  0
   10.0880    6.9504    3.7100 C   0  0  0  0  0  2  0  0  0  0  0  0
    9.5874    9.3054    2.4198 C   0  0  0  0  0  2  0  0  0  0  0  0
    7.5536    7.2884    2.4758 C   0  0  0  0  0  2  0  0  0  0  0  0
  1  4  1  0  0  0  0
  1  2  1  0  0  0  0
  1  3  1  0  0  0  0
  3  9  1  0  0  0  0
  3 17  1  0  0  0  0
  4 18  1  0  0  0  0
  5 26  1  0  0  0  0
  7 36  1  0  0  0  0
  8 37  1  0  0  0  0
  9 11  1  0  0  0  0
 10  9  1  0  0  0  0
 11 12  1  0  0  0  0
 11 13  2  0  0  0  0
 13 14  1  0  0  0  0
 15 13  1  0  0  0  0
 15 16  1  0  0  0  0
 17 15  2  0  0  0  0
 18 17  1  6  0  0  0
 18 19  1  0  0  0  0
 19 20  1  0  0  0  0
 21 22  1  0  0  0  0
 21 19  2  0  0  0  0
 23 21  1  0  0  0  0
 24 23  1  0  0  0  0
 25 23  2  0  0  0  0
 25  4  1  0  0  0  0
 26 25  1  0  0  0  0
 27 26  2  0  0  0  0
 27 28  1  0  0  0  0
 29 27  1  0  0  0  0
 30 29  1  0  0  0  0
 31 33  1  0  0  0  0
 31 29  2  0  0  0  0
 32 31  1  0  0  0  0
 33  5  2  0  0  0  0
 34 33  1  0  0  0  0
 35  1  1  0  0  0  0
 35  6  1  0  0  0  0
 36  1  1  0  0  0  0
 37  1  1  0  0  0  0
M  END
$$$$
