CSD_code = ILEXEE | q = 1 | S = 0 | Stoichiometry = C25H19ClN5O2Ru(1+) | MND = 6
 OpenBabel04212202053D

 53 60  0  0  1  0  0  0  0  0999 V2000
    1.8368    5.2716    4.1299 Ru  0  0  0  0  0  0  0  0  0  0  0  0
    2.7471    4.6921    6.2633 Cl  0  0  0  0  0  0  0  0  0  0  0  0
    0.9983    5.8450    2.3611 N   0  0  0  0  0  0  0  0  0  0  0  0
    0.7789    7.1707    2.2028 C   0  0  0  0  0  0  0  0  0  0  0  0
    0.0822    7.6606    1.0998 C   0  0  0  0  0  0  0  0  0  0  0  0
   -0.1039    8.7146    0.9943 H   0  0  0  0  0  0  0  0  0  0  0  0
   -0.3761    6.7853    0.1331 C   0  0  0  0  0  0  0  0  0  0  0  0
   -0.9194    7.1466   -0.7245 H   0  0  0  0  0  0  0  0  0  0  0  0
   -0.1160    5.4337    0.2808 C   0  0  0  0  0  0  0  0  0  0  0  0
   -0.4395    4.7161   -0.4572 H   0  0  0  0  0  0  0  0  0  0  0  0
    0.5731    5.0098    1.4096 C   0  0  0  0  0  0  0  0  0  0  0  0
    1.9758    7.3723    4.2561 N   0  0  0  0  0  0  0  0  0  0  0  0
    1.3511    8.0266    3.2399 C   0  0  0  0  0  0  0  0  0  0  0  0
    1.3008    9.4121    3.1715 C   0  0  0  0  0  0  0  0  0  0  0  0
    0.7999    9.9061    2.3582 H   0  0  0  0  0  0  0  0  0  0  0  0
    1.9159   10.1679    4.1620 C   0  0  0  0  0  0  0  0  0  0  0  0
    1.8866   11.2449    4.1262 H   0  0  0  0  0  0  0  0  0  0  0  0
    2.5654    9.5142    5.1784 C   0  0  0  0  0  0  0  0  0  0  0  0
    3.0726   10.0318    5.9749 H   0  0  0  0  0  0  0  0  0  0  0  0
    2.5814    8.1059    5.2054 C   0  0  0  0  0  0  0  0  0  0  0  0
    0.8646    3.7118    1.6229 O   0  0  0  0  0  0  0  0  0  0  0  0
    0.5445    3.1625    0.8942 H   0  0  0  0  0  0  0  0  0  0  0  0
    3.2291    7.5459    6.1939 O   0  0  0  0  0  0  0  0  0  0  0  0
    3.1294    6.5476    6.2379 H   0  0  0  0  0  0  0  0  0  0  0  0
    0.0065    5.0650    4.9494 N   0  0  0  0  0  0  0  0  0  0  0  0
   -0.3538    3.7628    5.0724 C   0  0  0  0  0  0  0  0  0  0  0  0
   -1.5679    3.4030    5.6539 C   0  0  0  0  0  0  0  0  0  0  0  0
   -1.8340    2.3627    5.7435 H   0  0  0  0  0  0  0  0  0  0  0  0
   -2.4197    4.3860    6.1223 C   0  0  0  0  0  0  0  0  0  0  0  0
   -3.3590    4.1239    6.5826 H   0  0  0  0  0  0  0  0  0  0  0  0
   -2.0369    5.7146    5.9945 C   0  0  0  0  0  0  0  0  0  0  0  0
   -2.6651    6.5132    6.3531 H   0  0  0  0  0  0  0  0  0  0  0  0
   -0.8204    6.0028    5.4032 C   0  0  0  0  0  0  0  0  0  0  0  0
   -0.4891    7.0294    5.2954 H   0  0  0  0  0  0  0  0  0  0  0  0
    1.7065    3.3999    4.0405 N   0  0  0  0  0  0  0  0  0  0  0  0
    0.6345    2.8027    4.5788 C   0  0  0  0  0  0  0  0  0  0  0  0
    0.5782    1.4148    4.6731 C   0  0  0  0  0  0  0  0  0  0  0  0
   -0.2755    0.9235    5.1093 H   0  0  0  0  0  0  0  0  0  0  0  0
    1.6579    0.6710    4.2197 C   0  0  0  0  0  0  0  0  0  0  0  0
    1.6369   -0.4049    4.2869 H   0  0  0  0  0  0  0  0  0  0  0  0
    2.7787    1.3127    3.7134 C   0  0  0  0  0  0  0  0  0  0  0  0
    3.6376    0.7419    3.4027 H   0  0  0  0  0  0  0  0  0  0  0  0
    2.7796    2.7030    3.6410 C   0  0  0  0  0  0  0  0  0  0  0  0
    3.6345    4.8966    3.3220 N   0  0  0  0  0  0  0  0  0  0  0  0
    3.8772    3.5667    3.2060 C   0  0  1  0  0  3  0  0  0  0  0  0
    5.0972    3.0956    2.7251 C   0  0  0  0  0  0  0  0  0  0  0  0
    5.2701    2.0351    2.6444 H   0  0  0  0  0  0  0  0  0  0  0  0
    6.0833    3.9947    2.3641 C   0  0  0  0  0  0  0  0  0  0  0  0
    7.0362    3.6464    1.9987 H   0  0  0  0  0  0  0  0  0  0  0  0
    5.8223    5.3531    2.4870 C   0  0  0  0  0  0  0  0  0  0  0  0
    6.5631    6.0895    2.2224 H   0  0  0  0  0  0  0  0  0  0  0  0
    4.5891    5.7533    2.9676 C   0  0  0  0  0  0  0  0  0  0  0  0
    4.3559    6.8062    3.0802 H   0  0  0  0  0  0  0  0  0  0  0  0
  1 12  1  0  0  0  0
  1 25  1  0  0  0  0
  1  2  1  0  0  0  0
  3  1  1  0  0  0  0
  4  3  1  0  0  0  0
  4 13  2  0  0  0  0
  5  4  1  0  0  0  0
  6  5  1  0  0  0  0
  7  9  1  0  0  0  0
  7  5  2  0  0  0  0
  8  7  1  0  0  0  0
  9 11  2  0  0  0  0
 10  9  1  0  0  0  0
 11 21  1  0  0  0  0
 11  3  1  0  0  0  0
 12 20  1  0  0  0  0
 13 12  1  0  0  0  0
 14 13  1  0  0  0  0
 14 16  2  0  0  0  0
 15 14  1  0  0  0  0
 16 18  1  0  0  0  0
 17 16  1  0  0  0  0
 18 20  2  0  0  0  0
 18 19  1  0  0  0  0
 20 23  1  0  0  0  0
 22 21  1  0  0  0  0
 23 24  1  0  0  0  0
 25 26  1  0  0  0  0
 25 33  1  0  0  0  0
 26 27  1  0  0  0  0
 27 28  1  0  0  0  0
 27 29  2  0  0  0  0
 29 30  1  0  0  0  0
 31 29  1  0  0  0  0
 31 32  1  0  0  0  0
 33 31  2  0  0  0  0
 34 33  1  0  0  0  0
 35  1  1  0  0  0  0
 35 36  1  0  0  0  0
 36 37  1  0  0  0  0
 36 26  2  0  0  0  0
 37 38  1  0  0  0  0
 39 40  1  0  0  0  0
 39 37  2  0  0  0  0
 41 39  1  0  0  0  0
 42 41  1  0  0  0  0
 43 41  2  0  0  0  0
 43 35  1  0  0  0  0
 44  1  1  0  0  0  0
 45 46  1  1  0  0  0
 45 44  1  0  0  0  0
 45 43  1  0  0  0  0
 47 46  1  0  0  0  0
 48 50  1  0  0  0  0
 48 46  2  0  0  0  0
 49 48  1  0  0  0  0
 50 52  2  0  0  0  0
 51 50  1  0  0  0  0
 52 53  1  0  0  0  0
 52 44  1  0  0  0  0
M  END
$$$$
