CSD_code = ILEZUW | q = 1 | S = 0 | Stoichiometry = C30H26ClN6ORuS(1+) | MND = 6
 OpenBabel04212202053D

 66 74  0  0  1  0  0  0  0  0999 V2000
    2.5115    7.2905    9.5711 Ru  0  0  0  0  0  0  0  0  0  0  0  0
    3.7206    8.6450    8.0716 Cl  0  0  0  0  0  0  0  0  0  0  0  0
    1.2344    6.0338   11.0202 S   0  0  0  0  0  0  0  0  0  0  0  0
    3.9808    7.7775   12.1010 C   0  0  0  0  0  3  0  0  0  0  0  0
    4.1033    6.7098   11.9687 H   0  0  0  0  0  0  0  0  0  0  0  0
    4.5711    8.4186   13.1419 C   0  0  0  0  0  0  0  0  0  0  0  0
    5.1603    7.8748   13.8619 H   0  0  0  0  0  0  0  0  0  0  0  0
    4.4320    9.8218   13.2618 C   0  0  0  0  0  0  0  0  0  0  0  0
    5.0790   10.5499   14.2747 C   0  0  0  0  0  0  0  0  0  0  0  0
    5.6992   10.0165   14.9787 H   0  0  0  0  0  0  0  0  0  0  0  0
    4.9317   11.9083   14.3553 C   0  0  0  0  0  0  0  0  0  0  0  0
    5.4304   12.4688   15.1302 H   0  0  0  0  0  0  0  0  0  0  0  0
    4.1367   12.5780   13.4184 C   0  0  0  0  0  0  0  0  0  0  0  0
    4.0376   13.6507   13.4771 H   0  0  0  0  0  0  0  0  0  0  0  0
    3.4877   11.8893   12.4262 C   0  0  0  0  0  0  0  0  0  0  0  0
    2.9066   12.4615   11.7175 H   0  0  0  0  0  0  0  0  0  0  0  0
    3.6076   10.4884   12.3198 C   0  0  0  0  0  0  0  0  0  0  0  0
    2.9578    9.6896   11.3118 C   0  0  0  0  0  0  0  0  0  0  0  0
    1.1441    9.8964    9.5632 C   0  0  1  0  0  3  0  0  0  0  0  0
    0.3051   10.8635    8.9950 C   0  0  0  0  0  0  0  0  0  0  0  0
    0.3537   11.8860    9.3353 H   0  0  0  0  0  0  0  0  0  0  0  0
   -0.5551   10.4986    7.9807 C   0  0  0  0  0  0  0  0  0  0  0  0
   -1.2033   11.2286    7.5237 H   0  0  0  0  0  0  0  0  0  0  0  0
   -0.5408    9.1867    7.5308 C   0  0  0  0  0  0  0  0  0  0  0  0
   -1.1512    8.8895    6.6958 H   0  0  0  0  0  0  0  0  0  0  0  0
    0.3085    8.2743    8.1419 C   0  0  0  0  0  0  0  0  0  0  0  0
    0.4674    6.8913    7.6951 C   0  0  2  0  0  3  0  0  0  0  0  0
   -0.4604    6.2212    6.9091 C   0  0  0  0  0  0  0  0  0  0  0  0
   -1.3518    6.7196    6.5694 H   0  0  0  0  0  0  0  0  0  0  0  0
   -0.2429    4.8866    6.6063 C   0  0  0  0  0  0  0  0  0  0  0  0
   -0.9483    4.3388    6.0027 H   0  0  0  0  0  0  0  0  0  0  0  0
    0.8777    4.2608    7.1128 C   0  0  0  0  0  0  0  0  0  0  0  0
    1.0595    3.2146    6.9230 H   0  0  0  0  0  0  0  0  0  0  0  0
    1.7714    4.9952    7.8973 C   0  0  0  0  0  0  0  0  0  0  0  0
    4.0642    4.8105    8.8937 C   0  0  0  0  0  0  0  0  0  0  0  0
    5.2114    3.9606    8.7439 C   0  0  0  0  0  0  0  0  0  0  0  0
    5.1715    2.6467    8.2292 C   0  0  0  0  0  3  0  0  0  0  0  0
    4.2420    2.1904    7.9197 H   0  0  0  0  0  0  0  0  0  0  0  0
    6.3164    1.9039    8.1114 C   0  0  0  0  0  0  0  0  0  0  0  0
    6.2650    0.9009    7.7169 H   0  0  0  0  0  0  0  0  0  0  0  0
    7.5570    2.4303    8.4935 C   0  0  0  0  0  0  0  0  0  0  0  0
    8.4457    1.8282    8.3880 H   0  0  0  0  0  0  0  0  0  0  0  0
    7.6327    3.7019    8.9916 C   0  0  0  0  0  0  0  0  0  0  0  0
    8.5792    4.1266    9.2885 H   0  0  0  0  0  0  0  0  0  0  0  0
    6.4729    4.4870    9.1245 C   0  0  0  0  0  0  0  0  0  0  0  0
    6.5149    5.8170    9.5990 C   0  0  0  0  0  0  0  0  0  0  0  0
    7.4623    6.2728    9.8342 H   0  0  0  0  0  0  0  0  0  0  0  0
    5.3588    6.5157    9.7452 C   0  0  0  0  0  0  0  0  0  0  0  0
    5.3756    7.5441   10.0786 H   0  0  0  0  0  0  0  0  0  0  0  0
    0.4543    6.9997   12.3619 C   0  0  0  0  0  0  0  0  0  0  0  0
   -0.1354    7.7828   11.8948 H   0  0  0  0  0  0  0  0  0  0  0  0
    1.2269    7.4285   12.9905 H   0  0  0  0  0  0  0  0  0  0  0  0
   -0.1943    6.3423   12.9294 H   0  0  0  0  0  0  0  0  0  0  0  0
    1.9720    4.7436   12.0922 C   0  0  0  0  0  0  0  0  0  0  0  0
    1.1596    4.1292   12.4636 H   0  0  0  0  0  0  0  0  0  0  0  0
    2.5119    5.2094   12.9076 H   0  0  0  0  0  0  0  0  0  0  0  0
    2.6422    4.1409   11.4872 H   0  0  0  0  0  0  0  0  0  0  0  0
    3.2052    8.3936   11.1703 N   0  0  0  0  0  0  0  0  0  0  0  0
    2.0184   10.3186   10.5401 N   0  0  0  0  0  0  0  0  0  0  0  0
    1.9808   11.3188   10.6845 H   0  0  0  0  0  0  0  0  0  0  0  0
    1.0946    8.6198    9.1849 N   0  0  0  0  0  0  0  0  0  0  0  0
    1.5834    6.2872    8.1486 N   0  0  0  0  0  0  0  0  0  0  0  0
    2.8504    4.3292    8.4464 N   0  0  0  0  0  0  0  0  0  0  0  0
    2.8732    3.3535    8.1809 H   0  0  0  0  0  0  0  0  0  0  0  0
    4.1317    6.0074    9.4584 N   0  0  0  0  0  0  0  0  0  0  0  0
    0.1445    5.3793   10.3134 O   0  0  0  0  0  1  0  0  0  0  0  0
  1  3  1  0  0  0  0
  1 58  1  0  0  0  0
  2  1  1  0  0  0  0
  3 54  1  0  0  0  0
  3 50  1  0  0  0  0
  4  6  1  0  0  0  0
  5  4  1  0  0  0  0
  6  8  2  0  0  0  0
  6  7  1  0  0  0  0
  8  9  1  0  0  0  0
  9 11  2  0  0  0  0
  9 10  1  0  0  0  0
 11 12  1  0  0  0  0
 13 14  1  0  0  0  0
 13 11  1  0  0  0  0
 15 13  2  0  0  0  0
 16 15  1  0  0  0  0
 17 15  1  0  0  0  0
 17  8  1  0  0  0  0
 18 17  2  0  0  0  0
 19 20  1  1  0  0  0
 19 59  1  0  0  0  0
 20 21  1  0  0  0  0
 22 20  2  0  0  0  0
 23 22  1  0  0  0  0
 24 22  1  0  0  0  0
 24 26  2  0  0  0  0
 25 24  1  0  0  0  0
 26 61  1  0  0  0  0
 27 28  1  1  0  0  0
 27 26  1  0  0  0  0
 27 62  1  0  0  0  0
 29 28  1  0  0  0  0
 30 28  2  0  0  0  0
 30 32  1  0  0  0  0
 31 30  1  0  0  0  0
 32 34  2  0  0  0  0
 33 32  1  0  0  0  0
 34 62  1  0  0  0  0
 34 63  1  0  0  0  0
 35 65  1  0  0  0  0
 36 35  2  0  0  0  0
 36 45  1  0  0  0  0
 37 36  1  0  0  0  0
 38 37  1  0  0  0  0
 39 37  1  0  0  0  0
 39 41  2  0  0  0  0
 40 39  1  0  0  0  0
 41 43  1  0  0  0  0
 42 41  1  0  0  0  0
 43 45  2  0  0  0  0
 43 44  1  0  0  0  0
 45 46  1  0  0  0  0
 46 48  2  0  0  0  0
 46 47  1  0  0  0  0
 48 49  1  0  0  0  0
 50 53  1  0  0  0  0
 50 52  1  0  0  0  0
 51 50  1  0  0  0  0
 54 55  1  0  0  0  0
 54 56  1  0  0  0  0
 57 54  1  0  0  0  0
 58 18  1  0  0  0  0
 58  4  1  0  0  0  0
 59 60  1  0  0  0  0
 59 18  1  0  0  0  0
 61 19  1  0  0  0  0
 61  1  1  0  0  0  0
 62  1  1  0  0  0  0
 63 35  1  0  0  0  0
 64 63  1  0  0  0  0
 65  1  1  0  0  0  0
 65 48  1  0  0  0  0
 66  3  1  0  0  0  0
M  END
$$$$
