CSD_code = ILIHUG | q = 0 | S = 0 | Stoichiometry = C16H26Cl2N4OZn | MND = 4
 OpenBabel04212202053D

 50 52  0  0  1  0  0  0  0  0999 V2000
    3.7361    6.7185    9.8966 Zn  0  0  0  0  0  0  0  0  0  0  0  0
    4.6533    4.7662    9.2853 Cl  0  0  0  0  0  0  0  0  0  0  0  0
    2.0715    7.1248   11.2224 N   0  0  0  0  0  4  0  0  0  0  0  0
    1.4784    8.2368   10.4880 C   0  0  0  0  0  0  0  0  0  0  0  0
    2.1727    9.0818   10.5522 H   0  0  0  0  0  0  0  0  0  0  0  0
    0.5169    8.5378   10.9255 H   0  0  0  0  0  0  0  0  0  0  0  0
    4.9182    8.5498   10.1760 Cl  0  0  0  0  0  0  0  0  0  0  0  0
    2.2244    7.1261    8.4730 N   0  0  0  0  0  0  0  0  0  0  0  0
    1.3036    7.9161    9.0294 C   0  0  2  0  0  3  0  0  0  0  0  0
    0.2629    8.4566    8.2982 C   0  0  0  0  0  0  0  0  0  0  0  0
   -0.4655    9.0911    8.7766 H   0  0  0  0  0  0  0  0  0  0  0  0
    0.1892    8.1721    6.9393 C   0  0  0  0  0  0  0  0  0  0  0  0
   -0.6065    8.5862    6.3394 H   0  0  0  0  0  0  0  0  0  0  0  0
    1.1327    7.3525    6.3637 C   0  0  0  0  0  0  0  0  0  0  0  0
    1.1097    7.1081    5.3158 H   0  0  0  0  0  0  0  0  0  0  0  0
    2.1558    6.8267    7.1669 C   0  0  0  0  0  0  0  0  0  0  0  0
    3.1268    5.9870    6.6939 N   0  0  0  0  0  0  0  0  0  0  0  0
    3.7443    5.5950    7.4061 H   0  0  0  0  0  0  0  0  0  0  0  0
    2.6922    6.0204    4.4589 O   0  0  0  0  0  0  0  0  0  0  0  0
    3.3734    5.6359    5.3797 C   0  0  0  0  0  0  0  0  0  0  0  0
    4.5826    4.7217    5.2030 C   0  0  0  0  0  0  0  0  0  0  0  0
    4.7738    4.4782    3.7037 C   0  0  0  0  0  0  0  0  0  0  0  0
    4.9566    5.4173    3.1877 H   0  0  0  0  0  0  0  0  0  0  0  0
    3.8818    4.0277    3.2763 H   0  0  0  0  0  0  0  0  0  0  0  0
    5.6181    3.8147    3.5361 H   0  0  0  0  0  0  0  0  0  0  0  0
    4.3161    3.3879    5.9114 C   0  0  0  0  0  0  0  0  0  0  0  0
    3.3813    2.9523    5.5645 H   0  0  0  0  0  0  0  0  0  0  0  0
    4.2722    3.5067    6.9905 H   0  0  0  0  0  0  0  0  0  0  0  0
    5.1218    2.6940    5.6834 H   0  0  0  0  0  0  0  0  0  0  0  0
    5.8353    5.3942    5.7768 C   0  0  0  0  0  0  0  0  0  0  0  0
    5.9504    6.3986    5.3742 H   0  0  0  0  0  0  0  0  0  0  0  0
    6.7124    4.8134    5.5013 H   0  0  0  0  0  0  0  0  0  0  0  0
    5.8044    5.4519    6.8612 H   0  0  0  0  0  0  0  0  0  0  0  0
    2.5266    7.5409   12.5488 C   0  0  0  0  0  0  0  0  0  0  0  0
    1.6732    7.8646   13.1593 H   0  0  0  0  0  0  0  0  0  0  0  0
    3.2312    8.3668   12.4377 H   0  0  0  0  0  0  0  0  0  0  0  0
    3.2221    6.3677   13.2239 C   0  0  0  0  0  0  0  0  0  0  0  0
    4.1055    6.0851   12.6117 H   0  0  0  0  0  0  0  0  0  0  0  0
    3.5746    6.6696   14.2120 H   0  0  0  0  0  0  0  0  0  0  0  0
    2.2982    5.2641   13.3738 N   0  0  0  0  0  0  0  0  0  0  0  0
    2.8864    4.1579   14.0981 C   0  0  0  0  0  0  0  0  0  0  0  0
    3.2026    4.5050   15.0802 H   0  0  0  0  0  0  0  0  0  0  0  0
    3.7549    3.7282   13.5780 H   0  0  0  0  0  0  0  0  0  0  0  0
    2.1363    3.3796   14.2275 H   0  0  0  0  0  0  0  0  0  0  0  0
    1.8032    4.8565   12.0748 C   0  0  0  0  0  0  0  0  0  0  0  0
    1.0867    4.0437   12.2119 H   0  0  0  0  0  0  0  0  0  0  0  0
    2.6189    4.4925   11.4221 H   0  0  0  0  0  0  0  0  0  0  0  0
    1.1156    6.0310   11.3922 C   0  0  0  0  0  0  0  0  0  0  0  0
    0.7441    5.7224   10.4131 H   0  0  0  0  0  0  0  0  0  0  0  0
    0.2694    6.3661   12.0084 H   0  0  0  0  0  0  0  0  0  0  0  0
  1  7  1  0  0  0  0
  1  3  1  0  0  0  0
  2  1  1  0  0  0  0
  3 48  1  0  0  0  0
  3 34  1  0  0  0  0
  4  5  1  0  0  0  0
  4  6  1  0  0  0  0
  4  3  1  0  0  0  0
  8  9  1  0  0  0  0
  8  1  1  0  0  0  0
  9 10  1  6  0  0  0
  9  4  1  0  0  0  0
 10 11  1  0  0  0  0
 12 10  2  0  0  0  0
 13 12  1  0  0  0  0
 14 12  1  0  0  0  0
 14 16  2  0  0  0  0
 15 14  1  0  0  0  0
 16  8  1  0  0  0  0
 17 16  1  0  0  0  0
 17 18  1  0  0  0  0
 19 20  2  0  0  0  0
 20 17  1  0  0  0  0
 21 20  1  0  0  0  0
 21 30  1  0  0  0  0
 21 26  1  0  0  0  0
 22 21  1  0  0  0  0
 23 22  1  0  0  0  0
 24 22  1  0  0  0  0
 25 22  1  0  0  0  0
 26 28  1  0  0  0  0
 27 26  1  0  0  0  0
 29 26  1  0  0  0  0
 30 33  1  0  0  0  0
 31 30  1  0  0  0  0
 32 30  1  0  0  0  0
 34 35  1  0  0  0  0
 34 37  1  0  0  0  0
 36 34  1  0  0  0  0
 37 40  1  0  0  0  0
 37 39  1  0  0  0  0
 38 37  1  0  0  0  0
 40 41  1  0  0  0  0
 41 44  1  0  0  0  0
 41 42  1  0  0  0  0
 43 41  1  0  0  0  0
 45 46  1  0  0  0  0
 45 40  1  0  0  0  0
 47 45  1  0  0  0  0
 48 50  1  0  0  0  0
 48 45  1  0  0  0  0
 49 48  1  0  0  0  0
M  END
$$$$
