CSD_code = ILISOM | q = 0 | S = 0 | Stoichiometry = C15H20Cl2N2PdS | MND = 4
 OpenBabel04212202053D

 41 43  0  0  0  0  0  0  0  0999 V2000
   -1.0908    0.4075    4.3906 Pd  0  0  0  0  0  0  0  0  0  0  0  0
   -2.7411   -0.8946    3.1915 S   0  0  1  0  0  3  0  0  0  0  0  0
    0.3819   -1.2349    3.9097 Cl  0  0  0  0  0  0  0  0  0  0  0  0
    0.3917    1.4068    5.7350 Cl  0  0  0  0  0  0  0  0  0  0  0  0
   -3.7348    1.6266    4.9229 N   0  0  0  0  0  0  0  0  0  0  0  0
   -2.3416    3.1736    4.3856 N   0  0  0  0  0  0  0  0  0  0  0  0
   -2.4304    1.8644    4.6719 C   0  0  0  0  0  0  0  0  0  0  0  0
   -3.5793    3.7518    4.4528 C   0  0  0  0  0  0  0  0  0  0  0  0
   -3.7383    4.7940    4.2664 H   0  0  0  0  0  0  0  0  0  0  0  0
   -4.4624    2.7806    4.7880 C   0  0  0  0  0  0  0  0  0  0  0  0
   -5.5199    2.8195    4.9501 H   0  0  0  0  0  0  0  0  0  0  0  0
   -4.2318    0.3128    5.2346 C   0  0  0  0  0  0  0  0  0  0  0  0
   -5.2020    0.4008    5.7319 H   0  0  0  0  0  0  0  0  0  0  0  0
   -3.5147   -0.1693    5.9207 H   0  0  0  0  0  0  0  0  0  0  0  0
   -4.3642   -0.5519    3.9785 C   0  0  0  0  0  0  0  0  0  0  0  0
   -5.0314   -0.1081    3.2424 H   0  0  0  0  0  0  0  0  0  0  0  0
   -4.7448   -1.5357    4.2526 H   0  0  0  0  0  0  0  0  0  0  0  0
   -2.5279    0.3265    1.9030 C   0  0  0  0  0  0  0  0  0  0  0  0
   -3.4477    1.3029    1.5518 C   0  0  0  0  0  0  0  0  0  0  0  0
   -4.3751    1.4326    2.0890 H   0  0  0  0  0  0  0  0  0  0  0  0
   -3.1737    2.1457    0.4851 C   0  0  0  0  0  0  0  0  0  0  0  0
   -3.8933    2.9060    0.2192 H   0  0  0  0  0  0  0  0  0  0  0  0
   -2.0003    2.0148   -0.2348 C   0  0  0  0  0  0  0  0  0  0  0  0
   -1.8016    2.6715   -1.0680 H   0  0  0  0  0  0  0  0  0  0  0  0
   -1.0813    1.0373    0.1198 C   0  0  0  0  0  0  0  0  0  0  0  0
   -0.1618    0.9289   -0.4337 H   0  0  0  0  0  0  0  0  0  0  0  0
   -1.3384    0.1945    1.1830 C   0  0  0  0  0  0  0  0  0  0  0  0
   -0.6299   -0.5744    1.4669 H   0  0  0  0  0  0  0  0  0  0  0  0
   -1.1034    3.8595    4.0897 C   0  0  0  0  0  0  0  0  0  0  0  0
   -0.4227    3.7090    4.9346 H   0  0  0  0  0  0  0  0  0  0  0  0
   -1.3207    4.9236    3.9734 H   0  0  0  0  0  0  0  0  0  0  0  0
   -0.4373    3.3017    2.8298 C   0  0  0  0  0  0  0  0  0  0  0  0
   -1.0960    3.4344    1.9677 H   0  0  0  0  0  0  0  0  0  0  0  0
   -0.2595    2.2161    2.9781 H   0  0  0  0  0  0  0  0  0  0  0  0
    0.9110    3.9649    2.5677 C   0  0  0  0  0  0  0  0  0  0  0  0
    0.7684    5.0295    2.3662 H   0  0  0  0  0  0  0  0  0  0  0  0
    1.5283    3.8666    3.4614 H   0  0  0  0  0  0  0  0  0  0  0  0
    1.6200    3.3048    1.3928 C   0  0  0  0  0  0  0  0  0  0  0  0
    1.7782    2.2496    1.6033 H   0  0  0  0  0  0  0  0  0  0  0  0
    2.5864    3.7705    1.2187 H   0  0  0  0  0  0  0  0  0  0  0  0
    1.0250    3.3924    0.4860 H   0  0  0  0  0  0  0  0  0  0  0  0
  1  7  2  0  0  0  0
  1  4  1  0  0  0  0
  2 18  1  6  0  0  0
  2 15  1  0  0  0  0
  2  1  1  0  0  0  0
  3  1  1  0  0  0  0
  5 12  1  0  0  0  0
  6  8  1  0  0  0  0
  6  7  1  0  0  0  0
  7  5  1  0  0  0  0
  8 10  2  0  0  0  0
  9  8  1  0  0  0  0
 10  5  1  0  0  0  0
 10 11  1  0  0  0  0
 12 13  1  0  0  0  0
 12 14  1  0  0  0  0
 15 17  1  0  0  0  0
 15 12  1  0  0  0  0
 16 15  1  0  0  0  0
 19 18  1  0  0  0  0
 19 20  1  0  0  0  0
 21 19  2  0  0  0  0
 22 21  1  0  0  0  0
 23 25  2  0  0  0  0
 23 21  1  0  0  0  0
 24 23  1  0  0  0  0
 25 27  1  0  0  0  0
 26 25  1  0  0  0  0
 27 28  1  0  0  0  0
 27 18  2  0  0  0  0
 29  6  1  0  0  0  0
 29 30  1  0  0  0  0
 31 29  1  0  0  0  0
 32 34  1  0  0  0  0
 32 29  1  0  0  0  0
 33 32  1  0  0  0  0
 35 32  1  0  0  0  0
 35 37  1  0  0  0  0
 36 35  1  0  0  0  0
 38 39  1  0  0  0  0
 38 35  1  0  0  0  0
 40 38  1  0  0  0  0
 41 38  1  0  0  0  0
M  END
$$$$
