CSD_code = ILODOD | q = 1 | S = 0 | Stoichiometry = C14H32ClN4Ni(1+) | MND = 5
 OpenBabel04212202053D

 52 55  0  0  1  0  0  0  0  0999 V2000
    5.7828    2.2568   15.9971 Ni  0  0  0  0  0  0  0  0  0  0  0  0
    4.9485    0.3103   15.8053 Cl  0  0  0  0  0  0  0  0  0  0  0  0
    7.0946    2.2445   17.9096 N   0  0  2  0  0  4  0  0  0  0  0  0
    4.2258    2.9505   16.9823 N   0  0  1  0  0  4  0  0  0  0  0  0
    5.0060    3.5115   14.2084 N   0  0  1  0  0  4  0  0  0  0  0  0
    7.4269    1.7681   15.0322 N   0  0  1  0  0  4  0  0  0  0  0  0
    6.9875    3.4381   18.7529 C   0  0  0  0  0  0  0  0  0  0  0  0
    5.5346    3.8254   19.0317 C   0  0  0  0  0  0  0  0  0  0  0  0
    4.7216    4.1091   17.7660 C   0  0  0  0  0  0  0  0  0  0  0  0
    3.2841    3.4538   15.9537 C   0  0  0  0  0  0  0  0  0  0  0  0
    3.9578    4.2969   14.8751 C   0  0  0  0  0  0  0  0  0  0  0  0
    5.9983    4.3790   13.5679 C   0  0  0  0  0  0  0  0  0  0  0  0
    7.3013    3.6414   13.2564 C   0  0  0  0  0  0  0  0  0  0  0  0
    7.9742    3.0373   14.4917 C   0  0  0  0  0  0  0  0  0  0  0  0
    8.3660    1.2571   16.0593 C   0  0  0  0  0  0  0  0  0  0  0  0
    8.4313    2.1296   17.3094 C   0  0  0  0  0  0  0  0  0  0  0  0
    6.8385    1.0413   18.7147 C   0  0  0  0  0  0  0  0  0  0  0  0
    3.4458    2.0565   17.8516 C   0  0  0  0  0  0  0  0  0  0  0  0
    4.3742    2.6476   13.2002 C   0  0  0  0  0  0  0  0  0  0  0  0
    7.3839    0.7503   13.9714 C   0  0  0  0  0  0  0  0  0  0  0  0
    7.4672    4.2742   18.2348 H   0  0  0  0  0  0  0  0  0  0  0  0
    7.5123    3.2909   19.7071 H   0  0  0  0  0  0  0  0  0  0  0  0
    5.5553    4.7517   19.6093 H   0  0  0  0  0  0  0  0  0  0  0  0
    5.0431    3.0810   19.6537 H   0  0  0  0  0  0  0  0  0  0  0  0
    3.8461    4.7020   18.0646 H   0  0  0  0  0  0  0  0  0  0  0  0
    5.3383    4.7325   17.1113 H   0  0  0  0  0  0  0  0  0  0  0  0
    2.4944    4.0446   16.4357 H   0  0  0  0  0  0  0  0  0  0  0  0
    2.8177    2.5862   15.4830 H   0  0  0  0  0  0  0  0  0  0  0  0
    3.1922    4.6276   14.1591 H   0  0  0  0  0  0  0  0  0  0  0  0
    4.3972    5.1957   15.3127 H   0  0  0  0  0  0  0  0  0  0  0  0
    6.2307    5.2035   14.2489 H   0  0  0  0  0  0  0  0  0  0  0  0
    5.5978    4.8134   12.6415 H   0  0  0  0  0  0  0  0  0  0  0  0
    7.9954    4.3770   12.8451 H   0  0  0  0  0  0  0  0  0  0  0  0
    7.1512    2.8891   12.4855 H   0  0  0  0  0  0  0  0  0  0  0  0
    9.0278    2.8580   14.2366 H   0  0  0  0  0  0  0  0  0  0  0  0
    7.9471    3.7919   15.2837 H   0  0  0  0  0  0  0  0  0  0  0  0
    9.3708    1.1668   15.6266 H   0  0  0  0  0  0  0  0  0  0  0  0
    8.0295    0.2583   16.3437 H   0  0  0  0  0  0  0  0  0  0  0  0
    9.1464    1.6810   18.0134 H   0  0  0  0  0  0  0  0  0  0  0  0
    8.8072    3.1244   17.0608 H   0  0  0  0  0  0  0  0  0  0  0  0
    6.6470    0.1858   18.0691 H   0  0  0  0  0  0  0  0  0  0  0  0
    5.9684    1.1829   19.3478 H   0  0  0  0  0  0  0  0  0  0  0  0
    7.6924    0.8200   19.3655 H   0  0  0  0  0  0  0  0  0  0  0  0
    4.0903    1.5208   18.5397 H   0  0  0  0  0  0  0  0  0  0  0  0
    2.9344    1.3098   17.2484 H   0  0  0  0  0  0  0  0  0  0  0  0
    2.7032    2.6300   18.4147 H   0  0  0  0  0  0  0  0  0  0  0  0
    5.1210    2.2308   12.5319 H   0  0  0  0  0  0  0  0  0  0  0  0
    3.6625    3.2167   12.5913 H   0  0  0  0  0  0  0  0  0  0  0  0
    3.8552    1.8197   13.6805 H   0  0  0  0  0  0  0  0  0  0  0  0
    7.1569   -0.2220   14.4027 H   0  0  0  0  0  0  0  0  0  0  0  0
    8.3494    0.6968   13.4593 H   0  0  0  0  0  0  0  0  0  0  0  0
    6.6019    0.9682   13.2525 H   0  0  0  0  0  0  0  0  0  0  0  0
  1  4  1  0  0  0  0
  1  3  1  0  0  0  0
  2  1  1  0  0  0  0
  3 17  1  1  0  0  0
  3  7  1  0  0  0  0
  4  9  1  0  0  0  0
  4 18  1  1  0  0  0
  5 19  1  6  0  0  0
  5 11  1  0  0  0  0
  5  1  1  0  0  0  0
  6 20  1  6  0  0  0
  6  1  1  0  0  0  0
  6 15  1  0  0  0  0
  7  8  1  0  0  0  0
  7 22  1  0  0  0  0
  8 23  1  0  0  0  0
  8 24  1  0  0  0  0
  9 25  1  0  0  0  0
  9  8  1  0  0  0  0
 10 27  1  0  0  0  0
 10  4  1  0  0  0  0
 11 30  1  0  0  0  0
 11 10  1  0  0  0  0
 12  5  1  0  0  0  0
 12 31  1  0  0  0  0
 13 12  1  0  0  0  0
 13 14  1  0  0  0  0
 14  6  1  0  0  0  0
 14 36  1  0  0  0  0
 15 38  1  0  0  0  0
 15 16  1  0  0  0  0
 16  3  1  0  0  0  0
 16 39  1  0  0  0  0
 17 42  1  0  0  0  0
 17 43  1  0  0  0  0
 18 46  1  0  0  0  0
 18 44  1  0  0  0  0
 19 49  1  0  0  0  0
 20 50  1  0  0  0  0
 21  7  1  0  0  0  0
 26  9  1  0  0  0  0
 28 10  1  0  0  0  0
 29 11  1  0  0  0  0
 32 12  1  0  0  0  0
 33 13  1  0  0  0  0
 34 13  1  0  0  0  0
 35 14  1  0  0  0  0
 37 15  1  0  0  0  0
 40 16  1  0  0  0  0
 41 17  1  0  0  0  0
 45 18  1  0  0  0  0
 47 19  1  0  0  0  0
 48 19  1  0  0  0  0
 51 20  1  0  0  0  0
 52 20  1  0  0  0  0
M  END
$$$$
