CSD_code = IMACEE | q = 0 | S = 0 | Stoichiometry = C12H21Cl3SiTi | MND = 8
 OpenBabel04212202053D

 38 38  0  0  1  0  0  0  0  0999 V2000
    5.3380    3.3549    8.3641 Ti  0  0  0  0  0  0  0  0  0  0  0  0
    6.2697    5.2398    7.8747 Cl  0  0  0  0  0  0  0  0  0  0  0  0
    6.7460    1.9902    7.4562 Cl  0  0  0  0  0  0  0  0  0  0  0  0
    6.1117    3.2191   10.3859 Cl  0  0  0  0  0  0  0  0  0  0  0  0
    4.0353    2.8248    5.1194 Si  0  0  0  0  0  0  0  0  0  0  0  0
    5.4738    4.0223    4.7276 C   0  0  0  0  0  0  0  0  0  0  0  0
    2.4478    3.2568    4.1383 C   0  0  0  0  0  0  0  0  0  0  0  0
    4.5931    1.0848    4.5664 C   0  0  0  0  0  0  0  0  0  0  0  0
    3.6397    2.9716    6.9691 C   0  0  2  0  0  0  0  0  0  0  0  0
    3.3704    4.2020    7.6480 C   0  0  0  0  0  0  0  0  0  0  0  0
    3.2262    3.9285    9.0357 C   0  0  0  0  0  0  0  0  0  0  0  0
    3.3627    2.5233    9.2240 C   0  0  0  0  0  0  0  0  0  0  0  0
    3.6231    1.9355    7.9572 C   0  0  0  0  0  0  0  0  0  0  0  0
    3.0938    5.5404    7.0287 C   0  0  0  0  0  0  0  0  0  0  0  0
    2.9136    4.9386   10.0995 C   0  0  0  0  0  0  0  0  0  0  0  0
    3.1598    1.7819   10.5122 C   0  0  0  0  0  0  0  0  0  0  0  0
    3.7021    0.4597    7.7009 C   0  0  0  0  0  0  0  0  0  0  0  0
    5.6732    4.0639    3.6608 H   0  0  0  0  0  0  0  0  0  0  0  0
    5.2872    5.0377    5.0670 H   0  0  0  0  0  0  0  0  0  0  0  0
    6.3845    3.6810    5.2191 H   0  0  0  0  0  0  0  0  0  0  0  0
    2.6375    3.1719    3.0738 H   0  0  0  0  0  0  0  0  0  0  0  0
    1.6391    2.5744    4.3804 H   0  0  0  0  0  0  0  0  0  0  0  0
    2.0897    4.2630    4.3267 H   0  0  0  0  0  0  0  0  0  0  0  0
    4.8400    1.1084    3.5093 H   0  0  0  0  0  0  0  0  0  0  0  0
    5.4825    0.7650    5.1003 H   0  0  0  0  0  0  0  0  0  0  0  0
    3.8240    0.3320    4.7001 H   0  0  0  0  0  0  0  0  0  0  0  0
    3.2032    5.4990    5.9494 H   0  0  0  0  0  0  0  0  0  0  0  0
    2.0705    5.8429    7.2612 H   0  0  0  0  0  0  0  0  0  0  0  0
    3.7708    6.3045    7.4151 H   0  0  0  0  0  0  0  0  0  0  0  0
    3.4657    4.7185   11.0140 H   0  0  0  0  0  0  0  0  0  0  0  0
    3.1859    5.9393    9.7661 H   0  0  0  0  0  0  0  0  0  0  0  0
    1.8464    4.9300   10.3326 H   0  0  0  0  0  0  0  0  0  0  0  0
    3.1873    2.4650   11.3580 H   0  0  0  0  0  0  0  0  0  0  0  0
    2.1882    1.2825   10.5049 H   0  0  0  0  0  0  0  0  0  0  0  0
    3.9348    1.0286   10.6584 H   0  0  0  0  0  0  0  0  0  0  0  0
    4.6522    0.1869    7.2429 H   0  0  0  0  0  0  0  0  0  0  0  0
    3.5967   -0.0941    8.6318 H   0  0  0  0  0  0  0  0  0  0  0  0
    2.8988    0.1571    7.0286 H   0  0  0  0  0  0  0  0  0  0  0  0
  1  4  1  0  0  0  0
  2  1  1  0  0  0  0
  3  1  1  0  0  0  0
  6 19  1  0  0  0  0
  6  5  1  0  0  0  0
  6 20  1  0  0  0  0
  7 23  1  0  0  0  0
  7 22  1  0  0  0  0
  7  5  1  0  0  0  0
  8 26  1  0  0  0  0
  8 25  1  0  0  0  0
  8  5  1  0  0  0  0
  9  5  1  6  0  0  0
  9 10  1  0  0  0  0
  9 13  1  0  0  0  0
  9  1  1  0  0  0  0
 10 11  2  0  0  0  0
 11 12  1  0  0  0  0
 11 15  1  0  0  0  0
 12 16  1  0  0  0  0
 13 12  2  0  0  0  0
 14 28  1  0  0  0  0
 14 29  1  0  0  0  0
 14 10  1  0  0  0  0
 15 32  1  0  0  0  0
 15 30  1  0  0  0  0
 16 35  1  0  0  0  0
 16 33  1  0  0  0  0
 17 13  1  0  0  0  0
 17 37  1  0  0  0  0
 18  6  1  0  0  0  0
 21  7  1  0  0  0  0
 24  8  1  0  0  0  0
 27 14  1  0  0  0  0
 31 15  1  0  0  0  0
 34 16  1  0  0  0  0
 36 17  1  0  0  0  0
 38 17  1  0  0  0  0
M  END
$$$$
