CSD_code = IMENUK | q = 0 | S = 0 | Stoichiometry = C20H41ClNP2Rh | MND = 5
 OpenBabel04212202053D

 66 63  0  0  0  0  0  0  0  0999 V2000
   -2.5658  -13.9155   -6.5000 Rh  0  0  0  0  0  0  0  0  0  0  0  0
   -4.4482  -13.7328   -7.8063 P   0  0  0  0  0  0  0  0  0  0  0  0
   -1.7737  -14.2730   -8.6552 P   0  0  0  0  0  0  0  0  0  0  0  0
   -3.6304  -13.0865   -4.6616 Cl  0  0  0  0  0 15  0  0  0  0  0  0
   -1.6057  -15.4286   -5.3684 C   0  0  0  0  0  0  0  0  0  0  0  0
   -1.2212  -16.2436   -5.9778 H   0  0  0  0  0  0  0  0  0  0  0  0
   -2.2459  -15.7286   -4.5426 H   0  0  0  0  0  0  0  0  0  0  0  0
   -0.8402  -14.2582   -5.2323 C   0  0  0  0  0  3  0  0  0  0  0  0
   -0.9298  -13.6514   -4.3317 H   0  0  0  0  0  0  0  0  0  0  0  0
    0.3738  -14.1065   -5.9207 C   0  0  0  0  0  0  0  0  0  0  0  0
    1.3845  -13.9927   -6.4619 N   0  0  0  0  0  0  0  0  0  0  0  0
   -3.5105  -14.1366   -9.3795 C   0  0  0  0  0  0  0  0  0  0  0  0
   -3.6114  -13.3810  -10.1532 H   0  0  0  0  0  0  0  0  0  0  0  0
   -3.8335  -15.0915   -9.7904 H   0  0  0  0  0  0  0  0  0  0  0  0
   -5.6696  -15.1665   -7.5314 C   0  0  0  0  0  0  0  0  0  0  0  0
   -6.3198  -14.9958   -6.1552 C   0  0  0  0  0  0  0  0  0  0  0  0
   -6.7019  -15.9548   -5.8081 H   0  0  0  0  0  0  0  0  0  0  0  0
   -7.1519  -14.3016   -6.1689 H   0  0  0  0  0  0  0  0  0  0  0  0
   -5.5826  -14.6441   -5.4340 H   0  0  0  0  0  0  0  0  0  0  0  0
   -6.7216  -15.3363   -8.6232 C   0  0  0  0  0  0  0  0  0  0  0  0
   -6.2671  -15.3658   -9.6129 H   0  0  0  0  0  0  0  0  0  0  0  0
   -7.4608  -14.5401   -8.5984 H   0  0  0  0  0  0  0  0  0  0  0  0
   -7.2478  -16.2781   -8.4685 H   0  0  0  0  0  0  0  0  0  0  0  0
   -4.8101  -16.4307   -7.4585 C   0  0  0  0  0  0  0  0  0  0  0  0
   -3.9416  -16.2500   -6.8170 H   0  0  0  0  0  0  0  0  0  0  0  0
   -4.4760  -16.7458   -8.4409 H   0  0  0  0  0  0  0  0  0  0  0  0
   -5.3859  -17.2491   -7.0293 H   0  0  0  0  0  0  0  0  0  0  0  0
   -5.4234  -12.1462   -8.2033 C   0  0  0  0  0  0  0  0  0  0  0  0
   -5.9880  -12.0965   -9.6229 C   0  0  0  0  0  0  0  0  0  0  0  0
   -6.6295  -11.2204   -9.7161 H   0  0  0  0  0  0  0  0  0  0  0  0
   -6.5815  -12.9739   -9.8595 H   0  0  0  0  0  0  0  0  0  0  0  0
   -5.2005  -12.0020  -10.3678 H   0  0  0  0  0  0  0  0  0  0  0  0
   -4.4483  -10.9842   -8.0061 C   0  0  0  0  0  0  0  0  0  0  0  0
   -4.9659  -10.0355   -8.1444 H   0  0  0  0  0  0  0  0  0  0  0  0
   -3.6304  -11.0237   -8.7202 H   0  0  0  0  0  0  0  0  0  0  0  0
   -4.0445  -11.0042   -6.9937 H   0  0  0  0  0  0  0  0  0  0  0  0
   -6.5436  -11.9648   -7.1800 C   0  0  0  0  0  0  0  0  0  0  0  0
   -6.1673  -12.1517   -6.1760 H   0  0  0  0  0  0  0  0  0  0  0  0
   -7.3859  -12.6198   -7.3833 H   0  0  0  0  0  0  0  0  0  0  0  0
   -6.9085  -10.9386   -7.2179 H   0  0  0  0  0  0  0  0  0  0  0  0
   -1.0409  -15.7600   -9.6065 C   0  0  0  0  0  0  0  0  0  0  0  0
   -1.0542  -15.5686  -11.1210 C   0  0  0  0  0  0  0  0  0  0  0  0
   -0.7409  -16.4944  -11.6031 H   0  0  0  0  0  0  0  0  0  0  0  0
   -0.3720  -14.7852  -11.4365 H   0  0  0  0  0  0  0  0  0  0  0  0
   -2.0535  -15.3258  -11.4793 H   0  0  0  0  0  0  0  0  0  0  0  0
    0.3744  -16.0506   -9.0997 C   0  0  0  0  0  0  0  0  0  0  0  0
    0.4337  -15.9174   -8.0212 H   0  0  0  0  0  0  0  0  0  0  0  0
    1.1171  -15.4108   -9.5600 H   0  0  0  0  0  0  0  0  0  0  0  0
    0.6452  -17.0807   -9.3286 H   0  0  0  0  0  0  0  0  0  0  0  0
   -1.8981  -16.9810   -9.2600 C   0  0  0  0  0  0  0  0  0  0  0  0
   -1.3910  -17.8897   -9.5812 H   0  0  0  0  0  0  0  0  0  0  0  0
   -2.8589  -16.9577   -9.7675 H   0  0  0  0  0  0  0  0  0  0  0  0
   -2.0603  -17.0461   -8.1861 H   0  0  0  0  0  0  0  0  0  0  0  0
   -0.8738  -12.6753   -9.2309 C   0  0  0  0  0  0  0  0  0  0  0  0
   -1.4799  -12.0544  -10.4927 C   0  0  0  0  0  0  0  0  0  0  0  0
   -2.4567  -11.6146  -10.3065 H   0  0  0  0  0  0  0  0  0  0  0  0
   -1.5694  -12.7818  -11.2965 H   0  0  0  0  0  0  0  0  0  0  0  0
   -0.8275  -11.2535  -10.8397 H   0  0  0  0  0  0  0  0  0  0  0  0
    0.6222  -12.8841   -9.4752 C   0  0  0  0  0  0  0  0  0  0  0  0
    0.8197  -13.4278  -10.3946 H   0  0  0  0  0  0  0  0  0  0  0  0
    1.0862  -13.3945   -8.6350 H   0  0  0  0  0  0  0  0  0  0  0  0
    1.0945  -11.9058   -9.5675 H   0  0  0  0  0  0  0  0  0  0  0  0
   -0.9814  -11.6966   -8.0472 C   0  0  0  0  0  0  0  0  0  0  0  0
   -0.9098  -10.6666   -8.3931 H   0  0  0  0  0  0  0  0  0  0  0  0
   -0.1652  -11.8742   -7.3487 H   0  0  0  0  0  0  0  0  0  0  0  0
   -1.9253  -11.8107   -7.4977 H   0  0  0  0  0  0  0  0  0  0  0  0
  1  5  1  0  0  0  0
  2 15  1  0  0  0  0
  5  8  1  0  0  0  0
  5  7  1  0  0  0  0
  6  5  1  0  0  0  0
  8  9  1  0  0  0  0
 10  8  1  0  0  0  0
 11 10  3  0  0  0  0
 12  3  1  0  0  0  0
 12  2  1  0  0  0  0
 13 12  1  0  0  0  0
 14 12  1  0  0  0  0
 15 24  1  0  0  0  0
 15 16  1  0  0  0  0
 16 17  1  0  0  0  0
 16 19  1  0  0  0  0
 18 16  1  0  0  0  0
 20 22  1  0  0  0  0
 20 23  1  0  0  0  0
 20 15  1  0  0  0  0
 21 20  1  0  0  0  0
 24 27  1  0  0  0  0
 24 25  1  0  0  0  0
 26 24  1  0  0  0  0
 28 33  1  0  0  0  0
 28  2  1  0  0  0  0
 28 37  1  0  0  0  0
 29 28  1  0  0  0  0
 30 29  1  0  0  0  0
 31 29  1  0  0  0  0
 32 29  1  0  0  0  0
 33 36  1  0  0  0  0
 34 33  1  0  0  0  0
 35 33  1  0  0  0  0
 37 38  1  0  0  0  0
 39 37  1  0  0  0  0
 40 37  1  0  0  0  0
 41 50  1  0  0  0  0
 41 46  1  0  0  0  0
 41  3  1  0  0  0  0
 42 41  1  0  0  0  0
 43 42  1  0  0  0  0
 44 42  1  0  0  0  0
 45 42  1  0  0  0  0
 46 47  1  0  0  0  0
 48 46  1  0  0  0  0
 49 46  1  0  0  0  0
 50 53  1  0  0  0  0
 51 50  1  0  0  0  0
 52 50  1  0  0  0  0
 54  3  1  0  0  0  0
 54 63  1  0  0  0  0
 55 56  1  0  0  0  0
 55 54  1  0  0  0  0
 57 55  1  0  0  0  0
 58 55  1  0  0  0  0
 59 54  1  0  0  0  0
 59 61  1  0  0  0  0
 60 59  1  0  0  0  0
 62 59  1  0  0  0  0
 63 66  1  0  0  0  0
 63 65  1  0  0  0  0
 64 63  1  0  0  0  0
M  END
$$$$
