CSD_code = IMEPAS | q = 0 | S = 0 | Stoichiometry = C21H40ClN2P2Rh | MND = 5
 OpenBabel04212202053D

 67 64  0  0  1  0  0  0  0  0999 V2000
    6.6418    9.1854    3.3659 Rh  0  0  0  0  0  0  0  0  0  0  0  0
    8.1994   10.3413    4.6057 P   0  0  0  0  0  0  0  0  0  0  0  0
    5.3649   10.6901    4.5907 P   0  0  0  0  0  0  0  0  0  0  0  0
    8.1344    7.5493    2.8322 Cl  0  0  0  0  0 15  0  0  0  0  0  0
    5.7815    9.4267    1.4524 C   0  0  2  0  0  0  0  0  0  0  0  0
    5.1111   10.2838    1.3576 H   0  0  0  0  0  0  0  0  0  0  0  0
    5.2759    8.2180    2.0052 C   0  0  0  0  0  3  0  0  0  0  0  0
    5.6808    7.2617    1.6758 H   0  0  0  0  0  0  0  0  0  0  0  0
    6.8381    9.4183    0.5130 C   0  0  0  0  0  0  0  0  0  0  0  0
    7.6667    9.4684   -0.2816 N   0  0  0  0  0  0  0  0  0  0  0  0
    3.9516    8.1878    2.4669 C   0  0  0  0  0  0  0  0  0  0  0  0
    2.8622    8.1841    2.8418 N   0  0  0  0  0  0  0  0  0  0  0  0
    6.8971   11.4414    5.3926 C   0  0  0  0  0  0  0  0  0  0  0  0
    7.0260   12.4817    5.0980 H   0  0  0  0  0  0  0  0  0  0  0  0
    6.8911   11.3922    6.4783 H   0  0  0  0  0  0  0  0  0  0  0  0
    9.3007   11.4687    3.5406 C   0  0  0  0  0  0  0  0  0  0  0  0
   10.1437   12.4714    4.3226 C   0  0  0  0  0  0  0  0  0  0  0  0
   10.5926   13.1769    3.6239 H   0  0  0  0  0  0  0  0  0  0  0  0
   10.9526   11.9874    4.8626 H   0  0  0  0  0  0  0  0  0  0  0  0
    9.5350   13.0389    5.0260 H   0  0  0  0  0  0  0  0  0  0  0  0
   10.1739   10.5772    2.6539 C   0  0  0  0  0  0  0  0  0  0  0  0
   10.5927   11.1687    1.8415 H   0  0  0  0  0  0  0  0  0  0  0  0
    9.5734    9.7827    2.2119 H   0  0  0  0  0  0  0  0  0  0  0  0
   10.9998   10.1284    3.1932 H   0  0  0  0  0  0  0  0  0  0  0  0
    8.3614   12.2334    2.6068 C   0  0  0  0  0  0  0  0  0  0  0  0
    7.8576   13.0466    3.1192 H   0  0  0  0  0  0  0  0  0  0  0  0
    7.6223   11.5519    2.1794 H   0  0  0  0  0  0  0  0  0  0  0  0
    8.9289   12.6642    1.7842 H   0  0  0  0  0  0  0  0  0  0  0  0
    9.2172    9.6494    6.0560 C   0  0  0  0  0  0  0  0  0  0  0  0
    9.5086   10.6638    7.1612 C   0  0  0  0  0  0  0  0  0  0  0  0
   10.1411   10.1906    7.9117 H   0  0  0  0  0  0  0  0  0  0  0  0
    8.5993   10.9900    7.6617 H   0  0  0  0  0  0  0  0  0  0  0  0
   10.0297   11.5397    6.7902 H   0  0  0  0  0  0  0  0  0  0  0  0
    8.4041    8.4927    6.6401 C   0  0  0  0  0  0  0  0  0  0  0  0
    8.2031    7.7506    5.8674 H   0  0  0  0  0  0  0  0  0  0  0  0
    7.4650    8.8377    7.0647 H   0  0  0  0  0  0  0  0  0  0  0  0
    8.9689    8.0060    7.4343 H   0  0  0  0  0  0  0  0  0  0  0  0
   10.5175    9.0523    5.5190 C   0  0  0  0  0  0  0  0  0  0  0  0
   10.9656    8.4131    6.2793 H   0  0  0  0  0  0  0  0  0  0  0  0
   11.2432    9.8202    5.2670 H   0  0  0  0  0  0  0  0  0  0  0  0
   10.3121    8.4401    4.6425 H   0  0  0  0  0  0  0  0  0  0  0  0
    4.2894   12.2120    4.1699 C   0  0  0  0  0  0  0  0  0  0  0  0
    3.0114   11.7509    3.4588 C   0  0  0  0  0  0  0  0  0  0  0  0
    2.2131   11.5279    4.1570 H   0  0  0  0  0  0  0  0  0  0  0  0
    3.1941   10.8601    2.8596 H   0  0  0  0  0  0  0  0  0  0  0  0
    2.6510   12.5340    2.7935 H   0  0  0  0  0  0  0  0  0  0  0  0
    3.9646   13.0660    5.3932 C   0  0  0  0  0  0  0  0  0  0  0  0
    4.8719   13.3659    5.9157 H   0  0  0  0  0  0  0  0  0  0  0  0
    3.3167   12.5465    6.0923 H   0  0  0  0  0  0  0  0  0  0  0  0
    3.4483   13.9703    5.0721 H   0  0  0  0  0  0  0  0  0  0  0  0
    5.0789   13.0718    3.1790 C   0  0  0  0  0  0  0  0  0  0  0  0
    4.4292   13.8404    2.7625 H   0  0  0  0  0  0  0  0  0  0  0  0
    5.4621   12.4731    2.3554 H   0  0  0  0  0  0  0  0  0  0  0  0
    5.9075   13.5833    3.6607 H   0  0  0  0  0  0  0  0  0  0  0  0
    4.4958    9.7030    5.9910 C   0  0  0  0  0  0  0  0  0  0  0  0
    4.8371   10.2162    7.3928 C   0  0  0  0  0  0  0  0  0  0  0  0
    4.6822   11.2893    7.4796 H   0  0  0  0  0  0  0  0  0  0  0  0
    5.8609    9.9849    7.6769 H   0  0  0  0  0  0  0  0  0  0  0  0
    4.1851    9.7261    8.1151 H   0  0  0  0  0  0  0  0  0  0  0  0
    4.9635    8.2459    5.8259 C   0  0  0  0  0  0  0  0  0  0  0  0
    4.8809    7.7101    6.7702 H   0  0  0  0  0  0  0  0  0  0  0  0
    6.0038    8.1773    5.4839 H   0  0  0  0  0  0  0  0  0  0  0  0
    4.3348    7.7372    5.0964 H   0  0  0  0  0  0  0  0  0  0  0  0
    2.9727    9.6774    5.8472 C   0  0  0  0  0  0  0  0  0  0  0  0
    2.5781    8.9245    6.5297 H   0  0  0  0  0  0  0  0  0  0  0  0
    2.6787    9.3912    4.8408 H   0  0  0  0  0  0  0  0  0  0  0  0
    2.5146   10.6260    6.1108 H   0  0  0  0  0  0  0  0  0  0  0  0
  2 13  1  0  0  0  0
  2 29  1  0  0  0  0
  3 13  1  0  0  0  0
  3 55  1  0  0  0  0
  5  6  1  6  0  0  0
  5  7  1  0  0  0  0
  5  1  1  0  0  0  0
  7 11  1  0  0  0  0
  8  7  1  0  0  0  0
  9  5  1  0  0  0  0
 10  9  3  0  0  0  0
 11 12  3  0  0  0  0
 13 15  1  0  0  0  0
 14 13  1  0  0  0  0
 16 17  1  0  0  0  0
 16  2  1  0  0  0  0
 17 19  1  0  0  0  0
 17 20  1  0  0  0  0
 18 17  1  0  0  0  0
 21 24  1  0  0  0  0
 21 16  1  0  0  0  0
 22 21  1  0  0  0  0
 23 21  1  0  0  0  0
 25 26  1  0  0  0  0
 25 16  1  0  0  0  0
 27 25  1  0  0  0  0
 28 25  1  0  0  0  0
 29 34  1  0  0  0  0
 29 30  1  0  0  0  0
 30 32  1  0  0  0  0
 30 31  1  0  0  0  0
 33 30  1  0  0  0  0
 34 36  1  0  0  0  0
 34 37  1  0  0  0  0
 35 34  1  0  0  0  0
 38 29  1  0  0  0  0
 38 39  1  0  0  0  0
 40 38  1  0  0  0  0
 41 38  1  0  0  0  0
 42  3  1  0  0  0  0
 42 47  1  0  0  0  0
 43 44  1  0  0  0  0
 43 42  1  0  0  0  0
 45 43  1  0  0  0  0
 46 43  1  0  0  0  0
 47 48  1  0  0  0  0
 47 49  1  0  0  0  0
 50 47  1  0  0  0  0
 51 54  1  0  0  0  0
 51 42  1  0  0  0  0
 52 51  1  0  0  0  0
 53 51  1  0  0  0  0
 55 56  1  0  0  0  0
 56 57  1  0  0  0  0
 56 58  1  0  0  0  0
 56 59  1  0  0  0  0
 60 55  1  0  0  0  0
 60 61  1  0  0  0  0
 62 60  1  0  0  0  0
 63 60  1  0  0  0  0
 64 55  1  0  0  0  0
 64 67  1  0  0  0  0
 64 65  1  0  0  0  0
 66 64  1  0  0  0  0
M  END
$$$$
