CSD_code = IMESAV | q = 0 | S = 0 | Stoichiometry = C26H13BCl2F15NbOSi | MND = 8
 OpenBabel04212202053D

 60 63  0  0  1  0  0  0  0  0999 V2000
    3.3085    1.2034    9.3251 Nb  0  0  0  0  0  0  0  0  0  0  0  0
    4.9010    2.3558   10.4609 Cl  0  0  0  0  0  0  0  0  0  0  0  0
    1.8005    0.9809   11.0045 Cl  0  0  0  0  0  0  0  0  0  0  0  0
    2.5180    4.8610    9.3221 Si  0  0  0  0  0  0  0  0  0  0  0  0
    6.6693   -3.3466   10.7287 F   0  0  0  0  0  0  0  0  0  0  0  0
    9.3214   -2.8962   10.6804 F   0  0  0  0  0  0  0  0  0  0  0  0
   10.3317   -0.7552    9.3227 F   0  0  0  0  0  0  0  0  0  0  0  0
    8.6202    0.9341    8.0074 F   0  0  0  0  0  0  0  0  0  0  0  0
    5.9725    0.4828    8.0300 F   0  0  0  0  0  0  0  0  0  0  0  0
    4.4342   -0.2360   11.8476 F   0  0  0  0  0  0  0  0  0  0  0  0
    3.5013   -1.1564   14.2137 F   0  0  0  0  0  0  0  0  0  0  0  0
    2.6587   -3.7524   14.4440 F   0  0  0  0  0  0  0  0  0  0  0  0
    2.7475   -5.3923   12.2667 F   0  0  0  0  0  0  0  0  0  0  0  0
    3.6536   -4.4735    9.9053 F   0  0  0  0  0  0  0  0  0  0  0  0
    1.9088   -1.4529    8.6101 F   0  0  0  0  0  0  0  0  0  0  0  0
    0.7443   -2.6073    6.4651 F   0  0  0  0  0  0  0  0  0  0  0  0
    2.1971   -4.2523    4.8235 F   0  0  0  0  0  0  0  0  0  0  0  0
    4.8433   -4.6679    5.3388 F   0  0  0  0  0  0  0  0  0  0  0  0
    6.0240   -3.4724    7.4450 F   0  0  0  0  0  0  0  0  0  0  0  0
    4.0244   -0.3421    9.3655 O   0  0  0  0  0  0  0  0  0  0  0  0
    2.5606    3.2395    8.3295 C   0  0  0  0  0  0  0  0  0  0  0  0
    3.6277    2.7370    7.5367 C   0  0  2  0  0  0  0  0  0  0  0  0
    3.2056    1.5373    6.9071 C   0  0  0  0  0  0  0  0  0  0  0  0
    1.8743    1.2848    7.3162 C   0  0  0  0  0  0  0  0  0  0  0  0
    1.4857    2.3331    8.1862 C   0  0  0  0  0  0  0  0  0  0  0  0
    4.2228    5.6964    9.1725 C   0  0  0  0  0  0  0  0  0  0  0  0
    1.1515    5.9252    8.5213 C   0  0  0  0  0  0  0  0  0  0  0  0
    2.0665    4.4457   11.1293 C   0  0  0  0  0  0  0  0  0  0  0  0
    6.2295   -1.4627    9.3779 C   0  0  0  0  0  0  0  0  0  0  0  0
    7.1248   -2.2932   10.0417 C   0  0  0  0  0  0  0  0  0  0  0  0
    8.4992   -2.0730   10.0287 C   0  0  0  0  0  0  0  0  0  0  0  0
    9.0184   -0.9814    9.3394 C   0  0  0  0  0  0  0  0  0  0  0  0
    8.1495   -0.1254    8.6715 C   0  0  0  0  0  0  0  0  0  0  0  0
    6.7851   -0.3832    8.7052 C   0  0  0  0  0  0  0  0  0  0  0  0
    4.0846   -2.3321   10.8044 C   0  0  0  0  0  0  0  0  0  0  0  0
    4.0191   -1.5294   11.9350 C   0  0  0  0  0  0  0  0  0  0  0  0
    3.5480   -1.9774   13.1622 C   0  0  0  0  0  0  0  0  0  0  0  0
    3.1181   -3.2955   13.2791 C   0  0  0  0  0  0  0  0  0  0  0  0
    3.1664   -4.1296   12.1666 C   0  0  0  0  0  0  0  0  0  0  0  0
    3.6406   -3.6393   10.9529 C   0  0  0  0  0  0  0  0  0  0  0  0
    4.0051   -2.4448    8.1038 C   0  0  0  0  0  0  0  0  0  0  0  0
    2.6613   -2.2605    7.8073 C   0  0  0  0  0  0  0  0  0  0  0  0
    2.0352   -2.8497    6.7176 C   0  0  0  0  0  0  0  0  0  0  0  0
    2.7741   -3.6783    5.8792 C   0  0  0  0  0  0  0  0  0  0  0  0
    4.1236   -3.8875    6.1457 C   0  0  0  0  0  0  0  0  0  0  0  0
    4.7181   -3.2666    7.2420 C   0  0  0  0  0  0  0  0  0  0  0  0
    4.6035   -1.6523    9.4051 B   0  0  0  0  0  0  0  0  0  0  0  0
    4.5508    3.2597    7.3196 H   0  0  0  0  0  0  0  0  0  0  0  0
    3.7484    0.9993    6.1405 H   0  0  0  0  0  0  0  0  0  0  0  0
    1.2180    0.5248    6.9137 H   0  0  0  0  0  0  0  0  0  0  0  0
    0.4840    2.4771    8.5727 H   0  0  0  0  0  0  0  0  0  0  0  0
    5.0195    5.0518    9.5333 H   0  0  0  0  0  0  0  0  0  0  0  0
    4.2483    6.6088    9.7591 H   0  0  0  0  0  0  0  0  0  0  0  0
    4.4471    5.9674    8.1447 H   0  0  0  0  0  0  0  0  0  0  0  0
    0.1723    5.4648    8.6095 H   0  0  0  0  0  0  0  0  0  0  0  0
    1.3410    6.0958    7.4661 H   0  0  0  0  0  0  0  0  0  0  0  0
    1.1012    6.8941    9.0057 H   0  0  0  0  0  0  0  0  0  0  0  0
    1.1265    3.9011   11.1921 H   0  0  0  0  0  0  0  0  0  0  0  0
    1.9546    5.3512   11.7179 H   0  0  0  0  0  0  0  0  0  0  0  0
    2.8332    3.8375   11.6074 H   0  0  0  0  0  0  0  0  0  0  0  0
  1 20  1  0  0  0  0
  1  2  1  0  0  0  0
  1  3  1  0  0  0  0
  4 28  1  0  0  0  0
  7 32  1  0  0  0  0
  8 33  1  0  0  0  0
  9 34  1  0  0  0  0
 10 36  1  0  0  0  0
 14 40  1  0  0  0  0
 16 43  1  0  0  0  0
 17 44  1  0  0  0  0
 18 45  1  0  0  0  0
 20 47  1  0  0  0  0
 21  4  1  0  0  0  0
 22 48  1  6  0  0  0
 22 21  1  0  0  0  0
 22  1  1  0  0  0  0
 23 24  2  0  0  0  0
 23 22  1  0  0  0  0
 24 25  1  0  0  0  0
 25 21  2  0  0  0  0
 25 51  1  0  0  0  0
 26  4  1  0  0  0  0
 26 52  1  0  0  0  0
 26 53  1  0  0  0  0
 27 55  1  0  0  0  0
 27 57  1  0  0  0  0
 27  4  1  0  0  0  0
 28 58  1  0  0  0  0
 28 60  1  0  0  0  0
 28 59  1  0  0  0  0
 29 47  1  0  0  0  0
 29 30  1  0  0  0  0
 30  5  1  0  0  0  0
 31 30  2  0  0  0  0
 31  6  1  0  0  0  0
 32 31  1  0  0  0  0
 33 34  1  0  0  0  0
 33 32  2  0  0  0  0
 34 29  2  0  0  0  0
 35 40  2  0  0  0  0
 35 36  1  0  0  0  0
 36 37  2  0  0  0  0
 37 38  1  0  0  0  0
 37 11  1  0  0  0  0
 38 12  1  0  0  0  0
 39 13  1  0  0  0  0
 39 38  2  0  0  0  0
 40 39  1  0  0  0  0
 41 47  1  0  0  0  0
 42 41  1  0  0  0  0
 42 15  1  0  0  0  0
 43 42  2  0  0  0  0
 44 45  2  0  0  0  0
 44 43  1  0  0  0  0
 45 46  1  0  0  0  0
 46 19  1  0  0  0  0
 46 41  2  0  0  0  0
 47 35  1  0  0  0  0
 49 23  1  0  0  0  0
 50 24  1  0  0  0  0
 54 26  1  0  0  0  0
 56 27  1  0  0  0  0
M  END
$$$$
