CSD_code = IMEVAY | q = 0 | S = 0 | Stoichiometry = C20H21Cl2NO2PRe | MND = 6
 OpenBabel04212202053D

 48 51  0  0  0  0  0  0  0  0999 V2000
    2.3913    0.9139    1.6552 Re  0  0  0  0  0  0  0  0  0  0  0  0
    1.3106   -0.2138    1.1029 O   0  0  0  0  0  1  0  0  0  0  0  0
    1.5507    0.9024    3.8530 Cl  0  0  0  0  0  0  0  0  0  0  0  0
    4.0597   -0.6103    2.1393 Cl  0  0  0  0  0  0  0  0  0  0  0  0
    3.1826    1.4596   -0.6245 P   0  0  0  0  0  4  0  0  0  0  0  0
    1.9181    2.6152   -1.3658 C   0  0  0  0  0  0  0  0  0  0  0  0
    2.2370    2.8849   -2.3761 H   0  0  0  0  0  0  0  0  0  0  0  0
    1.0101    2.0065   -1.4489 H   0  0  0  0  0  0  0  0  0  0  0  0
    1.6964    3.8369   -0.5244 C   0  0  0  0  0  0  0  0  0  0  0  0
    2.1367    5.0807   -0.9614 C   0  0  0  0  0  0  0  0  0  0  0  0
    2.5758    5.1703   -1.9442 H   0  0  0  0  0  0  0  0  0  0  0  0
    2.0194    6.2111   -0.1735 C   0  0  0  0  0  0  0  0  0  0  0  0
    2.3755    7.1615   -0.5395 H   0  0  0  0  0  0  0  0  0  0  0  0
    1.4532    6.1139    1.0858 C   0  0  0  0  0  0  0  0  0  0  0  0
    1.3732    6.9848    1.7179 H   0  0  0  0  0  0  0  0  0  0  0  0
    0.9746    4.8958    1.5272 C   0  0  0  0  0  0  0  0  0  0  0  0
    0.5218    4.8106    2.5047 H   0  0  0  0  0  0  0  0  0  0  0  0
    1.0744    3.7582    0.7313 C   0  0  0  0  0  0  0  0  0  0  0  0
    0.6045    2.5300    1.2276 N   0  0  0  0  0  4  0  0  0  0  0  0
    0.0273    1.9939    0.5862 H   0  0  0  0  0  0  0  0  0  0  0  0
    0.1544    2.6066    2.1373 H   0  0  0  0  0  0  0  0  0  0  0  0
    3.2841    0.1585   -1.8858 C   0  0  0  0  0  0  0  0  0  0  0  0
    2.6472   -1.0532   -1.6386 C   0  0  0  0  0  0  0  0  0  0  0  0
    2.1266   -1.1934   -0.6994 H   0  0  0  0  0  0  0  0  0  0  0  0
    2.7020   -2.0618   -2.5839 C   0  0  0  0  0  0  0  0  0  0  0  0
    2.2112   -3.0039   -2.3928 H   0  0  0  0  0  0  0  0  0  0  0  0
    3.3934   -1.8657   -3.7685 C   0  0  0  0  0  0  0  0  0  0  0  0
    3.4394   -2.6549   -4.5041 H   0  0  0  0  0  0  0  0  0  0  0  0
    4.0367   -0.6617   -4.0099 C   0  0  0  0  0  0  0  0  0  0  0  0
    4.5830   -0.5150   -4.9300 H   0  0  0  0  0  0  0  0  0  0  0  0
    3.9867    0.3521   -3.0711 C   0  0  0  0  0  0  0  0  0  0  0  0
    4.5006    1.2864   -3.2509 H   0  0  0  0  0  0  0  0  0  0  0  0
    4.7973    2.2791   -0.6978 C   0  0  0  0  0  0  0  0  0  0  0  0
    5.7906    1.7242    0.1086 C   0  0  0  0  0  0  0  0  0  0  0  0
    5.5565    0.8652    0.7266 H   0  0  0  0  0  0  0  0  0  0  0  0
    7.0583    2.2758    0.1210 C   0  0  0  0  0  0  0  0  0  0  0  0
    7.8237    1.8449    0.7487 H   0  0  0  0  0  0  0  0  0  0  0  0
    7.3442    3.3796   -0.6672 C   0  0  0  0  0  0  0  0  0  0  0  0
    8.3328    3.8140   -0.6536 H   0  0  0  0  0  0  0  0  0  0  0  0
    6.3613    3.9264   -1.4753 C   0  0  0  0  0  0  0  0  0  0  0  0
    6.5842    4.7833   -2.0943 H   0  0  0  0  0  0  0  0  0  0  0  0
    5.0902    3.3795   -1.4950 C   0  0  0  0  0  0  0  0  0  0  0  0
    4.3360    3.8118   -2.1337 H   0  0  0  0  0  0  0  0  0  0  0  0
    3.3662    2.3063    2.1317 O   0  0  0  0  0  0  0  0  0  0  0  0
    3.9232    3.2377    2.9542 C   0  0  0  0  0  0  0  0  0  0  0  0
    3.4253    3.1955    3.9350 H   0  0  0  0  0  0  0  0  0  0  0  0
    3.8131    4.2471    2.5317 H   0  0  0  0  0  0  0  0  0  0  0  0
    4.9925    3.0264    3.0898 H   0  0  0  0  0  0  0  0  0  0  0  0
  1 44  1  0  0  0  0
  1  4  1  0  0  0  0
  1  3  1  0  0  0  0
  2  1  1  0  0  0  0
  5  1  1  0  0  0  0
  6  5  1  0  0  0  0
  6  9  1  0  0  0  0
  7  6  1  0  0  0  0
  8  6  1  0  0  0  0
  9 18  1  0  0  0  0
 10  9  2  0  0  0  0
 10 12  1  0  0  0  0
 11 10  1  0  0  0  0
 12 14  2  0  0  0  0
 13 12  1  0  0  0  0
 14 16  1  0  0  0  0
 14 15  1  0  0  0  0
 16 17  1  0  0  0  0
 18 19  1  0  0  0  0
 18 16  2  0  0  0  0
 19  1  1  0  0  0  0
 19 21  1  0  0  0  0
 20 19  1  0  0  0  0
 22 23  1  0  0  0  0
 22  5  1  0  0  0  0
 23 24  1  0  0  0  0
 25 26  1  0  0  0  0
 25 23  2  0  0  0  0
 27 25  1  0  0  0  0
 28 27  1  0  0  0  0
 29 27  2  0  0  0  0
 29 31  1  0  0  0  0
 30 29  1  0  0  0  0
 31 22  2  0  0  0  0
 32 31  1  0  0  0  0
 33  5  1  0  0  0  0
 33 34  1  0  0  0  0
 34 36  2  0  0  0  0
 34 35  1  0  0  0  0
 36 37  1  0  0  0  0
 38 39  1  0  0  0  0
 38 36  1  0  0  0  0
 40 38  2  0  0  0  0
 41 40  1  0  0  0  0
 42 40  1  0  0  0  0
 42 33  2  0  0  0  0
 43 42  1  0  0  0  0
 44 45  1  0  0  0  0
 45 48  1  0  0  0  0
 45 46  1  0  0  0  0
 47 45  1  0  0  0  0
M  END
$$$$
