CSD_code = IMEWED | q = 0 | S = 0 | Stoichiometry = C19H22FNZr | MND = 13
 OpenBabel04212202053D

 44 46  0  0  1  0  0  0  0  0999 V2000
   11.5348    0.7290    4.9756 Zr  0  0  1  0  0  0  0  0  0  0  0  0
   11.9884    0.6686    6.8490 F   0  0  0  0  0  0  0  0  0  0  0  0
    9.9500   -0.7903    6.2708 N   0  0  0  0  0  0  0  0  0  0  0  0
   12.6609    3.0482    4.7375 C   0  0  0  0  0  0  0  0  0  0  0  0
   13.7120    3.1956    4.5209 H   0  0  0  0  0  0  0  0  0  0  0  0
    9.5481    0.6489    2.3952 C   0  0  0  0  0  0  0  0  0  0  0  0
   10.2009    1.4188    1.9903 H   0  0  0  0  0  0  0  0  0  0  0  0
   10.6748    3.0712    5.8476 C   0  0  0  0  0  0  0  0  0  0  0  0
    9.9416    3.2281    6.6283 H   0  0  0  0  0  0  0  0  0  0  0  0
   12.6002   -0.6215    3.0370 C   0  0  0  0  0  0  0  0  0  0  0  0
   12.1815   -0.7497    2.0478 H   0  0  0  0  0  0  0  0  0  0  0  0
    8.4981    0.2365    1.5880 C   0  0  0  0  0  0  0  0  0  0  0  0
    8.3569    0.6848    0.6136 H   0  0  0  0  0  0  0  0  0  0  0  0
   13.9421    0.0831    4.7418 C   0  0  1  0  0  0  0  0  0  0  0  0
   14.7208    0.5973    5.2935 H   0  0  0  0  0  0  0  0  0  0  0  0
    9.1664   -1.6233    5.3551 C   0  0  0  0  0  0  0  0  0  0  0  0
    8.2170   -1.9332    5.8265 H   0  0  0  0  0  0  0  0  0  0  0  0
    9.7366   -2.5369    5.1432 H   0  0  0  0  0  0  0  0  0  0  0  0
   10.3946    2.9204    4.4730 C   0  0  0  0  0  0  0  0  0  0  0  0
    9.4121    2.9850    4.0203 H   0  0  0  0  0  0  0  0  0  0  0  0
   12.0665    3.1707    6.0019 C   0  0  0  0  0  0  0  0  0  0  0  0
   12.5865    3.3479    6.9323 H   0  0  0  0  0  0  0  0  0  0  0  0
    9.8028    0.1163    3.6731 C   0  0  0  0  0  0  0  0  0  0  0  0
    8.9087   -0.9037    4.0511 C   0  0  0  0  0  0  0  0  0  0  0  0
    7.6270   -0.7453    2.0257 C   0  0  0  0  0  0  0  0  0  0  0  0
    6.7991   -1.0636    1.4087 H   0  0  0  0  0  0  0  0  0  0  0  0
   10.4760   -1.6299    7.3475 C   0  0  0  0  0  0  0  0  0  0  0  0
   11.1476   -2.3800    6.9300 H   0  0  0  0  0  0  0  0  0  0  0  0
    9.6640   -2.1406    7.8855 H   0  0  0  0  0  0  0  0  0  0  0  0
   11.0330   -1.0182    8.0545 H   0  0  0  0  0  0  0  0  0  0  0  0
    7.8421   -1.3212    3.2631 C   0  0  0  0  0  0  0  0  0  0  0  0
    7.1836   -2.1048    3.6170 H   0  0  0  0  0  0  0  0  0  0  0  0
   12.4429   -1.5188    4.1164 C   0  0  0  0  0  0  0  0  0  0  0  0
   11.8960   -2.4520    4.0758 H   0  0  0  0  0  0  0  0  0  0  0  0
   13.2845   -1.0923    5.1615 C   0  0  0  0  0  3  0  0  0  0  0  0
   13.4703   -1.6140    6.0918 H   0  0  0  0  0  0  0  0  0  0  0  0
   11.6310    2.9058    3.7802 C   0  0  2  0  0  0  0  0  0  0  0  0
   11.7613    2.9704    2.7061 H   0  0  0  0  0  0  0  0  0  0  0  0
    9.0734    0.2325    6.8511 C   0  0  0  0  0  0  0  0  0  0  0  0
    9.6576    0.8757    7.5124 H   0  0  0  0  0  0  0  0  0  0  0  0
    8.2637   -0.2323    7.4363 H   0  0  0  0  0  0  0  0  0  0  0  0
    8.6274    0.8315    6.0499 H   0  0  0  0  0  0  0  0  0  0  0  0
   13.5238    0.3667    3.4226 C   0  0  0  0  0  3  0  0  0  0  0  0
   13.9479    1.1210    2.7705 H   0  0  0  0  0  0  0  0  0  0  0  0
  1  2  1  1  0  0  0
  3 39  1  0  0  0  0
  3 27  1  0  0  0  0
  4 21  2  0  0  0  0
  5  4  1  0  0  0  0
  6 23  1  0  0  0  0
  7  6  1  0  0  0  0
  8 21  1  0  0  0  0
  8  9  1  0  0  0  0
 10 43  1  0  0  0  0
 10 33  2  0  0  0  0
 11 10  1  0  0  0  0
 12 25  1  0  0  0  0
 12  6  2  0  0  0  0
 13 12  1  0  0  0  0
 14  1  1  0  0  0  0
 14 35  1  0  0  0  0
 14 15  1  1  0  0  0
 16 17  1  0  0  0  0
 16  3  1  0  0  0  0
 18 16  1  0  0  0  0
 19  8  2  0  0  0  0
 20 19  1  0  0  0  0
 21 22  1  0  0  0  0
 23 24  2  0  0  0  0
 23  1  1  0  0  0  0
 24 16  1  0  0  0  0
 25 31  2  0  0  0  0
 26 25  1  0  0  0  0
 27 29  1  0  0  0  0
 27 30  1  0  0  0  0
 28 27  1  0  0  0  0
 31 32  1  0  0  0  0
 31 24  1  0  0  0  0
 33 35  1  0  0  0  0
 34 33  1  0  0  0  0
 35 36  1  0  0  0  0
 37 38  1  6  0  0  0
 37 19  1  0  0  0  0
 37  4  1  0  0  0  0
 37  1  1  0  0  0  0
 39 41  1  0  0  0  0
 39 40  1  0  0  0  0
 42 39  1  0  0  0  0
 43 14  1  0  0  0  0
 44 43  1  0  0  0  0
M  END
$$$$
