CSD_code = IMICIS | q = 0 | S = 0 | Stoichiometry = C29H28IN2PPt | MND = 6
 OpenBabel04212202053D

 62 67  0  0  0  0  0  0  0  0999 V2000
   10.6604    0.3397    9.7463 Pt  0  0  0  0  0  0  0  0  0  0  0  0
    9.9634    0.2618    7.1301 I   0  0  0  0  0  0  0  0  0  0  0  0
    9.4258   -1.8099   10.1236 P   0  0  0  0  0  4  0  0  0  0  0  0
   10.4259   -4.1447   11.3347 C   0  0  0  0  0  0  0  0  0  0  0  0
   10.4342   -4.5738   10.3433 H   0  0  0  0  0  0  0  0  0  0  0  0
    9.9552   -2.8493   11.5315 C   0  0  0  0  0  0  0  0  0  0  0  0
    7.5855    2.2325   11.8793 C   0  0  0  0  0  3  0  0  0  0  0  0
    7.3198    2.4909   12.8831 H   0  0  0  0  0  0  0  0  0  0  0  0
    7.6596   -1.4667   10.4304 C   0  0  0  0  0  0  0  0  0  0  0  0
   10.8856   -4.8922   12.4039 C   0  0  0  0  0  0  0  0  0  0  0  0
   11.2448   -5.8969   12.2357 H   0  0  0  0  0  0  0  0  0  0  0  0
   10.8897   -4.3586   13.6814 C   0  0  0  0  0  0  0  0  0  0  0  0
   11.2499   -4.9444   14.5138 H   0  0  0  0  0  0  0  0  0  0  0  0
   11.9574    0.4271   13.9198 C   0  0  0  0  0  0  0  0  0  0  0  0
   12.8008    0.1181   14.5189 H   0  0  0  0  0  0  0  0  0  0  0  0
   10.3027   -4.1793    6.9220 C   0  0  0  0  0  0  0  0  0  0  0  0
   11.1246   -4.2876    6.2306 H   0  0  0  0  0  0  0  0  0  0  0  0
    9.3040   -3.0604    8.8015 C   0  0  0  0  0  0  0  0  0  0  0  0
    7.0449   -1.5309   11.6750 C   0  0  0  0  0  0  0  0  0  0  0  0
    7.5887   -1.8873   12.5374 H   0  0  0  0  0  0  0  0  0  0  0  0
   10.9110    0.5947   11.7469 C   0  0  0  0  0  0  0  0  0  0  0  0
    6.9226   -1.0315    9.3276 C   0  0  0  0  0  0  0  0  0  0  0  0
    7.3919   -0.9869    8.3541 H   0  0  0  0  0  0  0  0  0  0  0  0
    5.5978   -0.6690    9.4704 C   0  0  0  0  0  0  0  0  0  0  0  0
    5.0379   -0.3379    8.6085 H   0  0  0  0  0  0  0  0  0  0  0  0
   11.9754    0.2135   12.5500 C   0  0  0  0  0  0  0  0  0  0  0  0
   12.8393   -0.2649   12.1155 H   0  0  0  0  0  0  0  0  0  0  0  0
    9.9827   -2.3134   12.8180 C   0  0  0  0  0  0  0  0  0  0  0  0
    9.6562   -1.2992   12.9923 H   0  0  0  0  0  0  0  0  0  0  0  0
    4.9935   -0.7251   10.7162 C   0  0  0  0  0  0  0  0  0  0  0  0
    3.9597   -0.4352   10.8316 H   0  0  0  0  0  0  0  0  0  0  0  0
    5.7178   -1.1606   11.8123 C   0  0  0  0  0  0  0  0  0  0  0  0
    5.2485   -1.2172   12.7840 H   0  0  0  0  0  0  0  0  0  0  0  0
   10.4383   -3.0654   13.8843 C   0  0  0  0  0  0  0  0  0  0  0  0
   10.4473   -2.6338   14.8747 H   0  0  0  0  0  0  0  0  0  0  0  0
    8.1887   -3.8867    8.6953 C   0  0  0  0  0  0  0  0  0  0  0  0
    7.3655   -3.7811    9.3884 H   0  0  0  0  0  0  0  0  0  0  0  0
    8.8131    1.4100   10.2479 N   0  0  0  0  0  0  0  0  0  0  0  0
    8.7398    1.6122   11.5644 N   0  0  0  0  0  0  0  0  0  0  0  0
    9.8172    1.2134   12.3712 C   0  0  0  0  0  0  0  0  0  0  0  0
    9.7910    1.4264   13.7453 C   0  0  0  0  0  0  0  0  0  0  0  0
    8.9386    1.8977   14.2101 H   0  0  0  0  0  0  0  0  0  0  0  0
   10.8653    1.0296   14.5188 C   0  0  0  0  0  0  0  0  0  0  0  0
   10.8465    1.1943   15.5855 H   0  0  0  0  0  0  0  0  0  0  0  0
   10.3644   -3.2204    7.9165 C   0  0  0  0  0  0  0  0  0  0  0  0
   11.2338   -2.5858    8.0002 H   0  0  0  0  0  0  0  0  0  0  0  0
    8.1333   -4.8440    7.6997 C   0  0  0  0  0  0  0  0  0  0  0  0
    7.2630   -5.4788    7.6178 H   0  0  0  0  0  0  0  0  0  0  0  0
    6.8984    2.4362   10.7052 C   0  0  0  0  0  0  0  0  0  0  0  0
    5.9440    2.9038   10.5824 H   0  0  0  0  0  0  0  0  0  0  0  0
    9.1851   -4.9884    6.8091 C   0  0  0  0  0  0  0  0  0  0  0  0
    9.1316   -5.7316    6.0276 H   0  0  0  0  0  0  0  0  0  0  0  0
    7.7157    1.9030    9.7061 C   0  0  0  0  0  0  0  0  0  0  0  0
    7.5525    1.8688    8.6469 H   0  0  0  0  0  0  0  0  0  0  0  0
   12.4924   -0.5990    9.4829 C   0  0  0  0  0  0  0  0  0  0  0  0
   13.3190   -0.0108    9.8852 H   0  0  0  0  0  0  0  0  0  0  0  0
   12.6929   -0.7565    8.4201 H   0  0  0  0  0  0  0  0  0  0  0  0
   12.4882   -1.5725    9.9859 H   0  0  0  0  0  0  0  0  0  0  0  0
   11.6342    2.1542    9.4702 C   0  0  0  0  0  0  0  0  0  0  0  0
   10.8705    2.9015    9.2373 H   0  0  0  0  0  0  0  0  0  0  0  0
   12.3168    2.0895    8.6219 H   0  0  0  0  0  0  0  0  0  0  0  0
   12.1959    2.4867   10.3446 H   0  0  0  0  0  0  0  0  0  0  0  0
  1  3  1  0  0  0  0
  1 38  1  0  0  0  0
  1 21  1  0  0  0  0
  2  1  1  0  0  0  0
  3  9  1  0  0  0  0
  3  6  1  0  0  0  0
  4  6  2  0  0  0  0
  4 10  1  0  0  0  0
  5  4  1  0  0  0  0
  6 28  1  0  0  0  0
  7  8  1  0  0  0  0
  9 19  1  0  0  0  0
 10 12  2  0  0  0  0
 11 10  1  0  0  0  0
 12 34  1  0  0  0  0
 12 13  1  0  0  0  0
 14 43  1  0  0  0  0
 14 15  1  0  0  0  0
 16 45  1  0  0  0  0
 17 16  1  0  0  0  0
 18  3  1  0  0  0  0
 19 32  2  0  0  0  0
 19 20  1  0  0  0  0
 21 40  2  0  0  0  0
 21 26  1  0  0  0  0
 22 24  1  0  0  0  0
 22  9  2  0  0  0  0
 23 22  1  0  0  0  0
 24 30  2  0  0  0  0
 25 24  1  0  0  0  0
 26 14  2  0  0  0  0
 27 26  1  0  0  0  0
 28 29  1  0  0  0  0
 28 34  2  0  0  0  0
 30 31  1  0  0  0  0
 30 32  1  0  0  0  0
 32 33  1  0  0  0  0
 34 35  1  0  0  0  0
 36 18  1  0  0  0  0
 36 37  1  0  0  0  0
 38 39  1  0  0  0  0
 39  7  1  0  0  0  0
 39 40  1  0  0  0  0
 40 41  1  0  0  0  0
 41 42  1  0  0  0  0
 41 43  2  0  0  0  0
 43 44  1  0  0  0  0
 45 46  1  0  0  0  0
 45 18  2  0  0  0  0
 47 36  2  0  0  0  0
 48 47  1  0  0  0  0
 49  7  1  0  0  0  0
 50 49  1  0  0  0  0
 51 16  2  0  0  0  0
 51 47  1  0  0  0  0
 52 51  1  0  0  0  0
 53 38  1  0  0  0  0
 53 49  2  0  0  0  0
 54 53  1  0  0  0  0
 55  1  1  0  0  0  0
 55 56  1  0  0  0  0
 55 58  1  0  0  0  0
 57 55  1  0  0  0  0
 59  1  1  0  0  0  0
 59 62  1  0  0  0  0
 60 59  1  0  0  0  0
 61 59  1  0  0  0  0
M  END
$$$$
