CSD_code = IMIXOR | q = -1 | S = 0 | Stoichiometry = C2H8Cl4IrN2(1-) | MND = 6
 OpenBabel04212202053D

 17 17  0  0  0  0  0  0  0  0999 V2000
    0.1763    0.3189    1.5717 Ir  0  0  0  0  0  0  0  0  0  0  0  0
    0.0753   -1.8961    2.2290 Cl  0  0  0  0  0  0  0  0  0  0  0  0
   -0.7708   -0.0001   -0.5145 Cl  0  0  0  0  0  0  0  0  0  0  0  0
   -1.8815    0.8756    2.6192 Cl  0  0  0  0  0  0  0  0  0  0  0  0
    2.3984    0.1607    0.7506 Cl  0  0  0  0  0  0  0  0  0  0  0  0
    0.4140    2.4071    1.1829 N   0  0  0  0  0  4  0  0  0  0  0  0
    1.0268    0.8747    3.4522 N   0  0  0  0  0  4  0  0  0  0  0  0
    0.6457    3.0620    2.4669 C   0  0  0  0  0  0  0  0  0  0  0  0
    1.6151    2.2004    3.2840 C   0  0  0  0  0  0  0  0  0  0  0  0
    1.2391    2.4508    0.5832 H   0  0  0  0  0  0  0  0  0  0  0  0
   -0.3836    2.7982    0.6881 H   0  0  0  0  0  0  0  0  0  0  0  0
    1.0500    4.0772    2.3483 H   0  0  0  0  0  0  0  0  0  0  0  0
   -0.3146    3.1111    2.9891 H   0  0  0  0  0  0  0  0  0  0  0  0
    2.5452    2.0783    2.7206 H   0  0  0  0  0  0  0  0  0  0  0  0
    1.8314    2.6841    4.2471 H   0  0  0  0  0  0  0  0  0  0  0  0
    1.7019    0.1927    3.7884 H   0  0  0  0  0  0  0  0  0  0  0  0
    0.2244    0.8963    4.0833 H   0  0  0  0  0  0  0  0  0  0  0  0
  1  2  1  0  0  0  0
  1  4  1  0  0  0  0
  1  7  1  0  0  0  0
  3  1  1  0  0  0  0
  5  1  1  0  0  0  0
  6  1  1  0  0  0  0
  6  8  1  0  0  0  0
  7 16  1  0  0  0  0
  7 17  1  0  0  0  0
  8 13  1  0  0  0  0
  8  9  1  0  0  0  0
  9  7  1  0  0  0  0
  9 15  1  0  0  0  0
 10  6  1  0  0  0  0
 11  6  1  0  0  0  0
 12  8  1  0  0  0  0
 14  9  1  0  0  0  0
M  END
$$$$
