CSD_code = IMIXOS | q = 0 | S = 0 | Stoichiometry = C14H15AuClN3 | MND = 2
 OpenBabel04212202053D

 34 35  0  0  1  0  0  0  0  0999 V2000
    2.6040   12.7958   14.4905 Au  0  0  0  0  0  0  0  0  0  0  0  0
    0.5608   11.9527   14.1014 Cl  0  0  0  0  0  0  0  0  0  0  0  0
    4.4558   13.5435   14.7902 C   0  0  1  0  0  3  0  0  0  0  0  0
    5.5306   13.0477   14.2327 N   0  0  0  0  0  0  0  0  0  0  0  0
    6.4200   13.5347   14.3881 H   0  0  0  0  0  0  0  0  0  0  0  0
    4.6312   14.6500   15.5607 N   0  0  0  0  0  0  0  0  0  0  0  0
    3.7938   15.0065   15.9981 H   0  0  0  0  0  0  0  0  0  0  0  0
    6.9364   15.0089   15.3032 N   0  0  0  0  0  0  0  0  0  0  0  0
    5.5319   11.9276   13.3160 C   0  0  2  0  0  0  0  0  0  0  0  0
    4.6874   11.2807   13.5816 H   0  0  0  0  0  0  0  0  0  0  0  0
    6.8421   11.1578   13.4625 C   0  0  0  0  0  0  0  0  0  0  0  0
    7.6882   11.7862   13.1936 H   0  0  0  0  0  0  0  0  0  0  0  0
    6.8343   10.2931   12.8050 H   0  0  0  0  0  0  0  0  0  0  0  0
    6.9664   10.8165   14.4877 H   0  0  0  0  0  0  0  0  0  0  0  0
    5.7733   15.3892   15.8269 C   0  0  0  0  0  0  0  0  0  0  0  0
    5.6657   16.5229   16.6435 C   0  0  0  0  0  0  0  0  0  0  0  0
    4.7081   16.8064   17.0525 H   0  0  0  0  0  0  0  0  0  0  0  0
    6.8016   17.2583   16.9067 C   0  0  0  0  0  0  0  0  0  0  0  0
    6.7488   18.1364   17.5327 H   0  0  0  0  0  0  0  0  0  0  0  0
    8.0139   16.8558   16.3559 C   0  0  0  0  0  0  0  0  0  0  0  0
    8.9218   17.4058   16.5406 H   0  0  0  0  0  0  0  0  0  0  0  0
    8.0202   15.7258   15.5628 C   0  0  0  0  0  0  0  0  0  0  0  0
    8.9294   15.3596   15.1051 H   0  0  0  0  0  0  0  0  0  0  0  0
    5.3318   12.4221   11.8983 C   0  0  0  0  0  0  0  0  0  0  0  0
    4.3150   11.9001   11.1119 C   0  0  0  0  0  0  0  0  0  0  0  0
    3.6610   11.1411   11.5150 H   0  0  0  0  0  0  0  0  0  0  0  0
    4.1282   12.3535    9.8175 C   0  0  0  0  0  0  0  0  0  0  0  0
    3.3326   11.9406    9.2161 H   0  0  0  0  0  0  0  0  0  0  0  0
    4.9521   13.3379    9.3006 C   0  0  0  0  0  0  0  0  0  0  0  0
    4.8051   13.6947    8.2921 H   0  0  0  0  0  0  0  0  0  0  0  0
    5.9632   13.8693   10.0834 C   0  0  0  0  0  0  0  0  0  0  0  0
    6.6053   14.6423    9.6867 H   0  0  0  0  0  0  0  0  0  0  0  0
    6.1528   13.4139   11.3754 C   0  0  0  0  0  0  0  0  0  0  0  0
    6.9411   13.8397   11.9803 H   0  0  0  0  0  0  0  0  0  0  0  0
  2  1  1  0  0  0  0
  3  1  1  6  0  0  0
  3  6  1  0  0  0  0
  4  5  1  0  0  0  0
  4  3  1  0  0  0  0
  6 15  1  0  0  0  0
  6  7  1  0  0  0  0
  8 22  2  0  0  0  0
  8 15  1  0  0  0  0
  9 11  1  0  0  0  0
  9 10  1  1  0  0  0
  9  4  1  0  0  0  0
 11 14  1  0  0  0  0
 12 11  1  0  0  0  0
 13 11  1  0  0  0  0
 15 16  2  0  0  0  0
 16 18  1  0  0  0  0
 16 17  1  0  0  0  0
 18 19  1  0  0  0  0
 20 21  1  0  0  0  0
 20 18  2  0  0  0  0
 22 20  1  0  0  0  0
 23 22  1  0  0  0  0
 24  9  1  0  0  0  0
 25 26  1  0  0  0  0
 25 24  2  0  0  0  0
 27 25  1  0  0  0  0
 28 27  1  0  0  0  0
 29 27  2  0  0  0  0
 29 31  1  0  0  0  0
 30 29  1  0  0  0  0
 31 33  2  0  0  0  0
 32 31  1  0  0  0  0
 33 24  1  0  0  0  0
 33 34  1  0  0  0  0
M  END
$$$$
