CSD_code = IMIXUX | q = -1 | S = 0 | Stoichiometry = C2H4Cl4IrN2(1-) | MND = 6
 OpenBabel04212202053D

 13 13  0  0  0  0  0  0  0  0999 V2000
    2.0134    0.3103    1.9581 Ir  0  0  0  0  0  0  0  0  0  0  0  0
    1.7528   -1.9744    1.8578 Cl  0  0  0  0  0  0  0  0  0  0  0  0
    4.2122    0.0994    2.6044 Cl  0  0  0  0  0  0  0  0  0  0  0  0
    1.3038    0.3336    4.2280 Cl  0  0  0  0  0  0  0  0  0  0  0  0
    2.6496    0.3811   -0.3325 Cl  0  0  0  0  0  0  0  0  0  0  0  0
    2.0393    2.2671    1.9852 N   0  0  0  0  0  0  0  0  0  0  0  0
    0.1711    0.6912    1.4185 N   0  0  0  0  0  0  0  0  0  0  0  0
    0.9185    2.8430    1.6596 C   0  0  0  0  0  0  0  0  0  0  0  0
   -0.1361    1.9535    1.3402 C   0  0  0  0  0  0  0  0  0  0  0  0
    2.8302    2.8581    2.2244 H   0  0  0  0  0  0  0  0  0  0  0  0
    0.7948    3.9203    1.6330 H   0  0  0  0  0  0  0  0  0  0  0  0
   -1.1219    2.3037    1.0532 H   0  0  0  0  0  0  0  0  0  0  0  0
   -0.5481    0.0077    1.2004 H   0  0  0  0  0  0  0  0  0  0  0  0
  1  6  1  0  0  0  0
  1  3  1  0  0  0  0
  1  4  1  0  0  0  0
  2  1  1  0  0  0  0
  5  1  1  0  0  0  0
  6 10  1  0  0  0  0
  7  1  1  0  0  0  0
  8  6  1  0  0  0  0
  9  7  1  0  0  0  0
  9  8  2  0  0  0  0
 11  8  1  0  0  0  0
 12  9  1  0  0  0  0
 13  7  1  0  0  0  0
M  END
$$$$
