CSD_code = IMOGUN | q = 1 | S = 0 | Stoichiometry = C21H30ClN2Ru(1+) | MND = 9
 OpenBabel04212202053D

 55 56  0  0  1  0  0  0  0  0999 V2000
    0.8284    3.2133   -2.1761 C   0  0  0  0  0  0  0  0  0  0  0  0
    1.7214    3.0206   -2.7664 H   0  0  0  0  0  0  0  0  0  0  0  0
    0.0033    2.6597   -2.6142 H   0  0  0  0  0  0  0  0  0  0  0  0
    0.9808    2.8412   -1.1655 H   0  0  0  0  0  0  0  0  0  0  0  0
    0.4991    4.6991   -2.1545 C   0  0  0  0  0  0  0  0  0  0  0  0
    0.2896    5.0462   -3.1672 H   0  0  0  0  0  0  0  0  0  0  0  0
   -0.3870    4.8605   -1.5342 H   0  0  0  0  0  0  0  0  0  0  0  0
    1.6591    5.5356   -1.5878 C   0  0  0  0  0  0  0  0  0  0  0  0
    2.5881    5.2600   -2.0998 H   0  0  0  0  0  0  0  0  0  0  0  0
    1.4682    6.5979   -1.7590 H   0  0  0  0  0  0  0  0  0  0  0  0
    2.7166    4.5272    0.2643 C   0  0  0  0  0  0  0  0  0  0  0  0
    3.4484    4.0696   -0.3915 H   0  0  0  0  0  0  0  0  0  0  0  0
    2.7298    4.3144    1.6766 C   0  0  0  0  0  0  0  0  0  0  0  0
    3.6127    3.4876    2.3781 C   0  0  0  0  0  0  0  0  0  0  0  0
    4.3668    2.9404    1.8361 H   0  0  0  0  0  0  0  0  0  0  0  0
    3.4818    3.3770    3.7455 C   0  0  0  0  0  0  0  0  0  0  0  0
    4.1424    2.7427    4.3140 H   0  0  0  0  0  0  0  0  0  0  0  0
    2.4656    4.0893    4.3800 C   0  0  0  0  0  0  0  0  0  0  0  0
    2.3220    4.0177    5.4455 H   0  0  0  0  0  0  0  0  0  0  0  0
    1.6262    4.8844    3.6253 C   0  0  0  0  0  0  0  0  0  0  0  0
    0.8127    5.4236    4.0913 H   0  0  0  0  0  0  0  0  0  0  0  0
   -0.5933    7.4524    2.7252 C   0  0  0  0  0  0  0  0  0  0  0  0
   -1.5919    6.8194    1.9656 C   0  0  0  0  0  0  0  0  0  0  0  0
   -1.5806    6.9331    0.5279 C   0  0  2  0  0  3  0  0  0  0  0  0
   -0.6155    7.7430   -0.1056 C   0  0  0  0  0  0  0  0  0  0  0  0
    0.5436    8.1390    0.6360 C   0  0  0  0  0  0  0  0  0  0  0  0
    0.5666    7.9654    2.0558 C   0  0  1  0  0  0  0  0  0  0  0  0
   -0.7954    7.6543    4.2031 C   0  0  0  0  0  0  0  0  0  0  0  0
   -1.7581    8.1418    4.3586 H   0  0  0  0  0  0  0  0  0  0  0  0
   -0.0308    8.2918    4.6331 H   0  0  0  0  0  0  0  0  0  0  0  0
   -0.8120    6.7165    4.7579 H   0  0  0  0  0  0  0  0  0  0  0  0
   -2.7695    6.1523    2.6127 C   0  0  0  0  0  0  0  0  0  0  0  0
   -2.8442    5.1203    2.2682 H   0  0  0  0  0  0  0  0  0  0  0  0
   -3.6910    6.6641    2.3369 H   0  0  0  0  0  0  0  0  0  0  0  0
   -2.6923    6.1361    3.6937 H   0  0  0  0  0  0  0  0  0  0  0  0
   -2.7317    6.3596   -0.2464 C   0  0  0  0  0  0  0  0  0  0  0  0
   -3.6326    6.9513   -0.0793 H   0  0  0  0  0  0  0  0  0  0  0  0
   -2.9335    5.3414    0.0818 H   0  0  0  0  0  0  0  0  0  0  0  0
   -2.5280    6.3318   -1.3121 H   0  0  0  0  0  0  0  0  0  0  0  0
   -0.8710    8.2376   -1.5042 C   0  0  0  0  0  0  0  0  0  0  0  0
   -0.6189    7.4997   -2.2646 H   0  0  0  0  0  0  0  0  0  0  0  0
   -0.3113    9.1457   -1.7061 H   0  0  0  0  0  0  0  0  0  0  0  0
   -1.9274    8.4755   -1.6114 H   0  0  0  0  0  0  0  0  0  0  0  0
    1.6505    8.9213   -0.0222 C   0  0  0  0  0  0  0  0  0  0  0  0
    1.5927    9.9678    0.2796 H   0  0  0  0  0  0  0  0  0  0  0  0
    1.5996    8.8753   -1.1051 H   0  0  0  0  0  0  0  0  0  0  0  0
    2.6279    8.5425    0.2719 H   0  0  0  0  0  0  0  0  0  0  0  0
    1.7059    8.5357    2.8575 C   0  0  0  0  0  0  0  0  0  0  0  0
    2.6435    8.4784    2.3116 H   0  0  0  0  0  0  0  0  0  0  0  0
    1.8430    8.0014    3.7944 H   0  0  0  0  0  0  0  0  0  0  0  0
    1.5147    9.5862    3.0819 H   0  0  0  0  0  0  0  0  0  0  0  0
   -0.5725    3.8506    1.0893 Cl  0  0  0  0  0 15  0  0  0  0  0  0
    1.7826    5.3131   -0.1728 N   0  0  0  0  0  0  0  0  0  0  0  0
    1.7532    5.0147    2.3078 N   0  0  0  0  0  0  0  0  0  0  0  0
    0.4535    5.9397    1.1229 Ru  0  0  0  0  0  0  0  0  0  0  0  0
  1  5  1  0  0  0  0
  1  4  1  0  0  0  0
  2  1  1  0  0  0  0
  3  1  1  0  0  0  0
  5  8  1  0  0  0  0
  5  7  1  0  0  0  0
  6  5  1  0  0  0  0
  8 53  1  0  0  0  0
  9  8  1  0  0  0  0
 10  8  1  0  0  0  0
 11 13  2  0  0  0  0
 12 11  1  0  0  0  0
 13 54  1  0  0  0  0
 13 14  1  0  0  0  0
 14 16  2  0  0  0  0
 15 14  1  0  0  0  0
 16 17  1  0  0  0  0
 16 18  1  0  0  0  0
 18 19  1  0  0  0  0
 20 21  1  0  0  0  0
 20 18  2  0  0  0  0
 22 28  1  0  0  0  0
 23 32  1  0  0  0  0
 23 22  2  0  0  0  0
 24 36  1  1  0  0  0
 24 23  1  0  0  0  0
 25 24  1  0  0  0  0
 25 26  2  0  0  0  0
 26 27  1  0  0  0  0
 27 22  1  0  0  0  0
 27 48  1  1  0  0  0
 28 29  1  0  0  0  0
 28 30  1  0  0  0  0
 28 31  1  0  0  0  0
 32 35  1  0  0  0  0
 33 32  1  0  0  0  0
 34 32  1  0  0  0  0
 36 37  1  0  0  0  0
 36 38  1  0  0  0  0
 39 36  1  0  0  0  0
 40 25  1  0  0  0  0
 41 40  1  0  0  0  0
 42 40  1  0  0  0  0
 43 40  1  0  0  0  0
 44 47  1  0  0  0  0
 44 45  1  0  0  0  0
 44 26  1  0  0  0  0
 46 44  1  0  0  0  0
 48 51  1  0  0  0  0
 48 50  1  0  0  0  0
 49 48  1  0  0  0  0
 53 11  1  0  0  0  0
 53 55  1  0  0  0  0
 54 20  1  0  0  0  0
 55 27  1  0  0  0  0
 55 54  1  0  0  0  0
M  END
$$$$
