CSD_code = IMOGOH | q = 1 | S = 0 | Stoichiometry = C19H26ClN2Ru(1+) | MND = 9
 OpenBabel04212202053D

 49 50  0  0  1  0  0  0  0  0999 V2000
    6.1406   -0.1779   11.0949 C   0  0  0  0  0  0  0  0  0  0  0  0
    6.6961    0.7061   11.4016 H   0  0  0  0  0  0  0  0  0  0  0  0
    6.5435   -1.0346   11.6272 H   0  0  0  0  0  0  0  0  0  0  0  0
    5.1029   -0.0526   11.3953 H   0  0  0  0  0  0  0  0  0  0  0  0
    6.2368   -0.4070    9.5907 C   0  0  0  0  0  0  0  0  0  0  0  0
    7.2612   -0.6395    9.3000 H   0  0  0  0  0  0  0  0  0  0  0  0
    5.6269   -1.2701    9.3215 H   0  0  0  0  0  0  0  0  0  0  0  0
    5.7050    0.7846    8.7876 C   0  0  0  0  0  0  0  0  0  0  0  0
    5.7146    0.5389    7.7161 H   0  0  0  0  0  0  0  0  0  0  0  0
    4.6657    0.9630    9.0806 H   0  0  0  0  0  0  0  0  0  0  0  0
    7.6618    2.0828    9.2476 C   0  0  0  0  0  0  0  0  0  0  0  0
    8.2449    1.2119    9.5168 H   0  0  0  0  0  0  0  0  0  0  0  0
    8.2597    3.3842    9.2014 C   0  0  0  0  0  0  0  0  0  0  0  0
    9.5940    3.6797    9.4907 C   0  0  0  0  0  0  0  0  0  0  0  0
   10.2561    2.8877    9.8017 H   0  0  0  0  0  0  0  0  0  0  0  0
   10.0379    4.9784    9.3499 C   0  0  0  0  0  0  0  0  0  0  0  0
   11.0637    5.2364    9.5586 H   0  0  0  0  0  0  0  0  0  0  0  0
    9.1387    5.9469    8.9116 C   0  0  0  0  0  0  0  0  0  0  0  0
    9.4507    6.9686    8.7706 H   0  0  0  0  0  0  0  0  0  0  0  0
    7.8324    5.5849    8.6425 C   0  0  0  0  0  0  0  0  0  0  0  0
    7.1257    6.3159    8.2717 H   0  0  0  0  0  0  0  0  0  0  0  0
    3.4826    3.8158    7.1341 C   0  0  0  0  0  0  0  0  0  0  0  0
    3.2827    3.1629    8.3558 C   0  0  0  0  0  0  0  0  0  0  0  0
    2.7297    2.2318    8.3808 H   0  0  0  0  0  0  0  0  0  0  0  0
    3.7331    3.7343    9.5722 C   0  0  2  0  0  0  0  0  0  0  0  0
    3.5190    3.2308   10.5101 H   0  0  0  0  0  0  0  0  0  0  0  0
    4.2967    5.0296    9.6004 C   0  0  1  0  0  3  0  0  0  0  0  0
    4.4210    5.7253    8.3658 C   0  0  0  0  0  0  0  0  0  0  0  0
    4.7413    6.7618    8.3746 H   0  0  0  0  0  0  0  0  0  0  0  0
    4.0736    5.1177    7.1620 C   0  0  0  0  0  0  0  0  0  0  0  0
    4.1558    5.6734    6.2336 H   0  0  0  0  0  0  0  0  0  0  0  0
    2.9597    3.2517    5.8368 C   0  0  0  0  0  0  0  0  0  0  0  0
    3.3938    3.8293    5.0144 H   0  0  0  0  0  0  0  0  0  0  0  0
    3.3521    1.7871    5.6394 C   0  0  0  0  0  0  0  0  0  0  0  0
    4.4326    1.6789    5.7162 H   0  0  0  0  0  0  0  0  0  0  0  0
    3.0472    1.4608    4.6493 H   0  0  0  0  0  0  0  0  0  0  0  0
    2.8716    1.1398    6.3688 H   0  0  0  0  0  0  0  0  0  0  0  0
    1.4363    3.4260    5.8042 C   0  0  0  0  0  0  0  0  0  0  0  0
    0.9637    2.8535    6.5991 H   0  0  0  0  0  0  0  0  0  0  0  0
    1.0509    3.0737    4.8518 H   0  0  0  0  0  0  0  0  0  0  0  0
    1.1619    4.4721    5.9205 H   0  0  0  0  0  0  0  0  0  0  0  0
    4.5954    5.7176   10.8971 C   0  0  0  0  0  0  0  0  0  0  0  0
    3.7289    6.3089   11.1981 H   0  0  0  0  0  0  0  0  0  0  0  0
    5.4429    6.3939   10.8037 H   0  0  0  0  0  0  0  0  0  0  0  0
    4.8032    4.9986   11.6866 H   0  0  0  0  0  0  0  0  0  0  0  0
    6.6702    3.2012    6.2576 Cl  0  0  0  0  0 15  0  0  0  0  0  0
    6.4144    2.0330    8.9131 N   0  0  0  0  0  0  0  0  0  0  0  0
    7.3868    4.3410    8.7983 N   0  0  0  0  0  0  0  0  0  0  0  0
    5.5908    3.6894    8.2623 Ru  0  0  0  0  0  0  0  0  0  0  0  0
  1  4  1  0  0  0  0
  1  2  1  0  0  0  0
  1  3  1  0  0  0  0
  5  1  1  0  0  0  0
  6  5  1  0  0  0  0
  7  5  1  0  0  0  0
  8 47  1  0  0  0  0
  8 10  1  0  0  0  0
  8  5  1  0  0  0  0
  9  8  1  0  0  0  0
 11 12  1  0  0  0  0
 13 11  2  0  0  0  0
 13 14  1  0  0  0  0
 14 15  1  0  0  0  0
 16 14  2  0  0  0  0
 16 17  1  0  0  0  0
 18 16  1  0  0  0  0
 19 18  1  0  0  0  0
 20 48  1  0  0  0  0
 20 18  2  0  0  0  0
 21 20  1  0  0  0  0
 22 30  1  0  0  0  0
 22 23  2  0  0  0  0
 23 24  1  0  0  0  0
 23 25  1  0  0  0  0
 25 27  1  0  0  0  0
 25 26  1  1  0  0  0
 27 42  1  1  0  0  0
 28 29  1  0  0  0  0
 28 27  1  0  0  0  0
 30 28  2  0  0  0  0
 31 30  1  0  0  0  0
 32 22  1  0  0  0  0
 33 32  1  0  0  0  0
 34 35  1  0  0  0  0
 34 32  1  0  0  0  0
 34 37  1  0  0  0  0
 36 34  1  0  0  0  0
 38 32  1  0  0  0  0
 38 41  1  0  0  0  0
 38 39  1  0  0  0  0
 40 38  1  0  0  0  0
 42 43  1  0  0  0  0
 42 45  1  0  0  0  0
 44 42  1  0  0  0  0
 47 11  1  0  0  0  0
 48 13  1  0  0  0  0
 49 48  1  0  0  0  0
 49 47  1  0  0  0  0
 49 25  1  0  0  0  0
M  END
$$$$
