CSD_code = IMOZIU | q = 0 | S = 0 | Stoichiometry = C15H15Cl3FNPt | MND = 6
 OpenBabel04212202053D

 36 38  0  0  1  0  0  0  0  0999 V2000
    0.5783    4.4884    6.1210 Pt  0  0  0  0  0  0  0  0  0  0  0  0
    0.9140    6.0601    4.8188 N   0  0  0  0  0  0  0  0  0  0  0  0
    0.1166    2.6961    7.4651 Cl  0  0  0  0  0  0  0  0  0  0  0  0
   -1.5652    5.3916    6.5114 Cl  0  0  0  0  0  0  0  0  0  0  0  0
    0.6603    6.0380    3.5100 C   0  0  1  0  0  3  0  0  0  0  0  0
    2.7689    3.6898    5.7552 Cl  0  0  0  0  0  0  0  0  0  0  0  0
    0.8430    7.2001    2.7616 C   0  0  0  0  0  0  0  0  0  0  0  0
    0.6497    7.1992    1.7036 H   0  0  0  0  0  0  0  0  0  0  0  0
    1.2745    8.3622    3.3747 C   0  0  0  0  0  0  0  0  0  0  0  0
    1.4079    9.2637    2.7967 H   0  0  0  0  0  0  0  0  0  0  0  0
    1.5358    8.3539    4.7306 C   0  0  0  0  0  0  0  0  0  0  0  0
    1.8751    9.2443    5.2312 H   0  0  0  0  0  0  0  0  0  0  0  0
    1.3478    7.1730    5.4414 C   0  0  0  0  0  0  0  0  0  0  0  0
    1.5929    7.0324    6.8738 C   0  0  0  0  0  0  0  0  0  0  0  0
    2.1021    8.0411    7.6955 C   0  0  0  0  0  0  0  0  0  0  0  0
    2.3459    9.0072    7.2838 H   0  0  0  0  0  0  0  0  0  0  0  0
    2.3033    7.8160    9.0420 C   0  0  0  0  0  0  0  0  0  0  0  0
    2.6956    8.5868    9.6860 H   0  0  0  0  0  0  0  0  0  0  0  0
    2.1896    6.3587   10.8794 F   0  0  0  0  0  0  0  0  0  0  0  0
    1.9940    6.5741    9.5724 C   0  0  0  0  0  0  0  0  0  0  0  0
    1.4877    5.5437    8.7906 C   0  0  0  0  0  0  0  0  0  0  0  0
    1.2580    4.5892    9.2404 H   0  0  0  0  0  0  0  0  0  0  0  0
    1.2969    5.7926    7.4528 C   0  0  0  0  0  0  0  0  0  0  0  0
    0.2756    4.7392    2.8142 C   0  0  0  0  0  0  0  0  0  0  0  0
   -0.5857    5.0109    1.5707 C   0  0  0  0  0  0  0  0  0  0  0  0
   -0.0082    5.4574    0.7662 H   0  0  0  0  0  0  0  0  0  0  0  0
   -1.4226    5.6614    1.8137 H   0  0  0  0  0  0  0  0  0  0  0  0
   -0.9842    4.0712    1.1965 H   0  0  0  0  0  0  0  0  0  0  0  0
    1.5956    4.0735    2.3887 C   0  0  0  0  0  0  0  0  0  0  0  0
    2.1643    4.7310    1.7347 H   0  0  0  0  0  0  0  0  0  0  0  0
    1.3855    3.1513    1.8528 H   0  0  0  0  0  0  0  0  0  0  0  0
    2.2078    3.8402    3.2579 H   0  0  0  0  0  0  0  0  0  0  0  0
   -0.5224    3.7789    3.7046 C   0  0  0  0  0  0  0  0  0  0  0  0
    0.0616    3.4248    4.5865 H   0  0  0  0  0  0  0  0  0  0  0  0
   -0.7656    2.8823    3.1366 H   0  0  0  0  0  0  0  0  0  0  0  0
   -1.4560    4.2377    4.0326 H   0  0  0  0  0  0  0  0  0  0  0  0
  1  4  1  0  0  0  0
  1 23  1  0  0  0  0
  1  3  1  0  0  0  0
  2 13  1  0  0  0  0
  2  1  1  0  0  0  0
  5 24  1  6  0  0  0
  5  2  1  0  0  0  0
  6  1  1  0  0  0  0
  7  9  2  0  0  0  0
  7  5  1  0  0  0  0
  8  7  1  0  0  0  0
  9 11  1  0  0  0  0
 10  9  1  0  0  0  0
 11 12  1  0  0  0  0
 11 13  2  0  0  0  0
 13 14  1  0  0  0  0
 14 23  2  0  0  0  0
 14 15  1  0  0  0  0
 15 17  2  0  0  0  0
 16 15  1  0  0  0  0
 17 20  1  0  0  0  0
 17 18  1  0  0  0  0
 20 19  1  0  0  0  0
 21 22  1  0  0  0  0
 21 20  2  0  0  0  0
 23 21  1  0  0  0  0
 24 33  1  0  0  0  0
 25 27  1  0  0  0  0
 25 24  1  0  0  0  0
 26 25  1  0  0  0  0
 28 25  1  0  0  0  0
 29 24  1  0  0  0  0
 29 32  1  0  0  0  0
 30 29  1  0  0  0  0
 31 29  1  0  0  0  0
 33 36  1  0  0  0  0
 33 34  1  0  0  0  0
 35 33  1  0  0  0  0
M  END
$$$$
