CSD_code = IMPCNI | q = 0 | S = 0 | Stoichiometry = C7H18I2NiOP2 | MND = 5
 OpenBabel04212202053D

 31 30  0  0  0  0  0  0  0  0999 V2000
    3.1894    8.0579    0.3530 Ni  0  0  0  0  0  0  0  0  0  0  0  0
    2.2710    5.9545    1.4838 I   0  0  0  0  0  0  0  0  0  0  0  0
    1.4930    8.0581   -0.9834 P   0  0  0  0  0  4  0  0  0  0  0  0
    4.8417    8.0579    1.7435 P   0  0  0  0  0  4  0  0  0  0  0  0
    4.9888    8.0577   -1.8757 O   0  0  0  0  0  1  0  0  0  0  0  0
    4.2735    8.0580   -0.9840 C   0  0  0  0  0  2  0  0  0  0  0  0
   -0.1878    8.0580   -0.2869 C   0  0  0  0  0  0  0  0  0  0  0  0
    1.4437    9.4795   -2.1294 C   0  0  0  0  0  0  0  0  0  0  0  0
    4.5017    8.0580    3.5308 C   0  0  0  0  0  0  0  0  0  0  0  0
    5.9737    9.4792    1.5581 C   0  0  0  0  0  0  0  0  0  0  0  0
   -0.8897    8.0572   -1.1225 H   0  0  0  0  0  0  0  0  0  0  0  0
   -0.3413    8.9469    0.3246 H   0  0  0  0  0  0  0  0  0  0  0  0
    0.5816    9.3687   -2.7879 H   0  0  0  0  0  0  0  0  0  0  0  0
    2.3538    9.5145   -2.7299 H   0  0  0  0  0  0  0  0  0  0  0  0
    1.3513   10.4085   -1.5667 H   0  0  0  0  0  0  0  0  0  0  0  0
    5.4627    8.0586    4.0479 H   0  0  0  0  0  0  0  0  0  0  0  0
    3.9331    8.9463    3.8054 H   0  0  0  0  0  0  0  0  0  0  0  0
    6.7951    9.3679    2.2669 H   0  0  0  0  0  0  0  0  0  0  0  0
    5.4420   10.4083    1.7647 H   0  0  0  0  0  0  0  0  0  0  0  0
    6.3747    9.5150    0.5442 H   0  0  0  0  0  0  0  0  0  0  0  0
    2.2697   10.1615    1.4831 I   0  0  0  0  0  0  0  0  0  0  0  0
    1.4439    6.6369   -2.1295 C   0  0  0  0  0  0  0  0  0  0  0  0
    5.9737    6.6365    1.5584 C   0  0  0  0  0  0  0  0  0  0  0  0
   -0.3409    7.1697    0.3258 H   0  0  0  0  0  0  0  0  0  0  0  0
    3.9341    7.1691    3.8055 H   0  0  0  0  0  0  0  0  0  0  0  0
    0.5817    6.7477   -2.7880 H   0  0  0  0  0  0  0  0  0  0  0  0
    2.3539    6.6021   -2.7301 H   0  0  0  0  0  0  0  0  0  0  0  0
    1.3517    5.7077   -1.5671 H   0  0  0  0  0  0  0  0  0  0  0  0
    6.7952    6.7481    2.2669 H   0  0  0  0  0  0  0  0  0  0  0  0
    5.4419    5.7076    1.7656 H   0  0  0  0  0  0  0  0  0  0  0  0
    6.3743    6.6002    0.5443 H   0  0  0  0  0  0  0  0  0  0  0  0
  1 21  1  0  0  0  0
  1  2  1  0  0  0  0
  1  4  1  0  0  0  0
  3  7  1  0  0  0  0
  3  1  1  0  0  0  0
  4  9  1  0  0  0  0
  5  6  1  0  0  0  0
  6  1  1  0  0  0  0
  7 12  1  0  0  0  0
  7 24  1  0  0  0  0
  8 15  1  0  0  0  0
  8  3  1  0  0  0  0
  9 17  1  0  0  0  0
  9 25  1  0  0  0  0
  9 16  1  0  0  0  0
 10  4  1  0  0  0  0
 10 19  1  0  0  0  0
 10 18  1  0  0  0  0
 11  7  1  0  0  0  0
 13  8  1  0  0  0  0
 14  8  1  0  0  0  0
 20 10  1  0  0  0  0
 22 28  1  0  0  0  0
 22  3  1  0  0  0  0
 23  4  1  0  0  0  0
 23 30  1  0  0  0  0
 23 29  1  0  0  0  0
 26 22  1  0  0  0  0
 27 22  1  0  0  0  0
 31 23  1  0  0  0  0
M  END
$$$$
