CSD_code = IMUTIV | q = 0 | S = 0 | Stoichiometry = C28H35ClCuN2PS | MND = 3
 OpenBabel04212202053D

 69 72  0  0  1  0  0  0  0  0999 V2000
    0.7734   17.0351    7.3861 Cu  0  0  0  0  0  0  0  0  0  0  0  0
    0.1461   18.7612    8.6475 Cl  0  0  0  0  0  0  0  0  0  0  0  0
    1.8454   17.6785    5.3308 S   0  0  0  0  0  0  0  0  0  0  0  0
    0.5246   14.7974    7.4884 P   0  0  0  0  0  4  0  0  0  0  0  0
    1.3927   20.1114    6.2943 N   0  0  0  0  0  0  0  0  0  0  0  0
    2.2607   21.5608    4.7436 N   0  0  0  0  0  0  0  0  0  0  0  0
    1.8628   19.3366    5.3515 C   0  0  1  0  0  3  0  0  0  0  0  0
    1.5309   21.5313    6.0069 C   0  0  0  0  0  0  0  0  0  0  0  0
    2.4456   20.1969    4.2448 C   0  0  0  0  0  0  0  0  0  0  0  0
    0.1372   22.1445    5.8335 C   0  0  0  0  0  0  0  0  0  0  0  0
    2.2825   22.2127    7.1499 C   0  0  0  0  0  0  0  0  0  0  0  0
    3.9158   19.8505    4.0148 C   0  0  0  0  0  0  0  0  0  0  0  0
    1.6415   19.9938    2.9561 C   0  0  0  0  0  0  0  0  0  0  0  0
    1.5205   14.0335    6.1681 C   0  0  0  0  0  0  0  0  0  0  0  0
    2.8958   14.3060    6.1173 C   0  0  0  0  0  0  0  0  0  0  0  0
    3.6342   13.7982    5.0579 C   0  0  0  0  0  0  0  0  0  0  0  0
    3.0394   13.0409    4.0643 C   0  0  0  0  0  0  0  0  0  0  0  0
    1.6821   12.7761    4.1185 C   0  0  0  0  0  0  0  0  0  0  0  0
    0.9270   13.2748    5.1633 C   0  0  0  0  0  0  0  0  0  0  0  0
    3.5680   15.1008    7.1903 C   0  0  0  0  0  0  0  0  0  0  0  0
   -1.1564   14.1630    7.1645 C   0  0  0  0  0  0  0  0  0  0  0  0
   -1.9722   14.8358    6.2436 C   0  0  0  0  0  0  0  0  0  0  0  0
   -3.2635   14.3720    6.0345 C   0  0  0  0  0  0  0  0  0  0  0  0
   -3.7502   13.2706    6.7169 C   0  0  0  0  0  0  0  0  0  0  0  0
   -2.9423   12.6113    7.6269 C   0  0  0  0  0  0  0  0  0  0  0  0
   -1.6534   13.0584    7.8510 C   0  0  0  0  0  0  0  0  0  0  0  0
   -1.4655   16.0299    5.5015 C   0  0  0  0  0  0  0  0  0  0  0  0
    1.0084   13.8443    8.9671 C   0  0  0  0  0  0  0  0  0  0  0  0
    0.5571   14.2810   10.2203 C   0  0  0  0  0  0  0  0  0  0  0  0
    0.9598   13.5851   11.3517 C   0  0  0  0  0  0  0  0  0  0  0  0
    1.7858   12.4786   11.2566 C   0  0  0  0  0  0  0  0  0  0  0  0
    2.2175   12.0434   10.0153 C   0  0  0  0  0  0  0  0  0  0  0  0
    1.8319   12.7257    8.8763 C   0  0  0  0  0  0  0  0  0  0  0  0
   -0.3556   15.4574   10.3295 C   0  0  0  0  0  0  0  0  0  0  0  0
    0.6194   13.9160   12.3227 H   0  0  0  0  0  0  0  0  0  0  0  0
    2.0881   11.9534   12.1506 H   0  0  0  0  0  0  0  0  0  0  0  0
    2.1626   12.3822    7.9058 H   0  0  0  0  0  0  0  0  0  0  0  0
   -0.6123   15.6621   11.3659 H   0  0  0  0  0  0  0  0  0  0  0  0
    0.1173   16.3471    9.9084 H   0  0  0  0  0  0  0  0  0  0  0  0
   -1.2761   15.2806    9.7700 H   0  0  0  0  0  0  0  0  0  0  0  0
   -1.0249   12.5430    8.5632 H   0  0  0  0  0  0  0  0  0  0  0  0
   -3.3135   11.7504    8.1629 H   0  0  0  0  0  0  0  0  0  0  0  0
    2.8530   11.1740    9.9327 H   0  0  0  0  0  0  0  0  0  0  0  0
   -3.8986   14.8846    5.3258 H   0  0  0  0  0  0  0  0  0  0  0  0
   -2.1915   16.3727    4.7679 H   0  0  0  0  0  0  0  0  0  0  0  0
   -1.2700   16.8499    6.2005 H   0  0  0  0  0  0  0  0  0  0  0  0
   -0.5287   15.8035    4.9892 H   0  0  0  0  0  0  0  0  0  0  0  0
   -0.1338   13.0699    5.2024 H   0  0  0  0  0  0  0  0  0  0  0  0
   -4.7590   12.9286    6.5385 H   0  0  0  0  0  0  0  0  0  0  0  0
    3.6348   12.6597    3.2478 H   0  0  0  0  0  0  0  0  0  0  0  0
    4.6940   14.0047    5.0099 H   0  0  0  0  0  0  0  0  0  0  0  0
    4.5393   15.4565    6.8552 H   0  0  0  0  0  0  0  0  0  0  0  0
    2.9555   15.9645    7.4673 H   0  0  0  0  0  0  0  0  0  0  0  0
    3.7092   14.4949    8.0864 H   0  0  0  0  0  0  0  0  0  0  0  0
    1.2098   12.1860    3.3470 H   0  0  0  0  0  0  0  0  0  0  0  0
    0.9295   19.7607    7.1562 H   0  0  0  0  0  0  0  0  0  0  0  0
    3.1434   22.0473    4.8334 H   0  0  0  0  0  0  0  0  0  0  0  0
    2.0458   20.6255    2.1704 H   0  0  0  0  0  0  0  0  0  0  0  0
    0.6017   20.2634    3.1186 H   0  0  0  0  0  0  0  0  0  0  0  0
    1.6948   18.9524    2.6510 H   0  0  0  0  0  0  0  0  0  0  0  0
    4.3275   20.4793    3.2288 H   0  0  0  0  0  0  0  0  0  0  0  0
    4.4907   19.9985    4.9279 H   0  0  0  0  0  0  0  0  0  0  0  0
    4.0020   18.8081    3.7197 H   0  0  0  0  0  0  0  0  0  0  0  0
    2.3940   23.2738    6.9435 H   0  0  0  0  0  0  0  0  0  0  0  0
    1.7297   22.0873    8.0769 H   0  0  0  0  0  0  0  0  0  0  0  0
    3.2679   21.7665    7.2733 H   0  0  0  0  0  0  0  0  0  0  0  0
    0.2282   23.2026    5.6083 H   0  0  0  0  0  0  0  0  0  0  0  0
   -0.4399   22.0151    6.7447 H   0  0  0  0  0  0  0  0  0  0  0  0
   -0.3800   21.6564    5.0124 H   0  0  0  0  0  0  0  0  0  0  0  0
  1  4  1  0  0  0  0
  1  2  1  0  0  0  0
  3  1  1  0  0  0  0
  4 28  1  0  0  0  0
  5 56  1  0  0  0  0
  6 57  1  0  0  0  0
  6  8  1  0  0  0  0
  7  3  1  1  0  0  0
  7  5  1  0  0  0  0
  8  5  1  0  0  0  0
  8 11  1  0  0  0  0
  9  6  1  0  0  0  0
  9  7  1  0  0  0  0
 10  8  1  0  0  0  0
 10 68  1  0  0  0  0
 11 66  1  0  0  0  0
 11 65  1  0  0  0  0
 12  9  1  0  0  0  0
 12 62  1  0  0  0  0
 13 59  1  0  0  0  0
 13  9  1  0  0  0  0
 14  4  1  0  0  0  0
 15 14  1  0  0  0  0
 15 20  1  0  0  0  0
 16 15  2  0  0  0  0
 17 18  2  0  0  0  0
 17 16  1  0  0  0  0
 18 19  1  0  0  0  0
 19 48  1  0  0  0  0
 19 14  2  0  0  0  0
 20 53  1  0  0  0  0
 20 54  1  0  0  0  0
 21  4  1  0  0  0  0
 21 26  1  0  0  0  0
 22 21  2  0  0  0  0
 23 22  1  0  0  0  0
 23 24  2  0  0  0  0
 24 25  1  0  0  0  0
 25 26  2  0  0  0  0
 25 42  1  0  0  0  0
 26 41  1  0  0  0  0
 27 46  1  0  0  0  0
 27 22  1  0  0  0  0
 28 29  1  0  0  0  0
 29 34  1  0  0  0  0
 29 30  2  0  0  0  0
 30 35  1  0  0  0  0
 31 30  1  0  0  0  0
 31 36  1  0  0  0  0
 32 31  2  0  0  0  0
 33 28  2  0  0  0  0
 33 32  1  0  0  0  0
 34 38  1  0  0  0  0
 37 33  1  0  0  0  0
 39 34  1  0  0  0  0
 40 34  1  0  0  0  0
 43 32  1  0  0  0  0
 44 23  1  0  0  0  0
 45 27  1  0  0  0  0
 47 27  1  0  0  0  0
 49 24  1  0  0  0  0
 50 17  1  0  0  0  0
 51 16  1  0  0  0  0
 52 20  1  0  0  0  0
 55 18  1  0  0  0  0
 58 13  1  0  0  0  0
 60 13  1  0  0  0  0
 61 12  1  0  0  0  0
 63 12  1  0  0  0  0
 64 11  1  0  0  0  0
 67 10  1  0  0  0  0
 69 10  1  0  0  0  0
M  END
$$$$
