CSD_code = IMUYAS | q = 0 | S = 0 | Stoichiometry = C18H19Br2N3OPd | MND = 4
 OpenBabel04212202053D

 44 47  0  0  1  0  0  0  0  0999 V2000
    9.4508    0.7980   13.0154 Br  0  0  0  0  0  0  0  0  0  0  0  0
    9.6503    4.1558   13.6336 Br  0  0  0  0  0  0  0  0  0  0  0  0
    7.5060    4.3792   11.3023 C   0  0  0  0  0  0  0  0  0  0  0  0
    6.6819    6.1843   10.2934 C   0  0  0  0  0  0  0  0  0  0  0  0
    6.7086    7.1498    9.8326 H   0  0  0  0  0  0  0  0  0  0  0  0
    5.6442    5.3544   10.5484 C   0  0  0  0  0  0  0  0  0  0  0  0
    4.5976    5.4586   10.3497 H   0  0  0  0  0  0  0  0  0  0  0  0
    5.4536    3.0988   11.6508 C   0  0  0  0  0  0  0  0  0  0  0  0
    4.3801    3.2679   11.5497 H   0  0  0  0  0  0  0  0  0  0  0  0
    5.6966    2.9459   12.7201 H   0  0  0  0  0  0  0  0  0  0  0  0
    5.8830    1.8691   10.8843 C   0  0  2  0  0  3  0  0  0  0  0  0
    4.9681    1.0886   10.1963 C   0  0  0  0  0  0  0  0  0  0  0  0
    3.9249    1.3643   10.1859 H   0  0  0  0  0  0  0  0  0  0  0  0
    5.4094   -0.0505    9.5407 C   0  0  0  0  0  0  0  0  0  0  0  0
    4.7154   -0.6752    9.0001 H   0  0  0  0  0  0  0  0  0  0  0  0
    6.7547   -0.3695    9.6104 C   0  0  0  0  0  0  0  0  0  0  0  0
    7.1453   -1.2556    9.1378 H   0  0  0  0  0  0  0  0  0  0  0  0
    7.6052    0.4637   10.3166 C   0  0  0  0  0  0  0  0  0  0  0  0
    8.6531    0.2230   10.4227 H   0  0  0  0  0  0  0  0  0  0  0  0
    9.1480    6.1359   10.7136 C   0  0  2  0  0  0  0  0  0  0  0  0
    9.7045    5.7102   11.5558 H   0  0  0  0  0  0  0  0  0  0  0  0
    9.1228    7.6620   10.9091 C   0  0  0  0  0  0  0  0  0  0  0  0
    8.4461    7.9040   11.7324 H   0  0  0  0  0  0  0  0  0  0  0  0
   10.1305    7.9872   11.1906 H   0  0  0  0  0  0  0  0  0  0  0  0
    9.8257    5.7222    9.3972 C   0  0  0  0  0  0  0  0  0  0  0  0
    9.2616    6.1261    8.5524 H   0  0  0  0  0  0  0  0  0  0  0  0
   10.8333    6.1459    9.3846 H   0  0  0  0  0  0  0  0  0  0  0  0
    9.9156    4.2243    9.2673 C   0  0  0  0  0  0  0  0  0  0  0  0
   10.6702    3.4788   10.1775 C   0  0  0  0  0  0  0  0  0  0  0  0
   11.2222    3.9790   10.9662 H   0  0  0  0  0  0  0  0  0  0  0  0
   10.8256    2.1077   10.0005 C   0  0  0  0  0  0  0  0  0  0  0  0
   11.4533    1.5468   10.6801 H   0  0  0  0  0  0  0  0  0  0  0  0
   10.2226    1.4750    8.9218 C   0  0  0  0  0  0  0  0  0  0  0  0
   10.3796    0.4188    8.7573 H   0  0  0  0  0  0  0  0  0  0  0  0
    9.4303    2.2017    8.0491 C   0  0  0  0  0  0  0  0  0  0  0  0
    8.9458    1.7094    7.2179 H   0  0  0  0  0  0  0  0  0  0  0  0
    9.2747    3.5662    8.2251 C   0  0  0  0  0  0  0  0  0  0  0  0
    8.6707    4.1303    7.5266 H   0  0  0  0  0  0  0  0  0  0  0  0
    7.8130    5.5760   10.7731 N   0  0  0  0  0  0  0  0  0  0  0  0
    6.1704    4.2569   11.1773 N   0  0  0  0  0  0  0  0  0  0  0  0
    7.1838    1.5670   10.9261 N   0  0  0  0  0  0  0  0  0  0  0  0
    8.6563    8.3862    9.7948 O   0  0  0  0  0  0  0  0  0  0  0  0
    9.3412    8.4033    9.1183 H   0  0  0  0  0  0  0  0  0  0  0  0
    8.4980    2.7879   12.0577 Pd  0  0  0  0  0  0  0  0  0  0  0  0
  3 44  2  0  0  0  0
  4  6  2  0  0  0  0
  4 39  1  0  0  0  0
  5  4  1  0  0  0  0
  6 40  1  0  0  0  0
  7  6  1  0  0  0  0
  8 10  1  0  0  0  0
  9  8  1  0  0  0  0
 11 12  1  1  0  0  0
 11 41  1  0  0  0  0
 11  8  1  0  0  0  0
 13 12  1  0  0  0  0
 14 16  1  0  0  0  0
 14 12  2  0  0  0  0
 15 14  1  0  0  0  0
 16 18  2  0  0  0  0
 17 16  1  0  0  0  0
 18 19  1  0  0  0  0
 18 41  1  0  0  0  0
 20 39  1  0  0  0  0
 20 22  1  0  0  0  0
 20 21  1  1  0  0  0
 22 24  1  0  0  0  0
 22 23  1  0  0  0  0
 25 20  1  0  0  0  0
 26 25  1  0  0  0  0
 27 25  1  0  0  0  0
 28 25  1  0  0  0  0
 28 29  1  0  0  0  0
 29 30  1  0  0  0  0
 31 29  2  0  0  0  0
 31 32  1  0  0  0  0
 33 31  1  0  0  0  0
 34 33  1  0  0  0  0
 35 37  1  0  0  0  0
 35 33  2  0  0  0  0
 36 35  1  0  0  0  0
 37 28  2  0  0  0  0
 38 37  1  0  0  0  0
 39  3  1  0  0  0  0
 40  3  1  0  0  0  0
 40  8  1  0  0  0  0
 41 44  1  0  0  0  0
 42 22  1  0  0  0  0
 43 42  1  0  0  0  0
 44  1  1  0  0  0  0
 44  2  1  0  0  0  0
M  END
$$$$
