CSD_code = INIFOA | q = 0 | S = 0 | Stoichiometry = C23H33ClPRh | MND = 6
 OpenBabel04212202053D

 59 59  0  0  1  0  0  0  0  0999 V2000
    2.6179    2.6085    2.6605 Rh  0  0  0  0  0  0  0  0  0  0  0  0
    3.1541    1.1244    4.2734 Cl  0  0  0  0  0 15  0  0  0  0  0  0
    1.6777    3.7808    4.3970 P   0  0  0  0  0  0  0  0  0  0  0  0
    0.4712    7.7325    4.0552 C   0  0  0  0  0  0  0  0  0  0  0  0
   -0.1620    8.0989    3.2429 H   0  0  0  0  0  0  0  0  0  0  0  0
    0.2472    8.3401    4.9361 H   0  0  0  0  0  0  0  0  0  0  0  0
    0.2449    6.2766    4.3243 C   0  0  0  0  0  0  0  0  0  0  0  0
   -0.7246    5.9115    4.6119 H   0  0  0  0  0  0  0  0  0  0  0  0
    1.3722    5.5592    4.1655 C   0  0  0  0  0  0  0  0  0  0  0  0
    2.4384    6.4699    3.7490 C   0  0  0  0  0  0  0  0  0  0  0  0
    3.7606    6.2226    3.4101 C   0  0  0  0  0  0  0  0  0  0  0  0
    4.1483    5.2118    3.4106 H   0  0  0  0  0  0  0  0  0  0  0  0
    4.5595    7.2922    3.0430 C   0  0  0  0  0  0  0  0  0  0  0  0
    5.5921    7.1207    2.7760 H   0  0  0  0  0  0  0  0  0  0  0  0
    4.0512    8.5833    3.0095 C   0  0  0  0  0  0  0  0  0  0  0  0
    4.6941    9.4023    2.7224 H   0  0  0  0  0  0  0  0  0  0  0  0
    2.7237    8.8331    3.3275 C   0  0  0  0  0  0  0  0  0  0  0  0
    2.3287    9.8380    3.2849 H   0  0  0  0  0  0  0  0  0  0  0  0
    1.9221    7.7717    3.6922 C   0  0  0  0  0  0  0  0  0  0  0  0
    2.6896    4.1160    1.1178 C   0  0  0  0  0  3  0  0  0  0  0  0
    2.6817    5.1107    1.5527 H   0  0  0  0  0  0  0  0  0  0  0  0
    1.4663    3.4539    1.0786 C   0  0  1  0  0  0  0  0  0  0  0  0
    0.6078    4.0004    1.4656 H   0  0  0  0  0  0  0  0  0  0  0  0
    1.0858    2.3861    0.0788 C   0  0  0  0  0  0  0  0  0  0  0  0
    0.1761    1.8945    0.4351 H   0  0  0  0  0  0  0  0  0  0  0  0
    0.8391    2.8620   -0.8774 H   0  0  0  0  0  0  0  0  0  0  0  0
    2.1808    1.3239   -0.1258 C   0  0  0  0  0  0  0  0  0  0  0  0
    2.8528    1.6176   -0.9331 H   0  0  0  0  0  0  0  0  0  0  0  0
    1.7095    0.3846   -0.4229 H   0  0  0  0  0  0  0  0  0  0  0  0
    2.9853    1.0939    1.1320 C   0  0  0  0  0  3  0  0  0  0  0  0
    2.8000    0.1419    1.6290 H   0  0  0  0  0  0  0  0  0  0  0  0
    4.1680    1.7452    1.4193 C   0  0  0  0  0  3  0  0  0  0  0  0
    4.8664    1.2553    2.0983 H   0  0  0  0  0  0  0  0  0  0  0  0
    4.7999    2.8179    0.5656 C   0  0  0  0  0  0  0  0  0  0  0  0
    5.5947    3.2903    1.1490 H   0  0  0  0  0  0  0  0  0  0  0  0
    5.2732    2.3505   -0.3052 H   0  0  0  0  0  0  0  0  0  0  0  0
    3.8021    3.8991    0.1133 C   0  0  0  0  0  0  0  0  0  0  0  0
    3.3664    3.6390   -0.8528 H   0  0  0  0  0  0  0  0  0  0  0  0
    4.3411    4.8395   -0.0209 H   0  0  0  0  0  0  0  0  0  0  0  0
   -0.0141    3.1553    4.8986 C   0  0  0  0  0  0  0  0  0  0  0  0
   -0.4970    3.9240    5.5119 H   0  0  0  0  0  0  0  0  0  0  0  0
    0.0655    1.8551    5.6938 C   0  0  0  0  0  0  0  0  0  0  0  0
    0.4341    2.0207    6.7028 H   0  0  0  0  0  0  0  0  0  0  0  0
    0.7230    1.1452    5.1959 H   0  0  0  0  0  0  0  0  0  0  0  0
   -0.9261    1.4103    5.7694 H   0  0  0  0  0  0  0  0  0  0  0  0
   -0.8345    2.9282    3.6323 C   0  0  0  0  0  0  0  0  0  0  0  0
   -0.9457    3.8504    3.0640 H   0  0  0  0  0  0  0  0  0  0  0  0
   -1.8284    2.5572    3.8805 H   0  0  0  0  0  0  0  0  0  0  0  0
   -0.3330    2.1848    3.0086 H   0  0  0  0  0  0  0  0  0  0  0  0
    2.5650    3.7897    6.0471 C   0  0  0  0  0  0  0  0  0  0  0  0
    2.4763    2.7537    6.3892 H   0  0  0  0  0  0  0  0  0  0  0  0
    4.0536    4.0890    5.9043 C   0  0  0  0  0  0  0  0  0  0  0  0
    4.4802    3.4897    5.0996 H   0  0  0  0  0  0  0  0  0  0  0  0
    4.5696    3.8291    6.8275 H   0  0  0  0  0  0  0  0  0  0  0  0
    4.2271    5.1439    5.7035 H   0  0  0  0  0  0  0  0  0  0  0  0
    1.9248    4.7295    7.0626 C   0  0  0  0  0  0  0  0  0  0  0  0
    0.8704    4.5100    7.2112 H   0  0  0  0  0  0  0  0  0  0  0  0
    2.0202    5.7655    6.7421 H   0  0  0  0  0  0  0  0  0  0  0  0
    2.4297    4.6242    8.0219 H   0  0  0  0  0  0  0  0  0  0  0  0
  3 40  1  0  0  0  0
  3 50  1  0  0  0  0
  4  7  1  0  0  0  0
  4  6  1  0  0  0  0
  5  4  1  0  0  0  0
  7  8  1  0  0  0  0
  9  7  2  0  0  0  0
  9  3  1  0  0  0  0
 10  9  1  0  0  0  0
 11 12  1  0  0  0  0
 11 10  2  0  0  0  0
 13 11  1  0  0  0  0
 14 13  1  0  0  0  0
 15 13  2  0  0  0  0
 15 17  1  0  0  0  0
 16 15  1  0  0  0  0
 17 19  2  0  0  0  0
 18 17  1  0  0  0  0
 19 10  1  0  0  0  0
 19  4  1  0  0  0  0
 20 21  1  0  0  0  0
 22 20  1  0  0  0  0
 22 23  1  1  0  0  0
 22  1  1  0  0  0  0
 24 25  1  0  0  0  0
 24 22  1  0  0  0  0
 26 24  1  0  0  0  0
 27 24  1  0  0  0  0
 27 30  1  0  0  0  0
 28 27  1  0  0  0  0
 29 27  1  0  0  0  0
 30 32  1  0  0  0  0
 30 31  1  0  0  0  0
 32 33  1  0  0  0  0
 34 35  1  0  0  0  0
 34 32  1  0  0  0  0
 36 34  1  0  0  0  0
 37 34  1  0  0  0  0
 37 20  1  0  0  0  0
 38 37  1  0  0  0  0
 39 37  1  0  0  0  0
 40 41  1  0  0  0  0
 40 42  1  0  0  0  0
 42 45  1  0  0  0  0
 42 43  1  0  0  0  0
 44 42  1  0  0  0  0
 46 48  1  0  0  0  0
 46 40  1  0  0  0  0
 47 46  1  0  0  0  0
 49 46  1  0  0  0  0
 50 51  1  0  0  0  0
 50 56  1  0  0  0  0
 52 50  1  0  0  0  0
 52 54  1  0  0  0  0
 53 52  1  0  0  0  0
 55 52  1  0  0  0  0
 56 57  1  0  0  0  0
 56 59  1  0  0  0  0
 58 56  1  0  0  0  0
M  END
$$$$
