CSD_code = INIJOG | q = 0 | S = 0 | Stoichiometry = C22H21Cl2N3Zn | MND = 4
 OpenBabel04212202053D

 49 52  0  0  0  0  0  0  0  0999 V2000
   17.0571    7.7434   -0.2519 C   0  0  0  0  0  3  0  0  0  0  0  0
   17.6413    8.5284    0.2077 H   0  0  0  0  0  0  0  0  0  0  0  0
   17.5212    7.0575   -1.3652 C   0  0  0  0  0  0  0  0  0  0  0  0
   18.4807    7.3000   -1.7921 H   0  0  0  0  0  0  0  0  0  0  0  0
   16.7246    6.0584   -1.9076 C   0  0  0  0  0  0  0  0  0  0  0  0
   17.0528    5.5012   -2.7724 H   0  0  0  0  0  0  0  0  0  0  0  0
   15.5034    5.7879   -1.3211 C   0  0  0  0  0  0  0  0  0  0  0  0
   14.8559    5.0181   -1.7121 H   0  0  0  0  0  0  0  0  0  0  0  0
   15.1075    6.5269   -0.2010 C   0  0  0  0  0  0  0  0  0  0  0  0
   13.8399    6.2793    0.4428 C   0  0  0  0  0  3  0  0  0  0  0  0
   13.2200    5.4984    0.0031 H   0  0  0  0  0  0  0  0  0  0  0  0
   12.2997    6.8000    2.1461 C   0  0  0  0  0  0  0  0  0  0  0  0
   11.1811    6.1092    1.6474 C   0  0  0  0  0  0  0  0  0  0  0  0
   11.2120    5.6497    0.6708 H   0  0  0  0  0  0  0  0  0  0  0  0
   10.0246    6.0439    2.3810 C   0  0  0  0  0  0  0  0  0  0  0  0
    9.1708    5.5183    1.9765 H   0  0  0  0  0  0  0  0  0  0  0  0
    9.9098    6.6516    3.6445 C   0  0  0  0  0  0  0  0  0  0  0  0
   11.0317    7.3423    4.1320 C   0  0  0  0  0  0  0  0  0  0  0  0
   10.9914    7.8240    5.0956 H   0  0  0  0  0  0  0  0  0  0  0  0
   12.1880    7.4202    3.3999 C   0  0  0  0  0  0  0  0  0  0  0  0
   13.0466    7.9555    3.7860 H   0  0  0  0  0  0  0  0  0  0  0  0
    8.6653    6.5443    4.3538 C   0  0  0  0  0  0  0  0  0  0  0  0
    7.9111    5.9487    3.8568 H   0  0  0  0  0  0  0  0  0  0  0  0
    8.3737    7.1191    5.5410 C   0  0  0  0  0  0  0  0  0  0  0  0
    9.1258    7.7270    6.0264 H   0  0  0  0  0  0  0  0  0  0  0  0
    7.1341    7.0276    6.2594 C   0  0  0  0  0  0  0  0  0  0  0  0
    6.0347    6.2664    5.8387 C   0  0  0  0  0  0  0  0  0  0  0  0
    6.0925    5.7018    4.9210 H   0  0  0  0  0  0  0  0  0  0  0  0
    4.8717    6.2152    6.5658 C   0  0  0  0  0  0  0  0  0  0  0  0
    4.0565    5.6198    6.1884 H   0  0  0  0  0  0  0  0  0  0  0  0
    4.7269    6.9296    7.7698 C   0  0  0  0  0  0  0  0  0  0  0  0
    5.8286    7.6935    8.1957 C   0  0  0  0  0  0  0  0  0  0  0  0
    5.7814    8.2510    9.1166 H   0  0  0  0  0  0  0  0  0  0  0  0
    6.9877    7.7344    7.4622 C   0  0  0  0  0  0  0  0  0  0  0  0
    7.8146    8.3293    7.8236 H   0  0  0  0  0  0  0  0  0  0  0  0
    3.3921    7.7184    9.6521 C   0  0  0  0  0  0  0  0  0  0  0  0
    4.0230    7.3903   10.4853 H   0  0  0  0  0  0  0  0  0  0  0  0
    2.3539    7.6772    9.9726 H   0  0  0  0  0  0  0  0  0  0  0  0
    3.6317    8.7588    9.4206 H   0  0  0  0  0  0  0  0  0  0  0  0
    2.5084    5.9800    8.1205 C   0  0  0  0  0  0  0  0  0  0  0  0
    2.8883    4.9623    7.9999 H   0  0  0  0  0  0  0  0  0  0  0  0
    2.0268    6.2872    7.1861 H   0  0  0  0  0  0  0  0  0  0  0  0
    1.7547    5.9662    8.9039 H   0  0  0  0  0  0  0  0  0  0  0  0
   14.4994   10.3572    1.8503 Cl  0  0  0  0  0  0  0  0  0  0  0  0
   16.2068    7.2203    3.7015 Cl  0  0  0  0  0  0  0  0  0  0  0  0
   15.8899    7.4869    0.3081 N   0  0  0  0  0  0  0  0  0  0  0  0
   13.4920    6.9424    1.4853 N   0  0  0  0  0  0  0  0  0  0  0  0
    3.5701    6.8834    8.4898 N   0  0  0  0  0  0  0  0  0  0  0  0
   15.0644    8.2526    2.1171 Zn  0  0  0  0  0  0  0  0  0  0  0  0
  1  2  1  0  0  0  0
  1 46  1  0  0  0  0
  3  1  1  0  0  0  0
  4  3  1  0  0  0  0
  5  3  2  0  0  0  0
  5  7  1  0  0  0  0
  6  5  1  0  0  0  0
  7  9  2  0  0  0  0
  8  7  1  0  0  0  0
  9 46  1  0  0  0  0
  9 10  1  0  0  0  0
 10 47  1  0  0  0  0
 11 10  1  0  0  0  0
 12 20  1  0  0  0  0
 13 12  2  0  0  0  0
 13 15  1  0  0  0  0
 14 13  1  0  0  0  0
 15 17  2  0  0  0  0
 16 15  1  0  0  0  0
 17 18  1  0  0  0  0
 17 22  1  0  0  0  0
 18 19  1  0  0  0  0
 20 21  1  0  0  0  0
 20 18  2  0  0  0  0
 22 24  2  0  0  0  0
 23 22  1  0  0  0  0
 24 25  1  0  0  0  0
 24 26  1  0  0  0  0
 26 34  1  0  0  0  0
 27 26  2  0  0  0  0
 27 29  1  0  0  0  0
 28 27  1  0  0  0  0
 29 31  2  0  0  0  0
 30 29  1  0  0  0  0
 31 32  1  0  0  0  0
 31 48  1  0  0  0  0
 32 33  1  0  0  0  0
 34 35  1  0  0  0  0
 34 32  2  0  0  0  0
 36 38  1  0  0  0  0
 36 37  1  0  0  0  0
 39 36  1  0  0  0  0
 40 48  1  0  0  0  0
 40 43  1  0  0  0  0
 41 40  1  0  0  0  0
 42 40  1  0  0  0  0
 44 49  1  0  0  0  0
 46 49  1  0  0  0  0
 47 49  1  0  0  0  0
 47 12  1  0  0  0  0
 48 36  1  0  0  0  0
 49 45  1  0  0  0  0
M  END
$$$$
