CSD_code = INISIJ | q = 0 | S = 0 | Stoichiometry = C7H16Cl2N2Pd | MND = 4
 OpenBabel04212202053D

 28 29  0  0  1  0  0  0  0  0999 V2000
    5.0904    3.8691    1.6623 Pd  0  0  0  0  0  0  0  0  0  0  0  0
    4.1807    2.0893    0.6593 Cl  0  0  0  0  0  0  0  0  0  0  0  0
    7.0481    3.4190    0.6889 Cl  0  0  0  0  0  0  0  0  0  0  0  0
    5.8867    5.6369    2.6628 N   0  0  2  0  0  4  0  0  0  0  0  0
    2.6885    5.2976    3.0604 C   0  0  0  0  0  0  0  0  0  0  0  0
    5.4714    7.0278    0.8668 C   0  0  0  0  0  0  0  0  0  0  0  0
    6.6190    6.4068    1.6466 C   0  0  0  0  0  0  0  0  0  0  0  0
    6.7782    5.1015    3.6862 C   0  0  0  0  0  0  0  0  0  0  0  0
    4.5861    7.5501    2.0025 C   0  0  0  0  0  0  0  0  0  0  0  0
    4.9271    6.6290    3.1973 C   0  0  1  0  0  0  0  0  0  0  0  0
    3.7048    6.0482    3.9225 C   0  0  0  0  0  0  0  0  0  0  0  0
    3.2162    4.0114    2.6272 N   0  0  0  0  0  4  0  0  0  0  0  0
    2.4339    5.8769    2.1700 H   0  0  0  0  0  0  0  0  0  0  0  0
    1.7683    5.1684    3.6498 H   0  0  0  0  0  0  0  0  0  0  0  0
    4.9598    6.2279    0.3043 H   0  0  0  0  0  0  0  0  0  0  0  0
    5.7864    7.8055    0.1765 H   0  0  0  0  0  0  0  0  0  0  0  0
    7.2542    5.7490    1.0521 H   0  0  0  0  0  0  0  0  0  0  0  0
    7.2274    7.1861    2.1279 H   0  0  0  0  0  0  0  0  0  0  0  0
    7.3136    5.9076    4.2070 H   0  0  0  0  0  0  0  0  0  0  0  0
    6.2139    4.5228    4.4215 H   0  0  0  0  0  0  0  0  0  0  0  0
    7.5056    4.4451    3.2032 H   0  0  0  0  0  0  0  0  0  0  0  0
    3.5301    7.5336    1.7449 H   0  0  0  0  0  0  0  0  0  0  0  0
    4.8482    8.5805    2.2435 H   0  0  0  0  0  0  0  0  0  0  0  0
    4.0478    5.3790    4.7164 H   0  0  0  0  0  0  0  0  0  0  0  0
    3.1930    6.8855    4.4014 H   0  0  0  0  0  0  0  0  0  0  0  0
    3.2983    3.3651    3.4161 H   0  0  0  0  0  0  0  0  0  0  0  0
    2.6165    3.5566    1.9322 H   0  0  0  0  0  0  0  0  0  0  0  0
    5.4674    7.2243    3.9531 H   0  0  0  0  0  0  0  0  0  0  0  0
  1 12  1  0  0  0  0
  1  4  1  0  0  0  0
  2  1  1  0  0  0  0
  3  1  1  0  0  0  0
  4 10  1  0  0  0  0
  4  8  1  1  0  0  0
  5 14  1  0  0  0  0
  5 11  1  0  0  0  0
  6  7  1  0  0  0  0
  6  9  1  0  0  0  0
  7 18  1  0  0  0  0
  7  4  1  0  0  0  0
  8 19  1  0  0  0  0
  8 20  1  0  0  0  0
  9 23  1  0  0  0  0
  9 10  1  0  0  0  0
 10 11  1  0  0  0  0
 10 28  1  1  0  0  0
 11 25  1  0  0  0  0
 11 24  1  0  0  0  0
 12  5  1  0  0  0  0
 12 26  1  0  0  0  0
 13  5  1  0  0  0  0
 15  6  1  0  0  0  0
 16  6  1  0  0  0  0
 17  7  1  0  0  0  0
 21  8  1  0  0  0  0
 22  9  1  0  0  0  0
 27 12  1  0  0  0  0
M  END
$$$$
