CSD_code = INITEE | q = 0 | S = 0 | Stoichiometry = C20H19Cl3N2OPReS | MND = 6
 OpenBabel04212202053D

 48 52  0  0  1  0  0  0  0  0999 V2000
    2.8241    2.3016    2.8636 Re  0  0  0  0  0  0  0  0  0  0  0  0
    3.0517    4.5041    3.3783 Cl  0  0  0  0  0  0  0  0  0  0  0  0
    2.0880    0.1529    2.5754 Cl  0  0  0  0  0  0  0  0  0  0  0  0
    4.6487    1.6715    4.0651 Cl  0  0  0  0  0  0  0  0  0  0  0  0
    0.1943    3.4035   -0.6536 S   0  0  0  0  0  0  0  0  0  0  0  0
    2.2268    1.5418    6.1974 P   0  0  0  0  0  4  0  0  0  0  0  0
    1.7781    2.1263    4.8967 O   0  0  0  0  0  0  0  0  0  0  0  0
    3.6762    2.4211    1.0516 N   0  0  0  0  0  0  0  0  0  0  0  0
    1.2262    2.8676    1.6629 N   0  0  0  0  0  0  0  0  0  0  0  0
    4.9744    2.1976    0.7817 C   0  0  0  0  0  3  0  0  0  0  0  0
    5.5961    1.9459    1.6305 H   0  0  0  0  0  0  0  0  0  0  0  0
    5.5064    2.2747   -0.4797 C   0  0  0  0  0  0  0  0  0  0  0  0
    6.5568    2.0836   -0.6268 H   0  0  0  0  0  0  0  0  0  0  0  0
    4.6808    2.6000   -1.5643 C   0  0  0  0  0  0  0  0  0  0  0  0
    5.0836    2.6638   -2.5622 H   0  0  0  0  0  0  0  0  0  0  0  0
    3.3523    2.8346   -1.3199 C   0  0  0  0  0  0  0  0  0  0  0  0
    2.6604    3.0903   -2.1074 H   0  0  0  0  0  0  0  0  0  0  0  0
    2.8680    2.7439   -0.0091 C   0  0  0  0  0  0  0  0  0  0  0  0
    1.5263    2.9752    0.3759 C   0  0  2  0  0  3  0  0  0  0  0  0
   -0.8350    3.4470    0.7558 C   0  0  0  0  0  0  0  0  0  0  0  0
   -2.1858    3.7381    0.8285 C   0  0  0  0  0  0  0  0  0  0  0  0
   -2.7442    3.9738   -0.0633 H   0  0  0  0  0  0  0  0  0  0  0  0
   -2.7893    3.7189    2.0721 C   0  0  0  0  0  0  0  0  0  0  0  0
   -3.8423    3.9419    2.1522 H   0  0  0  0  0  0  0  0  0  0  0  0
   -2.0581    3.4230    3.2211 C   0  0  0  0  0  0  0  0  0  0  0  0
   -2.5539    3.4244    4.1800 H   0  0  0  0  0  0  0  0  0  0  0  0
   -0.7124    3.1335    3.1541 C   0  0  0  0  0  0  0  0  0  0  0  0
   -0.1252    2.9146    4.0314 H   0  0  0  0  0  0  0  0  0  0  0  0
   -0.0889    3.1357    1.9082 C   0  0  0  0  0  0  0  0  0  0  0  0
    2.8559   -0.1722    6.1068 C   0  0  0  0  0  0  0  0  0  0  0  0
    2.1867   -0.7343    5.4561 H   0  0  0  0  0  0  0  0  0  0  0  0
    2.8643   -0.6138    7.0995 H   0  0  0  0  0  0  0  0  0  0  0  0
    3.8569   -0.1854    5.6827 H   0  0  0  0  0  0  0  0  0  0  0  0
    3.4376    2.5882    7.0756 C   0  0  0  0  0  0  0  0  0  0  0  0
    2.9656    3.5460    7.2896 H   0  0  0  0  0  0  0  0  0  0  0  0
    4.2881    2.7505    6.4164 H   0  0  0  0  0  0  0  0  0  0  0  0
    3.7752    2.1190    7.9940 H   0  0  0  0  0  0  0  0  0  0  0  0
    0.7455    1.4149    7.2446 C   0  0  0  0  0  0  0  0  0  0  0  0
   -0.4503    1.1013    6.6119 C   0  0  0  0  0  0  0  0  0  0  0  0
   -0.4552    0.9626    5.5403 H   0  0  0  0  0  0  0  0  0  0  0  0
   -1.6148    0.9744    7.3467 C   0  0  0  0  0  0  0  0  0  0  0  0
   -2.5432    0.7322    6.8508 H   0  0  0  0  0  0  0  0  0  0  0  0
   -1.5868    1.1577    8.7197 C   0  0  0  0  0  0  0  0  0  0  0  0
   -2.4947    1.0623    9.2967 H   0  0  0  0  0  0  0  0  0  0  0  0
   -0.3941    1.4634    9.3544 C   0  0  0  0  0  0  0  0  0  0  0  0
   -0.3726    1.6046   10.4252 H   0  0  0  0  0  0  0  0  0  0  0  0
    0.7723    1.5898    8.6200 C   0  0  0  0  0  0  0  0  0  0  0  0
    1.6994    1.8274    9.1199 H   0  0  0  0  0  0  0  0  0  0  0  0
  1  2  1  0  0  0  0
  1  4  1  0  0  0  0
  1  7  1  0  0  0  0
  3  1  1  0  0  0  0
  5 20  1  0  0  0  0
  6 34  1  0  0  0  0
  6 38  1  0  0  0  0
  7  6  1  0  0  0  0
  8  1  1  0  0  0  0
  9 29  1  0  0  0  0
  9  1  1  0  0  0  0
 10  8  1  0  0  0  0
 10 11  1  0  0  0  0
 12 10  1  0  0  0  0
 13 12  1  0  0  0  0
 14 16  1  0  0  0  0
 14 12  2  0  0  0  0
 15 14  1  0  0  0  0
 16 18  2  0  0  0  0
 17 16  1  0  0  0  0
 18 19  1  0  0  0  0
 18  8  1  0  0  0  0
 19  5  1  1  0  0  0
 19  9  1  0  0  0  0
 20 21  2  0  0  0  0
 20 29  1  0  0  0  0
 21 23  1  0  0  0  0
 22 21  1  0  0  0  0
 23 24  1  0  0  0  0
 23 25  2  0  0  0  0
 25 26  1  0  0  0  0
 27 25  1  0  0  0  0
 27 28  1  0  0  0  0
 29 27  2  0  0  0  0
 30  6  1  0  0  0  0
 30 32  1  0  0  0  0
 31 30  1  0  0  0  0
 33 30  1  0  0  0  0
 34 35  1  0  0  0  0
 34 37  1  0  0  0  0
 36 34  1  0  0  0  0
 38 47  1  0  0  0  0
 39 38  2  0  0  0  0
 39 41  1  0  0  0  0
 40 39  1  0  0  0  0
 41 43  2  0  0  0  0
 42 41  1  0  0  0  0
 43 44  1  0  0  0  0
 43 45  1  0  0  0  0
 45 46  1  0  0  0  0
 47 48  1  0  0  0  0
 47 45  2  0  0  0  0
M  END
$$$$
