CSD_code = INUBAU | q = 0 | S = 0 | Stoichiometry = C15H36Br2N4Ni | MND = 6
 OpenBabel04212202053D

 58 59  0  0  1  0  0  0  0  0999 V2000
   -2.5391    3.5642    6.9901 Ni  0  0  0  0  0  0  0  0  0  0  0  0
   -1.5436    4.6823    8.6215 Br  0  0  0  0  0  0  0  0  0  0  0  0
   -0.6953    2.4018    6.5258 Br  0  0  0  0  0  0  0  0  0  0  0  0
   -3.7903    2.4593    5.8226 N   0  0  2  0  0  4  0  0  0  0  0  0
   -4.5345    4.0562    7.3423 N   0  0  1  0  0  4  0  0  0  0  0  0
   -3.8404    1.9379    8.0829 N   0  0  1  0  0  4  0  0  0  0  0  0
   -1.9382    5.2923    5.4212 N   0  0  0  0  0  0  0  0  0  0  0  0
   -1.8977    5.0351    4.4344 H   0  0  0  0  0  0  0  0  0  0  0  0
   -0.9656    5.2971    5.7445 H   0  0  0  0  0  0  0  0  0  0  0  0
   -4.7764    3.5003    6.0179 C   0  0  0  0  0  0  0  0  0  0  0  0
   -5.8204    3.1108    5.9386 H   0  0  0  0  0  0  0  0  0  0  0  0
   -4.6446    4.2801    5.2614 H   0  0  0  0  0  0  0  0  0  0  0  0
   -4.7953    3.0037    8.3191 C   0  0  0  0  0  0  0  0  0  0  0  0
   -5.8479    2.6402    8.2273 H   0  0  0  0  0  0  0  0  0  0  0  0
   -4.6411    3.3984    9.3247 H   0  0  0  0  0  0  0  0  0  0  0  0
   -4.0633    1.3813    6.7616 C   0  0  0  0  0  0  0  0  0  0  0  0
   -3.3571    0.5640    6.5870 H   0  0  0  0  0  0  0  0  0  0  0  0
   -5.1036    0.9996    6.6466 H   0  0  0  0  0  0  0  0  0  0  0  0
   -3.5768    2.0401    4.4470 C   0  0  0  0  0  0  0  0  0  0  0  0
   -2.7039    1.3793    4.4373 H   0  0  0  0  0  0  0  0  0  0  0  0
   -3.3213    2.9323    3.8660 H   0  0  0  0  0  0  0  0  0  0  0  0
   -4.7587    1.3312    3.7777 C   0  0  0  0  0  0  0  0  0  0  0  0
   -5.6379    1.9810    3.7859 H   0  0  0  0  0  0  0  0  0  0  0  0
   -5.0051    0.4204    4.3276 H   0  0  0  0  0  0  0  0  0  0  0  0
   -4.4127    0.9683    2.3393 C   0  0  0  0  0  0  0  0  0  0  0  0
   -4.1894    1.8622    1.7611 H   0  0  0  0  0  0  0  0  0  0  0  0
   -5.2446    0.4526    1.8664 H   0  0  0  0  0  0  0  0  0  0  0  0
   -3.5424    0.3171    2.3116 H   0  0  0  0  0  0  0  0  0  0  0  0
   -5.3358    5.2553    7.5636 C   0  0  0  0  0  0  0  0  0  0  0  0
   -6.4084    4.9936    7.5342 H   0  0  0  0  0  0  0  0  0  0  0  0
   -5.1365    5.9339    6.7286 H   0  0  0  0  0  0  0  0  0  0  0  0
   -5.0165    5.9904    8.8634 C   0  0  0  0  0  0  0  0  0  0  0  0
   -3.9351    6.0867    8.9664 H   0  0  0  0  0  0  0  0  0  0  0  0
   -5.3896    5.4279    9.7209 H   0  0  0  0  0  0  0  0  0  0  0  0
   -5.6542    7.3738    8.8650 C   0  0  0  0  0  0  0  0  0  0  0  0
   -5.2628    7.9782    8.0498 H   0  0  0  0  0  0  0  0  0  0  0  0
   -5.4378    7.8816    9.8004 H   0  0  0  0  0  0  0  0  0  0  0  0
   -6.7348    7.3025    8.7532 H   0  0  0  0  0  0  0  0  0  0  0  0
   -3.7545    0.9665    9.1657 C   0  0  0  0  0  0  0  0  0  0  0  0
   -3.3411    0.0422    8.7536 H   0  0  0  0  0  0  0  0  0  0  0  0
   -4.7526    0.7397    9.5736 H   0  0  0  0  0  0  0  0  0  0  0  0
   -2.8166    1.4680   10.2632 C   0  0  0  0  0  0  0  0  0  0  0  0
   -3.2245    2.3661   10.7303 H   0  0  0  0  0  0  0  0  0  0  0  0
   -1.8650    1.7395    9.8018 H   0  0  0  0  0  0  0  0  0  0  0  0
   -2.5867    0.4036   11.3259 C   0  0  0  0  0  0  0  0  0  0  0  0
   -3.5265    0.1167   11.7949 H   0  0  0  0  0  0  0  0  0  0  0  0
   -1.9196    0.7829   12.0947 H   0  0  0  0  0  0  0  0  0  0  0  0
   -2.1356   -0.4838   10.8876 H   0  0  0  0  0  0  0  0  0  0  0  0
   -2.4336    6.6643    5.5419 C   0  0  0  0  0  0  0  0  0  0  0  0
   -2.4796    6.9020    6.6086 H   0  0  0  0  0  0  0  0  0  0  0  0
   -3.4489    6.7049    5.1307 H   0  0  0  0  0  0  0  0  0  0  0  0
   -1.5616    7.7051    4.8323 C   0  0  0  0  0  0  0  0  0  0  0  0
   -1.4988    7.4658    3.7663 H   0  0  0  0  0  0  0  0  0  0  0  0
   -2.0501    8.6772    4.9246 H   0  0  0  0  0  0  0  0  0  0  0  0
   -0.1592    7.7850    5.4266 C   0  0  0  0  0  0  0  0  0  0  0  0
   -0.2119    7.9211    6.5044 H   0  0  0  0  0  0  0  0  0  0  0  0
    0.3841    8.6230    4.9972 H   0  0  0  0  0  0  0  0  0  0  0  0
    0.4119    6.8813    5.2241 H   0  0  0  0  0  0  0  0  0  0  0  0
  1  5  1  0  0  0  0
  1  6  1  0  0  0  0
  1  2  1  0  0  0  0
  3  1  1  0  0  0  0
  4 19  1  6  0  0  0
  4 10  1  0  0  0  0
  4 16  1  0  0  0  0
  4  1  1  0  0  0  0
  5 29  1  1  0  0  0
  5 13  1  0  0  0  0
  6 13  1  0  0  0  0
  6 39  1  1  0  0  0
  7 49  1  0  0  0  0
  7  9  1  0  0  0  0
  8  7  1  0  0  0  0
 10  5  1  0  0  0  0
 11 10  1  0  0  0  0
 12 10  1  0  0  0  0
 13 15  1  0  0  0  0
 14 13  1  0  0  0  0
 16  6  1  0  0  0  0
 17 16  1  0  0  0  0
 18 16  1  0  0  0  0
 20 19  1  0  0  0  0
 21 19  1  0  0  0  0
 22 23  1  0  0  0  0
 22 24  1  0  0  0  0
 22 19  1  0  0  0  0
 25 22  1  0  0  0  0
 26 25  1  0  0  0  0
 27 25  1  0  0  0  0
 28 25  1  0  0  0  0
 29 32  1  0  0  0  0
 30 29  1  0  0  0  0
 31 29  1  0  0  0  0
 32 35  1  0  0  0  0
 32 33  1  0  0  0  0
 32 34  1  0  0  0  0
 35 37  1  0  0  0  0
 36 35  1  0  0  0  0
 38 35  1  0  0  0  0
 39 41  1  0  0  0  0
 39 42  1  0  0  0  0
 40 39  1  0  0  0  0
 42 43  1  0  0  0  0
 42 45  1  0  0  0  0
 44 42  1  0  0  0  0
 45 46  1  0  0  0  0
 45 47  1  0  0  0  0
 48 45  1  0  0  0  0
 49 50  1  0  0  0  0
 51 49  1  0  0  0  0
 52 54  1  0  0  0  0
 52 55  1  0  0  0  0
 52 49  1  0  0  0  0
 53 52  1  0  0  0  0
 55 56  1  0  0  0  0
 57 55  1  0  0  0  0
 58 55  1  0  0  0  0
M  END
$$$$
