CSD_code = IPAWIF | q = 0 | S = 0 | Stoichiometry = C22H21ClN2O2PtS2 | MND = 4
 OpenBabel04212202053D

 51 54  0  0  1  0  0  0  0  0999 V2000
   29.9164    0.7695    2.9422 Pt  0  0  2  0  0  0  0  0  0  0  0  0
   29.0712   -1.3536    2.9138 Cl  0  0  0  0  0  0  0  0  0  0  0  0
   30.8480    2.8874    2.9490 S   0  0  0  0  0  0  0  0  0  0  0  0
   31.8759   -0.1762    2.4815 S   0  0  0  0  0  0  0  0  0  0  0  0
   28.0592    1.4464    3.3985 O   0  0  0  0  0  0  0  0  0  0  0  0
   33.0222    0.6947    2.3091 O   0  0  0  0  0  1  0  0  0  0  0  0
   28.2914    3.7690    3.4477 N   0  0  0  0  0  0  0  0  0  0  0  0
   29.8469    5.3000    2.8821 N   0  0  0  0  0  0  0  0  0  0  0  0
   29.5389    3.9954    3.0924 C   0  0  1  0  0  3  0  0  0  0  0  0
   27.6624    2.6248    3.6292 C   0  0  0  0  0  0  0  0  0  0  0  0
   26.2782    2.7682    4.1384 C   0  0  0  0  0  0  0  0  0  0  0  0
   25.6714    4.0196    4.2218 C   0  0  0  0  0  0  0  0  0  0  0  0
   26.2193    4.8899    3.8979 H   0  0  0  0  0  0  0  0  0  0  0  0
   24.3833    4.1274    4.7101 C   0  0  0  0  0  0  0  0  0  0  0  0
   23.9134    5.0980    4.7734 H   0  0  0  0  0  0  0  0  0  0  0  0
   23.6921    2.9954    5.1142 C   0  0  0  0  0  0  0  0  0  0  0  0
   22.6850    3.0849    5.4944 H   0  0  0  0  0  0  0  0  0  0  0  0
   24.2912    1.7485    5.0280 C   0  0  0  0  0  0  0  0  0  0  0  0
   23.7523    0.8666    5.3411 H   0  0  0  0  0  0  0  0  0  0  0  0
   25.5791    1.6318    4.5415 C   0  0  0  0  0  0  0  0  0  0  0  0
   26.0604    0.6683    4.4687 H   0  0  0  0  0  0  0  0  0  0  0  0
   31.0554    5.6969    2.2547 C   0  0  0  0  0  0  0  0  0  0  0  0
   31.4032    5.2043    1.0022 C   0  0  0  0  0  0  0  0  0  0  0  0
   30.7565    4.4953    0.5079 H   0  0  0  0  0  0  0  0  0  0  0  0
   32.5752    5.6230    0.4016 C   0  0  0  0  0  0  0  0  0  0  0  0
   32.8450    5.2351   -0.5689 H   0  0  0  0  0  0  0  0  0  0  0  0
   33.3967    6.5400    1.0367 C   0  0  0  0  0  0  0  0  0  0  0  0
   34.3120    6.8632    0.5643 H   0  0  0  0  0  0  0  0  0  0  0  0
   33.0409    7.0432    2.2764 C   0  0  0  0  0  0  0  0  0  0  0  0
   33.6767    7.7601    2.7739 H   0  0  0  0  0  0  0  0  0  0  0  0
   31.8722    6.6260    2.8872 C   0  0  0  0  0  0  0  0  0  0  0  0
   31.5879    7.0113    3.8552 H   0  0  0  0  0  0  0  0  0  0  0  0
   28.9730    6.3417    3.2718 C   0  0  0  0  0  0  0  0  0  0  0  0
   28.7459    7.3973    2.3948 C   0  0  0  0  0  0  0  0  0  0  0  0
   29.2187    7.3949    1.4238 H   0  0  0  0  0  0  0  0  0  0  0  0
   27.9152    8.4384    2.7661 C   0  0  0  0  0  0  0  0  0  0  0  0
   27.7395    9.2517    2.0781 H   0  0  0  0  0  0  0  0  0  0  0  0
   27.3070    8.4361    4.0102 C   0  0  0  0  0  0  0  0  0  0  0  0
   26.6553    9.2478    4.2963 H   0  0  0  0  0  0  0  0  0  0  0  0
   27.5421    7.3903    4.8878 C   0  0  0  0  0  0  0  0  0  0  0  0
   27.0777    7.3869    5.8626 H   0  0  0  0  0  0  0  0  0  0  0  0
   28.3755    6.3475    4.5275 C   0  0  0  0  0  0  0  0  0  0  0  0
   28.5643    5.5366    5.2124 H   0  0  0  0  0  0  0  0  0  0  0  0
   31.7872   -1.2509    1.0197 C   0  0  0  0  0  0  0  0  0  0  0  0
   31.5659   -0.6257    0.1610 H   0  0  0  0  0  0  0  0  0  0  0  0
   30.9905   -1.9671    1.1852 H   0  0  0  0  0  0  0  0  0  0  0  0
   32.7494   -1.7327    0.8914 H   0  0  0  0  0  0  0  0  0  0  0  0
   32.3185   -1.4235    3.7252 C   0  0  0  0  0  0  0  0  0  0  0  0
   33.2402   -1.9036    3.4177 H   0  0  0  0  0  0  0  0  0  0  0  0
   31.4958   -2.1263    3.7924 H   0  0  0  0  0  0  0  0  0  0  0  0
   32.4627   -0.9114    4.6708 H   0  0  0  0  0  0  0  0  0  0  0  0
  1  2  1  6  0  0  0
  1  3  1  0  0  0  0
  1  5  1  0  0  0  0
  3  9  1  0  0  0  0
  4  1  1  0  0  0  0
  4 48  1  0  0  0  0
  5 10  1  0  0  0  0
  6  4  1  0  0  0  0
  7 10  2  0  0  0  0
  8 33  1  0  0  0  0
  9  8  1  1  0  0  0
  9  7  1  0  0  0  0
 10 11  1  0  0  0  0
 11 12  2  0  0  0  0
 11 20  1  0  0  0  0
 12 14  1  0  0  0  0
 13 12  1  0  0  0  0
 14 15  1  0  0  0  0
 14 16  2  0  0  0  0
 16 17  1  0  0  0  0
 18 16  1  0  0  0  0
 18 19  1  0  0  0  0
 20 18  2  0  0  0  0
 21 20  1  0  0  0  0
 22  8  1  0  0  0  0
 22 31  1  0  0  0  0
 23 22  2  0  0  0  0
 24 23  1  0  0  0  0
 25 23  1  0  0  0  0
 25 27  2  0  0  0  0
 26 25  1  0  0  0  0
 27 29  1  0  0  0  0
 28 27  1  0  0  0  0
 29 30  1  0  0  0  0
 29 31  2  0  0  0  0
 31 32  1  0  0  0  0
 33 42  1  0  0  0  0
 34 36  1  0  0  0  0
 34 33  2  0  0  0  0
 35 34  1  0  0  0  0
 36 38  2  0  0  0  0
 37 36  1  0  0  0  0
 38 39  1  0  0  0  0
 38 40  1  0  0  0  0
 40 41  1  0  0  0  0
 42 40  2  0  0  0  0
 42 43  1  0  0  0  0
 44 46  1  0  0  0  0
 44  4  1  0  0  0  0
 45 44  1  0  0  0  0
 47 44  1  0  0  0  0
 48 50  1  0  0  0  0
 48 51  1  0  0  0  0
 49 48  1  0  0  0  0
M  END
$$$$
