CSD_code = IPAZEF | q = 0 | S = 0 | Stoichiometry = C30H25AuClNP2 | MND = 2
 OpenBabel04212202053D

 60 64  0  0  0  0  0  0  0  0999 V2000
   -2.4593   13.4244    2.2750 Au  0  0  0  0  0  0  0  0  0  0  0  0
   -1.1542   11.9709    3.3483 P   0  0  0  0  0  4  0  0  0  0  0  0
   -4.0599   14.8160    1.4511 Cl  0  0  0  0  0  0  0  0  0  0  0  0
   -3.4634   11.3887    4.7088 P   0  0  0  0  0  4  0  0  0  0  0  0
   -2.8527   15.2711    7.0254 C   0  0  0  0  0  0  0  0  0  0  0  0
   -2.6421   16.1795    7.5702 H   0  0  0  0  0  0  0  0  0  0  0  0
   -3.8776   14.1650    5.1528 C   0  0  0  0  0  0  0  0  0  0  0  0
   -4.4581   14.2154    4.2427 H   0  0  0  0  0  0  0  0  0  0  0  0
   -5.5700    9.4675    7.6053 C   0  0  0  0  0  0  0  0  0  0  0  0
   -6.3714    9.6927    8.2933 H   0  0  0  0  0  0  0  0  0  0  0  0
   -2.0342   10.8623    4.2087 N   0  0  0  0  0  2  0  0  0  0  0  0
    0.0128   10.9352    2.4428 C   0  0  0  0  0  0  0  0  0  0  0  0
   -3.5040    8.8793    5.8470 C   0  0  0  0  0  0  0  0  0  0  0  0
   -2.6935    8.6800    5.1616 H   0  0  0  0  0  0  0  0  0  0  0  0
   -2.6217   12.9017    6.7830 C   0  0  0  0  0  0  0  0  0  0  0  0
   -2.2335   11.9458    7.1143 H   0  0  0  0  0  0  0  0  0  0  0  0
   -3.3814   12.9541    5.6175 C   0  0  0  0  0  0  0  0  0  0  0  0
    1.9587   10.8297    1.0429 C   0  0  0  0  0  0  0  0  0  0  0  0
    2.7798   11.3182    0.5390 H   0  0  0  0  0  0  0  0  0  0  0  0
   -4.0648   10.1491    5.8705 C   0  0  0  0  0  0  0  0  0  0  0  0
    1.0650   11.5711    1.7899 C   0  0  0  0  0  0  0  0  0  0  0  0
    1.1683   12.6453    1.8823 H   0  0  0  0  0  0  0  0  0  0  0  0
   -5.1016   10.4454    6.7477 C   0  0  0  0  0  0  0  0  0  0  0  0
   -5.5236   11.4412    6.7648 H   0  0  0  0  0  0  0  0  0  0  0  0
   -0.1552    9.5623    2.3259 C   0  0  0  0  0  0  0  0  0  0  0  0
   -0.9843    9.0860    2.8295 H   0  0  0  0  0  0  0  0  0  0  0  0
   -2.3601   14.0600    7.4878 C   0  0  0  0  0  0  0  0  0  0  0  0
   -1.7663   14.0218    8.3890 H   0  0  0  0  0  0  0  0  0  0  0  0
    1.7977    9.4557    0.9367 C   0  0  0  0  0  0  0  0  0  0  0  0
    2.4957    8.8771    0.3496 H   0  0  0  0  0  0  0  0  0  0  0  0
   -3.9773    7.9055    6.7075 C   0  0  0  0  0  0  0  0  0  0  0  0
   -3.5423    6.9171    6.6967 H   0  0  0  0  0  0  0  0  0  0  0  0
    0.7431    8.8246    1.5751 C   0  0  0  0  0  0  0  0  0  0  0  0
    0.6189    7.7551    1.4843 H   0  0  0  0  0  0  0  0  0  0  0  0
   -0.1047   14.1336    4.7664 C   0  0  0  0  0  0  0  0  0  0  0  0
   -0.6913   14.7453    4.0910 H   0  0  0  0  0  0  0  0  0  0  0  0
   -0.0973   12.7562    4.6023 C   0  0  0  0  0  0  0  0  0  0  0  0
   -3.6091   15.3215    5.8663 C   0  0  0  0  0  0  0  0  0  0  0  0
   -3.9875   16.2652    5.5035 H   0  0  0  0  0  0  0  0  0  0  0  0
   -5.0098    8.1993    7.5837 C   0  0  0  0  0  0  0  0  0  0  0  0
   -5.3788    7.4387    8.2557 H   0  0  0  0  0  0  0  0  0  0  0  0
    0.6404   11.9514    5.4633 C   0  0  0  0  0  0  0  0  0  0  0  0
    0.6222   10.8785    5.3235 H   0  0  0  0  0  0  0  0  0  0  0  0
    1.3640   13.9059    6.6467 C   0  0  0  0  0  0  0  0  0  0  0  0
    1.9340   14.3550    7.4469 H   0  0  0  0  0  0  0  0  0  0  0  0
    0.6284   14.7074    5.7900 C   0  0  0  0  0  0  0  0  0  0  0  0
    0.6223   15.7796    5.9208 H   0  0  0  0  0  0  0  0  0  0  0  0
    1.3714   12.5285    6.4831 C   0  0  0  0  0  0  0  0  0  0  0  0
    1.9473   11.9079    7.1544 H   0  0  0  0  0  0  0  0  0  0  0  0
   -4.7266   11.5054    3.4142 C   0  0  0  0  0  0  0  0  0  0  0  0
   -4.4355   10.9607    2.1686 C   0  0  0  0  0  0  0  0  0  0  0  0
   -3.4690   10.4970    2.0065 H   0  0  0  0  0  0  0  0  0  0  0  0
   -5.9645   12.0897    3.6541 C   0  0  0  0  0  0  0  0  0  0  0  0
   -6.1927   12.4990    4.6281 H   0  0  0  0  0  0  0  0  0  0  0  0
   -6.8902   12.1625    2.6296 C   0  0  0  0  0  0  0  0  0  0  0  0
   -7.8443   12.6373    2.8026 H   0  0  0  0  0  0  0  0  0  0  0  0
   -6.5901   11.6441    1.3806 C   0  0  0  0  0  0  0  0  0  0  0  0
   -7.3103   11.7214    0.5802 H   0  0  0  0  0  0  0  0  0  0  0  0
   -5.3679   11.0324    1.1517 C   0  0  0  0  0  0  0  0  0  0  0  0
   -5.1367   10.6271    0.1780 H   0  0  0  0  0  0  0  0  0  0  0  0
  1  2  1  0  0  0  0
  2 11  1  0  0  0  0
  2 37  1  0  0  0  0
  3  1  1  0  0  0  0
  4 17  1  0  0  0  0
  4 20  1  0  0  0  0
  5 27  1  0  0  0  0
  5  6  1  0  0  0  0
  7 17  2  0  0  0  0
  7 38  1  0  0  0  0
  8  7  1  0  0  0  0
  9 10  1  0  0  0  0
 11  4  1  0  0  0  0
 12  2  1  0  0  0  0
 13 20  2  0  0  0  0
 13 31  1  0  0  0  0
 14 13  1  0  0  0  0
 15 16  1  0  0  0  0
 15 27  2  0  0  0  0
 17 15  1  0  0  0  0
 18 21  1  0  0  0  0
 19 18  1  0  0  0  0
 20 23  1  0  0  0  0
 21 22  1  0  0  0  0
 21 12  2  0  0  0  0
 23 24  1  0  0  0  0
 23  9  2  0  0  0  0
 25 12  1  0  0  0  0
 25 26  1  0  0  0  0
 27 28  1  0  0  0  0
 29 18  2  0  0  0  0
 29 33  1  0  0  0  0
 30 29  1  0  0  0  0
 31 40  2  0  0  0  0
 32 31  1  0  0  0  0
 33 25  2  0  0  0  0
 34 33  1  0  0  0  0
 35 46  1  0  0  0  0
 36 35  1  0  0  0  0
 37 35  2  0  0  0  0
 37 42  1  0  0  0  0
 38  5  2  0  0  0  0
 39 38  1  0  0  0  0
 40  9  1  0  0  0  0
 40 41  1  0  0  0  0
 42 48  2  0  0  0  0
 43 42  1  0  0  0  0
 44 45  1  0  0  0  0
 46 47  1  0  0  0  0
 46 44  2  0  0  0  0
 48 44  1  0  0  0  0
 48 49  1  0  0  0  0
 50 53  1  0  0  0  0
 50  4  1  0  0  0  0
 51 50  2  0  0  0  0
 52 51  1  0  0  0  0
 53 54  1  0  0  0  0
 55 56  1  0  0  0  0
 55 53  2  0  0  0  0
 57 55  1  0  0  0  0
 58 57  1  0  0  0  0
 59 57  2  0  0  0  0
 59 51  1  0  0  0  0
 60 59  1  0  0  0  0
M  END
$$$$
