CSD_code = IPENOG | q = 0 | S = 0 | Stoichiometry = C21H21BrCuP | MND = 2
 OpenBabel04212202053D

 45 47  0  0  1  0  0  0  0  0999 V2000
    6.3987    3.4165    5.7937 Br  0  0  0  0  0  0  0  0  0  0  0  0
    4.3207    3.4167    6.6232 Cu  0  0  0  0  0  0  0  0  0  0  0  0
    2.4511    3.4167    7.7670 P   0  0  1  0  0  4  0  0  0  0  0  0
    1.2544    1.9907    7.6135 C   0  0  2  0  0  0  0  0  0  0  0  0
    0.4822    2.1409    8.3787 H   0  0  0  0  0  0  0  0  0  0  0  0
    1.9543    0.6851    7.8358 C   0  0  0  0  0  0  0  0  0  0  0  0
    1.5920    0.0649    8.6444 H   0  0  0  0  0  0  0  0  0  0  0  0
    2.9938    0.2760    7.0976 C   0  0  0  0  0  0  0  0  0  0  0  0
    3.5021   -0.6372    7.3812 H   0  0  0  0  0  0  0  0  0  0  0  0
    3.5028    0.9234    5.9191 C   0  0  0  0  0  0  0  0  0  0  0  0
    4.5314    0.7037    5.6621 H   0  0  0  0  0  0  0  0  0  0  0  0
    2.7422    1.5928    5.0195 C   0  0  0  0  0  0  0  0  0  0  0  0
    3.2003    1.8975    4.0871 H   0  0  0  0  0  0  0  0  0  0  0  0
    1.3236    1.7753    5.1224 C   0  0  0  0  0  0  0  0  0  0  0  0
    0.7862    1.7989    4.1827 H   0  0  0  0  0  0  0  0  0  0  0  0
    0.6256    1.8926    6.2589 C   0  0  0  0  0  0  0  0  0  0  0  0
   -0.4552    1.9152    6.2220 H   0  0  0  0  0  0  0  0  0  0  0  0
    2.6544    3.4167    9.6006 C   0  0  1  0  0  0  0  0  0  0  0  0
    1.6776    3.4167   10.1094 H   0  0  0  0  0  0  0  0  0  0  0  0
    3.4777    2.2636   10.0802 C   0  0  0  0  0  0  0  0  0  0  0  0
    4.0672    1.7168    9.3561 H   0  0  0  0  0  0  0  0  0  0  0  0
    3.4812    1.9345   11.3803 C   0  0  0  0  0  0  0  0  0  0  0  0
    3.9816    1.0293   11.6977 H   0  0  0  0  0  0  0  0  0  0  0  0
    2.9058    2.7391   12.4161 C   0  0  0  0  0  0  0  0  0  0  0  0
    2.6014    2.2244   13.3183 H   0  0  0  0  0  0  0  0  0  0  0  0
    1.2544    4.8428    7.6136 C   0  0  1  0  0  0  0  0  0  0  0  0
    0.4822    4.6925    8.3788 H   0  0  0  0  0  0  0  0  0  0  0  0
    1.9543    6.1484    7.8360 C   0  0  0  0  0  0  0  0  0  0  0  0
    1.5919    6.7685    8.6446 H   0  0  0  0  0  0  0  0  0  0  0  0
    2.9938    6.5575    7.0979 C   0  0  0  0  0  0  0  0  0  0  0  0
    3.5021    7.4707    7.3815 H   0  0  0  0  0  0  0  0  0  0  0  0
    3.5029    5.9100    5.9194 C   0  0  0  0  0  0  0  0  0  0  0  0
    4.5315    6.1297    5.6625 H   0  0  0  0  0  0  0  0  0  0  0  0
    2.7423    5.2406    5.0197 C   0  0  0  0  0  0  0  0  0  0  0  0
    3.2005    4.9358    4.0874 H   0  0  0  0  0  0  0  0  0  0  0  0
    1.3237    5.0582    5.1226 C   0  0  0  0  0  0  0  0  0  0  0  0
    0.7864    5.0347    4.1828 H   0  0  0  0  0  0  0  0  0  0  0  0
    0.6256    4.9410    6.2590 C   0  0  0  0  0  0  0  0  0  0  0  0
   -0.4552    4.9185    6.2221 H   0  0  0  0  0  0  0  0  0  0  0  0
    2.9057    4.0946   12.4160 C   0  0  0  0  0  0  0  0  0  0  0  0
    3.4810    4.8992   11.3801 C   0  0  0  0  0  0  0  0  0  0  0  0
    3.4776    4.5700   10.0802 C   0  0  0  0  0  0  0  0  0  0  0  0
    4.0670    5.1167    9.3559 H   0  0  0  0  0  0  0  0  0  0  0  0
    3.9813    5.8045   11.6975 H   0  0  0  0  0  0  0  0  0  0  0  0
    2.6012    4.6093   13.3182 H   0  0  0  0  0  0  0  0  0  0  0  0
  1  2  1  0  0  0  0
  3  2  1  6  0  0  0
  3 18  1  0  0  0  0
  4  3  1  0  0  0  0
  4  6  1  0  0  0  0
  4  5  1  1  0  0  0
  6  7  1  0  0  0  0
  8  9  1  0  0  0  0
  8  6  2  0  0  0  0
 10  8  1  0  0  0  0
 11 10  1  0  0  0  0
 12 14  1  0  0  0  0
 12 10  2  0  0  0  0
 13 12  1  0  0  0  0
 14 16  2  0  0  0  0
 15 14  1  0  0  0  0
 16  4  1  0  0  0  0
 17 16  1  0  0  0  0
 18 42  1  0  0  0  0
 18 20  1  0  0  0  0
 18 19  1  1  0  0  0
 20 22  2  0  0  0  0
 21 20  1  0  0  0  0
 22 23  1  0  0  0  0
 22 24  1  0  0  0  0
 24 25  1  0  0  0  0
 26  3  1  0  0  0  0
 26 28  1  0  0  0  0
 26 27  1  1  0  0  0
 28 29  1  0  0  0  0
 30 31  1  0  0  0  0
 30 28  2  0  0  0  0
 32 30  1  0  0  0  0
 33 32  1  0  0  0  0
 34 36  1  0  0  0  0
 34 32  2  0  0  0  0
 35 34  1  0  0  0  0
 36 38  2  0  0  0  0
 37 36  1  0  0  0  0
 38 26  1  0  0  0  0
 39 38  1  0  0  0  0
 40 24  2  0  0  0  0
 40 45  1  0  0  0  0
 41 44  1  0  0  0  0
 41 40  1  0  0  0  0
 42 41  2  0  0  0  0
 43 42  1  0  0  0  0
M  END
$$$$
