CSD_code = IPENIA | q = 0 | S = 0 | Stoichiometry = C21H21ClCuP | MND = 2
 OpenBabel04212202053D

 45 47  0  0  1  0  0  0  0  0999 V2000
    4.2985    3.4555    6.5566 Cu  0  0  0  0  0  0  0  0  0  0  0  0
    6.2752    3.4554    5.8207 Cl  0  0  0  0  0  0  0  0  0  0  0  0
    2.4051    3.4553    7.6378 P   0  0  2  0  0  4  0  0  0  0  0  0
    1.2216    4.8861    7.4519 C   0  0  2  0  0  0  0  0  0  0  0  0
    0.4406    4.7498    8.2108 H   0  0  0  0  0  0  0  0  0  0  0  0
    0.6042    4.9824    6.0918 C   0  0  0  0  0  0  0  0  0  0  0  0
   -0.4765    4.9696    6.0483 H   0  0  0  0  0  0  0  0  0  0  0  0
    1.3096    5.0921    4.9592 C   0  0  0  0  0  0  0  0  0  0  0  0
    0.7753    5.0725    4.0176 H   0  0  0  0  0  0  0  0  0  0  0  0
    2.7304    5.2575    4.8636 C   0  0  0  0  0  0  0  0  0  0  0  0
    3.1901    4.9451    3.9355 H   0  0  0  0  0  0  0  0  0  0  0  0
    3.4969    5.9111    5.7700 C   0  0  0  0  0  0  0  0  0  0  0  0
    4.5308    6.1112    5.5213 H   0  0  0  0  0  0  0  0  0  0  0  0
    2.9860    6.5741    6.9402 C   0  0  0  0  0  0  0  0  0  0  0  0
    3.5019    7.4837    7.2214 H   0  0  0  0  0  0  0  0  0  0  0  0
    1.9342    6.1856    7.6716 C   0  0  0  0  0  0  0  0  0  0  0  0
    1.5710    6.8169    8.4712 H   0  0  0  0  0  0  0  0  0  0  0  0
    2.5673    3.4553    9.4736 C   0  0  2  0  0  0  0  0  0  0  0  0
    1.5814    3.4553    9.9643 H   0  0  0  0  0  0  0  0  0  0  0  0
    3.3843    4.6064    9.9670 C   0  0  0  0  0  0  0  0  0  0  0  0
    3.9881    5.1459    9.2496 H   0  0  0  0  0  0  0  0  0  0  0  0
    3.3648    4.9369   11.2670 C   0  0  0  0  0  0  0  0  0  0  0  0
    3.8600    5.8421   11.5928 H   0  0  0  0  0  0  0  0  0  0  0  0
    2.7726    4.1330   12.2936 C   0  0  0  0  0  0  0  0  0  0  0  0
    2.4549    4.6472   13.1916 H   0  0  0  0  0  0  0  0  0  0  0  0
    1.2216    2.0245    7.4520 C   0  0  1  0  0  0  0  0  0  0  0  0
    0.4406    2.1608    8.2109 H   0  0  0  0  0  0  0  0  0  0  0  0
    0.6042    1.9281    6.0919 C   0  0  0  0  0  0  0  0  0  0  0  0
   -0.4766    1.9409    6.0485 H   0  0  0  0  0  0  0  0  0  0  0  0
    1.3096    1.8183    4.9593 C   0  0  0  0  0  0  0  0  0  0  0  0
    0.7752    1.8379    4.0177 H   0  0  0  0  0  0  0  0  0  0  0  0
    2.7304    1.6530    4.8637 C   0  0  0  0  0  0  0  0  0  0  0  0
    3.1900    1.9653    3.9356 H   0  0  0  0  0  0  0  0  0  0  0  0
    3.4969    0.9994    5.7701 C   0  0  0  0  0  0  0  0  0  0  0  0
    4.5308    0.7994    5.5214 H   0  0  0  0  0  0  0  0  0  0  0  0
    2.9860    0.3365    6.9403 C   0  0  0  0  0  0  0  0  0  0  0  0
    3.5020   -0.5731    7.2216 H   0  0  0  0  0  0  0  0  0  0  0  0
    1.9343    0.7250    7.6718 C   0  0  0  0  0  0  0  0  0  0  0  0
    1.5711    0.0938    8.4714 H   0  0  0  0  0  0  0  0  0  0  0  0
    2.7725    2.7773   12.2935 C   0  0  0  0  0  0  0  0  0  0  0  0
    3.3647    1.9735   11.2668 C   0  0  0  0  0  0  0  0  0  0  0  0
    3.3843    2.3042    9.9669 C   0  0  0  0  0  0  0  0  0  0  0  0
    3.9881    1.7649    9.2494 H   0  0  0  0  0  0  0  0  0  0  0  0
    3.8599    1.0683   11.5926 H   0  0  0  0  0  0  0  0  0  0  0  0
    2.4548    2.2630   13.1915 H   0  0  0  0  0  0  0  0  0  0  0  0
  2  1  1  0  0  0  0
  3  1  1  6  0  0  0
  3 18  1  0  0  0  0
  4  3  1  0  0  0  0
  4 16  1  0  0  0  0
  4  5  1  1  0  0  0
  6  4  1  0  0  0  0
  7  6  1  0  0  0  0
  8  6  2  0  0  0  0
  9  8  1  0  0  0  0
 10  8  1  0  0  0  0
 10 12  2  0  0  0  0
 11 10  1  0  0  0  0
 12 14  1  0  0  0  0
 13 12  1  0  0  0  0
 14 15  1  0  0  0  0
 14 16  2  0  0  0  0
 16 17  1  0  0  0  0
 18 19  1  1  0  0  0
 18 42  1  0  0  0  0
 18 20  1  0  0  0  0
 20 22  2  0  0  0  0
 21 20  1  0  0  0  0
 22 23  1  0  0  0  0
 22 24  1  0  0  0  0
 24 25  1  0  0  0  0
 26  3  1  0  0  0  0
 26 38  1  0  0  0  0
 26 27  1  1  0  0  0
 28 26  1  0  0  0  0
 29 28  1  0  0  0  0
 30 28  2  0  0  0  0
 31 30  1  0  0  0  0
 32 30  1  0  0  0  0
 32 34  2  0  0  0  0
 33 32  1  0  0  0  0
 34 36  1  0  0  0  0
 35 34  1  0  0  0  0
 36 37  1  0  0  0  0
 36 38  2  0  0  0  0
 38 39  1  0  0  0  0
 40 24  2  0  0  0  0
 40 45  1  0  0  0  0
 41 44  1  0  0  0  0
 41 40  1  0  0  0  0
 42 41  2  0  0  0  0
 43 42  1  0  0  0  0
M  END
$$$$
