CSD_code = IPEPAU | q = 0 | S = 0 | Stoichiometry = C21H21AgClP | MND = 2
 OpenBabel04212202053D

 45 47  0  0  1  0  0  0  0  0999 V2000
    0.1320   10.4931   13.6612 Ag  0  0  0  0  0  0  0  0  0  0  0  0
   -1.9412   10.4930   12.7274 Cl  0  0  0  0  0  0  0  0  0  0  0  0
    2.2427   10.4931   14.8207 P   0  0  1  0  0  4  0  0  0  0  0  0
    3.4320   11.9169   14.6117 C   0  0  1  0  0  0  0  0  0  0  0  0
    4.2216   11.7686   15.3600 H   0  0  0  0  0  0  0  0  0  0  0  0
    4.0354   12.0051   13.2460 C   0  0  0  0  0  0  0  0  0  0  0  0
    5.1150   11.9578   13.1930 H   0  0  0  0  0  0  0  0  0  0  0  0
    3.3297   12.1474   12.1162 C   0  0  0  0  0  0  0  0  0  0  0  0
    3.8640   12.1158   11.1747 H   0  0  0  0  0  0  0  0  0  0  0  0
    1.9174   12.3708   12.0154 C   0  0  0  0  0  0  0  0  0  0  0  0
    1.4593   12.1323   11.0632 H   0  0  0  0  0  0  0  0  0  0  0  0
    1.1707   13.0407   12.9330 C   0  0  0  0  0  0  0  0  0  0  0  0
    0.1617   13.3298   12.6572 H   0  0  0  0  0  0  0  0  0  0  0  0
    1.7051   13.6577   14.1189 C   0  0  0  0  0  0  0  0  0  0  0  0
    1.2205   14.5793   14.4177 H   0  0  0  0  0  0  0  0  0  0  0  0
    2.7484   13.2286   14.8414 C   0  0  0  0  0  0  0  0  0  0  0  0
    3.1278   13.8416   15.6481 H   0  0  0  0  0  0  0  0  0  0  0  0
    2.1267   10.4931   16.6586 C   0  0  1  0  0  0  0  0  0  0  0  0
    3.1272   10.4930   17.1197 H   0  0  0  0  0  0  0  0  0  0  0  0
    1.3260   11.6450   17.1745 C   0  0  0  0  0  0  0  0  0  0  0  0
    0.7062   12.1915   16.4738 H   0  0  0  0  0  0  0  0  0  0  0  0
    1.3770   11.9749   18.4736 C   0  0  0  0  0  0  0  0  0  0  0  0
    0.8913   12.8809   18.8111 H   0  0  0  0  0  0  0  0  0  0  0  0
    1.9932   11.1709   19.4858 C   0  0  0  0  0  0  0  0  0  0  0  0
    2.3328   11.6857   20.3755 H   0  0  0  0  0  0  0  0  0  0  0  0
    3.4320    9.0693   14.6117 C   0  0  2  0  0  0  0  0  0  0  0  0
    4.2216    9.2176   15.3600 H   0  0  0  0  0  0  0  0  0  0  0  0
    4.0355    8.9811   13.2459 C   0  0  0  0  0  0  0  0  0  0  0  0
    5.1150    9.0285   13.1929 H   0  0  0  0  0  0  0  0  0  0  0  0
    3.3298    8.8388   12.1161 C   0  0  0  0  0  0  0  0  0  0  0  0
    3.8640    8.8705   11.1747 H   0  0  0  0  0  0  0  0  0  0  0  0
    1.9174    8.6154   12.0153 C   0  0  0  0  0  0  0  0  0  0  0  0
    1.4593    8.8539   11.0631 H   0  0  0  0  0  0  0  0  0  0  0  0
    1.1707    7.9455   12.9330 C   0  0  0  0  0  0  0  0  0  0  0  0
    0.1618    7.6563   12.6572 H   0  0  0  0  0  0  0  0  0  0  0  0
    1.7051    7.3284   14.1189 C   0  0  0  0  0  0  0  0  0  0  0  0
    1.2205    6.4069   14.4176 H   0  0  0  0  0  0  0  0  0  0  0  0
    2.7484    7.7575   14.8414 C   0  0  0  0  0  0  0  0  0  0  0  0
    3.1278    7.1446   15.6480 H   0  0  0  0  0  0  0  0  0  0  0  0
    1.9931    9.8153   19.4859 C   0  0  0  0  0  0  0  0  0  0  0  0
    1.3769    9.0114   18.4736 C   0  0  0  0  0  0  0  0  0  0  0  0
    1.3259    9.3412   17.1745 C   0  0  0  0  0  0  0  0  0  0  0  0
    0.7060    8.7947   16.4739 H   0  0  0  0  0  0  0  0  0  0  0  0
    0.8910    8.1054   18.8112 H   0  0  0  0  0  0  0  0  0  0  0  0
    2.3326    9.3005   20.3756 H   0  0  0  0  0  0  0  0  0  0  0  0
  2  1  1  0  0  0  0
  3  1  1  6  0  0  0
  3 18  1  0  0  0  0
  4  3  1  0  0  0  0
  4 16  1  0  0  0  0
  4  5  1  1  0  0  0
  6  4  1  0  0  0  0
  7  6  1  0  0  0  0
  8  6  2  0  0  0  0
  9  8  1  0  0  0  0
 10  8  1  0  0  0  0
 10 12  2  0  0  0  0
 11 10  1  0  0  0  0
 12 14  1  0  0  0  0
 13 12  1  0  0  0  0
 14 15  1  0  0  0  0
 14 16  2  0  0  0  0
 16 17  1  0  0  0  0
 18 19  1  1  0  0  0
 18 20  1  0  0  0  0
 18 42  1  0  0  0  0
 20 22  2  0  0  0  0
 21 20  1  0  0  0  0
 22 23  1  0  0  0  0
 22 24  1  0  0  0  0
 24 40  2  0  0  0  0
 24 25  1  0  0  0  0
 26  3  1  0  0  0  0
 26 38  1  0  0  0  0
 26 27  1  1  0  0  0
 28 26  1  0  0  0  0
 29 28  1  0  0  0  0
 30 28  2  0  0  0  0
 31 30  1  0  0  0  0
 32 30  1  0  0  0  0
 32 34  2  0  0  0  0
 33 32  1  0  0  0  0
 34 36  1  0  0  0  0
 35 34  1  0  0  0  0
 36 37  1  0  0  0  0
 36 38  2  0  0  0  0
 38 39  1  0  0  0  0
 40 45  1  0  0  0  0
 41 44  1  0  0  0  0
 41 40  1  0  0  0  0
 42 41  2  0  0  0  0
 43 42  1  0  0  0  0
M  END
$$$$
