CSD_code = IPIJEW | q = 0 | S = 0 | Stoichiometry = C8H19AuIP | MND = 2
 OpenBabel04212202053D

 30 29  0  0  0  0  0  0  0  0999 V2000
   -6.8851    2.7973   11.4673 Au  0  0  0  0  0  0  0  0  0  0  0  0
   -7.9049    1.4278    9.5612 I   0  0  0  0  0  0  0  0  0  0  0  0
   -5.9344    4.0069   13.1199 P   0  0  0  0  0  4  0  0  0  0  0  0
   -5.0220    5.4964   12.4542 C   0  0  0  0  0  0  0  0  0  0  0  0
   -6.1445    6.3478   11.8493 C   0  0  0  0  0  0  0  0  0  0  0  0
   -5.7261    7.1958   11.3106 H   0  0  0  0  0  0  0  0  0  0  0  0
   -6.8076    6.7286   12.6260 H   0  0  0  0  0  0  0  0  0  0  0  0
   -6.7394    5.7629   11.1453 H   0  0  0  0  0  0  0  0  0  0  0  0
   -4.2713    6.3025   13.5089 C   0  0  0  0  0  0  0  0  0  0  0  0
   -3.9303    7.2396   13.0707 H   0  0  0  0  0  0  0  0  0  0  0  0
   -3.3952    5.7667   13.8674 H   0  0  0  0  0  0  0  0  0  0  0  0
   -4.9166    6.5391   14.3536 H   0  0  0  0  0  0  0  0  0  0  0  0
   -4.0787    5.0347   11.3444 C   0  0  0  0  0  0  0  0  0  0  0  0
   -3.6526    5.8961   10.8332 H   0  0  0  0  0  0  0  0  0  0  0  0
   -4.6172    4.4373   10.6074 H   0  0  0  0  0  0  0  0  0  0  0  0
   -3.2600    4.4361   11.7381 H   0  0  0  0  0  0  0  0  0  0  0  0
   -5.0142    2.9911   14.3951 C   0  0  0  0  0  0  0  0  0  0  0  0
   -5.9752    1.8248   14.6586 C   0  0  0  0  0  0  0  0  0  0  0  0
   -5.5816    1.1787   15.4410 H   0  0  0  0  0  0  0  0  0  0  0  0
   -6.1140    1.2234   13.7598 H   0  0  0  0  0  0  0  0  0  0  0  0
   -6.9515    2.1931   14.9789 H   0  0  0  0  0  0  0  0  0  0  0  0
   -4.7665    3.7384   15.7033 C   0  0  0  0  0  0  0  0  0  0  0  0
   -4.3623    3.0463   16.4408 H   0  0  0  0  0  0  0  0  0  0  0  0
   -5.6962    4.1463   16.0985 H   0  0  0  0  0  0  0  0  0  0  0  0
   -4.0541    4.5486   15.5822 H   0  0  0  0  0  0  0  0  0  0  0  0
   -3.7133    2.4647   13.7956 C   0  0  0  0  0  0  0  0  0  0  0  0
   -3.3012    1.6781   14.4254 H   0  0  0  0  0  0  0  0  0  0  0  0
   -2.9690    3.2546   13.7131 H   0  0  0  0  0  0  0  0  0  0  0  0
   -3.8900    2.0453   12.8040 H   0  0  0  0  0  0  0  0  0  0  0  0
   -6.7692    4.6801   14.0068 H   0  0  0  0  0  0  0  0  0  0  0  0
  1  3  1  0  0  0  0
  2  1  1  0  0  0  0
  3 30  1  0  0  0  0
  3 17  1  0  0  0  0
  4  3  1  0  0  0  0
  4  9  1  0  0  0  0
  5  4  1  0  0  0  0
  5  7  1  0  0  0  0
  6  5  1  0  0  0  0
  8  5  1  0  0  0  0
  9 11  1  0  0  0  0
  9 12  1  0  0  0  0
 10  9  1  0  0  0  0
 13 16  1  0  0  0  0
 13  4  1  0  0  0  0
 14 13  1  0  0  0  0
 15 13  1  0  0  0  0
 17 18  1  0  0  0  0
 17 22  1  0  0  0  0
 18 21  1  0  0  0  0
 18 19  1  0  0  0  0
 20 18  1  0  0  0  0
 22 24  1  0  0  0  0
 22 23  1  0  0  0  0
 25 22  1  0  0  0  0
 26 17  1  0  0  0  0
 26 27  1  0  0  0  0
 28 26  1  0  0  0  0
 29 26  1  0  0  0  0
M  END
$$$$
