CSD_code = IPIJAS | q = 0 | S = 0 | Stoichiometry = C8H18AuI2P | MND = 2
 OpenBabel04212202053D

 30 29  0  0  0  0  0  0  0  0999 V2000
    7.3874   17.0614   -6.6130 Au  0  0  0  0  0  0  0  0  0  0  0  0
    5.4674   20.5320   -6.1955 I   0  0  0  0  0  0  0  0  0  0  0  0
    8.7554   15.4215   -8.0155 I   0  0  0  0  0  0  0  0  0  0  0  0
    6.1683   18.4143   -5.2315 P   0  0  0  0  0  4  0  0  0  0  0  0
    4.5213   17.5994   -4.7895 C   0  0  0  0  0  0  0  0  0  0  0  0
    4.8391   16.1747   -4.3298 C   0  0  0  0  0  0  0  0  0  0  0  0
    3.6901   18.3313   -3.7429 C   0  0  0  0  0  0  0  0  0  0  0  0
    3.7532   17.5120   -6.1124 C   0  0  0  0  0  0  0  0  0  0  0  0
    7.1865   18.9826   -3.7436 C   0  0  0  0  0  0  0  0  0  0  0  0
    7.5290   17.7358   -2.9272 C   0  0  0  0  0  0  0  0  0  0  0  0
    6.5556   20.0452   -2.8507 C   0  0  0  0  0  0  0  0  0  0  0  0
    8.4723   19.5336   -4.3686 C   0  0  0  0  0  0  0  0  0  0  0  0
    5.3350   16.1542   -3.3632 H   0  0  0  0  0  0  0  0  0  0  0  0
    3.9133   15.6085   -4.2399 H   0  0  0  0  0  0  0  0  0  0  0  0
    5.4733   15.6629   -5.0557 H   0  0  0  0  0  0  0  0  0  0  0  0
    3.5878   19.3898   -3.9793 H   0  0  0  0  0  0  0  0  0  0  0  0
    4.1215   18.2278   -2.7492 H   0  0  0  0  0  0  0  0  0  0  0  0
    2.6905   17.8994   -3.7149 H   0  0  0  0  0  0  0  0  0  0  0  0
    4.4020   17.1611   -6.9192 H   0  0  0  0  0  0  0  0  0  0  0  0
    3.3301   18.4725   -6.4000 H   0  0  0  0  0  0  0  0  0  0  0  0
    2.9322   16.8035   -6.0168 H   0  0  0  0  0  0  0  0  0  0  0  0
    7.8243   16.9078   -3.5744 H   0  0  0  0  0  0  0  0  0  0  0  0
    6.6899   17.4217   -2.3097 H   0  0  0  0  0  0  0  0  0  0  0  0
    8.3650   17.9522   -2.2637 H   0  0  0  0  0  0  0  0  0  0  0  0
    6.3392   20.9583   -3.4009 H   0  0  0  0  0  0  0  0  0  0  0  0
    5.6401   19.6965   -2.3818 H   0  0  0  0  0  0  0  0  0  0  0  0
    7.2596   20.2980   -2.0590 H   0  0  0  0  0  0  0  0  0  0  0  0
    9.1720   19.8212   -3.5859 H   0  0  0  0  0  0  0  0  0  0  0  0
    8.9586   18.7805   -4.9920 H   0  0  0  0  0  0  0  0  0  0  0  0
    8.2781   20.4148   -4.9797 H   0  0  0  0  0  0  0  0  0  0  0  0
  1  4  1  0  0  0  0
  2  4  1  0  0  0  0
  3  1  1  0  0  0  0
  4  5  1  0  0  0  0
  4  9  1  0  0  0  0
  5  6  1  0  0  0  0
  5  7  1  0  0  0  0
  6 14  1  0  0  0  0
  6 13  1  0  0  0  0
  7 18  1  0  0  0  0
  7 17  1  0  0  0  0
  8 21  1  0  0  0  0
  8  5  1  0  0  0  0
  9 10  1  0  0  0  0
  9 11  1  0  0  0  0
 10 23  1  0  0  0  0
 10 24  1  0  0  0  0
 11 26  1  0  0  0  0
 11 27  1  0  0  0  0
 12  9  1  0  0  0  0
 12 28  1  0  0  0  0
 15  6  1  0  0  0  0
 16  7  1  0  0  0  0
 19  8  1  0  0  0  0
 20  8  1  0  0  0  0
 22 10  1  0  0  0  0
 25 11  1  0  0  0  0
 29 12  1  0  0  0  0
 30 12  1  0  0  0  0
M  END
$$$$
