CSD_code = IPITOQ | q = 1 | S = 0 | Stoichiometry = C15H20Cl2CoN4(1+) | MND = 6
 OpenBabel04212202053D

 42 46  0  0  1  0  0  0  0  0999 V2000
    2.8523    9.5910    2.0231 Co  0  0  0  0  0  0  0  0  0  0  0  0
    1.4191    8.3273    0.9968 Cl  0  0  0  0  0  0  0  0  0  0  0  0
    3.3500    7.9211    3.3108 Cl  0  0  0  0  0  0  0  0  0  0  0  0
    5.6135    8.8568    1.0349 C   0  0  0  0  0  0  0  0  0  0  0  0
    6.1904    8.5900    0.1431 H   0  0  0  0  0  0  0  0  0  0  0  0
    5.7768    8.0895    1.7942 H   0  0  0  0  0  0  0  0  0  0  0  0
    3.1992   12.2473    1.2160 C   0  0  1  0  0  3  0  0  0  0  0  0
    2.5308   11.1459    0.8677 N   0  0  0  0  0  0  0  0  0  0  0  0
    4.1539   10.8375    3.0273 N   0  0  1  0  0  4  0  0  0  0  0  0
    3.1634   13.4028    0.4460 C   0  0  0  0  0  0  0  0  0  0  0  0
    3.7211   14.2716    0.7584 H   0  0  0  0  0  0  0  0  0  0  0  0
    6.0924   10.2025    1.5699 C   0  0  0  0  0  0  0  0  0  0  0  0
    7.1817   10.1892    1.6083 H   0  0  0  0  0  0  0  0  0  0  0  0
    5.7933   11.0024    0.8892 H   0  0  0  0  0  0  0  0  0  0  0  0
    1.6099   10.2212    3.3175 N   0  0  0  0  0  0  0  0  0  0  0  0
    1.7041   12.2764   -1.0603 C   0  0  0  0  0  0  0  0  0  0  0  0
    1.0959   12.2410   -1.9488 H   0  0  0  0  0  0  0  0  0  0  0  0
    4.1798    8.8820    0.7123 N   0  0  0  0  0  4  0  0  0  0  0  0
    3.8698    7.9149    0.5798 H   0  0  0  0  0  0  0  0  0  0  0  0
    4.0504    9.3361   -0.1942 H   0  0  0  0  0  0  0  0  0  0  0  0
    5.5739   10.4560    2.9833 C   0  0  0  0  0  0  0  0  0  0  0  0
    5.6870    9.5324    3.5532 H   0  0  0  0  0  0  0  0  0  0  0  0
    6.1734   11.2358    3.4693 H   0  0  0  0  0  0  0  0  0  0  0  0
    2.4058   13.4212   -0.7122 C   0  0  0  0  0  0  0  0  0  0  0  0
    2.3636   14.3068   -1.3263 H   0  0  0  0  0  0  0  0  0  0  0  0
    3.9632   12.2070    2.5078 C   0  0  0  0  0  0  0  0  0  0  0  0
    3.3942   12.7992    3.2338 H   0  0  0  0  0  0  0  0  0  0  0  0
    4.9294   12.7054    2.3781 H   0  0  0  0  0  0  0  0  0  0  0  0
    3.6707   10.7656    4.4160 C   0  0  0  0  0  0  0  0  0  0  0  0
    4.0072    9.8166    4.8470 H   0  0  0  0  0  0  0  0  0  0  0  0
    4.0686   11.5850    5.0258 H   0  0  0  0  0  0  0  0  0  0  0  0
   -0.5372   10.5393    4.2944 C   0  0  0  0  0  0  0  0  0  0  0  0
   -1.6055   10.4336    4.2021 H   0  0  0  0  0  0  0  0  0  0  0  0
    0.0378   11.0649    5.4404 C   0  0  0  0  0  0  0  0  0  0  0  0
   -0.5709   11.3800    6.2731 H   0  0  0  0  0  0  0  0  0  0  0  0
    1.4175   11.1749    5.4940 C   0  0  0  0  0  0  0  0  0  0  0  0
    1.9111   11.5774    6.3644 H   0  0  0  0  0  0  0  0  0  0  0  0
    0.2820   10.1331    3.2565 C   0  0  0  0  0  3  0  0  0  0  0  0
   -0.1373    9.7063    2.3567 H   0  0  0  0  0  0  0  0  0  0  0  0
    2.1733   10.7407    4.4164 C   0  0  0  0  0  0  0  0  0  0  0  0
    1.7973   11.1636   -0.2462 C   0  0  0  0  0  0  0  0  0  0  0  0
    1.2708   10.2475   -0.4775 H   0  0  0  0  0  0  0  0  0  0  0  0
  1  9  1  0  0  0  0
  1  3  1  0  0  0  0
  1 15  1  0  0  0  0
  2  1  1  0  0  0  0
  4 12  1  0  0  0  0
  4  6  1  0  0  0  0
  5  4  1  0  0  0  0
  7 10  1  1  0  0  0
  7 26  1  0  0  0  0
  8  7  1  0  0  0  0
  8  1  1  0  0  0  0
  9 26  1  6  0  0  0
  9 29  1  0  0  0  0
 10 11  1  0  0  0  0
 12 13  1  0  0  0  0
 12 21  1  0  0  0  0
 14 12  1  0  0  0  0
 15 40  1  0  0  0  0
 16 24  1  0  0  0  0
 16 41  2  0  0  0  0
 17 16  1  0  0  0  0
 18  4  1  0  0  0  0
 18  1  1  0  0  0  0
 19 18  1  0  0  0  0
 20 18  1  0  0  0  0
 21  9  1  0  0  0  0
 21 23  1  0  0  0  0
 21 22  1  0  0  0  0
 24 10  2  0  0  0  0
 25 24  1  0  0  0  0
 26 27  1  0  0  0  0
 28 26  1  0  0  0  0
 29 40  1  0  0  0  0
 29 30  1  0  0  0  0
 29 31  1  0  0  0  0
 32 34  2  0  0  0  0
 33 32  1  0  0  0  0
 34 36  1  0  0  0  0
 34 35  1  0  0  0  0
 36 37  1  0  0  0  0
 38 15  1  0  0  0  0
 38 32  1  0  0  0  0
 39 38  1  0  0  0  0
 40 36  2  0  0  0  0
 41  8  1  0  0  0  0
 42 41  1  0  0  0  0
M  END
$$$$
