CSD_code = IPITEH | q = 0 | S = 0 | Stoichiometry = C25H36ClIrO3P2 | MND = 6
 OpenBabel04212202053D

 68 71  0  0  0  0  0  0  0  0999 V2000
   -1.7695    1.5252    7.8910 Ir  0  0  0  0  0  0  0  0  0  0  0  0
   -2.1117    2.9313    5.9512 P   0  0  0  0  0  4  0  0  0  0  0  0
   -2.8134    2.8159    9.6326 P   0  0  0  0  0  4  0  0  0  0  0  0
    0.0199    2.9121    8.5365 Cl  0  0  0  0  0  0  0  0  0  0  0  0
   -3.5971   -0.6708    6.9853 O   0  0  0  0  0  1  0  0  0  0  0  0
   -1.7193    1.8574    4.8025 O   0  0  0  0  0  0  0  0  0  0  0  0
   -2.0516    2.2214   10.9189 O   0  0  0  0  0  0  0  0  0  0  0  0
   -2.9733    0.2217    7.3558 C   0  0  0  0  0  2  0  0  0  0  0  0
   -0.7060    0.9634    5.1543 C   0  0  0  0  0  0  0  0  0  0  0  0
    0.0740    0.4598    4.1269 C   0  0  0  0  0  0  0  0  0  0  0  0
   -0.1509    0.7433    3.1095 H   0  0  0  0  0  0  0  0  0  0  0  0
    1.1330   -0.3799    4.4248 C   0  0  0  0  0  0  0  0  0  0  0  0
    1.7436   -0.7775    3.6284 H   0  0  0  0  0  0  0  0  0  0  0  0
    1.4163   -0.6734    5.7446 C   0  0  0  0  0  0  0  0  0  0  0  0
    2.2645   -1.2936    5.9927 H   0  0  0  0  0  0  0  0  0  0  0  0
    0.6154   -0.1735    6.7621 C   0  0  0  0  0  0  0  0  0  0  0  0
    0.8740   -0.4009    7.7842 H   0  0  0  0  0  0  0  0  0  0  0  0
   -0.4845    0.6278    6.4929 C   0  0  0  0  0  0  0  0  0  0  0  0
   -1.4905    0.9547   10.8059 C   0  0  0  0  0  0  0  0  0  0  0  0
   -1.1259    0.3352   11.9906 C   0  0  0  0  0  0  0  0  0  0  0  0
   -1.2490    0.8709   12.9199 H   0  0  0  0  0  0  0  0  0  0  0  0
   -0.6258   -0.9540   11.9626 C   0  0  0  0  0  0  0  0  0  0  0  0
   -0.3365   -1.4385   12.8828 H   0  0  0  0  0  0  0  0  0  0  0  0
   -0.5247   -1.6169   10.7544 C   0  0  0  0  0  0  0  0  0  0  0  0
   -0.1675   -2.6354   10.7214 H   0  0  0  0  0  0  0  0  0  0  0  0
   -0.8799   -0.9778    9.5751 C   0  0  0  0  0  0  0  0  0  0  0  0
   -0.8043   -1.5250    8.6470 H   0  0  0  0  0  0  0  0  0  0  0  0
   -1.3370    0.3342    9.5627 C   0  0  0  0  0  0  0  0  0  0  0  0
   -3.7734    3.4548    5.2972 C   0  0  0  0  0  0  0  0  0  0  0  0
   -4.0202    4.3937    5.8057 H   0  0  0  0  0  0  0  0  0  0  0  0
   -4.7949    2.3972    5.7044 C   0  0  0  0  0  0  0  0  0  0  0  0
   -4.8019    2.2631    6.7861 H   0  0  0  0  0  0  0  0  0  0  0  0
   -4.5544    1.4435    5.2384 H   0  0  0  0  0  0  0  0  0  0  0  0
   -5.7947    2.6901    5.3877 H   0  0  0  0  0  0  0  0  0  0  0  0
   -3.7899    3.6668    3.7884 C   0  0  0  0  0  0  0  0  0  0  0  0
   -3.1902    4.5252    3.4985 H   0  0  0  0  0  0  0  0  0  0  0  0
   -4.8118    3.8421    3.4540 H   0  0  0  0  0  0  0  0  0  0  0  0
   -3.4090    2.7845    3.2805 H   0  0  0  0  0  0  0  0  0  0  0  0
   -0.9223    4.3453    5.6232 C   0  0  0  0  0  0  0  0  0  0  0  0
   -0.1300    4.1772    6.3649 H   0  0  0  0  0  0  0  0  0  0  0  0
   -1.5564    5.6999    5.9191 C   0  0  0  0  0  0  0  0  0  0  0  0
   -2.0322    5.6947    6.8967 H   0  0  0  0  0  0  0  0  0  0  0  0
   -2.2972    5.9680    5.1682 H   0  0  0  0  0  0  0  0  0  0  0  0
   -0.7870    6.4703    5.9231 H   0  0  0  0  0  0  0  0  0  0  0  0
   -0.2834    4.2989    4.2388 C   0  0  0  0  0  0  0  0  0  0  0  0
    0.2586    3.3671    4.0933 H   0  0  0  0  0  0  0  0  0  0  0  0
    0.4278    5.1187    4.1475 H   0  0  0  0  0  0  0  0  0  0  0  0
   -1.0208    4.3967    3.4461 H   0  0  0  0  0  0  0  0  0  0  0  0
   -2.4615    4.6370    9.8040 C   0  0  0  0  0  0  0  0  0  0  0  0
   -1.5938    4.7847    9.1488 H   0  0  0  0  0  0  0  0  0  0  0  0
   -3.6212    5.4672    9.2626 C   0  0  0  0  0  0  0  0  0  0  0  0
   -3.9629    5.0733    8.3045 H   0  0  0  0  0  0  0  0  0  0  0  0
   -3.3032    6.4987    9.1152 H   0  0  0  0  0  0  0  0  0  0  0  0
   -4.4639    5.4740    9.9503 H   0  0  0  0  0  0  0  0  0  0  0  0
   -2.0372    5.0546   11.2073 C   0  0  0  0  0  0  0  0  0  0  0  0
   -1.1678    4.4811   11.5177 H   0  0  0  0  0  0  0  0  0  0  0  0
   -2.8278    4.9082   11.9374 H   0  0  0  0  0  0  0  0  0  0  0  0
   -1.7657    6.1095   11.2000 H   0  0  0  0  0  0  0  0  0  0  0  0
   -4.6056    2.5828   10.1559 C   0  0  0  0  0  0  0  0  0  0  0  0
   -5.2266    3.1550    9.4596 H   0  0  0  0  0  0  0  0  0  0  0  0
   -4.9371    1.1005   10.0077 C   0  0  0  0  0  0  0  0  0  0  0  0
   -4.7949    0.7670    8.9813 H   0  0  0  0  0  0  0  0  0  0  0  0
   -5.9730    0.9117   10.2859 H   0  0  0  0  0  0  0  0  0  0  0  0
   -4.2961    0.4996   10.6521 H   0  0  0  0  0  0  0  0  0  0  0  0
   -4.8753    3.0347   11.5864 C   0  0  0  0  0  0  0  0  0  0  0  0
   -4.8446    4.1166   11.6829 H   0  0  0  0  0  0  0  0  0  0  0  0
   -4.1419    2.6008   12.2635 H   0  0  0  0  0  0  0  0  0  0  0  0
   -5.8645    2.7002   11.8974 H   0  0  0  0  0  0  0  0  0  0  0  0
  1  4  1  0  0  0  0
  1 28  1  0  0  0  0
  1  3  1  0  0  0  0
  2  1  1  0  0  0  0
  3 49  1  0  0  0  0
  3 59  1  0  0  0  0
  3  7  1  0  0  0  0
  5  8  1  0  0  0  0
  6  9  1  0  0  0  0
  6  2  1  0  0  0  0
  8  1  1  0  0  0  0
  9 18  1  0  0  0  0
 10 12  1  0  0  0  0
 10  9  2  0  0  0  0
 11 10  1  0  0  0  0
 12 14  2  0  0  0  0
 13 12  1  0  0  0  0
 14 15  1  0  0  0  0
 14 16  1  0  0  0  0
 16 17  1  0  0  0  0
 18 16  2  0  0  0  0
 18  1  1  0  0  0  0
 19  7  1  0  0  0  0
 19 20  1  0  0  0  0
 20 21  1  0  0  0  0
 22 20  2  0  0  0  0
 22 23  1  0  0  0  0
 24 22  1  0  0  0  0
 25 24  1  0  0  0  0
 26 24  2  0  0  0  0
 27 26  1  0  0  0  0
 28 26  1  0  0  0  0
 28 19  2  0  0  0  0
 29 31  1  0  0  0  0
 29 30  1  0  0  0  0
 29  2  1  0  0  0  0
 31 32  1  0  0  0  0
 33 31  1  0  0  0  0
 34 31  1  0  0  0  0
 35 29  1  0  0  0  0
 36 35  1  0  0  0  0
 37 35  1  0  0  0  0
 38 35  1  0  0  0  0
 39 41  1  0  0  0  0
 39  2  1  0  0  0  0
 39 40  1  0  0  0  0
 41 44  1  0  0  0  0
 41 42  1  0  0  0  0
 43 41  1  0  0  0  0
 45 39  1  0  0  0  0
 46 45  1  0  0  0  0
 47 45  1  0  0  0  0
 48 45  1  0  0  0  0
 49 55  1  0  0  0  0
 50 49  1  0  0  0  0
 51 49  1  0  0  0  0
 51 54  1  0  0  0  0
 52 51  1  0  0  0  0
 53 51  1  0  0  0  0
 55 56  1  0  0  0  0
 55 57  1  0  0  0  0
 58 55  1  0  0  0  0
 59 65  1  0  0  0  0
 60 59  1  0  0  0  0
 61 59  1  0  0  0  0
 61 63  1  0  0  0  0
 61 64  1  0  0  0  0
 62 61  1  0  0  0  0
 65 66  1  0  0  0  0
 65 68  1  0  0  0  0
 65 67  1  0  0  0  0
M  END
$$$$
