CSD_code = IPONUW | q = 0 | S = 0 | Stoichiometry = C31H24Cl2NOPPt | MND = 4
 OpenBabel04212202053D

 61 66  0  0  0  0  0  0  0  0999 V2000
    2.9075    6.2529    3.3689 Pt  0  0  0  0  0  0  0  0  0  0  0  0
    0.7173    5.9927    2.9459 Cl  0  0  0  0  0  0  0  0  0  0  0  0
    2.9571    4.1840    4.3608 Cl  0  0  0  0  0  0  0  0  0  0  0  0
    3.0518    8.1913    2.2149 P   0  0  0  0  0  4  0  0  0  0  0  0
    4.8396    6.5344    3.8087 N   0  0  0  0  0  0  0  0  0  0  0  0
    6.9336    4.7341    4.3420 O   0  0  0  0  0  0  0  0  0  0  0  0
    5.7968    6.9027    3.0283 C   0  0  0  0  0  3  0  0  0  0  0  0
    6.8177    6.8602    3.4039 H   0  0  0  0  0  0  0  0  0  0  0  0
    4.5096    7.9968    1.1500 C   0  0  0  0  0  0  0  0  0  0  0  0
    4.5049    8.4525   -0.1630 C   0  0  0  0  0  0  0  0  0  0  0  0
    3.6139    8.9234   -0.5540 H   0  0  0  0  0  0  0  0  0  0  0  0
    5.6201    8.3112   -0.9699 C   0  0  0  0  0  0  0  0  0  0  0  0
    5.5944    8.6631   -1.9901 H   0  0  0  0  0  0  0  0  0  0  0  0
    6.7697    7.7260   -0.4604 C   0  0  0  0  0  0  0  0  0  0  0  0
    7.6448    7.6185   -1.0832 H   0  0  0  0  0  0  0  0  0  0  0  0
    6.7957    7.2846    0.8468 C   0  0  0  0  0  0  0  0  0  0  0  0
    7.6902    6.8269    1.2438 H   0  0  0  0  0  0  0  0  0  0  0  0
    5.6693    7.3869    1.6708 C   0  0  0  0  0  0  0  0  0  0  0  0
    6.1277    5.1504    5.3659 C   0  0  0  0  0  0  0  0  0  0  0  0
    5.1270    6.0987    5.1060 C   0  0  0  0  0  0  0  0  0  0  0  0
    4.3331    6.5605    6.1556 C   0  0  0  0  0  0  0  0  0  0  0  0
    3.5612    7.2898    5.9354 H   0  0  0  0  0  0  0  0  0  0  0  0
    4.5229    6.0953    7.4392 C   0  0  0  0  0  0  0  0  0  0  0  0
    3.9012    6.4604    8.2415 H   0  0  0  0  0  0  0  0  0  0  0  0
    5.4944    5.1369    7.6885 C   0  0  0  0  0  0  0  0  0  0  0  0
    5.6318    4.7506    8.6865 H   0  0  0  0  0  0  0  0  0  0  0  0
    6.2841    4.6645    6.6601 C   0  0  0  0  0  0  0  0  0  0  0  0
    7.0336    3.9079    6.8410 H   0  0  0  0  0  0  0  0  0  0  0  0
    7.1583    3.3778    4.2020 C   0  0  0  0  0  0  0  0  0  0  0  0
    8.4013    2.9843    3.7232 C   0  0  0  0  0  0  0  0  0  0  0  0
    9.1497    3.7348    3.5182 H   0  0  0  0  0  0  0  0  0  0  0  0
    8.6579    1.6415    3.5160 C   0  0  0  0  0  0  0  0  0  0  0  0
    9.6249    1.3344    3.1457 H   0  0  0  0  0  0  0  0  0  0  0  0
    7.6829    0.6960    3.7858 C   0  0  0  0  0  0  0  0  0  0  0  0
    7.8877   -0.3518    3.6258 H   0  0  0  0  0  0  0  0  0  0  0  0
    6.4420    1.0983    4.2516 C   0  0  0  0  0  0  0  0  0  0  0  0
    5.6728    0.3668    4.4476 H   0  0  0  0  0  0  0  0  0  0  0  0
    6.1695    2.4376    4.4613 C   0  0  0  0  0  0  0  0  0  0  0  0
    5.1944    2.7608    4.7960 H   0  0  0  0  0  0  0  0  0  0  0  0
    1.7368    8.7753    1.1200 C   0  0  0  0  0  0  0  0  0  0  0  0
    1.2462   10.0753    1.1536 C   0  0  0  0  0  0  0  0  0  0  0  0
    1.6689   10.7974    1.8383 H   0  0  0  0  0  0  0  0  0  0  0  0
    0.2129   10.4371    0.3066 C   0  0  0  0  0  0  0  0  0  0  0  0
   -0.1704   11.4465    0.3310 H   0  0  0  0  0  0  0  0  0  0  0  0
   -0.3330    9.5085   -0.5639 C   0  0  0  0  0  0  0  0  0  0  0  0
   -1.1439    9.7956   -1.2167 H   0  0  0  0  0  0  0  0  0  0  0  0
    0.1519    8.2096   -0.5931 C   0  0  0  0  0  0  0  0  0  0  0  0
   -0.2822    7.4848   -1.2650 H   0  0  0  0  0  0  0  0  0  0  0  0
    1.1823    7.8394    0.2486 C   0  0  0  0  0  0  0  0  0  0  0  0
    1.5586    6.8253    0.2543 H   0  0  0  0  0  0  0  0  0  0  0  0
    3.4621    9.6087    3.2743 C   0  0  0  0  0  0  0  0  0  0  0  0
    2.6948    9.7531    4.4284 C   0  0  0  0  0  0  0  0  0  0  0  0
    1.8977    9.0420    4.6166 H   0  0  0  0  0  0  0  0  0  0  0  0
    2.9513   10.7886    5.3065 C   0  0  0  0  0  0  0  0  0  0  0  0
    2.3553   10.9022    6.1996 H   0  0  0  0  0  0  0  0  0  0  0  0
    3.9809   11.6785    5.0397 C   0  0  0  0  0  0  0  0  0  0  0  0
    4.1872   12.4852    5.7272 H   0  0  0  0  0  0  0  0  0  0  0  0
    4.7476   11.5349    3.8948 C   0  0  0  0  0  0  0  0  0  0  0  0
    5.5485   12.2302    3.6908 H   0  0  0  0  0  0  0  0  0  0  0  0
    4.4921   10.5025    3.0086 C   0  0  0  0  0  0  0  0  0  0  0  0
    5.0881   10.3895    2.1134 H   0  0  0  0  0  0  0  0  0  0  0  0
  1  5  1  0  0  0  0
  1  3  1  0  0  0  0
  2  1  1  0  0  0  0
  4 51  1  0  0  0  0
  4  1  1  0  0  0  0
  5 20  1  0  0  0  0
  6 19  1  0  0  0  0
  7  8  1  0  0  0  0
  7  5  1  0  0  0  0
  9 18  1  0  0  0  0
  9  4  1  0  0  0  0
 10  9  2  0  0  0  0
 11 10  1  0  0  0  0
 12 14  2  0  0  0  0
 12 10  1  0  0  0  0
 13 12  1  0  0  0  0
 14 16  1  0  0  0  0
 15 14  1  0  0  0  0
 16 17  1  0  0  0  0
 16 18  2  0  0  0  0
 18  7  1  0  0  0  0
 19 27  1  0  0  0  0
 20 19  2  0  0  0  0
 20 21  1  0  0  0  0
 21 23  2  0  0  0  0
 22 21  1  0  0  0  0
 23 25  1  0  0  0  0
 23 24  1  0  0  0  0
 25 26  1  0  0  0  0
 27 28  1  0  0  0  0
 27 25  2  0  0  0  0
 29  6  1  0  0  0  0
 29 38  1  0  0  0  0
 30 29  2  0  0  0  0
 31 30  1  0  0  0  0
 32 30  1  0  0  0  0
 32 34  2  0  0  0  0
 33 32  1  0  0  0  0
 34 36  1  0  0  0  0
 35 34  1  0  0  0  0
 36 37  1  0  0  0  0
 36 38  2  0  0  0  0
 38 39  1  0  0  0  0
 40 41  1  0  0  0  0
 40  4  1  0  0  0  0
 41 42  1  0  0  0  0
 43 44  1  0  0  0  0
 43 41  2  0  0  0  0
 45 43  1  0  0  0  0
 46 45  1  0  0  0  0
 47 45  2  0  0  0  0
 47 49  1  0  0  0  0
 48 47  1  0  0  0  0
 49 50  1  0  0  0  0
 49 40  2  0  0  0  0
 51 52  1  0  0  0  0
 52 53  1  0  0  0  0
 52 54  2  0  0  0  0
 54 55  1  0  0  0  0
 56 54  1  0  0  0  0
 56 57  1  0  0  0  0
 58 56  2  0  0  0  0
 59 58  1  0  0  0  0
 60 51  2  0  0  0  0
 60 58  1  0  0  0  0
 61 60  1  0  0  0  0
M  END
$$$$
