CSD_code = IPORUA | q = 0 | S = 0 | Stoichiometry = C27H24Cl2N2P2PtS2 | MND = 4
 OpenBabel04212202053D

 60 65  0  0  0  0  0  0  0  0999 V2000
    8.4836   12.7773    3.1067 Pt  0  0  2  0  0  0  0  0  0  0  0  0
    7.2638   14.4462    4.1393 Cl  0  0  0  0  0  0  0  0  0  0  0  0
   10.6327   19.5160    1.1690 Cl  0  0  0  0  0  0  0  0  0  0  0  0
   12.4373   14.9642    3.6938 S   0  0  0  0  0  0  0  0  0  0  0  0
   10.6419   11.1847    3.9296 P   0  0  0  0  0  4  0  0  0  0  0  0
    6.4928   11.6900    3.0241 P   0  0  0  0  0  4  0  0  0  0  0  0
    9.7591   10.9562    2.1283 S   0  0  0  0  0  0  0  0  0  0  0  0
   10.1298   13.9973    3.0333 N   0  0  0  0  0  0  0  0  0  0  0  0
   11.5724   12.4943    4.1513 N   0  0  0  0  0  0  0  0  0  0  0  0
    5.6118   12.4915    1.6543 C   0  0  0  0  0  0  0  0  0  0  0  0
    4.2324   12.6356    1.5864 C   0  0  0  0  0  0  0  0  0  0  0  0
    3.6039   12.2683    2.3840 H   0  0  0  0  0  0  0  0  0  0  0  0
    3.6591   13.2649    0.4946 C   0  0  0  0  0  0  0  0  0  0  0  0
    2.5861   13.3802    0.4456 H   0  0  0  0  0  0  0  0  0  0  0  0
    4.4545   13.7514   -0.5293 C   0  0  0  0  0  0  0  0  0  0  0  0
    4.0005   14.2462   -1.3751 H   0  0  0  0  0  0  0  0  0  0  0  0
    5.8320   13.6099   -0.4664 C   0  0  0  0  0  0  0  0  0  0  0  0
    6.4533   13.9935   -1.2620 H   0  0  0  0  0  0  0  0  0  0  0  0
    6.4080   12.9823    0.6217 C   0  0  0  0  0  0  0  0  0  0  0  0
    7.4890   12.8621    0.6866 H   0  0  0  0  0  0  0  0  0  0  0  0
    5.3592   11.7253    4.4516 C   0  0  0  0  0  0  0  0  0  0  0  0
    5.1051   12.7591    4.6772 H   0  0  0  0  0  0  0  0  0  0  0  0
    5.8707   11.2931    5.3111 H   0  0  0  0  0  0  0  0  0  0  0  0
    4.4627   11.1454    4.2353 H   0  0  0  0  0  0  0  0  0  0  0  0
    6.4491    9.9243    2.5407 C   0  0  0  0  0  0  0  0  0  0  0  0
    7.0731    9.7798    1.6607 H   0  0  0  0  0  0  0  0  0  0  0  0
    5.4242    9.6275    2.3211 H   0  0  0  0  0  0  0  0  0  0  0  0
    6.8428    9.3214    3.3572 H   0  0  0  0  0  0  0  0  0  0  0  0
    9.4154   11.0181    5.2772 C   0  0  0  0  0  0  0  0  0  0  0  0
    9.0808   12.1207    6.0569 C   0  0  0  0  0  0  0  0  0  0  0  0
    9.5785   13.0685    5.8956 H   0  0  0  0  0  0  0  0  0  0  0  0
    8.1406   11.9832    7.0627 C   0  0  0  0  0  0  0  0  0  0  0  0
    7.8727   12.8371    7.6657 H   0  0  0  0  0  0  0  0  0  0  0  0
    7.5447   10.7521    7.2911 C   0  0  0  0  0  0  0  0  0  0  0  0
    6.8123   10.6474    8.0782 H   0  0  0  0  0  0  0  0  0  0  0  0
    7.8885    9.6523    6.5193 C   0  0  0  0  0  0  0  0  0  0  0  0
    7.4275    8.6933    6.7070 H   0  0  0  0  0  0  0  0  0  0  0  0
    8.8238    9.7825    5.5084 C   0  0  0  0  0  0  0  0  0  0  0  0
    9.1103    8.9347    4.8993 H   0  0  0  0  0  0  0  0  0  0  0  0
   11.7951    9.8200    4.2023 C   0  0  0  0  0  0  0  0  0  0  0  0
   12.5792    9.8770    5.3474 C   0  0  0  0  0  0  0  0  0  0  0  0
   12.4849   10.7296    6.0047 H   0  0  0  0  0  0  0  0  0  0  0  0
   13.4720    8.8569    5.6146 C   0  0  0  0  0  0  0  0  0  0  0  0
   14.0871    8.8951    6.5015 H   0  0  0  0  0  0  0  0  0  0  0  0
   13.5778    7.7842    4.7418 C   0  0  0  0  0  0  0  0  0  0  0  0
   14.2762    6.9874    4.9520 H   0  0  0  0  0  0  0  0  0  0  0  0
   12.7962    7.7321    3.5997 C   0  0  0  0  0  0  0  0  0  0  0  0
   12.8857    6.8982    2.9190 H   0  0  0  0  0  0  0  0  0  0  0  0
   11.8994    8.7507    3.3269 C   0  0  0  0  0  0  0  0  0  0  0  0
   11.2866    8.7265    2.4360 H   0  0  0  0  0  0  0  0  0  0  0  0
   11.2532   13.6588    3.6343 C   0  0  0  0  0  0  0  0  0  0  0  0
   11.3185   15.9851    2.8210 C   0  0  0  0  0  0  0  0  0  0  0  0
   11.4920   17.2922    2.4085 C   0  0  0  0  0  0  0  0  0  0  0  0
   12.4000   17.8296    2.6262 H   0  0  0  0  0  0  0  0  0  0  0  0
   10.4565   17.8815    1.7028 C   0  0  0  0  0  0  0  0  0  0  0  0
    9.2845   17.1929    1.4049 C   0  0  0  0  0  0  0  0  0  0  0  0
    8.5048   17.6862    0.8471 H   0  0  0  0  0  0  0  0  0  0  0  0
    9.1192   15.8880    1.8207 C   0  0  0  0  0  0  0  0  0  0  0  0
    8.2118   15.3424    1.6005 H   0  0  0  0  0  0  0  0  0  0  0  0
   10.1357   15.2771    2.5478 C   0  0  0  0  0  0  0  0  0  0  0  0
  1  2  1  1  0  0  0
  3 55  1  0  0  0  0
  5  9  1  0  0  0  0
  5 40  1  0  0  0  0
  5 29  1  0  0  0  0
  6  1  1  0  0  0  0
  6 21  1  0  0  0  0
  7  1  1  0  0  0  0
  7  5  1  0  0  0  0
  8  1  1  0  0  0  0
  8 51  1  0  0  0  0
 10  6  1  0  0  0  0
 11 10  1  0  0  0  0
 11 12  1  0  0  0  0
 13 11  2  0  0  0  0
 14 13  1  0  0  0  0
 15 17  2  0  0  0  0
 15 13  1  0  0  0  0
 16 15  1  0  0  0  0
 17 19  1  0  0  0  0
 18 17  1  0  0  0  0
 19 20  1  0  0  0  0
 19 10  2  0  0  0  0
 21 22  1  0  0  0  0
 21 23  1  0  0  0  0
 24 21  1  0  0  0  0
 25  6  1  0  0  0  0
 25 28  1  0  0  0  0
 26 25  1  0  0  0  0
 27 25  1  0  0  0  0
 29 38  2  0  0  0  0
 29 30  1  0  0  0  0
 30 32  2  0  0  0  0
 31 30  1  0  0  0  0
 32 34  1  0  0  0  0
 32 33  1  0  0  0  0
 34 35  1  0  0  0  0
 36 37  1  0  0  0  0
 36 34  2  0  0  0  0
 38 36  1  0  0  0  0
 39 38  1  0  0  0  0
 40 41  1  0  0  0  0
 41 43  2  0  0  0  0
 41 42  1  0  0  0  0
 43 44  1  0  0  0  0
 45 46  1  0  0  0  0
 45 43  1  0  0  0  0
 47 45  2  0  0  0  0
 48 47  1  0  0  0  0
 49 47  1  0  0  0  0
 49 40  2  0  0  0  0
 50 49  1  0  0  0  0
 51  4  1  0  0  0  0
 51  9  2  0  0  0  0
 52  4  1  0  0  0  0
 53 54  1  0  0  0  0
 53 52  2  0  0  0  0
 55 53  1  0  0  0  0
 56 55  2  0  0  0  0
 56 58  1  0  0  0  0
 57 56  1  0  0  0  0
 58 60  2  0  0  0  0
 59 58  1  0  0  0  0
 60 52  1  0  0  0  0
 60  8  1  0  0  0  0
M  END
$$$$
