CSD_code = IPOSAJ | q = 0 | S = 0 | Stoichiometry = C12H12ClN4O3Re | MND = 6
 OpenBabel04212202053D

 33 35  0  0  1  0  0  0  0  0999 V2000
    1.7133    7.1603    2.1151 Re  0  0  0  0  0  0  0  0  0  0  0  0
    0.7586    6.8410    4.3562 Cl  0  0  0  0  0  0  0  0  0  0  0  0
    0.4084    5.8942    1.4064 C   0  0  0  0  0  2  0  0  0  0  0  0
    4.4129    8.1892    3.3652 N   0  0  0  0  0  0  0  0  0  0  0  0
    4.0012    9.8665    4.6897 C   0  0  0  0  0  0  0  0  0  0  0  0
    4.0256   10.6738    5.3926 H   0  0  0  0  0  0  0  0  0  0  0  0
    3.1029    5.6255    2.8273 C   0  0  1  0  0  3  0  0  0  0  0  0
    0.3988    8.5635    1.7815 C   0  0  0  0  0  2  0  0  0  0  0  0
    3.1235    7.5473   -0.6103 O   0  0  0  0  0  1  0  0  0  0  0  0
    4.4231    5.8556    3.0432 N   0  0  0  0  0  0  0  0  0  0  0  0
   -0.4291    9.3393    1.6145 O   0  0  0  0  0  1  0  0  0  0  0  0
   -0.4149    5.1881    1.0337 O   0  0  0  0  0  1  0  0  0  0  0  0
    3.0897    8.4551    3.2217 C   0  0  2  0  0  3  0  0  0  0  0  0
    2.8789    4.4022    3.3368 N   0  0  0  0  0  0  0  0  0  0  0  0
    2.5891    7.4038    0.4054 C   0  0  0  0  0  2  0  0  0  0  0  0
    5.0707    7.0950    2.6981 C   0  0  0  0  0  0  0  0  0  0  0  0
    5.0069    7.2449    1.6094 H   0  0  0  0  0  0  0  0  0  0  0  0
    6.1194    7.0571    3.0062 H   0  0  0  0  0  0  0  0  0  0  0  0
    2.8558    9.4921    4.0440 N   0  0  0  0  0  0  0  0  0  0  0  0
    4.9875    9.0420    4.2698 C   0  0  0  0  0  0  0  0  0  0  0  0
    6.0248    8.9955    4.5300 H   0  0  0  0  0  0  0  0  0  0  0  0
    4.0267    3.8788    3.8634 C   0  0  0  0  0  0  0  0  0  0  0  0
    4.0586    2.9119    4.3222 H   0  0  0  0  0  0  0  0  0  0  0  0
    1.5825   10.1301    4.2513 C   0  0  0  0  0  0  0  0  0  0  0  0
    1.6464   10.7895    5.1145 H   0  0  0  0  0  0  0  0  0  0  0  0
    0.8216    9.3690    4.4363 H   0  0  0  0  0  0  0  0  0  0  0  0
    1.2980   10.7102    3.3719 H   0  0  0  0  0  0  0  0  0  0  0  0
    5.0050    4.7959    3.6868 C   0  0  0  0  0  0  0  0  0  0  0  0
    6.0411    4.7806    3.9550 H   0  0  0  0  0  0  0  0  0  0  0  0
    1.6118    3.7201    3.3569 C   0  0  0  0  0  0  0  0  0  0  0  0
    0.8478    4.3860    3.7641 H   0  0  0  0  0  0  0  0  0  0  0  0
    1.6890    2.8354    3.9857 H   0  0  0  0  0  0  0  0  0  0  0  0
    1.3222    3.4237    2.3473 H   0  0  0  0  0  0  0  0  0  0  0  0
  1  7  1  0  0  0  0
  1 13  1  0  0  0  0
  1  2  1  0  0  0  0
  3  1  1  0  0  0  0
  4 20  1  0  0  0  0
  5  6  1  0  0  0  0
  7 10  1  1  0  0  0
  7 14  1  0  0  0  0
  8  1  1  0  0  0  0
  9 15  1  0  0  0  0
 10 28  1  0  0  0  0
 11  8  1  0  0  0  0
 12  3  1  0  0  0  0
 13  4  1  1  0  0  0
 13 19  1  0  0  0  0
 14 30  1  0  0  0  0
 14 22  1  0  0  0  0
 15  1  1  0  0  0  0
 16 18  1  0  0  0  0
 16 10  1  0  0  0  0
 16  4  1  0  0  0  0
 17 16  1  0  0  0  0
 19 24  1  0  0  0  0
 19  5  1  0  0  0  0
 20 21  1  0  0  0  0
 20  5  2  0  0  0  0
 22 23  1  0  0  0  0
 24 26  1  0  0  0  0
 24 25  1  0  0  0  0
 27 24  1  0  0  0  0
 28 22  2  0  0  0  0
 28 29  1  0  0  0  0
 30 31  1  0  0  0  0
 30 32  1  0  0  0  0
 33 30  1  0  0  0  0
M  END
$$$$
