CSD_code = IPUJAG | q = 0 | S = 0 | Stoichiometry = C19H16Cl2N4Pd | MND = 4
 OpenBabel04212202053D

 42 46  0  0  1  0  0  0  0  0999 V2000
    2.2006    1.1873    9.8915 Pd  0  0  0  0  0  0  0  0  0  0  0  0
    3.5290    2.9190   10.2528 Cl  0  0  0  0  0  0  0  0  0  0  0  0
    0.3796    2.4315   10.1240 Cl  0  0  0  0  0  0  0  0  0  0  0  0
    3.8264   -1.0128    8.8885 N   0  0  1  0  0  0  0  0  0  0  0  0
    1.0477   -0.4628    9.4226 N   0  0  2  0  0  0  0  0  0  0  0  0
    1.5294   -1.2444    8.4496 N   0  0  0  0  0  0  0  0  0  0  0  0
    3.8286   -0.0863    9.8506 N   0  0  0  0  0  0  0  0  0  0  0  0
    2.8141   -0.9316    7.8583 C   0  0  1  0  0  0  0  0  0  0  0  0
    1.7569    1.0780    6.7400 C   0  0  0  0  0  0  0  0  0  0  0  0
    0.7949    0.5767    6.7405 H   0  0  0  0  0  0  0  0  0  0  0  0
   -0.1258   -0.9507    9.7709 C   0  0  0  0  0  3  0  0  0  0  0  0
   -0.7086   -0.4718   10.5343 H   0  0  0  0  0  0  0  0  0  0  0  0
    2.8237    0.4767    7.2845 C   0  0  0  0  0  0  0  0  0  0  0  0
    3.8012    0.9482    7.2597 H   0  0  0  0  0  0  0  0  0  0  0  0
    1.8054    2.3961    6.1183 C   0  0  0  0  0  0  0  0  0  0  0  0
    0.6675   -2.2464    8.1713 C   0  0  0  0  0  0  0  0  0  0  0  0
    0.8748   -2.9776    7.4163 H   0  0  0  0  0  0  0  0  0  0  0  0
   -0.4142   -2.0876    9.0031 C   0  0  0  0  0  0  0  0  0  0  0  0
   -1.2902   -2.6995    9.0539 H   0  0  0  0  0  0  0  0  0  0  0  0
    2.9220    2.7837    5.4069 C   0  0  0  0  0  0  0  0  0  0  0  0
    3.7554    2.1038    5.3062 H   0  0  0  0  0  0  0  0  0  0  0  0
    0.6969    3.2860    6.2279 C   0  0  0  0  0  0  0  0  0  0  0  0
    0.7729    4.5503    5.5824 C   0  0  0  0  0  0  0  0  0  0  0  0
    2.9860    4.0283    4.7751 C   0  0  0  0  0  0  0  0  0  0  0  0
    3.8742    4.2955    4.2217 H   0  0  0  0  0  0  0  0  0  0  0  0
   -0.4558    2.9893    6.9840 C   0  0  0  0  0  0  0  0  0  0  0  0
   -0.5223    2.0609    7.5282 H   0  0  0  0  0  0  0  0  0  0  0  0
    4.8303   -1.8977    9.0727 C   0  0  0  0  0  3  0  0  0  0  0  0
    4.9957   -2.7149    8.4003 H   0  0  0  0  0  0  0  0  0  0  0  0
   -1.4814    3.8888    7.0840 C   0  0  0  0  0  0  0  0  0  0  0  0
   -2.3471    3.6498    7.6827 H   0  0  0  0  0  0  0  0  0  0  0  0
    5.5037   -1.5065   10.2043 C   0  0  0  0  0  0  0  0  0  0  0  0
    6.3592   -1.9737   10.6451 H   0  0  0  0  0  0  0  0  0  0  0  0
    4.8327   -0.3618   10.6580 C   0  0  0  0  0  0  0  0  0  0  0  0
    5.0401    0.2637   11.5055 H   0  0  0  0  0  0  0  0  0  0  0  0
   -1.4126    5.1274    6.4319 C   0  0  0  0  0  0  0  0  0  0  0  0
   -2.2314    5.8258    6.5247 H   0  0  0  0  0  0  0  0  0  0  0  0
   -0.3079    5.4497    5.6959 C   0  0  0  0  0  0  0  0  0  0  0  0
   -0.2356    6.4070    5.1993 H   0  0  0  0  0  0  0  0  0  0  0  0
    1.9313    4.8943    4.8569 C   0  0  0  0  0  0  0  0  0  0  0  0
    1.9727    5.8593    4.3724 H   0  0  0  0  0  0  0  0  0  0  0  0
    3.0341   -1.6872    7.0912 H   0  0  0  0  0  0  0  0  0  0  0  0
  1  3  1  0  0  0  0
  1  2  1  0  0  0  0
  4 28  1  6  0  0  0
  4  7  1  0  0  0  0
  5 11  1  6  0  0  0
  5  1  1  0  0  0  0
  6  5  1  0  0  0  0
  7  1  1  0  0  0  0
  7 34  1  0  0  0  0
  8 42  1  6  0  0  0
  8  6  1  0  0  0  0
  8  4  1  0  0  0  0
  9 10  1  0  0  0  0
  9 13  2  0  0  0  0
 11 12  1  0  0  0  0
 13  8  1  0  0  0  0
 14 13  1  0  0  0  0
 15 22  1  0  0  0  0
 15  9  1  0  0  0  0
 16  6  1  0  0  0  0
 16 18  2  0  0  0  0
 17 16  1  0  0  0  0
 18 19  1  0  0  0  0
 18 11  1  0  0  0  0
 20 15  2  0  0  0  0
 21 20  1  0  0  0  0
 22 26  1  0  0  0  0
 23 38  1  0  0  0  0
 23 22  2  0  0  0  0
 24 40  2  0  0  0  0
 24 20  1  0  0  0  0
 25 24  1  0  0  0  0
 26 30  2  0  0  0  0
 26 27  1  0  0  0  0
 28 32  1  0  0  0  0
 29 28  1  0  0  0  0
 30 31  1  0  0  0  0
 32 33  1  0  0  0  0
 32 34  2  0  0  0  0
 34 35  1  0  0  0  0
 36 37  1  0  0  0  0
 36 30  1  0  0  0  0
 38 36  2  0  0  0  0
 39 38  1  0  0  0  0
 40 23  1  0  0  0  0
 41 40  1  0  0  0  0
M  END
$$$$
