CSD_code = IPUSOC | q = 0 | S = 0 | Stoichiometry = C26H22Cl2F10N4O2Pd | MND = 4
 OpenBabel04212202053D

 67 70  0  0  1  0  0  0  0  0999 V2000
    1.0724    0.4666    8.7061 C   0  0  0  0  0  0  0  0  0  0  0  0
   -0.0963   -0.4557    8.4373 C   0  0  0  0  0  0  0  0  0  0  0  0
   -1.3271   -0.2338    9.0496 C   0  0  0  0  0  0  0  0  0  0  0  0
   -2.4035   -1.0922    8.8289 C   0  0  0  0  0  0  0  0  0  0  0  0
   -2.2509   -2.1942    7.9906 C   0  0  0  0  0  0  0  0  0  0  0  0
   -1.0214   -2.4359    7.3833 C   0  0  0  0  0  0  0  0  0  0  0  0
    0.0411   -1.5716    7.6192 C   0  0  0  0  0  0  0  0  0  0  0  0
    2.6418    1.8475    7.4546 C   0  0  1  0  0  3  0  0  0  0  0  0
    3.2795    2.5295    8.6215 C   0  0  0  0  0  0  0  0  0  0  0  0
    3.6758    1.8110    9.3372 H   0  0  0  0  0  0  0  0  0  0  0  0
    2.5321    3.1287    9.1457 H   0  0  0  0  0  0  0  0  0  0  0  0
    4.3578    3.3766    7.9361 C   0  0  0  0  0  0  0  0  0  0  0  0
    5.3351    2.9085    8.0502 H   0  0  0  0  0  0  0  0  0  0  0  0
    4.4114    4.3861    8.3361 H   0  0  0  0  0  0  0  0  0  0  0  0
    3.9555    3.3856    6.4426 C   0  0  0  0  0  0  0  0  0  0  0  0
    5.1509    3.2327    5.5096 C   0  0  0  0  0  0  0  0  0  0  0  0
    4.8203    3.2070    4.4714 H   0  0  0  0  0  0  0  0  0  0  0  0
    5.6808    2.3063    5.7195 H   0  0  0  0  0  0  0  0  0  0  0  0
    5.8301    4.0707    5.6437 H   0  0  0  0  0  0  0  0  0  0  0  0
    3.1425    4.6318    6.0753 C   0  0  0  0  0  0  0  0  0  0  0  0
    2.3724    4.8212    6.8202 H   0  0  0  0  0  0  0  0  0  0  0  0
    2.6511    4.4622    5.1162 H   0  0  0  0  0  0  0  0  0  0  0  0
    3.7875    5.5017    5.9929 H   0  0  0  0  0  0  0  0  0  0  0  0
    1.3645   -0.5285    2.8766 C   0  0  2  0  0  3  0  0  0  0  0  0
    1.3316   -1.3365    4.1350 C   0  0  0  0  0  0  0  0  0  0  0  0
    0.4213   -1.0525    4.6773 H   0  0  0  0  0  0  0  0  0  0  0  0
    2.2079   -1.1312    4.7642 H   0  0  0  0  0  0  0  0  0  0  0  0
    1.2905   -2.7850    3.6362 C   0  0  0  0  0  0  0  0  0  0  0  0
    0.5972   -3.3973    4.2076 H   0  0  0  0  0  0  0  0  0  0  0  0
    2.2827   -3.2267    3.7149 H   0  0  0  0  0  0  0  0  0  0  0  0
    0.8738   -2.6938    2.1519 C   0  0  0  0  0  0  0  0  0  0  0  0
    1.7125   -3.5910    1.2488 C   0  0  0  0  0  0  0  0  0  0  0  0
    2.7653   -3.3335    1.3341 H   0  0  0  0  0  0  0  0  0  0  0  0
    1.4096   -3.4795    0.2106 H   0  0  0  0  0  0  0  0  0  0  0  0
    1.5820   -4.6302    1.5371 H   0  0  0  0  0  0  0  0  0  0  0  0
   -0.6195   -2.9610    1.9563 C   0  0  0  0  0  0  0  0  0  0  0  0
   -0.9062   -2.7848    0.9223 H   0  0  0  0  0  0  0  0  0  0  0  0
   -1.2112   -2.3077    2.5933 H   0  0  0  0  0  0  0  0  0  0  0  0
   -0.8480   -3.9931    2.2065 H   0  0  0  0  0  0  0  0  0  0  0  0
    1.1618    1.4877    1.7635 C   0  0  0  0  0  0  0  0  0  0  0  0
    0.8927    2.9522    2.0199 C   0  0  0  0  0  0  0  0  0  0  0  0
    1.8683    3.8263    2.4780 C   0  0  0  0  0  0  0  0  0  0  0  0
    1.6045    5.1793    2.6625 C   0  0  0  0  0  0  0  0  0  0  0  0
    0.3214    5.6637    2.4215 C   0  0  0  0  0  0  0  0  0  0  0  0
   -0.6765    4.7985    1.9810 C   0  0  0  0  0  0  0  0  0  0  0  0
   -0.3805    3.4548    1.7693 C   0  0  0  0  0  0  0  0  0  0  0  0
    1.6575    0.8969    7.5493 N   0  0  0  0  0  0  0  0  0  0  0  0
    1.2351    0.6821    6.6337 H   0  0  0  0  0  0  0  0  0  0  0  0
    1.4779    0.7906    2.8924 N   0  0  0  0  0  0  0  0  0  0  0  0
    3.0386    2.2524    6.3088 N   0  0  0  0  0  0  0  0  0  0  0  0
    1.1450   -1.2946    1.8381 N   0  0  0  0  0  0  0  0  0  0  0  0
    1.0577   -0.9018    0.9043 H   0  0  0  0  0  0  0  0  0  0  0  0
    1.4257    0.7573    9.8181 O   0  0  0  0  0  0  0  0  0  0  0  0
    1.0049    1.0185    0.6536 O   0  0  0  0  0  0  0  0  0  0  0  0
   -1.4966    0.8215    9.8333 F   0  0  0  0  0  0  0  0  0  0  0  0
   -3.5768   -0.8634    9.4116 F   0  0  0  0  0  0  0  0  0  0  0  0
   -3.2737   -3.0138    7.7684 F   0  0  0  0  0  0  0  0  0  0  0  0
   -0.8664   -3.4830    6.5683 F   0  0  0  0  0  0  0  0  0  0  0  0
    1.2241   -1.8312    7.0521 F   0  0  0  0  0  0  0  0  0  0  0  0
    3.1049    3.3540    2.7376 F   0  0  0  0  0  0  0  0  0  0  0  0
    2.5673    6.0085    3.0694 F   0  0  0  0  0  0  0  0  0  0  0  0
    0.0545    6.9541    2.6050 F   0  0  0  0  0  0  0  0  0  0  0  0
   -1.9025    5.2630    1.7496 F   0  0  0  0  0  0  0  0  0  0  0  0
   -1.3411    2.6384    1.3442 F   0  0  0  0  0  0  0  0  0  0  0  0
    0.1964    2.4649    5.1247 Cl  0  0  0  0  0  0  0  0  0  0  0  0
    4.1806    0.3902    4.1434 Cl  0  0  0  0  0  0  0  0  0  0  0  0
    2.2831    1.5764    4.6166 Pd  0  0  0  0  0  0  0  0  0  0  0  0
  1 53  2  0  0  0  0
  2  1  1  0  0  0  0
  2  3  1  0  0  0  0
  3 55  1  0  0  0  0
  4  3  2  0  0  0  0
  4 56  1  0  0  0  0
  5  4  1  0  0  0  0
  6  7  1  0  0  0  0
  6  5  2  0  0  0  0
  7  2  2  0  0  0  0
  8 47  1  6  0  0  0
  8  9  1  0  0  0  0
  9 11  1  0  0  0  0
  9 10  1  0  0  0  0
 12 13  1  0  0  0  0
 12 14  1  0  0  0  0
 12  9  1  0  0  0  0
 15 12  1  0  0  0  0
 16 19  1  0  0  0  0
 16 18  1  0  0  0  0
 16 15  1  0  0  0  0
 17 16  1  0  0  0  0
 20 15  1  0  0  0  0
 20 21  1  0  0  0  0
 22 20  1  0  0  0  0
 23 20  1  0  0  0  0
 24 49  1  1  0  0  0
 24 25  1  0  0  0  0
 25 26  1  0  0  0  0
 25 27  1  0  0  0  0
 28 30  1  0  0  0  0
 28 25  1  0  0  0  0
 28 29  1  0  0  0  0
 31 28  1  0  0  0  0
 32 33  1  0  0  0  0
 32 35  1  0  0  0  0
 32 31  1  0  0  0  0
 34 32  1  0  0  0  0
 36 31  1  0  0  0  0
 36 39  1  0  0  0  0
 36 38  1  0  0  0  0
 37 36  1  0  0  0  0
 40 41  1  0  0  0  0
 40 49  1  0  0  0  0
 41 42  1  0  0  0  0
 42 43  2  0  0  0  0
 42 60  1  0  0  0  0
 43 61  1  0  0  0  0
 44 62  1  0  0  0  0
 44 43  1  0  0  0  0
 45 44  2  0  0  0  0
 46 45  1  0  0  0  0
 46 41  2  0  0  0  0
 47  1  1  0  0  0  0
 48 47  1  0  0  0  0
 49 67  1  0  0  0  0
 50 15  1  0  0  0  0
 50  8  1  0  0  0  0
 51 31  1  0  0  0  0
 51 24  1  0  0  0  0
 52 51  1  0  0  0  0
 54 40  2  0  0  0  0
 57  5  1  0  0  0  0
 58  6  1  0  0  0  0
 59  7  1  0  0  0  0
 63 45  1  0  0  0  0
 64 46  1  0  0  0  0
 66 67  1  0  0  0  0
 67 65  1  0  0  0  0
 67 50  1  0  0  0  0
M  END
$$$$
