CSD_code = IQADUA | q = 0 | S = 0 | Stoichiometry = C33H27Cl2NNiP2 | MND = 4
 OpenBabel04212202053D

 66 72  0  0  0  0  0  0  0  0999 V2000
    1.8503    0.4839   -0.9235 Ni  0  0  0  0  0  0  0  0  0  0  0  0
   -0.2071    0.0136   -0.7352 Cl  0  0  0  0  0  0  0  0  0  0  0  0
    1.9440    1.0101   -2.9419 Cl  0  0  0  0  0  0  0  0  0  0  0  0
    1.6092   -0.0514    1.1059 P   0  0  0  0  0  4  0  0  0  0  0  0
    3.0409   -0.0898    2.1030 N   0  0  0  0  0  0  0  0  0  0  0  0
    4.2740    0.4622    1.8244 C   0  0  0  0  0  0  0  0  0  0  0  0
    3.9503    0.7001   -0.9631 P   0  0  0  0  0  4  0  0  0  0  0  0
    4.8314    0.9006    0.6196 C   0  0  0  0  0  0  0  0  0  0  0  0
    4.5157   -0.9674   -1.4300 C   0  0  0  0  0  0  0  0  0  0  0  0
    5.8656   -1.2991   -1.4868 C   0  0  0  0  0  0  0  0  0  0  0  0
    6.6140   -0.5448   -1.2886 H   0  0  0  0  0  0  0  0  0  0  0  0
    6.2402   -2.5933   -1.7966 C   0  0  0  0  0  0  0  0  0  0  0  0
    7.2880   -2.8511   -1.8479 H   0  0  0  0  0  0  0  0  0  0  0  0
    5.2763   -3.5609   -2.0378 C   0  0  0  0  0  0  0  0  0  0  0  0
    5.5765   -4.5704   -2.2772 H   0  0  0  0  0  0  0  0  0  0  0  0
    3.9313   -3.2362   -1.9735 C   0  0  0  0  0  0  0  0  0  0  0  0
    3.1800   -3.9889   -2.1607 H   0  0  0  0  0  0  0  0  0  0  0  0
    3.5515   -1.9412   -1.6710 C   0  0  0  0  0  0  0  0  0  0  0  0
    2.4908   -1.6720   -1.6370 H   0  0  0  0  0  0  0  0  0  0  0  0
    4.7920    1.8641   -2.0635 C   0  0  0  0  0  0  0  0  0  0  0  0
    5.3060    1.4720   -3.2930 C   0  0  0  0  0  0  0  0  0  0  0  0
    5.2451    0.4368   -3.5963 H   0  0  0  0  0  0  0  0  0  0  0  0
    5.8787    2.4152   -4.1271 C   0  0  0  0  0  0  0  0  0  0  0  0
    6.2802    2.1115   -5.0826 H   0  0  0  0  0  0  0  0  0  0  0  0
    5.9272    3.7463   -3.7468 C   0  0  0  0  0  0  0  0  0  0  0  0
    6.3707    4.4793   -4.4044 H   0  0  0  0  0  0  0  0  0  0  0  0
    5.3953    4.1421   -2.5296 C   0  0  0  0  0  0  0  0  0  0  0  0
    5.4208    5.1823   -2.2395 H   0  0  0  0  0  0  0  0  0  0  0  0
    4.8234    3.2053   -1.6906 C   0  0  0  0  0  0  0  0  0  0  0  0
    4.3978    3.5025   -0.7402 H   0  0  0  0  0  0  0  0  0  0  0  0
    6.1254    1.4045    0.6636 C   0  0  0  0  0  0  0  0  0  0  0  0
    6.5794    1.7668   -0.2477 H   0  0  0  0  0  0  0  0  0  0  0  0
    6.8542    1.4631    1.8483 C   0  0  0  0  0  0  0  0  0  0  0  0
    7.8559    1.8662    1.8265 H   0  0  0  0  0  0  0  0  0  0  0  0
    6.3206    1.0050    3.0331 C   0  0  0  0  0  0  0  0  0  0  0  0
    6.8903    1.0326    3.9494 H   0  0  0  0  0  0  0  0  0  0  0  0
    5.0233    0.5010    3.0265 C   0  0  0  0  0  0  0  0  0  0  0  0
    4.1938   -0.0524    4.0540 C   0  0  0  0  0  0  0  0  0  0  0  0
    3.0218   -0.3823    3.4568 C   0  0  0  0  0  0  0  0  0  0  0  0
    2.1542   -0.8422    3.8913 H   0  0  0  0  0  0  0  0  0  0  0  0
    4.5683   -0.2227    5.4850 C   0  0  0  0  0  0  0  0  0  0  0  0
    4.7993    0.7431    5.9335 H   0  0  0  0  0  0  0  0  0  0  0  0
    5.4514   -0.8545    5.5749 H   0  0  0  0  0  0  0  0  0  0  0  0
    3.7519   -0.6799    6.0380 H   0  0  0  0  0  0  0  0  0  0  0  0
    0.7310    1.3170    1.9246 C   0  0  0  0  0  0  0  0  0  0  0  0
    0.7395    2.5237    1.2299 C   0  0  0  0  0  0  0  0  0  0  0  0
    1.1900    2.5610    0.2328 H   0  0  0  0  0  0  0  0  0  0  0  0
    0.1595    3.6502    1.7788 C   0  0  0  0  0  0  0  0  0  0  0  0
    0.1615    4.5820    1.2332 H   0  0  0  0  0  0  0  0  0  0  0  0
   -0.4316    3.5754    3.0305 C   0  0  0  0  0  0  0  0  0  0  0  0
   -0.8921    4.4516    3.4622 H   0  0  0  0  0  0  0  0  0  0  0  0
   -0.4387    2.3779    3.7266 C   0  0  0  0  0  0  0  0  0  0  0  0
   -0.9042    2.3224    4.6998 H   0  0  0  0  0  0  0  0  0  0  0  0
    0.1453    1.2474    3.1817 C   0  0  0  0  0  0  0  0  0  0  0  0
    0.1304    0.3159    3.7289 H   0  0  0  0  0  0  0  0  0  0  0  0
    0.8988   -1.6287    1.6415 C   0  0  0  0  0  0  0  0  0  0  0  0
   -0.4535   -1.7576    1.9348 C   0  0  0  0  0  0  0  0  0  0  0  0
   -1.1009   -0.8958    1.8653 H   0  0  0  0  0  0  0  0  0  0  0  0
   -0.9618   -2.9940    2.2897 C   0  0  0  0  0  0  0  0  0  0  0  0
   -2.0113   -3.0940    2.5240 H   0  0  0  0  0  0  0  0  0  0  0  0
   -0.1326   -4.1033    2.3335 C   0  0  0  0  0  0  0  0  0  0  0  0
   -0.5356   -5.0675    2.6060 H   0  0  0  0  0  0  0  0  0  0  0  0
    1.2105   -3.9804    2.0150 C   0  0  0  0  0  0  0  0  0  0  0  0
    1.8540   -4.8478    2.0327 H   0  0  0  0  0  0  0  0  0  0  0  0
    1.7274   -2.7467    1.6665 C   0  0  0  0  0  0  0  0  0  0  0  0
    2.7739   -2.6434    1.4086 H   0  0  0  0  0  0  0  0  0  0  0  0
  1  2  1  0  0  0  0
  1  4  1  0  0  0  0
  3  1  1  0  0  0  0
  4 56  1  0  0  0  0
  4 45  1  0  0  0  0
  4  5  1  0  0  0  0
  5 39  1  0  0  0  0
  6  5  1  0  0  0  0
  6 37  1  0  0  0  0
  7  1  1  0  0  0  0
  7  8  1  0  0  0  0
  8 31  1  0  0  0  0
  8  6  2  0  0  0  0
  9  7  1  0  0  0  0
 10  9  1  0  0  0  0
 10 11  1  0  0  0  0
 12 10  2  0  0  0  0
 13 12  1  0  0  0  0
 14 16  2  0  0  0  0
 14 12  1  0  0  0  0
 15 14  1  0  0  0  0
 16 18  1  0  0  0  0
 17 16  1  0  0  0  0
 18 19  1  0  0  0  0
 18  9  2  0  0  0  0
 20 29  1  0  0  0  0
 20  7  1  0  0  0  0
 21 20  2  0  0  0  0
 22 21  1  0  0  0  0
 23 25  2  0  0  0  0
 23 21  1  0  0  0  0
 24 23  1  0  0  0  0
 25 27  1  0  0  0  0
 26 25  1  0  0  0  0
 27 28  1  0  0  0  0
 27 29  2  0  0  0  0
 29 30  1  0  0  0  0
 31 33  2  0  0  0  0
 32 31  1  0  0  0  0
 33 35  1  0  0  0  0
 34 33  1  0  0  0  0
 35 36  1  0  0  0  0
 37 35  2  0  0  0  0
 37 38  1  0  0  0  0
 38 41  1  0  0  0  0
 39 40  1  0  0  0  0
 39 38  2  0  0  0  0
 41 43  1  0  0  0  0
 41 42  1  0  0  0  0
 41 44  1  0  0  0  0
 45 54  1  0  0  0  0
 46 48  1  0  0  0  0
 46 45  2  0  0  0  0
 47 46  1  0  0  0  0
 48 50  2  0  0  0  0
 49 48  1  0  0  0  0
 50 51  1  0  0  0  0
 50 52  1  0  0  0  0
 52 53  1  0  0  0  0
 54 52  2  0  0  0  0
 54 55  1  0  0  0  0
 56 65  2  0  0  0  0
 56 57  1  0  0  0  0
 57 59  2  0  0  0  0
 58 57  1  0  0  0  0
 59 61  1  0  0  0  0
 59 60  1  0  0  0  0
 61 62  1  0  0  0  0
 63 64  1  0  0  0  0
 63 61  2  0  0  0  0
 65 63  1  0  0  0  0
 66 65  1  0  0  0  0
M  END
$$$$
