CSD_code = IQAYOO | q = 0 | S = 0 | Stoichiometry = C29H34Cl2OTi | MND = 8
 OpenBabel04212202053D

 67 70  0  0  1  0  0  0  0  0999 V2000
    1.6769    2.7253    3.6811 Ti  0  0  0  0  0  0  0  0  0  0  0  0
    2.3039    0.6721    3.2741 Cl  0  0  0  0  0  0  0  0  0  0  0  0
    2.3623    2.6076    5.7657 Cl  0  0  0  0  0  0  0  0  0  0  0  0
    2.8537    3.7004    3.0228 O   0  0  0  0  0  0  0  0  0  0  0  0
   -0.0099    3.8722    2.5979 C   0  0  0  0  0  0  0  0  0  0  0  0
   -0.1350    4.1623    3.9765 C   0  0  0  0  0  0  0  0  0  0  0  0
   -0.4608    2.9606    4.6473 C   0  0  0  0  0  0  0  0  0  0  0  0
   -0.5187    1.9299    3.6939 C   0  0  0  0  0  0  0  0  0  0  0  0
   -0.2363    2.4870    2.4247 C   0  0  2  0  0  0  0  0  0  0  0  0
    3.3358    4.6350    2.2026 C   0  0  0  0  0  0  0  0  0  0  0  0
    3.1554    4.4322    0.8206 C   0  0  0  0  0  0  0  0  0  0  0  0
    3.5142    5.4193   -0.0795 C   0  0  0  0  0  0  0  0  0  0  0  0
    4.0859    6.6105    0.3494 C   0  0  0  0  0  0  0  0  0  0  0  0
    4.3220    6.7602    1.7104 C   0  0  0  0  0  0  0  0  0  0  0  0
    3.9752    5.8032    2.6566 C   0  0  0  0  0  0  0  0  0  0  0  0
    2.6147    3.1502    0.3495 C   0  0  0  0  0  0  0  0  0  0  0  0
    3.1849    1.9353    0.5194 C   0  0  0  0  0  0  0  0  0  0  0  0
    2.3664    0.8728   -0.1597 C   0  0  0  0  0  0  0  0  0  0  0  0
    1.2475    1.6513   -0.7753 C   0  0  0  0  0  0  0  0  0  0  0  0
    0.1716    1.2326   -1.5284 C   0  0  0  0  0  0  0  0  0  0  0  0
   -0.7345    2.1831   -1.9815 C   0  0  0  0  0  0  0  0  0  0  0  0
   -0.5621    3.5276   -1.6868 C   0  0  0  0  0  0  0  0  0  0  0  0
    0.5136    3.9575   -0.9270 C   0  0  0  0  0  0  0  0  0  0  0  0
    1.4162    3.0111   -0.4667 C   0  0  0  0  0  0  0  0  0  0  0  0
    4.4466    7.6755   -0.6746 C   0  0  0  0  0  0  0  0  0  0  0  0
    3.1793    8.0742   -1.4443 C   0  0  0  0  0  0  0  0  0  0  0  0
    5.4849    7.0993   -1.6475 C   0  0  0  0  0  0  0  0  0  0  0  0
    5.0349    8.9381   -0.0394 C   0  0  0  0  0  0  0  0  0  0  0  0
    4.2734    5.9902    4.1395 C   0  0  0  0  0  0  0  0  0  0  0  0
    5.0891    7.2564    4.4245 C   0  0  0  0  0  0  0  0  0  0  0  0
    2.9486    6.0957    4.9094 C   0  0  0  0  0  0  0  0  0  0  0  0
    5.0861    4.7877    4.6443 C   0  0  0  0  0  0  0  0  0  0  0  0
    4.4952    1.6320    1.1648 C   0  0  0  0  0  0  0  0  0  0  0  0
    0.1136    4.5998    1.8055 H   0  0  0  0  0  0  0  0  0  0  0  0
   -0.1322    5.1506    4.4197 H   0  0  0  0  0  0  0  0  0  0  0  0
   -0.7084    2.8728    5.6978 H   0  0  0  0  0  0  0  0  0  0  0  0
   -0.8248    0.9075    3.8795 H   0  0  0  0  0  0  0  0  0  0  0  0
   -0.3149    1.9720    1.4760 H   0  0  0  0  0  0  0  0  0  0  0  0
    3.3505    5.2266   -1.1288 H   0  0  0  0  0  0  0  0  0  0  0  0
    4.7953    7.6612    2.0532 H   0  0  0  0  0  0  0  0  0  0  0  0
    0.0330    0.1874   -1.7648 H   0  0  0  0  0  0  0  0  0  0  0  0
   -1.5827    1.8722   -2.5733 H   0  0  0  0  0  0  0  0  0  0  0  0
   -1.2781    4.2480   -2.0549 H   0  0  0  0  0  0  0  0  0  0  0  0
    0.6481    5.0063   -0.7022 H   0  0  0  0  0  0  0  0  0  0  0  0
    2.7533    7.2264   -1.9732 H   0  0  0  0  0  0  0  0  0  0  0  0
    3.4116    8.8474   -2.1733 H   0  0  0  0  0  0  0  0  0  0  0  0
    2.4294    8.4621   -0.7578 H   0  0  0  0  0  0  0  0  0  0  0  0
    6.3773    6.7929   -1.1060 H   0  0  0  0  0  0  0  0  0  0  0  0
    5.7673    7.8502   -2.3822 H   0  0  0  0  0  0  0  0  0  0  0  0
    5.0940    6.2348   -2.1765 H   0  0  0  0  0  0  0  0  0  0  0  0
    4.3323    9.3905    0.6564 H   0  0  0  0  0  0  0  0  0  0  0  0
    5.2518    9.6665   -0.8181 H   0  0  0  0  0  0  0  0  0  0  0  0
    5.9644    8.7196    0.4808 H   0  0  0  0  0  0  0  0  0  0  0  0
    5.3104    7.3035    5.4885 H   0  0  0  0  0  0  0  0  0  0  0  0
    4.5347    8.1539    4.1606 H   0  0  0  0  0  0  0  0  0  0  0  0
    6.0338    7.2454    3.8862 H   0  0  0  0  0  0  0  0  0  0  0  0
    2.3805    5.1650    4.8350 H   0  0  0  0  0  0  0  0  0  0  0  0
    2.3486    6.9139    4.5124 H   0  0  0  0  0  0  0  0  0  0  0  0
    3.1466    6.2884    5.9616 H   0  0  0  0  0  0  0  0  0  0  0  0
    6.0204    4.7092    4.0906 H   0  0  0  0  0  0  0  0  0  0  0  0
    4.5336    3.8526    4.5327 H   0  0  0  0  0  0  0  0  0  0  0  0
    5.3176    4.9142    5.6995 H   0  0  0  0  0  0  0  0  0  0  0  0
    5.3130    1.9531    0.5160 H   0  0  0  0  0  0  0  0  0  0  0  0
    4.5914    0.5641    1.3438 H   0  0  0  0  0  0  0  0  0  0  0  0
    4.5980    2.1558    2.1182 H   0  0  0  0  0  0  0  0  0  0  0  0
    2.9511    0.3276   -0.9042 H   0  0  0  0  0  0  0  0  0  0  0  0
    2.0059    0.1440    0.5716 H   0  0  0  0  0  0  0  0  0  0  0  0
  1  3  1  0  0  0  0
  2  1  1  0  0  0  0
  4  1  1  0  0  0  0
  5  6  2  0  0  0  0
  6 35  1  0  0  0  0
  6  7  1  0  0  0  0
  7 36  1  0  0  0  0
  8 37  1  0  0  0  0
  8  7  2  0  0  0  0
  9 38  1  6  0  0  0
  9  5  1  0  0  0  0
  9  1  1  0  0  0  0
  9  8  1  0  0  0  0
 10 15  1  0  0  0  0
 10  4  1  0  0  0  0
 11 10  2  0  0  0  0
 12 13  2  0  0  0  0
 12 11  1  0  0  0  0
 13 14  1  0  0  0  0
 14 40  1  0  0  0  0
 14 15  2  0  0  0  0
 15 29  1  0  0  0  0
 16 17  2  0  0  0  0
 16 11  1  0  0  0  0
 17 33  1  0  0  0  0
 18 17  1  0  0  0  0
 18 67  1  0  0  0  0
 19 24  1  0  0  0  0
 19 18  1  0  0  0  0
 20 19  2  0  0  0  0
 21 22  2  0  0  0  0
 21 20  1  0  0  0  0
 22 23  1  0  0  0  0
 23 44  1  0  0  0  0
 23 24  2  0  0  0  0
 24 16  1  0  0  0  0
 25 28  1  0  0  0  0
 25 13  1  0  0  0  0
 26 47  1  0  0  0  0
 26 25  1  0  0  0  0
 27 48  1  0  0  0  0
 27 25  1  0  0  0  0
 28 53  1  0  0  0  0
 28 51  1  0  0  0  0
 29 30  1  0  0  0  0
 29 32  1  0  0  0  0
 29 31  1  0  0  0  0
 30 54  1  0  0  0  0
 31 59  1  0  0  0  0
 32 62  1  0  0  0  0
 33 64  1  0  0  0  0
 33 65  1  0  0  0  0
 34  5  1  0  0  0  0
 39 12  1  0  0  0  0
 41 20  1  0  0  0  0
 42 21  1  0  0  0  0
 43 22  1  0  0  0  0
 45 26  1  0  0  0  0
 46 26  1  0  0  0  0
 49 27  1  0  0  0  0
 50 27  1  0  0  0  0
 52 28  1  0  0  0  0
 55 30  1  0  0  0  0
 56 30  1  0  0  0  0
 57 31  1  0  0  0  0
 58 31  1  0  0  0  0
 60 32  1  0  0  0  0
 61 32  1  0  0  0  0
 63 33  1  0  0  0  0
 66 18  1  0  0  0  0
M  END
$$$$
