CSD_code = IQAZIJ | q = 0 | S = 0 | Stoichiometry = C15H13Cl2N4PPd | MND = 4
 OpenBabel04212202053D

 36 40  0  0  0  0  0  0  0  0999 V2000
    2.3142    3.3407    3.7344 Pd  0  0  0  0  0  0  0  0  0  0  0  0
    2.2834    4.5063    1.8375 Cl  0  0  0  0  0  0  0  0  0  0  0  0
    3.2947    1.6015    2.7377 Cl  0  0  0  0  0  0  0  0  0  0  0  0
    2.5788    2.3738    5.7433 P   0  0  0  0  0  4  0  0  0  0  0  0
    1.3419    4.8666    4.7634 N   0  0  0  0  0  0  0  0  0  0  0  0
    1.7466    3.5351    6.7181 N   0  0  0  0  0  0  0  0  0  0  0  0
    0.8018    5.9990    4.3224 C   0  0  0  0  0  3  0  0  0  0  0  0
    0.8804    6.1725    3.2564 H   0  0  0  0  0  0  0  0  0  0  0  0
    0.1811    6.9139    5.1728 C   0  0  0  0  0  0  0  0  0  0  0  0
   -0.2368    7.8113    4.7458 H   0  0  0  0  0  0  0  0  0  0  0  0
    0.1009    6.6872    6.5352 C   0  0  0  0  0  0  0  0  0  0  0  0
   -0.3738    7.3939    7.1980 H   0  0  0  0  0  0  0  0  0  0  0  0
    0.6610    5.5059    7.0187 C   0  0  0  0  0  0  0  0  0  0  0  0
    0.8211    4.8645    8.2857 C   0  0  0  0  0  0  0  0  0  0  0  0
    0.4853    5.2406    9.2312 H   0  0  0  0  0  0  0  0  0  0  0  0
    1.4767    3.6955    8.0666 C   0  0  0  0  0  0  0  0  0  0  0  0
    1.7780    2.9418    8.7685 H   0  0  0  0  0  0  0  0  0  0  0  0
    1.2584    4.6426    6.0739 C   0  0  0  0  0  0  0  0  0  0  0  0
    4.1877    2.5944    6.2127 N   0  0  0  0  0  0  0  0  0  0  0  0
    4.8117    2.3019    7.4074 C   0  0  0  0  0  0  0  0  0  0  0  0
    4.3049    1.7561    8.1792 H   0  0  0  0  0  0  0  0  0  0  0  0
    6.0758    2.7993    7.3673 C   0  0  0  0  0  0  0  0  0  0  0  0
    6.8119    2.7269    8.1434 H   0  0  0  0  0  0  0  0  0  0  0  0
    6.2474    3.4306    6.1085 C   0  0  0  0  0  0  0  0  0  0  0  0
    7.1366    3.9187    5.7632 H   0  0  0  0  0  0  0  0  0  0  0  0
    5.0812    3.2960    5.4248 C   0  0  0  0  0  0  0  0  0  0  0  0
    4.8013    3.6203    4.4237 H   0  0  0  0  0  0  0  0  0  0  0  0
    2.2106    0.9587    6.5879 N   0  0  0  0  0  0  0  0  0  0  0  0
    2.9694   -0.1929    6.5058 C   0  0  0  0  0  0  0  0  0  0  0  0
    3.9755   -0.1592    6.1345 H   0  0  0  0  0  0  0  0  0  0  0  0
    2.2282   -1.2347    6.9639 C   0  0  0  0  0  0  0  0  0  0  0  0
    2.5491   -2.2530    7.0561 H   0  0  0  0  0  0  0  0  0  0  0  0
    0.9475   -0.7282    7.3041 C   0  0  0  0  0  0  0  0  0  0  0  0
    0.1287   -1.2936    7.7029 H   0  0  0  0  0  0  0  0  0  0  0  0
    0.9539    0.6038    7.0369 C   0  0  0  0  0  0  0  0  0  0  0  0
    0.1809    1.3401    7.1501 H   0  0  0  0  0  0  0  0  0  0  0  0
  1  5  1  0  0  0  0
  1  4  1  0  0  0  0
  2  1  1  0  0  0  0
  3  1  1  0  0  0  0
  4 19  1  0  0  0  0
  4 28  1  0  0  0  0
  4  6  1  0  0  0  0
  5 18  1  0  0  0  0
  6 16  1  0  0  0  0
  7  5  1  0  0  0  0
  7  9  1  0  0  0  0
  8  7  1  0  0  0  0
  9 11  2  0  0  0  0
 10  9  1  0  0  0  0
 11 13  1  0  0  0  0
 11 12  1  0  0  0  0
 13 14  1  0  0  0  0
 14 15  1  0  0  0  0
 16 14  2  0  0  0  0
 16 17  1  0  0  0  0
 18  6  1  0  0  0  0
 18 13  2  0  0  0  0
 19 20  1  0  0  0  0
 20 21  1  0  0  0  0
 22 20  2  0  0  0  0
 22 23  1  0  0  0  0
 24 22  1  0  0  0  0
 25 24  1  0  0  0  0
 26 24  2  0  0  0  0
 26 19  1  0  0  0  0
 27 26  1  0  0  0  0
 28 35  1  0  0  0  0
 29 28  1  0  0  0  0
 29 31  2  0  0  0  0
 30 29  1  0  0  0  0
 31 32  1  0  0  0  0
 31 33  1  0  0  0  0
 33 34  1  0  0  0  0
 35 36  1  0  0  0  0
 35 33  2  0  0  0  0
M  END
$$$$
