CSD_code = IQAZUV | q = 0 | S = 0 | Stoichiometry = C16H13ClN4OPRh | MND = 4
 OpenBabel04212202053D

 37 41  0  0  1  0  0  0  0  0999 V2000
    0.7569    2.2263    4.9610 Rh  0  0  1  0  0  0  0  0  0  0  0  0
    0.3565    3.0355    2.9235 P   0  0  0  0  0  4  0  0  0  0  0  0
    1.0718    1.1269    6.8685 Cl  0  0  0  0  0  0  0  0  0  0  0  0
    2.9826   -1.2992    3.5858 C   0  0  0  0  0  0  0  0  0  0  0  0
    3.4621   -2.1483    4.0459 H   0  0  0  0  0  0  0  0  0  0  0  0
    0.7795    4.4627    2.1036 N   0  0  0  0  0  0  0  0  0  0  0  0
   -1.2441    2.8912    2.3835 N   0  0  0  0  0  0  0  0  0  0  0  0
   -0.5108    4.4290    6.5126 O   0  0  0  0  0  1  0  0  0  0  0  0
    1.1865    1.8943    1.9354 N   0  0  0  0  0  0  0  0  0  0  0  0
    2.9982   -1.1521    2.2106 C   0  0  0  0  0  0  0  0  0  0  0  0
    3.4826   -1.8717    1.5688 H   0  0  0  0  0  0  0  0  0  0  0  0
   -2.1891    2.2337    3.1415 C   0  0  0  0  0  0  0  0  0  0  0  0
   -1.9314    1.8794    4.1303 H   0  0  0  0  0  0  0  0  0  0  0  0
    1.7328    0.7160    3.9431 N   0  0  0  0  0  0  0  0  0  0  0  0
    2.1160    0.5366    0.4012 C   0  0  0  0  0  0  0  0  0  0  0  0
    2.4342    0.1283   -0.5373 H   0  0  0  0  0  0  0  0  0  0  0  0
    0.0505    5.6307    2.1636 C   0  0  0  0  0  0  0  0  0  0  0  0
   -0.9685    5.6244    2.5008 H   0  0  0  0  0  0  0  0  0  0  0  0
   -0.0359    3.5807    5.9104 C   0  0  0  0  0  2  0  0  0  0  0  0
    1.7551    0.8517    2.6148 C   0  0  2  0  0  3  0  0  0  0  0  0
   -1.8221    3.2269    1.1796 C   0  0  0  0  0  0  0  0  0  0  0  0
   -1.2708    3.7540    0.4254 H   0  0  0  0  0  0  0  0  0  0  0  0
   -3.3461    2.1641    2.4329 C   0  0  0  0  0  0  0  0  0  0  0  0
   -4.2668    1.7183    2.7525 H   0  0  0  0  0  0  0  0  0  0  0  0
    2.3542   -0.3673    4.4105 C   0  0  0  0  0  0  0  0  0  0  0  0
    2.3418   -0.4930    5.4851 H   0  0  0  0  0  0  0  0  0  0  0  0
    2.3580   -0.0292    1.6914 C   0  0  0  0  0  0  0  0  0  0  0  0
   -3.1121    2.7972    1.1856 C   0  0  0  0  0  0  0  0  0  0  0  0
   -3.8246    2.9151    0.3930 H   0  0  0  0  0  0  0  0  0  0  0  0
    1.4111    1.6828    0.5878 C   0  0  0  0  0  0  0  0  0  0  0  0
    1.0467    2.3847   -0.1377 H   0  0  0  0  0  0  0  0  0  0  0  0
    2.0502    4.7816    1.6779 C   0  0  0  0  0  0  0  0  0  0  0  0
    2.8052    4.0246    1.5809 H   0  0  0  0  0  0  0  0  0  0  0  0
    0.8274    6.6539    1.7188 C   0  0  0  0  0  0  0  0  0  0  0  0
    0.5333    7.6796    1.6172 H   0  0  0  0  0  0  0  0  0  0  0  0
    2.0999    6.1133    1.4083 C   0  0  0  0  0  0  0  0  0  0  0  0
    2.9424    6.6550    1.0266 H   0  0  0  0  0  0  0  0  0  0  0  0
  1 19  1  0  0  0  0
  1  3  1  6  0  0  0
  2  1  1  0  0  0  0
  4  5  1  0  0  0  0
  4 25  2  0  0  0  0
  6 17  1  0  0  0  0
  6  2  1  0  0  0  0
  7  2  1  0  0  0  0
  7 12  1  0  0  0  0
  9 20  1  0  0  0  0
  9  2  1  0  0  0  0
 10  4  1  0  0  0  0
 11 10  1  0  0  0  0
 12 13  1  0  0  0  0
 14 25  1  0  0  0  0
 14  1  1  0  0  0  0
 15 30  2  0  0  0  0
 15 27  1  0  0  0  0
 16 15  1  0  0  0  0
 17 18  1  0  0  0  0
 19  8  1  0  0  0  0
 20 27  1  1  0  0  0
 20 14  1  0  0  0  0
 21 28  2  0  0  0  0
 21  7  1  0  0  0  0
 22 21  1  0  0  0  0
 23 24  1  0  0  0  0
 23 12  2  0  0  0  0
 25 26  1  0  0  0  0
 27 10  2  0  0  0  0
 28 23  1  0  0  0  0
 29 28  1  0  0  0  0
 30  9  1  0  0  0  0
 31 30  1  0  0  0  0
 32  6  1  0  0  0  0
 33 32  1  0  0  0  0
 34 17  2  0  0  0  0
 35 34  1  0  0  0  0
 36 32  2  0  0  0  0
 36 34  1  0  0  0  0
 37 36  1  0  0  0  0
M  END
$$$$
