CSD_code = IQAZOP | q = 0 | S = 0 | Stoichiometry = C20H15ClN2OPRh | MND = 4
 OpenBabel04212202053D

 41 45  0  0  1  0  0  0  0  0999 V2000
    1.7736   11.8994    4.6025 Rh  0  0  1  0  0  0  0  0  0  0  0  0
    3.1439   11.0164    6.1424 P   0  0  0  0  0  4  0  0  0  0  0  0
    0.2598   12.9330    3.3229 Cl  0  0  0  0  0  0  0  0  0  0  0  0
    2.1811   13.6886    5.5425 N   0  0  0  0  0  0  0  0  0  0  0  0
    3.6108   12.4434    6.9975 N   0  0  0  0  0  0  0  0  0  0  0  0
    1.2854    9.3523    3.1431 O   0  0  0  0  0  1  0  0  0  0  0  0
    4.3985   12.7500    8.0874 C   0  0  0  0  0  0  0  0  0  0  0  0
    4.9497   11.9785    8.5905 H   0  0  0  0  0  0  0  0  0  0  0  0
    4.3415   14.0826    8.3532 C   0  0  0  0  0  0  0  0  0  0  0  0
    4.8577   14.6007    9.1370 H   0  0  0  0  0  0  0  0  0  0  0  0
    3.4632   14.6688    7.3915 C   0  0  0  0  0  0  0  0  0  0  0  0
    3.0278   13.6032    6.5726 C   0  0  2  0  0  3  0  0  0  0  0  0
    3.0007    9.4309    8.5027 C   0  0  0  0  0  0  0  0  0  0  0  0
    4.0812    9.3881    8.4956 H   0  0  0  0  0  0  0  0  0  0  0  0
    2.3219   10.0927    7.4857 C   0  0  0  0  0  0  0  0  0  0  0  0
    0.9312   10.1389    7.4929 C   0  0  0  0  0  0  0  0  0  0  0  0
    0.4217   10.6630    6.6823 H   0  0  0  0  0  0  0  0  0  0  0  0
    0.2211    9.5216    8.5058 C   0  0  0  0  0  0  0  0  0  0  0  0
   -0.8581    9.5536    8.5081 H   0  0  0  0  0  0  0  0  0  0  0  0
    0.9002    8.8595    9.5165 C   0  0  0  0  0  0  0  0  0  0  0  0
    0.3490    8.3740   10.3080 H   0  0  0  0  0  0  0  0  0  0  0  0
    2.2857    8.8157    9.5146 C   0  0  0  0  0  0  0  0  0  0  0  0
    2.8106    8.2988   10.3046 H   0  0  0  0  0  0  0  0  0  0  0  0
    4.7244   10.1403    5.9638 C   0  0  0  0  0  0  0  0  0  0  0  0
    5.9371   10.8130    5.8601 C   0  0  0  0  0  0  0  0  0  0  0  0
    5.9687   11.8896    5.9565 H   0  0  0  0  0  0  0  0  0  0  0  0
    7.1023   10.1015    5.6354 C   0  0  0  0  0  0  0  0  0  0  0  0
    8.0451   10.6239    5.5666 H   0  0  0  0  0  0  0  0  0  0  0  0
    7.0606    8.7244    5.4912 C   0  0  0  0  0  0  0  0  0  0  0  0
    7.9721    8.1735    5.3141 H   0  0  0  0  0  0  0  0  0  0  0  0
    5.8491    8.0538    5.5622 C   0  0  0  0  0  0  0  0  0  0  0  0
    5.8158    6.9820    5.4356 H   0  0  0  0  0  0  0  0  0  0  0  0
    4.6829    8.7586    5.7909 C   0  0  0  0  0  0  0  0  0  0  0  0
    3.7296    8.2485    5.8413 H   0  0  0  0  0  0  0  0  0  0  0  0
    1.4596   10.3328    3.7111 C   0  0  0  0  0  2  0  0  0  0  0  0
    1.7304   14.9153    5.2824 C   0  0  0  0  0  0  0  0  0  0  0  0
    1.0394   15.0005    4.4541 H   0  0  0  0  0  0  0  0  0  0  0  0
    2.1026   16.0364    6.0239 C   0  0  0  0  0  0  0  0  0  0  0  0
    1.6909   16.9935    5.7455 H   0  0  0  0  0  0  0  0  0  0  0  0
    2.9738   15.9385    7.0933 C   0  0  0  0  0  0  0  0  0  0  0  0
    3.2616   16.8038    7.6707 H   0  0  0  0  0  0  0  0  0  0  0  0
  1  3  1  1  0  0  0
  1  4  1  0  0  0  0
  1  2  1  0  0  0  0
  2  5  1  0  0  0  0
  2 15  1  0  0  0  0
  4 12  1  0  0  0  0
  5  7  1  0  0  0  0
  6 35  1  0  0  0  0
  7  9  2  0  0  0  0
  7  8  1  0  0  0  0
  9 10  1  0  0  0  0
 11  9  1  0  0  0  0
 12  5  1  0  0  0  0
 12 11  1  1  0  0  0
 13 22  1  0  0  0  0
 14 13  1  0  0  0  0
 15 16  1  0  0  0  0
 15 13  2  0  0  0  0
 16 18  2  0  0  0  0
 17 16  1  0  0  0  0
 18 19  1  0  0  0  0
 18 20  1  0  0  0  0
 20 21  1  0  0  0  0
 22 20  2  0  0  0  0
 22 23  1  0  0  0  0
 24  2  1  0  0  0  0
 25 26  1  0  0  0  0
 25 24  1  0  0  0  0
 27 25  2  0  0  0  0
 28 27  1  0  0  0  0
 29 31  2  0  0  0  0
 29 27  1  0  0  0  0
 30 29  1  0  0  0  0
 31 33  1  0  0  0  0
 32 31  1  0  0  0  0
 33 34  1  0  0  0  0
 33 24  2  0  0  0  0
 35  1  1  0  0  0  0
 36  4  1  0  0  0  0
 36 38  2  0  0  0  0
 37 36  1  0  0  0  0
 38 40  1  0  0  0  0
 39 38  1  0  0  0  0
 40 11  2  0  0  0  0
 40 41  1  0  0  0  0
M  END
$$$$
