CSD_code = IQIHUM | q = 0 | S = 0 | Stoichiometry = C20H18Cl2HgN6O2S2 | MND = 4
 OpenBabel04212202053D

 51 52  0  0  0  0  0  0  0  0999 V2000
   -2.7487   -0.6499    7.7657 C   0  0  0  0  0  0  0  0  0  0  0  0
   -3.1547   -1.6012    7.4532 H   0  0  0  0  0  0  0  0  0  0  0  0
   -1.8792    0.0737    6.9646 C   0  0  0  0  0  0  0  0  0  0  0  0
   -1.5709   -0.2714    5.9880 H   0  0  0  0  0  0  0  0  0  0  0  0
   -1.7471    1.6917    8.5738 C   0  0  0  0  0  0  0  0  0  0  0  0
   -1.3333    2.6305    8.9122 H   0  0  0  0  0  0  0  0  0  0  0  0
   -2.6423    0.9547    9.3653 C   0  0  0  0  0  0  0  0  0  0  0  0
   -2.8772    2.5471   11.2552 C   0  0  0  0  0  0  0  0  0  0  0  0
   -3.5603    2.5773   12.6157 C   0  0  0  0  0  0  0  0  0  0  0  0
   -4.6412    2.5877   12.4419 H   0  0  0  0  0  0  0  0  0  0  0  0
   -3.3082    1.6691   13.1667 H   0  0  0  0  0  0  0  0  0  0  0  0
   -3.1595    3.7863   13.4016 C   0  0  0  0  0  0  0  0  0  0  0  0
   -2.4347    3.7532   14.5517 C   0  0  0  0  0  0  0  0  0  0  0  0
   -2.0594    2.8958   15.0746 H   0  0  0  0  0  0  0  0  0  0  0  0
   -2.9845    6.0407   13.8686 C   0  0  0  0  0  0  0  0  0  0  0  0
   -3.0677    7.1077   13.8177 H   0  0  0  0  0  0  0  0  0  0  0  0
   -3.4737    5.1142   13.0105 C   0  0  0  0  0  0  0  0  0  0  0  0
   -4.0277    5.3528   12.1213 H   0  0  0  0  0  0  0  0  0  0  0  0
    2.7687    4.7011    2.8956 C   0  0  0  0  0  0  0  0  0  0  0  0
    3.2581    4.4666    1.9610 H   0  0  0  0  0  0  0  0  0  0  0  0
    1.9845    3.7737    3.5638 C   0  0  0  0  0  0  0  0  0  0  0  0
    1.8124    2.7785    3.1787 H   0  0  0  0  0  0  0  0  0  0  0  0
    1.5905    5.3016    5.2155 C   0  0  0  0  0  0  0  0  0  0  0  0
    1.1274    5.5483    6.1597 H   0  0  0  0  0  0  0  0  0  0  0  0
    2.3747    6.2343    4.5186 C   0  0  0  0  0  0  0  0  0  0  0  0
    2.0754    8.1774    6.0273 C   0  0  0  0  0  0  0  0  0  0  0  0
    2.6313    9.5864    6.1776 C   0  0  0  0  0  0  0  0  0  0  0  0
    2.3540    9.9440    7.1710 H   0  0  0  0  0  0  0  0  0  0  0  0
    2.1465   10.2245    5.4347 H   0  0  0  0  0  0  0  0  0  0  0  0
    4.1163    9.6173    5.9970 C   0  0  0  0  0  0  0  0  0  0  0  0
    4.7648   10.1918    4.9461 C   0  0  0  0  0  0  0  0  0  0  0  0
    4.3417   10.7313    4.1214 H   0  0  0  0  0  0  0  0  0  0  0  0
    6.3140    9.1298    6.5184 C   0  0  0  0  0  0  0  0  0  0  0  0
    7.1942    8.7657    7.0089 H   0  0  0  0  0  0  0  0  0  0  0  0
    5.0212    8.9998    6.9017 C   0  0  0  0  0  0  0  0  0  0  0  0
    4.7055    8.4866    7.7919 H   0  0  0  0  0  0  0  0  0  0  0  0
   -3.1265   -0.2162    8.9550 N   0  0  0  0  0  0  0  0  0  0  0  0
   -1.3790    1.2379    7.3852 N   0  0  0  0  0  0  0  0  0  0  0  0
   -3.0876    1.3443   10.6094 N   0  0  0  0  0  0  0  0  0  0  0  0
   -3.6802    0.6503   11.0492 H   0  0  0  0  0  0  0  0  0  0  0  0
    2.9664    5.9188    3.3683 N   0  0  0  0  0  0  0  0  0  0  0  0
    1.4105    4.0833    4.7286 N   0  0  0  0  0  0  0  0  0  0  0  0
    2.6151    7.5200    4.9463 N   0  0  0  0  0  0  0  0  0  0  0  0
    3.2764    8.0235    4.3649 H   0  0  0  0  0  0  0  0  0  0  0  0
   -2.2485    3.4525   10.7782 O   0  0  0  0  0  0  0  0  0  0  0  0
    1.2441    7.7025    6.7563 O   0  0  0  0  0  0  0  0  0  0  0  0
   -2.1304    5.3231   15.1767 S   0  0  0  0  0  0  0  0  0  0  0  0
    6.4703   10.0041    5.0465 S   0  0  0  0  0  0  0  0  0  0  0  0
    1.8247    2.7388    7.9793 Cl  0  0  0  0  0  0  0  0  0  0  0  0
    0.6289    0.5951    4.4958 Cl  0  0  0  0  0  0  0  0  0  0  0  0
    0.5977    2.1791    6.1537 Hg  0  0  0  0  0  0  0  0  0  0  0  0
  1 37  1  0  0  0  0
  2  1  1  0  0  0  0
  3 38  1  0  0  0  0
  3  1  2  0  0  0  0
  4  3  1  0  0  0  0
  5  6  1  0  0  0  0
  5  7  1  0  0  0  0
  7 39  1  0  0  0  0
  8  9  1  0  0  0  0
  9 11  1  0  0  0  0
  9 12  1  0  0  0  0
 10  9  1  0  0  0  0
 12 13  2  0  0  0  0
 13 14  1  0  0  0  0
 13 47  1  0  0  0  0
 15 47  1  0  0  0  0
 16 15  1  0  0  0  0
 17 12  1  0  0  0  0
 17 15  2  0  0  0  0
 18 17  1  0  0  0  0
 19 41  2  0  0  0  0
 19 21  1  0  0  0  0
 20 19  1  0  0  0  0
 21 42  2  0  0  0  0
 22 21  1  0  0  0  0
 23 24  1  0  0  0  0
 25 43  1  0  0  0  0
 25 23  2  0  0  0  0
 26 27  1  0  0  0  0
 26 46  2  0  0  0  0
 27 28  1  0  0  0  0
 29 27  1  0  0  0  0
 30 27  1  0  0  0  0
 30 35  1  0  0  0  0
 31 48  1  0  0  0  0
 31 30  2  0  0  0  0
 32 31  1  0  0  0  0
 33 35  2  0  0  0  0
 33 34  1  0  0  0  0
 35 36  1  0  0  0  0
 37  7  2  0  0  0  0
 38  5  2  0  0  0  0
 39 40  1  0  0  0  0
 39  8  1  0  0  0  0
 41 25  1  0  0  0  0
 42 23  1  0  0  0  0
 43 26  1  0  0  0  0
 44 43  1  0  0  0  0
 45  8  2  0  0  0  0
 48 33  1  0  0  0  0
 50 51  1  0  0  0  0
 51 49  1  0  0  0  0
M  END
$$$$
