CSD_code = IQIROQ | q = 0 | S = 0 | Stoichiometry = C19H21Cl2N3Pt | MND = 4
 OpenBabel04212202053D

 46 49  0  0  1  0  0  0  0  0999 V2000
    0.8075    3.6759    6.7583 Pt  0  0  0  0  0  0  0  0  0  0  0  0
    0.8269    1.8530    8.0929 Cl  0  0  0  0  0  0  0  0  0  0  0  0
   -0.7680    4.6942    8.0082 Cl  0  0  0  0  0  0  0  0  0  0  0  0
    2.1678    2.8397    5.5333 N   0  0  2  0  0  0  0  0  0  0  0  0
    1.8834    2.7771    4.2259 N   0  0  0  0  0  0  0  0  0  0  0  0
    0.5015    5.3100    5.3415 N   0  0  0  0  0  4  0  0  0  0  0  0
   -0.5152    5.2914    5.4610 H   0  0  0  0  0  0  0  0  0  0  0  0
    4.8445    1.0389    7.2674 C   0  0  0  0  0  0  0  0  0  0  0  0
    5.0025    0.2957    6.5004 H   0  0  0  0  0  0  0  0  0  0  0  0
    5.4599    0.9010    8.4968 C   0  0  0  0  0  0  0  0  0  0  0  0
    6.1105    0.0581    8.6788 H   0  0  0  0  0  0  0  0  0  0  0  0
    5.2356    1.8320    9.4971 C   0  0  0  0  0  0  0  0  0  0  0  0
    5.7121    1.7180   10.4594 H   0  0  0  0  0  0  0  0  0  0  0  0
    4.3925    2.9056    9.2617 C   0  0  0  0  0  0  0  0  0  0  0  0
    4.2091    3.6307   10.0400 H   0  0  0  0  0  0  0  0  0  0  0  0
    3.7762    3.0488    8.0343 C   0  0  0  0  0  0  0  0  0  0  0  0
    3.1128    3.8894    7.8593 H   0  0  0  0  0  0  0  0  0  0  0  0
    3.9895    2.1126    7.0239 C   0  0  0  0  0  0  0  0  0  0  0  0
    3.3433    2.2415    5.7251 C   0  0  2  0  0  3  0  0  0  0  0  0
    3.8278    1.7955    4.4828 C   0  0  0  0  0  0  0  0  0  0  0  0
    4.7449    1.2774    4.2946 H   0  0  0  0  0  0  0  0  0  0  0  0
    2.8776    2.1505    3.5469 C   0  0  0  0  0  0  0  0  0  0  0  0
    2.8671    1.8962    2.1097 C   0  0  0  0  0  0  0  0  0  0  0  0
    3.9944    2.1990    1.3494 C   0  0  0  0  0  0  0  0  0  0  0  0
    4.8539    2.6407    1.8314 H   0  0  0  0  0  0  0  0  0  0  0  0
    4.0083    1.9453   -0.0093 C   0  0  0  0  0  0  0  0  0  0  0  0
    4.8852    2.1868   -0.5910 H   0  0  0  0  0  0  0  0  0  0  0  0
    2.9019    1.3819   -0.6238 C   0  0  0  0  0  0  0  0  0  0  0  0
    2.9139    1.1846   -1.6850 H   0  0  0  0  0  0  0  0  0  0  0  0
    1.7844    1.0606    0.1286 C   0  0  0  0  0  0  0  0  0  0  0  0
    0.9270    0.6046   -0.3433 H   0  0  0  0  0  0  0  0  0  0  0  0
    1.7640    1.3132    1.4881 C   0  0  0  0  0  0  0  0  0  0  0  0
    0.9049    1.0248    2.0765 H   0  0  0  0  0  0  0  0  0  0  0  0
    0.7351    3.4664    3.6991 C   0  0  0  0  0  0  0  0  0  0  0  0
   -0.1730    3.0705    4.1745 H   0  0  0  0  0  0  0  0  0  0  0  0
    0.6923    3.2793    2.6249 H   0  0  0  0  0  0  0  0  0  0  0  0
    0.8318    4.9788    3.9568 C   0  0  0  0  0  0  0  0  0  0  0  0
    1.8559    5.3021    3.7491 H   0  0  0  0  0  0  0  0  0  0  0  0
    0.1631    5.5009    3.2589 H   0  0  0  0  0  0  0  0  0  0  0  0
    0.9630    6.6375    5.7649 C   0  0  0  0  0  0  0  0  0  0  0  0
    0.3931    6.8989    6.6593 H   0  0  0  0  0  0  0  0  0  0  0  0
    0.7543    7.3786    4.9812 H   0  0  0  0  0  0  0  0  0  0  0  0
    2.4436    6.6340    6.1155 C   0  0  0  0  0  0  0  0  0  0  0  0
    2.7366    7.6123    6.4855 H   0  0  0  0  0  0  0  0  0  0  0  0
    3.0690    6.3913    5.2591 H   0  0  0  0  0  0  0  0  0  0  0  0
    2.6200    5.9006    6.9014 H   0  0  0  0  0  0  0  0  0  0  0  0
  1  3  1  0  0  0  0
  1  2  1  0  0  0  0
  4  5  1  1  0  0  0
  4 19  1  0  0  0  0
  4  1  1  0  0  0  0
  6  7  1  0  0  0  0
  6 40  1  0  0  0  0
  6  1  1  0  0  0  0
  8 10  1  0  0  0  0
  9  8  1  0  0  0  0
 10 11  1  0  0  0  0
 10 12  2  0  0  0  0
 12 13  1  0  0  0  0
 14 12  1  0  0  0  0
 14 15  1  0  0  0  0
 16 14  2  0  0  0  0
 17 16  1  0  0  0  0
 18  8  2  0  0  0  0
 18 16  1  0  0  0  0
 19 18  1  6  0  0  0
 20 19  1  0  0  0  0
 21 20  1  0  0  0  0
 22  5  1  0  0  0  0
 22 20  2  0  0  0  0
 23 22  1  0  0  0  0
 24 25  1  0  0  0  0
 24 23  2  0  0  0  0
 26 24  1  0  0  0  0
 27 26  1  0  0  0  0
 28 26  2  0  0  0  0
 28 30  1  0  0  0  0
 29 28  1  0  0  0  0
 30 32  2  0  0  0  0
 31 30  1  0  0  0  0
 32 33  1  0  0  0  0
 32 23  1  0  0  0  0
 34 37  1  0  0  0  0
 34 35  1  0  0  0  0
 34  5  1  0  0  0  0
 36 34  1  0  0  0  0
 37  6  1  0  0  0  0
 38 37  1  0  0  0  0
 39 37  1  0  0  0  0
 40 43  1  0  0  0  0
 40 41  1  0  0  0  0
 42 40  1  0  0  0  0
 43 44  1  0  0  0  0
 43 46  1  0  0  0  0
 45 43  1  0  0  0  0
M  END
$$$$
