CSD_code = IQOGOK | q = 0 | S = 0 | Stoichiometry = C10H10HgI2N2S2 | MND = 4
 OpenBabel04212202053D

 27 26  0  0  0  0  0  0  0  0999 V2000
    6.6587   14.9700   -0.8304 Hg  0  0  0  0  0  0  0  0  0  0  0  0
    4.9115   16.7341   -1.7433 I   0  0  0  0  0  0  0  0  0  0  0  0
    7.8525   16.4045    1.3450 S   0  0  0  0  0  0  0  0  0  0  0  0
    6.0817   18.3301    1.1406 N   0  0  0  0  0  0  0  0  0  0  0  0
    6.7118   18.6385    0.4052 H   0  0  0  0  0  0  0  0  0  0  0  0
    6.4164   17.1777    1.7788 C   0  0  0  0  0  0  0  0  0  0  0  0
    5.5337   16.7203    2.7800 C   0  0  0  0  0  0  0  0  0  0  0  0
    5.7785   15.8072    3.2970 H   0  0  0  0  0  0  0  0  0  0  0  0
    4.3753   17.3980    3.0377 C   0  0  0  0  0  0  0  0  0  0  0  0
    3.6876   17.0289    3.7828 H   0  0  0  0  0  0  0  0  0  0  0  0
    4.0669   18.5711    2.3231 C   0  0  0  0  0  0  0  0  0  0  0  0
    3.1514   19.1056    2.5091 H   0  0  0  0  0  0  0  0  0  0  0  0
    4.9453   19.0102    1.3768 C   0  0  0  0  0  0  0  0  0  0  0  0
    4.7721   19.8892    0.7760 H   0  0  0  0  0  0  0  0  0  0  0  0
    8.4043   13.2061   -1.7459 I   0  0  0  0  0  0  0  0  0  0  0  0
    5.4683   13.5353    1.3469 S   0  0  0  0  0  0  0  0  0  0  0  0
    6.9047   12.7625    1.7804 C   0  0  0  0  0  0  0  0  0  0  0  0
    7.2407   11.6114    1.1405 N   0  0  0  0  0  0  0  0  0  0  0  0
    6.6115   11.3040    0.4039 H   0  0  0  0  0  0  0  0  0  0  0  0
    8.3772   10.9315    1.3765 C   0  0  0  0  0  0  0  0  0  0  0  0
    9.2549   11.3698    2.3239 C   0  0  0  0  0  0  0  0  0  0  0  0
    8.9456   12.5419    3.0397 C   0  0  0  0  0  0  0  0  0  0  0  0
    7.7869   13.2193    2.7824 C   0  0  0  0  0  0  0  0  0  0  0  0
    7.5415   14.1317    3.3003 H   0  0  0  0  0  0  0  0  0  0  0  0
    9.6325   12.9100    3.7861 H   0  0  0  0  0  0  0  0  0  0  0  0
   10.1706   10.8356    2.5095 H   0  0  0  0  0  0  0  0  0  0  0  0
    8.5512   10.0535    0.7745 H   0  0  0  0  0  0  0  0  0  0  0  0
  2  1  1  0  0  0  0
  3  6  2  0  0  0  0
  4 13  1  0  0  0  0
  4  6  1  0  0  0  0
  5  4  1  0  0  0  0
  6  7  1  0  0  0  0
  7  9  2  0  0  0  0
  7  8  1  0  0  0  0
  9 10  1  0  0  0  0
 11 12  1  0  0  0  0
 11  9  1  0  0  0  0
 13 11  2  0  0  0  0
 14 13  1  0  0  0  0
 15  1  1  0  0  0  0
 16 17  2  0  0  0  0
 17 23  1  0  0  0  0
 18 20  1  0  0  0  0
 18 17  1  0  0  0  0
 19 18  1  0  0  0  0
 20 21  2  0  0  0  0
 21 26  1  0  0  0  0
 21 22  1  0  0  0  0
 22 25  1  0  0  0  0
 23 22  2  0  0  0  0
 23 24  1  0  0  0  0
 27 20  1  0  0  0  0
M  END
$$$$
