CSD_code = IQOHUR | q = 0 | S = 0 | Stoichiometry = C26H25BrNNiP | MND = 4
 OpenBabel04212202053D

 55 59  0  0  0  0  0  0  0  0999 V2000
    6.2623   -0.3053    1.7993 Br  0  0  0  0  0  0  0  0  0  0  0  0
    7.2403    1.6659    2.0821 Ni  0  0  2  0  0  0  0  0  0  0  0  0
    8.0430    1.2738    3.9963 P   0  0  0  0  0  4  0  0  0  0  0  0
    6.6241    2.4914    0.2916 N   0  0  0  0  0  4  0  0  0  0  0  0
    7.9763    3.3881    1.9654 C   0  0  0  0  0  0  0  0  0  0  0  0
    7.3894    3.6537    0.7287 C   0  0  0  0  0  0  0  0  0  0  0  0
    7.5464    4.8507    0.0552 C   0  0  0  0  0  0  0  0  0  0  0  0
    8.3351    5.8216    0.6537 C   0  0  0  0  0  0  0  0  0  0  0  0
    8.9398    5.5787    1.8765 C   0  0  0  0  0  0  0  0  0  0  0  0
    8.7700    4.3711    2.5401 C   0  0  0  0  0  0  0  0  0  0  0  0
    7.1604    1.9094   -0.9346 C   0  0  0  0  0  0  0  0  0  0  0  0
    5.2038    2.7863    0.1359 C   0  0  0  0  0  0  0  0  0  0  0  0
    7.8253    2.6597    5.1633 C   0  0  0  0  0  0  0  0  0  0  0  0
    6.6361    3.3742    5.0492 C   0  0  0  0  0  0  0  0  0  0  0  0
    6.3695    4.4315    5.8970 C   0  0  0  0  0  0  0  0  0  0  0  0
    7.2991    4.7892    6.8609 C   0  0  0  0  0  0  0  0  0  0  0  0
    8.4880    4.0879    6.9720 C   0  0  0  0  0  0  0  0  0  0  0  0
    8.7542    3.0226    6.1285 C   0  0  0  0  0  0  0  0  0  0  0  0
    9.8321    0.9375    3.9934 C   0  0  0  0  0  0  0  0  0  0  0  0
   10.5724    1.2731    2.8665 C   0  0  0  0  0  0  0  0  0  0  0  0
   11.9355    1.0418    2.8308 C   0  0  0  0  0  0  0  0  0  0  0  0
   12.5657    0.4687    3.9227 C   0  0  0  0  0  0  0  0  0  0  0  0
   11.8301    0.1188    5.0444 C   0  0  0  0  0  0  0  0  0  0  0  0
   10.4668    0.3463    5.0826 C   0  0  0  0  0  0  0  0  0  0  0  0
    7.4191   -0.1277    4.9834 C   0  0  0  0  0  0  0  0  0  0  0  0
    7.7990   -1.4135    4.6051 C   0  0  0  0  0  0  0  0  0  0  0  0
    7.3284   -2.5083    5.3022 C   0  0  0  0  0  0  0  0  0  0  0  0
    6.4696   -2.3301    6.3758 C   0  0  0  0  0  0  0  0  0  0  0  0
    6.0807   -1.0548    6.7468 C   0  0  0  0  0  0  0  0  0  0  0  0
    6.5483    0.0472    6.0516 C   0  0  0  0  0  0  0  0  0  0  0  0
    7.0777    5.0339   -0.9015 H   0  0  0  0  0  0  0  0  0  0  0  0
    8.4817    6.7721    0.1611 H   0  0  0  0  0  0  0  0  0  0  0  0
    9.5573    6.3442    2.3255 H   0  0  0  0  0  0  0  0  0  0  0  0
    9.2613    4.2135    3.4923 H   0  0  0  0  0  0  0  0  0  0  0  0
    6.6690    0.9544   -1.1255 H   0  0  0  0  0  0  0  0  0  0  0  0
    8.2315    1.7338   -0.8208 H   0  0  0  0  0  0  0  0  0  0  0  0
    7.0021    2.5715   -1.7953 H   0  0  0  0  0  0  0  0  0  0  0  0
    4.6565    1.8549   -0.0167 H   0  0  0  0  0  0  0  0  0  0  0  0
    5.0229    3.4499   -0.7192 H   0  0  0  0  0  0  0  0  0  0  0  0
    4.8274    3.2702    1.0388 H   0  0  0  0  0  0  0  0  0  0  0  0
    5.9270    3.0905    4.2771 H   0  0  0  0  0  0  0  0  0  0  0  0
    5.4441    4.9809    5.8050 H   0  0  0  0  0  0  0  0  0  0  0  0
    7.0991    5.6198    7.5214 H   0  0  0  0  0  0  0  0  0  0  0  0
    9.2153    4.3736    7.7181 H   0  0  0  0  0  0  0  0  0  0  0  0
    9.6886    2.4867    6.2128 H   0  0  0  0  0  0  0  0  0  0  0  0
   10.0641    1.7121    2.0142 H   0  0  0  0  0  0  0  0  0  0  0  0
   12.5051    1.3032    1.9512 H   0  0  0  0  0  0  0  0  0  0  0  0
   13.6296    0.2849    3.8975 H   0  0  0  0  0  0  0  0  0  0  0  0
   12.3211   -0.3383    5.8912 H   0  0  0  0  0  0  0  0  0  0  0  0
    9.8905    0.0529    5.9495 H   0  0  0  0  0  0  0  0  0  0  0  0
    8.4539   -1.5483    3.7551 H   0  0  0  0  0  0  0  0  0  0  0  0
    7.6230   -3.5024    5.0021 H   0  0  0  0  0  0  0  0  0  0  0  0
    6.0970   -3.1867    6.9175 H   0  0  0  0  0  0  0  0  0  0  0  0
    5.4046   -0.9139    7.5775 H   0  0  0  0  0  0  0  0  0  0  0  0
    6.2346    1.0405    6.3408 H   0  0  0  0  0  0  0  0  0  0  0  0
  2  1  1  6  0  0  0
  2  3  1  0  0  0  0
  3 25  1  0  0  0  0
  3 13  1  0  0  0  0
  4  6  1  0  0  0  0
  4  2  1  0  0  0  0
  5  2  1  0  0  0  0
  5 10  1  0  0  0  0
  6  5  2  0  0  0  0
  7  8  2  0  0  0  0
  7  6  1  0  0  0  0
  8  9  1  0  0  0  0
  9 33  1  0  0  0  0
  9 10  2  0  0  0  0
 10 34  1  0  0  0  0
 11 36  1  0  0  0  0
 11  4  1  0  0  0  0
 12  4  1  0  0  0  0
 12 40  1  0  0  0  0
 13 18  1  0  0  0  0
 14 13  2  0  0  0  0
 14 15  1  0  0  0  0
 15 16  2  0  0  0  0
 16 17  1  0  0  0  0
 16 43  1  0  0  0  0
 17 44  1  0  0  0  0
 18 45  1  0  0  0  0
 18 17  2  0  0  0  0
 19  3  1  0  0  0  0
 19 24  1  0  0  0  0
 20 19  2  0  0  0  0
 21 20  1  0  0  0  0
 21 22  2  0  0  0  0
 22 23  1  0  0  0  0
 23 24  2  0  0  0  0
 23 49  1  0  0  0  0
 24 50  1  0  0  0  0
 25 30  1  0  0  0  0
 26 25  2  0  0  0  0
 26 27  1  0  0  0  0
 27 28  2  0  0  0  0
 28 29  1  0  0  0  0
 28 53  1  0  0  0  0
 29 54  1  0  0  0  0
 30 55  1  0  0  0  0
 30 29  2  0  0  0  0
 31  7  1  0  0  0  0
 32  8  1  0  0  0  0
 35 11  1  0  0  0  0
 37 11  1  0  0  0  0
 38 12  1  0  0  0  0
 39 12  1  0  0  0  0
 41 14  1  0  0  0  0
 42 15  1  0  0  0  0
 46 20  1  0  0  0  0
 47 21  1  0  0  0  0
 48 22  1  0  0  0  0
 51 26  1  0  0  0  0
 52 27  1  0  0  0  0
M  END
$$$$
