CSD_code = IQUDUT | q = 0 | S = 0 | Stoichiometry = C28H22Cl2N6O2Zn | MND = 4
 OpenBabel04212202053D

 61 66  0  0  0  0  0  0  0  0999 V2000
    1.5523    2.9030   10.4449 Zn  0  0  0  0  0  0  0  0  0  0  0  0
    1.7879    4.9251   11.2888 Cl  0  0  0  0  0  0  0  0  0  0  0  0
    2.7635    1.0938   10.7251 Cl  0  0  0  0  0  0  0  0  0  0  0  0
    1.9931    6.1692    5.3623 O   0  0  0  0  0  0  0  0  0  0  0  0
   -4.0005    0.7565    9.1532 O   0  0  0  0  0  0  0  0  0  0  0  0
    0.7450    4.1394    6.6103 N   0  0  0  0  0  0  0  0  0  0  0  0
    0.5919    3.9960    7.9168 N   0  0  0  0  0  2  0  0  0  0  0  0
    1.4577    3.1711    8.3697 N   0  0  0  0  0  0  0  0  0  0  0  0
   -0.4738    2.4527   10.7478 N   0  0  0  0  0  0  0  0  0  0  0  0
   -0.8661    1.2370   10.7578 N   0  0  0  0  0  2  0  0  0  0  0  0
   -2.1553    1.1793   11.0451 N   0  0  0  0  0  0  0  0  0  0  0  0
    0.0495    7.3504    4.7267 C   0  0  0  0  0  0  0  0  0  0  0  0
   -1.3316    7.3546    4.5268 C   0  0  0  0  0  0  0  0  0  0  0  0
   -1.9346    6.5030    4.8005 H   0  0  0  0  0  0  0  0  0  0  0  0
   -1.9440    8.4570    3.9610 C   0  0  0  0  0  0  0  0  0  0  0  0
   -3.0125    8.4538    3.8058 H   0  0  0  0  0  0  0  0  0  0  0  0
   -1.1959    9.5651    3.5940 C   0  0  0  0  0  0  0  0  0  0  0  0
   -1.6839   10.4231    3.1566 H   0  0  0  0  0  0  0  0  0  0  0  0
    0.1763    9.5700    3.7884 C   0  0  0  0  0  0  0  0  0  0  0  0
    0.7613   10.4312    3.5037 H   0  0  0  0  0  0  0  0  0  0  0  0
    0.7947    8.4697    4.3476 C   0  0  0  0  0  0  0  0  0  0  0  0
    1.8621    8.4521    4.5083 H   0  0  0  0  0  0  0  0  0  0  0  0
    0.7888    6.2176    5.3198 C   0  0  0  0  0  0  0  0  0  0  0  0
   -0.0635    5.0684    5.8840 C   0  0  0  0  0  0  0  0  0  0  0  0
   -0.8066    5.4575    6.5835 H   0  0  0  0  0  0  0  0  0  0  0  0
   -0.5649    4.5604    5.0524 H   0  0  0  0  0  0  0  0  0  0  0  0
    1.7801    3.3699    6.1732 C   0  0  0  0  0  0  0  0  0  0  0  0
    2.3607    3.1261    4.9325 C   0  0  0  0  0  0  0  0  0  0  0  0
    2.0145    3.6184    4.0378 H   0  0  0  0  0  0  0  0  0  0  0  0
    3.4121    2.2401    4.9165 C   0  0  0  0  0  0  0  0  0  0  0  0
    3.9017    2.0230    3.9790 H   0  0  0  0  0  0  0  0  0  0  0  0
    3.8743    1.6038    6.0808 C   0  0  0  0  0  0  0  0  0  0  0  0
    4.7031    0.9175    5.9975 H   0  0  0  0  0  0  0  0  0  0  0  0
    3.3058    1.8288    7.3106 C   0  0  0  0  0  0  0  0  0  0  0  0
    3.6394    1.3430    8.2136 H   0  0  0  0  0  0  0  0  0  0  0  0
    2.2412    2.7307    7.3476 C   0  0  0  0  0  0  0  0  0  0  0  0
   -1.5273    3.2703   11.0256 C   0  0  0  0  0  0  0  0  0  0  0  0
   -1.6294    4.6575   11.1352 C   0  0  0  0  0  0  0  0  0  0  0  0
   -0.7570    5.2766   11.0023 H   0  0  0  0  0  0  0  0  0  0  0  0
   -2.8723    5.1566   11.4415 C   0  0  0  0  0  0  0  0  0  0  0  0
   -3.0049    6.2230   11.5422 H   0  0  0  0  0  0  0  0  0  0  0  0
   -3.9863    4.3230   11.6359 C   0  0  0  0  0  0  0  0  0  0  0  0
   -4.9368    4.7757   11.8760 H   0  0  0  0  0  0  0  0  0  0  0  0
   -3.9037    2.9538   11.5349 C   0  0  0  0  0  0  0  0  0  0  0  0
   -4.7616    2.3165   11.6811 H   0  0  0  0  0  0  0  0  0  0  0  0
   -2.6517    2.4352   11.2207 C   0  0  0  0  0  0  0  0  0  0  0  0
   -2.8407   -0.0752   11.0683 C   0  0  0  0  0  0  0  0  0  0  0  0
   -3.3712   -0.1969   12.0186 H   0  0  0  0  0  0  0  0  0  0  0  0
   -2.0793   -0.8527   10.9675 H   0  0  0  0  0  0  0  0  0  0  0  0
   -3.8446   -0.1715    9.9106 C   0  0  0  0  0  0  0  0  0  0  0  0
   -4.5973   -1.4368    9.7979 C   0  0  0  0  0  0  0  0  0  0  0  0
   -5.5602   -1.5219    8.7888 C   0  0  0  0  0  0  0  0  0  0  0  0
   -5.7059   -0.6656    8.1475 H   0  0  0  0  0  0  0  0  0  0  0  0
   -6.3037   -2.6726    8.6201 C   0  0  0  0  0  0  0  0  0  0  0  0
   -7.0449   -2.7267    7.8374 H   0  0  0  0  0  0  0  0  0  0  0  0
   -6.0947   -3.7573    9.4571 C   0  0  0  0  0  0  0  0  0  0  0  0
   -6.6727   -4.6600    9.3281 H   0  0  0  0  0  0  0  0  0  0  0  0
   -5.1410   -3.6846   10.4608 C   0  0  0  0  0  0  0  0  0  0  0  0
   -4.9777   -4.5313   11.1102 H   0  0  0  0  0  0  0  0  0  0  0  0
   -4.3943   -2.5346   10.6357 C   0  0  0  0  0  0  0  0  0  0  0  0
   -3.6555   -2.5049   11.4207 H   0  0  0  0  0  0  0  0  0  0  0  0
  1  3  1  0  0  0  0
  1  9  1  0  0  0  0
  1  2  1  0  0  0  0
  5 50  2  0  0  0  0
  6  7  1  0  0  0  0
  7  8  1  0  0  0  0
  8  1  1  0  0  0  0
  9 10  1  0  0  0  0
  9 37  1  0  0  0  0
 10 11  1  0  0  0  0
 11 47  1  0  0  0  0
 11 46  1  0  0  0  0
 12 23  1  0  0  0  0
 13 12  1  0  0  0  0
 13 14  1  0  0  0  0
 15 13  2  0  0  0  0
 16 15  1  0  0  0  0
 17 19  2  0  0  0  0
 17 15  1  0  0  0  0
 18 17  1  0  0  0  0
 19 21  1  0  0  0  0
 20 19  1  0  0  0  0
 21 22  1  0  0  0  0
 21 12  2  0  0  0  0
 23  4  2  0  0  0  0
 23 24  1  0  0  0  0
 24 25  1  0  0  0  0
 24  6  1  0  0  0  0
 26 24  1  0  0  0  0
 27  6  1  0  0  0  0
 27 36  1  0  0  0  0
 28 27  2  0  0  0  0
 29 28  1  0  0  0  0
 30 28  1  0  0  0  0
 30 32  2  0  0  0  0
 31 30  1  0  0  0  0
 32 34  1  0  0  0  0
 33 32  1  0  0  0  0
 34 36  2  0  0  0  0
 34 35  1  0  0  0  0
 36  8  1  0  0  0  0
 37 38  2  0  0  0  0
 37 46  1  0  0  0  0
 38 40  1  0  0  0  0
 39 38  1  0  0  0  0
 40 41  1  0  0  0  0
 40 42  2  0  0  0  0
 42 43  1  0  0  0  0
 44 42  1  0  0  0  0
 44 45  1  0  0  0  0
 46 44  2  0  0  0  0
 47 48  1  0  0  0  0
 49 47  1  0  0  0  0
 50 47  1  0  0  0  0
 51 50  1  0  0  0  0
 51 60  1  0  0  0  0
 52 51  2  0  0  0  0
 53 52  1  0  0  0  0
 54 52  1  0  0  0  0
 54 56  2  0  0  0  0
 55 54  1  0  0  0  0
 56 58  1  0  0  0  0
 57 56  1  0  0  0  0
 58 60  2  0  0  0  0
 58 59  1  0  0  0  0
 60 61  1  0  0  0  0
M  END
$$$$
