CSD_code = IQUDUU | q = 0 | S = 0 | Stoichiometry = C21H20ClN2O5Re | MND = 6
 OpenBabel04212202053D

 50 52  0  0  0  0  0  0  0  0999 V2000
    3.4303    2.2129    9.8948 C   0  0  0  0  0  2  0  0  0  0  0  0
    2.6707    4.0253   11.8001 C   0  0  0  0  0  2  0  0  0  0  0  0
    0.8494    2.1184   11.2300 C   0  0  0  0  0  2  0  0  0  0  0  0
    5.4037    3.9384   13.5480 C   0  0  0  0  0  0  0  0  0  0  0  0
    4.2195    4.3020   14.1980 C   0  0  0  0  0  0  0  0  0  0  0  0
    3.4462    3.5659   14.3583 H   0  0  0  0  0  0  0  0  0  0  0  0
    4.0591    5.5759   14.6884 C   0  0  0  0  0  0  0  0  0  0  0  0
    3.1548    5.8610   15.2013 H   0  0  0  0  0  0  0  0  0  0  0  0
    5.0628    6.5362   14.5294 C   0  0  0  0  0  0  0  0  0  0  0  0
    6.2506    6.1758   13.8932 C   0  0  0  0  0  0  0  0  0  0  0  0
    7.0490    6.8890   13.7616 H   0  0  0  0  0  0  0  0  0  0  0  0
    6.4201    4.8870   13.4316 C   0  0  0  0  0  0  0  0  0  0  0  0
    7.3467    4.6190   12.9434 H   0  0  0  0  0  0  0  0  0  0  0  0
    5.6437    2.5906   13.0739 C   0  0  0  0  0  3  0  0  0  0  0  0
    6.6652    2.2271   13.2430 H   0  0  0  0  0  0  0  0  0  0  0  0
    5.2427    0.4680   12.2073 C   0  0  0  0  0  0  0  0  0  0  0  0
    6.1605    0.2074   12.7514 H   0  0  0  0  0  0  0  0  0  0  0  0
    5.4325    0.3750   11.1293 H   0  0  0  0  0  0  0  0  0  0  0  0
    5.7615    8.7793   14.9046 C   0  0  0  0  0  0  0  0  0  0  0  0
    6.6900    8.5245   15.4258 H   0  0  0  0  0  0  0  0  0  0  0  0
    5.3221    9.6625   15.3654 H   0  0  0  0  0  0  0  0  0  0  0  0
    5.9786    8.9904   13.8530 H   0  0  0  0  0  0  0  0  0  0  0  0
    0.9389   -0.9976   10.7228 C   0  0  0  0  0  0  0  0  0  0  0  0
    0.9189   -0.2302    9.5587 C   0  0  0  0  0  0  0  0  0  0  0  0
    1.8092    0.2987    9.2524 H   0  0  0  0  0  0  0  0  0  0  0  0
   -0.2103   -0.1694    8.7672 C   0  0  0  0  0  0  0  0  0  0  0  0
   -0.1837    0.4275    7.8701 H   0  0  0  0  0  0  0  0  0  0  0  0
   -1.3608   -0.8652    9.1345 C   0  0  0  0  0  0  0  0  0  0  0  0
   -1.3395   -1.6514   10.2925 C   0  0  0  0  0  0  0  0  0  0  0  0
   -2.2339   -2.1915   10.5593 H   0  0  0  0  0  0  0  0  0  0  0  0
   -0.2048   -1.7294   11.0620 C   0  0  0  0  0  0  0  0  0  0  0  0
   -0.2049   -2.3350   11.9565 H   0  0  0  0  0  0  0  0  0  0  0  0
    2.1163   -1.0958   11.5609 C   0  0  0  0  0  3  0  0  0  0  0  0
    2.2680   -2.0739   12.0313 H   0  0  0  0  0  0  0  0  0  0  0  0
    4.1054   -0.4753   12.6005 C   0  0  0  0  0  0  0  0  0  0  0  0
    4.4104   -1.5232   12.4873 H   0  0  0  0  0  0  0  0  0  0  0  0
    3.8488   -0.2930   13.6534 H   0  0  0  0  0  0  0  0  0  0  0  0
   -2.6257   -0.0626    7.2893 C   0  0  0  0  0  0  0  0  0  0  0  0
   -2.4565    0.9929    7.5208 H   0  0  0  0  0  0  0  0  0  0  0  0
   -3.6446   -0.1961    6.9296 H   0  0  0  0  0  0  0  0  0  0  0  0
   -1.9236   -0.3847    6.5139 H   0  0  0  0  0  0  0  0  0  0  0  0
    4.8117    1.8197   12.4946 N   0  0  0  0  0  0  0  0  0  0  0  0
    2.9519   -0.1618   11.7855 N   0  0  0  0  0  0  0  0  0  0  0  0
    3.8545    2.2671    8.8232 O   0  0  0  0  0  1  0  0  0  0  0  0
    2.5839    5.1702   11.8103 O   0  0  0  0  0  1  0  0  0  0  0  0
   -0.2872    2.1714   11.0968 O   0  0  0  0  0  1  0  0  0  0  0  0
    4.7980    7.7615   15.0382 O   0  0  0  0  0  0  0  0  0  0  0  0
   -2.5222   -0.8649    8.4435 O   0  0  0  0  0  0  0  0  0  0  0  0
    1.9866    1.6522   13.9055 Cl  0  0  0  0  0  0  0  0  0  0  0  0
    2.7371    2.0848   11.6985 Re  0  0  0  0  0  0  0  0  0  0  0  0
  1 50  1  0  0  0  0
  2 45  1  0  0  0  0
  3 50  1  0  0  0  0
  4  5  1  0  0  0  0
  5  6  1  0  0  0  0
  5  7  2  0  0  0  0
  7  8  1  0  0  0  0
  9  7  1  0  0  0  0
  9 47  1  0  0  0  0
 10  9  2  0  0  0  0
 11 10  1  0  0  0  0
 12  4  2  0  0  0  0
 12 10  1  0  0  0  0
 13 12  1  0  0  0  0
 14 15  1  0  0  0  0
 14  4  1  0  0  0  0
 16 42  1  0  0  0  0
 16 35  1  0  0  0  0
 16 17  1  0  0  0  0
 18 16  1  0  0  0  0
 19 47  1  0  0  0  0
 19 21  1  0  0  0  0
 19 20  1  0  0  0  0
 22 19  1  0  0  0  0
 23 31  1  0  0  0  0
 23 33  1  0  0  0  0
 24 23  2  0  0  0  0
 25 24  1  0  0  0  0
 26 28  2  0  0  0  0
 26 24  1  0  0  0  0
 27 26  1  0  0  0  0
 28 29  1  0  0  0  0
 29 30  1  0  0  0  0
 29 31  2  0  0  0  0
 31 32  1  0  0  0  0
 33 43  1  0  0  0  0
 33 34  1  0  0  0  0
 35 37  1  0  0  0  0
 36 35  1  0  0  0  0
 38 39  1  0  0  0  0
 38 48  1  0  0  0  0
 40 38  1  0  0  0  0
 41 38  1  0  0  0  0
 42 14  1  0  0  0  0
 43 35  1  0  0  0  0
 44  1  1  0  0  0  0
 46  3  1  0  0  0  0
 48 28  1  0  0  0  0
 50 43  1  0  0  0  0
 50  2  1  0  0  0  0
 50 42  1  0  0  0  0
 50 49  1  0  0  0  0
M  END
$$$$
