CSD_code = IQUFEH | q = 0 | S = 0 | Stoichiometry = C19H18BrMnN4O5 | MND = 6
 OpenBabel04212202053D

 48 50  0  0  0  0  0  0  0  0999 V2000
   -1.3518    5.7577    4.3813 Br  0  0  0  0  0  0  0  0  0  0  0  0
   -0.9701    7.0751    2.3070 Mn  0  0  0  0  0  0  0  0  0  0  0  0
   -1.0391   13.2203    7.0678 O   0  0  0  0  0  0  0  0  0  0  0  0
    0.2112    4.6882    1.0767 O   0  0  0  0  0  1  0  0  0  0  0  0
   -3.5210    6.0598    1.2726 O   0  0  0  0  0  1  0  0  0  0  0  0
   -0.4991    8.6475   -0.1136 O   0  0  0  0  0  1  0  0  0  0  0  0
    1.7364    9.4808    8.2128 O   0  0  0  0  0  0  0  0  0  0  0  0
    0.7044    7.7158    3.2621 N   0  0  0  0  0  0  0  0  0  0  0  0
    3.1000    7.8299    7.5015 N   0  0  0  0  0  0  0  0  0  0  0  0
    3.2991    6.8436    7.5567 H   0  0  0  0  0  0  0  0  0  0  0  0
   -2.3483   11.4336    7.4603 N   0  0  0  0  0  0  0  0  0  0  0  0
   -2.4813   10.5925    7.9990 H   0  0  0  0  0  0  0  0  0  0  0  0
   -1.3025   10.1254    5.1722 C   0  0  0  0  0  0  0  0  0  0  0  0
   -0.6031   10.5301    5.8841 H   0  0  0  0  0  0  0  0  0  0  0  0
    0.4616    8.6200    4.2312 C   0  0  0  0  0  0  0  0  0  0  0  0
    2.1584    8.3473    8.3278 C   0  0  0  0  0  0  0  0  0  0  0  0
   -0.8941    9.1682    4.2513 C   0  0  0  0  0  0  0  0  0  0  0  0
    1.4168    8.9486    5.1851 C   0  0  0  0  0  0  0  0  0  0  0  0
    1.1995    9.6533    5.9696 H   0  0  0  0  0  0  0  0  0  0  0  0
   -0.2211    5.6351    1.5633 C   0  0  0  0  0  2  0  0  0  0  0  0
    1.6976    7.3887    9.3984 C   0  0  0  0  0  0  0  0  0  0  0  0
    2.5420    6.8798    9.8552 H   0  0  0  0  0  0  0  0  0  0  0  0
    1.1450    7.9327   10.1586 H   0  0  0  0  0  0  0  0  0  0  0  0
    1.0390    6.6459    8.9506 H   0  0  0  0  0  0  0  0  0  0  0  0
   -0.6769    8.0478    0.8508 C   0  0  0  0  0  2  0  0  0  0  0  0
   -2.9933    9.0950    3.3302 C   0  0  0  0  0  0  0  0  0  0  0  0
   -3.6537    8.6746    2.5820 H   0  0  0  0  0  0  0  0  0  0  0  0
    2.9083    7.4246    4.1414 C   0  0  0  0  0  0  0  0  0  0  0  0
    3.8567    6.9163    4.0655 H   0  0  0  0  0  0  0  0  0  0  0  0
   -1.3119   12.2663    7.7635 C   0  0  0  0  0  0  0  0  0  0  0  0
   -3.4750   10.0295    4.2268 C   0  0  0  0  0  0  0  0  0  0  0  0
   -4.5091   10.3319    4.1794 H   0  0  0  0  0  0  0  0  0  0  0  0
    1.9184    7.1700    3.2095 C   0  0  0  0  0  0  0  0  0  0  0  0
    2.1030    6.4701    2.4041 H   0  0  0  0  0  0  0  0  0  0  0  0
   -2.6187   10.5578    5.1889 C   0  0  0  0  0  0  0  0  0  0  0  0
   -2.5363    6.4868    1.6814 C   0  0  0  0  0  2  0  0  0  0  0  0
   -3.0733   11.5544    6.2190 C   0  0  0  0  0  0  0  0  0  0  0  0
   -4.1481   11.4545    6.3963 H   0  0  0  0  0  0  0  0  0  0  0  0
   -2.8677   12.5676    5.8497 H   0  0  0  0  0  0  0  0  0  0  0  0
   -0.5643   11.8845    9.0148 C   0  0  0  0  0  0  0  0  0  0  0  0
   -0.0262   12.7504    9.3890 H   0  0  0  0  0  0  0  0  0  0  0  0
   -1.2395   11.5099    9.7794 H   0  0  0  0  0  0  0  0  0  0  0  0
    0.1642   11.1085    8.7758 H   0  0  0  0  0  0  0  0  0  0  0  0
    2.6507    8.3175    5.1759 C   0  0  0  0  0  0  0  0  0  0  0  0
    3.5881    8.5410    6.3322 C   0  0  0  0  0  0  0  0  0  0  0  0
    3.6117    9.6034    6.5907 H   0  0  0  0  0  0  0  0  0  0  0  0
    4.5965    8.1937    6.1014 H   0  0  0  0  0  0  0  0  0  0  0  0
   -1.7382    8.6468    3.3408 N   0  0  0  0  0  0  0  0  0  0  0  0
  2  8  1  0  0  0  0
  2 48  1  0  0  0  0
  2  1  1  0  0  0  0
  3 30  2  0  0  0  0
  4 20  1  0  0  0  0
  5 36  1  0  0  0  0
  6 25  1  0  0  0  0
  7 16  2  0  0  0  0
  8 15  1  0  0  0  0
  9 10  1  0  0  0  0
  9 16  1  0  0  0  0
 11 30  1  0  0  0  0
 11 12  1  0  0  0  0
 13 35  2  0  0  0  0
 13 14  1  0  0  0  0
 15 17  2  0  0  0  0
 15 18  1  0  0  0  0
 16 21  1  0  0  0  0
 17 13  1  0  0  0  0
 18 19  1  0  0  0  0
 20  2  1  0  0  0  0
 21 22  1  0  0  0  0
 21 23  1  0  0  0  0
 24 21  1  0  0  0  0
 25  2  1  0  0  0  0
 26 48  1  0  0  0  0
 26 31  2  0  0  0  0
 27 26  1  0  0  0  0
 28 44  1  0  0  0  0
 29 28  1  0  0  0  0
 30 40  1  0  0  0  0
 31 35  1  0  0  0  0
 32 31  1  0  0  0  0
 33  8  1  0  0  0  0
 33 28  2  0  0  0  0
 34 33  1  0  0  0  0
 35 37  1  0  0  0  0
 36  2  1  0  0  0  0
 37 38  1  0  0  0  0
 37 11  1  0  0  0  0
 39 37  1  0  0  0  0
 40 41  1  0  0  0  0
 40 42  1  0  0  0  0
 43 40  1  0  0  0  0
 44 18  2  0  0  0  0
 44 45  1  0  0  0  0
 45 46  1  0  0  0  0
 45  9  1  0  0  0  0
 47 45  1  0  0  0  0
 48 17  1  0  0  0  0
M  END
$$$$
