CSD_code = IQUGOR | q = 1 | S = 0 | Stoichiometry = C26H31ClN5NiO2(1+) | MND = 6
 OpenBabel04212202053D

 66 70  0  0  1  0  0  0  0  0999 V2000
    6.0248    4.0319    3.4448 Ni  0  0  0  0  0  0  0  0  0  0  0  0
    5.1438    6.0128    3.2087 Cl  0  0  0  0  0  0  0  0  0  0  0  0
    7.2912    2.1741    3.9576 O   0  0  0  0  0  0  0  0  0  0  0  0
    7.8052    2.4118    4.7373 H   0  0  0  0  0  0  0  0  0  0  0  0
    7.0534    4.1248    1.8680 O   0  0  0  0  0  0  0  0  0  0  0  0
    4.9028    3.8164    4.8284 N   0  0  0  0  0  0  0  0  0  0  0  0
    7.3857    4.8064    5.1349 N   0  0  0  0  0  0  0  0  0  0  0  0
    6.9630    5.7928    7.0859 N   0  0  0  0  0  0  0  0  0  0  0  0
    6.4551    6.1148    7.8928 H   0  0  0  0  0  0  0  0  0  0  0  0
    4.4661    2.7510    2.4782 N   0  0  0  0  0  0  0  0  0  0  0  0
    7.2018    4.3560   -0.3698 N   0  0  0  0  0  0  0  0  0  0  0  0
    8.4677    5.5688    5.4688 C   0  0  0  0  0  0  0  0  0  0  0  0
    6.5025    4.9698    6.1049 C   0  0  1  0  0  3  0  0  0  0  0  0
    3.4629    2.7226    3.2719 C   0  0  0  0  0  0  0  0  0  0  0  0
    5.0825    1.2655    0.6942 C   0  0  0  0  0  0  0  0  0  0  0  0
    3.7232    3.2002    4.6374 C   0  0  0  0  0  0  0  0  0  0  0  0
    6.7937    4.7408    0.8228 C   0  0  0  0  0  3  0  0  0  0  0  0
    6.2085    5.6673    0.8355 H   0  0  0  0  0  0  0  0  0  0  0  0
    3.8344    3.2909    0.1831 C   0  0  0  0  0  0  0  0  0  0  0  0
    4.4184    2.4250    1.1193 C   0  0  0  0  0  0  0  0  0  0  0  0
    5.2122    4.3168    6.0359 C   0  0  0  0  0  0  0  0  0  0  0  0
    8.2134    6.2079    6.7069 C   0  0  0  0  0  0  0  0  0  0  0  0
    4.3379    4.2106    7.1155 C   0  0  0  0  0  0  0  0  0  0  0  0
    4.6102    4.6129    8.0777 H   0  0  0  0  0  0  0  0  0  0  0  0
    3.9439    2.9783   -1.1639 C   0  0  0  0  0  0  0  0  0  0  0  0
    3.4965    3.6463   -1.8861 H   0  0  0  0  0  0  0  0  0  0  0  0
    2.8093    3.0715    5.6806 C   0  0  0  0  0  0  0  0  0  0  0  0
    1.8641    2.5829    5.5143 H   0  0  0  0  0  0  0  0  0  0  0  0
    9.6738    5.7749    4.8013 C   0  0  0  0  0  0  0  0  0  0  0  0
    9.8618    5.2997    3.8519 H   0  0  0  0  0  0  0  0  0  0  0  0
    5.1521    0.9859   -0.6593 C   0  0  0  0  0  0  0  0  0  0  0  0
    5.6504    0.0833   -0.9825 H   0  0  0  0  0  0  0  0  0  0  0  0
    3.1213    3.5792    6.9307 C   0  0  0  0  0  0  0  0  0  0  0  0
    2.4227    3.4885    7.7473 H   0  0  0  0  0  0  0  0  0  0  0  0
    4.5928    1.8345   -1.6065 C   0  0  0  0  0  0  0  0  0  0  0  0
    7.9629    3.1415   -0.5528 C   0  0  0  0  0  0  0  0  0  0  0  0
    7.9531    2.5763    0.3760 H   0  0  0  0  0  0  0  0  0  0  0  0
    8.9930    3.3739   -0.8285 H   0  0  0  0  0  0  0  0  0  0  0  0
    7.5086    2.5426   -1.3414 H   0  0  0  0  0  0  0  0  0  0  0  0
    2.1009    2.2323    2.9057 C   0  0  0  0  0  0  0  0  0  0  0  0
    2.0860    1.9074    1.8684 H   0  0  0  0  0  0  0  0  0  0  0  0
    1.3613    3.0189    3.0455 H   0  0  0  0  0  0  0  0  0  0  0  0
    1.8254    1.3894    3.5379 H   0  0  0  0  0  0  0  0  0  0  0  0
    3.1219    4.5399    0.6032 C   0  0  0  0  0  0  0  0  0  0  0  0
    3.1229    5.2651   -0.2066 H   0  0  0  0  0  0  0  0  0  0  0  0
    3.5842    4.9930    1.4781 H   0  0  0  0  0  0  0  0  0  0  0  0
    2.0820    4.3217    0.8465 H   0  0  0  0  0  0  0  0  0  0  0  0
    9.1426    7.0528    7.2964 C   0  0  0  0  0  0  0  0  0  0  0  0
    8.9441    7.5415    8.2370 H   0  0  0  0  0  0  0  0  0  0  0  0
   10.5879    6.6158    5.3932 C   0  0  0  0  0  0  0  0  0  0  0  0
   11.5310    6.8054    4.9047 H   0  0  0  0  0  0  0  0  0  0  0  0
    5.6491    0.3204    1.7071 C   0  0  0  0  0  0  0  0  0  0  0  0
    6.4464   -0.2784    1.2741 H   0  0  0  0  0  0  0  0  0  0  0  0
    4.8720   -0.3602    2.0563 H   0  0  0  0  0  0  0  0  0  0  0  0
    6.0220    0.8640    2.5727 H   0  0  0  0  0  0  0  0  0  0  0  0
   10.3283    7.2422    6.6188 C   0  0  0  0  0  0  0  0  0  0  0  0
   11.0780    7.8937    7.0397 H   0  0  0  0  0  0  0  0  0  0  0  0
    6.8953    5.0989   -1.5655 C   0  0  0  0  0  0  0  0  0  0  0  0
    6.3535    6.0077   -1.3156 H   0  0  0  0  0  0  0  0  0  0  0  0
    6.2809    4.4884   -2.2298 H   0  0  0  0  0  0  0  0  0  0  0  0
    7.8160    5.3651   -2.0873 H   0  0  0  0  0  0  0  0  0  0  0  0
    4.6703    1.5070   -3.0653 C   0  0  0  0  0  0  0  0  0  0  0  0
    4.5445    2.3973   -3.6769 H   0  0  0  0  0  0  0  0  0  0  0  0
    3.8772    0.8072   -3.3283 H   0  0  0  0  0  0  0  0  0  0  0  0
    5.6193    1.0351   -3.3118 H   0  0  0  0  0  0  0  0  0  0  0  0
    7.9043    2.1871    3.2142 H   0  0  0  0  0  0  0  0  0  0  0  0
  1  6  1  0  0  0  0
  1  7  1  0  0  0  0
  2  1  1  0  0  0  0
  3  4  1  0  0  0  0
  5  1  1  0  0  0  0
  6 21  1  0  0  0  0
  7 12  1  0  0  0  0
  7 13  1  0  0  0  0
  8  9  1  0  0  0  0
 10 14  1  0  0  0  0
 10  1  1  0  0  0  0
 11 17  1  0  0  0  0
 12 22  1  0  0  0  0
 13 21  1  6  0  0  0
 13  8  1  0  0  0  0
 14 16  2  0  0  0  0
 15 20  1  0  0  0  0
 15 52  1  0  0  0  0
 16  6  1  0  0  0  0
 16 27  1  0  0  0  0
 17 18  1  0  0  0  0
 17  5  1  0  0  0  0
 19 44  1  0  0  0  0
 19 20  2  0  0  0  0
 20 10  1  0  0  0  0
 21 23  2  0  0  0  0
 22  8  1  0  0  0  0
 22 48  2  0  0  0  0
 23 24  1  0  0  0  0
 25 19  1  0  0  0  0
 26 25  1  0  0  0  0
 27 33  2  0  0  0  0
 28 27  1  0  0  0  0
 29 50  1  0  0  0  0
 29 12  2  0  0  0  0
 30 29  1  0  0  0  0
 31 15  2  0  0  0  0
 32 31  1  0  0  0  0
 33 23  1  0  0  0  0
 33 34  1  0  0  0  0
 35 25  2  0  0  0  0
 35 31  1  0  0  0  0
 36 11  1  0  0  0  0
 36 37  1  0  0  0  0
 38 36  1  0  0  0  0
 39 36  1  0  0  0  0
 40 42  1  0  0  0  0
 40 14  1  0  0  0  0
 40 43  1  0  0  0  0
 41 40  1  0  0  0  0
 44 47  1  0  0  0  0
 44 46  1  0  0  0  0
 45 44  1  0  0  0  0
 48 49  1  0  0  0  0
 50 56  2  0  0  0  0
 51 50  1  0  0  0  0
 52 54  1  0  0  0  0
 52 55  1  0  0  0  0
 53 52  1  0  0  0  0
 56 57  1  0  0  0  0
 56 48  1  0  0  0  0
 58 59  1  0  0  0  0
 58 11  1  0  0  0  0
 60 58  1  0  0  0  0
 61 58  1  0  0  0  0
 62 35  1  0  0  0  0
 63 62  1  0  0  0  0
 64 62  1  0  0  0  0
 65 62  1  0  0  0  0
 66  3  1  0  0  0  0
M  END
$$$$
