CSD_code = IQUGIL | q = 1 | S = 0 | Stoichiometry = C24H28ClN4NiO2(1+) | MND = 6
 OpenBabel04212202053D

 60 63  0  0  1  0  0  0  0  0999 V2000
    4.3384    4.6574    6.6570 Ni  0  0  1  0  0  0  0  0  0  0  0  0
    5.1048    2.8046    6.3075 Cl  0  0  0  0  0  0  0  0  0  0  0  0
    6.6812    5.3506    6.8524 O   0  0  0  0  0  0  0  0  0  0  0  0
    7.0679    4.4905    6.6209 H   0  0  0  0  0  0  0  0  0  0  0  0
    2.1285    3.9479    5.8599 O   0  0  0  0  0  0  0  0  0  0  0  0
    1.7825    4.4643    5.1236 H   0  0  0  0  0  0  0  0  0  0  0  0
    4.5642    5.3968    4.8205 N   0  0  0  0  0  0  0  0  0  0  0  0
    4.4891    7.2534    3.6035 N   0  0  0  0  0  0  0  0  0  0  0  0
    4.3528    8.2187    3.3513 H   0  0  0  0  0  0  0  0  0  0  0  0
    3.8834    4.3855    8.5494 N   0  0  0  0  0  0  0  0  0  0  0  0
    3.7885    6.3502    7.0213 N   0  0  0  0  0  0  0  0  0  0  0  0
    1.3617    3.0597    8.9750 C   0  0  0  0  0  0  0  0  0  0  0  0
    0.6469    2.2761    8.7375 H   0  0  0  0  0  0  0  0  0  0  0  0
    1.4737    3.7078    8.1089 H   0  0  0  0  0  0  0  0  0  0  0  0
    0.9462    3.6475    9.7945 H   0  0  0  0  0  0  0  0  0  0  0  0
    3.9011    0.6107   10.3368 C   0  0  0  0  0  0  0  0  0  0  0  0
    3.9073   -0.3794   10.7646 H   0  0  0  0  0  0  0  0  0  0  0  0
    5.7044    5.0398    0.9044 C   0  0  0  0  0  0  0  0  0  0  0  0
    5.9966    4.9896   -0.1327 H   0  0  0  0  0  0  0  0  0  0  0  0
    7.4668    6.3709    6.2697 C   0  0  0  0  0  0  0  0  0  0  0  0
    8.4903    6.3341    6.6508 H   0  0  0  0  0  0  0  0  0  0  0  0
    7.0222    7.3252    6.5505 H   0  0  0  0  0  0  0  0  0  0  0  0
    7.4889    6.2898    5.1784 H   0  0  0  0  0  0  0  0  0  0  0  0
    5.3933    3.8682    3.0081 C   0  0  0  0  0  0  0  0  0  0  0  0
    5.4316    2.9822    3.6215 H   0  0  0  0  0  0  0  0  0  0  0  0
    6.3755    3.3474    9.5258 C   0  0  0  0  0  0  0  0  0  0  0  0
    6.6085    3.7995   10.4905 H   0  0  0  0  0  0  0  0  0  0  0  0
    6.3032    4.1416    8.7851 H   0  0  0  0  0  0  0  0  0  0  0  0
    7.1933    2.6827    9.2613 H   0  0  0  0  0  0  0  0  0  0  0  0
    2.7067    1.1866    9.9431 C   0  0  0  0  0  0  0  0  0  0  0  0
    1.7805    0.6466   10.0690 H   0  0  0  0  0  0  0  0  0  0  0  0
    2.6717    2.4535    9.3811 C   0  0  0  0  0  0  0  0  0  0  0  0
    5.7523    3.8736    1.6793 C   0  0  0  0  0  0  0  0  0  0  0  0
    6.0815    2.9569    1.2162 H   0  0  0  0  0  0  0  0  0  0  0  0
    5.2967    6.2479    1.4302 C   0  0  0  0  0  0  0  0  0  0  0  0
    5.2628    7.1443    0.8318 H   0  0  0  0  0  0  0  0  0  0  0  0
    5.0842    1.3088   10.1846 C   0  0  0  0  0  0  0  0  0  0  0  0
    6.0171    0.8704   10.5037 H   0  0  0  0  0  0  0  0  0  0  0  0
    3.1332    8.9302    7.6402 C   0  0  0  0  0  0  0  0  0  0  0  0
    2.8708    9.9476    7.8848 H   0  0  0  0  0  0  0  0  0  0  0  0
    3.8401    7.2840    6.0660 C   0  0  0  0  0  0  0  0  0  0  0  0
    4.9323    6.2558    2.7689 C   0  0  0  0  0  0  0  0  0  0  0  0
    3.0973    7.9503    8.6228 C   0  0  0  0  0  0  0  0  0  0  0  0
    2.8111    8.1955    9.6322 H   0  0  0  0  0  0  0  0  0  0  0  0
    5.0965    2.5759    9.6220 C   0  0  0  0  0  0  0  0  0  0  0  0
    4.9761    5.0800    3.5578 C   0  0  0  0  0  0  0  0  0  0  0  0
    3.0961    5.5568   10.5688 C   0  0  0  0  0  0  0  0  0  0  0  0
    3.2371    4.6047   11.0736 H   0  0  0  0  0  0  0  0  0  0  0  0
    2.0539    5.8600   10.6621 H   0  0  0  0  0  0  0  0  0  0  0  0
    3.7074    6.3134   11.0597 H   0  0  0  0  0  0  0  0  0  0  0  0
    3.5117    8.6081    6.3440 C   0  0  0  0  0  0  0  0  0  0  0  0
    3.5520    9.3641    5.5765 H   0  0  0  0  0  0  0  0  0  0  0  0
    3.4413    6.6457    8.2751 C   0  0  0  0  0  0  0  0  0  0  0  0
    3.8836    3.1393    9.2071 C   0  0  0  0  0  0  0  0  0  0  0  0
    4.2829    6.6949    4.8213 C   0  0  2  0  0  3  0  0  0  0  0  0
    3.4797    5.4609    9.1339 C   0  0  0  0  0  0  0  0  0  0  0  0
    1.9219    2.5717    5.5460 C   0  0  0  0  0  0  0  0  0  0  0  0
    0.8526    2.3585    5.4730 H   0  0  0  0  0  0  0  0  0  0  0  0
    2.3583    1.9904    6.3546 H   0  0  0  0  0  0  0  0  0  0  0  0
    2.4178    2.3030    4.6115 H   0  0  0  0  0  0  0  0  0  0  0  0
  1  2  1  1  0  0  0
  1 11  1  0  0  0  0
  1 10  1  0  0  0  0
  4  3  1  0  0  0  0
  6  5  1  0  0  0  0
  7 55  1  0  0  0  0
  7  1  1  0  0  0  0
  8 55  1  0  0  0  0
  9  8  1  0  0  0  0
 10 56  1  0  0  0  0
 10 54  1  0  0  0  0
 11 53  1  0  0  0  0
 12 32  1  0  0  0  0
 12 15  1  0  0  0  0
 13 12  1  0  0  0  0
 14 12  1  0  0  0  0
 16 17  1  0  0  0  0
 18 35  2  0  0  0  0
 18 33  1  0  0  0  0
 19 18  1  0  0  0  0
 20 22  1  0  0  0  0
 20 21  1  0  0  0  0
 20  3  1  0  0  0  0
 23 20  1  0  0  0  0
 24 46  1  0  0  0  0
 24 25  1  0  0  0  0
 26 45  1  0  0  0  0
 26 27  1  0  0  0  0
 28 26  1  0  0  0  0
 29 26  1  0  0  0  0
 30 31  1  0  0  0  0
 30 16  2  0  0  0  0
 32 30  1  0  0  0  0
 33 24  2  0  0  0  0
 34 33  1  0  0  0  0
 35 42  1  0  0  0  0
 36 35  1  0  0  0  0
 37 16  1  0  0  0  0
 37 38  1  0  0  0  0
 39 40  1  0  0  0  0
 39 43  2  0  0  0  0
 41 51  2  0  0  0  0
 41 11  1  0  0  0  0
 42 46  2  0  0  0  0
 42  8  1  0  0  0  0
 43 44  1  0  0  0  0
 45 37  2  0  0  0  0
 46  7  1  0  0  0  0
 47 49  1  0  0  0  0
 47 50  1  0  0  0  0
 47 48  1  0  0  0  0
 51 39  1  0  0  0  0
 52 51  1  0  0  0  0
 53 43  1  0  0  0  0
 53 56  2  0  0  0  0
 54 32  2  0  0  0  0
 54 45  1  0  0  0  0
 55 41  1  1  0  0  0
 56 47  1  0  0  0  0
 57  5  1  0  0  0  0
 57 59  1  0  0  0  0
 58 57  1  0  0  0  0
 60 57  1  0  0  0  0
M  END
$$$$
