CSD_code = IQUHAD | q = 0 | S = 0 | Stoichiometry = C32H27ClP2Pt | MND = 4
 OpenBabel04212202053D

 63 69  0  0  0  0  0  0  0  0999 V2000
    5.8839    3.3384   16.0674 Pt  0  0  0  0  0  0  0  0  0  0  0  0
    4.8990    4.1203   17.9313 P   0  0  0  0  0  4  0  0  0  0  0  0
    7.0922    2.1624   14.5646 P   0  0  0  0  0  4  0  0  0  0  0  0
    4.9532    4.9613   14.6344 Cl  0  0  0  0  0  0  0  0  0  0  0  0
    6.6951    2.0013   17.3725 C   0  0  0  0  0  0  0  0  0  0  0  0
    7.3480    0.8509   16.9132 C   0  0  0  0  0  0  0  0  0  0  0  0
    7.9148   -0.0440   17.8101 C   0  0  0  0  0  0  0  0  0  0  0  0
    8.4203   -0.9257   17.4402 H   0  0  0  0  0  0  0  0  0  0  0  0
    7.8303    0.1806   19.1721 C   0  0  0  0  0  0  0  0  0  0  0  0
    8.2669   -0.5225   19.8659 H   0  0  0  0  0  0  0  0  0  0  0  0
    7.1858    1.3104   19.6415 C   0  0  0  0  0  0  0  0  0  0  0  0
    7.1202    1.4907   20.7058 H   0  0  0  0  0  0  0  0  0  0  0  0
    6.6294    2.2216   18.7544 C   0  0  0  0  0  0  0  0  0  0  0  0
    7.4107    0.5685   15.4327 C   0  0  0  0  0  0  0  0  0  0  0  0
    6.6107   -0.1298   15.1571 H   0  0  0  0  0  0  0  0  0  0  0  0
    8.3715    0.1294   15.1472 H   0  0  0  0  0  0  0  0  0  0  0  0
    5.9763    3.4754   19.2820 C   0  0  0  0  0  0  0  0  0  0  0  0
    6.7411    4.2255   19.5121 H   0  0  0  0  0  0  0  0  0  0  0  0
    5.4041    3.2858   20.1950 H   0  0  0  0  0  0  0  0  0  0  0  0
    6.7384    1.7507   12.8328 C   0  0  0  0  0  0  0  0  0  0  0  0
    7.0469    0.5239   12.2545 C   0  0  0  0  0  0  0  0  0  0  0  0
    7.4951   -0.2634   12.8441 H   0  0  0  0  0  0  0  0  0  0  0  0
    6.7737    0.3085   10.9152 C   0  0  0  0  0  0  0  0  0  0  0  0
    7.0142   -0.6442   10.4653 H   0  0  0  0  0  0  0  0  0  0  0  0
    6.1926    1.3082   10.1521 C   0  0  0  0  0  0  0  0  0  0  0  0
    5.9815    1.1322    9.1074 H   0  0  0  0  0  0  0  0  0  0  0  0
    5.8756    2.5277   10.7289 C   0  0  0  0  0  0  0  0  0  0  0  0
    5.4136    3.3034   10.1365 H   0  0  0  0  0  0  0  0  0  0  0  0
    6.1460    2.7512   12.0661 C   0  0  0  0  0  0  0  0  0  0  0  0
    5.8849    3.6903   12.5362 H   0  0  0  0  0  0  0  0  0  0  0  0
    8.7380    2.9252   14.4704 C   0  0  0  0  0  0  0  0  0  0  0  0
    8.9660    4.0604   15.2407 C   0  0  0  0  0  0  0  0  0  0  0  0
    8.1486    4.4591   15.8431 H   0  0  0  0  0  0  0  0  0  0  0  0
   10.2050    4.6733   15.2225 C   0  0  0  0  0  0  0  0  0  0  0  0
   10.3823    5.5563   15.8188 H   0  0  0  0  0  0  0  0  0  0  0  0
   11.2181    4.1564   14.4312 C   0  0  0  0  0  0  0  0  0  0  0  0
   12.1861    4.6354   14.4127 H   0  0  0  0  0  0  0  0  0  0  0  0
   10.9912    3.0305   13.6552 C   0  0  0  0  0  0  0  0  0  0  0  0
   11.7817    2.6357   13.0334 H   0  0  0  0  0  0  0  0  0  0  0  0
    9.7536    2.4140   13.6707 C   0  0  0  0  0  0  0  0  0  0  0  0
    9.5702    1.5429   13.0563 H   0  0  0  0  0  0  0  0  0  0  0  0
    4.5713    5.8547   18.3404 C   0  0  0  0  0  0  0  0  0  0  0  0
    3.2858    6.3827   18.3810 C   0  0  0  0  0  0  0  0  0  0  0  0
    2.4326    5.7375   18.2268 H   0  0  0  0  0  0  0  0  0  0  0  0
    3.1037    7.7350   18.6096 C   0  0  0  0  0  0  0  0  0  0  0  0
    2.1037    8.1422   18.6440 H   0  0  0  0  0  0  0  0  0  0  0  0
    4.1967    8.5677   18.7822 C   0  0  0  0  0  0  0  0  0  0  0  0
    4.0492    9.6232   18.9568 H   0  0  0  0  0  0  0  0  0  0  0  0
    5.4809    8.0507   18.7108 C   0  0  0  0  0  0  0  0  0  0  0  0
    6.3341    8.7038   18.8226 H   0  0  0  0  0  0  0  0  0  0  0  0
    5.6684    6.7016   18.4822 C   0  0  0  0  0  0  0  0  0  0  0  0
    6.6687    6.2963   18.3943 H   0  0  0  0  0  0  0  0  0  0  0  0
    3.3401    3.2375   18.1945 C   0  0  0  0  0  0  0  0  0  0  0  0
    2.6197    3.3195   19.3819 C   0  0  0  0  0  0  0  0  0  0  0  0
    2.9691    3.9582   20.1826 H   0  0  0  0  0  0  0  0  0  0  0  0
    1.4545    2.5900   19.5291 C   0  0  0  0  0  0  0  0  0  0  0  0
    0.8915    2.6539   20.4491 H   0  0  0  0  0  0  0  0  0  0  0  0
    1.0071    1.7776   18.4982 C   0  0  0  0  0  0  0  0  0  0  0  0
    0.0957    1.2107   18.6195 H   0  0  0  0  0  0  0  0  0  0  0  0
    1.7231    1.6925   17.3153 C   0  0  0  0  0  0  0  0  0  0  0  0
    1.3710    1.0599   16.5140 H   0  0  0  0  0  0  0  0  0  0  0  0
    2.8884    2.4217   17.1629 C   0  0  0  0  0  0  0  0  0  0  0  0
    3.4642    2.3762   16.2387 H   0  0  0  0  0  0  0  0  0  0  0  0
  1  5  1  0  0  0  0
  1  2  1  0  0  0  0
  2 53  1  0  0  0  0
  2 42  1  0  0  0  0
  2 17  1  0  0  0  0
  3 14  1  0  0  0  0
  3  1  1  0  0  0  0
  4  1  1  0  0  0  0
  5 13  1  0  0  0  0
  6  5  2  0  0  0  0
  6  7  1  0  0  0  0
  7  9  2  0  0  0  0
  8  7  1  0  0  0  0
  9 11  1  0  0  0  0
  9 10  1  0  0  0  0
 11 12  1  0  0  0  0
 13 17  1  0  0  0  0
 13 11  2  0  0  0  0
 14  6  1  0  0  0  0
 15 14  1  0  0  0  0
 16 14  1  0  0  0  0
 17 18  1  0  0  0  0
 17 19  1  0  0  0  0
 20  3  1  0  0  0  0
 21 20  1  0  0  0  0
 21 22  1  0  0  0  0
 23 21  2  0  0  0  0
 24 23  1  0  0  0  0
 25 27  2  0  0  0  0
 25 23  1  0  0  0  0
 26 25  1  0  0  0  0
 27 29  1  0  0  0  0
 28 27  1  0  0  0  0
 29 30  1  0  0  0  0
 29 20  2  0  0  0  0
 31  3  1  0  0  0  0
 31 32  1  0  0  0  0
 32 33  1  0  0  0  0
 34 32  2  0  0  0  0
 34 35  1  0  0  0  0
 36 34  1  0  0  0  0
 37 36  1  0  0  0  0
 38 40  1  0  0  0  0
 38 36  2  0  0  0  0
 39 38  1  0  0  0  0
 40 31  2  0  0  0  0
 41 40  1  0  0  0  0
 42 43  2  0  0  0  0
 42 51  1  0  0  0  0
 43 45  1  0  0  0  0
 44 43  1  0  0  0  0
 45 46  1  0  0  0  0
 45 47  2  0  0  0  0
 47 48  1  0  0  0  0
 49 47  1  0  0  0  0
 49 50  1  0  0  0  0
 51 49  2  0  0  0  0
 52 51  1  0  0  0  0
 53 54  1  0  0  0  0
 54 56  2  0  0  0  0
 54 55  1  0  0  0  0
 56 57  1  0  0  0  0
 58 59  1  0  0  0  0
 58 56  1  0  0  0  0
 60 58  2  0  0  0  0
 61 60  1  0  0  0  0
 62 60  1  0  0  0  0
 62 53  2  0  0  0  0
 63 62  1  0  0  0  0
M  END
$$$$
