CSD_code = IQUROD | q = 0 | S = 0 | Stoichiometry = C19H14AuCl3F6N4 | MND = 2
 OpenBabel04212202053D

 47 49  0  0  1  0  0  0  0  0999 V2000
    1.5753    4.1280    7.8233 Au  0  0  0  0  0  0  0  0  0  0  0  0
    3.1961    2.5905    7.6121 Cl  0  0  0  0  0  0  0  0  0  0  0  0
    2.6890    4.2352   13.0208 Cl  0  0  0  0  0  0  0  0  0  0  0  0
    5.2897    7.8439    6.9181 Cl  0  0  0  0  0  0  0  0  0  0  0  0
   -0.6439    5.6908    9.1230 N   0  0  0  0  0  0  0  0  0  0  0  0
    0.0966    6.7125    7.3891 N   0  0  0  0  0  0  0  0  0  0  0  0
   -0.9906    3.0236   12.2624 N   0  0  0  0  0  0  0  0  0  0  0  0
    2.4449    7.8365    4.1814 N   0  0  0  0  0  0  0  0  0  0  0  0
   -1.0912    1.3453   16.2891 F   0  0  0  0  0  0  0  0  0  0  0  0
   -1.3629   -0.1831   14.8026 F   0  0  0  0  0  0  0  0  0  0  0  0
    0.5843    0.1578   15.6544 F   0  0  0  0  0  0  0  0  0  0  0  0
    5.7598    7.6545    1.2375 F   0  0  0  0  0  0  0  0  0  0  0  0
    4.3757    9.2583    0.8703 F   0  0  0  0  0  0  0  0  0  0  0  0
    6.1739    9.6235    1.9937 F   0  0  0  0  0  0  0  0  0  0  0  0
    0.2136    5.5729    8.0936 C   0  0  1  0  0  3  0  0  0  0  0  0
   -1.2909    6.8942    9.0675 C   0  0  0  0  0  0  0  0  0  0  0  0
   -2.0230    7.1878    9.7907 H   0  0  0  0  0  0  0  0  0  0  0  0
   -0.8230    7.5397    7.9721 C   0  0  0  0  0  0  0  0  0  0  0  0
   -1.0733    8.4981    7.5669 H   0  0  0  0  0  0  0  0  0  0  0  0
   -0.8298    4.6966   10.1474 C   0  0  0  0  0  0  0  0  0  0  0  0
   -0.9124    3.7122    9.6819 H   0  0  0  0  0  0  0  0  0  0  0  0
   -1.7549    4.9052   10.6858 H   0  0  0  0  0  0  0  0  0  0  0  0
    0.3488    4.6820   11.1224 C   0  0  0  0  0  0  0  0  0  0  0  0
    1.2668    4.4521   10.5706 H   0  0  0  0  0  0  0  0  0  0  0  0
    0.4799    5.6671   11.5795 H   0  0  0  0  0  0  0  0  0  0  0  0
    0.1653    3.6623   12.2015 C   0  0  0  0  0  0  0  0  0  0  0  0
    1.1934    3.3935   13.1173 C   0  0  0  0  0  0  0  0  0  0  0  0
    0.9950    2.4413   14.1027 C   0  0  0  0  0  0  0  0  0  0  0  0
    1.7707    2.2107   14.8168 H   0  0  0  0  0  0  0  0  0  0  0  0
   -0.2303    1.7848   14.1391 C   0  0  0  0  0  0  0  0  0  0  0  0
   -1.1948    2.1133   13.1946 C   0  0  0  0  0  0  0  0  0  0  0  0
   -2.1605    1.6281   13.1817 H   0  0  0  0  0  0  0  0  0  0  0  0
   -0.5191    0.7726   15.2117 C   0  0  0  0  0  0  0  0  0  0  0  0
    0.8540    7.0210    6.2045 C   0  0  0  0  0  0  0  0  0  0  0  0
    0.3788    7.8515    5.6814 H   0  0  0  0  0  0  0  0  0  0  0  0
    0.8587    6.1509    5.5446 H   0  0  0  0  0  0  0  0  0  0  0  0
    2.2992    7.3835    6.5511 C   0  0  0  0  0  0  0  0  0  0  0  0
    2.3252    8.2226    7.2525 H   0  0  0  0  0  0  0  0  0  0  0  0
    2.7751    6.5293    7.0447 H   0  0  0  0  0  0  0  0  0  0  0  0
    3.0889    7.7419    5.3320 C   0  0  0  0  0  0  0  0  0  0  0  0
    4.4707    7.9705    5.4121 C   0  0  0  0  0  0  0  0  0  0  0  0
    5.1729    8.2992    4.2651 C   0  0  0  0  0  0  0  0  0  0  0  0
    6.2362    8.4819    4.2974 H   0  0  0  0  0  0  0  0  0  0  0  0
    4.4664    8.3946    3.0706 C   0  0  0  0  0  0  0  0  0  0  0  0
    3.0994    8.1486    3.0798 C   0  0  0  0  0  0  0  0  0  0  0  0
    2.5082    8.2095    2.1771 H   0  0  0  0  0  0  0  0  0  0  0  0
    5.1887    8.7344    1.7972 C   0  0  0  0  0  0  0  0  0  0  0  0
  2  1  1  0  0  0  0
  3 27  1  0  0  0  0
  5 20  1  0  0  0  0
  6 18  1  0  0  0  0
  6 15  1  0  0  0  0
  7 31  1  0  0  0  0
  8 40  1  0  0  0  0
 10 33  1  0  0  0  0
 12 47  1  0  0  0  0
 13 47  1  0  0  0  0
 15  1  1  1  0  0  0
 15  5  1  0  0  0  0
 16  5  1  0  0  0  0
 16 17  1  0  0  0  0
 18 16  2  0  0  0  0
 19 18  1  0  0  0  0
 20 22  1  0  0  0  0
 20 23  1  0  0  0  0
 21 20  1  0  0  0  0
 23 25  1  0  0  0  0
 23 26  1  0  0  0  0
 24 23  1  0  0  0  0
 26  7  2  0  0  0  0
 26 27  1  0  0  0  0
 27 28  2  0  0  0  0
 28 30  1  0  0  0  0
 28 29  1  0  0  0  0
 30 33  1  0  0  0  0
 31 30  2  0  0  0  0
 32 31  1  0  0  0  0
 33 11  1  0  0  0  0
 33  9  1  0  0  0  0
 34 37  1  0  0  0  0
 34  6  1  0  0  0  0
 35 34  1  0  0  0  0
 36 34  1  0  0  0  0
 37 39  1  0  0  0  0
 37 38  1  0  0  0  0
 40 41  2  0  0  0  0
 40 37  1  0  0  0  0
 41  4  1  0  0  0  0
 42 43  1  0  0  0  0
 42 41  1  0  0  0  0
 44 45  1  0  0  0  0
 44 42  2  0  0  0  0
 45  8  2  0  0  0  0
 46 45  1  0  0  0  0
 47 14  1  0  0  0  0
 47 44  1  0  0  0  0
M  END
$$$$
