CSD_code = IRARAV | q = 0 | S = 0 | Stoichiometry = C29H23Cl4IrN3P | MND = 6
 OpenBabel04212202053D

 61 66  0  0  1  0  0  0  0  0999 V2000
    1.5053    2.7271    3.5029 Ir  0  0  0  0  0  0  0  0  0  0  0  0
   -0.1406    1.2361    4.2933 Cl  0  0  0  0  0  0  0  0  0  0  0  0
    2.0928    1.2305    1.8108 Cl  0  0  0  0  0  0  0  0  0  0  0  0
    3.1000    4.3563    2.8093 Cl  0  0  0  0  0  0  0  0  0  0  0  0
    0.4155    6.1915    0.6821 Cl  0  0  0  0  0  0  0  0  0  0  0  0
    3.2473    1.4307    4.4845 P   0  0  0  0  0  4  0  0  0  0  0  0
    0.9303    4.0699    4.9140 N   0  0  0  0  0  0  0  0  0  0  0  0
   -0.2179    4.8716    3.0677 N   0  0  0  0  0  2  0  0  0  0  0  0
    0.1862    3.7921    2.5312 N   0  0  0  0  0  0  0  0  0  0  0  0
    3.9587    2.0594    6.0509 C   0  0  0  0  0  0  0  0  0  0  0  0
    4.3845    3.3870    6.0264 C   0  0  0  0  0  0  0  0  0  0  0  0
    4.2346    3.9712    5.1282 H   0  0  0  0  0  0  0  0  0  0  0  0
    4.9895    3.9488    7.1343 C   0  0  0  0  0  0  0  0  0  0  0  0
    5.3160    4.9779    7.1052 H   0  0  0  0  0  0  0  0  0  0  0  0
    5.1788    3.1897    8.2786 C   0  0  0  0  0  0  0  0  0  0  0  0
    5.6502    3.6260    9.1468 H   0  0  0  0  0  0  0  0  0  0  0  0
    4.7692    1.8675    8.3044 C   0  0  0  0  0  0  0  0  0  0  0  0
    4.9248    1.2704    9.1912 H   0  0  0  0  0  0  0  0  0  0  0  0
    4.1641    1.2990    7.1960 C   0  0  0  0  0  0  0  0  0  0  0  0
    3.8561    0.2637    7.2272 H   0  0  0  0  0  0  0  0  0  0  0  0
    4.8396    1.1424    3.6380 C   0  0  0  0  0  0  0  0  0  0  0  0
    5.2025    1.7550    2.4480 C   0  0  0  0  0  0  0  0  0  0  0  0
    4.5182    2.4218    1.9497 H   0  0  0  0  0  0  0  0  0  0  0  0
    6.4470    1.5038    1.8941 C   0  0  0  0  0  0  0  0  0  0  0  0
    6.7213    1.9820    0.9657 H   0  0  0  0  0  0  0  0  0  0  0  0
    7.3330    0.6473    2.5223 C   0  0  0  0  0  0  0  0  0  0  0  0
    8.3017    0.4519    2.0861 H   0  0  0  0  0  0  0  0  0  0  0  0
    6.9762    0.0393    3.7163 C   0  0  0  0  0  0  0  0  0  0  0  0
    7.6650   -0.6290    4.2125 H   0  0  0  0  0  0  0  0  0  0  0  0
    5.7386    0.2878    4.2754 C   0  0  0  0  0  0  0  0  0  0  0  0
    5.4626   -0.1868    5.2075 H   0  0  0  0  0  0  0  0  0  0  0  0
    2.6781   -0.2486    4.8630 C   0  0  0  0  0  0  0  0  0  0  0  0
    2.9829   -1.3072    4.0149 C   0  0  0  0  0  0  0  0  0  0  0  0
    3.6023   -1.1372    3.1459 H   0  0  0  0  0  0  0  0  0  0  0  0
    2.4751   -2.5671    4.2760 C   0  0  0  0  0  0  0  0  0  0  0  0
    2.7119   -3.3868    3.6138 H   0  0  0  0  0  0  0  0  0  0  0  0
    1.6557   -2.7751    5.3729 C   0  0  0  0  0  0  0  0  0  0  0  0
    1.2576   -3.7594    5.5715 H   0  0  0  0  0  0  0  0  0  0  0  0
    1.3289   -1.7165    6.2052 C   0  0  0  0  0  0  0  0  0  0  0  0
    0.6708   -1.8720    7.0475 H   0  0  0  0  0  0  0  0  0  0  0  0
    1.8283   -0.4542    5.9475 C   0  0  0  0  0  0  0  0  0  0  0  0
    1.5445    0.3801    6.5748 H   0  0  0  0  0  0  0  0  0  0  0  0
    0.1537    5.0332    4.3599 C   0  0  1  0  0  3  0  0  0  0  0  0
   -0.2893    6.1385    5.0925 C   0  0  0  0  0  0  0  0  0  0  0  0
   -0.8873    6.8801    4.5900 H   0  0  0  0  0  0  0  0  0  0  0  0
    0.0551    6.2313    6.4224 C   0  0  0  0  0  0  0  0  0  0  0  0
   -0.2645    7.0740    7.0156 H   0  0  0  0  0  0  0  0  0  0  0  0
    0.8142    5.2121    6.9921 C   0  0  0  0  0  0  0  0  0  0  0  0
    1.0887    5.2375    8.0339 H   0  0  0  0  0  0  0  0  0  0  0  0
    1.2277    4.1556    6.2035 C   0  0  0  0  0  0  0  0  0  0  0  0
    1.8238    3.3551    6.6170 H   0  0  0  0  0  0  0  0  0  0  0  0
   -0.5194    2.2924    0.7989 C   0  0  0  0  0  0  0  0  0  0  0  0
   -0.6250    1.5243    1.5485 H   0  0  0  0  0  0  0  0  0  0  0  0
   -0.0614    4.6014    0.2422 C   0  0  0  0  0  0  0  0  0  0  0  0
   -0.3077    4.3149   -1.0902 C   0  0  0  0  0  0  0  0  0  0  0  0
   -0.2138    5.1025   -1.8210 H   0  0  0  0  0  0  0  0  0  0  0  0
   -0.6716    3.0353   -1.4734 C   0  0  0  0  0  0  0  0  0  0  0  0
   -0.8654    2.8280   -2.5146 H   0  0  0  0  0  0  0  0  0  0  0  0
   -0.7903    2.0287   -0.5270 C   0  0  0  0  0  0  0  0  0  0  0  0
   -1.0836    1.0341   -0.8228 H   0  0  0  0  0  0  0  0  0  0  0  0
   -0.1423    3.5786    1.2035 C   0  0  0  0  0  0  0  0  0  0  0  0
  1  2  1  0  0  0  0
  1  6  1  0  0  0  0
  1  7  1  0  0  0  0
  3  1  1  0  0  0  0
  4  1  1  0  0  0  0
  6 32  1  0  0  0  0
  6 10  1  0  0  0  0
  7 50  1  0  0  0  0
  9  8  1  0  0  0  0
  9  1  1  0  0  0  0
 10 19  1  0  0  0  0
 11 10  2  0  0  0  0
 11 13  1  0  0  0  0
 12 11  1  0  0  0  0
 13 15  2  0  0  0  0
 14 13  1  0  0  0  0
 15 17  1  0  0  0  0
 15 16  1  0  0  0  0
 17 18  1  0  0  0  0
 19 20  1  0  0  0  0
 19 17  2  0  0  0  0
 21 30  1  0  0  0  0
 21  6  1  0  0  0  0
 22 21  2  0  0  0  0
 23 22  1  0  0  0  0
 24 22  1  0  0  0  0
 24 26  2  0  0  0  0
 25 24  1  0  0  0  0
 26 28  1  0  0  0  0
 27 26  1  0  0  0  0
 28 29  1  0  0  0  0
 28 30  2  0  0  0  0
 30 31  1  0  0  0  0
 32 41  1  0  0  0  0
 33 35  1  0  0  0  0
 33 32  2  0  0  0  0
 34 33  1  0  0  0  0
 35 37  2  0  0  0  0
 36 35  1  0  0  0  0
 37 38  1  0  0  0  0
 37 39  1  0  0  0  0
 39 40  1  0  0  0  0
 41 39  2  0  0  0  0
 41 42  1  0  0  0  0
 43  8  1  1  0  0  0
 43  7  1  0  0  0  0
 43 44  1  0  0  0  0
 44 46  2  0  0  0  0
 45 44  1  0  0  0  0
 46 48  1  0  0  0  0
 46 47  1  0  0  0  0
 48 49  1  0  0  0  0
 50 51  1  0  0  0  0
 50 48  2  0  0  0  0
 52 61  1  0  0  0  0
 52 53  1  0  0  0  0
 54  5  1  0  0  0  0
 54 61  2  0  0  0  0
 55 54  1  0  0  0  0
 56 55  1  0  0  0  0
 57 55  2  0  0  0  0
 57 59  1  0  0  0  0
 58 57  1  0  0  0  0
 59 52  2  0  0  0  0
 60 59  1  0  0  0  0
 61  9  1  0  0  0  0
M  END
$$$$
