CSD_code = IRAWOO | q = 1 | S = 0 | Stoichiometry = C21H29ClN4PPt(1+) | MND = 4
 OpenBabel04212202053D

 57 62  0  0  1  0  0  0  0  0999 V2000
    1.3906    5.6015    1.3874 C   0  0  0  0  0  3  0  0  0  0  0  0
    2.0800    4.8114    1.1131 H   0  0  0  0  0  0  0  0  0  0  0  0
    0.0427    5.3423    1.5538 C   0  0  0  0  0  0  0  0  0  0  0  0
   -0.3319    4.3406    1.4219 H   0  0  0  0  0  0  0  0  0  0  0  0
   -0.8016    6.3898    1.8849 C   0  0  0  0  0  0  0  0  0  0  0  0
   -1.8588    6.2278    2.0233 H   0  0  0  0  0  0  0  0  0  0  0  0
   -0.2576    7.6559    2.0323 C   0  0  0  0  0  0  0  0  0  0  0  0
   -0.8839    8.4953    2.2887 H   0  0  0  0  0  0  0  0  0  0  0  0
    1.1033    7.8492    1.8429 C   0  0  0  0  0  0  0  0  0  0  0  0
    1.7115    9.2205    1.9823 C   0  0  0  0  0  0  0  0  0  0  0  0
    2.3361    9.4159    1.0933 H   0  0  0  0  0  0  0  0  0  0  0  0
    0.9126    9.9618    2.0177 H   0  0  0  0  0  0  0  0  0  0  0  0
    2.9728   10.6520    3.6102 C   0  0  2  0  0  0  0  0  0  0  0  0
    3.2504   10.5589    4.6673 H   0  0  0  0  0  0  0  0  0  0  0  0
    2.0266   11.8328    3.4790 C   0  0  0  0  0  0  0  0  0  0  0  0
    1.0997   11.6387    4.0197 H   0  0  0  0  0  0  0  0  0  0  0  0
    1.7885   12.0227    2.4308 H   0  0  0  0  0  0  0  0  0  0  0  0
    2.7350   13.0586    4.0638 C   0  0  0  0  0  0  0  0  0  0  0  0
    2.9066   12.9011    5.1301 H   0  0  0  0  0  0  0  0  0  0  0  0
    2.0932   13.9330    3.9557 H   0  0  0  0  0  0  0  0  0  0  0  0
    4.0690   13.3178    3.3650 C   0  0  0  0  0  0  0  0  0  0  0  0
    3.8852   13.5729    2.3191 H   0  0  0  0  0  0  0  0  0  0  0  0
    4.5636   14.1696    3.8312 H   0  0  0  0  0  0  0  0  0  0  0  0
    4.9917   12.0981    3.4281 C   0  0  0  0  0  0  0  0  0  0  0  0
    5.9136   12.3029    2.8828 H   0  0  0  0  0  0  0  0  0  0  0  0
    5.2534   11.8717    4.4627 H   0  0  0  0  0  0  0  0  0  0  0  0
    4.2598   10.9093    2.8197 C   0  0  1  0  0  0  0  0  0  0  0  0
    4.0080   11.1496    1.7754 H   0  0  0  0  0  0  0  0  0  0  0  0
    5.8596    9.4372    1.7002 C   0  0  0  0  0  0  0  0  0  0  0  0
    6.5870   10.2525    1.6764 H   0  0  0  0  0  0  0  0  0  0  0  0
    5.2630    9.4792    0.7695 H   0  0  0  0  0  0  0  0  0  0  0  0
    6.5893    8.1218    1.7112 C   0  0  2  0  0  3  0  0  0  0  0  0
    7.9608    8.0640    1.9123 C   0  0  0  0  0  0  0  0  0  0  0  0
    8.5098    8.9717    2.1054 H   0  0  0  0  0  0  0  0  0  0  0  0
    8.6138    6.8426    1.8559 C   0  0  0  0  0  0  0  0  0  0  0  0
    9.6799    6.7839    2.0072 H   0  0  0  0  0  0  0  0  0  0  0  0
    7.8685    5.7042    1.5924 C   0  0  0  0  0  0  0  0  0  0  0  0
    8.3327    4.7341    1.5249 H   0  0  0  0  0  0  0  0  0  0  0  0
    6.5036    5.8304    1.4099 C   0  0  0  0  0  0  0  0  0  0  0  0
    5.8861    4.9672    1.1884 H   0  0  0  0  0  0  0  0  0  0  0  0
    4.1894    7.8899    4.9505 C   0  0  0  0  0  0  0  0  0  0  0  0
    4.1216    8.7626    5.6061 H   0  0  0  0  0  0  0  0  0  0  0  0
    5.5863    7.2865    5.0361 C   0  0  0  0  0  0  0  0  0  0  0  0
    5.8019    6.9684    6.0534 H   0  0  0  0  0  0  0  0  0  0  0  0
    6.3359    8.0172    4.7348 H   0  0  0  0  0  0  0  0  0  0  0  0
    5.6625    6.4157    4.3833 H   0  0  0  0  0  0  0  0  0  0  0  0
    3.0981    6.8809    5.2902 C   0  0  0  0  0  0  0  0  0  0  0  0
    3.1353    6.0427    4.5909 H   0  0  0  0  0  0  0  0  0  0  0  0
    2.1159    7.3458    5.2206 H   0  0  0  0  0  0  0  0  0  0  0  0
    3.2301    6.4934    6.2975 H   0  0  0  0  0  0  0  0  0  0  0  0
    1.9083    6.8245    1.5253 N   0  0  0  0  0  0  0  0  0  0  0  0
    2.4724    9.3143    3.2419 N   0  0  2  0  0  0  0  0  0  0  0  0
    5.0067    9.6419    2.8789 N   0  0  2  0  0  0  0  0  0  0  0  0
    5.8805    7.0089    1.4705 N   0  0  0  0  0  0  0  0  0  0  0  0
    3.8929    8.3866    3.2049 P   0  0  1  0  0  4  0  0  0  0  0  0
    3.9244    5.8753   -0.5743 Cl  0  0  0  0  0  0  0  0  0  0  0  0
    3.8910    6.9752    1.4258 Pt  0  0  2  0  0  0  0  0  0  0  0  0
  1 51  1  0  0  0  0
  1  3  1  0  0  0  0
  2  1  1  0  0  0  0
  3  5  2  0  0  0  0
  4  3  1  0  0  0  0
  5  6  1  0  0  0  0
  5  7  1  0  0  0  0
  7  8  1  0  0  0  0
  9 10  1  0  0  0  0
  9  7  2  0  0  0  0
 10 12  1  0  0  0  0
 11 10  1  0  0  0  0
 13 14  1  1  0  0  0
 15 13  1  0  0  0  0
 15 16  1  0  0  0  0
 15 18  1  0  0  0  0
 17 15  1  0  0  0  0
 18 19  1  0  0  0  0
 20 18  1  0  0  0  0
 21 24  1  0  0  0  0
 21 23  1  0  0  0  0
 21 18  1  0  0  0  0
 22 21  1  0  0  0  0
 24 26  1  0  0  0  0
 25 24  1  0  0  0  0
 27 28  1  6  0  0  0
 27 53  1  0  0  0  0
 27 24  1  0  0  0  0
 27 13  1  0  0  0  0
 29 32  1  0  0  0  0
 30 29  1  0  0  0  0
 31 29  1  0  0  0  0
 32 33  1  6  0  0  0
 33 34  1  0  0  0  0
 35 33  2  0  0  0  0
 35 36  1  0  0  0  0
 37 35  1  0  0  0  0
 38 37  1  0  0  0  0
 39 54  1  0  0  0  0
 39 37  2  0  0  0  0
 40 39  1  0  0  0  0
 41 43  1  0  0  0  0
 41 47  1  0  0  0  0
 41 42  1  0  0  0  0
 43 44  1  0  0  0  0
 45 43  1  0  0  0  0
 46 43  1  0  0  0  0
 47 50  1  0  0  0  0
 48 47  1  0  0  0  0
 49 47  1  0  0  0  0
 51  9  1  0  0  0  0
 52 10  1  6  0  0  0
 52 13  1  0  0  0  0
 53 29  1  6  0  0  0
 53 55  1  0  0  0  0
 54 32  1  0  0  0  0
 55 52  1  0  0  0  0
 55 41  1  1  0  0  0
 57 56  1  6  0  0  0
 57 54  1  0  0  0  0
 57 51  1  0  0  0  0
 57 55  1  0  0  0  0
M  END
$$$$
