CSD_code = IREDIU | q = 0 | S = 0 | Stoichiometry = C12H14Cl2N2O2Pt | MND = 4
 OpenBabel04212202053D

 33 34  0  0  0  0  0  0  0  0999 V2000
   14.7910   -5.6234    6.8687 Pt  0  0  0  0  0  0  0  0  0  0  0  0
   15.8813   -6.0608    4.8791 Cl  0  0  0  0  0  0  0  0  0  0  0  0
   13.9154   -4.0912    6.0503 N   0  0  0  0  0  0  0  0  0  0  0  0
   14.6211   -3.0132    5.7108 C   0  0  0  0  0  3  0  0  0  0  0  0
   15.6845   -3.0246    5.9195 H   0  0  0  0  0  0  0  0  0  0  0  0
   14.0476   -1.9042    5.1090 C   0  0  0  0  0  0  0  0  0  0  0  0
   12.6808   -1.9263    4.8501 C   0  0  0  0  0  0  0  0  0  0  0  0
   12.1990   -1.0807    4.3819 H   0  0  0  0  0  0  0  0  0  0  0  0
   11.9541   -3.0498    5.2049 C   0  0  0  0  0  0  0  0  0  0  0  0
   10.8927   -3.1029    5.0222 H   0  0  0  0  0  0  0  0  0  0  0  0
   12.6054   -4.1121    5.8051 C   0  0  0  0  0  0  0  0  0  0  0  0
   12.0688   -5.0041    6.1080 H   0  0  0  0  0  0  0  0  0  0  0  0
   14.8876   -0.7151    4.7302 C   0  0  0  0  0  0  0  0  0  0  0  0
   14.9747   -0.6900    3.6317 H   0  0  0  0  0  0  0  0  0  0  0  0
   14.3693    0.2034    5.0471 H   0  0  0  0  0  0  0  0  0  0  0  0
   16.1554   -0.8057    5.3288 O   0  0  0  0  0  0  0  0  0  0  0  0
   16.6948   -0.0613    5.0451 H   0  0  0  0  0  0  0  0  0  0  0  0
   13.7006   -5.1858    8.8586 Cl  0  0  0  0  0  0  0  0  0  0  0  0
   15.6685   -7.1526    7.6907 N   0  0  0  0  0  0  0  0  0  0  0  0
   14.9669   -8.2326    8.0324 C   0  0  0  0  0  3  0  0  0  0  0  0
   13.9033   -8.2254    7.8245 H   0  0  0  0  0  0  0  0  0  0  0  0
   15.5451   -9.3385    8.6357 C   0  0  0  0  0  0  0  0  0  0  0  0
   16.9120   -9.3110    8.8935 C   0  0  0  0  0  0  0  0  0  0  0  0
   17.3972  -10.1539    9.3629 H   0  0  0  0  0  0  0  0  0  0  0  0
   17.6344   -8.1856    8.5357 C   0  0  0  0  0  0  0  0  0  0  0  0
   18.6958   -8.1284    8.7172 H   0  0  0  0  0  0  0  0  0  0  0  0
   16.9787   -7.1268    7.9342 C   0  0  0  0  0  0  0  0  0  0  0  0
   17.5119   -6.2336    7.6288 H   0  0  0  0  0  0  0  0  0  0  0  0
   14.7101  -10.5303    9.0174 C   0  0  0  0  0  0  0  0  0  0  0  0
   14.6264  -10.5548   10.1166 H   0  0  0  0  0  0  0  0  0  0  0  0
   15.2310  -11.4474    8.6996 H   0  0  0  0  0  0  0  0  0  0  0  0
   13.4402  -10.4442    8.4222 O   0  0  0  0  0  0  0  0  0  0  0  0
   12.9046  -11.1908    8.7071 H   0  0  0  0  0  0  0  0  0  0  0  0
  1 19  1  0  0  0  0
  1 18  1  0  0  0  0
  2  1  1  0  0  0  0
  3  1  1  0  0  0  0
  4  5  1  0  0  0  0
  4  3  1  0  0  0  0
  6  4  1  0  0  0  0
  7  6  2  0  0  0  0
  7  9  1  0  0  0  0
  8  7  1  0  0  0  0
  9 11  2  0  0  0  0
 10  9  1  0  0  0  0
 11  3  1  0  0  0  0
 11 12  1  0  0  0  0
 13 15  1  0  0  0  0
 13  6  1  0  0  0  0
 13 16  1  0  0  0  0
 14 13  1  0  0  0  0
 17 16  1  0  0  0  0
 19 27  1  0  0  0  0
 19 20  1  0  0  0  0
 20 22  1  0  0  0  0
 21 20  1  0  0  0  0
 22 23  2  0  0  0  0
 22 29  1  0  0  0  0
 23 24  1  0  0  0  0
 25 26  1  0  0  0  0
 25 23  1  0  0  0  0
 27 25  2  0  0  0  0
 28 27  1  0  0  0  0
 29 30  1  0  0  0  0
 31 29  1  0  0  0  0
 32 33  1  0  0  0  0
 32 29  1  0  0  0  0
M  END
$$$$
