CSD_code = IRERUT | q = 0 | S = 0 | Stoichiometry = C17H30Cl2N2OZn | MND = 4
 OpenBabel04212202053D

 53 54  0  0  0  0  0  0  0  0999 V2000
    3.5864    3.3281   11.2199 H   0  0  0  0  0  0  0  0  0  0  0  0
    2.2957    5.3096   12.7496 Zn  0  0  0  0  0  0  0  0  0  0  0  0
    1.9399    5.1960   14.9004 Cl  0  0  0  0  0  0  0  0  0  0  0  0
    4.2846    5.9274   11.8564 Cl  0  0  0  0  0  0  0  0  0  0  0  0
    2.2877    3.5519   11.8695 O   0  0  0  0  0  0  0  0  0  0  0  0
    0.4499    5.9148   11.7757 N   0  0  0  0  0  4  0  0  0  0  0  0
    0.1777    3.6521   10.7537 C   0  0  0  0  0  0  0  0  0  0  0  0
    1.4820    3.1509   10.8991 C   0  0  0  0  0  0  0  0  0  0  0  0
    0.6909    6.4586   10.4305 C   0  0  0  0  0  0  0  0  0  0  0  0
    1.1800    5.6706    9.8522 H   0  0  0  0  0  0  0  0  0  0  0  0
    1.4038    7.2795   10.5261 H   0  0  0  0  0  0  0  0  0  0  0  0
    1.9541    2.2104    9.9595 C   0  0  0  0  0  0  0  0  0  0  0  0
   -0.2344    6.8623   12.6674 C   0  0  0  0  0  0  0  0  0  0  0  0
   -0.3344    6.3661   13.6360 H   0  0  0  0  0  0  0  0  0  0  0  0
   -1.2438    7.0785   12.2913 H   0  0  0  0  0  0  0  0  0  0  0  0
    4.2493    2.8304   10.4775 N   0  0  0  0  0  4  0  0  0  0  0  0
   -0.5397    6.9387    9.6637 C   0  0  0  0  0  0  0  0  0  0  0  0
   -1.2610    6.1369    9.5336 H   0  0  0  0  0  0  0  0  0  0  0  0
   -0.2246    7.2706    8.6775 H   0  0  0  0  0  0  0  0  0  0  0  0
   -1.0243    7.7749   10.1607 H   0  0  0  0  0  0  0  0  0  0  0  0
    1.1349    1.7808    8.9310 C   0  0  0  0  0  0  0  0  0  0  0  0
    1.5156    1.0599    8.2203 H   0  0  0  0  0  0  0  0  0  0  0  0
    3.3662    1.7012   10.1161 C   0  0  0  0  0  0  0  0  0  0  0  0
    3.3993    0.9725   10.9301 H   0  0  0  0  0  0  0  0  0  0  0  0
    3.7152    1.2139    9.2022 H   0  0  0  0  0  0  0  0  0  0  0  0
   -0.1631    2.2520    8.7998 C   0  0  0  0  0  0  0  0  0  0  0  0
    0.5337    8.1588   12.8734 C   0  0  0  0  0  0  0  0  0  0  0  0
    1.5601    7.9455   13.1715 H   0  0  0  0  0  0  0  0  0  0  0  0
    0.0641    8.7264   13.6728 H   0  0  0  0  0  0  0  0  0  0  0  0
    0.5474    8.7753   11.9780 H   0  0  0  0  0  0  0  0  0  0  0  0
   -0.3434    4.6678   11.7323 C   0  0  0  0  0  0  0  0  0  0  0  0
   -0.3089    4.2389   12.7396 H   0  0  0  0  0  0  0  0  0  0  0  0
   -1.3918    4.8951   11.4973 H   0  0  0  0  0  0  0  0  0  0  0  0
   -0.6168    3.1892    9.7190 C   0  0  0  0  0  0  0  0  0  0  0  0
   -1.6258    3.5671    9.6229 H   0  0  0  0  0  0  0  0  0  0  0  0
   -1.0601    1.7575    7.7049 C   0  0  0  0  0  0  0  0  0  0  0  0
   -1.7052    0.9616    8.0785 H   0  0  0  0  0  0  0  0  0  0  0  0
   -0.4786    1.3601    6.8765 H   0  0  0  0  0  0  0  0  0  0  0  0
   -1.6972    2.5580    7.3352 H   0  0  0  0  0  0  0  0  0  0  0  0
    4.4552    3.7673    9.3559 C   0  0  0  0  0  0  0  0  0  0  0  0
    3.4806    3.9274    8.8892 H   0  0  0  0  0  0  0  0  0  0  0  0
    4.7861    4.7155    9.7888 H   0  0  0  0  0  0  0  0  0  0  0  0
    5.4918    2.4640   11.1755 C   0  0  0  0  0  0  0  0  0  0  0  0
    5.9921    1.6535   10.6367 H   0  0  0  0  0  0  0  0  0  0  0  0
    6.1302    3.3490   11.1710 H   0  0  0  0  0  0  0  0  0  0  0  0
    5.4486    3.2775    8.3125 C   0  0  0  0  0  0  0  0  0  0  0  0
    6.4501    3.1915    8.7241 H   0  0  0  0  0  0  0  0  0  0  0  0
    5.4817    3.9976    7.4999 H   0  0  0  0  0  0  0  0  0  0  0  0
    5.1561    2.3164    7.8953 H   0  0  0  0  0  0  0  0  0  0  0  0
    5.2279    2.0712   12.6209 C   0  0  0  0  0  0  0  0  0  0  0  0
    6.1731    1.9001   13.1286 H   0  0  0  0  0  0  0  0  0  0  0  0
    4.6331    1.1650   12.7005 H   0  0  0  0  0  0  0  0  0  0  0  0
    4.7053    2.8752   13.1348 H   0  0  0  0  0  0  0  0  0  0  0  0
  2  3  1  0  0  0  0
  4  2  1  0  0  0  0
  5  2  1  0  0  0  0
  6 13  1  0  0  0  0
  6  2  1  0  0  0  0
  7  8  1  0  0  0  0
  7 31  1  0  0  0  0
  8  5  1  0  0  0  0
  9 11  1  0  0  0  0
  9  6  1  0  0  0  0
 10  9  1  0  0  0  0
 12 23  1  0  0  0  0
 12  8  2  0  0  0  0
 13 27  1  0  0  0  0
 13 14  1  0  0  0  0
 15 13  1  0  0  0  0
 16 43  1  0  0  0  0
 16  1  1  0  0  0  0
 17 20  1  0  0  0  0
 17  9  1  0  0  0  0
 18 17  1  0  0  0  0
 19 17  1  0  0  0  0
 21 12  1  0  0  0  0
 22 21  1  0  0  0  0
 23 16  1  0  0  0  0
 23 24  1  0  0  0  0
 25 23  1  0  0  0  0
 26 21  2  0  0  0  0
 26 34  1  0  0  0  0
 27 28  1  0  0  0  0
 27 29  1  0  0  0  0
 30 27  1  0  0  0  0
 31  6  1  0  0  0  0
 31 32  1  0  0  0  0
 33 31  1  0  0  0  0
 34  7  2  0  0  0  0
 35 34  1  0  0  0  0
 36 37  1  0  0  0  0
 36 26  1  0  0  0  0
 38 36  1  0  0  0  0
 39 36  1  0  0  0  0
 40 42  1  0  0  0  0
 40 16  1  0  0  0  0
 41 40  1  0  0  0  0
 43 50  1  0  0  0  0
 44 43  1  0  0  0  0
 45 43  1  0  0  0  0
 46 47  1  0  0  0  0
 46 40  1  0  0  0  0
 48 46  1  0  0  0  0
 49 46  1  0  0  0  0
 50 52  1  0  0  0  0
 50 51  1  0  0  0  0
 50 53  1  0  0  0  0
M  END
$$$$
