CSD_code = IRERIH | q = 0 | S = 0 | Stoichiometry = C17H30Cl2N2OZn | MND = 4
 OpenBabel04212202053D

 53 53  0  0  0  0  0  0  0  0999 V2000
    1.1010    1.4938    9.1462 Zn  0  0  0  0  0  0  0  0  0  0  0  0
    2.2432    1.1502    7.3119 Cl  0  0  0  0  0  0  0  0  0  0  0  0
    0.4202    0.2029   10.8187 Cl  0  0  0  0  0  0  0  0  0  0  0  0
   -0.9289    1.9408    8.4935 O   0  0  0  0  0  0  0  0  0  0  0  0
   -3.0052    0.4163    8.2712 N   0  0  0  0  0  0  0  0  0  0  0  0
    1.3788    3.5725    9.7800 N   0  0  0  0  0  4  0  0  0  0  0  0
   -1.0727    3.8264    9.9392 C   0  0  0  0  0  0  0  0  0  0  0  0
   -3.1706    0.6764    9.7014 C   0  0  0  0  0  0  0  0  0  0  0  0
   -4.2099    0.5090   10.0258 H   0  0  0  0  0  0  0  0  0  0  0  0
   -2.5316   -0.0283   10.2449 H   0  0  0  0  0  0  0  0  0  0  0  0
   -1.5760    2.6039    9.5008 C   0  0  0  0  0  0  0  0  0  0  0  0
   -3.3810    2.7842   11.0665 C   0  0  0  0  0  0  0  0  0  0  0  0
   -4.2696    2.3678   11.5189 H   0  0  0  0  0  0  0  0  0  0  0  0
   -2.7263    2.0644   10.0826 C   0  0  0  0  0  0  0  0  0  0  0  0
   -1.7509    4.5189   10.9331 C   0  0  0  0  0  0  0  0  0  0  0  0
   -1.3602    5.4686   11.2700 H   0  0  0  0  0  0  0  0  0  0  0  0
   -3.0230   -1.0159    7.9761 C   0  0  0  0  0  0  0  0  0  0  0  0
   -3.7370   -1.5285    8.6383 H   0  0  0  0  0  0  0  0  0  0  0  0
   -3.3692   -1.1556    6.9502 H   0  0  0  0  0  0  0  0  0  0  0  0
   -2.9134    4.0198   11.4981 C   0  0  0  0  0  0  0  0  0  0  0  0
   -3.9467    1.1902    7.4652 C   0  0  0  0  0  0  0  0  0  0  0  0
   -4.9194    0.6796    7.3929 H   0  0  0  0  0  0  0  0  0  0  0  0
   -4.1116    2.1467    7.9698 H   0  0  0  0  0  0  0  0  0  0  0  0
    0.2043    4.3521    9.3466 C   0  0  0  0  0  0  0  0  0  0  0  0
    0.1522    4.2857    8.2563 H   0  0  0  0  0  0  0  0  0  0  0  0
    0.3384    5.4056    9.6313 H   0  0  0  0  0  0  0  0  0  0  0  0
   -3.6486    4.7731   12.5646 C   0  0  0  0  0  0  0  0  0  0  0  0
   -3.6921    4.1855   13.4804 H   0  0  0  0  0  0  0  0  0  0  0  0
   -4.6717    4.9750   12.2504 H   0  0  0  0  0  0  0  0  0  0  0  0
   -3.1591    5.7186   12.7819 H   0  0  0  0  0  0  0  0  0  0  0  0
    1.5276    3.6742   11.2317 C   0  0  0  0  0  0  0  0  0  0  0  0
    2.4085    3.1184   11.5479 H   0  0  0  0  0  0  0  0  0  0  0  0
    0.6560    3.2440   11.7207 H   0  0  0  0  0  0  0  0  0  0  0  0
    1.6353    4.7205   11.5415 H   0  0  0  0  0  0  0  0  0  0  0  0
   -3.3999    1.4693    6.0652 C   0  0  0  0  0  0  0  0  0  0  0  0
   -3.2266    0.5312    5.5360 H   0  0  0  0  0  0  0  0  0  0  0  0
   -2.4397    1.9804    6.1544 H   0  0  0  0  0  0  0  0  0  0  0  0
    2.5695    4.1202    9.1297 C   0  0  0  0  0  0  0  0  0  0  0  0
    2.6957    5.1819    9.3729 H   0  0  0  0  0  0  0  0  0  0  0  0
    2.4841    4.0049    8.0512 H   0  0  0  0  0  0  0  0  0  0  0  0
    3.4512    3.5737    9.4594 H   0  0  0  0  0  0  0  0  0  0  0  0
   -1.6372   -1.6498    8.1148 C   0  0  0  0  0  0  0  0  0  0  0  0
   -1.1677   -1.3214    9.0433 H   0  0  0  0  0  0  0  0  0  0  0  0
   -1.7611   -2.7329    8.1741 H   0  0  0  0  0  0  0  0  0  0  0  0
   -0.7249   -1.3154    6.9405 C   0  0  0  0  0  0  0  0  0  0  0  0
   -1.1420   -1.6943    6.0090 H   0  0  0  0  0  0  0  0  0  0  0  0
    0.2523   -1.7681    7.0863 H   0  0  0  0  0  0  0  0  0  0  0  0
   -0.5824   -0.2418    6.8405 H   0  0  0  0  0  0  0  0  0  0  0  0
   -4.3654    2.3315    5.2620 C   0  0  0  0  0  0  0  0  0  0  0  0
   -5.3266    1.8332    5.1542 H   0  0  0  0  0  0  0  0  0  0  0  0
   -3.9662    2.5241    4.2696 H   0  0  0  0  0  0  0  0  0  0  0  0
   -4.5288    3.2860    5.7579 H   0  0  0  0  0  0  0  0  0  0  0  0
   -1.5681    1.1923    8.2307 H   0  0  0  0  0  0  0  0  0  0  0  0
  1  6  1  0  0  0  0
  1  3  1  0  0  0  0
  2  1  1  0  0  0  0
  4 11  1  0  0  0  0
  5  8  1  0  0  0  0
  6 31  1  0  0  0  0
  7 15  1  0  0  0  0
  8  9  1  0  0  0  0
  8 14  1  0  0  0  0
  8 10  1  0  0  0  0
 11  7  2  0  0  0  0
 11 14  1  0  0  0  0
 12 20  1  0  0  0  0
 12 13  1  0  0  0  0
 14 12  2  0  0  0  0
 15 16  1  0  0  0  0
 15 20  2  0  0  0  0
 17 42  1  0  0  0  0
 17  5  1  0  0  0  0
 17 18  1  0  0  0  0
 19 17  1  0  0  0  0
 20 27  1  0  0  0  0
 21 23  1  0  0  0  0
 21  5  1  0  0  0  0
 22 21  1  0  0  0  0
 24 26  1  0  0  0  0
 24  6  1  0  0  0  0
 24  7  1  0  0  0  0
 25 24  1  0  0  0  0
 27 30  1  0  0  0  0
 27 28  1  0  0  0  0
 29 27  1  0  0  0  0
 31 34  1  0  0  0  0
 31 32  1  0  0  0  0
 31 33  1  0  0  0  0
 35 37  1  0  0  0  0
 35 21  1  0  0  0  0
 36 35  1  0  0  0  0
 38 39  1  0  0  0  0
 38 41  1  0  0  0  0
 38  6  1  0  0  0  0
 40 38  1  0  0  0  0
 42 44  1  0  0  0  0
 42 43  1  0  0  0  0
 45 47  1  0  0  0  0
 45 42  1  0  0  0  0
 46 45  1  0  0  0  0
 48 45  1  0  0  0  0
 49 52  1  0  0  0  0
 49 35  1  0  0  0  0
 50 49  1  0  0  0  0
 51 49  1  0  0  0  0
 53  4  1  0  0  0  0
M  END
$$$$
