CSD_code = IREZAH | q = 0 | S = 0 | Stoichiometry = C31H31ClNNiOP | MND = 4
 OpenBabel04212202053D

 67 72  0  0  0  0  0  0  0  0999 V2000
   -0.0630    3.8424   11.1676 Ni  0  0  1  0  0  0  0  0  0  0  0  0
   -1.0443    1.9778   11.1590 P   0  0  0  0  0  4  0  0  0  0  0  0
   -0.7765    4.4239    9.2896 Cl  0  0  0  0  0  0  0  0  0  0  0  0
    0.5557    3.2146   12.7937 C   0  0  0  0  0  0  0  0  0  0  0  0
    1.1709    5.3599   11.6319 N   0  0  0  0  0  0  0  0  0  0  0  0
    1.7627    5.2353   12.7646 C   0  0  0  0  0  0  0  0  0  0  0  0
    2.4337    6.0024   13.1522 H   0  0  0  0  0  0  0  0  0  0  0  0
    0.1554    2.0029   13.3470 C   0  0  0  0  0  0  0  0  0  0  0  0
    0.6537    1.5821   14.5678 C   0  0  0  0  0  0  0  0  0  0  0  0
    0.3392    0.6380   14.9857 H   0  0  0  0  0  0  0  0  0  0  0  0
    1.4766    4.0178   13.4844 C   0  0  0  0  0  0  0  0  0  0  0  0
    1.9792    3.6016   14.7178 C   0  0  0  0  0  0  0  0  0  0  0  0
    2.6847    4.2194   15.2541 H   0  0  0  0  0  0  0  0  0  0  0  0
    1.5636    2.3922   15.2422 C   0  0  0  0  0  0  0  0  0  0  0  0
    1.9494    2.0619   16.1949 H   0  0  0  0  0  0  0  0  0  0  0  0
   -0.7639    1.2651   12.6176 O   0  0  0  0  0  0  0  0  0  0  0  0
    1.2716    6.5143   10.8403 C   0  0  0  0  0  0  0  0  0  0  0  0
   -0.3652    7.6154   12.4088 C   0  0  0  0  0  0  0  0  0  0  0  0
    0.1896    7.1576   13.2376 H   0  0  0  0  0  0  0  0  0  0  0  0
    0.5355    7.6561   11.1911 C   0  0  0  0  0  0  0  0  0  0  0  0
    2.0254    6.4538    9.6650 C   0  0  0  0  0  0  0  0  0  0  0  0
    0.6101    8.7542   10.3495 C   0  0  0  0  0  0  0  0  0  0  0  0
    0.0512    9.6473   10.5770 H   0  0  0  0  0  0  0  0  0  0  0  0
    1.3920    8.7257    9.2078 C   0  0  0  0  0  0  0  0  0  0  0  0
    1.4432    9.5987    8.5740 H   0  0  0  0  0  0  0  0  0  0  0  0
    2.0885    7.5836    8.8642 C   0  0  0  0  0  0  0  0  0  0  0  0
    2.6765    7.5703    7.9605 H   0  0  0  0  0  0  0  0  0  0  0  0
   -1.5838    6.7338   12.1106 C   0  0  0  0  0  0  0  0  0  0  0  0
   -2.1225    7.1148   11.2462 H   0  0  0  0  0  0  0  0  0  0  0  0
   -2.2549    6.7097   12.9667 H   0  0  0  0  0  0  0  0  0  0  0  0
   -1.2845    5.6951   11.8887 H   0  0  0  0  0  0  0  0  0  0  0  0
   -0.8246    8.9947   12.8770 C   0  0  0  0  0  0  0  0  0  0  0  0
    0.0253    9.6580   13.0231 H   0  0  0  0  0  0  0  0  0  0  0  0
   -1.3517    8.9003   13.8243 H   0  0  0  0  0  0  0  0  0  0  0  0
   -1.5058    9.4436   12.1585 H   0  0  0  0  0  0  0  0  0  0  0  0
    2.7551    5.1767    9.3197 C   0  0  0  0  0  0  0  0  0  0  0  0
    2.2696    4.3545    9.8725 H   0  0  0  0  0  0  0  0  0  0  0  0
    4.2114    5.2656    9.7803 C   0  0  0  0  0  0  0  0  0  0  0  0
    4.7177    6.0845    9.2730 H   0  0  0  0  0  0  0  0  0  0  0  0
    4.7371    4.3400    9.5549 H   0  0  0  0  0  0  0  0  0  0  0  0
    4.2672    5.4401   10.8534 H   0  0  0  0  0  0  0  0  0  0  0  0
   -0.3129    0.7693   10.0096 C   0  0  0  0  0  0  0  0  0  0  0  0
    0.6654    1.1728    9.1129 C   0  0  0  0  0  0  0  0  0  0  0  0
    0.9549    2.2171    9.0802 H   0  0  0  0  0  0  0  0  0  0  0  0
    1.2407    0.2463    8.2613 C   0  0  0  0  0  0  0  0  0  0  0  0
    1.9968    0.5576    7.5562 H   0  0  0  0  0  0  0  0  0  0  0  0
   -0.7123   -0.5606   10.0637 C   0  0  0  0  0  0  0  0  0  0  0  0
   -1.4711   -0.8611   10.7726 H   0  0  0  0  0  0  0  0  0  0  0  0
    0.8432   -1.0793    8.3130 C   0  0  0  0  0  0  0  0  0  0  0  0
    1.2913   -1.8030    7.6481 H   0  0  0  0  0  0  0  0  0  0  0  0
   -0.1301   -1.4828    9.2146 C   0  0  0  0  0  0  0  0  0  0  0  0
   -0.4353   -2.5184    9.2521 H   0  0  0  0  0  0  0  0  0  0  0  0
   -2.8155    1.6872   10.9424 C   0  0  0  0  0  0  0  0  0  0  0  0
   -3.3794    2.0466    9.7222 C   0  0  0  0  0  0  0  0  0  0  0  0
   -2.7554    2.5002    8.9647 H   0  0  0  0  0  0  0  0  0  0  0  0
   -3.6035    1.1406   11.9465 C   0  0  0  0  0  0  0  0  0  0  0  0
   -3.1588    0.8784   12.8952 H   0  0  0  0  0  0  0  0  0  0  0  0
   -4.7284    1.8401    9.5052 C   0  0  0  0  0  0  0  0  0  0  0  0
   -5.1707    2.1198    8.5607 H   0  0  0  0  0  0  0  0  0  0  0  0
   -5.5143    1.2808   10.5015 C   0  0  0  0  0  0  0  0  0  0  0  0
   -6.5691    1.1223   10.3312 H   0  0  0  0  0  0  0  0  0  0  0  0
   -4.9528    0.9339   11.7193 C   0  0  0  0  0  0  0  0  0  0  0  0
   -5.5685    0.5046   12.4964 H   0  0  0  0  0  0  0  0  0  0  0  0
    2.6646    4.8388    7.8335 C   0  0  0  0  0  0  0  0  0  0  0  0
    1.6232    4.8376    7.5214 H   0  0  0  0  0  0  0  0  0  0  0  0
    3.0837    3.8501    7.6550 H   0  0  0  0  0  0  0  0  0  0  0  0
    3.2161    5.5520    7.2264 H   0  0  0  0  0  0  0  0  0  0  0  0
  1  3  1  1  0  0  0
  1  5  1  0  0  0  0
  1  4  2  0  0  0  0
  2  1  1  0  0  0  0
  2 16  1  0  0  0  0
  4  8  1  0  0  0  0
  4 11  1  0  0  0  0
  5  6  1  0  0  0  0
  6  7  1  0  0  0  0
  6 11  2  0  0  0  0
  8  9  2  0  0  0  0
  9 10  1  0  0  0  0
  9 14  1  0  0  0  0
 11 12  1  0  0  0  0
 12 14  2  0  0  0  0
 12 13  1  0  0  0  0
 14 15  1  0  0  0  0
 16  8  1  0  0  0  0
 17 20  1  0  0  0  0
 17  5  1  0  0  0  0
 18 32  1  0  0  0  0
 18 19  1  0  0  0  0
 20 18  1  0  0  0  0
 21 17  2  0  0  0  0
 22 23  1  0  0  0  0
 22 20  2  0  0  0  0
 24 22  1  0  0  0  0
 25 24  1  0  0  0  0
 26 24  2  0  0  0  0
 26 21  1  0  0  0  0
 27 26  1  0  0  0  0
 28 18  1  0  0  0  0
 28 30  1  0  0  0  0
 29 28  1  0  0  0  0
 31 28  1  0  0  0  0
 32 33  1  0  0  0  0
 32 34  1  0  0  0  0
 35 32  1  0  0  0  0
 36 21  1  0  0  0  0
 36 38  1  0  0  0  0
 36 37  1  0  0  0  0
 38 41  1  0  0  0  0
 39 38  1  0  0  0  0
 40 38  1  0  0  0  0
 42 47  1  0  0  0  0
 42  2  1  0  0  0  0
 43 42  2  0  0  0  0
 44 43  1  0  0  0  0
 45 49  2  0  0  0  0
 45 43  1  0  0  0  0
 46 45  1  0  0  0  0
 47 48  1  0  0  0  0
 49 51  1  0  0  0  0
 50 49  1  0  0  0  0
 51 52  1  0  0  0  0
 51 47  2  0  0  0  0
 53  2  1  0  0  0  0
 53 56  1  0  0  0  0
 54 53  2  0  0  0  0
 55 54  1  0  0  0  0
 56 57  1  0  0  0  0
 58 54  1  0  0  0  0
 58 60  2  0  0  0  0
 59 58  1  0  0  0  0
 60 62  1  0  0  0  0
 61 60  1  0  0  0  0
 62 56  2  0  0  0  0
 62 63  1  0  0  0  0
 64 36  1  0  0  0  0
 65 64  1  0  0  0  0
 66 64  1  0  0  0  0
 67 64  1  0  0  0  0
M  END
$$$$
