CSD_code = IRIJOK | q = 0 | S = 0 | Stoichiometry = C5H10Cl4O2W | MND = 6
 OpenBabel04212202053D

 22 21  0  0  0  0  0  0  0  0999 V2000
    1.9451    3.7947    8.2442 W   0  0  0  0  0  0  0  0  0  0  0  0
    0.0996    3.0782    9.4403 Cl  0  0  0  0  0  0  0  0  0  0  0  0
    3.1178    3.9697   10.2324 Cl  0  0  0  0  0  0  0  0  0  0  0  0
    0.9664    2.9160    6.3418 Cl  0  0  0  0  0  0  0  0  0  0  0  0
    3.9808    3.8106    7.1414 Cl  0  0  0  0  0  0  0  0  0  0  0  0
    1.5507    5.3959    8.0531 O   0  0  0  0  0  1  0  0  0  0  0  0
    2.4688    1.5691    8.5065 O   0  0  0  0  0  0  0  0  0  0  0  0
    2.4662    0.8660    9.7642 C   0  0  0  0  0  0  0  0  0  0  0  0
    1.9261   -0.0799    9.6233 H   0  0  0  0  0  0  0  0  0  0  0  0
    1.9171    1.4876   10.4783 H   0  0  0  0  0  0  0  0  0  0  0  0
    3.8891    0.6039   10.2477 C   0  0  0  0  0  0  0  0  0  0  0  0
    3.8476    0.0874   11.2060 H   0  0  0  0  0  0  0  0  0  0  0  0
    4.3911    1.5625   10.3930 H   0  0  0  0  0  0  0  0  0  0  0  0
    4.6413   -0.2262    9.2108 C   0  0  0  0  0  0  0  0  0  0  0  0
    5.6811   -0.3519    9.5112 H   0  0  0  0  0  0  0  0  0  0  0  0
    4.1899   -1.2182    9.1326 H   0  0  0  0  0  0  0  0  0  0  0  0
    4.5632    0.4850    7.8625 C   0  0  0  0  0  0  0  0  0  0  0  0
    5.0905    1.4397    7.9136 H   0  0  0  0  0  0  0  0  0  0  0  0
    5.0163   -0.1177    7.0762 H   0  0  0  0  0  0  0  0  0  0  0  0
    3.1045    0.7513    7.5048 C   0  0  0  0  0  0  0  0  0  0  0  0
    3.0243    1.2876    6.5542 H   0  0  0  0  0  0  0  0  0  0  0  0
    2.5466   -0.1920    7.4323 H   0  0  0  0  0  0  0  0  0  0  0  0
  1  2  1  0  0  0  0
  1  3  1  0  0  0  0
  4  1  1  0  0  0  0
  5  1  1  0  0  0  0
  6  1  1  0  0  0  0
  7  8  1  0  0  0  0
  8 11  1  0  0  0  0
  8 10  1  0  0  0  0
  9  8  1  0  0  0  0
 11 13  1  0  0  0  0
 11 12  1  0  0  0  0
 14 15  1  0  0  0  0
 14 11  1  0  0  0  0
 16 14  1  0  0  0  0
 17 18  1  0  0  0  0
 17 14  1  0  0  0  0
 19 17  1  0  0  0  0
 20 17  1  0  0  0  0
 20  7  1  0  0  0  0
 21 20  1  0  0  0  0
 22 20  1  0  0  0  0
M  END
$$$$
