CSD_code = IRIVIQ | q = 0 | S = 0 | Stoichiometry = C20H23Cl2N2OPPdS | MND = 4
 OpenBabel04212202053D

 51 54  0  0  1  0  0  0  0  0999 V2000
    6.4186    5.3449    7.5695 Pd  0  0  0  0  0  0  0  0  0  0  0  0
    6.1130    6.7197    5.8192 Cl  0  0  0  0  0  0  0  0  0  0  0  0
    8.3609    6.3233    8.2535 Cl  0  0  0  0  0  0  0  0  0  0  0  0
    5.5747    3.1244   11.3291 S   0  0  0  0  0  0  0  0  0  0  0  0
    4.6364    4.2315    6.8312 P   0  0  2  0  0  4  0  0  0  0  0  0
    3.7364    4.9510    5.7435 O   0  0  0  0  0  0  0  0  0  0  0  0
    4.2386    5.7555    5.4608 H   0  0  0  0  0  0  0  0  0  0  0  0
    6.4791    4.1625    9.2000 N   0  0  0  0  0  0  0  0  0  0  0  0
    3.6468    3.8669    8.1605 N   0  0  0  0  0  0  0  0  0  0  0  0
    7.2504    2.9690   10.9735 C   0  0  0  0  0  0  0  0  0  0  0  0
    7.9036    2.4460   11.6409 H   0  0  0  0  0  0  0  0  0  0  0  0
    7.5459    3.5844    9.8025 C   0  0  0  0  0  0  0  0  0  0  0  0
    8.5179    3.6720    9.3457 H   0  0  0  0  0  0  0  0  0  0  0  0
    5.3687    4.0234    9.8683 C   0  0  1  0  0  3  0  0  0  0  0  0
    4.0465    4.5532    9.3948 C   0  0  1  0  0  0  0  0  0  0  0  0
    3.2832    4.3561   10.1575 H   0  0  0  0  0  0  0  0  0  0  0  0
    4.1123    6.0548    9.1168 C   0  0  0  0  0  0  0  0  0  0  0  0
    5.1494    6.8648    9.5966 C   0  0  0  0  0  0  0  0  0  0  0  0
    5.8839    6.4832   10.3005 H   0  0  0  0  0  0  0  0  0  0  0  0
    5.2147    8.2005    9.2223 C   0  0  0  0  0  0  0  0  0  0  0  0
    6.0338    8.8079    9.5774 H   0  0  0  0  0  0  0  0  0  0  0  0
    4.2457    8.7446    8.3949 C   0  0  0  0  0  0  0  0  0  0  0  0
    4.3163    9.7759    8.0857 H   0  0  0  0  0  0  0  0  0  0  0  0
    3.1832    7.9635    7.9748 C   0  0  0  0  0  0  0  0  0  0  0  0
    2.4106    8.3868    7.3513 H   0  0  0  0  0  0  0  0  0  0  0  0
    3.1144    6.6279    8.3334 C   0  0  0  0  0  0  0  0  0  0  0  0
    2.2874    6.0205    7.9942 H   0  0  0  0  0  0  0  0  0  0  0  0
    2.6097    2.9227    8.1927 C   0  0  0  0  0  0  0  0  0  0  0  0
    2.4437    2.0512    9.2666 C   0  0  0  0  0  0  0  0  0  0  0  0
    3.1318    2.0733   10.0997 H   0  0  0  0  0  0  0  0  0  0  0  0
    1.4015    1.1412    9.2659 C   0  0  0  0  0  0  0  0  0  0  0  0
    1.2834    0.4709   10.1042 H   0  0  0  0  0  0  0  0  0  0  0  0
    0.5228    1.0803    8.1984 C   0  0  0  0  0  0  0  0  0  0  0  0
   -0.2858    0.3657    8.2019 H   0  0  0  0  0  0  0  0  0  0  0  0
    0.6864    1.9450    7.1285 C   0  0  0  0  0  0  0  0  0  0  0  0
    0.0012    1.9106    6.2948 H   0  0  0  0  0  0  0  0  0  0  0  0
    1.7166    2.8662    7.1261 C   0  0  0  0  0  0  0  0  0  0  0  0
    1.8389    3.5579    6.3078 H   0  0  0  0  0  0  0  0  0  0  0  0
    5.1610    2.6275    6.0079 C   0  0  0  0  0  0  0  0  0  0  0  0
    4.1058    2.0327    5.0827 C   0  0  0  0  0  0  0  0  0  0  0  0
    4.5575    1.2596    4.4625 H   0  0  0  0  0  0  0  0  0  0  0  0
    3.6950    2.7981    4.4279 H   0  0  0  0  0  0  0  0  0  0  0  0
    3.2942    1.5844    5.6503 H   0  0  0  0  0  0  0  0  0  0  0  0
    6.3844    3.0703    5.1936 C   0  0  0  0  0  0  0  0  0  0  0  0
    6.8256    2.2214    4.6735 H   0  0  0  0  0  0  0  0  0  0  0  0
    7.1565    3.5139    5.8495 H   0  0  0  0  0  0  0  0  0  0  0  0
    6.0973    3.8185    4.4525 H   0  0  0  0  0  0  0  0  0  0  0  0
    5.5886    1.6236    7.0733 C   0  0  0  0  0  0  0  0  0  0  0  0
    5.9819    0.7249    6.6007 H   0  0  0  0  0  0  0  0  0  0  0  0
    4.7482    1.3360    7.7039 H   0  0  0  0  0  0  0  0  0  0  0  0
    6.3756    2.0471    7.6995 H   0  0  0  0  0  0  0  0  0  0  0  0
  1  3  1  0  0  0  0
  1  8  1  0  0  0  0
  2  1  1  0  0  0  0
  5  6  1  6  0  0  0
  5  1  1  0  0  0  0
  5  9  1  0  0  0  0
  7  6  1  0  0  0  0
  8 12  1  0  0  0  0
  8 14  1  0  0  0  0
  9 28  1  0  0  0  0
  9 15  1  0  0  0  0
 10  4  1  0  0  0  0
 10 11  1  0  0  0  0
 12 10  2  0  0  0  0
 13 12  1  0  0  0  0
 14  4  1  6  0  0  0
 15 14  1  0  0  0  0
 15 16  1  1  0  0  0
 17 15  1  0  0  0  0
 17 18  1  0  0  0  0
 18 19  1  0  0  0  0
 20 21  1  0  0  0  0
 20 18  2  0  0  0  0
 22 20  1  0  0  0  0
 23 22  1  0  0  0  0
 24 26  1  0  0  0  0
 24 22  2  0  0  0  0
 25 24  1  0  0  0  0
 26 17  2  0  0  0  0
 27 26  1  0  0  0  0
 28 29  1  0  0  0  0
 29 30  1  0  0  0  0
 31 29  2  0  0  0  0
 31 32  1  0  0  0  0
 33 34  1  0  0  0  0
 33 31  1  0  0  0  0
 35 33  2  0  0  0  0
 36 35  1  0  0  0  0
 37 35  1  0  0  0  0
 37 28  2  0  0  0  0
 38 37  1  0  0  0  0
 39  5  1  0  0  0  0
 39 48  1  0  0  0  0
 40 43  1  0  0  0  0
 40 39  1  0  0  0  0
 41 40  1  0  0  0  0
 42 40  1  0  0  0  0
 44 46  1  0  0  0  0
 44 39  1  0  0  0  0
 45 44  1  0  0  0  0
 47 44  1  0  0  0  0
 48 51  1  0  0  0  0
 48 50  1  0  0  0  0
 49 48  1  0  0  0  0
M  END
$$$$
