CSD_code = IRIWAJ | q = 0 | S = 0 | Stoichiometry = C27H23CdCl2N3O4 | MND = 7
 OpenBabel04212202053D

 60 66  0  0  1  0  0  0  0  0999 V2000
    2.9163    9.1342   12.7151 Cd  0  0  0  0  0  0  0  0  0  0  0  0
   -1.2497   10.6921    7.4832 C   0  0  0  0  0  0  0  0  0  0  0  0
   -1.0269   10.5477    6.4169 H   0  0  0  0  0  0  0  0  0  0  0  0
   -1.9729    9.9283    7.7849 H   0  0  0  0  0  0  0  0  0  0  0  0
    0.0238   10.5496    8.2806 C   0  0  2  0  0  3  0  0  0  0  0  0
    1.2184   10.3109    7.6537 C   0  0  0  0  0  0  0  0  0  0  0  0
    1.2460   10.2095    6.5781 H   0  0  0  0  0  0  0  0  0  0  0  0
    2.4219   10.1941    8.3603 C   0  0  0  0  0  0  0  0  0  0  0  0
    3.3261   10.0121    7.8021 H   0  0  0  0  0  0  0  0  0  0  0  0
    2.4465   10.3102    9.7298 C   0  0  0  0  0  0  0  0  0  0  0  0
    1.2157   10.5044   10.4257 C   0  0  0  0  0  0  0  0  0  0  0  0
    0.0060   10.6544    9.6954 C   0  0  0  0  0  0  0  0  0  0  0  0
   -1.1690   10.8877   10.4416 C   0  0  0  0  0  0  0  0  0  0  0  0
   -2.1039   11.0415    9.9256 H   0  0  0  0  0  0  0  0  0  0  0  0
   -1.1039   10.9330   11.8087 C   0  0  0  0  0  0  0  0  0  0  0  0
   -1.9840   11.1197   12.4043 H   0  0  0  0  0  0  0  0  0  0  0  0
    0.1296   10.7089   12.4366 C   0  0  0  0  0  0  0  0  0  0  0  0
    0.2118   10.7111   13.5182 H   0  0  0  0  0  0  0  0  0  0  0  0
    4.6944    9.6186    9.9676 C   0  0  0  0  0  0  0  0  0  0  0  0
    5.1630   10.1995    9.1611 H   0  0  0  0  0  0  0  0  0  0  0  0
    4.3629    8.6397    9.5838 H   0  0  0  0  0  0  0  0  0  0  0  0
    5.7044    9.3681   11.0563 C   0  0  2  0  0  3  0  0  0  0  0  0
    7.0639    9.3627   10.7588 C   0  0  0  0  0  0  0  0  0  0  0  0
    7.4035    9.5736    9.7569 H   0  0  0  0  0  0  0  0  0  0  0  0
    7.9660    9.0810   11.7697 C   0  0  0  0  0  0  0  0  0  0  0  0
    9.0270    9.0678   11.5705 H   0  0  0  0  0  0  0  0  0  0  0  0
    7.4853    8.8165   13.0401 C   0  0  0  0  0  0  0  0  0  0  0  0
    8.1599    8.5925   13.8515 H   0  0  0  0  0  0  0  0  0  0  0  0
    6.1107    8.8453   13.2558 C   0  0  0  0  0  0  0  0  0  0  0  0
    5.5580    8.6138   14.6374 C   0  0  0  0  0  0  0  0  0  0  0  0
    6.2748    8.0218   15.2233 H   0  0  0  0  0  0  0  0  0  0  0  0
    5.4091    9.5987   15.1100 H   0  0  0  0  0  0  0  0  0  0  0  0
    3.5327    7.9810   15.6770 C   0  0  0  0  0  0  0  0  0  0  0  0
    4.0050    8.1078   16.9606 C   0  0  0  0  0  0  0  0  0  0  0  0
    5.0550    8.2561   17.1554 H   0  0  0  0  0  0  0  0  0  0  0  0
    3.1304    8.0519   18.0526 C   0  0  0  0  0  0  0  0  0  0  0  0
    3.5434    8.1469   19.0462 H   0  0  0  0  0  0  0  0  0  0  0  0
    1.7831    7.8564   17.9017 C   0  0  0  0  0  0  0  0  0  0  0  0
    1.2566    7.7149   16.5920 C   0  0  0  0  0  0  0  0  0  0  0  0
    2.1304    7.8131   15.4736 C   0  0  1  0  0  3  0  0  0  0  0  0
   -0.1074    7.4866   16.3111 C   0  0  0  0  0  0  0  0  0  0  0  0
   -0.8105    7.3708   17.1218 H   0  0  0  0  0  0  0  0  0  0  0  0
   -0.5327    7.4054   15.0117 C   0  0  0  0  0  0  0  0  0  0  0  0
   -1.5686    7.2205   14.7728 H   0  0  0  0  0  0  0  0  0  0  0  0
    0.4002    7.5903   13.9815 C   0  0  0  0  0  0  0  0  0  0  0  0
    0.0943    7.5630   12.9415 H   0  0  0  0  0  0  0  0  0  0  0  0
    0.8727    7.8071   19.1086 C   0  0  0  0  0  0  0  0  0  0  0  0
   -0.0148    8.4314   18.9244 H   0  0  0  0  0  0  0  0  0  0  0  0
    0.5369    6.7777   19.2763 H   0  0  0  0  0  0  0  0  0  0  0  0
    2.4400    7.4989   10.9788 Cl  0  0  0  0  0  0  0  0  0  0  0  0
    3.1132   10.7795   14.5004 Cl  0  0  0  0  0  0  0  0  0  0  0  0
    1.2394   10.5030   11.7736 N   0  0  0  0  0  0  0  0  0  0  0  0
    5.2542    9.1153   12.2788 N   0  0  0  0  0  0  0  0  0  0  0  0
    1.6744    7.7851   14.2058 N   0  0  0  0  0  0  0  0  0  0  0  0
   -1.9062   11.9276    7.6838 O   0  0  0  0  0  0  0  0  0  0  0  0
   -1.3017   12.6410    7.4522 H   0  0  0  0  0  0  0  0  0  0  0  0
    3.5719   10.3021   10.4888 O   0  0  0  0  0  0  0  0  0  0  0  0
    4.3098    7.9549   14.5622 O   0  0  0  0  0  0  0  0  0  0  0  0
    1.4914    8.1956   20.3074 O   0  0  0  0  0  0  0  0  0  0  0  0
    1.7884    9.1084   20.2176 H   0  0  0  0  0  0  0  0  0  0  0  0
  1 54  1  0  0  0  0
  1 51  1  0  0  0  0
  2 55  1  0  0  0  0
  2  4  1  0  0  0  0
  3  2  1  0  0  0  0
  5  2  1  1  0  0  0
  5 12  1  0  0  0  0
  6  5  1  0  0  0  0
  6  8  2  0  0  0  0
  7  6  1  0  0  0  0
  8 10  1  0  0  0  0
  9  8  1  0  0  0  0
 10 11  2  0  0  0  0
 10 57  1  0  0  0  0
 11 52  1  0  0  0  0
 12 11  1  0  0  0  0
 12 13  2  0  0  0  0
 13 15  1  0  0  0  0
 14 13  1  0  0  0  0
 15 16  1  0  0  0  0
 15 17  2  0  0  0  0
 17 18  1  0  0  0  0
 19 57  1  0  0  0  0
 19 22  1  0  0  0  0
 20 19  1  0  0  0  0
 21 19  1  0  0  0  0
 22 23  1  6  0  0  0
 22 53  1  0  0  0  0
 23 25  2  0  0  0  0
 24 23  1  0  0  0  0
 25 27  1  0  0  0  0
 26 25  1  0  0  0  0
 27 29  2  0  0  0  0
 27 28  1  0  0  0  0
 29 30  1  0  0  0  0
 30 32  1  0  0  0  0
 30 31  1  0  0  0  0
 33 34  2  0  0  0  0
 34 35  1  0  0  0  0
 34 36  1  0  0  0  0
 36 37  1  0  0  0  0
 38 36  2  0  0  0  0
 38 47  1  0  0  0  0
 39 38  1  0  0  0  0
 40 33  1  1  0  0  0
 40 39  1  0  0  0  0
 41 39  2  0  0  0  0
 41 42  1  0  0  0  0
 43 41  1  0  0  0  0
 44 43  1  0  0  0  0
 45 54  1  0  0  0  0
 45 43  2  0  0  0  0
 46 45  1  0  0  0  0
 47 49  1  0  0  0  0
 47 59  1  0  0  0  0
 48 47  1  0  0  0  0
 50  1  1  0  0  0  0
 52 17  1  0  0  0  0
 52  1  1  0  0  0  0
 53  1  1  0  0  0  0
 53 29  1  0  0  0  0
 54 40  1  0  0  0  0
 56 55  1  0  0  0  0
 58 30  1  0  0  0  0
 58 33  1  0  0  0  0
 60 59  1  0  0  0  0
M  END
$$$$
