CSD_code = IROCAT | q = 0 | S = 0 | Stoichiometry = C21H20Cl2OTi | MND = 8
 OpenBabel04212202053D

 45 49  0  0  1  0  0  0  0  0999 V2000
   16.4370    3.9094    4.8949 Ti  0  0  0  0  0  0  0  0  0  0  0  0
   15.4243    2.0779    5.4496 Cl  0  0  0  0  0  0  0  0  0  0  0  0
   15.3804    4.3322    3.0489 Cl  0  0  0  0  0  0  0  0  0  0  0  0
   17.9647    3.3503    4.3327 O   0  0  0  0  0  0  0  0  0  0  0  0
   17.8807    5.2604    6.0291 C   0  0  2  0  0  3  0  0  0  0  0  0
   17.1317    4.5002    6.9714 C   0  0  1  0  0  0  0  0  0  0  0  0
   15.7657    4.8864    6.8566 C   0  0  0  0  0  0  0  0  0  0  0  0
   15.6670    5.8552    5.8165 C   0  0  0  0  0  0  0  0  0  0  0  0
   16.9746    6.0748    5.2926 C   0  0  2  0  0  0  0  0  0  0  0  0
   19.2280    4.8958    5.5379 C   0  0  0  0  0  0  0  0  0  0  0  0
   19.1673    3.8616    4.5748 C   0  0  0  0  0  0  0  0  0  0  0  0
   20.3364    3.4158    3.9379 C   0  0  0  0  0  0  0  0  0  0  0  0
   21.5447    4.0022    4.3124 C   0  0  0  0  0  0  0  0  0  0  0  0
   22.4509    3.6806    3.8212 H   0  0  0  0  0  0  0  0  0  0  0  0
   21.6029    4.9973    5.2703 C   0  0  0  0  0  0  0  0  0  0  0  0
   22.5548    5.4321    5.5343 H   0  0  0  0  0  0  0  0  0  0  0  0
   20.4434    5.4548    5.8830 C   0  0  0  0  0  0  0  0  0  0  0  0
   20.4815    6.2449    6.6181 H   0  0  0  0  0  0  0  0  0  0  0  0
   20.2631    2.3748    2.9017 C   0  0  0  0  0  0  0  0  0  0  0  0
   19.2159    2.3666    1.9803 C   0  0  0  0  0  0  0  0  0  0  0  0
   18.4573    3.1400    2.0155 H   0  0  0  0  0  0  0  0  0  0  0  0
   19.1471    1.3843    1.0098 C   0  0  0  0  0  0  0  0  0  0  0  0
   18.3316    1.3895    0.3016 H   0  0  0  0  0  0  0  0  0  0  0  0
   20.1174    0.3982    0.9431 C   0  0  0  0  0  0  0  0  0  0  0  0
   20.0592   -0.3698    0.1859 H   0  0  0  0  0  0  0  0  0  0  0  0
   21.1612    0.3991    1.8533 C   0  0  0  0  0  0  0  0  0  0  0  0
   21.9183   -0.3704    1.8087 H   0  0  0  0  0  0  0  0  0  0  0  0
   21.2352    1.3795    2.8248 C   0  0  0  0  0  0  0  0  0  0  0  0
   22.0400    1.3636    3.5455 H   0  0  0  0  0  0  0  0  0  0  0  0
   17.6986    3.5192    7.9541 C   0  0  0  0  0  0  0  0  0  0  0  0
   18.7473    3.3241    7.7280 H   0  0  0  0  0  0  0  0  0  0  0  0
   17.1487    2.5762    7.9165 H   0  0  0  0  0  0  0  0  0  0  0  0
   17.6299    3.9130    8.9703 H   0  0  0  0  0  0  0  0  0  0  0  0
   14.6643    4.4437    7.7733 C   0  0  0  0  0  0  0  0  0  0  0  0
   13.6907    4.5530    7.2977 H   0  0  0  0  0  0  0  0  0  0  0  0
   14.6710    5.0485    8.6832 H   0  0  0  0  0  0  0  0  0  0  0  0
   14.7950    3.3993    8.0550 H   0  0  0  0  0  0  0  0  0  0  0  0
   14.4377    6.6225    5.4266 C   0  0  0  0  0  0  0  0  0  0  0  0
   13.5403    6.0170    5.5551 H   0  0  0  0  0  0  0  0  0  0  0  0
   14.4958    6.9345    4.3843 H   0  0  0  0  0  0  0  0  0  0  0  0
   14.3400    7.5154    6.0488 H   0  0  0  0  0  0  0  0  0  0  0  0
   17.3523    7.0469    4.2138 C   0  0  0  0  0  0  0  0  0  0  0  0
   18.3983    6.9121    3.9374 H   0  0  0  0  0  0  0  0  0  0  0  0
   17.2146    8.0734    4.5602 H   0  0  0  0  0  0  0  0  0  0  0  0
   16.7323    6.8992    3.3270 H   0  0  0  0  0  0  0  0  0  0  0  0
  1  9  1  0  0  0  0
  1  2  1  0  0  0  0
  1  6  1  0  0  0  0
  3  1  1  0  0  0  0
  4 11  1  0  0  0  0
  4  1  1  0  0  0  0
  5 10  1  6  0  0  0
  5  6  1  0  0  0  0
  6 30  1  1  0  0  0
  7  6  1  0  0  0  0
  7 34  1  0  0  0  0
  8  7  2  0  0  0  0
  9 42  1  6  0  0  0
  9  8  1  0  0  0  0
  9  5  1  0  0  0  0
 10 17  1  0  0  0  0
 11 10  2  0  0  0  0
 12 13  2  0  0  0  0
 12 11  1  0  0  0  0
 13 15  1  0  0  0  0
 14 13  1  0  0  0  0
 15 16  1  0  0  0  0
 15 17  2  0  0  0  0
 17 18  1  0  0  0  0
 19 12  1  0  0  0  0
 20 21  1  0  0  0  0
 20 19  2  0  0  0  0
 22 20  1  0  0  0  0
 23 22  1  0  0  0  0
 24 22  2  0  0  0  0
 24 26  1  0  0  0  0
 25 24  1  0  0  0  0
 26 28  2  0  0  0  0
 27 26  1  0  0  0  0
 28 19  1  0  0  0  0
 28 29  1  0  0  0  0
 30 33  1  0  0  0  0
 31 30  1  0  0  0  0
 32 30  1  0  0  0  0
 34 37  1  0  0  0  0
 34 36  1  0  0  0  0
 35 34  1  0  0  0  0
 38 39  1  0  0  0  0
 38  8  1  0  0  0  0
 38 41  1  0  0  0  0
 40 38  1  0  0  0  0
 42 44  1  0  0  0  0
 43 42  1  0  0  0  0
 45 42  1  0  0  0  0
M  END
$$$$
