CSD_code = IROWIW | q = 0 | S = 0 | Stoichiometry = C25H20Cl2N5ORh | MND = 6
 OpenBabel04212202053D

 54 59  0  0  1  0  0  0  0  0999 V2000
    2.0083   -1.0369   12.5967 C   0  0  0  0  0  0  0  0  0  0  0  0
    3.3278   -1.1882   12.1638 C   0  0  0  0  0  0  0  0  0  0  0  0
    3.9708   -0.3199   12.1268 H   0  0  0  0  0  0  0  0  0  0  0  0
    3.7956   -2.4401   11.8188 C   0  0  0  0  0  0  0  0  0  0  0  0
    4.8169   -2.5603   11.4889 H   0  0  0  0  0  0  0  0  0  0  0  0
    2.9596   -3.5440   11.8958 C   0  0  0  0  0  0  0  0  0  0  0  0
    3.3277   -4.5201   11.6167 H   0  0  0  0  0  0  0  0  0  0  0  0
    1.6496   -3.3964   12.3296 C   0  0  0  0  0  0  0  0  0  0  0  0
    1.0002   -4.2574   12.3862 H   0  0  0  0  0  0  0  0  0  0  0  0
    1.1696   -2.1532   12.6846 C   0  0  0  0  0  0  0  0  0  0  0  0
    0.1516   -2.0143   13.0139 H   0  0  0  0  0  0  0  0  0  0  0  0
    0.0827    1.5659   13.9249 C   0  0  0  0  0  0  0  0  0  0  0  0
   -1.0203    1.9764   14.6793 C   0  0  0  0  0  0  0  0  0  0  0  0
   -1.6159    1.2537   15.2147 H   0  0  0  0  0  0  0  0  0  0  0  0
   -1.3415    3.3293   14.7126 C   0  0  0  0  0  0  0  0  0  0  0  0
   -2.1965    3.6364   15.2972 H   0  0  0  0  0  0  0  0  0  0  0  0
   -0.6365    4.3059   14.0162 C   0  0  0  0  0  0  0  0  0  0  0  0
   -0.9443    5.3392   14.0505 H   0  0  0  0  0  0  0  0  0  0  0  0
    0.4722    3.9214   13.2573 C   0  0  0  0  0  0  0  0  0  0  0  0
    2.9654    4.7014   10.9250 C   0  0  0  0  0  0  0  0  0  0  0  0
    4.3323    4.4266   10.8409 C   0  0  0  0  0  0  0  0  0  0  0  0
    4.7814    3.7535   11.5575 H   0  0  0  0  0  0  0  0  0  0  0  0
    5.0915    5.0389    9.8637 C   0  0  0  0  0  0  0  0  0  0  0  0
    6.1488    4.8290    9.7983 H   0  0  0  0  0  0  0  0  0  0  0  0
    4.5004    5.9179    8.9681 C   0  0  0  0  0  0  0  0  0  0  0  0
    5.0973    6.3849    8.1988 H   0  0  0  0  0  0  0  0  0  0  0  0
    3.1465    6.2039    9.0629 C   0  0  0  0  0  0  0  0  0  0  0  0
    2.6902    6.8943    8.3691 H   0  0  0  0  0  0  0  0  0  0  0  0
    2.3761    5.6080   10.0412 C   0  0  0  0  0  0  0  0  0  0  0  0
    1.3181    5.8037   10.1254 H   0  0  0  0  0  0  0  0  0  0  0  0
    5.4907    1.5817    8.9275 C   0  0  0  0  0  0  0  0  0  0  0  0
    6.4026    0.7590    9.5831 C   0  0  0  0  0  0  0  0  0  0  0  0
    6.0767    0.2147   10.4561 H   0  0  0  0  0  0  0  0  0  0  0  0
    7.6995    0.6457    9.1190 C   0  0  0  0  0  0  0  0  0  0  0  0
    8.3998    0.0003    9.6276 H   0  0  0  0  0  0  0  0  0  0  0  0
    8.1011    1.3657    8.0057 C   0  0  0  0  0  0  0  0  0  0  0  0
    9.1146    1.2808    7.6429 H   0  0  0  0  0  0  0  0  0  0  0  0
    7.2046    2.2038    7.3625 C   0  0  0  0  0  0  0  0  0  0  0  0
    7.5224    2.7769    6.5040 H   0  0  0  0  0  0  0  0  0  0  0  0
    5.9026    2.3122    7.8166 C   0  0  0  0  0  0  0  0  0  0  0  0
    5.2201    2.9905    7.3250 H   0  0  0  0  0  0  0  0  0  0  0  0
    1.5568    0.2333   12.9262 N   0  0  0  0  0  0  0  0  0  0  0  0
    0.5289    0.2933   13.6863 N   0  0  0  0  0  2  0  0  0  0  0  0
    1.2526    4.6843   12.4273 N   0  0  0  0  0  2  0  0  0  0  0  0
    2.2003    4.0303   11.8733 N   0  0  0  0  0  0  0  0  0  0  0  0
    4.1092    1.6806    9.4698 C   0  0  1  0  0  3  0  0  0  0  0  0
    3.1254    1.9730    8.6185 N   0  0  0  0  0  0  0  0  0  0  0  0
    2.1717    2.0004    8.9945 H   0  0  0  0  0  0  0  0  0  0  0  0
    3.2780    2.0482    7.6292 H   0  0  0  0  0  0  0  0  0  0  0  0
    3.9095    1.4879   10.6711 O   0  0  0  0  0  0  0  0  0  0  0  0
    0.8116    2.5653   13.2761 C   0  0  0  0  0  0  0  0  0  0  0  0
    0.6667    1.8118   10.4332 Cl  0  0  0  0  0  0  0  0  0  0  0  0
    3.8286    2.1635   13.7711 Cl  0  0  0  0  0  0  0  0  0  0  0  0
    2.2344    2.0253   12.1675 Rh  0  0  0  0  0  0  0  0  0  0  0  0
  1 10  1  0  0  0  0
  1 42  1  0  0  0  0
  2  1  2  0  0  0  0
  3  2  1  0  0  0  0
  4  6  2  0  0  0  0
  4  2  1  0  0  0  0
  5  4  1  0  0  0  0
  6  8  1  0  0  0  0
  7  6  1  0  0  0  0
  8  9  1  0  0  0  0
  8 10  2  0  0  0  0
 10 11  1  0  0  0  0
 12 13  1  0  0  0  0
 13 15  2  0  0  0  0
 13 14  1  0  0  0  0
 15 16  1  0  0  0  0
 17 18  1  0  0  0  0
 17 15  1  0  0  0  0
 19 51  1  0  0  0  0
 19 17  2  0  0  0  0
 20 45  1  0  0  0  0
 21 20  1  0  0  0  0
 21 22  1  0  0  0  0
 23 21  2  0  0  0  0
 24 23  1  0  0  0  0
 25 27  2  0  0  0  0
 25 23  1  0  0  0  0
 26 25  1  0  0  0  0
 27 29  1  0  0  0  0
 28 27  1  0  0  0  0
 29 30  1  0  0  0  0
 29 20  2  0  0  0  0
 31 46  1  0  0  0  0
 31 32  1  0  0  0  0
 32 33  1  0  0  0  0
 34 32  2  0  0  0  0
 34 35  1  0  0  0  0
 36 34  1  0  0  0  0
 37 36  1  0  0  0  0
 38 40  1  0  0  0  0
 38 36  2  0  0  0  0
 39 38  1  0  0  0  0
 40 31  2  0  0  0  0
 41 40  1  0  0  0  0
 42 43  1  0  0  0  0
 43 12  1  0  0  0  0
 44 19  1  0  0  0  0
 45 54  1  0  0  0  0
 45 44  1  0  0  0  0
 46 50  1  6  0  0  0
 47 48  1  0  0  0  0
 47 46  1  0  0  0  0
 49 47  1  0  0  0  0
 50 54  1  0  0  0  0
 51 12  2  0  0  0  0
 52 54  1  0  0  0  0
 54 42  1  0  0  0  0
 54 51  1  0  0  0  0
 54 53  1  0  0  0  0
M  END
$$$$
