CSD_code = IROXAP | q = 0 | S = 0 | Stoichiometry = C18H13Cl2N4ORh | MND = 6
 OpenBabel04212202053D

 39 43  0  0  0  0  0  0  0  0999 V2000
   16.6486    8.6217    9.5401 Rh  0  0  0  0  0  0  0  0  0  0  0  0
   18.2966    8.5565    7.8556 Cl  0  0  0  0  0  0  0  0  0  0  0  0
   16.6487    6.8775    9.5397 O   0  0  0  0  0  1  0  0  0  0  0  0
   15.2244    9.1826    8.1454 N   0  0  0  0  0  0  0  0  0  0  0  0
   15.0166   10.4117    7.9358 N   0  0  0  0  0  2  0  0  0  0  0  0
   14.4851    8.2552    7.4205 C   0  0  0  0  0  0  0  0  0  0  0  0
   14.6237    6.8804    7.6130 C   0  0  0  0  0  0  0  0  0  0  0  0
   15.3382    6.5072    8.3501 H   0  0  0  0  0  0  0  0  0  0  0  0
   13.8686    5.9894    6.8792 C   0  0  0  0  0  0  0  0  0  0  0  0
   13.9868    4.9294    7.0421 H   0  0  0  0  0  0  0  0  0  0  0  0
   12.9624    6.4532    5.9372 C   0  0  0  0  0  0  0  0  0  0  0  0
   12.3731    5.7548    5.3629 H   0  0  0  0  0  0  0  0  0  0  0  0
   12.8180    7.8187    5.7352 C   0  0  0  0  0  0  0  0  0  0  0  0
   12.1158    8.1855    5.0020 H   0  0  0  0  0  0  0  0  0  0  0  0
   13.5658    8.7164    6.4646 C   0  0  0  0  0  0  0  0  0  0  0  0
   13.4649    9.7808    6.3190 H   0  0  0  0  0  0  0  0  0  0  0  0
   16.6484   10.5308    9.5403 C   0  0  0  0  0  0  0  0  0  0  0  0
   15.7791   11.2426    8.6850 C   0  0  0  0  0  0  0  0  0  0  0  0
   15.7808   12.6380    8.6849 C   0  0  0  0  0  0  0  0  0  0  0  0
   15.1187   13.1838    8.0311 H   0  0  0  0  0  0  0  0  0  0  0  0
   16.6484   13.3063    9.5402 C   0  0  0  0  0  0  0  0  0  0  0  0
   16.6485   14.3859    9.5401 H   0  0  0  0  0  0  0  0  0  0  0  0
   15.0008    8.5575   11.2246 Cl  0  0  0  0  0  0  0  0  0  0  0  0
   18.0723    9.1827   10.9352 N   0  0  0  0  0  0  0  0  0  0  0  0
   18.2803   10.4118   11.1447 N   0  0  0  0  0  2  0  0  0  0  0  0
   18.8117    8.2552   11.6599 C   0  0  0  0  0  0  0  0  0  0  0  0
   18.6730    6.8804   11.4675 C   0  0  0  0  0  0  0  0  0  0  0  0
   17.9584    6.5071   10.7306 H   0  0  0  0  0  0  0  0  0  0  0  0
   19.4282    5.9894   12.2012 C   0  0  0  0  0  0  0  0  0  0  0  0
   19.3098    4.9295   12.0384 H   0  0  0  0  0  0  0  0  0  0  0  0
   20.3346    6.4532   13.1429 C   0  0  0  0  0  0  0  0  0  0  0  0
   20.9240    5.7548   13.7172 H   0  0  0  0  0  0  0  0  0  0  0  0
   20.4793    7.8187   13.3447 C   0  0  0  0  0  0  0  0  0  0  0  0
   21.1818    8.1855   14.0778 H   0  0  0  0  0  0  0  0  0  0  0  0
   19.7314    8.7164   12.6155 C   0  0  0  0  0  0  0  0  0  0  0  0
   19.8325    9.7808   12.7609 H   0  0  0  0  0  0  0  0  0  0  0  0
   17.5177   11.2426   10.3956 C   0  0  0  0  0  0  0  0  0  0  0  0
   17.5161   12.6380   10.3954 C   0  0  0  0  0  0  0  0  0  0  0  0
   18.1782   13.1839   11.0492 H   0  0  0  0  0  0  0  0  0  0  0  0
  1 17  1  0  0  0  0
  1 24  1  0  0  0  0
  1 23  1  0  0  0  0
  2  1  1  0  0  0  0
  3  1  1  0  0  0  0
  4  1  1  0  0  0  0
  5  4  1  0  0  0  0
  5 18  1  0  0  0  0
  6  7  1  0  0  0  0
  6  4  1  0  0  0  0
  7  8  1  0  0  0  0
  9 10  1  0  0  0  0
  9  7  2  0  0  0  0
 11  9  1  0  0  0  0
 12 11  1  0  0  0  0
 13 11  2  0  0  0  0
 13 15  1  0  0  0  0
 14 13  1  0  0  0  0
 15  6  2  0  0  0  0
 16 15  1  0  0  0  0
 17 37  1  0  0  0  0
 18 17  2  0  0  0  0
 19 18  1  0  0  0  0
 19 21  2  0  0  0  0
 20 19  1  0  0  0  0
 21 38  1  0  0  0  0
 22 21  1  0  0  0  0
 24 25  1  0  0  0  0
 24 26  1  0  0  0  0
 26 35  1  0  0  0  0
 27 26  2  0  0  0  0
 27 29  1  0  0  0  0
 28 27  1  0  0  0  0
 29 31  2  0  0  0  0
 30 29  1  0  0  0  0
 31 33  1  0  0  0  0
 31 32  1  0  0  0  0
 33 34  1  0  0  0  0
 35 36  1  0  0  0  0
 35 33  2  0  0  0  0
 37 25  1  0  0  0  0
 38 37  2  0  0  0  0
 38 39  1  0  0  0  0
M  END
$$$$
