CSD_code = IRUDUW | q = 0 | S = 0 | Stoichiometry = C21H17Cl5F6FeN2O | MND = 4
 OpenBabel04212202053D

 53 54  0  0  1  0  0  0  0  0999 V2000
    0.7587    7.2855    7.4968 Fe  0  0  0  0  0  0  0  0  0  0  0  0
    1.0549    8.6871    8.9221 Cl  0  0  0  0  0  0  0  0  0  0  0  0
   -0.5201    6.4647    6.2251 N   0  0  0  0  0  0  0  0  0  0  0  0
    2.1212    6.4003    6.4633 N   0  0  0  0  0  0  0  0  0  0  0  0
   -1.4004    5.3996    4.1397 C   0  0  0  0  0  0  0  0  0  0  0  0
   -1.8825    4.1494    4.2410 F   0  0  0  0  0  0  0  0  0  0  0  0
   -2.4575    6.2224    4.1621 F   0  0  0  0  0  0  0  0  0  0  0  0
   -0.8973    5.4978    2.8977 F   0  0  0  0  0  0  0  0  0  0  0  0
   -0.3267    5.6935    5.1763 C   0  0  1  0  0  3  0  0  0  0  0  0
    0.9028    5.1062    4.8741 C   0  0  0  0  0  0  0  0  0  0  0  0
    0.9512    4.3844    4.0774 H   0  0  0  0  0  0  0  0  0  0  0  0
    2.0777    5.4938    5.5088 C   0  0  0  0  0  0  0  0  0  0  0  0
    3.3637    4.8124    5.0748 C   0  0  0  0  0  0  0  0  0  0  0  0
    3.1385    3.6316    4.4873 F   0  0  0  0  0  0  0  0  0  0  0  0
    4.0971    5.5268    4.2051 F   0  0  0  0  0  0  0  0  0  0  0  0
    4.1706    4.5612    6.1208 F   0  0  0  0  0  0  0  0  0  0  0  0
   -1.7364    7.0740    6.5254 C   0  0  0  0  0  0  0  0  0  0  0  0
   -2.8906    6.3894    6.9242 C   0  0  0  0  0  0  0  0  0  0  0  0
   -2.8676    4.6703    7.0233 Cl  0  0  0  0  0  0  0  0  0  0  0  0
   -4.0504    7.0781    7.2447 C   0  0  0  0  0  0  0  0  0  0  0  0
   -4.9249    6.5227    7.5429 H   0  0  0  0  0  0  0  0  0  0  0  0
   -4.0801    8.4587    7.1786 C   0  0  0  0  0  0  0  0  0  0  0  0
   -4.9876    8.9868    7.4225 H   0  0  0  0  0  0  0  0  0  0  0  0
   -2.9489    9.1696    6.8057 C   0  0  0  0  0  0  0  0  0  0  0  0
   -2.9572   10.2460    6.7580 H   0  0  0  0  0  0  0  0  0  0  0  0
   -1.7975    8.4769    6.4936 C   0  0  0  0  0  0  0  0  0  0  0  0
   -0.3399    9.2913    6.0543 Cl  0  0  0  0  0  0  0  0  0  0  0  0
    3.3013    7.0869    6.7639 C   0  0  0  0  0  0  0  0  0  0  0  0
    3.8467    8.0019    5.8507 C   0  0  0  0  0  0  0  0  0  0  0  0
    2.9900    8.3101    4.3871 Cl  0  0  0  0  0  0  0  0  0  0  0  0
    5.0163    8.6844    6.1350 C   0  0  0  0  0  0  0  0  0  0  0  0
    5.4160    9.3739    5.4094 H   0  0  0  0  0  0  0  0  0  0  0  0
    5.6497    8.4823    7.3493 C   0  0  0  0  0  0  0  0  0  0  0  0
    6.5652    9.0084    7.5676 H   0  0  0  0  0  0  0  0  0  0  0  0
    5.1022    7.6336    8.2972 C   0  0  0  0  0  0  0  0  0  0  0  0
    5.5697    7.4989    9.2588 H   0  0  0  0  0  0  0  0  0  0  0  0
    3.9341    6.9542    8.0069 C   0  0  0  0  0  0  0  0  0  0  0  0
    3.1720    5.9610    9.1755 Cl  0  0  0  0  0  0  0  0  0  0  0  0
    0.5425    3.7406    8.0855 C   0  0  0  0  0  0  0  0  0  0  0  0
    0.4120    2.6624    8.1088 H   0  0  0  0  0  0  0  0  0  0  0  0
    1.6032    3.9679    8.1096 H   0  0  0  0  0  0  0  0  0  0  0  0
    0.1222    4.1267    7.1646 H   0  0  0  0  0  0  0  0  0  0  0  0
   -0.1565    4.3565    9.2811 C   0  0  0  0  0  0  0  0  0  0  0  0
   -1.2285    4.1218    9.2492 H   0  0  0  0  0  0  0  0  0  0  0  0
    0.2618    3.9354   10.2072 H   0  0  0  0  0  0  0  0  0  0  0  0
    0.0256    5.7676    9.3045 O   0  0  0  0  0  0  0  0  0  0  0  0
   -0.5424    6.3615   10.4686 C   0  0  0  0  0  0  0  0  0  0  0  0
    0.0926    7.2132   10.7187 H   0  0  0  0  0  0  0  0  0  0  0  0
   -0.5066    5.6450   11.2973 H   0  0  0  0  0  0  0  0  0  0  0  0
   -1.9711    6.8396   10.2394 C   0  0  0  0  0  0  0  0  0  0  0  0
   -2.3618    7.2729   11.1556 H   0  0  0  0  0  0  0  0  0  0  0  0
   -2.6156    6.0179    9.9376 H   0  0  0  0  0  0  0  0  0  0  0  0
   -1.9821    7.5986    9.4589 H   0  0  0  0  0  0  0  0  0  0  0  0
  1  2  1  0  0  0  0
  3 17  1  0  0  0  0
  3  1  1  0  0  0  0
  4 28  1  0  0  0  0
  4  1  1  0  0  0  0
  5  7  1  0  0  0  0
  5  6  1  0  0  0  0
  8  5  1  0  0  0  0
  9  5  1  6  0  0  0
  9  3  1  0  0  0  0
 10  9  1  0  0  0  0
 10 12  2  0  0  0  0
 11 10  1  0  0  0  0
 12  4  1  0  0  0  0
 13 12  1  0  0  0  0
 13 16  1  0  0  0  0
 14 13  1  0  0  0  0
 15 13  1  0  0  0  0
 17 18  1  0  0  0  0
 18 19  1  0  0  0  0
 18 20  2  0  0  0  0
 20 21  1  0  0  0  0
 22 20  1  0  0  0  0
 22 23  1  0  0  0  0
 24 22  2  0  0  0  0
 25 24  1  0  0  0  0
 26 17  2  0  0  0  0
 26 24  1  0  0  0  0
 27 26  1  0  0  0  0
 28 37  1  0  0  0  0
 29 31  1  0  0  0  0
 29 28  2  0  0  0  0
 30 29  1  0  0  0  0
 31 33  2  0  0  0  0
 32 31  1  0  0  0  0
 33 34  1  0  0  0  0
 33 35  1  0  0  0  0
 35 36  1  0  0  0  0
 37 35  2  0  0  0  0
 37 38  1  0  0  0  0
 39 40  1  0  0  0  0
 39 41  1  0  0  0  0
 39 43  1  0  0  0  0
 42 39  1  0  0  0  0
 43 46  1  0  0  0  0
 43 45  1  0  0  0  0
 44 43  1  0  0  0  0
 46 47  1  0  0  0  0
 47 48  1  0  0  0  0
 47 49  1  0  0  0  0
 50 47  1  0  0  0  0
 50 51  1  0  0  0  0
 52 50  1  0  0  0  0
 53 50  1  0  0  0  0
M  END
$$$$
