CSD_code = ISEBUE | q = 0 | S = 0 | Stoichiometry = C13H15Cl2N3Zn | MND = 5
 OpenBabel04212202053D

 34 37  0  0  1  0  0  0  0  0999 V2000
    0.5604   10.1444    7.3945 Zn  0  0  0  0  0  0  0  0  0  0  0  0
   -0.4562   11.9491    6.4799 Cl  0  0  0  0  0  0  0  0  0  0  0  0
    1.2317    8.3678    6.2369 Cl  0  0  0  0  0  0  0  0  0  0  0  0
    2.5115   11.0109    7.7711 N   0  0  0  0  0  0  0  0  0  0  0  0
    0.4529   11.0656    9.4954 N   0  0  1  0  0  4  0  0  0  0  0  0
   -1.1582    9.2414    8.3591 N   0  0  0  0  0  0  0  0  0  0  0  0
    3.6148   10.7289    7.0940 C   0  0  0  0  0  3  0  0  0  0  0  0
    3.5506    9.8788    6.4291 H   0  0  0  0  0  0  0  0  0  0  0  0
    4.7760   11.4700    7.2304 C   0  0  0  0  0  0  0  0  0  0  0  0
    5.6549   11.2145    6.6611 H   0  0  0  0  0  0  0  0  0  0  0  0
    4.7755   12.5424    8.1095 C   0  0  0  0  0  0  0  0  0  0  0  0
    5.6602   13.1471    8.2422 H   0  0  0  0  0  0  0  0  0  0  0  0
    3.6207   12.8266    8.8187 C   0  0  0  0  0  0  0  0  0  0  0  0
    3.5827   13.6530    9.5117 H   0  0  0  0  0  0  0  0  0  0  0  0
    2.4980   12.0327    8.6201 C   0  0  0  0  0  0  0  0  0  0  0  0
    1.1881   12.3049    9.3016 C   0  0  0  0  0  0  0  0  0  0  0  0
    1.3438   12.8505   10.2436 H   0  0  0  0  0  0  0  0  0  0  0  0
    0.6100   12.9314    8.6132 H   0  0  0  0  0  0  0  0  0  0  0  0
   -0.9799   11.2598    9.6482 C   0  0  0  0  0  0  0  0  0  0  0  0
   -1.2941   12.0127    8.9168 H   0  0  0  0  0  0  0  0  0  0  0  0
   -1.2503   11.6010   10.6581 H   0  0  0  0  0  0  0  0  0  0  0  0
   -1.7172   10.0003    9.2954 C   0  0  1  0  0  3  0  0  0  0  0  0
   -2.9368    9.6647    9.8697 C   0  0  0  0  0  0  0  0  0  0  0  0
   -3.3711   10.3000   10.6262 H   0  0  0  0  0  0  0  0  0  0  0  0
   -3.5804    8.5131    9.4490 C   0  0  0  0  0  0  0  0  0  0  0  0
   -4.5317    8.2326    9.8762 H   0  0  0  0  0  0  0  0  0  0  0  0
   -2.9828    7.7287    8.4742 C   0  0  0  0  0  0  0  0  0  0  0  0
   -3.4502    6.8239    8.1209 H   0  0  0  0  0  0  0  0  0  0  0  0
   -1.7650    8.1347    7.9563 C   0  0  0  0  0  0  0  0  0  0  0  0
   -1.2449    7.5662    7.1979 H   0  0  0  0  0  0  0  0  0  0  0  0
    0.9973   10.3052   10.6083 C   0  0  0  0  0  0  0  0  0  0  0  0
    2.0540   10.1104   10.4358 H   0  0  0  0  0  0  0  0  0  0  0  0
    0.4815    9.3501   10.6857 H   0  0  0  0  0  0  0  0  0  0  0  0
    0.8864   10.8468   11.5584 H   0  0  0  0  0  0  0  0  0  0  0  0
  1  4  1  0  0  0  0
  1  6  1  0  0  0  0
  1  5  1  0  0  0  0
  2  1  1  0  0  0  0
  3  1  1  0  0  0  0
  4 15  1  0  0  0  0
  5 19  1  0  0  0  0
  5 31  1  1  0  0  0
  6 22  1  0  0  0  0
  7  9  1  0  0  0  0
  7  4  1  0  0  0  0
  8  7  1  0  0  0  0
  9 11  2  0  0  0  0
 10  9  1  0  0  0  0
 11 12  1  0  0  0  0
 11 13  1  0  0  0  0
 13 14  1  0  0  0  0
 15 13  2  0  0  0  0
 15 16  1  0  0  0  0
 16  5  1  0  0  0  0
 16 17  1  0  0  0  0
 18 16  1  0  0  0  0
 19 21  1  0  0  0  0
 20 19  1  0  0  0  0
 22 19  1  0  0  0  0
 22 23  1  6  0  0  0
 23 24  1  0  0  0  0
 25 23  2  0  0  0  0
 25 26  1  0  0  0  0
 27 25  1  0  0  0  0
 28 27  1  0  0  0  0
 29  6  1  0  0  0  0
 29 27  2  0  0  0  0
 30 29  1  0  0  0  0
 31 33  1  0  0  0  0
 31 34  1  0  0  0  0
 32 31  1  0  0  0  0
M  END
$$$$
