CSD_code = ISEPIH | q = 0 | S = 0 | Stoichiometry = C21H19AuClN3O2S | MND = 2
 OpenBabel04212202053D

 48 51  0  0  0  0  0  0  0  0999 V2000
    3.0791    2.8787   14.4643 Au  0  0  0  0  0  0  0  0  0  0  0  0
    3.7568    4.9051   15.1619 Cl  0  0  0  0  0  0  0  0  0  0  0  0
    2.5666    1.0252   13.9604 C   0  0  0  0  0  0  0  0  0  0  0  0
    2.1516   -0.0106   14.7928 C   0  0  0  0  0  0  0  0  0  0  0  0
    2.6747    0.4079   12.7618 N   0  0  0  0  0  0  0  0  0  0  0  0
    2.3658   -0.8685   12.7930 N   0  0  0  0  0  2  0  0  0  0  0  0
    2.0405   -1.1194   14.0313 N   0  0  0  0  0  0  0  0  0  0  0  0
    1.6266   -2.4372   14.4146 C   0  0  0  0  0  0  0  0  0  0  0  0
    0.5521   -2.5484   14.2586 H   0  0  0  0  0  0  0  0  0  0  0  0
    1.8499   -2.5832   15.4705 H   0  0  0  0  0  0  0  0  0  0  0  0
    2.1520   -3.1602   13.7942 H   0  0  0  0  0  0  0  0  0  0  0  0
    3.0905    1.0296   11.5241 C   0  0  0  0  0  0  0  0  0  0  0  0
    4.1119    1.4000   11.6550 H   0  0  0  0  0  0  0  0  0  0  0  0
    2.4395    1.8912   11.3472 H   0  0  0  0  0  0  0  0  0  0  0  0
    3.0120    0.0441   10.3902 C   0  0  0  0  0  0  0  0  0  0  0  0
    4.1305   -0.6868   10.0148 C   0  0  0  0  0  0  0  0  0  0  0  0
    5.0699   -0.5279   10.5244 H   0  0  0  0  0  0  0  0  0  0  0  0
    4.0491   -1.6111    8.9884 C   0  0  0  0  0  0  0  0  0  0  0  0
    4.9253   -2.1724    8.6998 H   0  0  0  0  0  0  0  0  0  0  0  0
    2.8474   -1.8147    8.3324 C   0  0  0  0  0  0  0  0  0  0  0  0
    2.7840   -2.5355    7.5310 H   0  0  0  0  0  0  0  0  0  0  0  0
    1.7274   -1.0902    8.7040 C   0  0  0  0  0  0  0  0  0  0  0  0
    0.7890   -1.2450    8.1930 H   0  0  0  0  0  0  0  0  0  0  0  0
    1.8092   -0.1648    9.7287 C   0  0  0  0  0  0  0  0  0  0  0  0
    0.9354    0.4020   10.0159 H   0  0  0  0  0  0  0  0  0  0  0  0
    1.7462    0.1097   16.5549 S   0  0  1  0  0  0  0  0  0  0  0  0
    1.7712   -1.2591   17.0806 O   0  0  0  0  0  0  0  0  0  0  0  0
    3.3297    0.8796   16.9871 C   0  0  0  0  0  0  0  0  0  0  0  0
    4.5055    0.2400   16.6543 C   0  0  0  0  0  0  0  0  0  0  0  0
    5.7307    0.8312   17.0170 C   0  0  0  0  0  0  0  0  0  0  0  0
    6.6599    0.3425   16.7709 H   0  0  0  0  0  0  0  0  0  0  0  0
    5.7478    2.0352   17.6639 C   0  0  0  0  0  0  0  0  0  0  0  0
    6.6935    2.4900   17.9195 H   0  0  0  0  0  0  0  0  0  0  0  0
    4.5614    2.7158   17.9959 C   0  0  0  0  0  0  0  0  0  0  0  0
    4.5699    3.9776   18.6228 C   0  0  0  0  0  0  0  0  0  0  0  0
    5.5215    4.4336   18.8524 H   0  0  0  0  0  0  0  0  0  0  0  0
    3.3994    4.6201   18.9086 C   0  0  0  0  0  0  0  0  0  0  0  0
    3.4108    5.5966   19.3683 H   0  0  0  0  0  0  0  0  0  0  0  0
    2.1708    4.0218   18.5922 C   0  0  0  0  0  0  0  0  0  0  0  0
    1.2537    4.5444   18.8196 H   0  0  0  0  0  0  0  0  0  0  0  0
    2.1264    2.7970   17.9871 C   0  0  0  0  0  0  0  0  0  0  0  0
    1.1785    2.3434   17.7366 H   0  0  0  0  0  0  0  0  0  0  0  0
    3.3170    2.1164   17.6632 C   0  0  0  0  0  0  0  0  0  0  0  0
    4.3934   -0.9202   15.9475 O   0  0  0  0  0  0  0  0  0  0  0  0
    5.5596   -1.6379   15.6245 C   0  0  0  0  0  0  0  0  0  0  0  0
    6.2181   -1.0580   14.9692 H   0  0  0  0  0  0  0  0  0  0  0  0
    5.2189   -2.5280   15.0964 H   0  0  0  0  0  0  0  0  0  0  0  0
    6.1069   -1.9403   16.5218 H   0  0  0  0  0  0  0  0  0  0  0  0
  1  2  1  0  0  0  0
  3  1  1  0  0  0  0
  3  4  2  0  0  0  0
  4 26  1  0  0  0  0
  5  6  1  0  0  0  0
  5  3  1  0  0  0  0
  6  7  1  0  0  0  0
  7  8  1  0  0  0  0
  7  4  1  0  0  0  0
  8 10  1  0  0  0  0
  9  8  1  0  0  0  0
 11  8  1  0  0  0  0
 12 13  1  0  0  0  0
 12  5  1  0  0  0  0
 14 12  1  0  0  0  0
 15 12  1  0  0  0  0
 16 15  1  0  0  0  0
 16 17  1  0  0  0  0
 18 16  2  0  0  0  0
 19 18  1  0  0  0  0
 20 22  2  0  0  0  0
 20 18  1  0  0  0  0
 21 20  1  0  0  0  0
 22 24  1  0  0  0  0
 23 22  1  0  0  0  0
 24 25  1  0  0  0  0
 24 15  2  0  0  0  0
 26 28  1  0  0  0  0
 26 27  2  1  0  0  0
 28 43  1  0  0  0  0
 29 28  2  0  0  0  0
 29 30  1  0  0  0  0
 30 32  2  0  0  0  0
 31 30  1  0  0  0  0
 32 33  1  0  0  0  0
 32 34  1  0  0  0  0
 34 35  1  0  0  0  0
 35 36  1  0  0  0  0
 35 37  2  0  0  0  0
 37 38  1  0  0  0  0
 39 40  1  0  0  0  0
 39 37  1  0  0  0  0
 41 39  2  0  0  0  0
 42 41  1  0  0  0  0
 43 41  1  0  0  0  0
 43 34  2  0  0  0  0
 44 29  1  0  0  0  0
 45 44  1  0  0  0  0
 45 48  1  0  0  0  0
 46 45  1  0  0  0  0
 47 45  1  0  0  0  0
M  END
$$$$
