CSD_code = ISERUU | q = 0 | S = 0 | Stoichiometry = C24H32HgI2O8 | MND = 5
 OpenBabel04212202053D

 67 68  0  0  0  0  0  0  0  0999 V2000
    9.1452   -3.3121    2.4790 Hg  0  0  0  0  0  0  0  0  0  0  0  0
    7.0270   -4.4874    3.4309 I   0  0  0  0  0  0  0  0  0  0  0  0
   11.1755   -1.8918    1.6711 I   0  0  0  0  0  0  0  0  0  0  0  0
    9.6317   -5.5511    0.7507 O   0  0  0  0  0  0  0  0  0  0  0  0
    8.0996   -3.3266   -0.1371 O   0  0  0  0  0  0  0  0  0  0  0  0
    7.5598   -1.1003    1.5943 O   0  0  0  0  0  0  0  0  0  0  0  0
    6.9515    0.7695    4.6112 O   0  0  0  0  0  0  0  0  0  0  0  0
    9.5692    0.7717    5.6014 O   0  0  0  0  0  0  0  0  0  0  0  0
   10.8869   -1.5032    7.1463 O   0  0  0  0  0  0  0  0  0  0  0  0
   10.4438   -3.4143    4.9937 O   0  0  0  0  0  0  0  0  0  0  0  0
   10.6784   -5.6405    3.1613 O   0  0  0  0  0  0  0  0  0  0  0  0
    9.0269   -5.4818   -0.5233 C   0  0  0  0  0  0  0  0  0  0  0  0
    7.9986   -5.8634   -0.4718 H   0  0  0  0  0  0  0  0  0  0  0  0
    9.6068   -6.0675   -1.2487 H   0  0  0  0  0  0  0  0  0  0  0  0
    8.9842   -4.0304   -0.9810 C   0  0  0  0  0  0  0  0  0  0  0  0
    9.9903   -3.5900   -0.9458 H   0  0  0  0  0  0  0  0  0  0  0  0
    8.6186   -3.9962   -2.0173 H   0  0  0  0  0  0  0  0  0  0  0  0
    7.8072   -2.0229   -0.5907 C   0  0  0  0  0  0  0  0  0  0  0  0
    7.3305   -2.0740   -1.5804 H   0  0  0  0  0  0  0  0  0  0  0  0
    8.7262   -1.4258   -0.6666 H   0  0  0  0  0  0  0  0  0  0  0  0
    6.8569   -1.3665    0.4006 C   0  0  0  0  0  0  0  0  0  0  0  0
    6.4792   -0.4269   -0.0268 H   0  0  0  0  0  0  0  0  0  0  0  0
    6.0085   -2.0370    0.5982 H   0  0  0  0  0  0  0  0  0  0  0  0
    6.8020   -0.3649    2.5310 C   0  0  0  0  0  0  0  0  0  0  0  0
    5.9468   -0.9527    2.8924 H   0  0  0  0  0  0  0  0  0  0  0  0
    6.4204    0.5545    2.0638 H   0  0  0  0  0  0  0  0  0  0  0  0
    7.7103    0.0051    3.7028 C   0  0  0  0  0  0  0  0  0  0  0  0
    8.0741   -0.9136    4.1872 H   0  0  0  0  0  0  0  0  0  0  0  0
    8.5725    0.5617    3.3240 H   0  0  0  0  0  0  0  0  0  0  0  0
    7.5242    1.8864    5.1693 C   0  0  0  0  0  0  0  0  0  0  0  0
    6.7142    3.0069    5.2804 C   0  0  0  0  0  0  0  0  0  0  0  0
    5.7053    2.9356    4.9058 H   0  0  0  0  0  0  0  0  0  0  0  0
    7.1829    4.1723    5.8598 C   0  0  0  0  0  0  0  0  0  0  0  0
    6.5370    5.0325    5.9402 H   0  0  0  0  0  0  0  0  0  0  0  0
    8.4846    4.2257    6.3170 C   0  0  0  0  0  0  0  0  0  0  0  0
    8.8736    5.1317    6.7558 H   0  0  0  0  0  0  0  0  0  0  0  0
    9.3035    3.1121    6.2259 C   0  0  0  0  0  0  0  0  0  0  0  0
   10.3123    3.1751    6.6007 H   0  0  0  0  0  0  0  0  0  0  0  0
    8.8371    1.9257    5.6738 C   0  0  0  0  0  0  0  0  0  0  0  0
   10.8549    0.7518    6.1875 C   0  0  0  0  0  0  0  0  0  0  0  0
   10.8014    1.0665    7.2374 H   0  0  0  0  0  0  0  0  0  0  0  0
   11.5305    1.4204    5.6371 H   0  0  0  0  0  0  0  0  0  0  0  0
   11.4083   -0.6762    6.1286 C   0  0  0  0  0  0  0  0  0  0  0  0
   11.2224   -1.0955    5.1353 H   0  0  0  0  0  0  0  0  0  0  0  0
   12.4860   -0.6366    6.3066 H   0  0  0  0  0  0  0  0  0  0  0  0
    9.6364   -2.0985    6.8647 C   0  0  0  0  0  0  0  0  0  0  0  0
    9.0477   -1.4693    6.1927 H   0  0  0  0  0  0  0  0  0  0  0  0
    9.1079   -2.1926    7.8182 H   0  0  0  0  0  0  0  0  0  0  0  0
    9.8047   -3.5006    6.2644 C   0  0  0  0  0  0  0  0  0  0  0  0
   10.4131   -4.1037    6.9448 H   0  0  0  0  0  0  0  0  0  0  0  0
    8.8201   -3.9699    6.1537 H   0  0  0  0  0  0  0  0  0  0  0  0
   11.5924   -4.2122    4.8324 C   0  0  0  0  0  0  0  0  0  0  0  0
   12.1973   -4.2080    5.7468 H   0  0  0  0  0  0  0  0  0  0  0  0
   12.1713   -3.7612    4.0222 H   0  0  0  0  0  0  0  0  0  0  0  0
   11.2508   -5.6542    4.4537 C   0  0  0  0  0  0  0  0  0  0  0  0
   12.1694   -6.2554    4.4544 H   0  0  0  0  0  0  0  0  0  0  0  0
   10.5382   -6.0698    5.1796 H   0  0  0  0  0  0  0  0  0  0  0  0
   10.2770   -6.8391    2.6284 C   0  0  0  0  0  0  0  0  0  0  0  0
   10.3943   -8.0579    3.2746 C   0  0  0  0  0  0  0  0  0  0  0  0
   10.8218   -8.1161    4.2621 H   0  0  0  0  0  0  0  0  0  0  0  0
    9.9598   -9.2253    2.6646 C   0  0  0  0  0  0  0  0  0  0  0  0
   10.0582  -10.1637    3.1871 H   0  0  0  0  0  0  0  0  0  0  0  0
    9.4056   -9.1790    1.4049 C   0  0  0  0  0  0  0  0  0  0  0  0
    9.0619  -10.0807    0.9231 H   0  0  0  0  0  0  0  0  0  0  0  0
    9.2822   -7.9658    0.7435 C   0  0  0  0  0  0  0  0  0  0  0  0
    8.8430   -7.9554   -0.2403 H   0  0  0  0  0  0  0  0  0  0  0  0
    9.7120   -6.7912    1.3377 C   0  0  0  0  0  0  0  0  0  0  0  0
  1  2  1  0  0  0  0
  3  1  1  0  0  0  0
  4 67  1  0  0  0  0
  6 24  1  0  0  0  0
  7 30  1  0  0  0  0
  8 39  1  0  0  0  0
  8 40  1  0  0  0  0
 10 49  1  0  0  0  0
 11 55  1  0  0  0  0
 12 13  1  0  0  0  0
 12  4  1  0  0  0  0
 14 12  1  0  0  0  0
 15 16  1  0  0  0  0
 15 12  1  0  0  0  0
 15  5  1  0  0  0  0
 17 15  1  0  0  0  0
 18  5  1  0  0  0  0
 18 21  1  0  0  0  0
 19 18  1  0  0  0  0
 20 18  1  0  0  0  0
 21 23  1  0  0  0  0
 21  6  1  0  0  0  0
 22 21  1  0  0  0  0
 24 25  1  0  0  0  0
 24 27  1  0  0  0  0
 26 24  1  0  0  0  0
 27 28  1  0  0  0  0
 27  7  1  0  0  0  0
 29 27  1  0  0  0  0
 30 31  2  0  0  0  0
 30 39  1  0  0  0  0
 31 33  1  0  0  0  0
 32 31  1  0  0  0  0
 33 34  1  0  0  0  0
 33 35  2  0  0  0  0
 35 36  1  0  0  0  0
 37 35  1  0  0  0  0
 37 38  1  0  0  0  0
 39 37  2  0  0  0  0
 40 41  1  0  0  0  0
 42 40  1  0  0  0  0
 43 40  1  0  0  0  0
 43 45  1  0  0  0  0
 43  9  1  0  0  0  0
 44 43  1  0  0  0  0
 46  9  1  0  0  0  0
 46 48  1  0  0  0  0
 47 46  1  0  0  0  0
 49 46  1  0  0  0  0
 49 50  1  0  0  0  0
 51 49  1  0  0  0  0
 52 10  1  0  0  0  0
 52 53  1  0  0  0  0
 54 52  1  0  0  0  0
 55 56  1  0  0  0  0
 55 52  1  0  0  0  0
 55 57  1  0  0  0  0
 58 11  1  0  0  0  0
 58 59  1  0  0  0  0
 59 60  1  0  0  0  0
 61 62  1  0  0  0  0
 61 59  2  0  0  0  0
 63 61  1  0  0  0  0
 64 63  1  0  0  0  0
 65 67  1  0  0  0  0
 65 63  2  0  0  0  0
 66 65  1  0  0  0  0
 67 58  2  0  0  0  0
M  END
$$$$
