CSD_code = ISEXOT | q = 0 | S = 0 | Stoichiometry = C18H15Cl2F3FeN4 | MND = 5
 OpenBabel04212202053D

 43 46  0  0  1  0  0  0  0  0999 V2000
    7.4960    5.5962   12.8906 Fe  0  0  0  0  0  0  0  0  0  0  0  0
    8.2411    6.2809   14.6186 Cl  0  0  0  0  0  0  0  0  0  0  0  0
    6.7713    4.7258   11.2184 Cl  0  0  0  0  0  0  0  0  0  0  0  0
    4.8756    4.6246   13.9799 F   0  0  0  0  0  0  0  0  0  0  0  0
   10.0560    4.5371   11.7733 F   0  0  0  0  0  0  0  0  0  0  0  0
    4.1243   11.9056    9.7002 F   0  0  0  0  0  0  0  0  0  0  0  0
    7.0307    8.1650   11.7021 N   0  0  0  0  0  0  0  0  0  0  0  0
    9.3200    6.6298   11.6010 N   0  0  0  0  0  0  0  0  0  0  0  0
    5.3281    6.6979   13.3095 N   0  0  0  0  0  0  0  0  0  0  0  0
    5.2915   10.0078    9.9345 N   0  0  0  0  0  0  0  0  0  0  0  0
    8.3366    8.8053   11.6331 C   0  0  0  0  0  0  0  0  0  0  0  0
    8.6502    9.0225   12.6584 H   0  0  0  0  0  0  0  0  0  0  0  0
    8.3303    9.7458   11.0590 H   0  0  0  0  0  0  0  0  0  0  0  0
    4.9622    7.9159   12.9188 C   0  0  1  0  0  3  0  0  0  0  0  0
    9.3391    7.8442   11.0562 C   0  0  1  0  0  3  0  0  0  0  0  0
   10.1636    5.7245   11.1609 C   0  0  0  0  0  0  0  0  0  0  0  0
    6.2660    9.1837    9.5565 C   0  0  0  0  0  0  0  0  0  0  0  0
    6.4576    7.9335   10.3761 C   0  0  0  0  0  0  0  0  0  0  0  0
    5.4913    7.4468   10.5193 H   0  0  0  0  0  0  0  0  0  0  0  0
    7.1103    7.2397    9.8434 H   0  0  0  0  0  0  0  0  0  0  0  0
   10.2329    8.1656   10.0454 C   0  0  0  0  0  0  0  0  0  0  0  0
   10.2388    9.1569    9.6194 H   0  0  0  0  0  0  0  0  0  0  0  0
    6.0991    8.8440   12.5948 C   0  0  0  0  0  0  0  0  0  0  0  0
    5.7130    9.7818   12.1736 H   0  0  0  0  0  0  0  0  0  0  0  0
    6.6297    9.0538   13.5279 H   0  0  0  0  0  0  0  0  0  0  0  0
   11.1244    7.1980    9.5982 C   0  0  0  0  0  0  0  0  0  0  0  0
   11.8313    7.4270    8.8156 H   0  0  0  0  0  0  0  0  0  0  0  0
    7.0877    9.4839    8.4738 C   0  0  0  0  0  0  0  0  0  0  0  0
    7.8685    8.7978    8.1856 H   0  0  0  0  0  0  0  0  0  0  0  0
   11.0985    5.9312   10.1633 C   0  0  0  0  0  0  0  0  0  0  0  0
   11.7639    5.1433    9.8536 H   0  0  0  0  0  0  0  0  0  0  0  0
    3.6244    8.2721   12.8239 C   0  0  0  0  0  0  0  0  0  0  0  0
    3.3501    9.2590   12.4881 H   0  0  0  0  0  0  0  0  0  0  0  0
    4.3973    5.8227   13.6103 C   0  0  0  0  0  0  0  0  0  0  0  0
    3.0370    6.0668   13.5654 C   0  0  0  0  0  0  0  0  0  0  0  0
    2.3266    5.3021   13.8306 H   0  0  0  0  0  0  0  0  0  0  0  0
    2.6543    7.3360   13.1565 C   0  0  0  0  0  0  0  0  0  0  0  0
    1.6072    7.5895   13.0924 H   0  0  0  0  0  0  0  0  0  0  0  0
    5.1172   11.1177    9.2604 C   0  0  0  0  0  0  0  0  0  0  0  0
    5.8661   11.5173    8.1650 C   0  0  0  0  0  0  0  0  0  0  0  0
    5.6547   12.4445    7.6594 H   0  0  0  0  0  0  0  0  0  0  0  0
    6.8797   10.6602    7.7695 C   0  0  0  0  0  0  0  0  0  0  0  0
    7.5000   10.9088    6.9213 H   0  0  0  0  0  0  0  0  0  0  0  0
  1  9  1  0  0  0  0
  1  2  1  0  0  0  0
  3  1  1  0  0  0  0
  7 23  1  0  0  0  0
  8  1  1  0  0  0  0
  9 34  1  0  0  0  0
 11  7  1  0  0  0  0
 11 12  1  0  0  0  0
 13 11  1  0  0  0  0
 14 32  1  6  0  0  0
 14  9  1  0  0  0  0
 15 21  1  1  0  0  0
 15  8  1  0  0  0  0
 15 11  1  0  0  0  0
 16  8  1  0  0  0  0
 16  5  1  0  0  0  0
 17 10  1  0  0  0  0
 17 18  1  0  0  0  0
 18 19  1  0  0  0  0
 18  7  1  0  0  0  0
 20 18  1  0  0  0  0
 22 21  1  0  0  0  0
 23 14  1  0  0  0  0
 23 25  1  0  0  0  0
 24 23  1  0  0  0  0
 26 21  2  0  0  0  0
 26 30  1  0  0  0  0
 27 26  1  0  0  0  0
 28 17  2  0  0  0  0
 29 28  1  0  0  0  0
 30 16  2  0  0  0  0
 31 30  1  0  0  0  0
 32 37  2  0  0  0  0
 33 32  1  0  0  0  0
 34  4  1  0  0  0  0
 35 34  2  0  0  0  0
 35 36  1  0  0  0  0
 37 35  1  0  0  0  0
 38 37  1  0  0  0  0
 39  6  1  0  0  0  0
 39 10  2  0  0  0  0
 40 39  1  0  0  0  0
 41 40  1  0  0  0  0
 42 40  2  0  0  0  0
 42 28  1  0  0  0  0
 43 42  1  0  0  0  0
M  END
$$$$
