CSD_code = ISIPAD | q = 1 | S = 0 | Stoichiometry = C22H20AuCl2N2(1+) | MND = 4
 OpenBabel04212202053D

 47 51  0  0  1  0  0  0  0  0999 V2000
    4.6149    2.3781    6.7610 Au  0  0  0  0  0  0  0  0  0  0  0  0
    6.3329    1.9524    5.3740 Cl  0  0  0  0  0  0  0  0  0  0  0  0
    3.8451    3.9488    5.3492 Cl  0  0  0  0  0  0  0  0  0  0  0  0
    5.2221    0.9012    8.2237 N   0  0  0  0  0  4  0  0  0  0  0  0
    5.1164   -0.0220    7.8057 H   0  0  0  0  0  0  0  0  0  0  0  0
    6.2084    1.0010    8.4653 H   0  0  0  0  0  0  0  0  0  0  0  0
    3.0451    2.6522    8.2007 N   0  0  0  0  0  4  0  0  0  0  0  0
    3.3227    3.4243    8.8104 H   0  0  0  0  0  0  0  0  0  0  0  0
    2.1384    2.8972    7.8030 H   0  0  0  0  0  0  0  0  0  0  0  0
    4.3850    1.0259    9.4415 C   0  0  2  0  0  0  0  0  0  0  0  0
    4.3312    0.0514    9.9365 H   0  0  0  0  0  0  0  0  0  0  0  0
    2.9480    1.4130    8.9960 C   0  0  1  0  0  0  0  0  0  0  0  0
    2.5835    0.6427    8.3100 H   0  0  0  0  0  0  0  0  0  0  0  0
    4.9391    2.0484   10.4093 C   0  0  0  0  0  0  0  0  0  0  0  0
    5.6150    3.1513    9.9404 C   0  0  0  0  0  0  0  0  0  0  0  0
    5.8189    3.2691    8.8821 H   0  0  0  0  0  0  0  0  0  0  0  0
    6.0720    4.1546   10.8044 C   0  0  0  0  0  0  0  0  0  0  0  0
    6.6067    4.9973   10.3957 H   0  0  0  0  0  0  0  0  0  0  0  0
    5.8264    4.0610   12.1442 C   0  0  0  0  0  0  0  0  0  0  0  0
    6.1567    4.8361   12.8182 H   0  0  0  0  0  0  0  0  0  0  0  0
    4.8852    2.8590   14.0584 C   0  0  0  0  0  0  0  0  0  0  0  0
    5.2239    3.6623   14.6951 H   0  0  0  0  0  0  0  0  0  0  0  0
    4.2282    1.7834   14.5833 C   0  0  0  0  0  0  0  0  0  0  0  0
    4.0315    1.7219   15.6420 H   0  0  0  0  0  0  0  0  0  0  0  0
    3.8209    0.7405   13.7400 C   0  0  0  0  0  0  0  0  0  0  0  0
    3.3217   -0.1193   14.1597 H   0  0  0  0  0  0  0  0  0  0  0  0
    4.0554    0.7959   12.3942 C   0  0  0  0  0  0  0  0  0  0  0  0
    3.7309   -0.0362   11.7896 H   0  0  0  0  0  0  0  0  0  0  0  0
    4.7029    1.9064   11.8074 C   0  0  0  0  0  0  0  0  0  0  0  0
    5.1419    2.9483   12.6735 C   0  0  0  0  0  0  0  0  0  0  0  0
    2.0051    1.5349   10.1745 C   0  0  0  0  0  0  0  0  0  0  0  0
    1.8861    2.7310   10.8442 C   0  0  0  0  0  0  0  0  0  0  0  0
    2.4383    3.6065   10.5333 H   0  0  0  0  0  0  0  0  0  0  0  0
    1.0626    2.8594   11.9672 C   0  0  0  0  0  0  0  0  0  0  0  0
    0.9972    3.8135   12.4650 H   0  0  0  0  0  0  0  0  0  0  0  0
    0.3585    1.7819   12.4246 C   0  0  0  0  0  0  0  0  0  0  0  0
   -0.2802    1.8697   13.2899 H   0  0  0  0  0  0  0  0  0  0  0  0
   -0.2510   -0.5851   12.2682 C   0  0  0  0  0  0  0  0  0  0  0  0
   -0.8738   -0.4559   13.1403 H   0  0  0  0  0  0  0  0  0  0  0  0
   -0.1478   -1.8051   11.6607 C   0  0  0  0  0  0  0  0  0  0  0  0
   -0.6915   -2.6563   12.0390 H   0  0  0  0  0  0  0  0  0  0  0  0
    0.6726   -1.9513   10.5347 C   0  0  0  0  0  0  0  0  0  0  0  0
    0.7525   -2.9162   10.0579 H   0  0  0  0  0  0  0  0  0  0  0  0
    1.3690   -0.8842   10.0333 C   0  0  0  0  0  0  0  0  0  0  0  0
    1.9841   -1.0431    9.1600 H   0  0  0  0  0  0  0  0  0  0  0  0
    1.2875    0.3932   10.6310 C   0  0  0  0  0  0  0  0  0  0  0  0
    0.4561    0.5335   11.7789 C   0  0  0  0  0  0  0  0  0  0  0  0
  1  7  1  0  0  0  0
  1  4  1  0  0  0  0
  2  1  1  0  0  0  0
  3  1  1  0  0  0  0
  4  6  1  0  0  0  0
  4 10  1  0  0  0  0
  5  4  1  0  0  0  0
  7  8  1  0  0  0  0
  7 12  1  0  0  0  0
  9  7  1  0  0  0  0
 10 11  1  1  0  0  0
 10 14  1  0  0  0  0
 12 13  1  6  0  0  0
 12 10  1  0  0  0  0
 12 31  1  0  0  0  0
 14 29  1  0  0  0  0
 15 14  2  0  0  0  0
 15 17  1  0  0  0  0
 16 15  1  0  0  0  0
 17 19  2  0  0  0  0
 18 17  1  0  0  0  0
 19 30  1  0  0  0  0
 19 20  1  0  0  0  0
 21 23  1  0  0  0  0
 21 22  1  0  0  0  0
 23 24  1  0  0  0  0
 25 26  1  0  0  0  0
 25 23  2  0  0  0  0
 27 25  1  0  0  0  0
 28 27  1  0  0  0  0
 29 27  2  0  0  0  0
 29 30  1  0  0  0  0
 30 21  2  0  0  0  0
 31 46  2  0  0  0  0
 31 32  1  0  0  0  0
 32 34  2  0  0  0  0
 33 32  1  0  0  0  0
 34 36  1  0  0  0  0
 34 35  1  0  0  0  0
 36 37  1  0  0  0  0
 38 39  1  0  0  0  0
 40 41  1  0  0  0  0
 40 38  2  0  0  0  0
 42 40  1  0  0  0  0
 43 42  1  0  0  0  0
 44 42  2  0  0  0  0
 44 46  1  0  0  0  0
 45 44  1  0  0  0  0
 46 47  1  0  0  0  0
 47 38  1  0  0  0  0
 47 36  2  0  0  0  0
M  END
$$$$
