CSD_code = ISIRUZ | q = 0 | S = 0 | Stoichiometry = C3H8Cl4N2O2W | MND = 6
 OpenBabel04212202053D

 20 19  0  0  0  0  0  0  0  0999 V2000
    5.0589    6.6731   10.7527 C   0  0  0  0  0  3  0  0  0  0  0  0
    7.2194    7.8125   11.0752 C   0  0  0  0  0  0  0  0  0  0  0  0
    7.6509    8.4187   11.8659 H   0  0  0  0  0  0  0  0  0  0  0  0
    7.1761    8.4117   10.1619 H   0  0  0  0  0  0  0  0  0  0  0  0
    7.8609    6.9439   10.9171 H   0  0  0  0  0  0  0  0  0  0  0  0
    4.5870    5.3744    8.7491 C   0  0  0  0  0  0  0  0  0  0  0  0
    5.1477    4.6411    8.1755 H   0  0  0  0  0  0  0  0  0  0  0  0
    4.0995    6.0805    8.0713 H   0  0  0  0  0  0  0  0  0  0  0  0
    3.8186    4.8688    9.3332 H   0  0  0  0  0  0  0  0  0  0  0  0
    3.5416    8.9739   12.6971 Cl  0  0  0  0  0  0  0  0  0  0  0  0
    3.6189    8.7541    9.4332 Cl  0  0  0  0  0  0  0  0  0  0  0  0
    1.4180    6.2979    9.5083 Cl  0  0  0  0  0  0  0  0  0  0  0  0
    1.4860    6.4081   12.8032 Cl  0  0  0  0  0  0  0  0  0  0  0  0
    5.8984    7.4008   11.4933 N   0  0  0  0  0  0  0  0  0  0  0  0
    5.4498    7.9288   12.2458 H   0  0  0  0  0  0  0  0  0  0  0  0
    5.4941    6.0618    9.6458 N   0  0  0  0  0  0  0  0  0  0  0  0
    6.3749    6.3591    9.2567 H   0  0  0  0  0  0  0  0  0  0  0  0
    1.0211    8.8713   11.0288 O   0  0  0  0  0  1  0  0  0  0  0  0
    3.8660    6.4866   11.1665 O   0  0  0  0  0  0  0  0  0  0  0  0
    2.2349    7.7512   11.1082 W   0  0  0  0  0  0  0  0  0  0  0  0
  1 19  1  0  0  0  0
  1 14  1  0  0  0  0
  2 14  1  0  0  0  0
  2  3  1  0  0  0  0
  4  2  1  0  0  0  0
  5  2  1  0  0  0  0
  6  9  1  0  0  0  0
  6 16  1  0  0  0  0
  7  6  1  0  0  0  0
  8  6  1  0  0  0  0
 11 20  1  0  0  0  0
 12 20  1  0  0  0  0
 14 15  1  0  0  0  0
 16  1  1  0  0  0  0
 17 16  1  0  0  0  0
 18 20  1  0  0  0  0
 20 19  1  0  0  0  0
 20 10  1  0  0  0  0
 20 13  1  0  0  0  0
M  END
$$$$
