CSD_code = ISITEL | q = 1 | S = 0 | Stoichiometry = C15H15ClN5OPt(1+) | MND = 4
 OpenBabel04212202053D

 38 41  0  0  0  0  0  0  0  0999 V2000
    1.2158   -0.6325    3.6422 Pt  0  0  2  0  0  0  0  0  0  0  0  0
    0.7182   -1.5242    1.6300 Cl  0  0  0  0  0  0  0  0  0  0  0  0
    0.1041   -1.8684    4.6972 N   0  0  0  0  0  0  0  0  0  0  0  0
    0.3613   -1.8518    6.0255 C   0  0  0  0  0  0  0  0  0  0  0  0
   -0.2536   -2.7596    6.8833 C   0  0  0  0  0  0  0  0  0  0  0  0
   -0.0391   -2.7428    7.9387 H   0  0  0  0  0  0  0  0  0  0  0  0
   -1.1447   -3.6874    6.3715 C   0  0  0  0  0  0  0  0  0  0  0  0
   -1.6246   -4.3998    7.0236 H   0  0  0  0  0  0  0  0  0  0  0  0
   -1.4092   -3.6783    5.0102 C   0  0  0  0  0  0  0  0  0  0  0  0
   -2.1015   -4.3772    4.5706 H   0  0  0  0  0  0  0  0  0  0  0  0
   -0.7622   -2.7538    4.2083 C   0  0  0  0  0  0  0  0  0  0  0  0
   -0.9361   -2.7220    3.1403 H   0  0  0  0  0  0  0  0  0  0  0  0
    1.6877    0.0323    5.4762 N   0  0  0  0  0  0  0  0  0  0  0  0
    1.2813   -0.7974    6.4597 C   0  0  0  0  0  0  0  0  0  0  0  0
    1.7031   -0.6117    7.7738 C   0  0  0  0  0  0  0  0  0  0  0  0
    1.3887   -1.2894    8.5496 H   0  0  0  0  0  0  0  0  0  0  0  0
    2.5416    0.4468    8.0758 C   0  0  0  0  0  0  0  0  0  0  0  0
    2.8862    0.5996    9.0862 H   0  0  0  0  0  0  0  0  0  0  0  0
    2.9239    1.3083    7.0575 C   0  0  0  0  0  0  0  0  0  0  0  0
    3.5633    2.1533    7.2531 H   0  0  0  0  0  0  0  0  0  0  0  0
    2.4746    1.0610    5.7729 C   0  0  0  0  0  0  0  0  0  0  0  0
    2.7525    1.7127    4.9559 H   0  0  0  0  0  0  0  0  0  0  0  0
    4.7927    0.6124    2.0109 N   0  0  0  0  0  0  0  0  0  0  0  0
    6.1438    0.1353    2.2203 C   0  0  0  0  0  0  0  0  0  0  0  0
    6.8155    0.9743    2.3994 H   0  0  0  0  0  0  0  0  0  0  0  0
    6.4871   -0.4241    1.3499 H   0  0  0  0  0  0  0  0  0  0  0  0
    6.1363   -0.5215    3.0885 H   0  0  0  0  0  0  0  0  0  0  0  0
    3.7780    0.1071    2.8156 C   0  0  0  0  0  0  0  0  0  0  0  0
    4.0007   -0.6849    3.7128 O   0  0  0  0  0  0  0  0  0  0  0  0
    2.5056    0.5495    2.5800 N   0  0  0  0  0  0  0  0  0  0  0  0
    0.9299    1.7230    1.4089 N   0  0  0  0  0  0  0  0  0  0  0  0
    0.2281    1.1738    1.8977 H   0  0  0  0  0  0  0  0  0  0  0  0
    0.6492    2.2496    0.5987 H   0  0  0  0  0  0  0  0  0  0  0  0
    2.2051    1.3809    1.5825 C   0  0  0  0  0  0  0  0  0  0  0  0
    3.2511    1.9108    0.7779 C   0  0  0  0  0  0  0  0  0  0  0  0
    3.0332    2.6014   -0.0165 H   0  0  0  0  0  0  0  0  0  0  0  0
    4.5163    1.4855    1.0238 C   0  0  0  0  0  3  0  0  0  0  0  0
    5.3566    1.8219    0.4342 H   0  0  0  0  0  0  0  0  0  0  0  0
  1  2  1  6  0  0  0
  1  3  1  0  0  0  0
  1 13  1  0  0  0  0
  3  4  1  0  0  0  0
  4 14  2  0  0  0  0
  4  5  1  0  0  0  0
  5  6  1  0  0  0  0
  7  5  2  0  0  0  0
  7  8  1  0  0  0  0
  9  7  1  0  0  0  0
 10  9  1  0  0  0  0
 11  3  1  0  0  0  0
 11  9  2  0  0  0  0
 12 11  1  0  0  0  0
 13 21  1  0  0  0  0
 13 14  1  0  0  0  0
 14 15  1  0  0  0  0
 15 17  2  0  0  0  0
 15 16  1  0  0  0  0
 17 18  1  0  0  0  0
 19 20  1  0  0  0  0
 19 17  1  0  0  0  0
 21 19  2  0  0  0  0
 22 21  1  0  0  0  0
 23 24  1  0  0  0  0
 23 28  1  0  0  0  0
 24 25  1  0  0  0  0
 24 27  1  0  0  0  0
 26 24  1  0  0  0  0
 28 29  2  0  0  0  0
 30 28  1  0  0  0  0
 30  1  1  0  0  0  0
 31 34  1  0  0  0  0
 31 32  1  0  0  0  0
 33 31  1  0  0  0  0
 34 30  1  0  0  0  0
 35 37  1  0  0  0  0
 35 34  2  0  0  0  0
 36 35  1  0  0  0  0
 37 23  1  0  0  0  0
 38 37  1  0  0  0  0
M  END
$$$$
