CSD_code = ISOQOY | q = 0 | S = 0 | Stoichiometry = C14H14Cl2HgN2 | MND = 4
 OpenBabel04212202053D

 33 34  0  0  1  0  0  0  0  0999 V2000
    0.5274    6.8549    9.5847 Hg  0  0  0  0  0  0  0  0  0  0  0  0
   -0.7540    5.3387    8.4630 Cl  0  0  0  0  0  0  0  0  0  0  0  0
    0.7318    8.4418   11.2212 Cl  0  0  0  0  0  0  0  0  0  0  0  0
    2.6018    5.6781   10.3536 N   0  0  0  0  0  0  0  0  0  0  0  0
    2.5450    7.3953    8.2655 N   0  0  0  0  0  0  0  0  0  0  0  0
    3.7512    6.1898    9.8986 C   0  0  0  0  0  0  0  0  0  0  0  0
    4.9538    5.9754   10.5719 C   0  0  0  0  0  0  0  0  0  0  0  0
    5.8727    6.4097   10.2139 H   0  0  0  0  0  0  0  0  0  0  0  0
    4.9551    5.2158   11.7299 C   0  0  0  0  0  0  0  0  0  0  0  0
    5.8747    5.0495   12.2710 H   0  0  0  0  0  0  0  0  0  0  0  0
    3.7617    4.6759   12.1774 C   0  0  0  0  0  0  0  0  0  0  0  0
    3.7175    4.0716   13.0690 H   0  0  0  0  0  0  0  0  0  0  0  0
    2.6094    4.9410   11.4509 C   0  0  0  0  0  0  0  0  0  0  0  0
    1.6524    4.5406   11.7599 H   0  0  0  0  0  0  0  0  0  0  0  0
    3.6908    6.9984    8.6626 C   0  0  1  0  0  3  0  0  0  0  0  0
    4.9772    7.2521    7.9347 C   0  0  0  0  0  0  0  0  0  0  0  0
    4.7742    7.6000    6.9243 H   0  0  0  0  0  0  0  0  0  0  0  0
    5.5642    6.3372    7.8867 H   0  0  0  0  0  0  0  0  0  0  0  0
    5.5643    8.0120    8.4486 H   0  0  0  0  0  0  0  0  0  0  0  0
    2.3292    8.2256    7.1661 C   0  0  0  0  0  0  0  0  0  0  0  0
    2.9871    9.4457    7.0133 C   0  0  0  0  0  0  0  0  0  0  0  0
    3.6986    9.7668    7.7592 H   0  0  0  0  0  0  0  0  0  0  0  0
    2.6738   10.2717    5.9507 C   0  0  0  0  0  0  0  0  0  0  0  0
    3.1769   11.2232    5.8560 H   0  0  0  0  0  0  0  0  0  0  0  0
    1.7259    9.8999    5.0057 C   0  0  0  0  0  0  0  0  0  0  0  0
    1.0738    8.6800    5.1667 C   0  0  0  0  0  0  0  0  0  0  0  0
    0.3274    8.3773    4.4472 H   0  0  0  0  0  0  0  0  0  0  0  0
    1.3530    7.8578    6.2377 C   0  0  0  0  0  0  0  0  0  0  0  0
    0.8401    6.9131    6.3580 H   0  0  0  0  0  0  0  0  0  0  0  0
    1.3819   10.8030    3.8631 C   0  0  0  0  0  0  0  0  0  0  0  0
    1.1519   10.2269    2.9698 H   0  0  0  0  0  0  0  0  0  0  0  0
    2.1992   11.4862    3.6455 H   0  0  0  0  0  0  0  0  0  0  0  0
    0.5021   11.3966    4.1133 H   0  0  0  0  0  0  0  0  0  0  0  0
  1  3  1  0  0  0  0
  2  1  1  0  0  0  0
  4 13  1  0  0  0  0
  5 15  1  0  0  0  0
  5  1  1  0  0  0  0
  6  4  2  0  0  0  0
  6  7  1  0  0  0  0
  7  9  2  0  0  0  0
  8  7  1  0  0  0  0
  9 11  1  0  0  0  0
  9 10  1  0  0  0  0
 11 12  1  0  0  0  0
 13 14  1  0  0  0  0
 13 11  2  0  0  0  0
 15 16  1  6  0  0  0
 15  6  1  0  0  0  0
 16 19  1  0  0  0  0
 17 16  1  0  0  0  0
 18 16  1  0  0  0  0
 20  5  1  0  0  0  0
 21 20  1  0  0  0  0
 21 22  1  0  0  0  0
 23 21  2  0  0  0  0
 24 23  1  0  0  0  0
 25 26  2  0  0  0  0
 25 23  1  0  0  0  0
 26 28  1  0  0  0  0
 27 26  1  0  0  0  0
 28 29  1  0  0  0  0
 28 20  2  0  0  0  0
 30 33  1  0  0  0  0
 30 25  1  0  0  0  0
 31 30  1  0  0  0  0
 32 30  1  0  0  0  0
M  END
$$$$
