CSD_code = ISORAL | q = 0 | S = 0 | Stoichiometry = C17H20Cl2HgN2 | MND = 4
 OpenBabel04212202053D

 42 43  0  0  1  0  0  0  0  0999 V2000
   -0.0893    6.9541    5.3476 Hg  0  0  0  0  0  0  0  0  0  0  0  0
   -1.8986    5.6952    5.9798 Cl  0  0  0  0  0  0  0  0  0  0  0  0
    0.9191    8.9965    5.3835 Cl  0  0  0  0  0  0  0  0  0  0  0  0
    1.4741    5.3431    6.4809 N   0  0  0  0  0  0  0  0  0  0  0  0
    1.2173    5.5410    3.7894 N   0  0  0  0  0  0  0  0  0  0  0  0
    1.9339    4.3556    5.7047 C   0  0  0  0  0  0  0  0  0  0  0  0
    2.3856    3.1552    6.2502 C   0  0  0  0  0  0  0  0  0  0  0  0
    2.7412    2.3584    5.6177 H   0  0  0  0  0  0  0  0  0  0  0  0
    2.3538    2.9839    7.6244 C   0  0  0  0  0  0  0  0  0  0  0  0
    2.6873    2.0564    8.0653 H   0  0  0  0  0  0  0  0  0  0  0  0
    1.8899    4.0194    8.4170 C   0  0  0  0  0  0  0  0  0  0  0  0
    1.8552    3.9324    9.4909 H   0  0  0  0  0  0  0  0  0  0  0  0
    1.4585    5.1813    7.7928 C   0  0  0  0  0  0  0  0  0  0  0  0
    1.0905    6.0197    8.3697 H   0  0  0  0  0  0  0  0  0  0  0  0
    1.9535    4.6110    4.2483 C   0  0  2  0  0  3  0  0  0  0  0  0
    2.8455    3.7535    3.4009 C   0  0  0  0  0  0  0  0  0  0  0  0
    2.8367    4.1047    2.3716 H   0  0  0  0  0  0  0  0  0  0  0  0
    2.5014    2.7203    3.4155 H   0  0  0  0  0  0  0  0  0  0  0  0
    3.8642    3.7749    3.7844 H   0  0  0  0  0  0  0  0  0  0  0  0
    1.1967    5.9130    2.4315 C   0  0  0  0  0  0  0  0  0  0  0  0
    2.2069    6.7538    1.9363 C   0  0  0  0  0  0  0  0  0  0  0  0
    2.1323    7.1511    0.6107 C   0  0  0  0  0  0  0  0  0  0  0  0
    2.8913    7.7976    0.2024 H   0  0  0  0  0  0  0  0  0  0  0  0
    1.0912    6.7367   -0.2025 C   0  0  0  0  0  0  0  0  0  0  0  0
    1.0560    7.0549   -1.2335 H   0  0  0  0  0  0  0  0  0  0  0  0
    0.0903    5.9352    0.3093 C   0  0  0  0  0  0  0  0  0  0  0  0
   -0.7349    5.6301   -0.3171 H   0  0  0  0  0  0  0  0  0  0  0  0
    0.1198    5.5196    1.6335 C   0  0  0  0  0  0  0  0  0  0  0  0
    3.2920    7.2186    2.8736 C   0  0  0  0  0  0  0  0  0  0  0  0
    3.8942    6.3583    3.1845 H   0  0  0  0  0  0  0  0  0  0  0  0
    2.8083    7.6110    3.7752 H   0  0  0  0  0  0  0  0  0  0  0  0
    4.2195    8.2882    2.3120 C   0  0  0  0  0  0  0  0  0  0  0  0
    4.9196    8.5981    3.0844 H   0  0  0  0  0  0  0  0  0  0  0  0
    3.6526    9.1617    2.0008 H   0  0  0  0  0  0  0  0  0  0  0  0
    4.7925    7.9129    1.4662 H   0  0  0  0  0  0  0  0  0  0  0  0
   -0.9777    4.6465    2.1752 C   0  0  0  0  0  0  0  0  0  0  0  0
   -1.9017    4.8704    1.6389 H   0  0  0  0  0  0  0  0  0  0  0  0
   -1.1402    4.8618    3.2358 H   0  0  0  0  0  0  0  0  0  0  0  0
   -0.6589    3.1603    2.0075 C   0  0  0  0  0  0  0  0  0  0  0  0
   -1.4978    2.5584    2.3477 H   0  0  0  0  0  0  0  0  0  0  0  0
    0.2165    2.8858    2.5904 H   0  0  0  0  0  0  0  0  0  0  0  0
   -0.4650    2.9293    0.9617 H   0  0  0  0  0  0  0  0  0  0  0  0
  1  3  1  0  0  0  0
  1  2  1  0  0  0  0
  4 13  1  0  0  0  0
  5 15  1  0  0  0  0
  5  1  1  0  0  0  0
  6  7  1  0  0  0  0
  6  4  2  0  0  0  0
  7  9  2  0  0  0  0
  8  7  1  0  0  0  0
  9 10  1  0  0  0  0
  9 11  1  0  0  0  0
 11 12  1  0  0  0  0
 13 14  1  0  0  0  0
 13 11  2  0  0  0  0
 15 16  1  1  0  0  0
 15  6  1  0  0  0  0
 16 18  1  0  0  0  0
 16 19  1  0  0  0  0
 17 16  1  0  0  0  0
 20  5  1  0  0  0  0
 21 20  1  0  0  0  0
 21 29  1  0  0  0  0
 22 21  2  0  0  0  0
 23 22  1  0  0  0  0
 24 26  2  0  0  0  0
 24 22  1  0  0  0  0
 25 24  1  0  0  0  0
 26 28  1  0  0  0  0
 27 26  1  0  0  0  0
 28 36  1  0  0  0  0
 28 20  2  0  0  0  0
 29 30  1  0  0  0  0
 29 31  1  0  0  0  0
 32 29  1  0  0  0  0
 32 33  1  0  0  0  0
 34 32  1  0  0  0  0
 35 32  1  0  0  0  0
 36 38  1  0  0  0  0
 37 36  1  0  0  0  0
 39 36  1  0  0  0  0
 39 40  1  0  0  0  0
 39 41  1  0  0  0  0
 42 39  1  0  0  0  0
M  END
$$$$
