CSD_code = ISOROZ | q = 0 | S = 0 | Stoichiometry = C13H12Cl2HgN2 | MND = 4
 OpenBabel04212202053D

 30 30  0  0  0  0  0  0  0  0999 V2000
    6.2538    3.3954    1.3199 Hg  0  0  0  0  0  0  0  0  0  0  0  0
    7.5356    1.6396    2.0435 Cl  0  0  0  0  0  0  0  0  0  0  0  0
    6.0610    5.6073    0.7953 Cl  0  0  0  0  0  0  0  0  0  0  0  0
    5.0114    2.0692   -0.3753 N   0  0  0  0  0  0  0  0  0  0  0  0
    3.7733    3.1563    1.8805 N   0  0  0  0  0  0  0  0  0  0  0  0
    3.6999    1.9073   -0.1644 C   0  0  0  0  0  0  0  0  0  0  0  0
    2.9155    1.1144   -1.0044 C   0  0  0  0  0  0  0  0  0  0  0  0
    1.8596    1.0049   -0.8097 H   0  0  0  0  0  0  0  0  0  0  0  0
    3.5125    0.4704   -2.0738 C   0  0  0  0  0  0  0  0  0  0  0  0
    2.9284   -0.1509   -2.7358 H   0  0  0  0  0  0  0  0  0  0  0  0
    4.8728    0.6405   -2.2762 C   0  0  0  0  0  0  0  0  0  0  0  0
    5.3806    0.1592   -3.0963 H   0  0  0  0  0  0  0  0  0  0  0  0
    5.5780    1.4522   -1.3977 C   0  0  0  0  0  0  0  0  0  0  0  0
    6.6412    1.6116   -1.5205 H   0  0  0  0  0  0  0  0  0  0  0  0
    3.0903    2.5886    0.9678 C   0  0  0  0  0  0  0  0  0  0  0  0
    1.9968    2.5650    0.9999 H   0  0  0  0  0  0  0  0  0  0  0  0
    3.1485    3.8858    2.8860 C   0  0  0  0  0  0  0  0  0  0  0  0
    3.6452    3.8271    4.1990 C   0  0  0  0  0  0  0  0  0  0  0  0
    3.0259    4.5968    5.1717 C   0  0  0  0  0  0  0  0  0  0  0  0
    3.3960    4.5537    6.1854 H   0  0  0  0  0  0  0  0  0  0  0  0
    1.9561    5.4225    4.8701 C   0  0  0  0  0  0  0  0  0  0  0  0
    1.5009    6.0196    5.6453 H   0  0  0  0  0  0  0  0  0  0  0  0
    1.4833    5.4918    3.5702 C   0  0  0  0  0  0  0  0  0  0  0  0
    0.6637    6.1486    3.3219 H   0  0  0  0  0  0  0  0  0  0  0  0
    2.0696    4.7221    2.5862 C   0  0  0  0  0  0  0  0  0  0  0  0
    1.7386    4.8068    1.5618 H   0  0  0  0  0  0  0  0  0  0  0  0
    4.8029    2.9480    4.5443 C   0  0  0  0  0  0  0  0  0  0  0  0
    4.9572    2.9150    5.6198 H   0  0  0  0  0  0  0  0  0  0  0  0
    5.7187    3.3433    4.0841 H   0  0  0  0  0  0  0  0  0  0  0  0
    4.6596    1.9338    4.1750 H   0  0  0  0  0  0  0  0  0  0  0  0
  1  2  1  0  0  0  0
  3  1  1  0  0  0  0
  4  6  1  0  0  0  0
  5 17  1  0  0  0  0
  6 15  1  0  0  0  0
  7  8  1  0  0  0  0
  7  6  2  0  0  0  0
  9  7  1  0  0  0  0
 10  9  1  0  0  0  0
 11  9  2  0  0  0  0
 11 13  1  0  0  0  0
 12 11  1  0  0  0  0
 13  4  2  0  0  0  0
 14 13  1  0  0  0  0
 15 16  1  0  0  0  0
 15  5  2  0  0  0  0
 17 18  1  0  0  0  0
 18 27  1  0  0  0  0
 18 19  2  0  0  0  0
 19 20  1  0  0  0  0
 21 19  1  0  0  0  0
 21 22  1  0  0  0  0
 23 21  2  0  0  0  0
 24 23  1  0  0  0  0
 25 17  2  0  0  0  0
 25 23  1  0  0  0  0
 26 25  1  0  0  0  0
 27 28  1  0  0  0  0
 29 27  1  0  0  0  0
 30 27  1  0  0  0  0
M  END
$$$$
