CSD_code = ISOSAM | q = 0 | S = 0 | Stoichiometry = C14H14Cl2HgN2 | MND = 4
 OpenBabel04212202053D

 33 33  0  0  0  0  0  0  0  0999 V2000
    6.5354    0.9226    9.3285 Hg  0  0  0  0  0  0  0  0  0  0  0  0
    6.9196   -0.7922    7.8790 Cl  0  0  0  0  0  0  0  0  0  0  0  0
    6.5158    1.5784   11.5285 Cl  0  0  0  0  0  0  0  0  0  0  0  0
    4.1527    1.5490    8.9888 N   0  0  0  0  0  0  0  0  0  0  0  0
    6.2578    3.2885    8.5352 N   0  0  0  0  0  0  0  0  0  0  0  0
    3.9441    2.8712    8.9623 C   0  0  0  0  0  0  0  0  0  0  0  0
    2.6670    3.4154    9.1040 C   0  0  0  0  0  0  0  0  0  0  0  0
    2.5322    4.4860    9.0818 H   0  0  0  0  0  0  0  0  0  0  0  0
    1.5883    2.5652    9.2741 C   0  0  0  0  0  0  0  0  0  0  0  0
    0.5907    2.9609    9.3918 H   0  0  0  0  0  0  0  0  0  0  0  0
    1.8156    1.1984    9.2890 C   0  0  0  0  0  0  0  0  0  0  0  0
    1.0056    0.4983    9.4159 H   0  0  0  0  0  0  0  0  0  0  0  0
    3.1185    0.7407    9.1429 C   0  0  0  0  0  0  0  0  0  0  0  0
    3.3402   -0.3184    9.1469 H   0  0  0  0  0  0  0  0  0  0  0  0
    5.0937    3.7447    8.7700 C   0  0  0  0  0  0  0  0  0  0  0  0
    4.8879    4.8169    8.7942 H   0  0  0  0  0  0  0  0  0  0  0  0
    7.3601    4.1286    8.3815 C   0  0  0  0  0  0  0  0  0  0  0  0
    8.1625    3.9259    7.2451 C   0  0  0  0  0  0  0  0  0  0  0  0
    9.2802    4.7221    7.0642 C   0  0  0  0  0  0  0  0  0  0  0  0
    9.8922    4.5815    6.1857 H   0  0  0  0  0  0  0  0  0  0  0  0
    9.6222    5.6840    7.9993 C   0  0  0  0  0  0  0  0  0  0  0  0
   10.5005    6.2940    7.8517 H   0  0  0  0  0  0  0  0  0  0  0  0
    8.8462    5.8514    9.1303 C   0  0  0  0  0  0  0  0  0  0  0  0
    9.1284    6.5854    9.8708 H   0  0  0  0  0  0  0  0  0  0  0  0
    7.7028    5.0923    9.3434 C   0  0  0  0  0  0  0  0  0  0  0  0
    7.7770    2.8947    6.2324 C   0  0  0  0  0  0  0  0  0  0  0  0
    8.5342    2.8173    5.4569 H   0  0  0  0  0  0  0  0  0  0  0  0
    6.8241    3.1460    5.7675 H   0  0  0  0  0  0  0  0  0  0  0  0
    7.6596    1.9167    6.7068 H   0  0  0  0  0  0  0  0  0  0  0  0
    6.9320    5.2701   10.6178 C   0  0  0  0  0  0  0  0  0  0  0  0
    6.4615    4.3402   10.9322 H   0  0  0  0  0  0  0  0  0  0  0  0
    6.1597    6.0319   10.5067 H   0  0  0  0  0  0  0  0  0  0  0  0
    7.6042    5.5963   11.4081 H   0  0  0  0  0  0  0  0  0  0  0  0
  1  3  1  0  0  0  0
  2  1  1  0  0  0  0
  4 13  1  0  0  0  0
  5 15  2  0  0  0  0
  6  4  2  0  0  0  0
  6  7  1  0  0  0  0
  7  9  2  0  0  0  0
  8  7  1  0  0  0  0
  9 11  1  0  0  0  0
  9 10  1  0  0  0  0
 11 12  1  0  0  0  0
 13 14  1  0  0  0  0
 13 11  2  0  0  0  0
 15 16  1  0  0  0  0
 15  6  1  0  0  0  0
 17  5  1  0  0  0  0
 17 25  1  0  0  0  0
 18 17  2  0  0  0  0
 19 18  1  0  0  0  0
 19 21  2  0  0  0  0
 20 19  1  0  0  0  0
 21 23  1  0  0  0  0
 22 21  1  0  0  0  0
 23 25  2  0  0  0  0
 23 24  1  0  0  0  0
 25 30  1  0  0  0  0
 26 29  1  0  0  0  0
 26 18  1  0  0  0  0
 27 26  1  0  0  0  0
 28 26  1  0  0  0  0
 30 31  1  0  0  0  0
 30 33  1  0  0  0  0
 32 30  1  0  0  0  0
M  END
$$$$
