CSD_code = ISOSOA | q = 0 | S = 0 | Stoichiometry = C15H16Cl2HgN2 | MND = 4
 OpenBabel04212202053D

 36 37  0  0  1  0  0  0  0  0999 V2000
    1.6735    2.7812   -0.1525 Hg  0  0  0  0  0  0  0  0  0  0  0  0
   -0.2217    2.5879   -1.4030 Cl  0  0  0  0  0  0  0  0  0  0  0  0
    3.0311    4.2419    0.9841 Cl  0  0  0  0  0  0  0  0  0  0  0  0
    1.2954    1.3348    1.8223 N   0  0  0  0  0  0  0  0  0  0  0  0
    3.3721    0.9468    0.0317 N   0  0  0  0  0  0  0  0  0  0  0  0
    2.3673    0.6131    2.1737 C   0  0  1  0  0  3  0  0  0  0  0  0
    2.4467   -0.0249    3.4127 C   0  0  0  0  0  0  0  0  0  0  0  0
    3.3256   -0.5971    3.6680 H   0  0  0  0  0  0  0  0  0  0  0  0
    1.3895    0.0891    4.2977 C   0  0  0  0  0  0  0  0  0  0  0  0
    1.4278   -0.3908    5.2643 H   0  0  0  0  0  0  0  0  0  0  0  0
    0.2816    0.8304    3.9181 C   0  0  0  0  0  0  0  0  0  0  0  0
   -0.5658    0.9453    4.5746 H   0  0  0  0  0  0  0  0  0  0  0  0
    0.2846    1.4348    2.6682 C   0  0  0  0  0  0  0  0  0  0  0  0
   -0.5600    2.0218    2.3320 H   0  0  0  0  0  0  0  0  0  0  0  0
    3.4603    0.4960    1.2197 C   0  0  0  0  0  0  0  0  0  0  0  0
    4.3418   -0.0458    1.5679 H   0  0  0  0  0  0  0  0  0  0  0  0
    4.4301    0.8652   -0.8688 C   0  0  0  0  0  0  0  0  0  0  0  0
    5.7278    1.3013   -0.5498 C   0  0  0  0  0  0  0  0  0  0  0  0
    6.7038    1.2267   -1.5311 C   0  0  0  0  0  0  0  0  0  0  0  0
    7.6995    1.5780   -1.2999 H   0  0  0  0  0  0  0  0  0  0  0  0
    6.4455    0.7201   -2.7974 C   0  0  0  0  0  0  0  0  0  0  0  0
    5.1537    0.3053   -3.0926 C   0  0  0  0  0  0  0  0  0  0  0  0
    4.9310   -0.0817   -4.0765 H   0  0  0  0  0  0  0  0  0  0  0  0
    4.1377    0.3848   -2.1573 C   0  0  0  0  0  0  0  0  0  0  0  0
    6.0688    1.9240    0.7716 C   0  0  0  0  0  0  0  0  0  0  0  0
    5.2063    2.4225    1.2105 H   0  0  0  0  0  0  0  0  0  0  0  0
    6.8555    2.6624    0.6345 H   0  0  0  0  0  0  0  0  0  0  0  0
    6.4368    1.1768    1.4754 H   0  0  0  0  0  0  0  0  0  0  0  0
    7.5358    0.6534   -3.8205 C   0  0  0  0  0  0  0  0  0  0  0  0
    7.2166    0.0943   -4.6959 H   0  0  0  0  0  0  0  0  0  0  0  0
    8.4236    0.1808   -3.4038 H   0  0  0  0  0  0  0  0  0  0  0  0
    7.8129    1.6590   -4.1361 H   0  0  0  0  0  0  0  0  0  0  0  0
    2.7547   -0.0818   -2.4855 C   0  0  0  0  0  0  0  0  0  0  0  0
    2.6808   -0.3558   -3.5344 H   0  0  0  0  0  0  0  0  0  0  0  0
    2.0247    0.7051   -2.2767 H   0  0  0  0  0  0  0  0  0  0  0  0
    2.4835   -0.9448   -1.8780 H   0  0  0  0  0  0  0  0  0  0  0  0
  1  3  1  0  0  0  0
  1  4  1  0  0  0  0
  2  1  1  0  0  0  0
  4  6  1  0  0  0  0
  4 13  1  0  0  0  0
  5 15  2  0  0  0  0
  6 15  1  6  0  0  0
  6  7  1  0  0  0  0
  7  8  1  0  0  0  0
  7  9  2  0  0  0  0
  9 10  1  0  0  0  0
 11  9  1  0  0  0  0
 11 12  1  0  0  0  0
 13 11  2  0  0  0  0
 14 13  1  0  0  0  0
 15 16  1  0  0  0  0
 17 18  1  0  0  0  0
 17  5  1  0  0  0  0
 18 25  1  0  0  0  0
 19 20  1  0  0  0  0
 19 18  2  0  0  0  0
 21 19  1  0  0  0  0
 22 21  2  0  0  0  0
 22 24  1  0  0  0  0
 23 22  1  0  0  0  0
 24 17  2  0  0  0  0
 25 26  1  0  0  0  0
 25 28  1  0  0  0  0
 27 25  1  0  0  0  0
 29 31  1  0  0  0  0
 29 21  1  0  0  0  0
 30 29  1  0  0  0  0
 32 29  1  0  0  0  0
 33 35  1  0  0  0  0
 33 24  1  0  0  0  0
 33 36  1  0  0  0  0
 34 33  1  0  0  0  0
M  END
$$$$
