CSD_code = ISUKUC | q = 0 | S = 0 | Stoichiometry = C15H26Cl2N2Ni | MND = 4
 OpenBabel04212202053D

 46 50  0  0  1  0  0  0  0  0999 V2000
    2.5414    2.9259    1.5471 Ni  0  0  0  0  0  0  0  0  0  0  0  0
    2.4648    4.8049    0.6784 Cl  0  0  0  0  0  0  0  0  0  0  0  0
    2.0368    1.9644   -0.1597 Cl  0  0  0  0  0  0  0  0  0  0  0  0
    3.4067    3.5192    3.2766 N   0  0  2  0  0  4  0  0  0  0  0  0
    4.7780    3.8829    2.8819 C   0  0  0  0  0  0  0  0  0  0  0  0
    5.3952    4.0275    3.7833 H   0  0  0  0  0  0  0  0  0  0  0  0
    4.7356    4.8271    2.3334 H   0  0  0  0  0  0  0  0  0  0  0  0
    5.3943    2.7988    2.0001 C   0  0  0  0  0  0  0  0  0  0  0  0
    6.4042    3.0939    1.7129 H   0  0  0  0  0  0  0  0  0  0  0  0
    4.7966    2.7070    1.0731 H   0  0  0  0  0  0  0  0  0  0  0  0
    5.4008    1.4627    2.7349 C   0  0  0  0  0  0  0  0  0  0  0  0
    6.0745    1.5148    3.5952 H   0  0  0  0  0  0  0  0  0  0  0  0
    5.7565    0.6694    2.0758 H   0  0  0  0  0  0  0  0  0  0  0  0
    3.9837    1.1589    3.2099 C   0  0  0  0  0  0  0  0  0  0  0  0
    3.3280    1.0659    2.3264 H   0  0  0  0  0  0  0  0  0  0  0  0
    3.9473    0.2138    3.7548 H   0  0  0  0  0  0  0  0  0  0  0  0
    3.4753    2.2977    4.1005 C   0  0  2  0  0  0  0  0  0  0  0  0
    4.2157    2.4676    4.9047 H   0  0  0  0  0  0  0  0  0  0  0  0
    2.1525    1.9530    4.8092 C   0  0  2  0  0  0  0  0  0  0  0  0
    2.3553    1.0952    5.4613 H   0  0  0  0  0  0  0  0  0  0  0  0
    1.4731    4.2929    4.6547 C   0  0  2  0  0  0  0  0  0  0  0  0
    1.1341    5.1861    5.1897 H   0  0  0  0  0  0  0  0  0  0  0  0
    0.6883    2.6542    2.9519 N   0  0  2  0  0  4  0  0  0  0  0  0
   -0.3944    2.3052    2.0188 C   0  0  0  0  0  0  0  0  0  0  0  0
   -0.1556    1.3398    1.5663 H   0  0  0  0  0  0  0  0  0  0  0  0
   -0.3909    3.0600    1.2250 H   0  0  0  0  0  0  0  0  0  0  0  0
   -1.7864    2.2632    2.6471 C   0  0  0  0  0  0  0  0  0  0  0  0
   -1.8463    1.4748    3.4006 H   0  0  0  0  0  0  0  0  0  0  0  0
   -2.5136    2.0316    1.8680 H   0  0  0  0  0  0  0  0  0  0  0  0
   -2.0925    3.6141    3.2810 C   0  0  0  0  0  0  0  0  0  0  0  0
   -3.0703    3.6011    3.7671 H   0  0  0  0  0  0  0  0  0  0  0  0
   -2.1107    4.3824    2.5051 H   0  0  0  0  0  0  0  0  0  0  0  0
   -1.0040    3.9416    4.2967 C   0  0  0  0  0  0  0  0  0  0  0  0
   -1.0503    3.2192    5.1133 H   0  0  0  0  0  0  0  0  0  0  0  0
   -1.1736    4.9325    4.7218 H   0  0  0  0  0  0  0  0  0  0  0  0
    0.3829    3.9250    3.6331 C   0  0  1  0  0  0  0  0  0  0  0  0
    0.3835    4.6932    2.8475 H   0  0  0  0  0  0  0  0  0  0  0  0
    2.8092    4.6434    3.9998 C   0  0  0  0  0  0  0  0  0  0  0  0
    2.6751    5.4603    3.2856 H   0  0  0  0  0  0  0  0  0  0  0  0
    3.5006    4.9799    4.7894 H   0  0  0  0  0  0  0  0  0  0  0  0
    0.9880    1.5752    3.8891 C   0  0  0  0  0  0  0  0  0  0  0  0
    1.2286    0.6793    3.3103 H   0  0  0  0  0  0  0  0  0  0  0  0
    0.1278    1.3289    4.5295 H   0  0  0  0  0  0  0  0  0  0  0  0
    1.7175    3.1547    5.6408 C   0  0  0  0  0  0  0  0  0  0  0  0
    2.4962    3.4368    6.3534 H   0  0  0  0  0  0  0  0  0  0  0  0
    0.8188    2.9208    6.2117 H   0  0  0  0  0  0  0  0  0  0  0  0
  1 23  1  0  0  0  0
  1  4  1  0  0  0  0
  2  1  1  0  0  0  0
  3  1  1  0  0  0  0
  4  5  1  6  0  0  0
  4 38  1  0  0  0  0
  4 17  1  0  0  0  0
  5  6  1  0  0  0  0
  7  5  1  0  0  0  0
  8 11  1  0  0  0  0
  8  5  1  0  0  0  0
  9  8  1  0  0  0  0
 10  8  1  0  0  0  0
 11 14  1  0  0  0  0
 11 12  1  0  0  0  0
 13 11  1  0  0  0  0
 14 16  1  0  0  0  0
 14 17  1  0  0  0  0
 15 14  1  0  0  0  0
 17 19  1  0  0  0  0
 17 18  1  1  0  0  0
 19 20  1  1  0  0  0
 19 44  1  0  0  0  0
 21 22  1  1  0  0  0
 21 44  1  0  0  0  0
 23 24  1  6  0  0  0
 23 36  1  0  0  0  0
 23 41  1  0  0  0  0
 24 27  1  0  0  0  0
 25 24  1  0  0  0  0
 26 24  1  0  0  0  0
 27 30  1  0  0  0  0
 27 28  1  0  0  0  0
 29 27  1  0  0  0  0
 30 31  1  0  0  0  0
 30 33  1  0  0  0  0
 32 30  1  0  0  0  0
 33 35  1  0  0  0  0
 33 34  1  0  0  0  0
 36 37  1  6  0  0  0
 36 33  1  0  0  0  0
 36 21  1  0  0  0  0
 38 21  1  0  0  0  0
 38 40  1  0  0  0  0
 39 38  1  0  0  0  0
 41 43  1  0  0  0  0
 41 19  1  0  0  0  0
 42 41  1  0  0  0  0
 44 46  1  0  0  0  0
 44 45  1  0  0  0  0
M  END
$$$$
