CSD_code = ISUZAX | q = 0 | S = 0 | Stoichiometry = C13H22Cl3NZr | MND = 9
 OpenBabel04212202053D

 40 40  0  0  1  0  0  0  0  0999 V2000
    1.9635    1.8067    3.4909 Zr  0  0  0  0  0  0  0  0  0  0  0  0
    0.1514    1.7167    1.9939 Cl  0  0  0  0  0  0  0  0  0  0  0  0
    0.2938    1.6945    5.1427 Cl  0  0  0  0  0  0  0  0  0  0  0  0
    2.8135   -0.1445    4.4917 Cl  0  0  0  0  0  0  0  0  0  0  0  0
    3.0499    0.9684    1.4976 N   0  0  0  0  0  0  0  0  0  0  0  0
    3.8965    3.2129    3.0015 C   0  0  1  0  0  3  0  0  0  0  0  0
    2.7112    3.9839    2.7965 C   0  0  2  0  0  0  0  0  0  0  0  0
    2.0773    4.1451    4.0628 C   0  0  1  0  0  3  0  0  0  0  0  0
    2.8730    3.4876    5.0448 C   0  0  0  0  0  0  0  0  0  0  0  0
    3.9914    2.9124    4.3895 C   0  0  0  0  0  0  0  0  0  0  0  0
    4.8266    2.6502    1.9625 C   0  0  0  0  0  0  0  0  0  0  0  0
    4.4922    1.1612    1.7402 C   0  0  0  0  0  0  0  0  0  0  0  0
    2.6946    1.5536    0.1964 C   0  0  0  0  0  0  0  0  0  0  0  0
    2.7437   -0.4683    1.3985 C   0  0  0  0  0  0  0  0  0  0  0  0
    2.2432    4.6922    1.5517 C   0  0  0  0  0  0  0  0  0  0  0  0
    0.7951    4.9005    4.2769 C   0  0  0  0  0  0  0  0  0  0  0  0
    2.6434    3.4277    6.5274 C   0  0  0  0  0  0  0  0  0  0  0  0
    5.1269    2.2236    5.0933 C   0  0  0  0  0  0  0  0  0  0  0  0
    5.8644    2.7217    2.2995 H   0  0  0  0  0  0  0  0  0  0  0  0
    4.7546    3.2087    1.0273 H   0  0  0  0  0  0  0  0  0  0  0  0
    5.0784    0.7645    0.8953 H   0  0  0  0  0  0  0  0  0  0  0  0
    4.7550    0.6012    2.6464 H   0  0  0  0  0  0  0  0  0  0  0  0
    3.2918    1.0950   -0.6038 H   0  0  0  0  0  0  0  0  0  0  0  0
    2.8665    2.6246    0.1919 H   0  0  0  0  0  0  0  0  0  0  0  0
    1.6388    1.3767   -0.0043 H   0  0  0  0  0  0  0  0  0  0  0  0
    3.2008   -0.9012    0.4978 H   0  0  0  0  0  0  0  0  0  0  0  0
    1.6582   -0.5975    1.3392 H   0  0  0  0  0  0  0  0  0  0  0  0
    3.1198   -1.0061    2.2694 H   0  0  0  0  0  0  0  0  0  0  0  0
    1.9579    5.7144    1.8035 H   0  0  0  0  0  0  0  0  0  0  0  0
    1.3683    4.2033    1.1132 H   0  0  0  0  0  0  0  0  0  0  0  0
    3.0344    4.7509    0.8053 H   0  0  0  0  0  0  0  0  0  0  0  0
    0.9678    5.9791    4.2480 H   0  0  0  0  0  0  0  0  0  0  0  0
    0.3560    4.6496    5.2412 H   0  0  0  0  0  0  0  0  0  0  0  0
    0.0716    4.6470    3.4969 H   0  0  0  0  0  0  0  0  0  0  0  0
    3.3693    4.0542    7.0507 H   0  0  0  0  0  0  0  0  0  0  0  0
    2.7548    2.4021    6.8864 H   0  0  0  0  0  0  0  0  0  0  0  0
    1.6443    3.7723    6.7842 H   0  0  0  0  0  0  0  0  0  0  0  0
    5.3983    2.7811    5.9896 H   0  0  0  0  0  0  0  0  0  0  0  0
    6.0052    2.1608    4.4540 H   0  0  0  0  0  0  0  0  0  0  0  0
    4.8516    1.2123    5.3997 H   0  0  0  0  0  0  0  0  0  0  0  0
  1  4  1  0  0  0  0
  1  3  1  0  0  0  0
  2  1  1  0  0  0  0
  5 12  1  0  0  0  0
  6 11  1  6  0  0  0
  6 10  1  0  0  0  0
  7 15  1  6  0  0  0
  7  6  1  0  0  0  0
  7  1  1  0  0  0  0
  7  8  1  0  0  0  0
  8 16  1  1  0  0  0
  8  9  1  0  0  0  0
  9 17  1  0  0  0  0
 10  9  2  0  0  0  0
 10 18  1  0  0  0  0
 11 19  1  0  0  0  0
 12 11  1  0  0  0  0
 12 22  1  0  0  0  0
 13  5  1  0  0  0  0
 14  5  1  0  0  0  0
 14 28  1  0  0  0  0
 15 29  1  0  0  0  0
 16 33  1  0  0  0  0
 17 37  1  0  0  0  0
 17 36  1  0  0  0  0
 17 35  1  0  0  0  0
 18 40  1  0  0  0  0
 18 38  1  0  0  0  0
 20 11  1  0  0  0  0
 21 12  1  0  0  0  0
 23 13  1  0  0  0  0
 24 13  1  0  0  0  0
 25 13  1  0  0  0  0
 26 14  1  0  0  0  0
 27 14  1  0  0  0  0
 30 15  1  0  0  0  0
 31 15  1  0  0  0  0
 32 16  1  0  0  0  0
 34 16  1  0  0  0  0
 39 18  1  0  0  0  0
M  END
$$$$
