CSD_code = ITAVAA | q = 0 | S = 0 | Stoichiometry = C25H28ClCuN3P | MND = 3
 OpenBabel04212202053D

 59 63  0  0  1  0  0  0  0  0999 V2000
    7.5244    1.4916   12.6052 Cu  0  0  0  0  0  0  0  0  0  0  0  0
    6.6072    2.2695   14.4678 Cl  0  0  0  0  0  0  0  0  0  0  0  0
    6.4034    1.1904   10.7191 P   0  0  0  0  0  4  0  0  0  0  0  0
    9.4327    0.9250   12.7443 N   0  0  0  0  0  0  0  0  0  0  0  0
   11.4817    0.8240   13.8936 N   0  0  2  0  0  0  0  0  0  0  0  0
    9.4950    1.3378   14.9838 N   0  0  0  0  0  0  0  0  0  0  0  0
    8.5068    1.6009   14.8919 H   0  0  0  0  0  0  0  0  0  0  0  0
   10.1358    1.0346   13.8436 C   0  0  2  0  0  3  0  0  0  0  0  0
   10.1025    0.5465   11.5183 C   0  0  0  0  0  0  0  0  0  0  0  0
   10.4683    1.4424   10.9953 H   0  0  0  0  0  0  0  0  0  0  0  0
    9.3661    0.0660   10.8655 H   0  0  0  0  0  0  0  0  0  0  0  0
   11.2649   -0.3982   11.8016 C   0  0  0  0  0  0  0  0  0  0  0  0
   10.8795   -1.3060   12.2700 H   0  0  0  0  0  0  0  0  0  0  0  0
   11.7828   -0.6679   10.8819 H   0  0  0  0  0  0  0  0  0  0  0  0
   12.2135    0.3066   12.7581 C   0  0  0  0  0  0  0  0  0  0  0  0
   12.9737   -0.3916   13.1274 H   0  0  0  0  0  0  0  0  0  0  0  0
   12.7305    1.1274   12.2392 H   0  0  0  0  0  0  0  0  0  0  0  0
   12.2575    1.0860   15.0865 C   0  0  0  0  0  0  0  0  0  0  0  0
   13.2438    1.4477   14.7757 H   0  0  0  0  0  0  0  0  0  0  0  0
   12.4015    0.1564   15.6571 H   0  0  0  0  0  0  0  0  0  0  0  0
   11.5632    2.1241   15.9560 C   0  0  0  0  0  0  0  0  0  0  0  0
   11.5114    3.0736   15.4201 H   0  0  0  0  0  0  0  0  0  0  0  0
   12.1157    2.2716   16.8829 H   0  0  0  0  0  0  0  0  0  0  0  0
   10.1519    1.6234   16.2330 C   0  0  0  0  0  0  0  0  0  0  0  0
   10.1948    0.7167   16.8535 H   0  0  0  0  0  0  0  0  0  0  0  0
    9.5640    2.3716   16.7680 H   0  0  0  0  0  0  0  0  0  0  0  0
    7.3182    1.3006    9.1503 C   0  0  0  0  0  0  0  0  0  0  0  0
    7.6721    0.1896    8.3926 C   0  0  0  0  0  0  0  0  0  0  0  0
    7.3305   -0.7936    8.6859 H   0  0  0  0  0  0  0  0  0  0  0  0
    8.4537    0.3456    7.2613 C   0  0  0  0  0  0  0  0  0  0  0  0
    8.7196   -0.5195    6.6709 H   0  0  0  0  0  0  0  0  0  0  0  0
    8.8945    1.6031    6.8839 C   0  0  0  0  0  0  0  0  0  0  0  0
    9.5024    1.7196    5.9989 H   0  0  0  0  0  0  0  0  0  0  0  0
    8.5589    2.7123    7.6460 C   0  0  0  0  0  0  0  0  0  0  0  0
    8.9074    3.6930    7.3560 H   0  0  0  0  0  0  0  0  0  0  0  0
    7.7830    2.5615    8.7781 C   0  0  0  0  0  0  0  0  0  0  0  0
    7.5213    3.4176    9.3869 H   0  0  0  0  0  0  0  0  0  0  0  0
    5.7000   -0.4901   10.6530 C   0  0  0  0  0  0  0  0  0  0  0  0
    6.2813   -1.4507   11.4750 C   0  0  0  0  0  0  0  0  0  0  0  0
    7.1011   -1.1593   12.1206 H   0  0  0  0  0  0  0  0  0  0  0  0
    5.8054   -2.7491   11.4710 C   0  0  0  0  0  0  0  0  0  0  0  0
    6.2576   -3.4930   12.1108 H   0  0  0  0  0  0  0  0  0  0  0  0
    4.7413   -3.0914   10.6524 C   0  0  0  0  0  0  0  0  0  0  0  0
    4.3641   -4.1036   10.6520 H   0  0  0  0  0  0  0  0  0  0  0  0
    4.1533   -2.1346    9.8402 C   0  0  0  0  0  0  0  0  0  0  0  0
    3.3191   -2.4024    9.2080 H   0  0  0  0  0  0  0  0  0  0  0  0
    4.6277   -0.8355    9.8374 C   0  0  0  0  0  0  0  0  0  0  0  0
    4.1654   -0.0881    9.2081 H   0  0  0  0  0  0  0  0  0  0  0  0
    4.9423    2.2302   10.3946 C   0  0  0  0  0  0  0  0  0  0  0  0
    4.4861    2.5587    9.1218 C   0  0  0  0  0  0  0  0  0  0  0  0
    5.0221    2.2157    8.2469 H   0  0  0  0  0  0  0  0  0  0  0  0
    3.3497    3.3346    8.9808 C   0  0  0  0  0  0  0  0  0  0  0  0
    2.9951    3.5901    7.9923 H   0  0  0  0  0  0  0  0  0  0  0  0
    2.6666    3.7841   10.0998 C   0  0  0  0  0  0  0  0  0  0  0  0
    1.7805    4.3904    9.9809 H   0  0  0  0  0  0  0  0  0  0  0  0
    3.1232    3.4643   11.3683 C   0  0  0  0  0  0  0  0  0  0  0  0
    2.5976    3.8227   12.2408 H   0  0  0  0  0  0  0  0  0  0  0  0
    4.2603    2.6921   11.5171 C   0  0  0  0  0  0  0  0  0  0  0  0
    4.6407    2.4517   12.5017 H   0  0  0  0  0  0  0  0  0  0  0  0
  1  4  1  0  0  0  0
  1  2  1  0  0  0  0
  3  1  1  0  0  0  0
  5 15  1  1  0  0  0
  5 18  1  0  0  0  0
  6 24  1  0  0  0  0
  7  6  1  0  0  0  0
  8  4  1  1  0  0  0
  8  5  1  0  0  0  0
  8  6  1  0  0  0  0
  9 12  1  0  0  0  0
  9  4  1  0  0  0  0
 10  9  1  0  0  0  0
 11  9  1  0  0  0  0
 12 13  1  0  0  0  0
 12 15  1  0  0  0  0
 14 12  1  0  0  0  0
 15 16  1  0  0  0  0
 17 15  1  0  0  0  0
 18 20  1  0  0  0  0
 18 21  1  0  0  0  0
 19 18  1  0  0  0  0
 21 24  1  0  0  0  0
 21 23  1  0  0  0  0
 22 21  1  0  0  0  0
 24 26  1  0  0  0  0
 24 25  1  0  0  0  0
 27  3  1  0  0  0  0
 28 29  1  0  0  0  0
 28 27  2  0  0  0  0
 30 28  1  0  0  0  0
 31 30  1  0  0  0  0
 32 30  2  0  0  0  0
 32 34  1  0  0  0  0
 33 32  1  0  0  0  0
 34 36  2  0  0  0  0
 35 34  1  0  0  0  0
 36 27  1  0  0  0  0
 36 37  1  0  0  0  0
 38  3  1  0  0  0  0
 38 39  1  0  0  0  0
 39 40  1  0  0  0  0
 41 39  2  0  0  0  0
 41 42  1  0  0  0  0
 43 41  1  0  0  0  0
 44 43  1  0  0  0  0
 45 43  2  0  0  0  0
 46 45  1  0  0  0  0
 47 45  1  0  0  0  0
 47 38  2  0  0  0  0
 48 47  1  0  0  0  0
 49  3  1  0  0  0  0
 49 58  1  0  0  0  0
 50 49  2  0  0  0  0
 51 50  1  0  0  0  0
 52 50  1  0  0  0  0
 52 54  2  0  0  0  0
 53 52  1  0  0  0  0
 54 56  1  0  0  0  0
 55 54  1  0  0  0  0
 56 58  2  0  0  0  0
 56 57  1  0  0  0  0
 58 59  1  0  0  0  0
M  END
$$$$
