CSD_code = ITECEP | q = 1 | S = 0 | Stoichiometry = C9H22Cl2CoN4O2(1+) | MND = 6
 OpenBabel04212202053D

 40 42  0  0  1  0  0  0  0  0999 V2000
    4.7964    1.6697    2.5858 Co  0  0  0  0  0  0  0  0  0  0  0  0
    6.4756    0.8604    1.4024 Cl  0  0  0  0  0  0  0  0  0  0  0  0
    3.1617    2.5449    3.8091 Cl  0  0  0  0  0  0  0  0  0  0  0  0
    4.8863    3.3312    1.5189 N   0  0  0  0  0  4  0  0  0  0  0  0
    5.7590    3.3057    0.9839 H   0  0  0  0  0  0  0  0  0  0  0  0
    4.8801    4.1953    2.0616 H   0  0  0  0  0  0  0  0  0  0  0  0
    3.4880    1.0639    1.2609 N   0  0  1  0  0  4  0  0  0  0  0  0
    2.5765    1.2698    1.6919 H   0  0  0  0  0  0  0  0  0  0  0  0
    4.6751    0.0362    3.6682 N   0  0  1  0  0  4  0  0  0  0  0  0
    3.8562    0.2325    4.2544 H   0  0  0  0  0  0  0  0  0  0  0  0
    6.1081    2.2886    3.9351 N   0  0  0  0  0  4  0  0  0  0  0  0
    5.9906    3.2541    4.2431 H   0  0  0  0  0  0  0  0  0  0  0  0
    7.0384    2.2061    3.5159 H   0  0  0  0  0  0  0  0  0  0  0  0
    1.8772   -1.3701    4.0575 O   0  0  0  0  0  0  0  0  0  0  0  0
    1.0350   -1.1350    4.4823 H   0  0  0  0  0  0  0  0  0  0  0  0
    1.1445   -0.0960    2.3782 O   0  0  0  0  0  0  0  0  0  0  0  0
    3.7560    3.3499    0.5755 C   0  0  0  0  0  0  0  0  0  0  0  0
    3.9276    4.0459   -0.2504 H   0  0  0  0  0  0  0  0  0  0  0  0
    2.8571    3.6545    1.1171 H   0  0  0  0  0  0  0  0  0  0  0  0
    3.5965    1.9241    0.0721 C   0  0  0  0  0  0  0  0  0  0  0  0
    2.7142    1.8227   -0.5666 H   0  0  0  0  0  0  0  0  0  0  0  0
    4.4832    1.6238   -0.4927 H   0  0  0  0  0  0  0  0  0  0  0  0
    3.4491   -0.3536    0.8900 C   0  0  0  0  0  0  0  0  0  0  0  0
    4.3907   -0.6144    0.4023 H   0  0  0  0  0  0  0  0  0  0  0  0
    2.6282   -0.5123    0.1818 H   0  0  0  0  0  0  0  0  0  0  0  0
    3.2334   -1.2694    2.1022 C   0  0  1  0  0  0  0  0  0  0  0  0
    4.4587   -1.2619    3.0235 C   0  0  0  0  0  0  0  0  0  0  0  0
    4.3300   -2.0316    3.7922 H   0  0  0  0  0  0  0  0  0  0  0  0
    5.3453   -1.5017    2.4315 H   0  0  0  0  0  0  0  0  0  0  0  0
    1.9690   -0.8342    2.8462 C   0  0  0  0  0  0  0  0  0  0  0  0
    2.9837   -2.7042    1.6123 C   0  0  0  0  0  0  0  0  0  0  0  0
    2.8302   -3.3723    2.4552 H   0  0  0  0  0  0  0  0  0  0  0  0
    3.8372   -3.0553    1.0389 H   0  0  0  0  0  0  0  0  0  0  0  0
    2.1016   -2.7427    0.9785 H   0  0  0  0  0  0  0  0  0  0  0  0
    5.8384   -0.0071    4.5690 C   0  0  0  0  0  0  0  0  0  0  0  0
    6.7114   -0.3116    3.9860 H   0  0  0  0  0  0  0  0  0  0  0  0
    5.6826   -0.7256    5.3795 H   0  0  0  0  0  0  0  0  0  0  0  0
    6.0375    1.4015    5.1069 C   0  0  0  0  0  0  0  0  0  0  0  0
    5.1751    1.6956    5.7101 H   0  0  0  0  0  0  0  0  0  0  0  0
    6.9403    1.4652    5.7209 H   0  0  0  0  0  0  0  0  0  0  0  0
  1  9  1  0  0  0  0
  1  3  1  0  0  0  0
  1 11  1  0  0  0  0
  2  1  1  0  0  0  0
  4  6  1  0  0  0  0
  4  1  1  0  0  0  0
  5  4  1  0  0  0  0
  7  8  1  1  0  0  0
  7  1  1  0  0  0  0
  9 10  1  1  0  0  0
  9 35  1  0  0  0  0
 11 12  1  0  0  0  0
 11 38  1  0  0  0  0
 13 11  1  0  0  0  0
 14 15  1  0  0  0  0
 16 30  2  0  0  0  0
 17 19  1  0  0  0  0
 17  4  1  0  0  0  0
 18 17  1  0  0  0  0
 20 17  1  0  0  0  0
 20  7  1  0  0  0  0
 21 20  1  0  0  0  0
 22 20  1  0  0  0  0
 23  7  1  0  0  0  0
 23 26  1  0  0  0  0
 24 23  1  0  0  0  0
 25 23  1  0  0  0  0
 26 30  1  1  0  0  0
 26 27  1  0  0  0  0
 27  9  1  0  0  0  0
 27 28  1  0  0  0  0
 29 27  1  0  0  0  0
 30 14  1  0  0  0  0
 31 26  1  0  0  0  0
 31 32  1  0  0  0  0
 33 31  1  0  0  0  0
 34 31  1  0  0  0  0
 35 38  1  0  0  0  0
 35 37  1  0  0  0  0
 36 35  1  0  0  0  0
 38 39  1  0  0  0  0
 38 40  1  0  0  0  0
M  END
$$$$
