CSD_code = ITIHAV | q = 0 | S = 0 | Stoichiometry = C17H20Cl2N4OZn | MND = 4
 OpenBabel04212202053D

 45 48  0  0  1  0  0  0  0  0999 V2000
    6.5437    1.0323    0.2720 Zn  0  0  0  0  0  0  0  0  0  0  0  0
    7.0496    0.0086    2.1421 Cl  0  0  0  0  0  0  0  0  0  0  0  0
    4.9742    0.4659   -1.1824 Cl  0  0  0  0  0  0  0  0  0  0  0  0
    7.1588    3.9592    0.3624 N   0  0  2  0  0  0  0  0  0  0  0  0
    6.1973    3.0591    0.6151 N   0  0  0  0  0  0  0  0  0  0  0  0
    8.7593    2.7479   -0.8700 N   0  0  1  0  0  0  0  0  0  0  0  0
    8.1644    1.5486   -0.9839 N   0  0  0  0  0  0  0  0  0  0  0  0
    7.6665    4.2913    2.9001 O   0  0  0  0  0  0  0  0  0  0  0  0
    7.3318    4.3590    3.8028 H   0  0  0  0  0  0  0  0  0  0  0  0
    8.4923    3.2089    2.8128 C   0  0  0  0  0  0  0  0  0  0  0  0
    8.8805    2.5118    3.9493 C   0  0  0  0  0  0  0  0  0  0  0  0
    8.4710    2.8015    4.9076 H   0  0  0  0  0  0  0  0  0  0  0  0
    9.7627    1.4545    3.8596 C   0  0  0  0  0  0  0  0  0  0  0  0
   10.0399    0.9117    4.7494 H   0  0  0  0  0  0  0  0  0  0  0  0
   10.2851    1.0966    2.6308 C   0  0  0  0  0  0  0  0  0  0  0  0
   10.9811    0.2772    2.5510 H   0  0  0  0  0  0  0  0  0  0  0  0
    9.8916    1.7755    1.4938 C   0  0  0  0  0  0  0  0  0  0  0  0
   10.2980    1.4791    0.5388 H   0  0  0  0  0  0  0  0  0  0  0  0
    8.9780    2.8189    1.5623 C   0  0  0  0  0  0  0  0  0  0  0  0
    8.5433    3.5584    0.3050 C   0  0  2  0  0  0  0  0  0  0  0  0
    9.1378    4.4733    0.1932 H   0  0  0  0  0  0  0  0  0  0  0  0
    6.6388    5.2019    0.2503 C   0  0  1  0  0  3  0  0  0  0  0  0
    5.2796    5.0742    0.4350 C   0  0  0  0  0  0  0  0  0  0  0  0
    4.5506    5.8578    0.4125 H   0  0  0  0  0  0  0  0  0  0  0  0
    5.0457    3.7102    0.6598 C   0  0  0  0  0  0  0  0  0  0  0  0
    7.4528    6.4175   -0.0005 C   0  0  0  0  0  0  0  0  0  0  0  0
    6.7993    7.2845   -0.0267 H   0  0  0  0  0  0  0  0  0  0  0  0
    7.9762    6.3538   -0.9545 H   0  0  0  0  0  0  0  0  0  0  0  0
    8.1847    6.5601    0.7941 H   0  0  0  0  0  0  0  0  0  0  0  0
    3.7621    3.0139    0.9044 C   0  0  0  0  0  0  0  0  0  0  0  0
    3.4687    2.4656    0.0090 H   0  0  0  0  0  0  0  0  0  0  0  0
    2.9828    3.7271    1.1584 H   0  0  0  0  0  0  0  0  0  0  0  0
    3.8768    2.2881    1.7078 H   0  0  0  0  0  0  0  0  0  0  0  0
    9.5595    2.9918   -1.9333 C   0  0  2  0  0  3  0  0  0  0  0  0
    9.4530    1.8953   -2.7613 C   0  0  0  0  0  0  0  0  0  0  0  0
    9.9487    1.7461   -3.6983 H   0  0  0  0  0  0  0  0  0  0  0  0
    8.5633    1.0144   -2.1275 C   0  0  0  0  0  0  0  0  0  0  0  0
   10.3721    4.2252   -2.0864 C   0  0  0  0  0  0  0  0  0  0  0  0
    9.7367    5.1072   -2.1655 H   0  0  0  0  0  0  0  0  0  0  0  0
   10.9655    4.1508   -2.9930 H   0  0  0  0  0  0  0  0  0  0  0  0
   11.0469    4.3576   -1.2409 H   0  0  0  0  0  0  0  0  0  0  0  0
    8.0897   -0.3117   -2.5823 C   0  0  0  0  0  0  0  0  0  0  0  0
    8.2536   -1.0558   -1.8041 H   0  0  0  0  0  0  0  0  0  0  0  0
    8.6064   -0.6107   -3.4898 H   0  0  0  0  0  0  0  0  0  0  0  0
    7.0170   -0.2703   -2.7705 H   0  0  0  0  0  0  0  0  0  0  0  0
  1  5  1  0  0  0  0
  1  2  1  0  0  0  0
  3  1  1  0  0  0  0
  4  5  1  1  0  0  0
  5 25  1  0  0  0  0
  6  7  1  1  0  0  0
  6 20  1  0  0  0  0
  7  1  1  0  0  0  0
  8  9  1  0  0  0  0
 10  8  1  0  0  0  0
 10 11  1  0  0  0  0
 11 12  1  0  0  0  0
 13 11  2  0  0  0  0
 13 14  1  0  0  0  0
 15 13  1  0  0  0  0
 16 15  1  0  0  0  0
 17 19  1  0  0  0  0
 17 15  2  0  0  0  0
 18 17  1  0  0  0  0
 19 10  2  0  0  0  0
 20 21  1  6  0  0  0
 20  4  1  0  0  0  0
 20 19  1  0  0  0  0
 22 26  1  1  0  0  0
 22  4  1  0  0  0  0
 22 23  1  0  0  0  0
 23 25  2  0  0  0  0
 24 23  1  0  0  0  0
 25 30  1  0  0  0  0
 26 29  1  0  0  0  0
 27 26  1  0  0  0  0
 28 26  1  0  0  0  0
 30 32  1  0  0  0  0
 30 33  1  0  0  0  0
 31 30  1  0  0  0  0
 34 38  1  1  0  0  0
 34  6  1  0  0  0  0
 35 37  2  0  0  0  0
 35 34  1  0  0  0  0
 36 35  1  0  0  0  0
 37  7  1  0  0  0  0
 38 41  1  0  0  0  0
 39 38  1  0  0  0  0
 40 38  1  0  0  0  0
 42 37  1  0  0  0  0
 42 43  1  0  0  0  0
 44 42  1  0  0  0  0
 45 42  1  0  0  0  0
M  END
$$$$
