CSD_code = ITIMAB | q = 0 | S = 0 | Stoichiometry = C18H13Cl2N7Pt | MND = 4
 OpenBabel04212202053D

 41 46  0  0  0  0  0  0  0  0999 V2000
    5.6392    2.3736   18.4332 Pt  0  0  0  0  0  0  0  0  0  0  0  0
    6.6463    3.3271   20.1896 Cl  0  0  0  0  0  0  0  0  0  0  0  0
    3.7020    2.9243   19.3623 Cl  0  0  0  0  0  0  0  0  0  0  0  0
    4.8887    1.4815   16.7827 N   0  0  0  0  0  0  0  0  0  0  0  0
    7.3166    1.8384   17.5493 N   0  0  0  0  0  0  0  0  0  0  0  0
    5.8214    1.0003   15.9593 C   0  0  0  0  0  0  0  0  0  0  0  0
    3.6656    1.2256   16.2242 C   0  0  0  0  0  0  0  0  0  0  0  0
    5.2472    0.4104   14.8612 N   0  0  0  0  0  0  0  0  0  0  0  0
    3.8804    0.5555   15.0027 C   0  0  0  0  0  0  0  0  0  0  0  0
    7.1946    1.1675   16.3616 C   0  0  0  0  0  0  0  0  0  0  0  0
    9.5683    0.9792   16.1703 N   0  0  0  0  0  0  0  0  0  0  0  0
    5.6356    0.7107   12.5447 N   0  0  0  0  0  0  0  0  0  0  0  0
    2.3738    1.5157   16.6586 C   0  0  0  0  0  0  0  0  0  0  0  0
    2.2210    2.0268   17.5954 H   0  0  0  0  0  0  0  0  0  0  0  0
    8.5493    2.0651   18.0147 C   0  0  0  0  0  0  0  0  0  0  0  0
    8.6144    2.5958   18.9560 H   0  0  0  0  0  0  0  0  0  0  0  0
    4.7123    1.3071   10.7007 N   0  0  0  0  0  0  0  0  0  0  0  0
    5.8157   -0.1605   13.6678 C   0  0  0  0  0  0  0  0  0  0  0  0
    6.8730   -0.3858   13.8158 H   0  0  0  0  0  0  0  0  0  0  0  0
    5.2787   -1.0862   13.4265 H   0  0  0  0  0  0  0  0  0  0  0  0
    4.7685    0.3897   11.5606 N   0  0  0  0  0  0  0  0  0  0  0  0
    2.8285    0.1713   14.1827 C   0  0  0  0  0  0  0  0  0  0  0  0
    2.9908   -0.3176   13.2350 H   0  0  0  0  0  0  0  0  0  0  0  0
    5.8351    3.5504   10.4774 C   0  0  0  0  0  0  0  0  0  0  0  0
    5.3690    3.8326    9.5482 H   0  0  0  0  0  0  0  0  0  0  0  0
    7.0618    2.7773   12.9435 C   0  0  0  0  0  0  0  0  0  0  0  0
    7.5316    2.4953   13.8731 H   0  0  0  0  0  0  0  0  0  0  0  0
    9.6657    1.6403   17.3207 C   0  0  0  0  0  0  0  0  0  0  0  0
   10.6639    1.8258   17.6860 H   0  0  0  0  0  0  0  0  0  0  0  0
    6.1584    1.9482   12.2924 C   0  0  0  0  0  0  0  0  0  0  0  0
    1.5567    0.4690   14.6279 C   0  0  0  0  0  0  0  0  0  0  0  0
    0.7108    0.1906   14.0188 H   0  0  0  0  0  0  0  0  0  0  0  0
    5.5437    2.3238   11.0720 C   0  0  0  0  0  0  0  0  0  0  0  0
    1.3351    1.1252   15.8431 C   0  0  0  0  0  0  0  0  0  0  0  0
    0.3208    1.3341   16.1451 H   0  0  0  0  0  0  0  0  0  0  0  0
    8.3594    0.7472   15.7080 C   0  0  0  0  0  0  0  0  0  0  0  0
    8.3366    0.2017   14.7767 H   0  0  0  0  0  0  0  0  0  0  0  0
    6.7307    4.3639   11.1302 C   0  0  0  0  0  0  0  0  0  0  0  0
    6.9844    5.3240   10.7078 H   0  0  0  0  0  0  0  0  0  0  0  0
    7.3309    3.9851   12.3391 C   0  0  0  0  0  0  0  0  0  0  0  0
    8.0259    4.6635   12.8101 H   0  0  0  0  0  0  0  0  0  0  0  0
  1  3  1  0  0  0  0
  1  2  1  0  0  0  0
  4  1  1  0  0  0  0
  5 15  1  0  0  0  0
  5  1  1  0  0  0  0
  6 10  2  0  0  0  0
  6  4  1  0  0  0  0
  7 13  1  0  0  0  0
  7  4  1  0  0  0  0
  8  9  1  0  0  0  0
  8  6  1  0  0  0  0
  9  7  2  0  0  0  0
 10  5  1  0  0  0  0
 11 28  1  0  0  0  0
 12 18  1  0  0  0  0
 13 14  1  0  0  0  0
 15 16  1  0  0  0  0
 17 33  1  0  0  0  0
 17 21  2  0  0  0  0
 18 19  1  0  0  0  0
 18  8  1  0  0  0  0
 20 18  1  0  0  0  0
 21 12  1  0  0  0  0
 22 31  2  0  0  0  0
 22  9  1  0  0  0  0
 23 22  1  0  0  0  0
 24 33  2  0  0  0  0
 24 38  1  0  0  0  0
 25 24  1  0  0  0  0
 26 27  1  0  0  0  0
 28 29  1  0  0  0  0
 28 15  2  0  0  0  0
 30 12  1  0  0  0  0
 30 26  2  0  0  0  0
 31 34  1  0  0  0  0
 32 31  1  0  0  0  0
 33 30  1  0  0  0  0
 34 35  1  0  0  0  0
 34 13  2  0  0  0  0
 36 11  2  0  0  0  0
 36 10  1  0  0  0  0
 37 36  1  0  0  0  0
 38 40  2  0  0  0  0
 39 38  1  0  0  0  0
 40 41  1  0  0  0  0
 40 26  1  0  0  0  0
M  END
$$$$
