CSD_code = ITOCUQ | q = -1 | S = 0 | Stoichiometry = C6H7I2N4OPd(1-) | MND = 4
 OpenBabel04212202053D

 21 21  0  0  0  0  0  0  0  0999 V2000
    3.2652    7.0041    6.6108 Pd  0  0  0  0  0  0  0  0  0  0  0  0
    5.3496    5.4023    6.3371 I   0  0  0  0  0  0  0  0  0  0  0  0
    1.0717    7.9069    7.7721 I   0  0  0  0  0  0  0  0  0  0  0  0
    2.2742    6.0868    5.2571 C   0  0  0  0  0  0  0  0  0  0  0  0
    1.6914    5.5748    4.4081 N   0  0  0  0  0  0  0  0  0  0  0  0
    5.5565   10.1954    7.8778 N   0  0  0  0  0  0  0  0  0  0  0  0
    5.9492   11.3339    7.0866 C   0  0  0  0  0  0  0  0  0  0  0  0
    6.5319   12.0250    7.6927 H   0  0  0  0  0  0  0  0  0  0  0  0
    5.0577   11.8334    6.7019 H   0  0  0  0  0  0  0  0  0  0  0  0
    6.5388   10.9984    6.2308 H   0  0  0  0  0  0  0  0  0  0  0  0
    4.7691    9.2219    7.2344 C   0  0  0  0  0  0  0  0  0  0  0  0
    4.4525    9.3617    6.0660 O   0  0  0  0  0  0  0  0  0  0  0  0
    4.3984    8.1585    7.9645 N   0  0  0  0  0  0  0  0  0  0  0  0
    4.7329    7.9841    9.2279 C   0  0  0  0  0  0  0  0  0  0  0  0
    4.2739    6.8661    9.8082 N   0  0  0  0  0  0  0  0  0  0  0  0
    3.7211    6.2430    9.2186 H   0  0  0  0  0  0  0  0  0  0  0  0
    4.4837    6.6172   10.7559 H   0  0  0  0  0  0  0  0  0  0  0  0
    5.5303    8.9557    9.8928 C   0  0  0  0  0  0  0  0  0  0  0  0
    5.8149    8.8328   10.9232 H   0  0  0  0  0  0  0  0  0  0  0  0
    5.9138   10.0417    9.1706 C   0  0  0  0  0  3  0  0  0  0  0  0
    6.5203   10.8289    9.5974 H   0  0  0  0  0  0  0  0  0  0  0  0
  1  3  1  0  0  0  0
  1 13  1  0  0  0  0
  2  1  1  0  0  0  0
  4  1  1  0  0  0  0
  5  4  3  0  0  0  0
  6 20  1  0  0  0  0
  7  8  1  0  0  0  0
  7  6  1  0  0  0  0
  9  7  1  0  0  0  0
 10  7  1  0  0  0  0
 11  6  1  0  0  0  0
 11 13  1  0  0  0  0
 12 11  2  0  0  0  0
 13 14  1  0  0  0  0
 14 15  1  0  0  0  0
 14 18  2  0  0  0  0
 15 17  1  0  0  0  0
 16 15  1  0  0  0  0
 18 19  1  0  0  0  0
 20 21  1  0  0  0  0
 20 18  1  0  0  0  0
M  END
$$$$
