CSD_code = ITOYEX | q = 0 | S = 0 | Stoichiometry = C6H12I2N2OPtS | MND = 4
 OpenBabel04212202053D

 25 25  0  0  0  0  0  0  0  0999 V2000
    8.9259    3.5306    2.0373 Pt  0  0  0  0  0  0  0  0  0  0  0  0
    8.4312    1.2589    3.1771 I   0  0  0  0  0  0  0  0  0  0  0  0
    9.5968    5.7917    0.9676 I   0  0  0  0  0  0  0  0  0  0  0  0
    8.5134    2.7343   -0.0043 S   0  0  0  0  0  0  0  0  0  0  0  0
    9.9242    2.8984   -1.1492 C   0  0  0  0  0  0  0  0  0  0  0  0
   10.8017    2.4891   -0.6560 H   0  0  0  0  0  0  0  0  0  0  0  0
    9.7012    2.3542   -2.0595 H   0  0  0  0  0  0  0  0  0  0  0  0
   10.0754    3.9482   -1.3756 H   0  0  0  0  0  0  0  0  0  0  0  0
    8.2343    0.9530   -0.2737 C   0  0  0  0  0  0  0  0  0  0  0  0
    9.1108    0.3945    0.0347 H   0  0  0  0  0  0  0  0  0  0  0  0
    7.3676    0.6409    0.2991 H   0  0  0  0  0  0  0  0  0  0  0  0
    8.0350    0.8269   -1.3319 H   0  0  0  0  0  0  0  0  0  0  0  0
    7.3674    3.4021   -0.5796 O   0  0  0  0  0  1  0  0  0  0  0  0
    9.1989    4.3376    3.8495 N   0  0  0  0  0  0  0  0  0  0  0  0
    8.2469    4.5210    4.7430 C   0  0  0  0  0  3  0  0  0  0  0  0
    7.2154    4.2442    4.6210 H   0  0  0  0  0  0  0  0  0  0  0  0
    8.7460    5.0934    5.8488 N   0  0  0  0  0  0  0  0  0  0  0  0
   10.0781    5.2775    5.6414 C   0  0  0  0  0  0  0  0  0  0  0  0
   10.7190    5.7198    6.3750 H   0  0  0  0  0  0  0  0  0  0  0  0
   10.3535    4.8050    4.3919 C   0  0  0  0  0  0  0  0  0  0  0  0
   11.2853    4.7815    3.8602 H   0  0  0  0  0  0  0  0  0  0  0  0
    8.0007    5.4440    7.0257 C   0  0  0  0  0  0  0  0  0  0  0  0
    8.6775    5.8550    7.7715 H   0  0  0  0  0  0  0  0  0  0  0  0
    7.2410    6.1896    6.7857 H   0  0  0  0  0  0  0  0  0  0  0  0
    7.5089    4.5617    7.4376 H   0  0  0  0  0  0  0  0  0  0  0  0
  1  2  1  0  0  0  0
  1 14  1  0  0  0  0
  3  1  1  0  0  0  0
  4  1  1  0  0  0  0
  5  6  1  0  0  0  0
  5  4  1  0  0  0  0
  7  5  1  0  0  0  0
  8  5  1  0  0  0  0
  9  4  1  0  0  0  0
  9 10  1  0  0  0  0
  9 11  1  0  0  0  0
 12  9  1  0  0  0  0
 13  4  1  0  0  0  0
 14 20  1  0  0  0  0
 14 15  1  0  0  0  0
 15 17  1  0  0  0  0
 16 15  1  0  0  0  0
 17 22  1  0  0  0  0
 18 17  1  0  0  0  0
 18 19  1  0  0  0  0
 20 18  2  0  0  0  0
 21 20  1  0  0  0  0
 22 25  1  0  0  0  0
 22 23  1  0  0  0  0
 24 22  1  0  0  0  0
M  END
$$$$
