CSD_code = ITOZOH | q = 0 | S = 0 | Stoichiometry = C16H34ClPPd | MND = 5
 OpenBabel04212202053D

 53 50  0  0  0  0  0  0  0  0999 V2000
    4.1290   13.8744   11.1812 Pd  0  0  0  0  0  0  0  0  0  0  0  0
    3.4219   12.1122   12.4817 Cl  0  0  0  0  0 15  0  0  0  0  0  0
    2.6140   13.6454    9.4631 P   0  0  0  0  0  0  0  0  0  0  0  0
    2.1011   15.2318    8.6333 C   0  0  0  0  0  0  0  0  0  0  0  0
    1.4059   14.9978    7.8239 H   0  0  0  0  0  0  0  0  0  0  0  0
    3.0365   15.5561    8.1739 H   0  0  0  0  0  0  0  0  0  0  0  0
    1.5752   16.4417    9.4449 C   0  0  0  0  0  0  0  0  0  0  0  0
    2.0970   16.4501   10.8847 C   0  0  0  0  0  0  0  0  0  0  0  0
    1.9285   15.4911   11.3897 H   0  0  0  0  0  0  0  0  0  0  0  0
    1.5956   17.2294   11.4561 H   0  0  0  0  0  0  0  0  0  0  0  0
    3.1650   16.6658   10.8884 H   0  0  0  0  0  0  0  0  0  0  0  0
    2.0842   17.7124    8.7444 C   0  0  0  0  0  0  0  0  0  0  0  0
    3.1716   17.7481    8.7398 H   0  0  0  0  0  0  0  0  0  0  0  0
    1.7194   18.5991    9.2578 H   0  0  0  0  0  0  0  0  0  0  0  0
    1.7359   17.7494    7.7142 H   0  0  0  0  0  0  0  0  0  0  0  0
    0.0455   16.5109    9.4360 C   0  0  0  0  0  0  0  0  0  0  0  0
   -0.2865   17.4311    9.9128 H   0  0  0  0  0  0  0  0  0  0  0  0
   -0.3320   16.5087    8.4149 H   0  0  0  0  0  0  0  0  0  0  0  0
   -0.4031   15.6812    9.9714 H   0  0  0  0  0  0  0  0  0  0  0  0
    1.0077   12.6740    9.7840 C   0  0  0  0  0  0  0  0  0  0  0  0
    0.4562   13.1786   11.1219 C   0  0  0  0  0  0  0  0  0  0  0  0
    1.2132   13.0751   11.8997 H   0  0  0  0  0  0  0  0  0  0  0  0
    0.1355   14.2142   11.0721 H   0  0  0  0  0  0  0  0  0  0  0  0
   -0.4044   12.5778   11.4118 H   0  0  0  0  0  0  0  0  0  0  0  0
   -0.0528   12.8564    8.6978 C   0  0  0  0  0  0  0  0  0  0  0  0
   -0.9228   12.2550    8.9598 H   0  0  0  0  0  0  0  0  0  0  0  0
   -0.3785   13.8888    8.6210 H   0  0  0  0  0  0  0  0  0  0  0  0
    0.2962   12.5262    7.7249 H   0  0  0  0  0  0  0  0  0  0  0  0
    1.3050   11.1849    9.9715 C   0  0  0  0  0  0  0  0  0  0  0  0
    2.0814   11.0538   10.7222 H   0  0  0  0  0  0  0  0  0  0  0  0
    0.4064   10.6876   10.3347 H   0  0  0  0  0  0  0  0  0  0  0  0
    1.5969   10.6963    9.0470 H   0  0  0  0  0  0  0  0  0  0  0  0
    3.6097   12.7884    8.0755 C   0  0  0  0  0  0  0  0  0  0  0  0
    4.5848   13.7946    7.4516 C   0  0  0  0  0  0  0  0  0  0  0  0
    4.0911   14.4370    6.7259 H   0  0  0  0  0  0  0  0  0  0  0  0
    5.0526   14.4094    8.2172 H   0  0  0  0  0  0  0  0  0  0  0  0
    5.3712   13.2540    6.9261 H   0  0  0  0  0  0  0  0  0  0  0  0
    4.4468   11.7169    8.7881 C   0  0  0  0  0  0  0  0  0  0  0  0
    5.1364   11.2463    8.0878 H   0  0  0  0  0  0  0  0  0  0  0  0
    5.0354   12.1737    9.6041 H   0  0  0  0  0  0  0  0  0  0  0  0
    3.8220   10.9427    9.2238 H   0  0  0  0  0  0  0  0  0  0  0  0
    2.8028   12.1740    6.9328 C   0  0  0  0  0  0  0  0  0  0  0  0
    2.1823   11.3472    7.2611 H   0  0  0  0  0  0  0  0  0  0  0  0
    3.4918   11.7884    6.1813 H   0  0  0  0  0  0  0  0  0  0  0  0
    2.1753   12.9224    6.4533 H   0  0  0  0  0  0  0  0  0  0  0  0
    5.7411   14.1006   12.5604 C   0  0  0  0  0  3  0  0  0  0  0  0
    5.6281   14.0272   13.6370 H   0  0  0  0  0  0  0  0  0  0  0  0
    6.4550   13.3958   12.1231 H   0  0  0  0  0  0  0  0  0  0  0  0
    5.4932   15.3179   11.9258 C   0  0  0  0  0  0  0  0  0  0  0  0
    5.0705   16.1483   12.4926 H   0  0  0  0  0  0  0  0  0  0  0  0
    5.5356   15.3650   10.5194 C   0  0  0  0  0  3  0  0  0  0  0  0
    5.3260   16.3036   10.0184 H   0  0  0  0  0  0  0  0  0  0  0  0
    6.3015   14.7624   10.0278 H   0  0  0  0  0  0  0  0  0  0  0  0
  1 49  1  0  0  0  0
  3 20  1  0  0  0  0
  4  7  1  0  0  0  0
  4  3  1  0  0  0  0
  5  4  1  0  0  0  0
  6  4  1  0  0  0  0
  7  8  1  0  0  0  0
  8 11  1  0  0  0  0
  8  9  1  0  0  0  0
  8 10  1  0  0  0  0
 12 14  1  0  0  0  0
 12  7  1  0  0  0  0
 13 12  1  0  0  0  0
 15 12  1  0  0  0  0
 16  7  1  0  0  0  0
 16 17  1  0  0  0  0
 16 19  1  0  0  0  0
 18 16  1  0  0  0  0
 20 29  1  0  0  0  0
 20 21  1  0  0  0  0
 21 24  1  0  0  0  0
 21 22  1  0  0  0  0
 23 21  1  0  0  0  0
 25 26  1  0  0  0  0
 25 20  1  0  0  0  0
 27 25  1  0  0  0  0
 28 25  1  0  0  0  0
 29 31  1  0  0  0  0
 29 30  1  0  0  0  0
 32 29  1  0  0  0  0
 33 38  1  0  0  0  0
 33  3  1  0  0  0  0
 34 33  1  0  0  0  0
 34 36  1  0  0  0  0
 35 34  1  0  0  0  0
 37 34  1  0  0  0  0
 38 41  1  0  0  0  0
 38 40  1  0  0  0  0
 39 38  1  0  0  0  0
 42 43  1  0  0  0  0
 42 33  1  0  0  0  0
 44 42  1  0  0  0  0
 45 42  1  0  0  0  0
 46 47  1  0  0  0  0
 48 46  1  0  0  0  0
 49 50  1  0  0  0  0
 49 46  1  0  0  0  0
 51 49  1  0  0  0  0
 52 51  1  0  0  0  0
 53 51  1  0  0  0  0
M  END
$$$$
