CSD_code = ITPYNI | q = 0 | S = 0 | Stoichiometry = C20H20I2N4Ni | MND = 6
 OpenBabel04212202053D

 47 50  0  0  0  0  0  0  0  0999 V2000
    4.8401    1.7511   -3.5018 C   0  0  0  0  0  0  0  0  0  0  0  0
    7.7247    7.0213   -4.9169 C   0  0  0  0  0  3  0  0  0  0  0  0
    8.8048    6.9225   -5.7769 C   0  0  0  0  0  0  0  0  0  0  0  0
    8.7108    6.0781   -6.8706 C   0  0  0  0  0  0  0  0  0  0  0  0
    7.5324    5.3746   -7.0538 C   0  0  0  0  0  0  0  0  0  0  0  0
    6.5067    5.5428   -6.1394 C   0  0  0  0  0  0  0  0  0  0  0  0
    5.2071    9.0005   -4.5789 C   0  0  0  0  0  3  0  0  0  0  0  0
    5.2321   10.3827   -4.6184 C   0  0  0  0  0  0  0  0  0  0  0  0
    4.8395   11.0993   -3.5014 C   0  0  0  0  0  0  0  0  0  0  0  0
    5.9757    3.8509   -3.5573 C   0  0  0  0  0  3  0  0  0  0  0  0
    6.0216    2.4683   -3.5669 C   0  0  0  0  0  0  0  0  0  0  0  0
    5.4847    8.4454   -5.4631 H   0  0  0  0  0  0  0  0  0  0  0  0
    5.5466   10.8789   -5.5227 H   0  0  0  0  0  0  0  0  0  0  0  0
    6.9043    4.4011   -3.5850 H   0  0  0  0  0  0  0  0  0  0  0  0
    6.9783    1.9732   -3.6166 H   0  0  0  0  0  0  0  0  0  0  0  0
    7.7819    7.6711   -4.0535 H   0  0  0  0  0  0  0  0  0  0  0  0
    9.6980    7.4964   -5.5867 H   0  0  0  0  0  0  0  0  0  0  0  0
    9.5334    5.9728   -7.5627 H   0  0  0  0  0  0  0  0  0  0  0  0
    7.4021    4.7066   -7.8906 H   0  0  0  0  0  0  0  0  0  0  0  0
    5.5747    5.0101   -6.2741 H   0  0  0  0  0  0  0  0  0  0  0  0
    4.8398   12.1784   -3.5016 H   0  0  0  0  0  0  0  0  0  0  0  0
    4.8405    0.6717   -3.5024 H   0  0  0  0  0  0  0  0  0  0  0  0
    3.1102    6.5085   -5.4472 I   0  0  0  0  0  0  0  0  0  0  0  0
    4.8385    6.4468   -3.5008 Ni  0  0  0  0  0  0  0  0  0  0  0  0
    6.5897    6.3460   -5.0816 N   0  0  0  0  0  0  0  0  0  0  0  0
    4.8388    8.3094   -3.5009 N   0  0  0  0  0  0  0  0  0  0  0  0
    4.8393    4.5460   -3.5002 N   0  0  0  0  0  0  0  0  0  0  0  0
    3.6582    2.4675   -3.4356 C   0  0  0  0  0  0  0  0  0  0  0  0
    3.7034    3.8501   -3.4436 C   0  0  0  0  0  0  0  0  0  0  0  0
    6.5685    6.5074   -1.5540 I   0  0  0  0  0  0  0  0  0  0  0  0
    3.0879    6.3466   -1.9196 N   0  0  0  0  0  0  0  0  0  0  0  0
    4.4708    9.0010   -2.4232 C   0  0  0  0  0  0  0  0  0  0  0  0
    4.4465   10.3833   -2.3842 C   0  0  0  0  0  0  0  0  0  0  0  0
    2.7018    1.9718   -3.3865 H   0  0  0  0  0  0  0  0  0  0  0  0
    2.7745    4.3997   -3.4151 H   0  0  0  0  0  0  0  0  0  0  0  0
    1.9532    7.0225   -2.0843 C   0  0  0  0  0  3  0  0  0  0  0  0
    3.1700    5.5427   -0.8622 C   0  0  0  0  0  0  0  0  0  0  0  0
    4.1928    8.4465   -1.5388 H   0  0  0  0  0  0  0  0  0  0  0  0
    4.1322   10.8800   -1.4801 H   0  0  0  0  0  0  0  0  0  0  0  0
    0.8726    6.9235   -1.2249 C   0  0  0  0  0  0  0  0  0  0  0  0
    1.8967    7.6728   -2.9474 H   0  0  0  0  0  0  0  0  0  0  0  0
    2.1438    5.3742    0.0514 C   0  0  0  0  0  0  0  0  0  0  0  0
    4.1018    5.0095   -0.7275 H   0  0  0  0  0  0  0  0  0  0  0  0
    0.9657    6.0782   -0.1319 C   0  0  0  0  0  0  0  0  0  0  0  0
   -0.0202    7.4979   -1.4153 H   0  0  0  0  0  0  0  0  0  0  0  0
    2.2734    4.7055    0.8878 H   0  0  0  0  0  0  0  0  0  0  0  0
    0.1428    5.9727    0.5597 H   0  0  0  0  0  0  0  0  0  0  0  0
  1 28  1  0  0  0  0
  2 16  1  0  0  0  0
  3 17  1  0  0  0  0
  3  2  1  0  0  0  0
  4  3  2  0  0  0  0
  5  4  1  0  0  0  0
  5  6  2  0  0  0  0
  6 25  1  0  0  0  0
  7 26  1  0  0  0  0
  8  7  1  0  0  0  0
  8  9  2  0  0  0  0
  9 33  1  0  0  0  0
 10 27  1  0  0  0  0
 11 10  1  0  0  0  0
 11  1  2  0  0  0  0
 12  7  1  0  0  0  0
 13  8  1  0  0  0  0
 14 10  1  0  0  0  0
 15 11  1  0  0  0  0
 18  4  1  0  0  0  0
 19  5  1  0  0  0  0
 20  6  1  0  0  0  0
 21  9  1  0  0  0  0
 22  1  1  0  0  0  0
 23 24  1  0  0  0  0
 24 27  1  0  0  0  0
 24 31  1  0  0  0  0
 24 30  1  0  0  0  0
 25  2  1  0  0  0  0
 25 24  1  0  0  0  0
 26 24  1  0  0  0  0
 26 32  1  0  0  0  0
 27 29  1  0  0  0  0
 28 34  1  0  0  0  0
 29 28  2  0  0  0  0
 29 35  1  0  0  0  0
 31 37  1  0  0  0  0
 32 33  2  0  0  0  0
 32 38  1  0  0  0  0
 33 39  1  0  0  0  0
 36 31  1  0  0  0  0
 36 40  1  0  0  0  0
 37 43  1  0  0  0  0
 37 42  2  0  0  0  0
 40 44  2  0  0  0  0
 41 36  1  0  0  0  0
 42 46  1  0  0  0  0
 44 42  1  0  0  0  0
 44 47  1  0  0  0  0
 45 40  1  0  0  0  0
M  END
$$$$
