CSD_code = ITUHUC | q = 0 | S = 0 | Stoichiometry = C13H22Cl2N4Zn | MND = 4
 OpenBabel04212202053D

 42 43  0  0  0  0  0  0  0  0999 V2000
    4.6651    1.1766    6.9938 Zn  0  0  0  0  0  0  0  0  0  0  0  0
    2.6662    1.1635    5.9767 Cl  0  0  0  0  0  0  0  0  0  0  0  0
    6.3991    2.3149    6.2620 Cl  0  0  0  0  0  0  0  0  0  0  0  0
    3.9872    1.3065    8.9289 N   0  0  0  0  0  0  0  0  0  0  0  0
    3.0640    3.4151    8.9164 N   0  0  0  0  0  0  0  0  0  0  0  0
    1.7201    1.6112    9.4781 N   0  0  0  0  0  0  0  0  0  0  0  0
    0.7647    2.4050   10.2128 C   0  0  0  0  0  0  0  0  0  0  0  0
    1.2303    3.3235   10.5600 H   0  0  0  0  0  0  0  0  0  0  0  0
    0.4302    1.8306   11.0815 H   0  0  0  0  0  0  0  0  0  0  0  0
   -0.1125    2.6500    9.6081 H   0  0  0  0  0  0  0  0  0  0  0  0
    4.8277   -0.9544    8.9892 C   0  0  0  0  0  0  0  0  0  0  0  0
    5.2234   -0.8315    7.6017 N   0  0  0  0  0  4  0  0  0  0  0  0
    4.1692    0.1168    9.6094 C   0  0  0  0  0  0  0  0  0  0  0  0
    3.8188   -0.0065   10.9592 C   0  0  0  0  0  0  0  0  0  0  0  0
    3.3510    0.8337   11.4519 H   0  0  0  0  0  0  0  0  0  0  0  0
    4.5235   -1.8178    6.7743 C   0  0  0  0  0  0  0  0  0  0  0  0
    4.7742   -2.8435    7.0646 H   0  0  0  0  0  0  0  0  0  0  0  0
    4.7982   -1.6708    5.7303 H   0  0  0  0  0  0  0  0  0  0  0  0
    3.4481   -1.6752    6.8688 H   0  0  0  0  0  0  0  0  0  0  0  0
    2.9338    2.0800    9.1040 C   0  0  0  0  0  3  0  0  0  0  0  0
    4.7182   -2.2236   11.0382 C   0  0  0  0  0  0  0  0  0  0  0  0
    4.9291   -3.1316   11.5814 H   0  0  0  0  0  0  0  0  0  0  0  0
    1.2938    0.2693    9.1622 C   0  0  0  0  0  0  0  0  0  0  0  0
    1.8574   -0.0964    8.3068 H   0  0  0  0  0  0  0  0  0  0  0  0
    0.2391    0.2984    8.8856 H   0  0  0  0  0  0  0  0  0  0  0  0
    1.4239   -0.4140   10.0074 H   0  0  0  0  0  0  0  0  0  0  0  0
    5.0894   -2.1093    9.7111 C   0  0  0  0  0  0  0  0  0  0  0  0
    5.5905   -2.9389    9.2348 H   0  0  0  0  0  0  0  0  0  0  0  0
    6.6741   -0.9919    7.4645 C   0  0  0  0  0  0  0  0  0  0  0  0
    6.9980   -2.0096    7.7045 H   0  0  0  0  0  0  0  0  0  0  0  0
    7.1751   -0.2896    8.1279 H   0  0  0  0  0  0  0  0  0  0  0  0
    6.9655   -0.7616    6.4406 H   0  0  0  0  0  0  0  0  0  0  0  0
    4.3874    4.0015    8.8966 C   0  0  0  0  0  0  0  0  0  0  0  0
    5.0297    3.4746    9.5984 H   0  0  0  0  0  0  0  0  0  0  0  0
    4.2999    5.0456    9.1987 H   0  0  0  0  0  0  0  0  0  0  0  0
    4.8465    3.9587    7.9042 H   0  0  0  0  0  0  0  0  0  0  0  0
    2.0817    4.1541    8.1465 C   0  0  0  0  0  0  0  0  0  0  0  0
    1.2543    3.5087    7.8679 H   0  0  0  0  0  0  0  0  0  0  0  0
    2.5461    4.5119    7.2243 H   0  0  0  0  0  0  0  0  0  0  0  0
    1.7126    5.0138    8.7107 H   0  0  0  0  0  0  0  0  0  0  0  0
    4.0876   -1.1611   11.6632 C   0  0  0  0  0  0  0  0  0  0  0  0
    3.8092   -1.2312   12.7042 H   0  0  0  0  0  0  0  0  0  0  0  0
  1 12  1  0  0  0  0
  1  4  1  0  0  0  0
  2  1  1  0  0  0  0
  3  1  1  0  0  0  0
  4 20  1  0  0  0  0
  4 13  1  0  0  0  0
  5 20  1  0  0  0  0
  6  7  1  0  0  0  0
  7  8  1  0  0  0  0
  7  9  1  0  0  0  0
 10  7  1  0  0  0  0
 11 13  2  0  0  0  0
 11 27  1  0  0  0  0
 12 11  1  0  0  0  0
 13 14  1  0  0  0  0
 14 15  1  0  0  0  0
 14 41  2  0  0  0  0
 16 19  1  0  0  0  0
 16 17  1  0  0  0  0
 16 12  1  0  0  0  0
 18 16  1  0  0  0  0
 20  6  1  0  0  0  0
 21 22  1  0  0  0  0
 21 41  1  0  0  0  0
 23  6  1  0  0  0  0
 23 26  1  0  0  0  0
 24 23  1  0  0  0  0
 25 23  1  0  0  0  0
 27 21  2  0  0  0  0
 28 27  1  0  0  0  0
 29 12  1  0  0  0  0
 29 30  1  0  0  0  0
 29 31  1  0  0  0  0
 32 29  1  0  0  0  0
 33  5  1  0  0  0  0
 33 35  1  0  0  0  0
 33 34  1  0  0  0  0
 36 33  1  0  0  0  0
 37 40  1  0  0  0  0
 37  5  1  0  0  0  0
 38 37  1  0  0  0  0
 39 37  1  0  0  0  0
 41 42  1  0  0  0  0
M  END
$$$$
