CSD_code = ITUHOW | q = 0 | S = 0 | Stoichiometry = C16H36Cl2N4Zn | MND = 4
 OpenBabel04212202053D

 59 59  0  0  0  0  0  0  0  0999 V2000
   13.0137   12.4685    3.6351 Zn  0  0  0  0  0  0  0  0  0  0  0  0
   13.3475   10.5775    2.5115 Cl  0  0  0  0  0  0  0  0  0  0  0  0
   13.4075   14.4683    2.7149 Cl  0  0  0  0  0  0  0  0  0  0  0  0
   10.9539   12.5206    4.3238 N   0  0  0  0  0  4  0  0  0  0  0  0
   15.7969   11.3512    5.3108 N   0  0  0  0  0  0  0  0  0  0  0  0
   10.0664   12.9629    3.2300 C   0  0  0  0  0  0  0  0  0  0  0  0
   10.4507   13.9272    2.8864 H   0  0  0  0  0  0  0  0  0  0  0  0
    9.0506   13.1258    3.6175 H   0  0  0  0  0  0  0  0  0  0  0  0
   10.8588   13.5275    5.3929 C   0  0  0  0  0  0  0  0  0  0  0  0
    9.8436   13.5224    5.8137 H   0  0  0  0  0  0  0  0  0  0  0  0
   11.0148   14.5028    4.9237 H   0  0  0  0  0  0  0  0  0  0  0  0
   16.0719   13.5554    6.0010 N   0  0  0  0  0  0  0  0  0  0  0  0
   10.6296   11.1632    4.7943 C   0  0  0  0  0  0  0  0  0  0  0  0
   11.3455   10.9098    5.5779 H   0  0  0  0  0  0  0  0  0  0  0  0
   10.8193   10.4807    3.9651 H   0  0  0  0  0  0  0  0  0  0  0  0
   10.0163   12.0195    2.0381 C   0  0  0  0  0  0  0  0  0  0  0  0
    9.4969   12.5151    1.2213 H   0  0  0  0  0  0  0  0  0  0  0  0
    9.4889   11.0968    2.2655 H   0  0  0  0  0  0  0  0  0  0  0  0
   11.0203   11.7744    1.6997 H   0  0  0  0  0  0  0  0  0  0  0  0
   13.2902   13.8093    6.1385 C   0  0  0  0  0  0  0  0  0  0  0  0
   13.2291   14.7124    5.5236 H   0  0  0  0  0  0  0  0  0  0  0  0
   13.8640   14.0458    7.0424 H   0  0  0  0  0  0  0  0  0  0  0  0
   13.9472   12.7323    5.4240 N   0  0  0  0  0  0  0  0  0  0  0  0
   11.8699   13.3978    6.5304 C   0  0  0  0  0  0  0  0  0  0  0  0
   11.5372   14.0674    7.3269 H   0  0  0  0  0  0  0  0  0  0  0  0
   11.8848   12.3857    6.9352 H   0  0  0  0  0  0  0  0  0  0  0  0
   15.2376   12.5667    5.5499 C   0  0  0  0  0  3  0  0  0  0  0  0
    9.2139   10.9371    5.3227 C   0  0  0  0  0  0  0  0  0  0  0  0
    9.1185    9.8928    5.6094 H   0  0  0  0  0  0  0  0  0  0  0  0
    8.4629   11.1460    4.5659 H   0  0  0  0  0  0  0  0  0  0  0  0
    9.0065   11.5443    6.2005 H   0  0  0  0  0  0  0  0  0  0  0  0
   17.1090   13.2697    6.9714 C   0  0  0  0  0  0  0  0  0  0  0  0
   18.1019   13.5063    6.5731 H   0  0  0  0  0  0  0  0  0  0  0  0
   17.0719   12.2010    7.1909 H   0  0  0  0  0  0  0  0  0  0  0  0
   17.3114   15.3200    4.7784 C   0  0  0  0  0  0  0  0  0  0  0  0
   17.1418   16.2407    4.2273 H   0  0  0  0  0  0  0  0  0  0  0  0
   17.6552   14.5628    4.0780 H   0  0  0  0  0  0  0  0  0  0  0  0
   18.0897   15.5024    5.5157 H   0  0  0  0  0  0  0  0  0  0  0  0
   17.0269   11.2648    4.5377 C   0  0  0  0  0  0  0  0  0  0  0  0
   17.4377   10.2632    4.6758 H   0  0  0  0  0  0  0  0  0  0  0  0
   17.7546   11.9839    4.9163 H   0  0  0  0  0  0  0  0  0  0  0  0
   15.9980   14.8903    5.4299 C   0  0  0  0  0  0  0  0  0  0  0  0
   15.7105   15.6241    6.1915 H   0  0  0  0  0  0  0  0  0  0  0  0
   15.2300   14.8752    4.6561 H   0  0  0  0  0  0  0  0  0  0  0  0
   15.0072   10.1343    5.3890 C   0  0  0  0  0  0  0  0  0  0  0  0
   15.0042    9.6180    4.4275 H   0  0  0  0  0  0  0  0  0  0  0  0
   13.9793   10.4075    5.6227 H   0  0  0  0  0  0  0  0  0  0  0  0
   16.8935   14.0502    8.2689 C   0  0  0  0  0  0  0  0  0  0  0  0
   17.6386   13.7508    9.0014 H   0  0  0  0  0  0  0  0  0  0  0  0
   15.9055   13.8455    8.6750 H   0  0  0  0  0  0  0  0  0  0  0  0
   16.9873   15.1197    8.1027 H   0  0  0  0  0  0  0  0  0  0  0  0
   15.5498    9.2169    6.4840 C   0  0  0  0  0  0  0  0  0  0  0  0
   14.9349    8.3236    6.5471 H   0  0  0  0  0  0  0  0  0  0  0  0
   15.5306    9.7222    7.4475 H   0  0  0  0  0  0  0  0  0  0  0  0
   16.5725    8.9126    6.2748 H   0  0  0  0  0  0  0  0  0  0  0  0
   16.7822   11.5284    3.0533 C   0  0  0  0  0  0  0  0  0  0  0  0
   17.7171   11.4580    2.5028 H   0  0  0  0  0  0  0  0  0  0  0  0
   16.3640   12.5237    2.9094 H   0  0  0  0  0  0  0  0  0  0  0  0
   16.0806   10.8081    2.6413 H   0  0  0  0  0  0  0  0  0  0  0  0
  1  4  1  0  0  0  0
  1 23  1  0  0  0  0
  2  1  1  0  0  0  0
  3  1  1  0  0  0  0
  4 13  1  0  0  0  0
  4  9  1  0  0  0  0
  5 45  1  0  0  0  0
  5 27  1  0  0  0  0
  6  8  1  0  0  0  0
  6  4  1  0  0  0  0
  7  6  1  0  0  0  0
  9 10  1  0  0  0  0
  9 24  1  0  0  0  0
 11  9  1  0  0  0  0
 12 32  1  0  0  0  0
 13 28  1  0  0  0  0
 13 14  1  0  0  0  0
 15 13  1  0  0  0  0
 16 18  1  0  0  0  0
 16  6  1  0  0  0  0
 17 16  1  0  0  0  0
 19 16  1  0  0  0  0
 20 24  1  0  0  0  0
 20 22  1  0  0  0  0
 21 20  1  0  0  0  0
 23 27  1  0  0  0  0
 23 20  1  0  0  0  0
 24 26  1  0  0  0  0
 24 25  1  0  0  0  0
 27 12  1  0  0  0  0
 28 29  1  0  0  0  0
 28 31  1  0  0  0  0
 30 28  1  0  0  0  0
 32 34  1  0  0  0  0
 32 48  1  0  0  0  0
 33 32  1  0  0  0  0
 35 42  1  0  0  0  0
 35 38  1  0  0  0  0
 36 35  1  0  0  0  0
 37 35  1  0  0  0  0
 39 40  1  0  0  0  0
 39 41  1  0  0  0  0
 39  5  1  0  0  0  0
 42 12  1  0  0  0  0
 42 43  1  0  0  0  0
 44 42  1  0  0  0  0
 45 47  1  0  0  0  0
 45 52  1  0  0  0  0
 46 45  1  0  0  0  0
 48 50  1  0  0  0  0
 48 49  1  0  0  0  0
 51 48  1  0  0  0  0
 52 53  1  0  0  0  0
 52 54  1  0  0  0  0
 55 52  1  0  0  0  0
 56 39  1  0  0  0  0
 57 56  1  0  0  0  0
 58 56  1  0  0  0  0
 59 56  1  0  0  0  0
M  END
$$$$
