CSD_code = ITUHAI | q = 0 | S = 0 | Stoichiometry = C10H24Cl2N4Zn | MND = 4
 OpenBabel04212202053D

 41 41  0  0  0  0  0  0  0  0999 V2000
    7.7399    6.4441    2.6436 Zn  0  0  0  0  0  0  0  0  0  0  0  0
    6.6658    8.3027    2.1012 Cl  0  0  0  0  0  0  0  0  0  0  0  0
    9.7259    5.7523    1.8859 Cl  0  0  0  0  0  0  0  0  0  0  0  0
    6.4198    2.5528    1.9838 N   0  0  0  0  0  0  0  0  0  0  0  0
    6.4944    4.8410    2.5454 N   0  0  0  0  0  0  0  0  0  0  0  0
    7.9574    6.5938    4.8022 N   0  0  0  0  0  4  0  0  0  0  0  0
    5.8927    1.6441    0.9945 C   0  0  0  0  0  0  0  0  0  0  0  0
    5.5281    2.2055    0.1390 H   0  0  0  0  0  0  0  0  0  0  0  0
    5.0568    1.0935    1.4358 H   0  0  0  0  0  0  0  0  0  0  0  0
    6.6370    0.9157    0.6562 H   0  0  0  0  0  0  0  0  0  0  0  0
    6.6836    3.8697    1.6955 C   0  0  0  0  0  3  0  0  0  0  0  0
    7.0637    4.1365    0.4248 N   0  0  0  0  0  0  0  0  0  0  0  0
    5.5626    4.7084    3.6475 C   0  0  0  0  0  0  0  0  0  0  0  0
    5.0135    3.7636    3.5673 H   0  0  0  0  0  0  0  0  0  0  0  0
    4.8433    5.5285    3.5345 H   0  0  0  0  0  0  0  0  0  0  0  0
    8.2244    7.9948    5.1356 C   0  0  0  0  0  0  0  0  0  0  0  0
    8.2669    8.1385    6.2223 H   0  0  0  0  0  0  0  0  0  0  0  0
    7.4436    8.6273    4.7181 H   0  0  0  0  0  0  0  0  0  0  0  0
    9.1755    8.2961    4.7000 H   0  0  0  0  0  0  0  0  0  0  0  0
    8.0944    3.3555   -0.2261 C   0  0  0  0  0  0  0  0  0  0  0  0
    8.3347    2.4737    0.3592 H   0  0  0  0  0  0  0  0  0  0  0  0
    9.0015    3.9605   -0.3082 H   0  0  0  0  0  0  0  0  0  0  0  0
    7.7723    3.0563   -1.2260 H   0  0  0  0  0  0  0  0  0  0  0  0
    6.6833    6.2081    5.4209 C   0  0  0  0  0  0  0  0  0  0  0  0
    5.9377    6.9447    5.1117 H   0  0  0  0  0  0  0  0  0  0  0  0
    6.7882    6.2625    6.5171 H   0  0  0  0  0  0  0  0  0  0  0  0
    6.8910    1.9293    3.1964 C   0  0  0  0  0  0  0  0  0  0  0  0
    7.5254    2.6249    3.7381 H   0  0  0  0  0  0  0  0  0  0  0  0
    7.4889    1.0478    2.9439 H   0  0  0  0  0  0  0  0  0  0  0  0
    6.0656    1.6097    3.8402 H   0  0  0  0  0  0  0  0  0  0  0  0
    6.1714    4.8171    5.0498 C   0  0  0  0  0  0  0  0  0  0  0  0
    5.3769    4.5698    5.7583 H   0  0  0  0  0  0  0  0  0  0  0  0
    6.9609    4.0780    5.1799 H   0  0  0  0  0  0  0  0  0  0  0  0
    6.8515    5.4320   -0.1798 C   0  0  0  0  0  0  0  0  0  0  0  0
    6.0227    5.9393    0.3084 H   0  0  0  0  0  0  0  0  0  0  0  0
    6.6062    5.2772   -1.2331 H   0  0  0  0  0  0  0  0  0  0  0  0
    7.7416    6.0651   -0.1254 H   0  0  0  0  0  0  0  0  0  0  0  0
    9.0605    5.7818    5.3103 C   0  0  0  0  0  0  0  0  0  0  0  0
    9.1317    5.8514    6.4030 H   0  0  0  0  0  0  0  0  0  0  0  0
    9.9923    6.1274    4.8678 H   0  0  0  0  0  0  0  0  0  0  0  0
    8.9340    4.7408    5.0245 H   0  0  0  0  0  0  0  0  0  0  0  0
  1  6  1  0  0  0  0
  2  1  1  0  0  0  0
  3  1  1  0  0  0  0
  4 27  1  0  0  0  0
  5  1  1  0  0  0  0
  5 13  1  0  0  0  0
  6 16  1  0  0  0  0
  6 38  1  0  0  0  0
  6 24  1  0  0  0  0
  7  9  1  0  0  0  0
  7  4  1  0  0  0  0
  8  7  1  0  0  0  0
 10  7  1  0  0  0  0
 11  4  1  0  0  0  0
 11  5  1  0  0  0  0
 12 11  1  0  0  0  0
 13 31  1  0  0  0  0
 14 13  1  0  0  0  0
 15 13  1  0  0  0  0
 16 17  1  0  0  0  0
 18 16  1  0  0  0  0
 19 16  1  0  0  0  0
 20 21  1  0  0  0  0
 20 12  1  0  0  0  0
 22 20  1  0  0  0  0
 23 20  1  0  0  0  0
 24 26  1  0  0  0  0
 25 24  1  0  0  0  0
 27 28  1  0  0  0  0
 27 30  1  0  0  0  0
 29 27  1  0  0  0  0
 31 33  1  0  0  0  0
 31 24  1  0  0  0  0
 31 32  1  0  0  0  0
 34 37  1  0  0  0  0
 34 35  1  0  0  0  0
 34 12  1  0  0  0  0
 36 34  1  0  0  0  0
 38 39  1  0  0  0  0
 40 38  1  0  0  0  0
 41 38  1  0  0  0  0
M  END
$$$$
