CSD_code = ITUJAK | q = 0 | S = 0 | Stoichiometry = C13H20Cl2N4Zn | MND = 4
 OpenBabel04212202053D

 40 42  0  0  0  0  0  0  0  0999 V2000
    2.5574    1.7071    2.8959 Zn  0  0  0  0  0  0  0  0  0  0  0  0
    1.0281    2.3673    1.4699 Cl  0  0  0  0  0  0  0  0  0  0  0  0
    3.9266   -0.0452    2.5307 Cl  0  0  0  0  0  0  0  0  0  0  0  0
    1.8401    1.8087    4.9402 N   0  0  0  0  0  4  0  0  0  0  0  0
    3.8423    3.2314    4.9529 C   0  0  0  0  0  0  0  0  0  0  0  0
    3.9961    2.9952    3.6009 N   0  0  0  0  0  0  0  0  0  0  0  0
    5.3657    3.0750    1.7367 N   0  0  0  0  0  0  0  0  0  0  0  0
    0.4709    2.3311    4.9531 C   0  0  0  0  0  0  0  0  0  0  0  0
    0.0473    2.3440    5.9621 H   0  0  0  0  0  0  0  0  0  0  0  0
   -0.1570    1.7109    4.3149 H   0  0  0  0  0  0  0  0  0  0  0  0
    0.4719    3.3422    4.5510 H   0  0  0  0  0  0  0  0  0  0  0  0
    4.4902    4.4177    6.9588 C   0  0  0  0  0  0  0  0  0  0  0  0
    5.1697    5.0859    7.4660 H   0  0  0  0  0  0  0  0  0  0  0  0
    6.2964    2.2843    3.5851 N   0  0  0  0  0  0  0  0  0  0  0  0
    2.5332    3.0423    6.9676 C   0  0  0  0  0  0  0  0  0  0  0  0
    1.6867    2.6364    7.5013 H   0  0  0  0  0  0  0  0  0  0  0  0
    1.8826    0.4729    5.5425 C   0  0  0  0  0  0  0  0  0  0  0  0
    1.5439    0.4861    6.5838 H   0  0  0  0  0  0  0  0  0  0  0  0
    2.9023    0.0923    5.5055 H   0  0  0  0  0  0  0  0  0  0  0  0
    1.2418   -0.1998    4.9729 H   0  0  0  0  0  0  0  0  0  0  0  0
    2.7381    2.7055    5.6378 C   0  0  0  0  0  0  0  0  0  0  0  0
    3.4007    3.8898    7.6321 C   0  0  0  0  0  0  0  0  0  0  0  0
    3.2246    4.1380    8.6672 H   0  0  0  0  0  0  0  0  0  0  0  0
    6.6174    2.5345    1.2564 C   0  0  0  0  0  0  0  0  0  0  0  0
    7.2234    3.3308    0.8116 H   0  0  0  0  0  0  0  0  0  0  0  0
    6.4352    1.7661    0.4975 H   0  0  0  0  0  0  0  0  0  0  0  0
    5.1588    2.7856    3.0287 C   0  0  0  0  0  3  0  0  0  0  0  0
    7.2469    1.9558    2.5286 C   0  0  0  0  0  0  0  0  0  0  0  0
    7.3607    0.8695    2.4596 H   0  0  0  0  0  0  0  0  0  0  0  0
    8.2189    2.4021    2.7580 H   0  0  0  0  0  0  0  0  0  0  0  0
    6.2856    1.3906    4.7222 C   0  0  0  0  0  0  0  0  0  0  0  0
    5.7546    1.8443    5.5552 H   0  0  0  0  0  0  0  0  0  0  0  0
    7.3174    1.2105    5.0195 H   0  0  0  0  0  0  0  0  0  0  0  0
    5.8078    0.4411    4.4586 H   0  0  0  0  0  0  0  0  0  0  0  0
    4.7071    4.0955    5.6361 C   0  0  0  0  0  0  0  0  0  0  0  0
    5.5462    4.5136    5.0993 H   0  0  0  0  0  0  0  0  0  0  0  0
    4.3904    3.5917    0.8195 C   0  0  0  0  0  0  0  0  0  0  0  0
    3.6173    4.1206    1.3731 H   0  0  0  0  0  0  0  0  0  0  0  0
    3.9242    2.7876    0.2414 H   0  0  0  0  0  0  0  0  0  0  0  0
    4.8803    4.2833    0.1324 H   0  0  0  0  0  0  0  0  0  0  0  0
  1  6  1  0  0  0  0
  1  4  1  0  0  0  0
  2  1  1  0  0  0  0
  3  1  1  0  0  0  0
  4  8  1  0  0  0  0
  4 17  1  0  0  0  0
  4 21  1  0  0  0  0
  5 35  2  0  0  0  0
  5 21  1  0  0  0  0
  6  5  1  0  0  0  0
  7 27  1  0  0  0  0
  8  9  1  0  0  0  0
 10  8  1  0  0  0  0
 11  8  1  0  0  0  0
 12 13  1  0  0  0  0
 12 22  2  0  0  0  0
 14 31  1  0  0  0  0
 15 16  1  0  0  0  0
 15 22  1  0  0  0  0
 17 18  1  0  0  0  0
 19 17  1  0  0  0  0
 20 17  1  0  0  0  0
 21 15  2  0  0  0  0
 22 23  1  0  0  0  0
 24  7  1  0  0  0  0
 24 28  1  0  0  0  0
 25 24  1  0  0  0  0
 26 24  1  0  0  0  0
 27 14  1  0  0  0  0
 27  6  1  0  0  0  0
 28 30  1  0  0  0  0
 28 14  1  0  0  0  0
 29 28  1  0  0  0  0
 31 33  1  0  0  0  0
 31 32  1  0  0  0  0
 34 31  1  0  0  0  0
 35 12  1  0  0  0  0
 36 35  1  0  0  0  0
 37 38  1  0  0  0  0
 37  7  1  0  0  0  0
 39 37  1  0  0  0  0
 40 37  1  0  0  0  0
M  END
$$$$
