CSD_code = ITUJIS | q = 0 | S = 0 | Stoichiometry = C15H24Cl2N4Zn | MND = 4
 OpenBabel04212202053D

 46 48  0  0  0  0  0  0  0  0999 V2000
    4.9870    6.3270    0.1239 Cl  0  0  0  0  0  0  0  0  0  0  0  0
    3.2443    5.4067    3.3356 C   0  0  0  0  0  0  0  0  0  0  0  0
    3.4185    6.0891    2.5052 H   0  0  0  0  0  0  0  0  0  0  0  0
    2.1704    5.3376    3.5188 H   0  0  0  0  0  0  0  0  0  0  0  0
    3.6243    4.4160    3.0712 H   0  0  0  0  0  0  0  0  0  0  0  0
    3.8852    5.9059    4.5187 N   0  0  0  0  0  0  0  0  0  0  0  0
    6.5027    4.1091    3.0595 Cl  0  0  0  0  0  0  0  0  0  0  0  0
    6.1447    6.0417    1.9768 Zn  0  0  0  0  0  0  0  0  0  0  0  0
    4.9062    6.7710    4.5849 C   0  0  0  0  0  3  0  0  0  0  0  0
    5.5028    7.2388    3.5232 N   0  0  0  0  0  0  0  0  0  0  0  0
    7.3242    8.5666    2.6838 C   0  0  0  0  0  0  0  0  0  0  0  0
    8.7262    6.7131    3.2261 C   0  0  0  0  0  0  0  0  0  0  0  0
    9.0684    5.7488    2.8497 H   0  0  0  0  0  0  0  0  0  0  0  0
    8.0652    6.5079    4.0700 H   0  0  0  0  0  0  0  0  0  0  0  0
    9.9170    7.5346    3.7120 C   0  0  0  0  0  0  0  0  0  0  0  0
   10.6627    7.6636    2.9318 H   0  0  0  0  0  0  0  0  0  0  0  0
   10.3885    7.0124    4.5407 H   0  0  0  0  0  0  0  0  0  0  0  0
    9.5992    8.5158    4.0593 H   0  0  0  0  0  0  0  0  0  0  0  0
    8.6242    7.5320    0.9070 C   0  0  0  0  0  0  0  0  0  0  0  0
    9.5741    8.0591    1.0565 H   0  0  0  0  0  0  0  0  0  0  0  0
    7.9823    8.1438    0.2680 H   0  0  0  0  0  0  0  0  0  0  0  0
    7.9074    7.3531    2.1768 N   0  0  0  0  0  4  0  0  0  0  0  0
    4.4336    6.1655    6.7682 C   0  0  0  0  0  0  0  0  0  0  0  0
    3.8443    6.7538    7.4787 H   0  0  0  0  0  0  0  0  0  0  0  0
    5.1214    5.5273    7.3326 H   0  0  0  0  0  0  0  0  0  0  0  0
    5.1800    7.0593    5.8945 N   0  0  0  0  0  0  0  0  0  0  0  0
    3.5560    5.3510    5.8115 C   0  0  0  0  0  0  0  0  0  0  0  0
    3.7907    4.2807    5.8365 H   0  0  0  0  0  0  0  0  0  0  0  0
    2.4878    5.4778    6.0138 H   0  0  0  0  0  0  0  0  0  0  0  0
    7.8755    9.8217    2.4684 C   0  0  0  0  0  0  0  0  0  0  0  0
    8.7675    9.9274    1.8715 H   0  0  0  0  0  0  0  0  0  0  0  0
    7.2999   10.9572    3.0131 C   0  0  0  0  0  0  0  0  0  0  0  0
    7.7474   11.9222    2.8321 H   0  0  0  0  0  0  0  0  0  0  0  0
    6.1569   10.8497    3.7858 C   0  0  0  0  0  0  0  0  0  0  0  0
    5.7031   11.7312    4.2125 H   0  0  0  0  0  0  0  0  0  0  0  0
    5.5841    9.6123    3.9972 C   0  0  0  0  0  0  0  0  0  0  0  0
    4.6729    9.5176    4.5696 H   0  0  0  0  0  0  0  0  0  0  0  0
    6.1531    8.4588    3.4521 C   0  0  0  0  0  0  0  0  0  0  0  0
    6.4542    7.5215    6.3828 C   0  0  0  0  0  0  0  0  0  0  0  0
    6.2985    8.0122    7.3442 H   0  0  0  0  0  0  0  0  0  0  0  0
    6.8854    8.2400    5.6915 H   0  0  0  0  0  0  0  0  0  0  0  0
    7.1536    6.6885    6.5209 H   0  0  0  0  0  0  0  0  0  0  0  0
    8.8987    6.2116    0.2013 C   0  0  0  0  0  0  0  0  0  0  0  0
    9.2969    6.4127   -0.7903 H   0  0  0  0  0  0  0  0  0  0  0  0
    7.9760    5.6416    0.0857 H   0  0  0  0  0  0  0  0  0  0  0  0
    9.6212    5.6046    0.7411 H   0  0  0  0  0  0  0  0  0  0  0  0
  1  8  1  0  0  0  0
  2  4  1  0  0  0  0
  2  6  1  0  0  0  0
  3  2  1  0  0  0  0
  5  2  1  0  0  0  0
  6  9  1  0  0  0  0
  6 27  1  0  0  0  0
  8 22  1  0  0  0  0
  8  7  1  0  0  0  0
  8 10  1  0  0  0  0
  9 26  1  0  0  0  0
 10  9  1  0  0  0  0
 11 38  1  0  0  0  0
 12 15  1  0  0  0  0
 12 14  1  0  0  0  0
 13 12  1  0  0  0  0
 15 18  1  0  0  0  0
 15 17  1  0  0  0  0
 16 15  1  0  0  0  0
 19 20  1  0  0  0  0
 19 22  1  0  0  0  0
 21 19  1  0  0  0  0
 22 11  1  0  0  0  0
 22 12  1  0  0  0  0
 23 25  1  0  0  0  0
 23 24  1  0  0  0  0
 26 39  1  0  0  0  0
 26 23  1  0  0  0  0
 27 28  1  0  0  0  0
 27 29  1  0  0  0  0
 27 23  1  0  0  0  0
 30 11  2  0  0  0  0
 30 32  1  0  0  0  0
 31 30  1  0  0  0  0
 32 34  2  0  0  0  0
 33 32  1  0  0  0  0
 34 36  1  0  0  0  0
 34 35  1  0  0  0  0
 36 37  1  0  0  0  0
 38 10  1  0  0  0  0
 38 36  2  0  0  0  0
 39 42  1  0  0  0  0
 39 40  1  0  0  0  0
 41 39  1  0  0  0  0
 43 46  1  0  0  0  0
 43 19  1  0  0  0  0
 44 43  1  0  0  0  0
 45 43  1  0  0  0  0
M  END
$$$$
