CSD_code = ITUVUQ | q = 0 | S = 0 | Stoichiometry = C27H33ClN3O2Rh | MND = 4
 OpenBabel04212202053D

 67 69  0  0  0  0  0  0  0  0999 V2000
    8.4677   13.7895   34.0310 Rh  0  0  0  0  0  0  0  0  0  0  0  0
    7.9320   13.6807   31.8429 Cl  0  0  0  0  0  0  0  0  0  0  0  0
    9.3590   13.9134   36.8774 O   0  0  0  0  0  1  0  0  0  0  0  0
    7.0166   11.1736   33.9523 O   0  0  0  0  0  1  0  0  0  0  0  0
   10.4492   16.1350   33.7495 N   0  0  0  0  0  0  0  0  0  0  0  0
   10.6038   17.3380   33.2411 N   0  0  0  0  0  2  0  0  0  0  0  0
    9.4289   17.6666   32.7648 N   0  0  0  0  0  0  0  0  0  0  0  0
    9.1958   15.6416   33.6286 C   0  0  0  0  0  0  0  0  0  0  0  0
    8.5204   16.6824   32.9679 C   0  0  0  0  0  0  0  0  0  0  0  0
   11.5234   15.5139   34.4429 C   0  0  0  0  0  0  0  0  0  0  0  0
   11.8091   15.9581   35.7380 C   0  0  0  0  0  0  0  0  0  0  0  0
   12.8606   15.3552   36.4118 C   0  0  0  0  0  0  0  0  0  0  0  0
   13.5873   14.3373   35.8224 C   0  0  0  0  0  0  0  0  0  0  0  0
   13.2794   13.9076   34.5475 C   0  0  0  0  0  0  0  0  0  0  0  0
   12.2439   14.4911   33.8273 C   0  0  0  0  0  0  0  0  0  0  0  0
   11.0138   17.0795   36.3653 C   0  0  0  0  0  0  0  0  0  0  0  0
   11.7178   18.4112   36.0829 C   0  0  0  0  0  0  0  0  0  0  0  0
   10.8038   16.8897   37.8672 C   0  0  0  0  0  0  0  0  0  0  0  0
   11.9172   14.0040   32.4369 C   0  0  0  0  0  0  0  0  0  0  0  0
   13.1377   14.0890   31.5184 C   0  0  0  0  0  0  0  0  0  0  0  0
   11.3762   12.5744   32.5136 C   0  0  0  0  0  0  0  0  0  0  0  0
    9.2569   18.9638   32.1783 C   0  0  0  0  0  0  0  0  0  0  0  0
    7.1157   16.7184   32.6013 C   0  0  0  0  0  0  0  0  0  0  0  0
    6.6516   17.3104   31.4292 C   0  0  0  0  0  0  0  0  0  0  0  0
    5.3095   17.2705   31.1108 C   0  0  0  0  0  0  0  0  0  0  0  0
    4.3772   16.6460   31.9353 C   0  0  0  0  0  0  0  0  0  0  0  0
    4.8505   16.0482   33.0989 C   0  0  0  0  0  0  0  0  0  0  0  0
    6.1910   16.0790   33.4280 C   0  0  0  0  0  0  0  0  0  0  0  0
    2.9139   16.6217   31.5279 C   0  0  0  0  0  0  0  0  0  0  0  0
    2.4083   18.0637   31.3766 C   0  0  0  0  0  0  0  0  0  0  0  0
    2.7886   15.8804   30.1893 C   0  0  0  0  0  0  0  0  0  0  0  0
    2.0281   15.9105   32.5541 C   0  0  0  0  0  0  0  0  0  0  0  0
    8.9929   13.8732   35.7855 C   0  0  0  0  0  2  0  0  0  0  0  0
    7.6144   12.1376   34.0865 C   0  0  0  0  0  2  0  0  0  0  0  0
   11.8261   18.5636   35.0113 H   0  0  0  0  0  0  0  0  0  0  0  0
   12.7081   18.4122   36.5326 H   0  0  0  0  0  0  0  0  0  0  0  0
   11.1456   19.2362   36.5019 H   0  0  0  0  0  0  0  0  0  0  0  0
   11.7274   17.0400   38.4196 H   0  0  0  0  0  0  0  0  0  0  0  0
   10.4276   15.8914   38.0746 H   0  0  0  0  0  0  0  0  0  0  0  0
   10.0769   17.6142   38.2284 H   0  0  0  0  0  0  0  0  0  0  0  0
   13.9255   13.4157   31.8460 H   0  0  0  0  0  0  0  0  0  0  0  0
   13.5344   15.1023   31.5041 H   0  0  0  0  0  0  0  0  0  0  0  0
   12.8544   13.8135   30.5054 H   0  0  0  0  0  0  0  0  0  0  0  0
   12.1152   11.8941   32.9298 H   0  0  0  0  0  0  0  0  0  0  0  0
   11.0935   12.2294   31.5223 H   0  0  0  0  0  0  0  0  0  0  0  0
   10.4785   12.5567   33.1540 H   0  0  0  0  0  0  0  0  0  0  0  0
    9.4069   18.9216   31.0980 H   0  0  0  0  0  0  0  0  0  0  0  0
   10.0037   19.6300   32.6083 H   0  0  0  0  0  0  0  0  0  0  0  0
    8.2544   19.3324   32.3915 H   0  0  0  0  0  0  0  0  0  0  0  0
    2.5058   18.5984   32.3195 H   0  0  0  0  0  0  0  0  0  0  0  0
    1.3593   18.0623   31.0885 H   0  0  0  0  0  0  0  0  0  0  0  0
    2.9670   18.6048   30.6179 H   0  0  0  0  0  0  0  0  0  0  0  0
    1.7430   15.8083   29.8975 H   0  0  0  0  0  0  0  0  0  0  0  0
    3.1939   14.8751   30.2794 H   0  0  0  0  0  0  0  0  0  0  0  0
    3.3284   16.3942   29.3986 H   0  0  0  0  0  0  0  0  0  0  0  0
    2.0757   16.4032   33.5228 H   0  0  0  0  0  0  0  0  0  0  0  0
    0.9939   15.9332   32.2166 H   0  0  0  0  0  0  0  0  0  0  0  0
    2.3205   14.8695   32.6671 H   0  0  0  0  0  0  0  0  0  0  0  0
   13.1128   15.6764   37.4091 H   0  0  0  0  0  0  0  0  0  0  0  0
   14.3983   13.8748   36.3650 H   0  0  0  0  0  0  0  0  0  0  0  0
   13.8514   13.1081   34.1038 H   0  0  0  0  0  0  0  0  0  0  0  0
   10.0203   17.1050   35.9026 H   0  0  0  0  0  0  0  0  0  0  0  0
   11.1295   14.6284   32.0044 H   0  0  0  0  0  0  0  0  0  0  0  0
    7.3414   17.7587   30.7305 H   0  0  0  0  0  0  0  0  0  0  0  0
    4.9925   17.7272   30.1853 H   0  0  0  0  0  0  0  0  0  0  0  0
    4.1769   15.5370   33.7664 H   0  0  0  0  0  0  0  0  0  0  0  0
    6.5330   15.5979   34.3452 H   0  0  0  0  0  0  0  0  0  0  0  0
  1 34  1  0  0  0  0
  1 33  1  0  0  0  0
  2  1  1  0  0  0  0
  4 34  1  0  0  0  0
  5 10  1  0  0  0  0
  6  5  1  0  0  0  0
  7  9  1  0  0  0  0
  7  6  1  0  0  0  0
  8  5  1  0  0  0  0
  8  1  1  0  0  0  0
  9  8  2  0  0  0  0
 10 11  1  0  0  0  0
 11 16  1  0  0  0  0
 11 12  2  0  0  0  0
 12 59  1  0  0  0  0
 13 60  1  0  0  0  0
 13 12  1  0  0  0  0
 14 13  2  0  0  0  0
 15 10  2  0  0  0  0
 15 14  1  0  0  0  0
 16 18  1  0  0  0  0
 17 16  1  0  0  0  0
 17 37  1  0  0  0  0
 17 36  1  0  0  0  0
 18 39  1  0  0  0  0
 18 40  1  0  0  0  0
 18 38  1  0  0  0  0
 19 21  1  0  0  0  0
 19 15  1  0  0  0  0
 20 41  1  0  0  0  0
 20 19  1  0  0  0  0
 21 44  1  0  0  0  0
 21 46  1  0  0  0  0
 22 49  1  0  0  0  0
 22 48  1  0  0  0  0
 22  7  1  0  0  0  0
 23  9  1  0  0  0  0
 23 28  1  0  0  0  0
 24 23  2  0  0  0  0
 25 24  1  0  0  0  0
 25 26  2  0  0  0  0
 26 27  1  0  0  0  0
 27 28  2  0  0  0  0
 27 66  1  0  0  0  0
 28 67  1  0  0  0  0
 29 26  1  0  0  0  0
 29 32  1  0  0  0  0
 30 29  1  0  0  0  0
 30 50  1  0  0  0  0
 31 54  1  0  0  0  0
 31 29  1  0  0  0  0
 32 58  1  0  0  0  0
 32 56  1  0  0  0  0
 33  3  1  0  0  0  0
 35 17  1  0  0  0  0
 42 20  1  0  0  0  0
 43 20  1  0  0  0  0
 45 21  1  0  0  0  0
 47 22  1  0  0  0  0
 51 30  1  0  0  0  0
 52 30  1  0  0  0  0
 53 31  1  0  0  0  0
 55 31  1  0  0  0  0
 57 32  1  0  0  0  0
 61 14  1  0  0  0  0
 62 16  1  0  0  0  0
 63 19  1  0  0  0  0
 64 24  1  0  0  0  0
 65 25  1  0  0  0  0
M  END
$$$$
