CSD_code = ITUVEA | q = 0 | S = 0 | Stoichiometry = C25H33AuClN3 | MND = 2
 OpenBabel04212202053D

 63 65  0  0  0  0  0  0  0  0999 V2000
    0.6278   22.4387    7.8201 Au  0  0  0  0  0  0  0  0  0  0  0  0
   -1.2305   22.3741    6.5585 Cl  0  0  0  0  0  0  0  0  0  0  0  0
    2.8149   23.7235    9.3144 N   0  0  0  0  0  0  0  0  0  0  0  0
    3.9055   23.5991   10.0329 N   0  0  0  0  0  2  0  0  0  0  0  0
    4.1129   22.3100   10.1199 N   0  0  0  0  0  0  0  0  0  0  0  0
    2.2724   22.5502    8.9218 C   0  0  0  0  0  0  0  0  0  0  0  0
    3.1522   21.6100    9.4630 C   0  0  0  0  0  0  0  0  0  0  0  0
    2.2787   25.0042    9.0200 C   0  0  0  0  0  0  0  0  0  0  0  0
    1.4148   25.5902    9.9475 C   0  0  0  0  0  0  0  0  0  0  0  0
    0.9068   26.8465    9.6525 C   0  0  0  0  0  0  0  0  0  0  0  0
    1.2364   27.4815    8.4694 C   0  0  0  0  0  0  0  0  0  0  0  0
    2.0764   26.8724    7.5584 C   0  0  0  0  0  0  0  0  0  0  0  0
    2.6157   25.6186    7.8152 C   0  0  0  0  0  0  0  0  0  0  0  0
    1.0805   24.8781   11.2368 C   0  0  0  0  0  0  0  0  0  0  0  0
    2.0688   25.3172   12.3227 C   0  0  0  0  0  0  0  0  0  0  0  0
   -0.3612   25.1136   11.6838 C   0  0  0  0  0  0  0  0  0  0  0  0
    3.5231   24.9545    6.8085 C   0  0  0  0  0  0  0  0  0  0  0  0
    4.7908   25.7857    6.5967 C   0  0  0  0  0  0  0  0  0  0  0  0
    2.7793   24.7314    5.4903 C   0  0  0  0  0  0  0  0  0  0  0  0
    5.2185   21.8272   10.8951 C   0  0  0  0  0  0  0  0  0  0  0  0
    3.0932   20.1608    9.3722 C   0  0  0  0  0  0  0  0  0  0  0  0
    4.2225   19.3876    9.1222 C   0  0  0  0  0  0  0  0  0  0  0  0
    4.1258   18.0120    9.0156 C   0  0  0  0  0  0  0  0  0  0  0  0
    2.9073   17.3585    9.1557 C   0  0  0  0  0  0  0  0  0  0  0  0
    1.7812   18.1443    9.3986 C   0  0  0  0  0  0  0  0  0  0  0  0
    1.8638   19.5160    9.5013 C   0  0  0  0  0  0  0  0  0  0  0  0
    2.7588   15.8508    9.0471 C   0  0  0  0  0  0  0  0  0  0  0  0
    4.0875   15.1443    8.7641 C   0  0  0  0  0  0  0  0  0  0  0  0
    2.1996   15.3097   10.3708 C   0  0  0  0  0  0  0  0  0  0  0  0
    1.7899   15.5278    7.9010 C   0  0  0  0  0  0  0  0  0  0  0  0
    0.2427   27.3333   10.3477 H   0  0  0  0  0  0  0  0  0  0  0  0
    0.8277   28.4572    8.2536 H   0  0  0  0  0  0  0  0  0  0  0  0
    2.3143   27.3755    6.6346 H   0  0  0  0  0  0  0  0  0  0  0  0
    1.1958   23.7998   11.0775 H   0  0  0  0  0  0  0  0  0  0  0  0
    1.9781   26.3862   12.5011 H   0  0  0  0  0  0  0  0  0  0  0  0
    3.0914   25.1063   12.0153 H   0  0  0  0  0  0  0  0  0  0  0  0
    1.8650   24.7915   13.2530 H   0  0  0  0  0  0  0  0  0  0  0  0
   -1.0477   24.9167   10.8641 H   0  0  0  0  0  0  0  0  0  0  0  0
   -0.5086   26.1330   12.0306 H   0  0  0  0  0  0  0  0  0  0  0  0
   -0.6038   24.4428   12.5050 H   0  0  0  0  0  0  0  0  0  0  0  0
    3.8254   23.9725    7.1868 H   0  0  0  0  0  0  0  0  0  0  0  0
    5.3081   25.9379    7.5420 H   0  0  0  0  0  0  0  0  0  0  0  0
    4.5507   26.7584    6.1762 H   0  0  0  0  0  0  0  0  0  0  0  0
    5.4618   25.2728    5.9115 H   0  0  0  0  0  0  0  0  0  0  0  0
    3.4126   24.1888    4.7922 H   0  0  0  0  0  0  0  0  0  0  0  0
    2.4974   25.6771    5.0359 H   0  0  0  0  0  0  0  0  0  0  0  0
    1.8757   24.1489    5.6618 H   0  0  0  0  0  0  0  0  0  0  0  0
    5.4133   22.5416   11.6938 H   0  0  0  0  0  0  0  0  0  0  0  0
    6.1147   21.7429   10.2776 H   0  0  0  0  0  0  0  0  0  0  0  0
    4.9726   20.8517   11.3119 H   0  0  0  0  0  0  0  0  0  0  0  0
    5.1828   19.8585    8.9692 H   0  0  0  0  0  0  0  0  0  0  0  0
    5.0266   17.4568    8.8116 H   0  0  0  0  0  0  0  0  0  0  0  0
    0.8121   17.6830    9.5061 H   0  0  0  0  0  0  0  0  0  0  0  0
    0.9760   20.1019    9.6828 H   0  0  0  0  0  0  0  0  0  0  0  0
    4.5133   15.4748    7.8196 H   0  0  0  0  0  0  0  0  0  0  0  0
    3.9183   14.0717    8.6972 H   0  0  0  0  0  0  0  0  0  0  0  0
    4.8053   15.3203    9.5624 H   0  0  0  0  0  0  0  0  0  0  0  0
    2.0931   14.2287   10.3160 H   0  0  0  0  0  0  0  0  0  0  0  0
    1.2258   15.7362   10.5940 H   0  0  0  0  0  0  0  0  0  0  0  0
    2.8737   15.5483   11.1914 H   0  0  0  0  0  0  0  0  0  0  0  0
    2.1652   15.9351    6.9646 H   0  0  0  0  0  0  0  0  0  0  0  0
    0.8045   15.9468    8.0822 H   0  0  0  0  0  0  0  0  0  0  0  0
    1.6870   14.4504    7.7926 H   0  0  0  0  0  0  0  0  0  0  0  0
  1  6  1  0  0  0  0
  2  1  1  0  0  0  0
  3  4  1  0  0  0  0
  4  5  1  0  0  0  0
  5 20  1  0  0  0  0
  6  3  1  0  0  0  0
  6  7  2  0  0  0  0
  7  5  1  0  0  0  0
  8  3  1  0  0  0  0
  8  9  1  0  0  0  0
  9 14  1  0  0  0  0
 10  9  2  0  0  0  0
 10 31  1  0  0  0  0
 11 10  1  0  0  0  0
 12 13  1  0  0  0  0
 12 11  2  0  0  0  0
 13  8  2  0  0  0  0
 14 16  1  0  0  0  0
 14 15  1  0  0  0  0
 15 35  1  0  0  0  0
 15 37  1  0  0  0  0
 16 39  1  0  0  0  0
 16 40  1  0  0  0  0
 17 41  1  0  0  0  0
 17 13  1  0  0  0  0
 18 17  1  0  0  0  0
 18 42  1  0  0  0  0
 19 47  1  0  0  0  0
 19 17  1  0  0  0  0
 20 50  1  0  0  0  0
 20 48  1  0  0  0  0
 21  7  1  0  0  0  0
 21 26  1  0  0  0  0
 22 21  2  0  0  0  0
 23 22  1  0  0  0  0
 23 24  2  0  0  0  0
 24 25  1  0  0  0  0
 25 26  2  0  0  0  0
 25 53  1  0  0  0  0
 26 54  1  0  0  0  0
 27 24  1  0  0  0  0
 27 29  1  0  0  0  0
 28 27  1  0  0  0  0
 28 57  1  0  0  0  0
 29 59  1  0  0  0  0
 29 60  1  0  0  0  0
 30 62  1  0  0  0  0
 30 27  1  0  0  0  0
 32 11  1  0  0  0  0
 33 12  1  0  0  0  0
 34 14  1  0  0  0  0
 36 15  1  0  0  0  0
 38 16  1  0  0  0  0
 43 18  1  0  0  0  0
 44 18  1  0  0  0  0
 45 19  1  0  0  0  0
 46 19  1  0  0  0  0
 49 20  1  0  0  0  0
 51 22  1  0  0  0  0
 52 23  1  0  0  0  0
 55 28  1  0  0  0  0
 56 28  1  0  0  0  0
 58 29  1  0  0  0  0
 61 30  1  0  0  0  0
 63 30  1  0  0  0  0
M  END
$$$$
