CSD_code = IVAHUK | q = 0 | S = 0 | Stoichiometry = C16H11Cl2N2O3Re | MND = 6
 OpenBabel04212202053D

 35 37  0  0  0  0  0  0  0  0999 V2000
    2.3501    2.5822    2.9675 Re  0  0  0  0  0  0  0  0  0  0  0  0
    2.7903    2.0736    0.6838 Cl  0  0  0  0  0  0  0  0  0  0  0  0
    5.3346   -3.6630    4.6707 Cl  0  0  0  0  0  0  0  0  0  0  0  0
    1.6286    0.5830    2.9429 N   0  0  0  0  0  0  0  0  0  0  0  0
    0.3633    2.7362    2.1918 N   0  0  0  0  0  0  0  0  0  0  0  0
    3.1725    5.4798    2.2767 O   0  0  0  0  0  1  0  0  0  0  0  0
    5.2373    1.6652    3.5743 O   0  0  0  0  0  1  0  0  0  0  0  0
    1.5282    3.1202    5.8978 O   0  0  0  0  0  1  0  0  0  0  0  0
   -0.0355   -0.9900    2.0292 C   0  0  0  0  0  0  0  0  0  0  0  0
    0.5146   -1.7544    2.5736 H   0  0  0  0  0  0  0  0  0  0  0  0
    0.0156   -1.2177    0.9646 H   0  0  0  0  0  0  0  0  0  0  0  0
   -1.0800   -1.0222    2.3364 H   0  0  0  0  0  0  0  0  0  0  0  0
    0.5358    0.3664    2.2956 C   0  0  0  0  0  0  0  0  0  0  0  0
   -0.1883    1.5542    1.8459 C   0  0  0  0  0  0  0  0  0  0  0  0
   -1.3597    1.4899    1.0906 C   0  0  0  0  0  0  0  0  0  0  0  0
   -1.7710    0.5352    0.8068 H   0  0  0  0  0  0  0  0  0  0  0  0
   -1.9739    2.6601    0.6891 C   0  0  0  0  0  0  0  0  0  0  0  0
   -2.8723    2.6305    0.0919 H   0  0  0  0  0  0  0  0  0  0  0  0
   -1.4094    3.8697    1.0678 C   0  0  0  0  0  0  0  0  0  0  0  0
   -1.8539    4.8089    0.7813 H   0  0  0  0  0  0  0  0  0  0  0  0
   -0.2453    3.8553    1.8153 C   0  0  0  0  0  0  0  0  0  0  0  0
    0.2217    4.7825    2.1214 H   0  0  0  0  0  0  0  0  0  0  0  0
    2.4706   -0.4645    3.3497 C   0  0  0  0  0  0  0  0  0  0  0  0
    3.0564   -1.3111    2.4099 C   0  0  0  0  0  0  0  0  0  0  0  0
    2.8491   -1.1661    1.3601 H   0  0  0  0  0  0  0  0  0  0  0  0
    3.9479   -2.2857    2.8139 C   0  0  0  0  0  0  0  0  0  0  0  0
    4.4160   -2.9292    2.0861 H   0  0  0  0  0  0  0  0  0  0  0  0
    4.2382   -2.4313    4.1616 C   0  0  0  0  0  0  0  0  0  0  0  0
    3.6647   -1.5915    5.1060 C   0  0  0  0  0  0  0  0  0  0  0  0
    3.9079   -1.7068    6.1499 H   0  0  0  0  0  0  0  0  0  0  0  0
    2.7927   -0.6023    4.6994 C   0  0  0  0  0  0  0  0  0  0  0  0
    2.3536    0.0711    5.4209 H   0  0  0  0  0  0  0  0  0  0  0  0
    2.8891    4.4235    2.6096 C   0  0  0  0  0  2  0  0  0  0  0  0
    4.1815    2.0688    3.4109 C   0  0  0  0  0  2  0  0  0  0  0  0
    1.8510    2.9360    4.8101 C   0  0  0  0  0  2  0  0  0  0  0  0
  1 34  1  0  0  0  0
  1 35  1  0  0  0  0
  2  1  1  0  0  0  0
  4  1  1  0  0  0  0
  4 23  1  0  0  0  0
  5  1  1  0  0  0  0
  6 33  1  0  0  0  0
  9 13  1  0  0  0  0
  9 12  1  0  0  0  0
  9 10  1  0  0  0  0
 11  9  1  0  0  0  0
 13  4  1  0  0  0  0
 14  5  1  0  0  0  0
 14 13  2  0  0  0  0
 15 14  1  0  0  0  0
 16 15  1  0  0  0  0
 17 19  1  0  0  0  0
 17 15  2  0  0  0  0
 18 17  1  0  0  0  0
 19 21  2  0  0  0  0
 20 19  1  0  0  0  0
 21 22  1  0  0  0  0
 21  5  1  0  0  0  0
 23 31  1  0  0  0  0
 24 26  1  0  0  0  0
 24 23  2  0  0  0  0
 25 24  1  0  0  0  0
 26 28  2  0  0  0  0
 27 26  1  0  0  0  0
 28  3  1  0  0  0  0
 28 29  1  0  0  0  0
 29 30  1  0  0  0  0
 31 29  2  0  0  0  0
 31 32  1  0  0  0  0
 33  1  1  0  0  0  0
 34  7  1  0  0  0  0
 35  8  1  0  0  0  0
M  END
$$$$
