CSD_code = IVAJOG | q = 0 | S = 0 | Stoichiometry = C19H18ClN2O3Re | MND = 6
 OpenBabel04212202053D

 44 46  0  0  0  0  0  0  0  0999 V2000
    9.6059    2.1470    3.0065 Re  0  0  0  0  0  0  0  0  0  0  0  0
    9.9022    2.9438    0.7652 Cl  0  0  0  0  0  0  0  0  0  0  0  0
    8.5155    3.9477    3.3312 N   0  0  0  0  0  0  0  0  0  0  0  0
    7.6752    1.7679    2.1492 N   0  0  0  0  0  0  0  0  0  0  0  0
   12.2673    3.4342    3.9133 O   0  0  0  0  0  1  0  0  0  0  0  0
   10.9449   -0.3423    1.7595 O   0  0  0  0  0  1  0  0  0  0  0  0
    9.0942    0.7980    5.7405 O   0  0  0  0  0  1  0  0  0  0  0  0
    6.6168    5.3319    2.6113 C   0  0  0  0  0  0  0  0  0  0  0  0
    7.0343    6.0777    3.2843 H   0  0  0  0  0  0  0  0  0  0  0  0
    5.5853    5.1306    2.8981 H   0  0  0  0  0  0  0  0  0  0  0  0
    6.6182    5.7372    1.5994 H   0  0  0  0  0  0  0  0  0  0  0  0
    7.4311    4.0778    2.6519 C   0  0  0  0  0  0  0  0  0  0  0  0
    6.9703    2.8966    1.9231 C   0  0  0  0  0  0  0  0  0  0  0  0
    5.8651    2.9074    1.0726 C   0  0  0  0  0  0  0  0  0  0  0  0
    5.3338    3.8264    0.8867 H   0  0  0  0  0  0  0  0  0  0  0  0
    5.4761    1.7363    0.4518 C   0  0  0  0  0  0  0  0  0  0  0  0
    4.6349    1.7275   -0.2242 H   0  0  0  0  0  0  0  0  0  0  0  0
    6.1892    0.5755    0.7155 C   0  0  0  0  0  0  0  0  0  0  0  0
    5.9180   -0.3635    0.2609 H   0  0  0  0  0  0  0  0  0  0  0  0
    7.2785    0.6431    1.5660 C   0  0  0  0  0  0  0  0  0  0  0  0
    7.8623   -0.2423    1.7833 H   0  0  0  0  0  0  0  0  0  0  0  0
    8.9542    4.9859    4.1961 C   0  0  0  0  0  0  0  0  0  0  0  0
    8.4776    4.9913    5.5116 C   0  0  0  0  0  0  0  0  0  0  0  0
    8.9666    5.9391    6.3965 C   0  0  0  0  0  0  0  0  0  0  0  0
    8.6056    5.9351    7.4148 H   0  0  0  0  0  0  0  0  0  0  0  0
    9.9037    6.8832    6.0061 C   0  0  0  0  0  0  0  0  0  0  0  0
   10.3319    6.8800    4.6872 C   0  0  0  0  0  0  0  0  0  0  0  0
   11.0471    7.6211    4.3604 H   0  0  0  0  0  0  0  0  0  0  0  0
    9.8701    5.9510    3.7675 C   0  0  0  0  0  0  0  0  0  0  0  0
    7.4326    4.0104    5.9523 C   0  0  0  0  0  0  0  0  0  0  0  0
    7.3864    3.9674    7.0369 H   0  0  0  0  0  0  0  0  0  0  0  0
    7.6475    3.0130    5.5723 H   0  0  0  0  0  0  0  0  0  0  0  0
    6.4500    4.3080    5.5814 H   0  0  0  0  0  0  0  0  0  0  0  0
   10.4192    7.9058    6.9719 C   0  0  0  0  0  0  0  0  0  0  0  0
    9.8916    8.8503    6.8350 H   0  0  0  0  0  0  0  0  0  0  0  0
   11.4788    8.0882    6.8082 H   0  0  0  0  0  0  0  0  0  0  0  0
   10.2713    7.5795    7.9982 H   0  0  0  0  0  0  0  0  0  0  0  0
   10.3146    6.0223    2.3406 C   0  0  0  0  0  0  0  0  0  0  0  0
   11.2474    6.5735    2.2581 H   0  0  0  0  0  0  0  0  0  0  0  0
    9.5627    6.5356    1.7382 H   0  0  0  0  0  0  0  0  0  0  0  0
   10.4557    5.0326    1.9122 H   0  0  0  0  0  0  0  0  0  0  0  0
   11.3035    2.9021    3.6056 C   0  0  0  0  0  2  0  0  0  0  0  0
   10.4745    0.5428    2.3072 C   0  0  0  0  0  2  0  0  0  0  0  0
    9.2751    1.3369    4.7403 C   0  0  0  0  0  2  0  0  0  0  0  0
  1  3  1  0  0  0  0
  1 42  1  0  0  0  0
  1 44  1  0  0  0  0
  2  1  1  0  0  0  0
  3 22  1  0  0  0  0
  4  1  1  0  0  0  0
  6 43  1  0  0  0  0
  8 12  1  0  0  0  0
  8 10  1  0  0  0  0
  8  9  1  0  0  0  0
 11  8  1  0  0  0  0
 12  3  1  0  0  0  0
 13  4  1  0  0  0  0
 13 12  2  0  0  0  0
 14 13  1  0  0  0  0
 15 14  1  0  0  0  0
 16 18  1  0  0  0  0
 16 14  2  0  0  0  0
 17 16  1  0  0  0  0
 18 20  2  0  0  0  0
 19 18  1  0  0  0  0
 20 21  1  0  0  0  0
 20  4  1  0  0  0  0
 22 23  1  0  0  0  0
 23 30  1  0  0  0  0
 23 24  2  0  0  0  0
 24 25  1  0  0  0  0
 26 24  1  0  0  0  0
 26 34  1  0  0  0  0
 27 26  2  0  0  0  0
 28 27  1  0  0  0  0
 29 22  2  0  0  0  0
 29 27  1  0  0  0  0
 30 31  1  0  0  0  0
 32 30  1  0  0  0  0
 33 30  1  0  0  0  0
 34 37  1  0  0  0  0
 35 34  1  0  0  0  0
 36 34  1  0  0  0  0
 38 29  1  0  0  0  0
 39 38  1  0  0  0  0
 40 38  1  0  0  0  0
 41 38  1  0  0  0  0
 42  5  1  0  0  0  0
 43  1  1  0  0  0  0
 44  7  1  0  0  0  0
M  END
$$$$
