CSD_code = IVAMEZ | q = 0 | S = 0 | Stoichiometry = C31H28I2NPPd | MND = 4
 OpenBabel04212202053D

 64 68  0  0  1  0  0  0  0  0999 V2000
    3.9876    8.3336    4.6321 Pd  0  0  0  0  0  0  0  0  0  0  0  0
    5.5535    9.0230    2.6417 I   0  0  0  0  0  0  0  0  0  0  0  0
    2.4702    7.2556    6.4810 I   0  0  0  0  0  0  0  0  0  0  0  0
    2.1937    9.4791    3.8965 P   0  0  0  0  0  4  0  0  0  0  0  0
    5.5279    7.1757    5.3157 N   0  0  0  0  0  0  0  0  0  0  0  0
    1.2022    8.1180    3.2040 C   0  0  0  0  0  0  0  0  0  0  0  0
    1.2726    6.0554    1.9559 C   0  0  0  0  0  0  0  0  0  0  0  0
    1.8221    5.3424    1.3582 H   0  0  0  0  0  0  0  0  0  0  0  0
    1.9057    7.1865    2.4354 C   0  0  0  0  0  0  0  0  0  0  0  0
    2.9550    7.3617    2.1983 H   0  0  0  0  0  0  0  0  0  0  0  0
    1.0266   10.4328    4.9165 C   0  0  0  0  0  0  0  0  0  0  0  0
   -0.0611   11.0148    4.2682 C   0  0  0  0  0  0  0  0  0  0  0  0
   -0.1925   10.8684    3.2033 H   0  0  0  0  0  0  0  0  0  0  0  0
   -0.0624    5.8333    2.2558 C   0  0  0  0  0  0  0  0  0  0  0  0
   -0.5562    4.9446    1.8920 H   0  0  0  0  0  0  0  0  0  0  0  0
    1.2108   10.6444    6.2750 C   0  0  0  0  0  0  0  0  0  0  0  0
    2.0641   10.2163    6.7817 H   0  0  0  0  0  0  0  0  0  0  0  0
    0.3088   11.4162    6.9845 C   0  0  0  0  0  0  0  0  0  0  0  0
    0.4583   11.5752    8.0417 H   0  0  0  0  0  0  0  0  0  0  0  0
   -0.7571    6.7424    3.0350 C   0  0  0  0  0  0  0  0  0  0  0  0
   -1.7921    6.5611    3.2844 H   0  0  0  0  0  0  0  0  0  0  0  0
   -0.1311    7.8804    3.5145 C   0  0  0  0  0  0  0  0  0  0  0  0
   -0.6745    8.5681    4.1463 H   0  0  0  0  0  0  0  0  0  0  0  0
   -0.9599   11.7830    4.9816 C   0  0  0  0  0  0  0  0  0  0  0  0
   -1.8043   12.2287    4.4760 H   0  0  0  0  0  0  0  0  0  0  0  0
    6.7113    5.1298    5.3863 C   0  0  0  0  0  0  0  0  0  0  0  0
    6.8253    4.1195    5.0275 H   0  0  0  0  0  0  0  0  0  0  0  0
    7.5657    5.6493    6.3420 C   0  0  0  0  0  0  0  0  0  0  0  0
    8.3642    5.0476    6.7484 H   0  0  0  0  0  0  0  0  0  0  0  0
    7.3826    6.9533    6.7684 C   0  0  0  0  0  0  0  0  0  0  0  0
    8.0302    7.3942    7.5093 H   0  0  0  0  0  0  0  0  0  0  0  0
   -0.7770   11.9830    6.3411 C   0  0  0  0  0  0  0  0  0  0  0  0
   -1.4809   12.5856    6.8958 H   0  0  0  0  0  0  0  0  0  0  0  0
    6.3445    7.7001    6.2298 C   0  0  1  0  0  3  0  0  0  0  0  0
    5.6894    5.9251    4.8834 C   0  0  0  0  0  0  0  0  0  0  0  0
    2.4099   10.6552    2.5185 C   0  0  0  0  0  0  0  0  0  0  0  0
    2.1959   10.2763    1.1985 C   0  0  0  0  0  0  0  0  0  0  0  0
    1.8712    9.2703    0.9714 H   0  0  0  0  0  0  0  0  0  0  0  0
    2.8236   11.9617    2.8096 C   0  0  0  0  0  0  0  0  0  0  0  0
    3.0250   12.4178    4.1977 C   0  0  0  0  0  0  0  0  0  0  0  0
    3.9307   11.7986    5.0559 C   0  0  0  0  0  0  0  0  0  0  0  0
    4.5551   10.9857    4.6921 H   0  0  0  0  0  0  0  0  0  0  0  0
    2.4411   13.9523    5.9615 C   0  0  0  0  0  0  0  0  0  0  0  0
    1.8560   14.7895    6.3127 H   0  0  0  0  0  0  0  0  0  0  0  0
    2.2948   13.5094    4.6613 C   0  0  0  0  0  0  0  0  0  0  0  0
    1.5930   13.9942    3.9975 H   0  0  0  0  0  0  0  0  0  0  0  0
    2.7998   12.4713    0.4526 C   0  0  0  0  0  0  0  0  0  0  0  0
    2.9597   13.1773   -0.3485 H   0  0  0  0  0  0  0  0  0  0  0  0
    3.0037   12.8593    1.7643 C   0  0  0  0  0  0  0  0  0  0  0  0
    3.3268   13.8653    1.9906 H   0  0  0  0  0  0  0  0  0  0  0  0
    2.3914   11.1794    0.1699 C   0  0  0  0  0  0  0  0  0  0  0  0
    2.2256   10.8712   -0.8514 H   0  0  0  0  0  0  0  0  0  0  0  0
    4.0917   12.2613    6.3515 C   0  0  0  0  0  0  0  0  0  0  0  0
    4.8112   11.7935    7.0086 H   0  0  0  0  0  0  0  0  0  0  0  0
    3.3396   13.3283    6.8106 C   0  0  0  0  0  0  0  0  0  0  0  0
    3.4590   13.6775    7.8256 H   0  0  0  0  0  0  0  0  0  0  0  0
    4.7536    5.4309    3.8270 C   0  0  0  0  0  0  0  0  0  0  0  0
    3.7280    5.7852    4.0145 H   0  0  0  0  0  0  0  0  0  0  0  0
    4.7472    4.3443    3.7932 H   0  0  0  0  0  0  0  0  0  0  0  0
    5.0822    5.8045    2.8514 H   0  0  0  0  0  0  0  0  0  0  0  0
    6.1044    9.1253    6.6217 C   0  0  0  0  0  0  0  0  0  0  0  0
    6.5138    9.7865    5.8482 H   0  0  0  0  0  0  0  0  0  0  0  0
    6.5954    9.3561    7.5641 H   0  0  0  0  0  0  0  0  0  0  0  0
    5.0220    9.3200    6.7264 H   0  0  0  0  0  0  0  0  0  0  0  0
  1  5  1  0  0  0  0
  1  3  1  0  0  0  0
  2  1  1  0  0  0  0
  4  1  1  0  0  0  0
  4 11  1  0  0  0  0
  5 34  1  0  0  0  0
  6 22  1  0  0  0  0
  6  4  1  0  0  0  0
  7 14  2  0  0  0  0
  7  9  1  0  0  0  0
  8  7  1  0  0  0  0
  9  6  2  0  0  0  0
 10  9  1  0  0  0  0
 11 16  1  0  0  0  0
 12 11  2  0  0  0  0
 12 24  1  0  0  0  0
 13 12  1  0  0  0  0
 14 20  1  0  0  0  0
 15 14  1  0  0  0  0
 16 17  1  0  0  0  0
 16 18  2  0  0  0  0
 18 19  1  0  0  0  0
 20 21  1  0  0  0  0
 20 22  2  0  0  0  0
 22 23  1  0  0  0  0
 24 32  2  0  0  0  0
 25 24  1  0  0  0  0
 26 28  1  0  0  0  0
 27 26  1  0  0  0  0
 28 29  1  0  0  0  0
 28 30  2  0  0  0  0
 30 31  1  0  0  0  0
 32 33  1  0  0  0  0
 32 18  1  0  0  0  0
 34 61  1  6  0  0  0
 34 30  1  0  0  0  0
 35  5  1  0  0  0  0
 35 26  2  0  0  0  0
 36 39  1  0  0  0  0
 36  4  1  0  0  0  0
 37 36  2  0  0  0  0
 38 37  1  0  0  0  0
 39 40  1  0  0  0  0
 40 45  2  0  0  0  0
 40 41  1  0  0  0  0
 41 53  2  0  0  0  0
 42 41  1  0  0  0  0
 43 44  1  0  0  0  0
 43 55  2  0  0  0  0
 45 43  1  0  0  0  0
 46 45  1  0  0  0  0
 47 49  1  0  0  0  0
 48 47  1  0  0  0  0
 49 50  1  0  0  0  0
 49 39  2  0  0  0  0
 51 47  2  0  0  0  0
 51 37  1  0  0  0  0
 52 51  1  0  0  0  0
 53 55  1  0  0  0  0
 53 54  1  0  0  0  0
 55 56  1  0  0  0  0
 57 58  1  0  0  0  0
 57 35  1  0  0  0  0
 59 57  1  0  0  0  0
 60 57  1  0  0  0  0
 61 64  1  0  0  0  0
 61 63  1  0  0  0  0
 62 61  1  0  0  0  0
M  END
$$$$
