CSD_code = IVAWAD | q = 1 | S = 0 | Stoichiometry = C18H31ClN5Pd(1+) | MND = 4
 OpenBabel04212202053D

 56 59  0  0  1  0  0  0  0  0999 V2000
    9.4237    7.8096    3.6955 Cl  0  0  0  0  0  0  0  0  0  0  0  0
    9.3484    7.5345    5.9188 Pd  0  0  2  0  0  0  0  0  0  0  0  0
    9.3043    7.0182    8.0373 N   0  0  2  0  0  4  0  0  0  0  0  0
    8.9881    6.0570    7.8846 H   0  0  0  0  0  0  0  0  0  0  0  0
    7.5400    6.5703    5.9411 C   0  0  1  0  0  3  0  0  0  0  0  0
    6.9270    5.4622    5.4944 N   0  0  0  0  0  0  0  0  0  0  0  0
    5.7255    5.3098    6.1363 C   0  0  0  0  0  0  0  0  0  0  0  0
    5.0426    4.5155    5.9275 H   0  0  0  0  0  0  0  0  0  0  0  0
    5.6085    6.3194    7.0313 C   0  0  0  0  0  0  0  0  0  0  0  0
    4.8243    6.5514    7.7216 H   0  0  0  0  0  0  0  0  0  0  0  0
    6.7374    7.0814    6.9032 N   0  0  0  0  0  0  0  0  0  0  0  0
    7.1434    8.1805    7.7452 C   0  0  0  0  0  0  0  0  0  0  0  0
    6.2785    8.5558    8.2953 H   0  0  0  0  0  0  0  0  0  0  0  0
    7.5411    8.9855    7.1029 H   0  0  0  0  0  0  0  0  0  0  0  0
    8.2400    7.7367    8.7405 C   0  0  0  0  0  0  0  0  0  0  0  0
    7.7959    7.1143    9.5288 H   0  0  0  0  0  0  0  0  0  0  0  0
    8.6599    8.6317    9.2060 H   0  0  0  0  0  0  0  0  0  0  0  0
    7.4858    4.5412    4.4906 C   0  0  0  0  0  0  0  0  0  0  0  0
    6.7894    3.1832    4.5859 C   0  0  0  0  0  0  0  0  0  0  0  0
    7.3052    2.4789    3.9394 H   0  0  0  0  0  0  0  0  0  0  0  0
    5.7575    3.2385    4.2495 H   0  0  0  0  0  0  0  0  0  0  0  0
    6.8169    2.7920    5.6013 H   0  0  0  0  0  0  0  0  0  0  0  0
    7.2674    5.1452    3.1036 C   0  0  0  0  0  0  0  0  0  0  0  0
    7.7745    6.1029    3.0195 H   0  0  0  0  0  0  0  0  0  0  0  0
    6.2062    5.2944    2.9175 H   0  0  0  0  0  0  0  0  0  0  0  0
    7.6604    4.4772    2.3436 H   0  0  0  0  0  0  0  0  0  0  0  0
    8.9800    4.3563    4.7883 C   0  0  0  0  0  0  0  0  0  0  0  0
    9.4098    3.6772    4.0579 H   0  0  0  0  0  0  0  0  0  0  0  0
    9.1165    3.9211    5.7799 H   0  0  0  0  0  0  0  0  0  0  0  0
    9.5249    5.3082    4.7166 H   0  0  0  0  0  0  0  0  0  0  0  0
   11.1124    8.5153    6.2030 C   0  0  0  0  0  0  0  0  0  0  0  0
   11.6744    9.7033    5.9209 N   0  0  0  0  0  0  0  0  0  0  0  0
   12.9452    9.7424    6.4334 C   0  0  0  0  0  0  0  0  0  0  0  0
   13.6038   10.5742    6.3097 H   0  0  0  0  0  0  0  0  0  0  0  0
   13.1602    8.5773    7.0859 C   0  0  0  0  0  0  0  0  0  0  0  0
   14.0170    8.2254    7.6220 H   0  0  0  0  0  0  0  0  0  0  0  0
   12.0208    7.8349    6.9362 N   0  0  0  0  0  0  0  0  0  0  0  0
   11.7027    6.6296    7.6614 C   0  0  0  0  0  0  0  0  0  0  0  0
   12.6048    6.2720    8.1605 H   0  0  0  0  0  0  0  0  0  0  0  0
   11.3505    5.8539    6.9619 H   0  0  0  0  0  0  0  0  0  0  0  0
   10.6056    6.9355    8.7016 C   0  0  0  0  0  0  0  0  0  0  0  0
   10.6088    6.1604    9.4779 H   0  0  0  0  0  0  0  0  0  0  0  0
   10.8289    7.8961    9.1763 H   0  0  0  0  0  0  0  0  0  0  0  0
   11.0253   10.8389    5.2438 C   0  0  0  0  0  0  0  0  0  0  0  0
    9.5289   10.8176    5.5777 C   0  0  0  0  0  0  0  0  0  0  0  0
    9.0535   11.6949    5.1484 H   0  0  0  0  0  0  0  0  0  0  0  0
    9.3885   10.8464    6.6608 H   0  0  0  0  0  0  0  0  0  0  0  0
    9.0385    9.9338    5.1513 H   0  0  0  0  0  0  0  0  0  0  0  0
   11.2628   10.7217    3.7386 C   0  0  0  0  0  0  0  0  0  0  0  0
   10.8083   11.5647    3.2273 H   0  0  0  0  0  0  0  0  0  0  0  0
   10.8255    9.8048    3.3535 H   0  0  0  0  0  0  0  0  0  0  0  0
   12.3283   10.7187    3.5210 H   0  0  0  0  0  0  0  0  0  0  0  0
   11.6226   12.1490    5.7666 C   0  0  0  0  0  0  0  0  0  0  0  0
   12.6342   12.3051    5.4031 H   0  0  0  0  0  0  0  0  0  0  0  0
   11.6251   12.1759    6.8546 H   0  0  0  0  0  0  0  0  0  0  0  0
   11.0196   12.9785    5.4087 H   0  0  0  0  0  0  0  0  0  0  0  0
  2  1  1  6  0  0  0
  2  5  1  0  0  0  0
  2 31  2  0  0  0  0
  2  3  1  0  0  0  0
  3  4  1  1  0  0  0
  3 41  1  0  0  0  0
  3 15  1  0  0  0  0
  5  6  1  1  0  0  0
  5 11  1  0  0  0  0
  6  7  1  0  0  0  0
  7  9  2  0  0  0  0
  8  7  1  0  0  0  0
  9 10  1  0  0  0  0
 11  9  1  0  0  0  0
 11 12  1  0  0  0  0
 12 13  1  0  0  0  0
 12 15  1  0  0  0  0
 14 12  1  0  0  0  0
 15 17  1  0  0  0  0
 15 16  1  0  0  0  0
 18 19  1  0  0  0  0
 18 27  1  0  0  0  0
 18  6  1  0  0  0  0
 19 22  1  0  0  0  0
 20 19  1  0  0  0  0
 21 19  1  0  0  0  0
 23 18  1  0  0  0  0
 24 23  1  0  0  0  0
 25 23  1  0  0  0  0
 26 23  1  0  0  0  0
 27 29  1  0  0  0  0
 28 27  1  0  0  0  0
 30 27  1  0  0  0  0
 31 37  1  0  0  0  0
 32 31  1  0  0  0  0
 32 33  1  0  0  0  0
 33 35  2  0  0  0  0
 34 33  1  0  0  0  0
 35 36  1  0  0  0  0
 37 35  1  0  0  0  0
 37 38  1  0  0  0  0
 38 39  1  0  0  0  0
 38 41  1  0  0  0  0
 40 38  1  0  0  0  0
 41 43  1  0  0  0  0
 41 42  1  0  0  0  0
 44 45  1  0  0  0  0
 44 53  1  0  0  0  0
 44 32  1  0  0  0  0
 45 47  1  0  0  0  0
 46 45  1  0  0  0  0
 48 45  1  0  0  0  0
 49 44  1  0  0  0  0
 50 49  1  0  0  0  0
 51 49  1  0  0  0  0
 52 49  1  0  0  0  0
 53 55  1  0  0  0  0
 54 53  1  0  0  0  0
 56 53  1  0  0  0  0
M  END
$$$$
