CSD_code = IVEDOD | q = 0 | S = 0 | Stoichiometry = C22H32Br2N4Zn | MND = 4
 OpenBabel04212202053D

 61 64  0  0  1  0  0  0  0  0999 V2000
    4.8053    9.5630    4.3109 N   0  0  0  0  0  0  0  0  0  0  0  0
    4.6536    8.4077    4.9520 C   0  0  0  0  0  3  0  0  0  0  0  0
    3.9361    7.7155    4.5322 H   0  0  0  0  0  0  0  0  0  0  0  0
    5.3501    8.0799    6.1049 C   0  0  0  0  0  0  0  0  0  0  0  0
    6.2614    9.0090    6.5982 C   0  0  0  0  0  0  0  0  0  0  0  0
    6.8222    8.7787    7.4909 H   0  0  0  0  0  0  0  0  0  0  0  0
    6.4339   10.2032    5.9219 C   0  0  0  0  0  0  0  0  0  0  0  0
    7.1320   10.9476    6.2699 H   0  0  0  0  0  0  0  0  0  0  0  0
    5.6800   10.4438    4.7865 C   0  0  0  0  0  0  0  0  0  0  0  0
    5.7699   11.3754    4.2464 H   0  0  0  0  0  0  0  0  0  0  0  0
    5.0686    6.8005    6.8427 C   0  0  1  0  0  0  0  0  0  0  0  0
    4.5430    6.0992    6.1647 H   0  0  0  0  0  0  0  0  0  0  0  0
    6.3048    6.2091    7.3443 N   0  0  0  0  0  0  0  0  0  0  0  0
    6.0329    5.0198    8.1365 C   0  0  0  0  0  0  0  0  0  0  0  0
    6.9938    4.6234    8.4748 H   0  0  0  0  0  0  0  0  0  0  0  0
    5.5405    4.2412    7.5245 H   0  0  0  0  0  0  0  0  0  0  0  0
    5.1556    5.3428    9.3386 C   0  0  0  0  0  0  0  0  0  0  0  0
    5.6683    6.0695    9.9706 H   0  0  0  0  0  0  0  0  0  0  0  0
    4.9909    4.4349    9.9205 H   0  0  0  0  0  0  0  0  0  0  0  0
    3.8332    5.9256    8.8593 C   0  0  0  0  0  0  0  0  0  0  0  0
    3.2041    6.2028    9.7061 H   0  0  0  0  0  0  0  0  0  0  0  0
    3.2954    5.1833    8.2657 H   0  0  0  0  0  0  0  0  0  0  0  0
    4.1282    7.1519    8.0074 C   0  0  0  0  0  0  0  0  0  0  0  0
    3.2064    7.5709    7.6000 H   0  0  0  0  0  0  0  0  0  0  0  0
    4.6090    7.9132    8.6246 H   0  0  0  0  0  0  0  0  0  0  0  0
    7.2131    5.8855    6.2624 C   0  0  0  0  0  0  0  0  0  0  0  0
    6.7971    5.1318    5.5746 H   0  0  0  0  0  0  0  0  0  0  0  0
    8.1378    5.4949    6.6845 H   0  0  0  0  0  0  0  0  0  0  0  0
    7.4464    6.7818    5.6900 H   0  0  0  0  0  0  0  0  0  0  0  0
    4.9320    9.7151    1.0155 N   0  0  0  0  0  0  0  0  0  0  0  0
    4.9460    8.5398    0.3931 C   0  0  0  0  0  3  0  0  0  0  0  0
    4.2764    7.7833    0.7798 H   0  0  0  0  0  0  0  0  0  0  0  0
    5.7493    8.2693   -0.7036 C   0  0  0  0  0  0  0  0  0  0  0  0
    6.5831    9.2847   -1.1631 C   0  0  0  0  0  0  0  0  0  0  0  0
    7.2064    9.1087   -2.0262 H   0  0  0  0  0  0  0  0  0  0  0  0
    6.5720   10.5063   -0.5147 C   0  0  0  0  0  0  0  0  0  0  0  0
    7.1977   11.3205   -0.8436 H   0  0  0  0  0  0  0  0  0  0  0  0
    5.7315   10.6797    0.5713 C   0  0  0  0  0  0  0  0  0  0  0  0
    5.6852   11.6250    1.0931 H   0  0  0  0  0  0  0  0  0  0  0  0
    5.7576    6.9102   -1.3472 C   0  0  1  0  0  0  0  0  0  0  0  0
    4.8662    6.3455   -1.0091 H   0  0  0  0  0  0  0  0  0  0  0  0
    5.7742    7.0326   -2.8012 N   0  0  0  0  0  0  0  0  0  0  0  0
    5.8566    5.7257   -3.4339 C   0  0  0  0  0  0  0  0  0  0  0  0
    5.8542    5.8832   -4.5153 H   0  0  0  0  0  0  0  0  0  0  0  0
    4.9773    5.1059   -3.1787 H   0  0  0  0  0  0  0  0  0  0  0  0
    7.1259    4.9915   -3.0225 C   0  0  0  0  0  0  0  0  0  0  0  0
    7.9935    5.5791   -3.3264 H   0  0  0  0  0  0  0  0  0  0  0  0
    7.1674    4.0270   -3.5303 H   0  0  0  0  0  0  0  0  0  0  0  0
    7.1381    4.8073   -1.5112 C   0  0  0  0  0  0  0  0  0  0  0  0
    8.0594    4.3196   -1.1891 H   0  0  0  0  0  0  0  0  0  0  0  0
    6.2975    4.1783   -1.2096 H   0  0  0  0  0  0  0  0  0  0  0  0
    7.0173    6.1770   -0.8579 C   0  0  0  0  0  0  0  0  0  0  0  0
    6.9721    6.0854    0.2293 H   0  0  0  0  0  0  0  0  0  0  0  0
    7.8916    6.7776   -1.1161 H   0  0  0  0  0  0  0  0  0  0  0  0
    4.6074    7.7446   -3.2862 C   0  0  0  0  0  0  0  0  0  0  0  0
    4.6845    7.8492   -4.3672 H   0  0  0  0  0  0  0  0  0  0  0  0
    4.5666    8.7390   -2.8459 H   0  0  0  0  0  0  0  0  0  0  0  0
    3.6678    7.2211   -3.0509 H   0  0  0  0  0  0  0  0  0  0  0  0
    3.5261   10.0901    2.6321 Zn  0  0  0  0  0  0  0  0  0  0  0  0
    2.0755    8.2283    2.4951 Br  0  0  0  0  0  0  0  0  0  0  0  0
    3.4979   12.4482    2.7508 Br  0  0  0  0  0  0  0  0  0  0  0  0
  1  9  1  0  0  0  0
  1  2  1  0  0  0  0
  2  4  1  0  0  0  0
  3  2  1  0  0  0  0
  4  5  2  0  0  0  0
  4 11  1  0  0  0  0
  5  6  1  0  0  0  0
  7  8  1  0  0  0  0
  7  5  1  0  0  0  0
  9  7  2  0  0  0  0
 10  9  1  0  0  0  0
 11 12  1  6  0  0  0
 11 13  1  0  0  0  0
 11 23  1  0  0  0  0
 13 14  1  0  0  0  0
 14 15  1  0  0  0  0
 14 17  1  0  0  0  0
 16 14  1  0  0  0  0
 17 19  1  0  0  0  0
 17 18  1  0  0  0  0
 20 17  1  0  0  0  0
 20 21  1  0  0  0  0
 22 20  1  0  0  0  0
 23 25  1  0  0  0  0
 23 20  1  0  0  0  0
 24 23  1  0  0  0  0
 26 28  1  0  0  0  0
 26 13  1  0  0  0  0
 27 26  1  0  0  0  0
 29 26  1  0  0  0  0
 30 59  1  0  0  0  0
 31 32  1  0  0  0  0
 31 30  1  0  0  0  0
 33 31  1  0  0  0  0
 34 33  2  0  0  0  0
 34 36  1  0  0  0  0
 35 34  1  0  0  0  0
 36 38  2  0  0  0  0
 37 36  1  0  0  0  0
 38 30  1  0  0  0  0
 38 39  1  0  0  0  0
 40 41  1  1  0  0  0
 40 52  1  0  0  0  0
 40 33  1  0  0  0  0
 42 40  1  0  0  0  0
 43 45  1  0  0  0  0
 43 46  1  0  0  0  0
 43 42  1  0  0  0  0
 44 43  1  0  0  0  0
 46 49  1  0  0  0  0
 47 46  1  0  0  0  0
 48 46  1  0  0  0  0
 49 51  1  0  0  0  0
 49 50  1  0  0  0  0
 49 52  1  0  0  0  0
 52 53  1  0  0  0  0
 54 52  1  0  0  0  0
 55 58  1  0  0  0  0
 55 57  1  0  0  0  0
 55 42  1  0  0  0  0
 56 55  1  0  0  0  0
 59 61  1  0  0  0  0
 59  1  1  0  0  0  0
 60 59  1  0  0  0  0
M  END
$$$$
