CSD_code = IVEHUM | q = 0 | S = 0 | Stoichiometry = C23H15ClN3O3Re | MND = 6
 OpenBabel04212202053D

 46 50  0  0  1  0  0  0  0  0999 V2000
    9.8030   15.5582    9.4321 Re  0  0  0  0  0  0  0  0  0  0  0  0
   11.5472   16.9435   10.2353 Cl  0  0  0  0  0  0  0  0  0  0  0  0
    7.8505   13.6228    8.0178 O   0  0  0  0  0  1  0  0  0  0  0  0
    7.7643   17.8453    9.8252 O   0  0  0  0  0  1  0  0  0  0  0  0
    9.2999   14.5001   12.2902 O   0  0  0  0  0  1  0  0  0  0  0  0
   10.8819   14.1301    6.8391 N   0  0  0  0  0  0  0  0  0  0  0  0
   11.4841   14.1713    9.1004 N   0  0  0  0  0  0  0  0  0  0  0  0
   10.5064   16.3454    7.5054 N   0  0  0  0  0  0  0  0  0  0  0  0
    9.0513   11.3711    4.2274 C   0  0  0  0  0  0  0  0  0  0  0  0
    9.0431   12.7552    3.9183 C   0  0  0  0  0  0  0  0  0  0  0  0
    9.6658   13.6647    4.7937 C   0  0  0  0  0  0  0  0  0  0  0  0
    9.6122   14.7155    4.5513 H   0  0  0  0  0  0  0  0  0  0  0  0
   10.2993   13.2323    5.9351 C   0  0  0  0  0  0  0  0  0  0  0  0
   10.2599   11.8580    6.2633 C   0  0  0  0  0  0  0  0  0  0  0  0
   10.6841   11.5216    7.1970 H   0  0  0  0  0  0  0  0  0  0  0  0
    9.6593   10.9606    5.4312 C   0  0  0  0  0  0  0  0  0  0  0  0
    9.6328    9.9143    5.6982 H   0  0  0  0  0  0  0  0  0  0  0  0
    8.4357   10.4648    3.3419 C   0  0  0  0  0  0  0  0  0  0  0  0
    8.4460    9.4123    3.5864 H   0  0  0  0  0  0  0  0  0  0  0  0
    7.8360   10.9092    2.1966 C   0  0  0  0  0  0  0  0  0  0  0  0
    7.3654   10.2111    1.5202 H   0  0  0  0  0  0  0  0  0  0  0  0
    7.8229   12.2791    1.8912 C   0  0  0  0  0  0  0  0  0  0  0  0
    7.3421   12.6138    0.9838 H   0  0  0  0  0  0  0  0  0  0  0  0
    8.4104   13.1824    2.7317 C   0  0  0  0  0  0  0  0  0  0  0  0
    8.4003   14.2378    2.4990 H   0  0  0  0  0  0  0  0  0  0  0  0
   11.7290   13.6974    7.8773 C   0  0  2  0  0  3  0  0  0  0  0  0
   12.8102   12.8619    7.6028 C   0  0  0  0  0  0  0  0  0  0  0  0
   12.9722   12.5155    6.5937 H   0  0  0  0  0  0  0  0  0  0  0  0
   13.6576   12.5078    8.6338 C   0  0  0  0  0  0  0  0  0  0  0  0
   14.5046   11.8651    8.4485 H   0  0  0  0  0  0  0  0  0  0  0  0
   13.4087   13.0148    9.9018 C   0  0  0  0  0  0  0  0  0  0  0  0
   14.0500   12.7763   10.7342 H   0  0  0  0  0  0  0  0  0  0  0  0
   12.3191   13.8429   10.0857 C   0  0  0  0  0  0  0  0  0  0  0  0
   12.1062   14.2689   11.0568 H   0  0  0  0  0  0  0  0  0  0  0  0
   10.9725   15.5138    6.5726 C   0  0  1  0  0  3  0  0  0  0  0  0
   11.5896   15.9666    5.4090 C   0  0  0  0  0  0  0  0  0  0  0  0
   11.9837   15.2530    4.7020 H   0  0  0  0  0  0  0  0  0  0  0  0
   11.7002   17.3275    5.1982 C   0  0  0  0  0  0  0  0  0  0  0  0
   12.1788   17.7054    4.3078 H   0  0  0  0  0  0  0  0  0  0  0  0
   11.2029   18.1903    6.1643 C   0  0  0  0  0  0  0  0  0  0  0  0
   11.2706   19.2594    6.0466 H   0  0  0  0  0  0  0  0  0  0  0  0
   10.6274   17.6570    7.3009 C   0  0  0  0  0  0  0  0  0  0  0  0
   10.2555   18.3022    8.0853 H   0  0  0  0  0  0  0  0  0  0  0  0
    8.5587   14.3484    8.5599 C   0  0  0  0  0  2  0  0  0  0  0  0
    8.4800   16.9628    9.6792 C   0  0  0  0  0  2  0  0  0  0  0  0
    9.4362   14.8777   11.2173 C   0  0  0  0  0  2  0  0  0  0  0  0
  1 45  1  0  0  0  0
  1  2  1  0  0  0  0
  1 46  1  0  0  0  0
  3 44  1  0  0  0  0
  6 26  1  0  0  0  0
  7  1  1  0  0  0  0
  7 33  1  0  0  0  0
  8  1  1  0  0  0  0
  9 16  2  0  0  0  0
 10  9  1  0  0  0  0
 10 11  2  0  0  0  0
 11 13  1  0  0  0  0
 12 11  1  0  0  0  0
 13 14  2  0  0  0  0
 13  6  1  0  0  0  0
 14 15  1  0  0  0  0
 16 17  1  0  0  0  0
 16 14  1  0  0  0  0
 18 19  1  0  0  0  0
 18  9  1  0  0  0  0
 20 18  2  0  0  0  0
 21 20  1  0  0  0  0
 22 20  1  0  0  0  0
 22 24  2  0  0  0  0
 23 22  1  0  0  0  0
 24 10  1  0  0  0  0
 25 24  1  0  0  0  0
 26 27  1  6  0  0  0
 26  7  1  0  0  0  0
 27 29  2  0  0  0  0
 28 27  1  0  0  0  0
 29 31  1  0  0  0  0
 30 29  1  0  0  0  0
 31 33  2  0  0  0  0
 31 32  1  0  0  0  0
 33 34  1  0  0  0  0
 35 36  1  1  0  0  0
 35  6  1  0  0  0  0
 35  8  1  0  0  0  0
 37 36  1  0  0  0  0
 38 36  2  0  0  0  0
 38 40  1  0  0  0  0
 39 38  1  0  0  0  0
 40 42  2  0  0  0  0
 41 40  1  0  0  0  0
 42  8  1  0  0  0  0
 42 43  1  0  0  0  0
 44  1  1  0  0  0  0
 45  4  1  0  0  0  0
 46  5  1  0  0  0  0
M  END
$$$$
