CSD_code = IVEJIC | q = 0 | S = 0 | Stoichiometry = C21H18ClN4O3Re | MND = 6
 OpenBabel04212202053D

 48 51  0  0  1  0  0  0  0  0999 V2000
    8.9587    3.2858   21.1245 Re  0  0  0  0  0  0  0  0  0  0  0  0
    9.6271    1.4056   19.8822 Cl  0  0  0  0  0  0  0  0  0  0  0  0
   11.8980    3.8063   21.9230 O   0  0  0  0  0  1  0  0  0  0  0  0
    7.8609    5.8571   22.4417 O   0  0  0  0  0  1  0  0  0  0  0  0
    8.5293    1.5113   23.6176 O   0  0  0  0  0  1  0  0  0  0  0  0
    9.1041    4.3161   19.1827 N   0  0  0  0  0  0  0  0  0  0  0  0
    6.9834    2.8551   20.2510 N   0  0  0  0  0  0  0  0  0  0  0  0
    6.8202    4.9504   19.1549 N   0  0  0  0  0  0  0  0  0  0  0  0
    3.3779    9.3119   18.3496 N   0  0  0  0  0  0  0  0  0  0  0  0
    8.1187    5.0634   18.6676 C   0  0  2  0  0  3  0  0  0  0  0  0
    8.3755    5.9643   17.6230 C   0  0  0  0  0  0  0  0  0  0  0  0
    7.5900    6.6048   17.2594 H   0  0  0  0  0  0  0  0  0  0  0  0
    9.6297    6.0156   17.0572 C   0  0  0  0  0  0  0  0  0  0  0  0
    9.8317    6.7031   16.2499 H   0  0  0  0  0  0  0  0  0  0  0  0
   10.6126    5.1558   17.5277 C   0  0  0  0  0  0  0  0  0  0  0  0
   11.5989    5.1333   17.0954 H   0  0  0  0  0  0  0  0  0  0  0  0
   10.3024    4.3420   18.5951 C   0  0  0  0  0  0  0  0  0  0  0  0
   11.0464    3.6709   19.0044 H   0  0  0  0  0  0  0  0  0  0  0  0
    6.2418    3.7709   19.6138 C   0  0  1  0  0  3  0  0  0  0  0  0
    4.8740    3.5529   19.3893 C   0  0  0  0  0  0  0  0  0  0  0  0
    4.2739    4.3220   18.9335 H   0  0  0  0  0  0  0  0  0  0  0  0
    4.3066    2.3488   19.7412 C   0  0  0  0  0  0  0  0  0  0  0  0
    3.2559    2.1739   19.5665 H   0  0  0  0  0  0  0  0  0  0  0  0
    5.1127    1.3659   20.2988 C   0  0  0  0  0  0  0  0  0  0  0  0
    4.7241    0.3955   20.5585 H   0  0  0  0  0  0  0  0  0  0  0  0
    6.4326    1.6751   20.5441 C   0  0  0  0  0  0  0  0  0  0  0  0
    7.0899    0.9434   20.9959 H   0  0  0  0  0  0  0  0  0  0  0  0
    5.9362    6.0572   18.9169 C   0  0  0  0  0  0  0  0  0  0  0  0
    5.2325    6.2025   17.7261 C   0  0  0  0  0  0  0  0  0  0  0  0
    5.3478    5.4682   16.9404 H   0  0  0  0  0  0  0  0  0  0  0  0
    4.3888    7.2753   17.5360 C   0  0  0  0  0  0  0  0  0  0  0  0
    3.8675    7.3535   16.5969 H   0  0  0  0  0  0  0  0  0  0  0  0
    4.2138    8.2495   18.5346 C   0  0  0  0  0  0  0  0  0  0  0  0
    4.9358    8.0838   19.7284 C   0  0  0  0  0  0  0  0  0  0  0  0
    4.8377    8.7951   20.5301 H   0  0  0  0  0  0  0  0  0  0  0  0
    5.7791    7.0091   19.9130 C   0  0  0  0  0  0  0  0  0  0  0  0
    6.3204    6.9036   20.8403 H   0  0  0  0  0  0  0  0  0  0  0  0
    2.5742    9.4139   17.1567 C   0  0  0  0  0  0  0  0  0  0  0  0
    1.9647    8.5166   17.0157 H   0  0  0  0  0  0  0  0  0  0  0  0
    3.1954    9.5587   16.2664 H   0  0  0  0  0  0  0  0  0  0  0  0
    1.9029   10.2644   17.2427 H   0  0  0  0  0  0  0  0  0  0  0  0
    3.2646   10.3373   19.3577 C   0  0  0  0  0  0  0  0  0  0  0  0
    2.8183    9.9473   20.2784 H   0  0  0  0  0  0  0  0  0  0  0  0
    2.6335   11.1413   18.9878 H   0  0  0  0  0  0  0  0  0  0  0  0
    4.2445   10.7598   19.5958 H   0  0  0  0  0  0  0  0  0  0  0  0
   10.7926    3.6367   21.6703 C   0  0  0  0  0  2  0  0  0  0  0  0
    8.2771    4.8944   21.9609 C   0  0  0  0  0  2  0  0  0  0  0  0
    8.7007    2.2073   22.7227 C   0  0  0  0  0  2  0  0  0  0  0  0
  1 46  1  0  0  0  0
  1 47  1  0  0  0  0
  1 48  1  0  0  0  0
  2  1  1  0  0  0  0
  6  1  1  0  0  0  0
  7 26  1  0  0  0  0
  7  1  1  0  0  0  0
  8 19  1  0  0  0  0
  9 33  1  0  0  0  0
  9 42  1  0  0  0  0
 10 11  1  6  0  0  0
 10  8  1  0  0  0  0
 10  6  1  0  0  0  0
 12 11  1  0  0  0  0
 13 15  1  0  0  0  0
 13 11  2  0  0  0  0
 14 13  1  0  0  0  0
 15 17  2  0  0  0  0
 16 15  1  0  0  0  0
 17 18  1  0  0  0  0
 17  6  1  0  0  0  0
 19 20  1  6  0  0  0
 19  7  1  0  0  0  0
 20 22  2  0  0  0  0
 21 20  1  0  0  0  0
 22 24  1  0  0  0  0
 23 22  1  0  0  0  0
 24 26  2  0  0  0  0
 24 25  1  0  0  0  0
 26 27  1  0  0  0  0
 28  8  1  0  0  0  0
 28 36  1  0  0  0  0
 29 28  2  0  0  0  0
 30 29  1  0  0  0  0
 31 29  1  0  0  0  0
 31 33  2  0  0  0  0
 32 31  1  0  0  0  0
 33 34  1  0  0  0  0
 34 36  2  0  0  0  0
 34 35  1  0  0  0  0
 36 37  1  0  0  0  0
 38 41  1  0  0  0  0
 38  9  1  0  0  0  0
 39 38  1  0  0  0  0
 40 38  1  0  0  0  0
 42 45  1  0  0  0  0
 42 43  1  0  0  0  0
 44 42  1  0  0  0  0
 46  3  1  0  0  0  0
 47  4  1  0  0  0  0
 48  5  1  0  0  0  0
M  END
$$$$
