CSD_code = IVEMOL | q = 1 | S = 0 | Stoichiometry = C17H30ClN2Ru(1+) | MND = 9
 OpenBabel04212202053D

 51 52  0  0  1  0  0  0  0  0999 V2000
    9.6627   -1.3125    0.9530 Ru  0  0  0  0  0  0  0  0  0  0  0  0
   10.0739    0.9764    1.2348 Cl  0  0  0  0  0 15  0  0  0  0  0  0
   11.3329   -1.2972   -0.4562 N   0  0  1  0  0  4  0  0  0  0  0  0
    8.6824   -0.5583   -0.7848 N   0  0  0  0  0  4  0  0  0  0  0  0
    7.7062   -0.8414   -0.8920 H   0  0  0  0  0  0  0  0  0  0  0  0
    8.6940    0.4632   -0.6420 H   0  0  0  0  0  0  0  0  0  0  0  0
   12.9597   -1.1367    1.4492 C   0  0  0  0  0  0  0  0  0  0  0  0
   13.8869   -0.6483    1.7360 H   0  0  0  0  0  0  0  0  0  0  0  0
   13.1167   -2.2114    1.5014 H   0  0  0  0  0  0  0  0  0  0  0  0
   12.1914   -0.8407    2.1615 H   0  0  0  0  0  0  0  0  0  0  0  0
   12.5737   -0.6678    0.0561 C   0  0  0  0  0  0  0  0  0  0  0  0
   12.4022    0.4093    0.1034 H   0  0  0  0  0  0  0  0  0  0  0  0
   13.3917   -0.8655   -0.6407 H   0  0  0  0  0  0  0  0  0  0  0  0
   11.6251   -2.6646   -0.9258 C   0  0  0  0  0  0  0  0  0  0  0  0
   10.6870   -3.2198   -0.9975 H   0  0  0  0  0  0  0  0  0  0  0  0
   12.2796   -3.1779   -0.2243 H   0  0  0  0  0  0  0  0  0  0  0  0
   12.2617   -2.5259   -2.3192 C   0  0  0  0  0  0  0  0  0  0  0  0
   11.9104   -3.3136   -2.9818 H   0  0  0  0  0  0  0  0  0  0  0  0
   13.3455   -2.6067   -2.2650 H   0  0  0  0  0  0  0  0  0  0  0  0
   11.8345   -1.1336   -2.8093 C   0  0  0  0  0  0  0  0  0  0  0  0
   12.6953   -0.4834   -2.9499 H   0  0  0  0  0  0  0  0  0  0  0  0
   11.3021   -1.1815   -3.7565 H   0  0  0  0  0  0  0  0  0  0  0  0
   10.9220   -0.5911   -1.6997 C   0  0  1  0  0  0  0  0  0  0  0  0
   11.0345    0.4866   -1.5456 H   0  0  0  0  0  0  0  0  0  0  0  0
    9.4464   -0.8807   -1.9912 C   0  0  0  0  0  0  0  0  0  0  0  0
    9.1205   -0.2803   -2.8485 H   0  0  0  0  0  0  0  0  0  0  0  0
    9.3026   -1.9372   -2.2353 H   0  0  0  0  0  0  0  0  0  0  0  0
    8.8190   -3.4844    1.2508 C   0  0  0  0  0  0  0  0  0  0  0  0
   10.0259   -3.3799    1.9712 C   0  0  0  0  0  0  0  0  0  0  0  0
   10.7839   -4.1470    1.8455 H   0  0  0  0  0  0  0  0  0  0  0  0
   10.2002   -2.4065    2.9837 C   0  0  0  0  0  0  0  0  0  0  0  0
   11.0817   -2.4572    3.6101 H   0  0  0  0  0  0  0  0  0  0  0  0
    9.1844   -1.4754    3.2779 C   0  0  0  0  0  0  0  0  0  0  0  0
    8.0114   -1.5086    2.4868 C   0  0  0  0  0  3  0  0  0  0  0  0
    7.1947   -0.8345    2.7208 H   0  0  0  0  0  0  0  0  0  0  0  0
    7.8355   -2.4966    1.4955 C   0  0  1  0  0  0  0  0  0  0  0  0
    6.8763   -2.5746    0.9909 H   0  0  0  0  0  0  0  0  0  0  0  0
    8.5344   -4.6545    0.3578 C   0  0  0  0  0  0  0  0  0  0  0  0
    7.9715   -5.4007    0.9208 H   0  0  0  0  0  0  0  0  0  0  0  0
    9.4512   -5.1258    0.0106 H   0  0  0  0  0  0  0  0  0  0  0  0
    7.9302   -4.3686   -0.5012 H   0  0  0  0  0  0  0  0  0  0  0  0
    9.2605   -0.5470    4.4615 C   0  0  0  0  0  0  0  0  0  0  0  0
    8.5732    0.2872    4.2841 H   0  0  0  0  0  0  0  0  0  0  0  0
    8.7699   -1.3281    5.6889 C   0  0  0  0  0  0  0  0  0  0  0  0
    7.7642   -1.7118    5.5318 H   0  0  0  0  0  0  0  0  0  0  0  0
    8.7572   -0.6728    6.5550 H   0  0  0  0  0  0  0  0  0  0  0  0
    9.4322   -2.1652    5.8989 H   0  0  0  0  0  0  0  0  0  0  0  0
   10.6517    0.0327    4.7098 C   0  0  0  0  0  0  0  0  0  0  0  0
   11.0164    0.5426    3.8212 H   0  0  0  0  0  0  0  0  0  0  0  0
   11.3640   -0.7351    5.0019 H   0  0  0  0  0  0  0  0  0  0  0  0
   10.5976    0.7601    5.5148 H   0  0  0  0  0  0  0  0  0  0  0  0
  1 36  1  0  0  0  0
  3 11  1  1  0  0  0
  3  1  1  0  0  0  0
  4  6  1  0  0  0  0
  4  1  1  0  0  0  0
  5  4  1  0  0  0  0
  7  9  1  0  0  0  0
  7  8  1  0  0  0  0
  7 10  1  0  0  0  0
 11 12  1  0  0  0  0
 11  7  1  0  0  0  0
 13 11  1  0  0  0  0
 14  3  1  0  0  0  0
 14 16  1  0  0  0  0
 15 14  1  0  0  0  0
 17 19  1  0  0  0  0
 17 14  1  0  0  0  0
 18 17  1  0  0  0  0
 20 17  1  0  0  0  0
 20 23  1  0  0  0  0
 21 20  1  0  0  0  0
 22 20  1  0  0  0  0
 23 24  1  1  0  0  0
 23  3  1  0  0  0  0
 25 23  1  0  0  0  0
 25  4  1  0  0  0  0
 26 25  1  0  0  0  0
 27 25  1  0  0  0  0
 28 36  1  0  0  0  0
 28 29  2  0  0  0  0
 29 31  1  0  0  0  0
 30 29  1  0  0  0  0
 31 33  2  0  0  0  0
 31 32  1  0  0  0  0
 33 42  1  0  0  0  0
 34 35  1  0  0  0  0
 34 33  1  0  0  0  0
 36 37  1  6  0  0  0
 36 34  1  0  0  0  0
 38 39  1  0  0  0  0
 38 28  1  0  0  0  0
 40 38  1  0  0  0  0
 41 38  1  0  0  0  0
 42 48  1  0  0  0  0
 42 44  1  0  0  0  0
 43 42  1  0  0  0  0
 44 47  1  0  0  0  0
 44 46  1  0  0  0  0
 45 44  1  0  0  0  0
 48 50  1  0  0  0  0
 48 51  1  0  0  0  0
 49 48  1  0  0  0  0
M  END
$$$$
