CSD_code = IVERIK | q = 0 | S = 0 | Stoichiometry = C30H26BrCuF3N3P2S | MND = 4
 OpenBabel04212202053D

 67 72  0  0  1  0  0  0  0  0999 V2000
    1.6549    2.3948   12.1831 Br  0  0  0  0  0  0  0  0  0  0  0  0
    2.7102    0.4886   11.4542 Cu  0  0  1  0  0  0  0  0  0  0  0  0
    5.2830    0.6442   12.2934 S   0  0  0  0  0  0  0  0  0  0  0  0
    2.5912   -1.6116   10.6947 P   0  0  0  0  0  4  0  0  0  0  0  0
    3.8356    0.8968    9.3421 P   0  0  0  0  0  4  0  0  0  0  0  0
    8.6756    4.5536   10.3671 F   0  0  0  0  0  0  0  0  0  0  0  0
    7.2430    6.1541   10.4680 F   0  0  0  0  0  0  0  0  0  0  0  0
    8.2359    5.4696   12.2536 F   0  0  0  0  0  0  0  0  0  0  0  0
    4.6933    3.1905   11.5375 N   0  0  0  0  0  0  0  0  0  0  0  0
    3.6639    3.1657   11.6692 H   0  0  0  0  0  0  0  0  0  0  0  0
    5.3204    4.3261   11.2201 N   0  0  0  0  0  0  0  0  0  0  0  0
    6.8131    2.7920   11.7488 N   0  0  0  0  0  0  0  0  0  0  0  0
    5.5704    2.2127   11.8721 C   0  0  2  0  0  3  0  0  0  0  0  0
    6.5853    4.0761   11.3372 C   0  0  0  0  0  0  0  0  0  0  0  0
    7.6728    5.0704   11.0994 C   0  0  0  0  0  0  0  0  0  0  0  0
    8.0636    2.1472   12.0275 C   0  0  0  0  0  0  0  0  0  0  0  0
    8.6244    2.7144   12.7711 H   0  0  0  0  0  0  0  0  0  0  0  0
    8.6571    2.0575   11.1170 H   0  0  0  0  0  0  0  0  0  0  0  0
    7.8361    1.1547   12.4175 H   0  0  0  0  0  0  0  0  0  0  0  0
    3.9901   -1.8131    9.5725 C   0  0  0  0  0  0  0  0  0  0  0  0
    4.3934   -2.8099    9.4247 H   0  0  0  0  0  0  0  0  0  0  0  0
    4.5064   -0.7359    8.9723 C   0  0  0  0  0  0  0  0  0  0  0  0
    5.3593   -0.8070    8.3046 H   0  0  0  0  0  0  0  0  0  0  0  0
    2.5892   -3.2195   11.5379 C   0  0  0  0  0  0  0  0  0  0  0  0
    3.7764   -3.6139   12.1520 C   0  0  0  0  0  0  0  0  0  0  0  0
    4.6522   -2.9817   12.0691 H   0  0  0  0  0  0  0  0  0  0  0  0
    3.8262   -4.7968   12.8637 C   0  0  0  0  0  0  0  0  0  0  0  0
    4.7486   -5.1058   13.3331 H   0  0  0  0  0  0  0  0  0  0  0  0
    2.6888   -5.5805   12.9824 C   0  0  0  0  0  0  0  0  0  0  0  0
    2.7272   -6.5042   13.5403 H   0  0  0  0  0  0  0  0  0  0  0  0
    1.5000   -5.1751   12.3976 C   0  0  0  0  0  0  0  0  0  0  0  0
    0.6122   -5.7815   12.5017 H   0  0  0  0  0  0  0  0  0  0  0  0
    1.4425   -3.9924   11.6825 C   0  0  0  0  0  0  0  0  0  0  0  0
    0.5148   -3.6705   11.2292 H   0  0  0  0  0  0  0  0  0  0  0  0
    1.1907   -1.7266    9.5363 C   0  0  0  0  0  0  0  0  0  0  0  0
    0.1737   -0.7834    9.6223 C   0  0  0  0  0  0  0  0  0  0  0  0
    0.2141   -0.0214   10.3902 H   0  0  0  0  0  0  0  0  0  0  0  0
   -0.8820   -0.8195    8.7296 C   0  0  0  0  0  0  0  0  0  0  0  0
   -1.6692   -0.0842    8.7994 H   0  0  0  0  0  0  0  0  0  0  0  0
   -0.9218   -1.7949    7.7481 C   0  0  0  0  0  0  0  0  0  0  0  0
   -1.7428   -1.8214    7.0472 H   0  0  0  0  0  0  0  0  0  0  0  0
    0.0892   -2.7399    7.6623 C   0  0  0  0  0  0  0  0  0  0  0  0
    0.0534   -3.5018    6.8973 H   0  0  0  0  0  0  0  0  0  0  0  0
    1.1454   -2.7095    8.5522 C   0  0  0  0  0  0  0  0  0  0  0  0
    1.9340   -3.4472    8.4917 H   0  0  0  0  0  0  0  0  0  0  0  0
    5.1097    1.9756    8.6129 C   0  0  0  0  0  0  0  0  0  0  0  0
    6.4554    1.6621    8.7917 C   0  0  0  0  0  0  0  0  0  0  0  0
    6.7321    0.7349    9.2780 H   0  0  0  0  0  0  0  0  0  0  0  0
    7.4347    2.5336    8.3524 C   0  0  0  0  0  0  0  0  0  0  0  0
    8.4784    2.2779    8.4701 H   0  0  0  0  0  0  0  0  0  0  0  0
    7.0821    3.7400    7.7694 C   0  0  0  0  0  0  0  0  0  0  0  0
    7.8504    4.4216    7.4379 H   0  0  0  0  0  0  0  0  0  0  0  0
    5.7449    4.0748    7.6292 C   0  0  0  0  0  0  0  0  0  0  0  0
    5.4685    5.0223    7.1923 H   0  0  0  0  0  0  0  0  0  0  0  0
    4.7610    3.2011    8.0517 C   0  0  0  0  0  0  0  0  0  0  0  0
    3.7178    3.4612    7.9399 H   0  0  0  0  0  0  0  0  0  0  0  0
    2.4865    1.0358    8.1205 C   0  0  0  0  0  0  0  0  0  0  0  0
    2.3787    0.2035    7.0123 C   0  0  0  0  0  0  0  0  0  0  0  0
    3.1254   -0.5571    6.8305 H   0  0  0  0  0  0  0  0  0  0  0  0
    1.3090    0.3454    6.1487 C   0  0  0  0  0  0  0  0  0  0  0  0
    1.2241   -0.3066    5.2914 H   0  0  0  0  0  0  0  0  0  0  0  0
    0.3489    1.3173    6.3793 C   0  0  0  0  0  0  0  0  0  0  0  0
   -0.4843    1.4215    5.7003 H   0  0  0  0  0  0  0  0  0  0  0  0
    0.4543    2.1493    7.4811 C   0  0  0  0  0  0  0  0  0  0  0  0
   -0.2943    2.9046    7.6677 H   0  0  0  0  0  0  0  0  0  0  0  0
    1.5155    2.0052    8.3557 C   0  0  0  0  0  0  0  0  0  0  0  0
    1.5836    2.6378    9.2314 H   0  0  0  0  0  0  0  0  0  0  0  0
  2  1  1  1  0  0  0
  2  3  1  0  0  0  0
  4  2  1  0  0  0  0
  4 24  1  0  0  0  0
  5  2  1  0  0  0  0
  6 15  1  0  0  0  0
  7 15  1  0  0  0  0
  9 10  1  0  0  0  0
  9 13  1  0  0  0  0
 11 14  2  0  0  0  0
 11  9  1  0  0  0  0
 12 13  1  0  0  0  0
 12 16  1  0  0  0  0
 13  3  1  6  0  0  0
 14 12  1  0  0  0  0
 15 14  1  0  0  0  0
 15  8  1  0  0  0  0
 16 19  1  0  0  0  0
 16 17  1  0  0  0  0
 18 16  1  0  0  0  0
 20  4  1  0  0  0  0
 21 20  1  0  0  0  0
 22  5  1  0  0  0  0
 22 20  2  0  0  0  0
 23 22  1  0  0  0  0
 24 33  2  0  0  0  0
 24 25  1  0  0  0  0
 25 27  2  0  0  0  0
 26 25  1  0  0  0  0
 27 29  1  0  0  0  0
 27 28  1  0  0  0  0
 29 30  1  0  0  0  0
 31 32  1  0  0  0  0
 31 29  2  0  0  0  0
 33 31  1  0  0  0  0
 34 33  1  0  0  0  0
 35 36  1  0  0  0  0
 35  4  1  0  0  0  0
 36 37  1  0  0  0  0
 38 39  1  0  0  0  0
 38 36  2  0  0  0  0
 40 38  1  0  0  0  0
 41 40  1  0  0  0  0
 42 40  2  0  0  0  0
 42 44  1  0  0  0  0
 43 42  1  0  0  0  0
 44 35  2  0  0  0  0
 45 44  1  0  0  0  0
 46 47  1  0  0  0  0
 46  5  1  0  0  0  0
 47 48  1  0  0  0  0
 49 50  1  0  0  0  0
 49 47  2  0  0  0  0
 51 49  1  0  0  0  0
 52 51  1  0  0  0  0
 53 51  2  0  0  0  0
 53 55  1  0  0  0  0
 54 53  1  0  0  0  0
 55 46  2  0  0  0  0
 56 55  1  0  0  0  0
 57 66  1  0  0  0  0
 57  5  1  0  0  0  0
 58 57  2  0  0  0  0
 59 58  1  0  0  0  0
 60 62  2  0  0  0  0
 60 58  1  0  0  0  0
 61 60  1  0  0  0  0
 62 64  1  0  0  0  0
 63 62  1  0  0  0  0
 64 65  1  0  0  0  0
 64 66  2  0  0  0  0
 66 67  1  0  0  0  0
M  END
$$$$
