CSD_code = IVEZUE | q = -1 | S = 0 | Stoichiometry = C19H19Cl3F6MoN3(1-) | MND = 6
 OpenBabel04212202053D

 51 54  0  0  0  0  0  0  0  0999 V2000
    9.1084    2.8046    9.3309 Mo  0  0  0  0  0  0  0  0  0  0  0  0
    8.8371    3.5281    6.5062 C   0  0  0  0  0  0  0  0  0  0  0  0
    8.5165    2.0335    6.5201 C   0  0  0  0  0  0  0  0  0  0  0  0
    8.6777    0.0666    7.9098 C   0  0  0  0  0  0  0  0  0  0  0  0
   10.6705    1.1942    7.2535 C   0  0  0  0  0  0  0  0  0  0  0  0
   11.5142    1.5180    8.4869 C   0  0  0  0  0  0  0  0  0  0  0  0
    8.3312    5.3849    7.9083 C   0  0  0  0  0  0  0  0  0  0  0  0
    8.7042    6.3156    6.9230 C   0  0  0  0  0  0  0  0  0  0  0  0
    8.4091    7.6605    7.0792 C   0  0  0  0  0  0  0  0  0  0  0  0
    7.7241    8.1292    8.1894 C   0  0  0  0  0  0  0  0  0  0  0  0
    7.3325    7.2119    9.1548 C   0  0  0  0  0  0  0  0  0  0  0  0
    7.6156    5.8737    9.0159 C   0  0  0  0  0  0  0  0  0  0  0  0
    8.7987    8.6103    5.9928 C   0  0  0  0  0  0  0  0  0  0  0  0
   11.9517    3.7280    9.3208 C   0  0  0  0  0  0  0  0  0  0  0  0
   11.6670    5.0940    9.1427 C   0  0  0  0  0  0  0  0  0  0  0  0
   12.5762    6.0526    9.5411 C   0  0  0  0  0  0  0  0  0  0  0  0
   13.7925    5.7047   10.1238 C   0  0  0  0  0  0  0  0  0  0  0  0
   14.0787    4.3629   10.3007 C   0  0  0  0  0  0  0  0  0  0  0  0
   13.1872    3.3881    9.9009 C   0  0  0  0  0  0  0  0  0  0  0  0
   12.2920    7.5088    9.3357 C   0  0  0  0  0  0  0  0  0  0  0  0
    8.6264    4.0582    7.8363 N   0  0  0  0  0  0  0  0  0  0  0  0
    9.2557    1.3693    7.5940 N   0  0  0  0  0  4  0  0  0  0  0  0
   11.0240    2.7957    8.9457 N   0  0  0  0  0  0  0  0  0  0  0  0
    6.9753    2.1900    9.5712 Cl  0  0  0  0  0  0  0  0  0  0  0  0
    9.4247    4.4079   11.1057 Cl  0  0  0  0  0  0  0  0  0  0  0  0
    9.6694    1.0090   11.0446 Cl  0  0  0  0  0  0  0  0  0  0  0  0
    9.9188    8.2619    5.3343 F   0  0  0  0  0  0  0  0  0  0  0  0
    8.9881    9.8733    6.4091 F   0  0  0  0  0  0  0  0  0  0  0  0
   11.1478    7.7712    8.6965 F   0  0  0  0  0  0  0  0  0  0  0  0
   12.2542    8.2065   10.4890 F   0  0  0  0  0  0  0  0  0  0  0  0
    7.8430    8.7011    5.0250 F   0  0  0  0  0  0  0  0  0  0  0  0
   13.2654    8.1109    8.6023 F   0  0  0  0  0  0  0  0  0  0  0  0
    9.8795    3.6929    6.1815 H   0  0  0  0  0  0  0  0  0  0  0  0
    8.1756    4.0195    5.7783 H   0  0  0  0  0  0  0  0  0  0  0  0
    7.4498    1.9251    6.7397 H   0  0  0  0  0  0  0  0  0  0  0  0
    8.7328    1.5752    5.5424 H   0  0  0  0  0  0  0  0  0  0  0  0
    7.6224    0.1797    8.1553 H   0  0  0  0  0  0  0  0  0  0  0  0
    9.1828   -0.3333    8.7892 H   0  0  0  0  0  0  0  0  0  0  0  0
    8.7823   -0.6296    7.0661 H   0  0  0  0  0  0  0  0  0  0  0  0
   10.8675    0.1770    6.8910 H   0  0  0  0  0  0  0  0  0  0  0  0
   10.9453    1.9016    6.4649 H   0  0  0  0  0  0  0  0  0  0  0  0
   11.3604    0.7570    9.2660 H   0  0  0  0  0  0  0  0  0  0  0  0
   12.5763    1.5515    8.2063 H   0  0  0  0  0  0  0  0  0  0  0  0
    9.2660    6.0067    6.0550 H   0  0  0  0  0  0  0  0  0  0  0  0
    7.5078    9.1805    8.2949 H   0  0  0  0  0  0  0  0  0  0  0  0
    6.7891    7.5540   10.0227 H   0  0  0  0  0  0  0  0  0  0  0  0
    7.2841    5.1677    9.7630 H   0  0  0  0  0  0  0  0  0  0  0  0
   10.7293    5.3858    8.6924 H   0  0  0  0  0  0  0  0  0  0  0  0
   14.4857    6.4718   10.4323 H   0  0  0  0  0  0  0  0  0  0  0  0
   15.0095    4.0727   10.7671 H   0  0  0  0  0  0  0  0  0  0  0  0
   13.4156    2.3505   10.0946 H   0  0  0  0  0  0  0  0  0  0  0  0
  1 24  1  0  0  0  0
  1 26  1  0  0  0  0
  1 25  1  0  0  0  0
  2  3  1  0  0  0  0
  2 21  1  0  0  0  0
  3 35  1  0  0  0  0
  3 22  1  0  0  0  0
  4 37  1  0  0  0  0
  4 38  1  0  0  0  0
  5 22  1  0  0  0  0
  5  6  1  0  0  0  0
  6 23  1  0  0  0  0
  6 42  1  0  0  0  0
  7 12  1  0  0  0  0
  8  9  1  0  0  0  0
  8  7  2  0  0  0  0
  9 10  2  0  0  0  0
 10 45  1  0  0  0  0
 10 11  1  0  0  0  0
 11 46  1  0  0  0  0
 12 11  2  0  0  0  0
 12 47  1  0  0  0  0
 13 28  1  0  0  0  0
 13  9  1  0  0  0  0
 14 19  1  0  0  0  0
 15 14  2  0  0  0  0
 15 16  1  0  0  0  0
 16 17  2  0  0  0  0
 17 18  1  0  0  0  0
 17 49  1  0  0  0  0
 18 50  1  0  0  0  0
 19 51  1  0  0  0  0
 19 18  2  0  0  0  0
 20 16  1  0  0  0  0
 20 30  1  0  0  0  0
 21  7  1  0  0  0  0
 21  1  1  0  0  0  0
 22  4  1  0  0  0  0
 22  1  1  0  0  0  0
 23 14  1  0  0  0  0
 23  1  1  0  0  0  0
 27 13  1  0  0  0  0
 29 20  1  0  0  0  0
 31 13  1  0  0  0  0
 32 20  1  0  0  0  0
 33  2  1  0  0  0  0
 34  2  1  0  0  0  0
 36  3  1  0  0  0  0
 39  4  1  0  0  0  0
 40  5  1  0  0  0  0
 41  5  1  0  0  0  0
 43  6  1  0  0  0  0
 44  8  1  0  0  0  0
 48 15  1  0  0  0  0
M  END
$$$$
