CSD_code = IVIBEU | q = 0 | S = 0 | Stoichiometry = C22H22ClF10MoN3 | MND = 5
 OpenBabel04212202053D

 59 62  0  0  0  0  0  0  0  0999 V2000
    2.7396    6.7025   15.4840 C   0  0  0  0  0  0  0  0  0  0  0  0
    3.6179    7.8387   16.0228 C   0  0  0  0  0  0  0  0  0  0  0  0
    4.8216    8.0782   15.1098 C   0  0  0  0  0  0  0  0  0  0  0  0
    4.0882    7.5056   17.4431 C   0  0  0  0  0  0  0  0  0  0  0  0
    2.7894    9.1322   16.0736 C   0  0  0  0  0  0  0  0  0  0  0  0
    0.4512    4.4801   14.7534 C   0  0  0  0  0  0  0  0  0  0  0  0
    0.7887    4.5209   17.1274 C   0  0  0  0  0  0  0  0  0  0  0  0
    1.8814    4.5147   18.2147 C   0  0  0  0  0  0  0  0  0  0  0  0
    1.4264    2.5999   15.8508 C   0  0  0  0  0  0  0  0  0  0  0  0
    2.2849    2.1231   14.6769 C   0  0  0  0  0  0  0  0  0  0  0  0
    4.1482    3.7191   18.3856 C   0  0  0  0  0  0  0  0  0  0  0  0
    4.4165    4.1291   19.7072 C   0  0  0  0  0  0  0  0  0  0  0  0
    5.4849    3.6261   20.4342 C   0  0  0  0  0  0  0  0  0  0  0  0
    6.3337    2.6734   19.8793 C   0  0  0  0  0  0  0  0  0  0  0  0
    6.0792    2.2136   18.5873 C   0  0  0  0  0  0  0  0  0  0  0  0
    5.0071    2.7221   17.8801 C   0  0  0  0  0  0  0  0  0  0  0  0
    4.1140    2.9869   13.3682 C   0  0  0  0  0  0  0  0  0  0  0  0
    4.7523    4.1390   12.8557 C   0  0  0  0  0  0  0  0  0  0  0  0
    5.7010    4.1245   11.8556 C   0  0  0  0  0  0  0  0  0  0  0  0
    6.0660    2.9086   11.2797 C   0  0  0  0  0  0  0  0  0  0  0  0
    5.4250    1.7504   11.7095 C   0  0  0  0  0  0  0  0  0  0  0  0
    4.4718    1.7847   12.7153 C   0  0  0  0  0  0  0  0  0  0  0  0
    5.8723    4.8283   15.8111 Cl  0  0  0  0  0  0  0  0  0  0  0  0
    3.6399    5.0656   20.2868 F   0  0  0  0  0  0  0  0  0  0  0  0
    5.6998    4.0635   21.6782 F   0  0  0  0  0  0  0  0  0  0  0  0
    7.3619    2.1891   20.5826 F   0  0  0  0  0  0  0  0  0  0  0  0
    6.8463    1.2615   18.0524 F   0  0  0  0  0  0  0  0  0  0  0  0
    4.7110    2.2008   16.6663 F   0  0  0  0  0  0  0  0  0  0  0  0
    4.3101    5.3338   13.3438 F   0  0  0  0  0  0  0  0  0  0  0  0
    6.2445    5.2669   11.4265 F   0  0  0  0  0  0  0  0  0  0  0  0
    6.9899    2.8591   10.3117 F   0  0  0  0  0  0  0  0  0  0  0  0
    5.7311    0.5785   11.1434 F   0  0  0  0  0  0  0  0  0  0  0  0
    3.8927    0.6128   13.0529 F   0  0  0  0  0  0  0  0  0  0  0  0
    3.5311    4.6716   15.7152 Mo  0  0  0  0  0  0  0  0  0  0  0  0
    3.1568    4.2136   17.5866 N   0  0  0  0  0  0  0  0  0  0  0  0
    1.3307    4.0638   15.8447 N   0  0  0  0  0  4  0  0  0  0  0  0
    3.2362    3.1676   14.3723 N   0  0  0  0  0  0  0  0  0  0  0  0
    2.5373    6.9264   14.4283 H   0  0  0  0  0  0  0  0  0  0  0  0
    1.7813    6.8031   16.0033 H   0  0  0  0  0  0  0  0  0  0  0  0
    5.4430    7.1886   15.0354 H   0  0  0  0  0  0  0  0  0  0  0  0
    5.4349    8.8894   15.4967 H   0  0  0  0  0  0  0  0  0  0  0  0
    4.4906    8.3481   14.1087 H   0  0  0  0  0  0  0  0  0  0  0  0
    4.6791    6.5847   17.4499 H   0  0  0  0  0  0  0  0  0  0  0  0
    3.2360    7.3872   18.1119 H   0  0  0  0  0  0  0  0  0  0  0  0
    4.7101    8.3089   17.8334 H   0  0  0  0  0  0  0  0  0  0  0  0
    3.4019    9.9597   16.4243 H   0  0  0  0  0  0  0  0  0  0  0  0
    1.9424    9.0268   16.7493 H   0  0  0  0  0  0  0  0  0  0  0  0
    2.4117    9.3836   15.0849 H   0  0  0  0  0  0  0  0  0  0  0  0
    0.8746    4.1638   13.8011 H   0  0  0  0  0  0  0  0  0  0  0  0
    0.3606    5.5635   14.7400 H   0  0  0  0  0  0  0  0  0  0  0  0
   -0.5482    4.0424   14.8655 H   0  0  0  0  0  0  0  0  0  0  0  0
    0.4161    5.5368   16.9930 H   0  0  0  0  0  0  0  0  0  0  0  0
   -0.0585    3.8912   17.4303 H   0  0  0  0  0  0  0  0  0  0  0  0
    1.9069    5.4932   18.7080 H   0  0  0  0  0  0  0  0  0  0  0  0
    1.6593    3.7622   18.9829 H   0  0  0  0  0  0  0  0  0  0  0  0
    0.4259    2.1466   15.8018 H   0  0  0  0  0  0  0  0  0  0  0  0
    1.9004    2.2936   16.7864 H   0  0  0  0  0  0  0  0  0  0  0  0
    2.7881    1.1930   14.9660 H   0  0  0  0  0  0  0  0  0  0  0  0
    1.6636    1.9077   13.7955 H   0  0  0  0  0  0  0  0  0  0  0  0
  1 34  1  0  0  0  0
  1 39  1  0  0  0  0
  1  2  1  0  0  0  0
  2  5  1  0  0  0  0
  2  4  1  0  0  0  0
  3 41  1  0  0  0  0
  3  2  1  0  0  0  0
  4 43  1  0  0  0  0
  4 45  1  0  0  0  0
  4 44  1  0  0  0  0
  5 46  1  0  0  0  0
  5 47  1  0  0  0  0
  6 51  1  0  0  0  0
  6 36  1  0  0  0  0
  7 53  1  0  0  0  0
  7  8  1  0  0  0  0
  8 54  1  0  0  0  0
  8 55  1  0  0  0  0
  9 57  1  0  0  0  0
 10 58  1  0  0  0  0
 10  9  1  0  0  0  0
 11 12  1  0  0  0  0
 12 24  1  0  0  0  0
 12 13  2  0  0  0  0
 13 25  1  0  0  0  0
 14 13  1  0  0  0  0
 14 26  1  0  0  0  0
 15 14  2  0  0  0  0
 16 11  2  0  0  0  0
 16 15  1  0  0  0  0
 17 37  1  0  0  0  0
 18 29  1  0  0  0  0
 18 17  1  0  0  0  0
 19 18  2  0  0  0  0
 20 21  2  0  0  0  0
 20 19  1  0  0  0  0
 21 22  1  0  0  0  0
 22 33  1  0  0  0  0
 22 17  2  0  0  0  0
 27 15  1  0  0  0  0
 28 16  1  0  0  0  0
 30 19  1  0  0  0  0
 31 20  1  0  0  0  0
 32 21  1  0  0  0  0
 34 23  1  0  0  0  0
 34 36  1  0  0  0  0
 34 35  1  0  0  0  0
 35  8  1  0  0  0  0
 35 11  1  0  0  0  0
 36  9  1  0  0  0  0
 36  7  1  0  0  0  0
 37 10  1  0  0  0  0
 37 34  1  0  0  0  0
 38  1  1  0  0  0  0
 40  3  1  0  0  0  0
 42  3  1  0  0  0  0
 48  5  1  0  0  0  0
 49  6  1  0  0  0  0
 50  6  1  0  0  0  0
 52  7  1  0  0  0  0
 56  9  1  0  0  0  0
 59 10  1  0  0  0  0
M  END
$$$$
