CSD_code = IVIRAI | q = 0 | S = 0 | Stoichiometry = C15H14Cl2N2Pd | MND = 4
 OpenBabel04212202053D

 34 37  0  0  0  0  0  0  0  0999 V2000
    2.0932   14.8027    5.3293 Pd  0  0  0  0  0  0  0  0  0  0  0  0
    2.4096   14.6071    7.5090 Cl  0  0  0  0  0  0  0  0  0  0  0  0
    3.1976   12.9028    5.0520 Cl  0  0  0  0  0  0  0  0  0  0  0  0
    0.9515   16.4575    5.4797 N   0  0  0  0  0  0  0  0  0  0  0  0
    1.7346   15.1319    3.3838 N   0  0  0  0  0  0  0  0  0  0  0  0
    0.4668   16.8661    4.2835 C   0  0  0  0  0  0  0  0  0  0  0  0
    0.5841   17.1044    6.5839 C   0  0  0  0  0  0  0  0  0  0  0  0
    1.0009   16.7297    7.5120 H   0  0  0  0  0  0  0  0  0  0  0  0
    0.9240   16.1153    3.1376 C   0  0  0  0  0  0  0  0  0  0  0  0
   -0.3953   17.9667    4.1663 C   0  0  0  0  0  0  0  0  0  0  0  0
   -0.2756   18.1874    6.5480 C   0  0  0  0  0  0  0  0  0  0  0  0
   -0.5506   18.6850    7.4637 H   0  0  0  0  0  0  0  0  0  0  0  0
   -0.7665   18.6286    5.3240 C   0  0  0  0  0  0  0  0  0  0  0  0
   -1.4278   19.4806    5.2714 H   0  0  0  0  0  0  0  0  0  0  0  0
    1.5430   13.6167    1.4740 C   0  0  0  0  0  0  0  0  0  0  0  0
    0.4652   13.6446    1.5405 H   0  0  0  0  0  0  0  0  0  0  0  0
    2.3105   14.3454    2.3791 C   0  0  0  0  0  0  0  0  0  0  0  0
    0.4946   16.5569    1.7677 C   0  0  0  0  0  0  0  0  0  0  0  0
   -0.4109   16.0100    1.4855 H   0  0  0  0  0  0  0  0  0  0  0  0
    1.2708   16.3075    1.0403 H   0  0  0  0  0  0  0  0  0  0  0  0
    3.7033   14.2590    2.3387 C   0  0  0  0  0  0  0  0  0  0  0  0
    4.2837   14.8185    3.0644 H   0  0  0  0  0  0  0  0  0  0  0  0
    2.1672   12.8123    0.5384 C   0  0  0  0  0  0  0  0  0  0  0  0
    1.5684   12.2346   -0.1498 H   0  0  0  0  0  0  0  0  0  0  0  0
    4.3141   13.4668    1.3875 C   0  0  0  0  0  0  0  0  0  0  0  0
    5.3907   13.4015    1.3588 H   0  0  0  0  0  0  0  0  0  0  0  0
    3.5489   12.7421    0.4867 C   0  0  0  0  0  0  0  0  0  0  0  0
    4.0294   12.1119   -0.2460 H   0  0  0  0  0  0  0  0  0  0  0  0
   -0.8645   18.3838    2.8059 C   0  0  0  0  0  0  0  0  0  0  0  0
   -1.0894   19.4516    2.8045 H   0  0  0  0  0  0  0  0  0  0  0  0
   -1.7913   17.8510    2.5693 H   0  0  0  0  0  0  0  0  0  0  0  0
    0.1932   18.0543    1.7555 C   0  0  0  0  0  0  0  0  0  0  0  0
   -0.1570   18.3500    0.7659 H   0  0  0  0  0  0  0  0  0  0  0  0
    1.1062   18.6128    1.9727 H   0  0  0  0  0  0  0  0  0  0  0  0
  1  4  1  0  0  0  0
  1  2  1  0  0  0  0
  3  1  1  0  0  0  0
  4  7  1  0  0  0  0
  5  1  1  0  0  0  0
  6  4  1  0  0  0  0
  7  8  1  0  0  0  0
  9  5  1  0  0  0  0
  9  6  2  0  0  0  0
 10  6  1  0  0  0  0
 10 13  2  0  0  0  0
 11  7  2  0  0  0  0
 11 12  1  0  0  0  0
 13 11  1  0  0  0  0
 14 13  1  0  0  0  0
 15 16  1  0  0  0  0
 15 17  1  0  0  0  0
 17  5  1  0  0  0  0
 18  9  1  0  0  0  0
 19 18  1  0  0  0  0
 20 18  1  0  0  0  0
 21 17  2  0  0  0  0
 21 22  1  0  0  0  0
 23 15  2  0  0  0  0
 24 23  1  0  0  0  0
 25 21  1  0  0  0  0
 26 25  1  0  0  0  0
 27 23  1  0  0  0  0
 27 25  2  0  0  0  0
 28 27  1  0  0  0  0
 29 10  1  0  0  0  0
 30 29  1  0  0  0  0
 31 29  1  0  0  0  0
 32 18  1  0  0  0  0
 32 34  1  0  0  0  0
 32 29  1  0  0  0  0
 33 32  1  0  0  0  0
M  END
$$$$
