CSD_code = IVISEN | q = 0 | S = 0 | Stoichiometry = C13H18Cl2N2Pd | MND = 4
 OpenBabel04212202053D

 36 38  0  0  0  0  0  0  0  0999 V2000
   12.1149    6.0463    0.6025 Pd  0  0  0  0  0  0  0  0  0  0  0  0
   12.9389    4.9113    2.3205 Cl  0  0  0  0  0  0  0  0  0  0  0  0
   10.6472    6.9708    1.9844 Cl  0  0  0  0  0  0  0  0  0  0  0  0
   13.4067    6.0204   -1.9021 C   0  0  0  0  0  0  0  0  0  0  0  0
   13.5443    5.4535   -0.6819 N   0  0  0  0  0  0  0  0  0  0  0  0
   11.4389    6.9310   -1.0634 N   0  0  0  0  0  0  0  0  0  0  0  0
   14.3833    5.8830   -2.8977 C   0  0  0  0  0  0  0  0  0  0  0  0
   12.1770    6.7595   -2.1104 C   0  0  0  0  0  0  0  0  0  0  0  0
    6.6940    5.7427   -0.6555 C   0  0  0  0  0  0  0  0  0  0  0  0
    6.6505    5.1937   -1.5943 H   0  0  0  0  0  0  0  0  0  0  0  0
    5.7001    6.1232   -0.4345 H   0  0  0  0  0  0  0  0  0  0  0  0
    6.9808    5.0528    0.1340 H   0  0  0  0  0  0  0  0  0  0  0  0
    9.0977    6.3728   -1.0467 C   0  0  0  0  0  0  0  0  0  0  0  0
    9.1019    5.8209   -1.9912 H   0  0  0  0  0  0  0  0  0  0  0  0
    9.4120    5.6855   -0.2446 H   0  0  0  0  0  0  0  0  0  0  0  0
   14.6374    4.7429   -0.4154 C   0  0  0  0  0  0  0  0  0  0  0  0
   14.6906    4.3097    0.5771 H   0  0  0  0  0  0  0  0  0  0  0  0
   10.1248    7.5151   -1.1104 C   0  0  0  0  0  0  0  0  0  0  0  0
    9.9686    8.1375   -1.9970 H   0  0  0  0  0  0  0  0  0  0  0  0
   10.0075    8.1243   -0.2075 H   0  0  0  0  0  0  0  0  0  0  0  0
   11.8585    7.2481   -3.4996 C   0  0  0  0  0  0  0  0  0  0  0  0
   12.0908    8.3178   -3.5500 H   0  0  0  0  0  0  0  0  0  0  0  0
   10.7937    7.1292   -3.7059 H   0  0  0  0  0  0  0  0  0  0  0  0
   14.1526    6.5337   -4.2262 C   0  0  0  0  0  0  0  0  0  0  0  0
   14.4944    7.5728   -4.1829 H   0  0  0  0  0  0  0  0  0  0  0  0
   14.7333    6.0249   -4.9969 H   0  0  0  0  0  0  0  0  0  0  0  0
    7.6951    6.8875   -0.7426 C   0  0  0  0  0  0  0  0  0  0  0  0
    7.7179    7.4211    0.2082 H   0  0  0  0  0  0  0  0  0  0  0  0
    7.3847    7.5899   -1.5205 H   0  0  0  0  0  0  0  0  0  0  0  0
   15.5165    5.1427   -2.6051 C   0  0  0  0  0  0  0  0  0  0  0  0
   16.2881    5.0176   -3.3501 H   0  0  0  0  0  0  0  0  0  0  0  0
   15.6448    4.5661   -1.3473 C   0  0  0  0  0  0  0  0  0  0  0  0
   16.5153    3.9834   -1.0931 H   0  0  0  0  0  0  0  0  0  0  0  0
   12.6640    6.4998   -4.5594 C   0  0  0  0  0  0  0  0  0  0  0  0
   12.3311    5.4602   -4.6023 H   0  0  0  0  0  0  0  0  0  0  0  0
   12.4871    6.9512   -5.5365 H   0  0  0  0  0  0  0  0  0  0  0  0
  1  3  1  0  0  0  0
  1  2  1  0  0  0  0
  4  5  1  0  0  0  0
  5 16  1  0  0  0  0
  5  1  1  0  0  0  0
  6  1  1  0  0  0  0
  7 30  2  0  0  0  0
  7  4  1  0  0  0  0
  8  4  2  0  0  0  0
  8  6  1  0  0  0  0
  9 11  1  0  0  0  0
  9 12  1  0  0  0  0
 10  9  1  0  0  0  0
 13 27  1  0  0  0  0
 13 15  1  0  0  0  0
 14 13  1  0  0  0  0
 16 17  1  0  0  0  0
 18  6  1  0  0  0  0
 18 13  1  0  0  0  0
 18 20  1  0  0  0  0
 19 18  1  0  0  0  0
 21  8  1  0  0  0  0
 22 21  1  0  0  0  0
 23 21  1  0  0  0  0
 24 25  1  0  0  0  0
 24  7  1  0  0  0  0
 26 24  1  0  0  0  0
 27  9  1  0  0  0  0
 27 28  1  0  0  0  0
 29 27  1  0  0  0  0
 30 32  1  0  0  0  0
 31 30  1  0  0  0  0
 32 33  1  0  0  0  0
 32 16  2  0  0  0  0
 34 24  1  0  0  0  0
 34 21  1  0  0  0  0
 35 34  1  0  0  0  0
 36 34  1  0  0  0  0
M  END
$$$$
