CSD_code = IVISIR | q = 0 | S = 0 | Stoichiometry = C17H18Cl2N2Pd | MND = 4
 OpenBabel04212202053D

 40 43  0  0  0  0  0  0  0  0999 V2000
    1.9338    1.4897    2.9414 Pd  0  0  0  0  0  0  0  0  0  0  0  0
    0.0972    1.4074    1.7071 Cl  0  0  0  0  0  0  0  0  0  0  0  0
    1.0728    3.2006    4.0635 Cl  0  0  0  0  0  0  0  0  0  0  0  0
    2.8354   -0.0471    1.9897 N   0  0  0  0  0  0  0  0  0  0  0  0
    3.6137    1.4417    3.9602 N   0  0  0  0  0  0  0  0  0  0  0  0
    2.3911   -0.7733    0.9679 C   0  0  0  0  0  0  0  0  0  0  0  0
    1.4046   -0.5175    0.5988 H   0  0  0  0  0  0  0  0  0  0  0  0
    3.1438   -1.7935    0.4128 C   0  0  0  0  0  0  0  0  0  0  0  0
    2.7500   -2.3610   -0.4147 H   0  0  0  0  0  0  0  0  0  0  0  0
    4.4007   -2.0788    0.9348 C   0  0  0  0  0  0  0  0  0  0  0  0
    5.0003   -2.8752    0.5199 H   0  0  0  0  0  0  0  0  0  0  0  0
    4.8785   -1.3310    1.9982 C   0  0  0  0  0  0  0  0  0  0  0  0
    6.2214   -1.5622    2.6230 C   0  0  0  0  0  0  0  0  0  0  0  0
    6.9676   -0.9700    2.0826 H   0  0  0  0  0  0  0  0  0  0  0  0
    6.4999   -2.6125    2.5204 H   0  0  0  0  0  0  0  0  0  0  0  0
    6.2167   -1.1506    4.0940 C   0  0  0  0  0  0  0  0  0  0  0  0
    7.2081   -1.2966    4.5242 H   0  0  0  0  0  0  0  0  0  0  0  0
    5.5140   -1.7819    4.6425 H   0  0  0  0  0  0  0  0  0  0  0  0
    5.8015    0.3128    4.2353 C   0  0  0  0  0  0  0  0  0  0  0  0
    5.7680    0.6149    5.2844 H   0  0  0  0  0  0  0  0  0  0  0  0
    6.5386    0.9509    3.7358 H   0  0  0  0  0  0  0  0  0  0  0  0
    4.4603    0.5342    3.5995 C   0  0  0  0  0  0  0  0  0  0  0  0
    4.0598   -0.3111    2.5006 C   0  0  0  0  0  0  0  0  0  0  0  0
    3.8689    2.3335    5.0150 C   0  0  0  0  0  0  0  0  0  0  0  0
    4.4661    3.5650    4.7355 C   0  0  0  0  0  0  0  0  0  0  0  0
    4.6888    4.4391    5.7872 C   0  0  0  0  0  0  0  0  0  0  0  0
    5.1458    5.3972    5.5899 H   0  0  0  0  0  0  0  0  0  0  0  0
    4.3104    4.1038    7.0755 C   0  0  0  0  0  0  0  0  0  0  0  0
    4.4907    4.7948    7.8848 H   0  0  0  0  0  0  0  0  0  0  0  0
    3.6625    2.9064    7.3246 C   0  0  0  0  0  0  0  0  0  0  0  0
    3.3227    2.6728    8.3224 H   0  0  0  0  0  0  0  0  0  0  0  0
    3.4215    2.0074    6.2982 C   0  0  0  0  0  0  0  0  0  0  0  0
    4.7644    3.9201    3.3105 C   0  0  0  0  0  0  0  0  0  0  0  0
    3.8731    3.7191    2.6960 H   0  0  0  0  0  0  0  0  0  0  0  0
    5.5896    3.3266    2.9134 H   0  0  0  0  0  0  0  0  0  0  0  0
    5.0199    4.9720    3.2218 H   0  0  0  0  0  0  0  0  0  0  0  0
    2.6472    0.7396    6.4955 C   0  0  0  0  0  0  0  0  0  0  0  0
    3.2828   -0.1401    6.3796 H   0  0  0  0  0  0  0  0  0  0  0  0
    1.8475    0.6847    5.7389 H   0  0  0  0  0  0  0  0  0  0  0  0
    2.1961    0.7144    7.4833 H   0  0  0  0  0  0  0  0  0  0  0  0
  1  5  1  0  0  0  0
  1  3  1  0  0  0  0
  2  1  1  0  0  0  0
  4 23  1  0  0  0  0
  4  1  1  0  0  0  0
  5 24  1  0  0  0  0
  6  4  1  0  0  0  0
  7  6  1  0  0  0  0
  8 10  1  0  0  0  0
  8  6  2  0  0  0  0
  9  8  1  0  0  0  0
 10 12  2  0  0  0  0
 11 10  1  0  0  0  0
 12 23  1  0  0  0  0
 12 13  1  0  0  0  0
 13 16  1  0  0  0  0
 14 13  1  0  0  0  0
 15 13  1  0  0  0  0
 16 19  1  0  0  0  0
 16 17  1  0  0  0  0
 16 18  1  0  0  0  0
 19 20  1  0  0  0  0
 21 19  1  0  0  0  0
 22  5  1  0  0  0  0
 22 19  1  0  0  0  0
 23 22  2  0  0  0  0
 24 32  1  0  0  0  0
 25 24  2  0  0  0  0
 25 26  1  0  0  0  0
 26 28  2  0  0  0  0
 27 26  1  0  0  0  0
 28 30  1  0  0  0  0
 28 29  1  0  0  0  0
 30 31  1  0  0  0  0
 32 37  1  0  0  0  0
 32 30  2  0  0  0  0
 33 25  1  0  0  0  0
 34 33  1  0  0  0  0
 35 33  1  0  0  0  0
 36 33  1  0  0  0  0
 37 40  1  0  0  0  0
 38 37  1  0  0  0  0
 39 37  1  0  0  0  0
M  END
$$$$
