CSD_code = IVOFOP | q = 1 | S = 0 | Stoichiometry = C28H27BrCdN5(1+) | MND = 6
 OpenBabel04212202053D

 62 69  0  0  1  0  0  0  0  0999 V2000
    0.5536    3.0478    4.5379 Cd  0  0  0  0  0  0  0  0  0  0  0  0
    2.4260    4.3618    5.4012 Br  0  0  0  0  0  0  0  0  0  0  0  0
    1.7821    2.2861    2.5947 N   0  0  0  0  0  0  0  0  0  0  0  0
    3.7792    1.6633    1.4571 C   0  0  0  0  0  0  0  0  0  0  0  0
    4.8184    1.3839    1.5184 H   0  0  0  0  0  0  0  0  0  0  0  0
    1.1553    2.4106    1.4199 C   0  0  0  0  0  0  0  0  0  0  0  0
   -1.4394    1.8219   -0.4346 C   0  0  0  0  0  0  0  0  0  0  0  0
   -1.2661    0.8651    0.0366 H   0  0  0  0  0  0  0  0  0  0  0  0
   -0.9711    2.9838    0.1725 C   0  0  0  0  0  0  0  0  0  0  0  0
    3.1349    1.7722    0.2356 C   0  0  0  0  0  0  0  0  0  0  0  0
    3.6600    1.5734   -0.6859 H   0  0  0  0  0  0  0  0  0  0  0  0
    3.0561    1.9327    2.6126 C   0  0  0  0  0  0  0  0  0  0  0  0
    3.5229    1.8725    3.5893 H   0  0  0  0  0  0  0  0  0  0  0  0
   -1.1431    4.9202    4.7955 N   0  0  1  0  0  4  0  0  0  0  0  0
   -0.6050    5.7492    5.0474 H   0  0  0  0  0  0  0  0  0  0  0  0
   -2.0105    3.8235    2.7680 C   0  0  0  0  0  0  0  0  0  0  0  0
   -2.5966    3.1263    3.3763 H   0  0  0  0  0  0  0  0  0  0  0  0
   -2.5374    4.0041    1.8238 H   0  0  0  0  0  0  0  0  0  0  0  0
    1.8030    2.1567    0.2125 C   0  0  0  0  0  0  0  0  0  0  0  0
    1.2769    2.2703   -0.7223 H   0  0  0  0  0  0  0  0  0  0  0  0
   -2.3545    3.1267   -2.2291 C   0  0  0  0  0  0  0  0  0  0  0  0
   -2.8919    3.1821   -3.1627 H   0  0  0  0  0  0  0  0  0  0  0  0
   -0.2390    2.9016    1.4583 C   0  0  0  0  0  0  0  0  0  0  0  0
   -2.1333    1.8976   -1.6290 C   0  0  0  0  0  0  0  0  0  0  0  0
   -2.4987    0.9943   -2.0925 H   0  0  0  0  0  0  0  0  0  0  0  0
   -1.8834    4.2842   -1.6315 C   0  0  0  0  0  0  0  0  0  0  0  0
   -2.0496    5.2425   -2.0986 H   0  0  0  0  0  0  0  0  0  0  0  0
   -1.8435    5.1476    3.5370 C   0  0  0  0  0  0  0  0  0  0  0  0
   -1.2487    5.8281    2.9213 H   0  0  0  0  0  0  0  0  0  0  0  0
   -2.8338    5.5972    3.6914 H   0  0  0  0  0  0  0  0  0  0  0  0
   -1.1980    4.2175   -0.4313 C   0  0  0  0  0  0  0  0  0  0  0  0
   -0.8203    5.1179    0.0318 H   0  0  0  0  0  0  0  0  0  0  0  0
   -0.4501    2.9136    6.6579 N   0  0  1  0  0  0  0  0  0  0  0  0
    1.3553    3.4672    9.3111 C   0  0  0  0  0  0  0  0  0  0  0  0
    2.0158    3.8940    8.5700 H   0  0  0  0  0  0  0  0  0  0  0  0
   -0.4792    2.0048    9.8683 C   0  0  0  0  0  0  0  0  0  0  0  0
   -1.2400    1.3019    9.5597 H   0  0  0  0  0  0  0  0  0  0  0  0
    0.3736    2.5608    8.9206 C   0  0  0  0  0  0  0  0  0  0  0  0
    0.2418    2.2307    7.4823 C   0  0  2  0  0  3  0  0  0  0  0  0
    1.6756   -0.1304    5.1378 C   0  0  0  0  0  3  0  0  0  0  0  0
    1.6892   -0.2127    4.0573 H   0  0  0  0  0  0  0  0  0  0  0  0
    1.5827    0.1547    7.8333 C   0  0  0  0  0  0  0  0  0  0  0  0
    1.5229    0.3071    8.8994 H   0  0  0  0  0  0  0  0  0  0  0  0
    0.9809    1.0635    6.9644 C   0  0  0  0  0  0  0  0  0  0  0  0
    2.2932   -1.0895    5.9286 C   0  0  0  0  0  0  0  0  0  0  0  0
    2.7976   -1.9271    5.4746 H   0  0  0  0  0  0  0  0  0  0  0  0
   -0.3465    2.3530   11.2013 C   0  0  0  0  0  0  0  0  0  0  0  0
   -1.0080    1.9184   11.9350 H   0  0  0  0  0  0  0  0  0  0  0  0
    0.6324    3.2522   11.5910 C   0  0  0  0  0  0  0  0  0  0  0  0
    0.7337    3.5196   12.6313 H   0  0  0  0  0  0  0  0  0  0  0  0
    2.2509   -0.9374    7.3054 C   0  0  0  0  0  0  0  0  0  0  0  0
    2.7274   -1.6545    7.9558 H   0  0  0  0  0  0  0  0  0  0  0  0
    1.4813    3.8063   10.6467 C   0  0  0  0  0  0  0  0  0  0  0  0
    2.2462    4.5050   10.9477 H   0  0  0  0  0  0  0  0  0  0  0  0
    1.0417    0.9205    5.6340 N   0  0  0  0  0  0  0  0  0  0  0  0
   -0.7096    3.2488    2.5894 N   0  0  0  0  0  0  0  0  0  0  0  0
   -1.1792    4.0786    7.0858 C   0  0  0  0  0  0  0  0  0  0  0  0
   -0.4725    4.8584    7.4013 H   0  0  0  0  0  0  0  0  0  0  0  0
   -1.8221    3.8483    7.9432 H   0  0  0  0  0  0  0  0  0  0  0  0
   -2.0203    4.5860    5.9144 C   0  0  0  0  0  0  0  0  0  0  0  0
   -2.6991    3.7893    5.5979 H   0  0  0  0  0  0  0  0  0  0  0  0
   -2.6212    5.4473    6.2397 H   0  0  0  0  0  0  0  0  0  0  0  0
  1 14  1  0  0  0  0
  1  2  1  0  0  0  0
  1 55  1  0  0  0  0
  1 33  1  0  0  0  0
  3 12  1  0  0  0  0
  3  1  1  0  0  0  0
  4  5  1  0  0  0  0
  4 12  2  0  0  0  0
  6 23  2  0  0  0  0
  6  3  1  0  0  0  0
  7  8  1  0  0  0  0
  7  9  1  0  0  0  0
  9 23  1  0  0  0  0
 10  4  1  0  0  0  0
 11 10  1  0  0  0  0
 12 13  1  0  0  0  0
 14 15  1  1  0  0  0
 14 60  1  0  0  0  0
 16 17  1  0  0  0  0
 16 28  1  0  0  0  0
 18 16  1  0  0  0  0
 19 10  2  0  0  0  0
 19  6  1  0  0  0  0
 20 19  1  0  0  0  0
 21 26  2  0  0  0  0
 21 24  1  0  0  0  0
 22 21  1  0  0  0  0
 23 56  1  0  0  0  0
 24  7  2  0  0  0  0
 25 24  1  0  0  0  0
 26 31  1  0  0  0  0
 27 26  1  0  0  0  0
 28 30  1  0  0  0  0
 28 14  1  0  0  0  0
 29 28  1  0  0  0  0
 31 32  1  0  0  0  0
 31  9  2  0  0  0  0
 33 57  1  1  0  0  0
 33 39  1  0  0  0  0
 34 53  1  0  0  0  0
 35 34  1  0  0  0  0
 36 47  2  0  0  0  0
 37 36  1  0  0  0  0
 38 34  2  0  0  0  0
 38 36  1  0  0  0  0
 39 38  1  6  0  0  0
 40 55  1  0  0  0  0
 40 45  1  0  0  0  0
 41 40  1  0  0  0  0
 42 43  1  0  0  0  0
 44 39  1  0  0  0  0
 44 42  2  0  0  0  0
 45 51  2  0  0  0  0
 46 45  1  0  0  0  0
 47 49  1  0  0  0  0
 47 48  1  0  0  0  0
 49 50  1  0  0  0  0
 51 42  1  0  0  0  0
 51 52  1  0  0  0  0
 53 54  1  0  0  0  0
 53 49  2  0  0  0  0
 55 44  1  0  0  0  0
 56 16  1  0  0  0  0
 56  1  1  0  0  0  0
 57 58  1  0  0  0  0
 57 59  1  0  0  0  0
 60 62  1  0  0  0  0
 60 57  1  0  0  0  0
 61 60  1  0  0  0  0
M  END
$$$$
