CSD_code = IVOFUV | q = 1 | S = 0 | Stoichiometry = C28H27CdIN5(1+) | MND = 6
 OpenBabel04212202053D

 62 69  0  0  1  0  0  0  0  0999 V2000
   -1.5585   14.0667   14.2812 I   0  0  0  0  0  0  0  0  0  0  0  0
    0.5541   15.4377   15.1425 Cd  0  0  0  0  0  0  0  0  0  0  0  0
    1.9419   15.3239   17.0084 N   0  0  0  0  0  0  0  0  0  0  0  0
    0.1778   16.2646   18.2570 C   0  0  0  0  0  0  0  0  0  0  0  0
    0.1861   17.6411   14.1045 N   0  0  0  0  0  0  0  0  0  0  0  0
   -0.5399   16.3132   17.1299 N   0  0  0  0  0  0  0  0  0  0  0  0
    1.5636   15.7625   18.1426 C   0  0  0  0  0  0  0  0  0  0  0  0
   -0.4076   18.6921   14.6473 C   0  0  0  0  0  3  0  0  0  0  0  0
   -0.4036   18.7358   15.7300 H   0  0  0  0  0  0  0  0  0  0  0  0
   -2.4319   17.0516   18.3741 C   0  0  0  0  0  0  0  0  0  0  0  0
   -3.4688   17.3460   18.3744 H   0  0  0  0  0  0  0  0  0  0  0  0
    2.9186   16.9952   19.8237 C   0  0  0  0  0  0  0  0  0  0  0  0
    2.7087   17.9068   19.2827 H   0  0  0  0  0  0  0  0  0  0  0  0
   -1.6938   17.0164   19.5458 C   0  0  0  0  0  0  0  0  0  0  0  0
   -2.1413   17.2880   20.4894 H   0  0  0  0  0  0  0  0  0  0  0  0
   -0.3683   16.6135   19.4907 C   0  0  0  0  0  0  0  0  0  0  0  0
    0.2301   16.5584   20.3864 H   0  0  0  0  0  0  0  0  0  0  0  0
    2.3997   15.7875   19.3660 C   0  0  0  0  0  0  0  0  0  0  0  0
    1.5150   15.5864   13.0064 N   0  0  1  0  0  0  0  0  0  0  0  0
    2.2157   14.4201   12.5401 C   0  0  0  0  0  0  0  0  0  0  0  0
    2.8167   14.6398   11.6495 H   0  0  0  0  0  0  0  0  0  0  0  0
    1.4866   13.6457   12.2671 H   0  0  0  0  0  0  0  0  0  0  0  0
    0.9280   16.3793   12.1996 C   0  0  1  0  0  3  0  0  0  0  0  0
    2.2796   13.5764   14.8320 N   0  0  2  0  0  4  0  0  0  0  0  0
    1.7561   12.7267   14.6213 H   0  0  0  0  0  0  0  0  0  0  0  0
    3.0353   13.3949   16.0657 C   0  0  0  0  0  0  0  0  0  0  0  0
    4.0189   12.9398   15.8850 H   0  0  0  0  0  0  0  0  0  0  0  0
    2.4689   12.7367   16.7308 H   0  0  0  0  0  0  0  0  0  0  0  0
    0.0095   15.2352   10.2049 C   0  0  0  0  0  0  0  0  0  0  0  0
   -0.6430   14.6811   10.8640 H   0  0  0  0  0  0  0  0  0  0  0  0
    0.8845   16.1808   10.7324 C   0  0  0  0  0  0  0  0  0  0  0  0
    1.7130   16.9100    9.8851 C   0  0  0  0  0  0  0  0  0  0  0  0
    2.3943   17.6401   10.2986 H   0  0  0  0  0  0  0  0  0  0  0  0
    1.6668   16.6902    8.5196 C   0  0  0  0  0  0  0  0  0  0  0  0
    2.3136   17.2547    7.8658 H   0  0  0  0  0  0  0  0  0  0  0  0
    0.2287   17.5484   12.7683 C   0  0  0  0  0  0  0  0  0  0  0  0
    3.4519   14.6490   21.2026 C   0  0  0  0  0  0  0  0  0  0  0  0
    3.6539   13.7359   21.7406 H   0  0  0  0  0  0  0  0  0  0  0  0
   -0.3580   18.5064   11.9430 C   0  0  0  0  0  0  0  0  0  0  0  0
   -0.3219   18.3920   10.8713 H   0  0  0  0  0  0  0  0  0  0  0  0
    2.6716   14.6121   20.0605 C   0  0  0  0  0  0  0  0  0  0  0  0
    2.2561   13.6766   19.7138 H   0  0  0  0  0  0  0  0  0  0  0  0
    3.7061   17.0226   20.9607 C   0  0  0  0  0  0  0  0  0  0  0  0
    4.1089   17.9611   21.3088 H   0  0  0  0  0  0  0  0  0  0  0  0
    3.9720   15.8516   21.6517 C   0  0  0  0  0  0  0  0  0  0  0  0
    4.5831   15.8767   22.5403 H   0  0  0  0  0  0  0  0  0  0  0  0
   -1.8067   16.6883   17.1878 C   0  0  0  0  0  0  0  0  0  0  0  0
   -2.3494   16.6924   16.2493 H   0  0  0  0  0  0  0  0  0  0  0  0
   -1.0043   19.6998   13.9020 C   0  0  0  0  0  0  0  0  0  0  0  0
   -1.4748   20.5355   14.3944 H   0  0  0  0  0  0  0  0  0  0  0  0
   -0.9865   19.5971   12.5206 C   0  0  0  0  0  0  0  0  0  0  0  0
   -1.4519   20.3502   11.9037 H   0  0  0  0  0  0  0  0  0  0  0  0
    3.2335   14.7456   16.7768 C   0  0  0  0  0  0  0  0  0  0  0  0
    3.8129   14.6017   17.6963 H   0  0  0  0  0  0  0  0  0  0  0  0
    3.7835   15.4237   16.1149 H   0  0  0  0  0  0  0  0  0  0  0  0
    3.1053   13.9040   13.6724 C   0  0  0  0  0  0  0  0  0  0  0  0
    3.6838   13.0388   13.3186 H   0  0  0  0  0  0  0  0  0  0  0  0
    3.8059   14.6945   13.9552 H   0  0  0  0  0  0  0  0  0  0  0  0
   -0.0377   15.0306    8.8375 C   0  0  0  0  0  0  0  0  0  0  0  0
   -0.7244   14.3045    8.4317 H   0  0  0  0  0  0  0  0  0  0  0  0
    0.7916   15.7533    7.9952 C   0  0  0  0  0  0  0  0  0  0  0  0
    0.7551   15.5883    6.9298 H   0  0  0  0  0  0  0  0  0  0  0  0
  1  2  1  0  0  0  0
  2  3  1  0  0  0  0
  2  6  1  0  0  0  0
  3  7  1  0  0  0  0
  4 16  1  0  0  0  0
  5  8  1  0  0  0  0
  5  2  1  0  0  0  0
  6 47  1  0  0  0  0
  6  4  1  0  0  0  0
  7  4  2  0  0  0  0
  7 18  1  0  0  0  0
  8  9  1  0  0  0  0
 10 11  1  0  0  0  0
 10 14  1  0  0  0  0
 12 43  1  0  0  0  0
 13 12  1  0  0  0  0
 14 15  1  0  0  0  0
 16 14  2  0  0  0  0
 16 17  1  0  0  0  0
 18 12  2  0  0  0  0
 18 41  1  0  0  0  0
 19 20  1  6  0  0  0
 19  2  1  0  0  0  0
 20 56  1  0  0  0  0
 21 20  1  0  0  0  0
 22 20  1  0  0  0  0
 23 31  1  1  0  0  0
 23 36  1  0  0  0  0
 23 19  1  0  0  0  0
 24 25  1  6  0  0  0
 24  2  1  0  0  0  0
 24 26  1  0  0  0  0
 26 28  1  0  0  0  0
 26 53  1  0  0  0  0
 27 26  1  0  0  0  0
 29 31  1  0  0  0  0
 29 30  1  0  0  0  0
 32 33  1  0  0  0  0
 32 31  2  0  0  0  0
 34 32  1  0  0  0  0
 35 34  1  0  0  0  0
 36  5  1  0  0  0  0
 37 45  1  0  0  0  0
 37 38  1  0  0  0  0
 39 51  1  0  0  0  0
 39 36  2  0  0  0  0
 40 39  1  0  0  0  0
 41 37  2  0  0  0  0
 42 41  1  0  0  0  0
 43 44  1  0  0  0  0
 43 45  2  0  0  0  0
 45 46  1  0  0  0  0
 47 10  2  0  0  0  0
 48 47  1  0  0  0  0
 49 50  1  0  0  0  0
 49  8  1  0  0  0  0
 51 49  2  0  0  0  0
 52 51  1  0  0  0  0
 53  3  1  0  0  0  0
 53 54  1  0  0  0  0
 55 53  1  0  0  0  0
 56 58  1  0  0  0  0
 56 24  1  0  0  0  0
 57 56  1  0  0  0  0
 59 29  2  0  0  0  0
 60 59  1  0  0  0  0
 61 34  2  0  0  0  0
 61 59  1  0  0  0  0
 62 61  1  0  0  0  0
M  END
$$$$
