CSD_code = IWAFER | q = 0 | S = 0 | Stoichiometry = C28H24ClPPd | MND = 7
 OpenBabel04212202053D

 55 57  0  0  1  0  0  0  0  0999 V2000
    7.3160    4.7659    4.0217 Pd  0  0  0  0  0  0  0  0  0  0  0  0
    7.3637    3.9771    6.1685 Cl  0  0  0  0  0 15  0  0  0  0  0  0
    9.5106    5.1568    4.0394 P   0  0  0  0  0  0  0  0  0  0  0  0
    5.2394    4.1990    3.5202 C   0  0  0  0  0  0  0  0  0  0  0  0
    5.5510    5.4440    2.9301 C   0  0  0  0  0  0  0  0  0  0  0  0
    5.0906    6.3948    3.1783 H   0  0  0  0  0  0  0  0  0  0  0  0
    6.6265    5.2521    2.0264 C   0  0  2  0  0  0  0  0  0  0  0  0
    7.0212    6.0065    1.3572 H   0  0  0  0  0  0  0  0  0  0  0  0
    6.7493    3.8192    1.7824 C   0  0  0  0  0  0  0  0  0  0  0  0
    7.5158    3.0810    0.8902 C   0  0  0  0  0  0  0  0  0  0  0  0
    8.1774    3.5760    0.1922 H   0  0  0  0  0  0  0  0  0  0  0  0
    7.4080    1.6982    0.9150 C   0  0  0  0  0  0  0  0  0  0  0  0
    7.9860    1.1090    0.2180 H   0  0  0  0  0  0  0  0  0  0  0  0
    6.5715    1.0561    1.8209 C   0  0  0  0  0  0  0  0  0  0  0  0
    6.5122   -0.0224    1.8132 H   0  0  0  0  0  0  0  0  0  0  0  0
    5.8141    1.7722    2.7366 C   0  0  0  0  0  0  0  0  0  0  0  0
    5.1778    1.2624    3.4456 H   0  0  0  0  0  0  0  0  0  0  0  0
    5.8907    3.1590    2.7185 C   0  0  0  0  0  0  0  0  0  0  0  0
    4.1360    3.9329    4.4970 C   0  0  0  0  0  0  0  0  0  0  0  0
    3.7796    4.8627    4.9384 H   0  0  0  0  0  0  0  0  0  0  0  0
    4.4835    3.2806    5.2989 H   0  0  0  0  0  0  0  0  0  0  0  0
    3.3039    3.4379    3.9915 H   0  0  0  0  0  0  0  0  0  0  0  0
   10.0691    6.5378    5.0681 C   0  0  0  0  0  0  0  0  0  0  0  0
    9.1234    7.1211    5.9064 C   0  0  0  0  0  0  0  0  0  0  0  0
    8.1067    6.7255    5.9100 H   0  0  0  0  0  0  0  0  0  0  0  0
    9.4841    8.1801    6.7197 C   0  0  0  0  0  0  0  0  0  0  0  0
    8.7550    8.6313    7.3759 H   0  0  0  0  0  0  0  0  0  0  0  0
   10.7830    8.6622    6.6897 C   0  0  0  0  0  0  0  0  0  0  0  0
   11.0663    9.4881    7.3254 H   0  0  0  0  0  0  0  0  0  0  0  0
   11.7205    8.0958    5.8394 C   0  0  0  0  0  0  0  0  0  0  0  0
   12.7283    8.4840    5.8113 H   0  0  0  0  0  0  0  0  0  0  0  0
   11.3680    7.0362    5.0237 C   0  0  0  0  0  0  0  0  0  0  0  0
   12.0884    6.6030    4.3426 H   0  0  0  0  0  0  0  0  0  0  0  0
   10.3334    3.6471    4.6234 C   0  0  0  0  0  0  0  0  0  0  0  0
   11.4946    3.6159    5.3825 C   0  0  0  0  0  0  0  0  0  0  0  0
   11.9757    4.5372    5.6775 H   0  0  0  0  0  0  0  0  0  0  0  0
   12.0176    2.3968    5.7805 C   0  0  0  0  0  0  0  0  0  0  0  0
   12.9161    2.3700    6.3796 H   0  0  0  0  0  0  0  0  0  0  0  0
   11.3892    1.2162    5.4222 C   0  0  0  0  0  0  0  0  0  0  0  0
   11.8000    0.2698    5.7413 H   0  0  0  0  0  0  0  0  0  0  0  0
   10.2244    1.2457    4.6697 C   0  0  0  0  0  0  0  0  0  0  0  0
    9.7263    0.3253    4.4037 H   0  0  0  0  0  0  0  0  0  0  0  0
    9.6925    2.4577    4.2759 C   0  0  0  0  0  0  0  0  0  0  0  0
    8.7588    2.4988    3.7078 H   0  0  0  0  0  0  0  0  0  0  0  0
   10.2852    5.4763    2.4243 C   0  0  0  0  0  0  0  0  0  0  0  0
   10.9240    4.4823    1.6924 C   0  0  0  0  0  0  0  0  0  0  0  0
   11.0438    3.4950    2.1165 H   0  0  0  0  0  0  0  0  0  0  0  0
   11.4038    4.7613    0.4242 C   0  0  0  0  0  0  0  0  0  0  0  0
   11.9013    3.9876   -0.1423 H   0  0  0  0  0  0  0  0  0  0  0  0
   11.2447    6.0245   -0.1205 C   0  0  0  0  0  0  0  0  0  0  0  0
   11.6189    6.2370   -1.1109 H   0  0  0  0  0  0  0  0  0  0  0  0
   10.5986    7.0160    0.6030 C   0  0  0  0  0  0  0  0  0  0  0  0
   10.4692    7.9997    0.1757 H   0  0  0  0  0  0  0  0  0  0  0  0
   10.1141    6.7418    1.8668 C   0  0  0  0  0  0  0  0  0  0  0  0
    9.5960    7.5031    2.4378 H   0  0  0  0  0  0  0  0  0  0  0  0
  3 34  1  0  0  0  0
  3 23  1  0  0  0  0
  4 19  1  0  0  0  0
  5  6  1  0  0  0  0
  5  4  2  0  0  0  0
  7  8  1  6  0  0  0
  7  5  1  0  0  0  0
  7  1  1  0  0  0  0
  9  7  1  0  0  0  0
  9 18  1  0  0  0  0
 10 12  1  0  0  0  0
 10  9  2  0  0  0  0
 11 10  1  0  0  0  0
 12 14  2  0  0  0  0
 13 12  1  0  0  0  0
 14 16  1  0  0  0  0
 15 14  1  0  0  0  0
 16 17  1  0  0  0  0
 18 16  2  0  0  0  0
 18  4  1  0  0  0  0
 19 20  1  0  0  0  0
 19 21  1  0  0  0  0
 22 19  1  0  0  0  0
 23 24  1  0  0  0  0
 24 25  1  0  0  0  0
 24 26  2  0  0  0  0
 26 27  1  0  0  0  0
 28 26  1  0  0  0  0
 28 29  1  0  0  0  0
 30 28  2  0  0  0  0
 31 30  1  0  0  0  0
 32 23  2  0  0  0  0
 32 30  1  0  0  0  0
 33 32  1  0  0  0  0
 34 35  1  0  0  0  0
 35 36  1  0  0  0  0
 35 37  2  0  0  0  0
 37 38  1  0  0  0  0
 39 40  1  0  0  0  0
 39 37  1  0  0  0  0
 41 39  2  0  0  0  0
 42 41  1  0  0  0  0
 43 34  2  0  0  0  0
 43 41  1  0  0  0  0
 44 43  1  0  0  0  0
 45  3  1  0  0  0  0
 46 47  1  0  0  0  0
 46 45  2  0  0  0  0
 48 46  1  0  0  0  0
 49 48  1  0  0  0  0
 50 48  2  0  0  0  0
 50 52  1  0  0  0  0
 51 50  1  0  0  0  0
 52 54  2  0  0  0  0
 53 52  1  0  0  0  0
 54 45  1  0  0  0  0
 54 55  1  0  0  0  0
M  END
$$$$
