CSD_code = IWAFOB | q = 0 | S = 0 | Stoichiometry = C27H40ClPPd | MND = 7
 OpenBabel04212202053D

 70 72  0  0  0  0  0  0  0  0999 V2000
    1.5455   16.7693    7.0908 Pd  0  0  0  0  0  0  0  0  0  0  0  0
    0.5250   16.5248    5.0648 Cl  0  0  0  0  0 15  0  0  0  0  0  0
    1.8080   14.5456    7.2770 P   0  0  0  0  0  0  0  0  0  0  0  0
    1.5705   18.9706    7.0893 C   0  0  0  0  0  3  0  0  0  0  0  0
    0.8945   19.6175    6.5423 H   0  0  0  0  0  0  0  0  0  0  0  0
    1.3616   18.4968    8.3982 C   0  0  0  0  0  0  0  0  0  0  0  0
    0.4546   18.6128    8.9836 H   0  0  0  0  0  0  0  0  0  0  0  0
    2.5130   17.7666    8.7863 C   0  0  0  0  0  3  0  0  0  0  0  0
    2.6930   17.3874    9.7843 H   0  0  0  0  0  0  0  0  0  0  0  0
    3.5839   18.1056    7.8578 C   0  0  0  0  0  0  0  0  0  0  0  0
    4.9492   17.8546    7.8619 C   0  0  0  0  0  0  0  0  0  0  0  0
    5.4094   17.3106    8.6762 H   0  0  0  0  0  0  0  0  0  0  0  0
    5.7127   18.3270    6.8054 C   0  0  0  0  0  0  0  0  0  0  0  0
    6.7788   18.1514    6.8007 H   0  0  0  0  0  0  0  0  0  0  0  0
    5.1316   19.0236    5.7522 C   0  0  0  0  0  0  0  0  0  0  0  0
    5.7544   19.3745    4.9424 H   0  0  0  0  0  0  0  0  0  0  0  0
    3.7700   19.2841    5.7251 C   0  0  0  0  0  0  0  0  0  0  0  0
    3.3263   19.8270    4.9025 H   0  0  0  0  0  0  0  0  0  0  0  0
    2.9895   18.8397    6.7845 C   0  0  0  0  0  0  0  0  0  0  0  0
    2.5527   14.0013    8.8995 C   0  0  0  0  0  0  0  0  0  0  0  0
    3.4466   14.6416    8.9714 H   0  0  0  0  0  0  0  0  0  0  0  0
    1.6141   14.3794   10.0455 C   0  0  0  0  0  0  0  0  0  0  0  0
    0.7589   13.7009   10.0543 H   0  0  0  0  0  0  0  0  0  0  0  0
    1.2372   15.3987    9.8952 H   0  0  0  0  0  0  0  0  0  0  0  0
    2.3444   14.2594   11.3796 C   0  0  0  0  0  0  0  0  0  0  0  0
    3.1921   14.9485   11.3977 H   0  0  0  0  0  0  0  0  0  0  0  0
    1.6752   14.5302   12.1989 H   0  0  0  0  0  0  0  0  0  0  0  0
    2.8463   12.8301   11.5682 C   0  0  0  0  0  0  0  0  0  0  0  0
    3.3994   12.7495   12.5059 H   0  0  0  0  0  0  0  0  0  0  0  0
    1.9911   12.1527   11.6269 H   0  0  0  0  0  0  0  0  0  0  0  0
    3.7406   12.4138   10.4034 C   0  0  0  0  0  0  0  0  0  0  0  0
    4.0642   11.3795   10.5372 H   0  0  0  0  0  0  0  0  0  0  0  0
    4.6336   13.0433   10.3902 H   0  0  0  0  0  0  0  0  0  0  0  0
    3.0053   12.5527    9.0691 C   0  0  0  0  0  0  0  0  0  0  0  0
    2.1466   11.8821    9.0626 H   0  0  0  0  0  0  0  0  0  0  0  0
    3.6738   12.2514    8.2615 H   0  0  0  0  0  0  0  0  0  0  0  0
    0.1788   13.7239    6.9581 C   0  0  0  0  0  0  0  0  0  0  0  0
    0.0441   13.8920    5.8806 H   0  0  0  0  0  0  0  0  0  0  0  0
    0.0488   12.2331    7.2492 C   0  0  0  0  0  0  0  0  0  0  0  0
    0.8627   11.6755    6.7805 H   0  0  0  0  0  0  0  0  0  0  0  0
    0.0876   12.0567    8.3259 H   0  0  0  0  0  0  0  0  0  0  0  0
   -1.2994   11.7432    6.7209 C   0  0  0  0  0  0  0  0  0  0  0  0
   -1.3353   11.8842    5.6388 H   0  0  0  0  0  0  0  0  0  0  0  0
   -1.4122   10.6761    6.9250 H   0  0  0  0  0  0  0  0  0  0  0  0
   -2.4426   12.5197    7.3704 C   0  0  0  0  0  0  0  0  0  0  0  0
   -2.4477   12.3218    8.4455 H   0  0  0  0  0  0  0  0  0  0  0  0
   -3.3967   12.1774    6.9657 H   0  0  0  0  0  0  0  0  0  0  0  0
   -2.2878   14.0208    7.1341 C   0  0  0  0  0  0  0  0  0  0  0  0
   -2.3496   14.2328    6.0653 H   0  0  0  0  0  0  0  0  0  0  0  0
   -3.0972   14.5589    7.6312 H   0  0  0  0  0  0  0  0  0  0  0  0
   -0.9394   14.5021    7.6612 C   0  0  0  0  0  0  0  0  0  0  0  0
   -0.8991   14.3439    8.7407 H   0  0  0  0  0  0  0  0  0  0  0  0
   -0.8174   15.5829    7.4642 H   0  0  0  0  0  0  0  0  0  0  0  0
    3.0352   13.9563    6.0082 C   0  0  0  0  0  0  0  0  0  0  0  0
    3.5523   13.0647    6.3820 H   0  0  0  0  0  0  0  0  0  0  0  0
    4.0415   15.1065    5.8660 C   0  0  0  0  0  0  0  0  0  0  0  0
    3.4952   16.0126    5.5442 H   0  0  0  0  0  0  0  0  0  0  0  0
    4.5099   15.3151    6.8343 H   0  0  0  0  0  0  0  0  0  0  0  0
    5.1136   14.7870    4.8314 C   0  0  0  0  0  0  0  0  0  0  0  0
    5.7950   15.6349    4.7407 H   0  0  0  0  0  0  0  0  0  0  0  0
    5.6947   13.9206    5.1593 H   0  0  0  0  0  0  0  0  0  0  0  0
    4.4629   14.4855    3.4862 C   0  0  0  0  0  0  0  0  0  0  0  0
    3.9160   15.3668    3.1466 H   0  0  0  0  0  0  0  0  0  0  0  0
    5.2273   14.2516    2.7427 H   0  0  0  0  0  0  0  0  0  0  0  0
    3.4931   13.3173    3.6263 C   0  0  0  0  0  0  0  0  0  0  0  0
    4.0427   12.4244    3.9380 H   0  0  0  0  0  0  0  0  0  0  0  0
    3.0265   13.1035    2.6632 H   0  0  0  0  0  0  0  0  0  0  0  0
    2.4075   13.6364    4.6528 C   0  0  0  0  0  0  0  0  0  0  0  0
    1.7351   12.7806    4.7409 H   0  0  0  0  0  0  0  0  0  0  0  0
    1.8300   14.4994    4.3144 H   0  0  0  0  0  0  0  0  0  0  0  0
  1  6  1  0  0  0  0
  3 20  1  0  0  0  0
  4  6  1  0  0  0  0
  5  4  1  0  0  0  0
  6  8  1  0  0  0  0
  6  7  1  0  0  0  0
  8  9  1  0  0  0  0
 10 11  1  0  0  0  0
 10  8  1  0  0  0  0
 11 12  1  0  0  0  0
 13 11  2  0  0  0  0
 14 13  1  0  0  0  0
 15 13  1  0  0  0  0
 16 15  1  0  0  0  0
 17 15  2  0  0  0  0
 17 19  1  0  0  0  0
 18 17  1  0  0  0  0
 19  4  1  0  0  0  0
 19 10  2  0  0  0  0
 20 21  1  0  0  0  0
 20 34  1  0  0  0  0
 20 22  1  0  0  0  0
 22 23  1  0  0  0  0
 22 25  1  0  0  0  0
 24 22  1  0  0  0  0
 25 26  1  0  0  0  0
 25 28  1  0  0  0  0
 25 27  1  0  0  0  0
 28 30  1  0  0  0  0
 28 29  1  0  0  0  0
 31 32  1  0  0  0  0
 31 28  1  0  0  0  0
 33 31  1  0  0  0  0
 34 31  1  0  0  0  0
 35 34  1  0  0  0  0
 36 34  1  0  0  0  0
 37 39  1  0  0  0  0
 37  3  1  0  0  0  0
 37 51  1  0  0  0  0
 38 37  1  0  0  0  0
 39 41  1  0  0  0  0
 40 39  1  0  0  0  0
 42 44  1  0  0  0  0
 42 39  1  0  0  0  0
 42 45  1  0  0  0  0
 43 42  1  0  0  0  0
 45 46  1  0  0  0  0
 47 45  1  0  0  0  0
 48 45  1  0  0  0  0
 48 50  1  0  0  0  0
 48 51  1  0  0  0  0
 49 48  1  0  0  0  0
 51 52  1  0  0  0  0
 53 51  1  0  0  0  0
 54 55  1  0  0  0  0
 54  3  1  0  0  0  0
 56 54  1  0  0  0  0
 56 58  1  0  0  0  0
 57 56  1  0  0  0  0
 59 61  1  0  0  0  0
 59 56  1  0  0  0  0
 60 59  1  0  0  0  0
 62 65  1  0  0  0  0
 62 59  1  0  0  0  0
 63 62  1  0  0  0  0
 64 62  1  0  0  0  0
 65 66  1  0  0  0  0
 65 68  1  0  0  0  0
 67 65  1  0  0  0  0
 68 69  1  0  0  0  0
 68 54  1  0  0  0  0
 70 68  1  0  0  0  0
M  END
$$$$
