CSD_code = IWALID | q = 0 | S = 0 | Stoichiometry = C16H8Cl2N4O4Pd | MND = 4
 OpenBabel04212202053D

 35 39  0  0  0  0  0  0  0  0999 V2000
    7.7776    5.1589   -1.9085 Pd  0  0  0  0  0  0  0  0  0  0  0  0
    7.1627    6.6739   -3.3896 Cl  0  0  0  0  0  0  0  0  0  0  0  0
    9.8873    5.7520   -2.1678 Cl  0  0  0  0  0  0  0  0  0  0  0  0
    5.9673   -1.4024    4.0983 O   0  0  0  0  0  0  0  0  0  0  0  0
    5.9351   -2.1757    4.6856 H   0  0  0  0  0  0  0  0  0  0  0  0
    3.8859   -2.0132    3.5546 O   0  0  0  0  0  0  0  0  0  0  0  0
    1.8810    0.1668    3.7074 O   0  0  0  0  0  0  0  0  0  0  0  0
    1.6671   -0.9525    1.7775 O   0  0  0  0  0  0  0  0  0  0  0  0
    0.8648   -1.3211    2.1834 H   0  0  0  0  0  0  0  0  0  0  0  0
    5.8832    4.5236   -1.5721 N   0  0  0  0  0  0  0  0  0  0  0  0
    8.2037    3.7333   -0.5375 N   0  0  0  0  0  0  0  0  0  0  0  0
    3.5167    1.3594    1.1608 N   0  0  0  0  0  0  0  0  0  0  0  0
    5.9495    0.4409    2.1340 N   0  0  0  0  0  0  0  0  0  0  0  0
    4.7462    4.9492   -2.1104 C   0  0  0  0  0  0  0  0  0  0  0  0
    4.8409    5.7460   -2.8404 H   0  0  0  0  0  0  0  0  0  0  0  0
    3.5095    4.4129   -1.7644 C   0  0  0  0  0  0  0  0  0  0  0  0
    2.6171    4.7957   -2.2325 H   0  0  0  0  0  0  0  0  0  0  0  0
    3.4387    3.4001   -0.8271 C   0  0  0  0  0  0  0  0  0  0  0  0
    2.5040    2.9556   -0.5255 H   0  0  0  0  0  0  0  0  0  0  0  0
    4.6268    2.9392   -0.2521 C   0  0  0  0  0  0  0  0  0  0  0  0
    5.8382    3.5311   -0.6550 C   0  0  0  0  0  0  0  0  0  0  0  0
    7.0906    3.1027   -0.0995 C   0  0  0  0  0  0  0  0  0  0  0  0
    7.1425    2.0694    0.8531 C   0  0  0  0  0  0  0  0  0  0  0  0
    8.3897    1.6889    1.3550 C   0  0  0  0  0  0  0  0  0  0  0  0
    8.4412    0.8973    2.0853 H   0  0  0  0  0  0  0  0  0  0  0  0
    9.5138    2.3474    0.8930 C   0  0  0  0  0  0  0  0  0  0  0  0
   10.4950    2.0852    1.2544 H   0  0  0  0  0  0  0  0  0  0  0  0
    9.3821    3.3620   -0.0497 C   0  0  0  0  0  0  0  0  0  0  0  0
   10.2412    3.9015   -0.4343 H   0  0  0  0  0  0  0  0  0  0  0  0
    5.9054    1.4503    1.2656 C   0  0  0  0  0  0  0  0  0  0  0  0
    4.6678    1.8925    0.7387 C   0  0  0  0  0  0  0  0  0  0  0  0
    3.5717    0.3932    2.0500 C   0  0  0  0  0  0  0  0  0  0  0  0
    4.8113   -0.0964    2.5182 C   0  0  0  0  0  0  0  0  0  0  0  0
    4.8268   -1.2701    3.4382 C   0  0  0  0  0  0  0  0  0  0  0  0
    2.2860   -0.1419    2.6222 C   0  0  0  0  0  0  0  0  0  0  0  0
  1 10  1  0  0  0  0
  1 11  1  0  0  0  0
  2  1  1  0  0  0  0
  3  1  1  0  0  0  0
  4  5  1  0  0  0  0
  8  9  1  0  0  0  0
  8 35  1  0  0  0  0
 10 21  1  0  0  0  0
 11 22  1  0  0  0  0
 11 28  1  0  0  0  0
 12 32  1  0  0  0  0
 13 33  1  0  0  0  0
 14 16  2  0  0  0  0
 14 10  1  0  0  0  0
 15 14  1  0  0  0  0
 16 18  1  0  0  0  0
 17 16  1  0  0  0  0
 18 19  1  0  0  0  0
 18 20  2  0  0  0  0
 20 31  1  0  0  0  0
 21 20  1  0  0  0  0
 21 22  2  0  0  0  0
 22 23  1  0  0  0  0
 23 30  1  0  0  0  0
 23 24  2  0  0  0  0
 24 25  1  0  0  0  0
 26 27  1  0  0  0  0
 26 24  1  0  0  0  0
 28 26  2  0  0  0  0
 29 28  1  0  0  0  0
 30 13  2  0  0  0  0
 31 12  2  0  0  0  0
 31 30  1  0  0  0  0
 32 33  2  0  0  0  0
 32 35  1  0  0  0  0
 33 34  1  0  0  0  0
 34  6  2  0  0  0  0
 34  4  1  0  0  0  0
 35  7  2  0  0  0  0
M  END
$$$$
