CSD_code = IWASUW | q = 1 | S = 0 | Stoichiometry = C16H28AuCl2N4(1+) | MND = 4
 OpenBabel04212202053D

 51 52  0  0  1  0  0  0  0  0999 V2000
   11.9566    5.6774   10.2517 Au  0  0  0  0  0  0  0  0  0  0  0  0
   12.1359    3.4881    9.5888 Cl  0  0  0  0  0  0  0  0  0  0  0  0
   11.7811    7.8606   10.9193 Cl  0  0  0  0  0  0  0  0  0  0  0  0
    9.1884    6.2226    9.1806 N   0  0  0  0  0  0  0  0  0  0  0  0
    9.1309    4.8463   10.8381 N   0  0  0  0  0  0  0  0  0  0  0  0
   14.8081    6.5078    9.7239 N   0  0  0  0  0  0  0  0  0  0  0  0
   14.6861    5.1388   11.3839 N   0  0  0  0  0  0  0  0  0  0  0  0
    9.9533    5.5755   10.0700 C   0  0  2  0  0  3  0  0  0  0  0  0
    7.8808    5.8967    9.3838 C   0  0  0  0  0  0  0  0  0  0  0  0
    7.0889    6.2975    8.7858 H   0  0  0  0  0  0  0  0  0  0  0  0
    7.8437    5.0319   10.4298 C   0  0  0  0  0  0  0  0  0  0  0  0
    7.0138    4.5475   10.9013 H   0  0  0  0  0  0  0  0  0  0  0  0
    9.6710    7.0844    8.1276 C   0  0  0  0  0  0  0  0  0  0  0  0
   10.4339    7.7457    8.5459 H   0  0  0  0  0  0  0  0  0  0  0  0
    8.8332    7.6909    7.7786 H   0  0  0  0  0  0  0  0  0  0  0  0
   10.2494    6.2719    6.9659 C   0  0  0  0  0  0  0  0  0  0  0  0
   10.7237    6.9643    6.2695 H   0  0  0  0  0  0  0  0  0  0  0  0
   11.0214    5.6004    7.3501 H   0  0  0  0  0  0  0  0  0  0  0  0
    9.1933    5.4533    6.2260 C   0  0  0  0  0  0  0  0  0  0  0  0
    8.4271    6.1230    5.8302 H   0  0  0  0  0  0  0  0  0  0  0  0
    8.7108    4.7591    6.9183 H   0  0  0  0  0  0  0  0  0  0  0  0
    9.8156    4.6637    5.0812 C   0  0  0  0  0  0  0  0  0  0  0  0
   10.5681    3.9742    5.4571 H   0  0  0  0  0  0  0  0  0  0  0  0
   10.2881    5.3330    4.3666 H   0  0  0  0  0  0  0  0  0  0  0  0
    9.0553    4.0888    4.5605 H   0  0  0  0  0  0  0  0  0  0  0  0
    9.5366    3.9981   11.9268 C   0  0  0  0  0  0  0  0  0  0  0  0
    9.9891    4.5911   12.7231 H   0  0  0  0  0  0  0  0  0  0  0  0
   10.2608    3.2617   11.5766 H   0  0  0  0  0  0  0  0  0  0  0  0
    8.6651    3.4813   12.3222 H   0  0  0  0  0  0  0  0  0  0  0  0
   13.9565    5.7830   10.4617 C   0  0  0  0  0  0  0  0  0  0  0  0
   16.0787    6.3161   10.1774 C   0  0  0  0  0  0  0  0  0  0  0  0
   16.9261    6.7967    9.7340 H   0  0  0  0  0  0  0  0  0  0  0  0
   16.0023    5.4562   11.2252 C   0  0  0  0  0  0  0  0  0  0  0  0
   16.7713    5.0575   11.8539 H   0  0  0  0  0  0  0  0  0  0  0  0
   14.4500    7.3206    8.5855 C   0  0  0  0  0  0  0  0  0  0  0  0
   15.2908    7.9814    8.3667 H   0  0  0  0  0  0  0  0  0  0  0  0
   13.5837    7.9303    8.8549 H   0  0  0  0  0  0  0  0  0  0  0  0
   14.1316    6.4547    7.3640 C   0  0  0  0  0  0  0  0  0  0  0  0
   13.3376    5.7502    7.6248 H   0  0  0  0  0  0  0  0  0  0  0  0
   13.7556    7.1052    6.5736 H   0  0  0  0  0  0  0  0  0  0  0  0
   15.3429    5.6789    6.8503 C   0  0  0  0  0  0  0  0  0  0  0  0
   15.7341    5.0365    7.6429 H   0  0  0  0  0  0  0  0  0  0  0  0
   16.1293    6.3807    6.5655 H   0  0  0  0  0  0  0  0  0  0  0  0
   14.9722    4.8177    5.6495 C   0  0  0  0  0  0  0  0  0  0  0  0
   14.5919    5.4339    4.8385 H   0  0  0  0  0  0  0  0  0  0  0  0
   14.2070    4.0938    5.9206 H   0  0  0  0  0  0  0  0  0  0  0  0
   15.8420    4.2762    5.2889 H   0  0  0  0  0  0  0  0  0  0  0  0
   14.1674    4.2491   12.3881 C   0  0  0  0  0  0  0  0  0  0  0  0
   14.9948    3.8216   12.9498 H   0  0  0  0  0  0  0  0  0  0  0  0
   13.6010    3.4446   11.9176 H   0  0  0  0  0  0  0  0  0  0  0  0
   13.5141    4.7897   13.0747 H   0  0  0  0  0  0  0  0  0  0  0  0
  1 30  2  0  0  0  0
  1  3  1  0  0  0  0
  2  1  1  0  0  0  0
  4  9  1  0  0  0  0
  4  8  1  0  0  0  0
  5 26  1  0  0  0  0
  6 31  1  0  0  0  0
  6 30  1  0  0  0  0
  7 48  1  0  0  0  0
  8  1  1  1  0  0  0
  8  5  1  0  0  0  0
  9 11  2  0  0  0  0
 10  9  1  0  0  0  0
 11  5  1  0  0  0  0
 11 12  1  0  0  0  0
 13 14  1  0  0  0  0
 13  4  1  0  0  0  0
 15 13  1  0  0  0  0
 16 18  1  0  0  0  0
 16 13  1  0  0  0  0
 17 16  1  0  0  0  0
 19 21  1  0  0  0  0
 19 16  1  0  0  0  0
 20 19  1  0  0  0  0
 22 23  1  0  0  0  0
 22 19  1  0  0  0  0
 24 22  1  0  0  0  0
 25 22  1  0  0  0  0
 26 29  1  0  0  0  0
 26 27  1  0  0  0  0
 28 26  1  0  0  0  0
 30  7  1  0  0  0  0
 31 33  2  0  0  0  0
 32 31  1  0  0  0  0
 33  7  1  0  0  0  0
 33 34  1  0  0  0  0
 35 37  1  0  0  0  0
 35  6  1  0  0  0  0
 36 35  1  0  0  0  0
 38 39  1  0  0  0  0
 38 35  1  0  0  0  0
 40 38  1  0  0  0  0
 41 38  1  0  0  0  0
 41 42  1  0  0  0  0
 43 41  1  0  0  0  0
 44 46  1  0  0  0  0
 44 41  1  0  0  0  0
 45 44  1  0  0  0  0
 47 44  1  0  0  0  0
 48 49  1  0  0  0  0
 48 51  1  0  0  0  0
 50 48  1  0  0  0  0
M  END
$$$$
