CSD_code = IWECIX | q = 0 | S = 0 | Stoichiometry = C35H30ClNOPRh | MND = 5
 OpenBabel04212202053D

 70 78  0  0  1  0  0  0  0  0999 V2000
   10.6943    3.0484   11.5973 Rh  0  0  0  0  0  0  0  0  0  0  0  0
   10.1178    3.6465    9.3836 Cl  0  0  0  0  0  0  0  0  0  0  0  0
   12.8568    3.5280   11.1002 P   0  0  0  0  0  4  0  0  0  0  0  0
    8.7336    2.5768   11.7941 N   0  0  0  0  0  0  0  0  0  0  0  0
   12.0749    0.6040   11.8025 O   0  0  0  0  0  0  0  0  0  0  0  0
   11.0541    3.0675   13.6543 C   0  0  2  0  0  0  0  0  0  0  0  0
   11.9094    2.4453   13.9463 H   0  0  0  0  0  0  0  0  0  0  0  0
    9.8559    2.7628   14.5305 C   0  0  2  0  0  0  0  0  0  0  0  0
    9.3704    1.7980   14.5302 H   0  0  0  0  0  0  0  0  0  0  0  0
    9.1024    4.0517   14.7295 C   0  0  1  0  0  0  0  0  0  0  0  0
    8.0309    4.0951   14.8506 H   0  0  0  0  0  0  0  0  0  0  0  0
   10.0264    3.5535   15.8081 C   0  0  2  0  0  0  0  0  0  0  0  0
    9.6716    3.2011   16.7633 H   0  0  0  0  0  0  0  0  0  0  0  0
   11.3224    4.3236   15.6730 C   0  0  0  0  0  0  0  0  0  0  0  0
   12.1925    3.7443   15.9832 H   0  0  0  0  0  0  0  0  0  0  0  0
   11.3112    5.2698   16.2163 H   0  0  0  0  0  0  0  0  0  0  0  0
   11.2588    4.5114   14.1514 C   0  0  2  0  0  0  0  0  0  0  0  0
   12.0871    5.0699   13.7172 H   0  0  0  0  0  0  0  0  0  0  0  0
    9.8624    5.1198   13.9706 C   0  0  0  0  0  0  0  0  0  0  0  0
    9.7674    6.1088   14.4224 H   0  0  0  0  0  0  0  0  0  0  0  0
    9.5730    5.1806   12.9146 H   0  0  0  0  0  0  0  0  0  0  0  0
    7.6814    3.3585   11.6989 C   0  0  0  0  0  0  0  0  0  0  0  0
    7.8532    4.4249   11.6284 H   0  0  0  0  0  0  0  0  0  0  0  0
    6.3689    2.8662   11.6794 C   0  0  0  0  0  0  0  0  0  0  0  0
    5.5495    3.5639   11.6045 H   0  0  0  0  0  0  0  0  0  0  0  0
    6.1445    1.5169   11.7569 C   0  0  0  0  0  0  0  0  0  0  0  0
    5.1439    1.1108   11.7524 H   0  0  0  0  0  0  0  0  0  0  0  0
    7.2531    0.6475   11.8237 C   0  0  0  0  0  0  0  0  0  0  0  0
    7.1655   -0.7605   11.8633 C   0  0  0  0  0  0  0  0  0  0  0  0
    6.1873   -1.2184   11.8631 H   0  0  0  0  0  0  0  0  0  0  0  0
    8.2988   -1.5319   11.8880 C   0  0  0  0  0  0  0  0  0  0  0  0
    8.2159   -2.6082   11.9128 H   0  0  0  0  0  0  0  0  0  0  0  0
    9.5716   -0.9465   11.8705 C   0  0  0  0  0  0  0  0  0  0  0  0
   10.4606   -1.5587   11.8724 H   0  0  0  0  0  0  0  0  0  0  0  0
    9.6957    0.4256   11.8432 C   0  0  0  0  0  0  0  0  0  0  0  0
    8.5381    1.2363   11.8277 C   0  0  1  0  0  3  0  0  0  0  0  0
   13.7075    2.4062    9.9432 C   0  0  0  0  0  0  0  0  0  0  0  0
   12.9537    1.6823    9.0267 C   0  0  0  0  0  0  0  0  0  0  0  0
   11.8772    1.7808    9.0267 H   0  0  0  0  0  0  0  0  0  0  0  0
   13.5772    0.8461    8.1187 C   0  0  0  0  0  0  0  0  0  0  0  0
   12.9847    0.2846    7.4111 H   0  0  0  0  0  0  0  0  0  0  0  0
   14.9568    0.7269    8.1168 C   0  0  0  0  0  0  0  0  0  0  0  0
   15.4440    0.0716    7.4093 H   0  0  0  0  0  0  0  0  0  0  0  0
   15.7130    1.4484    9.0258 C   0  0  0  0  0  0  0  0  0  0  0  0
   16.7900    1.3581    9.0264 H   0  0  0  0  0  0  0  0  0  0  0  0
   15.0946    2.2849    9.9371 C   0  0  0  0  0  0  0  0  0  0  0  0
   15.6912    2.8389   10.6491 H   0  0  0  0  0  0  0  0  0  0  0  0
   14.0896    3.6613   12.4377 C   0  0  0  0  0  0  0  0  0  0  0  0
   14.4422    2.4944   13.1122 C   0  0  0  0  0  0  0  0  0  0  0  0
   14.0228    1.5532   12.7863 H   0  0  0  0  0  0  0  0  0  0  0  0
   15.3217    2.5467   14.1768 C   0  0  0  0  0  0  0  0  0  0  0  0
   15.5938    1.6390   14.6957 H   0  0  0  0  0  0  0  0  0  0  0  0
   15.8522    3.7619   14.5819 C   0  0  0  0  0  0  0  0  0  0  0  0
   16.5376    3.8026   15.4159 H   0  0  0  0  0  0  0  0  0  0  0  0
   15.5027    4.9242   13.9161 C   0  0  0  0  0  0  0  0  0  0  0  0
   15.9157    5.8724   14.2289 H   0  0  0  0  0  0  0  0  0  0  0  0
   14.6215    4.8775   12.8493 C   0  0  0  0  0  0  0  0  0  0  0  0
   14.3513    5.7886   12.3326 H   0  0  0  0  0  0  0  0  0  0  0  0
   13.0034    5.1491   10.2778 C   0  0  0  0  0  0  0  0  0  0  0  0
   12.0597    6.1135   10.6156 C   0  0  0  0  0  0  0  0  0  0  0  0
   11.2762    5.8580   11.3230 H   0  0  0  0  0  0  0  0  0  0  0  0
   12.1059    7.3700   10.0429 C   0  0  0  0  0  0  0  0  0  0  0  0
   11.3674    8.1137   10.3058 H   0  0  0  0  0  0  0  0  0  0  0  0
   13.0961    7.6695    9.1211 C   0  0  0  0  0  0  0  0  0  0  0  0
   13.1310    8.6479    8.6645 H   0  0  0  0  0  0  0  0  0  0  0  0
   14.0341    6.7107    8.7756 C   0  0  0  0  0  0  0  0  0  0  0  0
   14.7997    6.9424    8.0491 H   0  0  0  0  0  0  0  0  0  0  0  0
   13.9922    5.4524    9.3503 C   0  0  0  0  0  0  0  0  0  0  0  0
   14.7194    4.7037    9.0701 H   0  0  0  0  0  0  0  0  0  0  0  0
   10.9938    1.1338   11.7961 C   0  0  0  0  0  0  0  0  0  0  0  0
  1  4  1  0  0  0  0
  1 70  1  0  0  0  0
  1  6  1  0  0  0  0
  2  1  1  0  0  0  0
  3  1  1  0  0  0  0
  3 48  1  0  0  0  0
  4 36  1  0  0  0  0
  6  7  1  1  0  0  0
  6 17  1  0  0  0  0
  6  8  1  0  0  0  0
  8  9  1  6  0  0  0
  8 10  1  0  0  0  0
  8 12  1  0  0  0  0
 10 11  1  1  0  0  0
 10 12  1  0  0  0  0
 12 13  1  1  0  0  0
 14 12  1  0  0  0  0
 14 15  1  0  0  0  0
 14 16  1  0  0  0  0
 17 18  1  6  0  0  0
 17 14  1  0  0  0  0
 19 17  1  0  0  0  0
 19 20  1  0  0  0  0
 19 10  1  0  0  0  0
 21 19  1  0  0  0  0
 22  4  1  0  0  0  0
 23 22  1  0  0  0  0
 24 22  2  0  0  0  0
 24 26  1  0  0  0  0
 25 24  1  0  0  0  0
 26 28  2  0  0  0  0
 27 26  1  0  0  0  0
 28 29  1  0  0  0  0
 29 31  2  0  0  0  0
 30 29  1  0  0  0  0
 31 32  1  0  0  0  0
 33 34  1  0  0  0  0
 33 31  1  0  0  0  0
 35 33  2  0  0  0  0
 36 28  1  6  0  0  0
 36 35  1  0  0  0  0
 37  3  1  0  0  0  0
 38 37  2  0  0  0  0
 39 38  1  0  0  0  0
 40 38  1  0  0  0  0
 41 40  1  0  0  0  0
 42 40  2  0  0  0  0
 42 44  1  0  0  0  0
 43 42  1  0  0  0  0
 44 45  1  0  0  0  0
 44 46  2  0  0  0  0
 46 37  1  0  0  0  0
 46 47  1  0  0  0  0
 48 57  2  0  0  0  0
 48 49  1  0  0  0  0
 49 51  2  0  0  0  0
 50 49  1  0  0  0  0
 51 53  1  0  0  0  0
 51 52  1  0  0  0  0
 53 54  1  0  0  0  0
 55 56  1  0  0  0  0
 55 53  2  0  0  0  0
 57 55  1  0  0  0  0
 58 57  1  0  0  0  0
 59 60  1  0  0  0  0
 59  3  1  0  0  0  0
 60 61  1  0  0  0  0
 62 63  1  0  0  0  0
 62 60  2  0  0  0  0
 64 62  1  0  0  0  0
 65 64  1  0  0  0  0
 66 64  2  0  0  0  0
 66 68  1  0  0  0  0
 67 66  1  0  0  0  0
 68 59  2  0  0  0  0
 69 68  1  0  0  0  0
 70  5  2  0  0  0  0
 70 35  1  0  0  0  0
M  END
$$$$
