CSD_code = IWIDIC | q = 0 | S = 0 | Stoichiometry = C26H31ClIrO2P | MND = 4
 OpenBabel04212202053D

 62 65  0  0  0  0  0  0  0  0999 V2000
    2.1542    2.9349    4.1415 Ir  0  0  0  0  0  0  0  0  0  0  0  0
    1.5808    2.0883    2.0887 Cl  0  0  0  0  0  0  0  0  0  0  0  0
    4.1363    3.3614    2.9570 P   0  0  0  0  0  4  0  0  0  0  0  0
    5.4400    4.3958    3.8107 C   0  0  0  0  0  0  0  0  0  0  0  0
    4.8389    5.2125    4.2369 H   0  0  0  0  0  0  0  0  0  0  0  0
    6.0778    3.6606    4.9875 C   0  0  0  0  0  0  0  0  0  0  0  0
    5.3026    3.1857    5.5953 H   0  0  0  0  0  0  0  0  0  0  0  0
    6.7535    2.8822    4.6295 H   0  0  0  0  0  0  0  0  0  0  0  0
    6.8759    4.6507    5.8323 C   0  0  0  0  0  0  0  0  0  0  0  0
    6.1990    5.4053    6.2387 H   0  0  0  0  0  0  0  0  0  0  0  0
    7.3413    4.1317    6.6726 H   0  0  0  0  0  0  0  0  0  0  0  0
    7.9470    5.3270    4.9804 C   0  0  0  0  0  0  0  0  0  0  0  0
    8.6586    4.5752    4.6301 H   0  0  0  0  0  0  0  0  0  0  0  0
    8.4986    6.0511    5.5829 H   0  0  0  0  0  0  0  0  0  0  0  0
    7.3192    6.0262    3.7775 C   0  0  0  0  0  0  0  0  0  0  0  0
    6.6594    6.8226    4.1297 H   0  0  0  0  0  0  0  0  0  0  0  0
    8.0988    6.4837    3.1646 H   0  0  0  0  0  0  0  0  0  0  0  0
    6.5160    5.0349    2.9355 C   0  0  0  0  0  0  0  0  0  0  0  0
    6.0597    5.5517    2.0873 H   0  0  0  0  0  0  0  0  0  0  0  0
    7.1936    4.2778    2.5410 H   0  0  0  0  0  0  0  0  0  0  0  0
    4.8917    1.7574    2.3941 C   0  0  0  0  0  0  0  0  0  0  0  0
    4.2317    1.4489    1.5712 H   0  0  0  0  0  0  0  0  0  0  0  0
    6.3376    1.7681    1.8993 C   0  0  0  0  0  0  0  0  0  0  0  0
    7.0138    1.9719    2.7314 H   0  0  0  0  0  0  0  0  0  0  0  0
    6.4971    2.5366    1.1405 H   0  0  0  0  0  0  0  0  0  0  0  0
    6.6830    0.3940    1.3248 C   0  0  0  0  0  0  0  0  0  0  0  0
    6.0255    0.1743    0.4803 H   0  0  0  0  0  0  0  0  0  0  0  0
    7.7111    0.3978    0.9552 H   0  0  0  0  0  0  0  0  0  0  0  0
    6.5168   -0.6851    2.3908 C   0  0  0  0  0  0  0  0  0  0  0  0
    7.2243   -0.5023    3.2037 H   0  0  0  0  0  0  0  0  0  0  0  0
    6.7443   -1.6647    1.9660 H   0  0  0  0  0  0  0  0  0  0  0  0
    5.0949   -0.6754    2.9456 C   0  0  0  0  0  0  0  0  0  0  0  0
    4.3924   -0.9348    2.1505 H   0  0  0  0  0  0  0  0  0  0  0  0
    4.9981   -1.4242    3.7341 H   0  0  0  0  0  0  0  0  0  0  0  0
    4.7425    0.7035    3.4963 C   0  0  0  0  0  0  0  0  0  0  0  0
    5.3972    0.9380    4.3380 H   0  0  0  0  0  0  0  0  0  0  0  0
    3.7098    0.6997    3.8655 H   0  0  0  0  0  0  0  0  0  0  0  0
    3.8501    4.3262    1.4294 C   0  0  0  0  0  0  0  0  0  0  0  0
    3.1687    5.5465    1.5303 C   0  0  0  0  0  0  0  0  0  0  0  0
    2.9375    6.3045    0.3897 C   0  0  0  0  0  0  0  0  0  0  0  0
    2.4122    7.2442    0.4860 H   0  0  0  0  0  0  0  0  0  0  0  0
    3.3518    5.8606   -0.8527 C   0  0  0  0  0  0  0  0  0  0  0  0
    3.1623    6.4577   -1.7321 H   0  0  0  0  0  0  0  0  0  0  0  0
    3.9880    4.6372   -0.9612 C   0  0  0  0  0  0  0  0  0  0  0  0
    4.2921    4.2668   -1.9290 H   0  0  0  0  0  0  0  0  0  0  0  0
    4.2321    3.8779    0.1692 C   0  0  0  0  0  0  0  0  0  0  0  0
    4.7095    2.9191    0.0511 H   0  0  0  0  0  0  0  0  0  0  0  0
    2.6284    6.0400    2.8173 C   0  0  0  0  0  0  0  0  0  0  0  0
    1.3709    5.6081    3.2423 C   0  0  0  0  0  0  0  0  0  0  0  0
    0.7849    4.9658    2.5997 H   0  0  0  0  0  0  0  0  0  0  0  0
    0.8283    6.1038    4.4210 C   0  0  0  0  0  0  0  0  0  0  0  0
   -0.1545    5.7841    4.7329 H   0  0  0  0  0  0  0  0  0  0  0  0
    1.5359    7.0175    5.1828 C   0  0  0  0  0  0  0  0  0  0  0  0
    1.1169    7.3946    6.1033 H   0  0  0  0  0  0  0  0  0  0  0  0
    2.7728    7.4666    4.7507 C   0  0  0  0  0  0  0  0  0  0  0  0
    3.3155    8.1989    5.3308 H   0  0  0  0  0  0  0  0  0  0  0  0
    3.3119    6.9892    3.5690 C   0  0  0  0  0  0  0  0  0  0  0  0
    4.2626    7.3629    3.2138 H   0  0  0  0  0  0  0  0  0  0  0  0
    0.5228    2.2604    4.7882 C   0  0  0  0  0  2  0  0  0  0  0  0
   -0.4767    1.7765    5.0680 O   0  0  0  0  0  1  0  0  0  0  0  0
    2.6702    3.7188    5.7432 C   0  0  0  0  0  2  0  0  0  0  0  0
    2.9680    4.2609    6.7174 O   0  0  0  0  0  1  0  0  0  0  0  0
  1 59  1  0  0  0  0
  1 61  1  0  0  0  0
  2  1  1  0  0  0  0
  3  4  1  0  0  0  0
  3  1  1  0  0  0  0
  4  5  1  0  0  0  0
  4  6  1  0  0  0  0
  6  7  1  0  0  0  0
  6  9  1  0  0  0  0
  8  6  1  0  0  0  0
  9 10  1  0  0  0  0
  9 11  1  0  0  0  0
 12 14  1  0  0  0  0
 12  9  1  0  0  0  0
 13 12  1  0  0  0  0
 15 16  1  0  0  0  0
 15 12  1  0  0  0  0
 17 15  1  0  0  0  0
 18 15  1  0  0  0  0
 18  4  1  0  0  0  0
 19 18  1  0  0  0  0
 20 18  1  0  0  0  0
 21  3  1  0  0  0  0
 21 35  1  0  0  0  0
 22 21  1  0  0  0  0
 23 21  1  0  0  0  0
 23 24  1  0  0  0  0
 25 23  1  0  0  0  0
 26 23  1  0  0  0  0
 26 29  1  0  0  0  0
 27 26  1  0  0  0  0
 28 26  1  0  0  0  0
 29 32  1  0  0  0  0
 29 30  1  0  0  0  0
 31 29  1  0  0  0  0
 32 35  1  0  0  0  0
 32 34  1  0  0  0  0
 33 32  1  0  0  0  0
 35 37  1  0  0  0  0
 35 36  1  0  0  0  0
 38 39  1  0  0  0  0
 38  3  1  0  0  0  0
 39 48  1  0  0  0  0
 40 41  1  0  0  0  0
 40 39  2  0  0  0  0
 42 40  1  0  0  0  0
 43 42  1  0  0  0  0
 44 42  2  0  0  0  0
 44 46  1  0  0  0  0
 45 44  1  0  0  0  0
 46 38  2  0  0  0  0
 47 46  1  0  0  0  0
 48 49  2  0  0  0  0
 48 57  1  0  0  0  0
 49 51  1  0  0  0  0
 50 49  1  0  0  0  0
 51 52  1  0  0  0  0
 51 53  2  0  0  0  0
 53 54  1  0  0  0  0
 55 53  1  0  0  0  0
 55 56  1  0  0  0  0
 57 55  2  0  0  0  0
 58 57  1  0  0  0  0
 59 60  1  0  0  0  0
 61 62  1  0  0  0  0
M  END
$$$$
