CSD_code = IWIJON | q = 0 | S = 0 | Stoichiometry = C17H26Cl4N2Ti | MND = 5
 OpenBabel04212202053D

 50 51  0  0  0  0  0  0  0  0999 V2000
    4.0314    3.4490    0.2576 Ti  0  0  0  0  0  0  0  0  0  0  0  0
    5.4235    3.7844   -1.3703 Cl  0  0  0  0  0  0  0  0  0  0  0  0
    2.2491    3.9515   -1.0304 Cl  0  0  0  0  0  0  0  0  0  0  0  0
    4.0819    5.3487    1.3006 Cl  0  0  0  0  0  0  0  0  0  0  0  0
    5.5447    2.5345    1.6578 Cl  0  0  0  0  0  0  0  0  0  0  0  0
    2.3923    1.4047    1.9265 N   0  0  0  0  0  0  0  0  0  0  0  0
    2.9151    1.7139    0.7228 C   0  0  0  0  0  3  0  0  0  0  0  0
    2.6013    0.7173   -0.1295 N   0  0  0  0  0  0  0  0  0  0  0  0
    1.8559   -0.2405    0.5236 C   0  0  0  0  0  0  0  0  0  0  0  0
    1.7484    0.1881    1.8593 C   0  0  0  0  0  0  0  0  0  0  0  0
    1.1083   -0.5950    2.8127 C   0  0  0  0  0  0  0  0  0  0  0  0
    1.0611   -0.3002    3.8475 H   0  0  0  0  0  0  0  0  0  0  0  0
    0.5352   -1.7747    2.3847 C   0  0  0  0  0  0  0  0  0  0  0  0
    0.0301   -2.4064    3.0986 H   0  0  0  0  0  0  0  0  0  0  0  0
    0.5838   -2.1663    1.0463 C   0  0  0  0  0  0  0  0  0  0  0  0
    0.0991   -3.0834    0.7499 H   0  0  0  0  0  0  0  0  0  0  0  0
    1.2450   -1.4140    0.0976 C   0  0  0  0  0  0  0  0  0  0  0  0
    1.2796   -1.7282   -0.9321 H   0  0  0  0  0  0  0  0  0  0  0  0
    2.4891    2.2432    3.0994 C   0  0  0  0  0  0  0  0  0  0  0  0
    3.3805    2.8744    2.9739 H   0  0  0  0  0  0  0  0  0  0  0  0
    2.6409    1.5974    3.9689 H   0  0  0  0  0  0  0  0  0  0  0  0
    1.2683    3.1657    3.3472 C   0  0  0  0  0  0  0  0  0  0  0  0
    0.8596    3.8732    2.0566 C   0  0  0  0  0  0  0  0  0  0  0  0
    0.5394    3.1652    1.2919 H   0  0  0  0  0  0  0  0  0  0  0  0
    1.6897    4.4649    1.6648 H   0  0  0  0  0  0  0  0  0  0  0  0
    0.0293    4.5471    2.2538 H   0  0  0  0  0  0  0  0  0  0  0  0
    1.7099    4.2095    4.3765 C   0  0  0  0  0  0  0  0  0  0  0  0
    2.5211    4.8140    3.9761 H   0  0  0  0  0  0  0  0  0  0  0  0
    2.0513    3.7324    5.2923 H   0  0  0  0  0  0  0  0  0  0  0  0
    0.8822    4.8689    4.6233 H   0  0  0  0  0  0  0  0  0  0  0  0
    0.0745    2.3799    3.8943 C   0  0  0  0  0  0  0  0  0  0  0  0
   -0.7408    3.0627    4.1201 H   0  0  0  0  0  0  0  0  0  0  0  0
    0.3366    1.8594    4.8129 H   0  0  0  0  0  0  0  0  0  0  0  0
   -0.2874    1.6575    3.1667 H   0  0  0  0  0  0  0  0  0  0  0  0
    3.0025    0.6720   -1.5170 C   0  0  0  0  0  0  0  0  0  0  0  0
    3.1759    1.7091   -1.8379 H   0  0  0  0  0  0  0  0  0  0  0  0
    2.1717    0.2632   -2.0991 H   0  0  0  0  0  0  0  0  0  0  0  0
    4.2866   -0.1479   -1.8022 C   0  0  0  0  0  0  0  0  0  0  0  0
    4.0135   -1.6526   -1.7475 C   0  0  0  0  0  0  0  0  0  0  0  0
    4.9145   -2.1979   -2.0169 H   0  0  0  0  0  0  0  0  0  0  0  0
    3.2318   -1.9342   -2.4497 H   0  0  0  0  0  0  0  0  0  0  0  0
    3.7225   -1.9633   -0.7471 H   0  0  0  0  0  0  0  0  0  0  0  0
    4.7493    0.2388   -3.2095 C   0  0  0  0  0  0  0  0  0  0  0  0
    5.6293   -0.3349   -3.4878 H   0  0  0  0  0  0  0  0  0  0  0  0
    5.0046    1.2959   -3.2450 H   0  0  0  0  0  0  0  0  0  0  0  0
    3.9690    0.0449   -3.9421 H   0  0  0  0  0  0  0  0  0  0  0  0
    5.3822    0.2044   -0.7980 C   0  0  0  0  0  0  0  0  0  0  0  0
    5.0940   -0.0540    0.2212 H   0  0  0  0  0  0  0  0  0  0  0  0
    5.6119    1.2712   -0.8405 H   0  0  0  0  0  0  0  0  0  0  0  0
    6.2898   -0.3450   -1.0360 H   0  0  0  0  0  0  0  0  0  0  0  0
  1  7  1  0  0  0  0
  1  4  1  0  0  0  0
  1  5  1  0  0  0  0
  2  1  1  0  0  0  0
  3  1  1  0  0  0  0
  6 19  1  0  0  0  0
  7  6  1  0  0  0  0
  8  9  1  0  0  0  0
  8  7  1  0  0  0  0
  9 10  1  0  0  0  0
 10  6  1  0  0  0  0
 10 11  2  0  0  0  0
 11 12  1  0  0  0  0
 13 11  1  0  0  0  0
 13 14  1  0  0  0  0
 15 13  2  0  0  0  0
 16 15  1  0  0  0  0
 17  9  2  0  0  0  0
 17 15  1  0  0  0  0
 18 17  1  0  0  0  0
 19 22  1  0  0  0  0
 19 21  1  0  0  0  0
 20 19  1  0  0  0  0
 22 31  1  0  0  0  0
 22 27  1  0  0  0  0
 23 26  1  0  0  0  0
 23 22  1  0  0  0  0
 24 23  1  0  0  0  0
 25 23  1  0  0  0  0
 27 30  1  0  0  0  0
 27 29  1  0  0  0  0
 28 27  1  0  0  0  0
 31 32  1  0  0  0  0
 31 33  1  0  0  0  0
 34 31  1  0  0  0  0
 35  8  1  0  0  0  0
 36 35  1  0  0  0  0
 37 35  1  0  0  0  0
 38 39  1  0  0  0  0
 38 35  1  0  0  0  0
 38 47  1  0  0  0  0
 39 42  1  0  0  0  0
 40 39  1  0  0  0  0
 41 39  1  0  0  0  0
 43 38  1  0  0  0  0
 44 43  1  0  0  0  0
 45 43  1  0  0  0  0
 46 43  1  0  0  0  0
 47 48  1  0  0  0  0
 49 47  1  0  0  0  0
 50 47  1  0  0  0  0
M  END
$$$$
