CSD_code = IWIWAO | q = 1 | S = 0 | Stoichiometry = C21H40ClN2NiOP2(1+) | MND = 4
 OpenBabel04212202053D

 68 69  0  0  0  0  0  0  0  0999 V2000
    7.2197   27.0089    0.2226 Ni  0  0  0  0  0  0  0  0  0  0  0  0
    7.1427   25.3534   -0.9904 Cl  0  0  0  0  0  0  0  0  0  0  0  0
    7.8797   25.5815    1.7665 P   0  0  0  0  0  4  0  0  0  0  0  0
    6.6060   28.1058   -1.5862 P   0  0  0  0  0  4  0  0  0  0  0  0
    9.5657   30.3795   -0.0142 O   0  0  0  0  0  0  0  0  0  0  0  0
    6.1468   28.9426    2.0861 N   0  0  0  0  0  0  0  0  0  0  0  0
    5.2535   28.4761    2.1385 H   0  0  0  0  0  0  0  0  0  0  0  0
    8.1928   29.3913    1.5455 N   0  0  0  0  0  0  0  0  0  0  0  0
    7.1848   28.5204    1.3378 C   0  0  0  0  0  0  0  0  0  0  0  0
    7.7951   30.3920    2.4150 C   0  0  0  0  0  0  0  0  0  0  0  0
    6.4704   30.0964    2.7700 C   0  0  0  0  0  0  0  0  0  0  0  0
    5.7571   30.8989    3.6459 C   0  0  0  0  0  0  0  0  0  0  0  0
    4.7393   30.6710    3.9189 H   0  0  0  0  0  0  0  0  0  0  0  0
    6.4128   32.0060    4.1502 C   0  0  0  0  0  0  0  0  0  0  0  0
    5.8950   32.6591    4.8344 H   0  0  0  0  0  0  0  0  0  0  0  0
    7.7285   32.3035    3.7940 C   0  0  0  0  0  0  0  0  0  0  0  0
    8.1966   33.1813    4.2100 H   0  0  0  0  0  0  0  0  0  0  0  0
    8.4451   31.5059    2.9221 C   0  0  0  0  0  0  0  0  0  0  0  0
    9.4570   31.7468    2.6416 H   0  0  0  0  0  0  0  0  0  0  0  0
    9.4746   29.3278    0.9066 C   0  0  0  0  0  0  0  0  0  0  0  0
   10.2722   29.4086    1.6655 H   0  0  0  0  0  0  0  0  0  0  0  0
    9.5524   28.3445    0.4010 H   0  0  0  0  0  0  0  0  0  0  0  0
   10.8630   30.5530   -0.5423 C   0  0  0  0  0  0  0  0  0  0  0  0
   11.5848   30.7741    0.2509 H   0  0  0  0  0  0  0  0  0  0  0  0
   10.8022   31.3976   -1.2238 H   0  0  0  0  0  0  0  0  0  0  0  0
   11.1910   29.6613   -1.0862 H   0  0  0  0  0  0  0  0  0  0  0  0
    8.4048   26.3028    3.3945 C   0  0  0  0  0  0  0  0  0  0  0  0
    9.2708   26.9381    3.1829 H   0  0  0  0  0  0  0  0  0  0  0  0
    7.5994   26.9637    3.7281 H   0  0  0  0  0  0  0  0  0  0  0  0
    8.7453   25.3141    4.5018 C   0  0  0  0  0  0  0  0  0  0  0  0
    7.8840   24.7104    4.7740 H   0  0  0  0  0  0  0  0  0  0  0  0
    9.0621   25.8610    5.3876 H   0  0  0  0  0  0  0  0  0  0  0  0
    9.5575   24.6521    4.2142 H   0  0  0  0  0  0  0  0  0  0  0  0
    6.6205   24.3192    2.2036 C   0  0  0  0  0  0  0  0  0  0  0  0
    6.3850   23.7769    1.2841 H   0  0  0  0  0  0  0  0  0  0  0  0
    7.0675   23.6163    2.9105 H   0  0  0  0  0  0  0  0  0  0  0  0
    5.3573   24.9522    2.7734 C   0  0  0  0  0  0  0  0  0  0  0  0
    5.5596   25.4670    3.7105 H   0  0  0  0  0  0  0  0  0  0  0  0
    4.6024   24.1920    2.9584 H   0  0  0  0  0  0  0  0  0  0  0  0
    4.9479   25.6705    2.0618 H   0  0  0  0  0  0  0  0  0  0  0  0
    9.3088   24.5424    1.2597 C   0  0  0  0  0  0  0  0  0  0  0  0
    9.6757   23.9982    2.1322 H   0  0  0  0  0  0  0  0  0  0  0  0
    8.9366   23.8187    0.5310 H   0  0  0  0  0  0  0  0  0  0  0  0
   10.4130   25.3846    0.6333 C   0  0  0  0  0  0  0  0  0  0  0  0
   10.0087   25.9440   -0.2132 H   0  0  0  0  0  0  0  0  0  0  0  0
   11.2160   24.7500    0.2670 H   0  0  0  0  0  0  0  0  0  0  0  0
   10.8323   26.0861    1.3529 H   0  0  0  0  0  0  0  0  0  0  0  0
    4.8940   27.5774   -2.0006 C   0  0  0  0  0  0  0  0  0  0  0  0
    4.4456   28.2872   -2.6981 H   0  0  0  0  0  0  0  0  0  0  0  0
    4.9639   26.6033   -2.4899 H   0  0  0  0  0  0  0  0  0  0  0  0
    4.0683   27.4596   -0.7245 C   0  0  0  0  0  0  0  0  0  0  0  0
    4.6050   26.8227   -0.0095 H   0  0  0  0  0  0  0  0  0  0  0  0
    3.1011   27.0059   -0.9259 H   0  0  0  0  0  0  0  0  0  0  0  0
    3.9016   28.4371   -0.2742 H   0  0  0  0  0  0  0  0  0  0  0  0
    6.5000   29.9505   -1.4656 C   0  0  0  0  0  0  0  0  0  0  0  0
    5.7373   30.1637   -0.7097 H   0  0  0  0  0  0  0  0  0  0  0  0
    7.4544   30.3109   -1.0726 H   0  0  0  0  0  0  0  0  0  0  0  0
    6.1668   30.6848   -2.7579 C   0  0  0  0  0  0  0  0  0  0  0  0
    6.9793   30.6122   -3.4755 H   0  0  0  0  0  0  0  0  0  0  0  0
    6.0101   31.7394   -2.5409 H   0  0  0  0  0  0  0  0  0  0  0  0
    5.2596   30.3021   -3.2197 H   0  0  0  0  0  0  0  0  0  0  0  0
    7.5307   27.7929   -3.1395 C   0  0  0  0  0  0  0  0  0  0  0  0
    7.4441   26.7272   -3.3634 H   0  0  0  0  0  0  0  0  0  0  0  0
    7.0444   28.3551   -3.9402 H   0  0  0  0  0  0  0  0  0  0  0  0
    8.9972   28.1805   -2.9989 C   0  0  0  0  0  0  0  0  0  0  0  0
    9.1025   29.2344   -2.7499 H   0  0  0  0  0  0  0  0  0  0  0  0
    9.5326   27.9883   -3.9255 H   0  0  0  0  0  0  0  0  0  0  0  0
    9.4608   27.5880   -2.2097 H   0  0  0  0  0  0  0  0  0  0  0  0
  1  9  2  0  0  0  0
  1  3  1  0  0  0  0
  2  1  1  0  0  0  0
  3 34  1  0  0  0  0
  3 27  1  0  0  0  0
  4 55  1  0  0  0  0
  4  1  1  0  0  0  0
  5 20  1  0  0  0  0
  6  7  1  0  0  0  0
  6 11  1  0  0  0  0
  8 10  1  0  0  0  0
  9  8  1  0  0  0  0
  9  6  1  0  0  0  0
 10 11  2  0  0  0  0
 10 18  1  0  0  0  0
 11 12  1  0  0  0  0
 12 13  1  0  0  0  0
 12 14  2  0  0  0  0
 14 15  1  0  0  0  0
 16 14  1  0  0  0  0
 16 17  1  0  0  0  0
 18 16  2  0  0  0  0
 19 18  1  0  0  0  0
 20  8  1  0  0  0  0
 20 21  1  0  0  0  0
 22 20  1  0  0  0  0
 23  5  1  0  0  0  0
 23 24  1  0  0  0  0
 25 23  1  0  0  0  0
 26 23  1  0  0  0  0
 27 29  1  0  0  0  0
 27 30  1  0  0  0  0
 28 27  1  0  0  0  0
 30 31  1  0  0  0  0
 30 32  1  0  0  0  0
 33 30  1  0  0  0  0
 34 37  1  0  0  0  0
 34 36  1  0  0  0  0
 35 34  1  0  0  0  0
 37 39  1  0  0  0  0
 37 38  1  0  0  0  0
 40 37  1  0  0  0  0
 41  3  1  0  0  0  0
 41 42  1  0  0  0  0
 43 41  1  0  0  0  0
 44 41  1  0  0  0  0
 44 47  1  0  0  0  0
 45 44  1  0  0  0  0
 46 44  1  0  0  0  0
 48  4  1  0  0  0  0
 48 51  1  0  0  0  0
 49 48  1  0  0  0  0
 50 48  1  0  0  0  0
 51 54  1  0  0  0  0
 51 52  1  0  0  0  0
 53 51  1  0  0  0  0
 55 57  1  0  0  0  0
 55 56  1  0  0  0  0
 58 60  1  0  0  0  0
 58 55  1  0  0  0  0
 59 58  1  0  0  0  0
 61 58  1  0  0  0  0
 62 65  1  0  0  0  0
 62  4  1  0  0  0  0
 63 62  1  0  0  0  0
 64 62  1  0  0  0  0
 65 66  1  0  0  0  0
 65 68  1  0  0  0  0
 67 65  1  0  0  0  0
M  END
$$$$
