CSD_code = IWIWOA | q = 0 | S = 0 | Stoichiometry = C27H34Cl2O2SiW | MND = 5
 OpenBabel04212202053D

 67 69  0  0  0  0  0  0  0  0999 V2000
    1.5359    6.8533    8.4905 W   0  0  0  0  0  0  0  0  0  0  0  0
    0.7817    7.2789   11.6121 Si  0  0  0  0  0  0  0  0  0  0  0  0
    0.3617    4.9817    7.5712 Cl  0  0  0  0  0  0  0  0  0  0  0  0
    2.5218    8.7646    7.3879 Cl  0  0  0  0  0  0  0  0  0  0  0  0
    0.0248    7.7527    8.5008 O   0  0  0  0  0  0  0  0  0  0  0  0
    2.9551    6.0322    7.8713 O   0  0  0  0  0  0  0  0  0  0  0  0
   -0.9966    8.3595    7.7522 C   0  0  0  0  0  0  0  0  0  0  0  0
   -2.3613    7.8991    8.2785 C   0  0  0  0  0  0  0  0  0  0  0  0
   -2.4571    8.1623    9.3301 H   0  0  0  0  0  0  0  0  0  0  0  0
   -2.4490    6.8182    8.1836 H   0  0  0  0  0  0  0  0  0  0  0  0
   -3.1596    8.3740    7.7150 H   0  0  0  0  0  0  0  0  0  0  0  0
   -0.8598    9.8847    7.8547 C   0  0  0  0  0  0  0  0  0  0  0  0
    0.1505   10.1841    7.5769 H   0  0  0  0  0  0  0  0  0  0  0  0
   -1.0472   10.2068    8.8757 H   0  0  0  0  0  0  0  0  0  0  0  0
   -1.5701   10.3700    7.1911 H   0  0  0  0  0  0  0  0  0  0  0  0
   -0.7975    7.9078    6.2912 C   0  0  0  0  0  0  0  0  0  0  0  0
    0.2165    8.1638    5.9671 H   0  0  0  0  0  0  0  0  0  0  0  0
   -1.5063    8.4080    5.6363 H   0  0  0  0  0  0  0  0  0  0  0  0
   -0.9465    6.8294    6.2085 H   0  0  0  0  0  0  0  0  0  0  0  0
    3.8432    5.4785    6.9449 C   0  0  0  0  0  0  0  0  0  0  0  0
    5.2017    6.1756    7.1047 C   0  0  0  0  0  0  0  0  0  0  0  0
    5.0725    7.2502    6.9757 H   0  0  0  0  0  0  0  0  0  0  0  0
    5.9106    5.8072    6.3689 H   0  0  0  0  0  0  0  0  0  0  0  0
    5.5917    5.9912    8.1044 H   0  0  0  0  0  0  0  0  0  0  0  0
    3.2477    5.7447    5.5511 C   0  0  0  0  0  0  0  0  0  0  0  0
    3.1571    6.8215    5.3958 H   0  0  0  0  0  0  0  0  0  0  0  0
    2.2586    5.2860    5.4862 H   0  0  0  0  0  0  0  0  0  0  0  0
    3.8821    5.3284    4.7735 H   0  0  0  0  0  0  0  0  0  0  0  0
    3.9442    3.9716    7.2211 C   0  0  0  0  0  0  0  0  0  0  0  0
    2.9482    3.5305    7.1808 H   0  0  0  0  0  0  0  0  0  0  0  0
    4.3538    3.8086    8.2166 H   0  0  0  0  0  0  0  0  0  0  0  0
    4.5824    3.4892    6.4866 H   0  0  0  0  0  0  0  0  0  0  0  0
    1.8906    6.4275   10.3928 C   0  0  0  0  0  3  0  0  0  0  0  0
    1.3830    7.2681   13.4122 C   0  0  0  0  0  0  0  0  0  0  0  0
    2.0618    8.3511   13.9594 C   0  0  0  0  0  0  0  0  0  0  0  0
    2.2427    9.2231   13.3463 H   0  0  0  0  0  0  0  0  0  0  0  0
    2.5000    8.3327   15.2714 C   0  0  0  0  0  0  0  0  0  0  0  0
    3.0233    9.1865   15.6789 H   0  0  0  0  0  0  0  0  0  0  0  0
    2.2675    7.2212   16.0635 C   0  0  0  0  0  0  0  0  0  0  0  0
    2.6069    7.2044   17.0893 H   0  0  0  0  0  0  0  0  0  0  0  0
    1.5957    6.1317   15.5343 C   0  0  0  0  0  0  0  0  0  0  0  0
    1.4095    5.2615   16.1483 H   0  0  0  0  0  0  0  0  0  0  0  0
    1.1611    6.1594   14.2219 C   0  0  0  0  0  0  0  0  0  0  0  0
    0.6320    5.3102   13.8133 H   0  0  0  0  0  0  0  0  0  0  0  0
    0.6906    9.1176   11.0984 C   0  0  0  0  0  0  0  0  0  0  0  0
   -0.3617    9.9525   11.4604 C   0  0  0  0  0  0  0  0  0  0  0  0
   -1.1941    9.5426   12.0148 H   0  0  0  0  0  0  0  0  0  0  0  0
   -0.3608   11.2953   11.1213 C   0  0  0  0  0  0  0  0  0  0  0  0
   -1.1882   11.9271   11.4130 H   0  0  0  0  0  0  0  0  0  0  0  0
    0.6995   11.8300   10.4074 C   0  0  0  0  0  0  0  0  0  0  0  0
    0.7014   12.8767   10.1409 H   0  0  0  0  0  0  0  0  0  0  0  0
    1.7589   11.0163   10.0416 C   0  0  0  0  0  0  0  0  0  0  0  0
    2.5917   11.4252    9.4882 H   0  0  0  0  0  0  0  0  0  0  0  0
    1.7521    9.6753   10.3895 C   0  0  0  0  0  0  0  0  0  0  0  0
    2.6157    9.0522   10.1473 H   0  0  0  0  0  0  0  0  0  0  0  0
   -0.9926    6.5855   11.6714 C   0  0  0  0  0  0  0  0  0  0  0  0
   -1.4459    5.7548   10.6540 C   0  0  0  0  0  0  0  0  0  0  0  0
   -0.7688    5.5232    9.8336 H   0  0  0  0  0  0  0  0  0  0  0  0
   -2.7223    5.2207   10.6773 C   0  0  0  0  0  0  0  0  0  0  0  0
   -3.0518    4.5709    9.8791 H   0  0  0  0  0  0  0  0  0  0  0  0
   -3.5744    5.5163   11.7284 C   0  0  0  0  0  0  0  0  0  0  0  0
   -4.5726    5.1034   11.7512 H   0  0  0  0  0  0  0  0  0  0  0  0
   -3.1383    6.3383   12.7544 C   0  0  0  0  0  0  0  0  0  0  0  0
   -3.7974    6.5667   13.5802 H   0  0  0  0  0  0  0  0  0  0  0  0
   -1.8578    6.8616   12.7265 C   0  0  0  0  0  0  0  0  0  0  0  0
   -1.5156    7.4847   13.5410 H   0  0  0  0  0  0  0  0  0  0  0  0
    2.7054    5.8311   10.8085 H   0  0  0  0  0  0  0  0  0  0  0  0
  1  5  1  0  0  0  0
  1 33  1  0  0  0  0
  2 56  1  0  0  0  0
  2 34  1  0  0  0  0
  3  1  1  0  0  0  0
  4  1  1  0  0  0  0
  6  1  1  0  0  0  0
  7 12  1  0  0  0  0
  7  8  1  0  0  0  0
  7  5  1  0  0  0  0
  8  9  1  0  0  0  0
 10  8  1  0  0  0  0
 11  8  1  0  0  0  0
 12 14  1  0  0  0  0
 13 12  1  0  0  0  0
 15 12  1  0  0  0  0
 16  7  1  0  0  0  0
 17 16  1  0  0  0  0
 18 16  1  0  0  0  0
 19 16  1  0  0  0  0
 20 21  1  0  0  0  0
 20 29  1  0  0  0  0
 20  6  1  0  0  0  0
 21 24  1  0  0  0  0
 22 21  1  0  0  0  0
 23 21  1  0  0  0  0
 25 20  1  0  0  0  0
 26 25  1  0  0  0  0
 27 25  1  0  0  0  0
 28 25  1  0  0  0  0
 29 31  1  0  0  0  0
 30 29  1  0  0  0  0
 32 29  1  0  0  0  0
 33 67  1  0  0  0  0
 33  2  1  0  0  0  0
 34 35  2  0  0  0  0
 34 43  1  0  0  0  0
 35 37  1  0  0  0  0
 36 35  1  0  0  0  0
 37 38  1  0  0  0  0
 37 39  2  0  0  0  0
 39 40  1  0  0  0  0
 41 39  1  0  0  0  0
 41 42  1  0  0  0  0
 43 41  2  0  0  0  0
 44 43  1  0  0  0  0
 45 46  1  0  0  0  0
 45  2  1  0  0  0  0
 46 47  1  0  0  0  0
 48 49  1  0  0  0  0
 48 46  2  0  0  0  0
 50 48  1  0  0  0  0
 51 50  1  0  0  0  0
 52 54  1  0  0  0  0
 52 50  2  0  0  0  0
 53 52  1  0  0  0  0
 54 45  2  0  0  0  0
 55 54  1  0  0  0  0
 56 65  1  0  0  0  0
 57 59  1  0  0  0  0
 57 56  2  0  0  0  0
 58 57  1  0  0  0  0
 59 61  2  0  0  0  0
 60 59  1  0  0  0  0
 61 62  1  0  0  0  0
 61 63  1  0  0  0  0
 63 64  1  0  0  0  0
 65 63  2  0  0  0  0
 65 66  1  0  0  0  0
M  END
$$$$
