CSD_code = IWUDEK | q = 0 | S = 0 | Stoichiometry = C15H23ClCoN5O4S2 | MND = 6
 OpenBabel04212202053D

 51 53  0  0  0  0  0  0  0  0999 V2000
    6.8131    0.6491   12.6131 Co  0  0  0  0  0  0  0  0  0  0  0  0
    8.3712    1.5196   11.3715 Cl  0  0  0  0  0  0  0  0  0  0  0  0
    9.9290   -2.0278   14.3062 S   0  0  0  0  0  0  0  0  0  0  0  0
    8.8846   -3.1447   11.6324 S   0  0  0  0  0  0  0  0  0  0  0  0
    5.0152    0.5996   10.4699 O   0  0  0  0  0  1  0  0  0  0  0  0
    6.5112   -1.4319   10.6128 O   0  0  0  0  0  0  0  0  0  0  0  0
    5.8651   -0.6563   10.3754 H   0  0  0  0  0  0  0  0  0  0  0  0
    8.4794    0.6333   14.8801 O   0  0  0  0  0  1  0  0  0  0  0  0
    7.2013    2.7882   14.5230 O   0  0  0  0  0  0  0  0  0  0  0  0
    7.8388    2.0160   14.7856 H   0  0  0  0  0  0  0  0  0  0  0  0
    7.1625   -1.0044   11.7263 N   0  0  0  0  0  0  0  0  0  0  0  0
    5.4127   -0.1635   13.7287 N   0  0  0  0  0  0  0  0  0  0  0  0
    5.5257    1.3228   11.4005 N   0  0  0  0  0  0  0  0  0  0  0  0
    8.1571    0.0010   13.8060 N   0  0  0  0  0  0  0  0  0  0  0  0
    6.5796    2.3528   13.4000 N   0  0  0  0  0  0  0  0  0  0  0  0
    8.1536   -1.6695   12.2138 C   0  0  0  0  0  0  0  0  0  0  0  0
    8.6759   -1.1296   13.4496 C   0  0  0  0  0  0  0  0  0  0  0  0
    4.2535    3.3054   10.6961 C   0  0  0  0  0  0  0  0  0  0  0  0
    3.9226    2.6339    9.9071 H   0  0  0  0  0  0  0  0  0  0  0  0
    4.7464    4.1663   10.2481 H   0  0  0  0  0  0  0  0  0  0  0  0
    3.3883    3.6555   11.2575 H   0  0  0  0  0  0  0  0  0  0  0  0
    4.4429   -0.8991   13.1818 C   0  0  0  0  0  3  0  0  0  0  0  0
    4.4292   -0.9834   12.1038 H   0  0  0  0  0  0  0  0  0  0  0  0
    4.4848   -0.6269   15.8785 C   0  0  0  0  0  0  0  0  0  0  0  0
    4.5465   -0.4869   16.9457 H   0  0  0  0  0  0  0  0  0  0  0  0
    3.4825   -1.3967   15.3106 C   0  0  0  0  0  0  0  0  0  0  0  0
    2.7361   -1.8772   15.9242 H   0  0  0  0  0  0  0  0  0  0  0  0
    3.4657   -1.5289   13.9315 C   0  0  0  0  0  0  0  0  0  0  0  0
    2.7077   -2.1126   13.4345 H   0  0  0  0  0  0  0  0  0  0  0  0
    5.6136    4.5910   13.1077 C   0  0  0  0  0  0  0  0  0  0  0  0
    6.1986    4.8303   13.9912 H   0  0  0  0  0  0  0  0  0  0  0  0
    4.5591    4.7721   13.3094 H   0  0  0  0  0  0  0  0  0  0  0  0
    5.9189    5.2372   12.2872 H   0  0  0  0  0  0  0  0  0  0  0  0
    5.2020    2.5678   11.5839 C   0  0  0  0  0  0  0  0  0  0  0  0
    5.8317    3.1657   12.7313 C   0  0  0  0  0  0  0  0  0  0  0  0
    9.3035   -1.9323   16.0262 C   0  0  0  0  0  0  0  0  0  0  0  0
   10.1018   -2.3717   16.6218 H   0  0  0  0  0  0  0  0  0  0  0  0
    9.1907   -0.8795   16.2796 H   0  0  0  0  0  0  0  0  0  0  0  0
    8.0049   -2.6979   16.1878 C   0  0  0  0  0  0  0  0  0  0  0  0
    7.6854   -2.6667   17.2278 H   0  0  0  0  0  0  0  0  0  0  0  0
    8.1347   -3.7364   15.8910 H   0  0  0  0  0  0  0  0  0  0  0  0
    7.2196   -2.2594   15.5730 H   0  0  0  0  0  0  0  0  0  0  0  0
    5.4242   -0.0304   15.0567 C   0  0  0  0  0  0  0  0  0  0  0  0
    6.2166    0.5636   15.4918 H   0  0  0  0  0  0  0  0  0  0  0  0
    7.5814   -3.9491    9.2912 C   0  0  0  0  0  0  0  0  0  0  0  0
    7.5754   -3.9313    8.2037 H   0  0  0  0  0  0  0  0  0  0  0  0
    6.6256   -3.5759    9.6484 H   0  0  0  0  0  0  0  0  0  0  0  0
    7.7115   -4.9763    9.6245 H   0  0  0  0  0  0  0  0  0  0  0  0
    8.7093   -3.0783    9.8033 C   0  0  0  0  0  0  0  0  0  0  0  0
    8.5861   -2.0361    9.5233 H   0  0  0  0  0  0  0  0  0  0  0  0
    9.6758   -3.4351    9.4471 H   0  0  0  0  0  0  0  0  0  0  0  0
  1 15  1  0  0  0  0
  1 12  1  0  0  0  0
  1 14  1  0  0  0  0
  2  1  1  0  0  0  0
  3 36  1  0  0  0  0
  4 16  1  0  0  0  0
  5 13  1  0  0  0  0
  6 11  1  0  0  0  0
  7  6  1  0  0  0  0
  9 10  1  0  0  0  0
 11 16  1  0  0  0  0
 11  1  1  0  0  0  0
 12 43  1  0  0  0  0
 13 34  1  0  0  0  0
 13  1  1  0  0  0  0
 14  8  1  0  0  0  0
 15  9  1  0  0  0  0
 16 17  2  0  0  0  0
 17 14  1  0  0  0  0
 17  3  1  0  0  0  0
 18 21  1  0  0  0  0
 18 34  1  0  0  0  0
 19 18  1  0  0  0  0
 20 18  1  0  0  0  0
 22 12  1  0  0  0  0
 22 28  1  0  0  0  0
 23 22  1  0  0  0  0
 24 25  1  0  0  0  0
 26 24  1  0  0  0  0
 26 27  1  0  0  0  0
 28 26  2  0  0  0  0
 29 28  1  0  0  0  0
 30 32  1  0  0  0  0
 30 31  1  0  0  0  0
 33 30  1  0  0  0  0
 34 35  2  0  0  0  0
 35 30  1  0  0  0  0
 35 15  1  0  0  0  0
 36 39  1  0  0  0  0
 36 38  1  0  0  0  0
 36 37  1  0  0  0  0
 39 40  1  0  0  0  0
 41 39  1  0  0  0  0
 42 39  1  0  0  0  0
 43 44  1  0  0  0  0
 43 24  2  0  0  0  0
 45 48  1  0  0  0  0
 45 47  1  0  0  0  0
 45 49  1  0  0  0  0
 46 45  1  0  0  0  0
 49  4  1  0  0  0  0
 50 49  1  0  0  0  0
 51 49  1  0  0  0  0
M  END
$$$$
