CSD_code = IWUMIW | q = -1 | S = 0 | Stoichiometry = C2H6Cl4IrN2(1-) | MND = 6
 OpenBabel04212202053D

 15 15  0  0  0  0  0  0  0  0999 V2000
    2.0379    0.4573    2.0471 Ir  0  0  0  0  0  0  0  0  0  0  0  0
    1.5349   -1.7900    1.8190 Cl  0  0  0  0  0  0  0  0  0  0  0  0
    4.2535    0.1157    2.5859 Cl  0  0  0  0  0  0  0  0  0  0  0  0
    2.4607    0.6834   -0.2710 Cl  0  0  0  0  0  0  0  0  0  0  0  0
    1.2738    0.4979    4.3143 Cl  0  0  0  0  0  0  0  0  0  0  0  0
    0.0143    1.0688    1.6281 N   0  0  0  0  0  4  0  0  0  0  0  0
    2.2525    2.3776    2.2109 N   0  0  0  0  0  0  0  0  0  0  0  0
    0.0910    2.4675    1.2070 C   0  0  0  0  0  0  0  0  0  0  0  0
    1.2849    3.1203    1.8431 C   0  0  0  0  0  3  0  0  0  0  0  0
   -0.4203    0.9674    2.5472 H   0  0  0  0  0  0  0  0  0  0  0  0
   -0.4667    0.4802    0.9546 H   0  0  0  0  0  0  0  0  0  0  0  0
    3.0719    2.8219    2.6207 H   0  0  0  0  0  0  0  0  0  0  0  0
    0.2596    2.4814    0.1230 H   0  0  0  0  0  0  0  0  0  0  0  0
   -0.8264    3.0284    1.4340 H   0  0  0  0  0  0  0  0  0  0  0  0
    1.2976    4.2037    1.9317 H   0  0  0  0  0  0  0  0  0  0  0  0
  1  7  1  0  0  0  0
  1  3  1  0  0  0  0
  1  5  1  0  0  0  0
  2  1  1  0  0  0  0
  4  1  1  0  0  0  0
  6  1  1  0  0  0  0
  6 10  1  0  0  0  0
  7 12  1  0  0  0  0
  8 14  1  0  0  0  0
  8  6  1  0  0  0  0
  8  9  1  0  0  0  0
  9 15  1  0  0  0  0
  9  7  1  0  0  0  0
 11  6  1  0  0  0  0
 13  8  1  0  0  0  0
M  END
$$$$
