CSD_code = IWUWAZ | q = 0 | S = 0 | Stoichiometry = C19H19IN4OZn | MND = 4
 OpenBabel04212202053D

 45 49  0  0  1  0  0  0  0  0999 V2000
    2.7939    8.8678    4.8301 Zn  0  0  0  0  0  0  0  0  0  0  0  0
    1.5965    9.7538    2.8527 I   0  0  0  0  0  0  0  0  0  0  0  0
    3.9584    7.2812    4.2707 O   0  0  0  0  0  0  0  0  0  0  0  0
    4.5809    9.6050    5.4810 N   0  0  1  0  0  0  0  0  0  0  0  0
    2.8062   10.6892    6.2438 N   0  0  0  0  0  0  0  0  0  0  0  0
    1.4479    7.9188    6.1158 N   0  0  0  0  0  0  0  0  0  0  0  0
    2.8987    6.2028    6.6141 N   0  0  0  0  0  0  0  0  0  0  0  0
    6.1742    8.1913    4.4298 C   0  0  0  0  0  0  0  0  0  0  0  0
    5.2049    7.2186    3.9972 C   0  0  0  0  0  0  0  0  0  0  0  0
    5.6959    6.1141    3.2459 C   0  0  0  0  0  0  0  0  0  0  0  0
    4.9693    5.3882    2.9114 H   0  0  0  0  0  0  0  0  0  0  0  0
    7.0195    5.9771    2.9445 C   0  0  0  0  0  0  0  0  0  0  0  0
    7.3550    5.1275    2.3668 H   0  0  0  0  0  0  0  0  0  0  0  0
    7.9583    6.9283    3.3752 C   0  0  0  0  0  0  0  0  0  0  0  0
    9.0016    6.8045    3.1290 H   0  0  0  0  0  0  0  0  0  0  0  0
    7.5354    8.0052    4.0983 C   0  0  0  0  0  0  0  0  0  0  0  0
    8.2455    8.7501    4.4324 H   0  0  0  0  0  0  0  0  0  0  0  0
    5.8113    9.3326    5.1700 C   0  0  0  0  0  3  0  0  0  0  0  0
    6.6224   10.0034    5.4708 H   0  0  0  0  0  0  0  0  0  0  0  0
    4.1428   10.6730    6.2106 C   0  0  1  0  0  3  0  0  0  0  0  0
    4.9100   11.6386    6.8674 C   0  0  0  0  0  0  0  0  0  0  0  0
    5.9880   11.5996    6.8332 H   0  0  0  0  0  0  0  0  0  0  0  0
    4.2682   12.6494    7.5614 C   0  0  0  0  0  0  0  0  0  0  0  0
    2.8719   12.6513    7.5759 C   0  0  0  0  0  0  0  0  0  0  0  0
    2.3321   13.4225    8.1023 H   0  0  0  0  0  0  0  0  0  0  0  0
    2.1918   11.6535    6.9051 C   0  0  0  0  0  0  0  0  0  0  0  0
    1.1107   11.6230    6.8922 H   0  0  0  0  0  0  0  0  0  0  0  0
    5.0348   13.7174    8.2717 C   0  0  0  0  0  0  0  0  0  0  0  0
    4.7352   13.7647    9.3175 H   0  0  0  0  0  0  0  0  0  0  0  0
    4.8221   14.6868    7.8227 H   0  0  0  0  0  0  0  0  0  0  0  0
    6.1050   13.5362    8.2191 H   0  0  0  0  0  0  0  0  0  0  0  0
    1.7029    6.7957    6.8017 C   0  0  1  0  0  3  0  0  0  0  0  0
    0.7743    6.2795    7.7257 C   0  0  0  0  0  0  0  0  0  0  0  0
    1.0208    5.3720    8.2569 H   0  0  0  0  0  0  0  0  0  0  0  0
   -0.4233    6.9209    7.9385 C   0  0  0  0  0  0  0  0  0  0  0  0
   -0.6719    8.0872    7.2010 C   0  0  0  0  0  0  0  0  0  0  0  0
   -1.5999    8.6225    7.3194 H   0  0  0  0  0  0  0  0  0  0  0  0
    0.2787    8.5340    6.3198 C   0  0  0  0  0  0  0  0  0  0  0  0
    0.1073    9.4231    5.7303 H   0  0  0  0  0  0  0  0  0  0  0  0
   -1.4368    6.4055    8.9068 C   0  0  0  0  0  0  0  0  0  0  0  0
   -1.0927    5.4946    9.3894 H   0  0  0  0  0  0  0  0  0  0  0  0
   -2.3736    6.1993    8.3913 H   0  0  0  0  0  0  0  0  0  0  0  0
   -1.6387    7.1548    9.6710 H   0  0  0  0  0  0  0  0  0  0  0  0
    3.4149    6.4742    5.7806 H   0  0  0  0  0  0  0  0  0  0  0  0
    3.0270    5.2662    6.9553 H   0  0  0  0  0  0  0  0  0  0  0  0
  1  4  1  0  0  0  0
  1  6  1  0  0  0  0
  1  5  1  0  0  0  0
  2  1  1  0  0  0  0
  3  1  1  0  0  0  0
  4 18  1  6  0  0  0
  4 20  1  0  0  0  0
  5 26  1  0  0  0  0
  6 38  1  0  0  0  0
  6 32  1  0  0  0  0
  7 45  1  0  0  0  0
  8 18  1  0  0  0  0
  9  3  1  0  0  0  0
  9  8  2  0  0  0  0
 10  9  1  0  0  0  0
 11 10  1  0  0  0  0
 12 10  2  0  0  0  0
 12 14  1  0  0  0  0
 13 12  1  0  0  0  0
 14 16  2  0  0  0  0
 15 14  1  0  0  0  0
 16  8  1  0  0  0  0
 16 17  1  0  0  0  0
 18 19  1  0  0  0  0
 20  5  1  0  0  0  0
 20 21  1  1  0  0  0
 21 23  2  0  0  0  0
 22 21  1  0  0  0  0
 23 24  1  0  0  0  0
 23 28  1  0  0  0  0
 24 25  1  0  0  0  0
 26 24  2  0  0  0  0
 27 26  1  0  0  0  0
 28 29  1  0  0  0  0
 30 28  1  0  0  0  0
 31 28  1  0  0  0  0
 32  7  1  1  0  0  0
 32 33  1  0  0  0  0
 33 35  2  0  0  0  0
 33 34  1  0  0  0  0
 35 40  1  0  0  0  0
 36 37  1  0  0  0  0
 36 35  1  0  0  0  0
 38 36  2  0  0  0  0
 39 38  1  0  0  0  0
 40 41  1  0  0  0  0
 40 43  1  0  0  0  0
 42 40  1  0  0  0  0
 44  7  1  0  0  0  0
M  END
$$$$
