CSD_code = IXEHAV | q = 0 | S = 0 | Stoichiometry = C13H16AuBr3N2 | MND = 4
 OpenBabel04212202053D

 35 36  0  0  0  0  0  0  0  0999 V2000
    2.3269    2.7218    2.0365 Au  0  0  0  0  0  0  0  0  0  0  0  0
    1.2756    2.9929    4.2375 Br  0  0  0  0  0  0  0  0  0  0  0  0
    3.4506    2.7643   -0.1474 Br  0  0  0  0  0  0  0  0  0  0  0  0
    1.4170    0.5132    1.7054 Br  0  0  0  0  0  0  0  0  0  0  0  0
    2.4999    5.7250    1.9729 N   0  0  0  0  0  0  0  0  0  0  0  0
    4.2894    4.8734    2.8210 N   0  0  0  0  0  0  0  0  0  0  0  0
    3.0943    4.5755    2.3054 C   0  0  0  0  0  0  0  0  0  0  0  0
    3.3298    6.7647    2.2865 C   0  0  0  0  0  0  0  0  0  0  0  0
    3.0669    7.7861    2.1117 H   0  0  0  0  0  0  0  0  0  0  0  0
    4.4547    6.2299    2.8200 C   0  0  0  0  0  0  0  0  0  0  0  0
    5.3419    6.6927    3.1986 H   0  0  0  0  0  0  0  0  0  0  0  0
    5.2727    3.9335    3.3141 C   0  0  0  0  0  0  0  0  0  0  0  0
    6.1224    3.9164    2.6236 H   0  0  0  0  0  0  0  0  0  0  0  0
    4.8174    2.9376    3.3211 H   0  0  0  0  0  0  0  0  0  0  0  0
    5.7210    4.3163    4.7025 C   0  0  0  0  0  0  0  0  0  0  0  0
    7.0379    4.6813    4.9440 C   0  0  0  0  0  0  0  0  0  0  0  0
    7.7552    4.6747    4.1355 H   0  0  0  0  0  0  0  0  0  0  0  0
    7.4367    5.0429    6.2193 C   0  0  0  0  0  0  0  0  0  0  0  0
    8.4642    5.3202    6.4007 H   0  0  0  0  0  0  0  0  0  0  0  0
    6.5201    5.0493    7.2567 C   0  0  0  0  0  0  0  0  0  0  0  0
    6.8321    5.3317    8.2507 H   0  0  0  0  0  0  0  0  0  0  0  0
    5.2039    4.6896    7.0185 C   0  0  0  0  0  0  0  0  0  0  0  0
    4.4858    4.6887    7.8239 H   0  0  0  0  0  0  0  0  0  0  0  0
    4.8033    4.3232    5.7463 C   0  0  0  0  0  0  0  0  0  0  0  0
    3.7767    4.0375    5.5691 H   0  0  0  0  0  0  0  0  0  0  0  0
    1.1855    5.8501    1.3641 C   0  0  0  0  0  0  0  0  0  0  0  0
    0.7932    4.8306    1.2592 H   0  0  0  0  0  0  0  0  0  0  0  0
    0.2605    6.6408    2.2832 C   0  0  0  0  0  0  0  0  0  0  0  0
    0.2192    6.1788    3.2674 H   0  0  0  0  0  0  0  0  0  0  0  0
   -0.7422    6.6507    1.8662 H   0  0  0  0  0  0  0  0  0  0  0  0
    0.6006    7.6678    2.3890 H   0  0  0  0  0  0  0  0  0  0  0  0
    1.3180    6.4713   -0.0225 C   0  0  0  0  0  0  0  0  0  0  0  0
    1.6838    7.4930    0.0422 H   0  0  0  0  0  0  0  0  0  0  0  0
    0.3476    6.4820   -0.5100 H   0  0  0  0  0  0  0  0  0  0  0  0
    2.0043    5.8895   -0.6346 H   0  0  0  0  0  0  0  0  0  0  0  0
  1  7  2  0  0  0  0
  1  2  1  0  0  0  0
  3  1  1  0  0  0  0
  4  1  1  0  0  0  0
  5  8  1  0  0  0  0
  5  7  1  0  0  0  0
  6 12  1  0  0  0  0
  7  6  1  0  0  0  0
  8 10  2  0  0  0  0
  9  8  1  0  0  0  0
 10  6  1  0  0  0  0
 10 11  1  0  0  0  0
 12 14  1  0  0  0  0
 12 15  1  0  0  0  0
 13 12  1  0  0  0  0
 15 16  2  0  0  0  0
 15 24  1  0  0  0  0
 16 18  1  0  0  0  0
 17 16  1  0  0  0  0
 18 19  1  0  0  0  0
 18 20  2  0  0  0  0
 20 21  1  0  0  0  0
 22 20  1  0  0  0  0
 22 23  1  0  0  0  0
 24 22  2  0  0  0  0
 25 24  1  0  0  0  0
 26  5  1  0  0  0  0
 26 28  1  0  0  0  0
 27 26  1  0  0  0  0
 28 31  1  0  0  0  0
 28 29  1  0  0  0  0
 30 28  1  0  0  0  0
 32 33  1  0  0  0  0
 32 26  1  0  0  0  0
 34 32  1  0  0  0  0
 35 32  1  0  0  0  0
M  END
$$$$
