CSD_code = IXEYEQ | q = 0 | S = 0 | Stoichiometry = C7H5BrHgO | MND = 3
 OpenBabel04212202053D

 15 15  0  0  0  0  0  0  0  0999 V2000
    0.2801   14.2653    3.2309 Hg  0  0  0  0  0  0  0  0  0  0  0  0
   -1.0240   16.3553    2.9738 Br  0  0  0  0  0  0  0  0  0  0  0  0
    1.6898   11.6244    2.3593 C   0  0  0  0  0  0  0  0  0  0  0  0
    0.5488   13.0837    0.8582 O   0  0  0  0  0  0  0  0  0  0  0  0
    1.4512   12.3851    3.5187 C   0  0  0  0  0  0  0  0  0  0  0  0
    2.4083   10.4276    2.4235 C   0  0  0  0  0  0  0  0  0  0  0  0
    2.5766    9.8622    1.5176 H   0  0  0  0  0  0  0  0  0  0  0  0
    1.9526   11.9093    4.7249 C   0  0  0  0  0  0  0  0  0  0  0  0
    1.7943   12.4611    5.6429 H   0  0  0  0  0  0  0  0  0  0  0  0
    2.8954    9.9756    3.6332 C   0  0  0  0  0  0  0  0  0  0  0  0
    3.4503    9.0509    3.6853 H   0  0  0  0  0  0  0  0  0  0  0  0
    1.1888   12.0732    1.0594 C   0  0  0  0  0  0  0  0  0  0  0  0
    1.4362   11.4076    0.2138 H   0  0  0  0  0  0  0  0  0  0  0  0
    2.6667   10.7180    4.7806 C   0  0  0  0  0  0  0  0  0  0  0  0
    3.0455   10.3713    5.7310 H   0  0  0  0  0  0  0  0  0  0  0  0
  1  5  1  0  0  0  0
  2  1  1  0  0  0  0
  3  6  2  0  0  0  0
  3  5  1  0  0  0  0
  4 12  2  0  0  0  0
  5  8  2  0  0  0  0
  6 10  1  0  0  0  0
  7  6  1  0  0  0  0
  8 14  1  0  0  0  0
  8  9  1  0  0  0  0
 10 11  1  0  0  0  0
 10 14  2  0  0  0  0
 12  3  1  0  0  0  0
 13 12  1  0  0  0  0
 14 15  1  0  0  0  0
M  END
$$$$
