CSD_code = IXIGOM | q = 0 | S = 0 | Stoichiometry = C16H24Cl2N6Zn | MND = 4
 OpenBabel04212202053D

 49 52  0  0  0  0  0  0  0  0999 V2000
    3.6467    9.9417    8.0636 Zn  0  0  0  0  0  0  0  0  0  0  0  0
    4.2796   11.4096    6.5584 Cl  0  0  0  0  0  0  0  0  0  0  0  0
    1.9778    8.4986    7.4929 Cl  0  0  0  0  0  0  0  0  0  0  0  0
    3.0160   10.3984    9.9466 N   0  0  0  0  0  0  0  0  0  0  0  0
    0.7540   10.0146   10.6876 N   0  0  0  0  0  0  0  0  0  0  0  0
    1.2479   11.8139    9.4843 N   0  0  0  0  0  0  0  0  0  0  0  0
    4.8951    8.6185    8.9804 N   0  0  0  0  0  0  0  0  0  0  0  0
    5.7775    7.5278    7.1437 N   0  0  0  0  0  0  0  0  0  0  0  0
    4.7390    6.2387    8.6241 N   0  0  0  0  0  0  0  0  0  0  0  0
    3.6808    9.5639   10.8369 C   0  0  0  0  0  0  0  0  0  0  0  0
    4.6366    8.6567   10.3448 C   0  0  0  0  0  0  0  0  0  0  0  0
    5.3844    7.9029   11.2477 C   0  0  0  0  0  0  0  0  0  0  0  0
    6.1299    7.2223   10.8611 H   0  0  0  0  0  0  0  0  0  0  0  0
    5.1881    8.0259   12.6107 C   0  0  0  0  0  0  0  0  0  0  0  0
    5.7761    7.4305   13.2929 H   0  0  0  0  0  0  0  0  0  0  0  0
    4.2477    8.9195   13.0951 C   0  0  0  0  0  0  0  0  0  0  0  0
    4.0954    9.0274   14.1585 H   0  0  0  0  0  0  0  0  0  0  0  0
    3.5072    9.6860   12.2144 C   0  0  0  0  0  0  0  0  0  0  0  0
    2.7837   10.3991   12.5836 H   0  0  0  0  0  0  0  0  0  0  0  0
    1.7485   10.7005   10.0457 C   0  0  0  0  0  3  0  0  0  0  0  0
    0.7920    8.5771   10.8560 C   0  0  0  0  0  0  0  0  0  0  0  0
    0.8280    8.0708    9.8859 H   0  0  0  0  0  0  0  0  0  0  0  0
   -0.1067    8.2779   11.3924 H   0  0  0  0  0  0  0  0  0  0  0  0
    1.6628    8.2913   11.4409 H   0  0  0  0  0  0  0  0  0  0  0  0
   -0.5364   10.5669   10.2941 C   0  0  0  0  0  0  0  0  0  0  0  0
   -1.1665   10.7001   11.1777 H   0  0  0  0  0  0  0  0  0  0  0  0
   -1.0385    9.8810    9.6020 H   0  0  0  0  0  0  0  0  0  0  0  0
   -0.1878   11.8921    9.6102 C   0  0  0  0  0  0  0  0  0  0  0  0
   -0.6581   11.9944    8.6269 H   0  0  0  0  0  0  0  0  0  0  0  0
   -0.4654   12.7608   10.2202 H   0  0  0  0  0  0  0  0  0  0  0  0
    1.9954   12.8585    8.8448 C   0  0  0  0  0  0  0  0  0  0  0  0
    1.8869   12.8143    7.7578 H   0  0  0  0  0  0  0  0  0  0  0  0
    3.0491   12.7517    9.0939 H   0  0  0  0  0  0  0  0  0  0  0  0
    1.6366   13.8276    9.1988 H   0  0  0  0  0  0  0  0  0  0  0  0
    5.1118    7.5174    8.3113 C   0  0  0  0  0  3  0  0  0  0  0  0
    6.4776    8.6411    6.5698 C   0  0  0  0  0  0  0  0  0  0  0  0
    6.5568    9.4360    7.3082 H   0  0  0  0  0  0  0  0  0  0  0  0
    5.9505    9.0287    5.6945 H   0  0  0  0  0  0  0  0  0  0  0  0
    7.4797    8.3243    6.2706 H   0  0  0  0  0  0  0  0  0  0  0  0
    5.8136    6.2240    6.5253 C   0  0  0  0  0  0  0  0  0  0  0  0
    6.8451    5.8501    6.4939 H   0  0  0  0  0  0  0  0  0  0  0  0
    5.4298    6.2697    5.5015 H   0  0  0  0  0  0  0  0  0  0  0  0
    4.9235    5.3919    7.4520 C   0  0  0  0  0  0  0  0  0  0  0  0
    3.9522    5.1834    6.9884 H   0  0  0  0  0  0  0  0  0  0  0  0
    5.3851    4.4458    7.7464 H   0  0  0  0  0  0  0  0  0  0  0  0
    3.5666    5.9520    9.4241 C   0  0  0  0  0  0  0  0  0  0  0  0
    2.6663    6.3708    8.9628 H   0  0  0  0  0  0  0  0  0  0  0  0
    3.6839    6.3670   10.4227 H   0  0  0  0  0  0  0  0  0  0  0  0
    3.4689    4.8707    9.5008 H   0  0  0  0  0  0  0  0  0  0  0  0
  1  7  1  0  0  0  0
  1  4  1  0  0  0  0
  2  1  1  0  0  0  0
  3  1  1  0  0  0  0
  4 20  1  0  0  0  0
  4 10  1  0  0  0  0
  5 21  1  0  0  0  0
  6 28  1  0  0  0  0
  6 20  1  0  0  0  0
  7 11  1  0  0  0  0
  8 35  1  0  0  0  0
  9 46  1  0  0  0  0
 10 18  1  0  0  0  0
 11 10  2  0  0  0  0
 11 12  1  0  0  0  0
 12 14  2  0  0  0  0
 13 12  1  0  0  0  0
 14 16  1  0  0  0  0
 14 15  1  0  0  0  0
 16 17  1  0  0  0  0
 18 19  1  0  0  0  0
 18 16  2  0  0  0  0
 20  5  1  0  0  0  0
 21 23  1  0  0  0  0
 21 24  1  0  0  0  0
 22 21  1  0  0  0  0
 25  5  1  0  0  0  0
 25 26  1  0  0  0  0
 27 25  1  0  0  0  0
 28 30  1  0  0  0  0
 28 25  1  0  0  0  0
 29 28  1  0  0  0  0
 31 33  1  0  0  0  0
 31 34  1  0  0  0  0
 31  6  1  0  0  0  0
 32 31  1  0  0  0  0
 35  9  1  0  0  0  0
 35  7  1  0  0  0  0
 36  8  1  0  0  0  0
 36 37  1  0  0  0  0
 38 36  1  0  0  0  0
 39 36  1  0  0  0  0
 40  8  1  0  0  0  0
 40 43  1  0  0  0  0
 41 40  1  0  0  0  0
 42 40  1  0  0  0  0
 43 45  1  0  0  0  0
 43  9  1  0  0  0  0
 44 43  1  0  0  0  0
 46 49  1  0  0  0  0
 46 48  1  0  0  0  0
 47 46  1  0  0  0  0
M  END
$$$$
