CSD_code = IXIHAZ | q = 0 | S = 0 | Stoichiometry = C32H26Br2N2O2PRe | MND = 6
 OpenBabel04212202053D

 66 72  0  0  1  0  0  0  0  0999 V2000
   10.9770    0.5019    1.3813 Re  0  0  0  0  0  0  0  0  0  0  0  0
   11.7671    0.0337   -0.9547 Br  0  0  0  0  0  0  0  0  0  0  0  0
    9.2310   -1.2171    1.2035 Br  0  0  0  0  0  0  0  0  0  0  0  0
   10.1867    1.0322    3.7336 P   0  0  0  0  0  4  0  0  0  0  0  0
   12.3785    2.3335    1.3365 N   0  0  1  0  0  0  0  0  0  0  0  0
   13.6713    2.3125    1.0192 N   0  0  0  0  0  0  0  0  0  0  0  0
   12.1198   -0.4560    2.1124 O   0  0  0  0  0  1  0  0  0  0  0  0
    9.8486    1.8011    0.7778 O   0  0  0  0  0  0  0  0  0  0  0  0
    9.5427    3.0599    0.9323 C   0  0  0  0  0  0  0  0  0  0  0  0
    8.2065    3.4909    0.7447 C   0  0  0  0  0  0  0  0  0  0  0  0
    7.4905    2.7651    0.3890 H   0  0  0  0  0  0  0  0  0  0  0  0
    7.8557    4.7748    1.0184 C   0  0  0  0  0  0  0  0  0  0  0  0
    6.8384    5.1046    0.8674 H   0  0  0  0  0  0  0  0  0  0  0  0
    8.7976    5.6907    1.5382 C   0  0  0  0  0  0  0  0  0  0  0  0
   10.1547    5.2948    1.6775 C   0  0  0  0  0  0  0  0  0  0  0  0
   10.5374    3.9817    1.2891 C   0  0  0  0  0  0  0  0  0  0  0  0
   11.9322    3.5831    1.1507 C   0  0  2  0  0  3  0  0  0  0  0  0
   13.0006    4.3764    0.6924 C   0  0  0  0  0  0  0  0  0  0  0  0
   12.9614    5.4065    0.4068 H   0  0  0  0  0  0  0  0  0  0  0  0
   14.0781    3.5265    0.6225 C   0  0  0  0  0  0  0  0  0  0  0  0
   15.0893    3.7070    0.3187 H   0  0  0  0  0  0  0  0  0  0  0  0
   14.4759    1.1248    1.0697 C   0  0  0  0  0  0  0  0  0  0  0  0
   15.4409    1.3524    1.5204 H   0  0  0  0  0  0  0  0  0  0  0  0
   14.6219    0.7267    0.0627 H   0  0  0  0  0  0  0  0  0  0  0  0
   13.9626    0.3694    1.6669 H   0  0  0  0  0  0  0  0  0  0  0  0
    8.4120    6.9862    1.9315 C   0  0  0  0  0  0  0  0  0  0  0  0
    7.3786    7.2749    1.8044 H   0  0  0  0  0  0  0  0  0  0  0  0
    9.3160    7.8550    2.4775 C   0  0  0  0  0  0  0  0  0  0  0  0
    9.0118    8.8458    2.7801 H   0  0  0  0  0  0  0  0  0  0  0  0
   10.6433    7.4492    2.6661 C   0  0  0  0  0  0  0  0  0  0  0  0
   11.3452    8.1262    3.1307 H   0  0  0  0  0  0  0  0  0  0  0  0
   11.0532    6.2034    2.2758 C   0  0  0  0  0  0  0  0  0  0  0  0
   12.0725    5.8979    2.4572 H   0  0  0  0  0  0  0  0  0  0  0  0
   11.4778    1.7972    4.7566 C   0  0  0  0  0  0  0  0  0  0  0  0
   11.9408    3.0729    4.4378 C   0  0  0  0  0  0  0  0  0  0  0  0
   11.4855    3.6215    3.6271 H   0  0  0  0  0  0  0  0  0  0  0  0
   12.9789    3.6387    5.1531 C   0  0  0  0  0  0  0  0  0  0  0  0
   13.3251    4.6310    4.9024 H   0  0  0  0  0  0  0  0  0  0  0  0
   13.5769    2.9329    6.1848 C   0  0  0  0  0  0  0  0  0  0  0  0
   14.3918    3.3731    6.7397 H   0  0  0  0  0  0  0  0  0  0  0  0
   13.1301    1.6600    6.4979 C   0  0  0  0  0  0  0  0  0  0  0  0
   13.5970    1.1051    7.2980 H   0  0  0  0  0  0  0  0  0  0  0  0
   12.0883    1.0898    5.7884 C   0  0  0  0  0  0  0  0  0  0  0  0
   11.7480    0.0948    6.0348 H   0  0  0  0  0  0  0  0  0  0  0  0
    9.7090   -0.4484    4.6719 C   0  0  0  0  0  0  0  0  0  0  0  0
   10.3777   -1.6451    4.4277 C   0  0  0  0  0  0  0  0  0  0  0  0
   11.1507   -1.6806    3.6695 H   0  0  0  0  0  0  0  0  0  0  0  0
   10.0424   -2.7810    5.1406 C   0  0  0  0  0  0  0  0  0  0  0  0
   10.5543   -3.7096    4.9407 H   0  0  0  0  0  0  0  0  0  0  0  0
    9.0434   -2.7273    6.0992 C   0  0  0  0  0  0  0  0  0  0  0  0
    8.7753   -3.6165    6.6496 H   0  0  0  0  0  0  0  0  0  0  0  0
    8.3835   -1.5352    6.3501 C   0  0  0  0  0  0  0  0  0  0  0  0
    7.6057   -1.4933    7.0982 H   0  0  0  0  0  0  0  0  0  0  0  0
    8.7120   -0.3941    5.6413 C   0  0  0  0  0  0  0  0  0  0  0  0
    8.1935    0.5343    5.8365 H   0  0  0  0  0  0  0  0  0  0  0  0
    8.7090    2.0809    3.8166 C   0  0  0  0  0  0  0  0  0  0  0  0
    7.5519    1.5438    3.2500 C   0  0  0  0  0  0  0  0  0  0  0  0
    7.5731    0.5481    2.8252 H   0  0  0  0  0  0  0  0  0  0  0  0
    6.3829    2.2794    3.2372 C   0  0  0  0  0  0  0  0  0  0  0  0
    5.4896    1.8566    2.8029 H   0  0  0  0  0  0  0  0  0  0  0  0
    6.3615    3.5574    3.7741 C   0  0  0  0  0  0  0  0  0  0  0  0
    5.4497    4.1355    3.7574 H   0  0  0  0  0  0  0  0  0  0  0  0
    7.5083    4.0920    4.3359 C   0  0  0  0  0  0  0  0  0  0  0  0
    7.4940    5.0863    4.7575 H   0  0  0  0  0  0  0  0  0  0  0  0
    8.6814    3.3583    4.3636 C   0  0  0  0  0  0  0  0  0  0  0  0
    9.5641    3.7777    4.8234 H   0  0  0  0  0  0  0  0  0  0  0  0
  1  7  1  0  0  0  0
  1  4  1  0  0  0  0
  2  1  1  0  0  0  0
  3  1  1  0  0  0  0
  4 56  1  0  0  0  0
  4 45  1  0  0  0  0
  4 34  1  0  0  0  0
  5  6  1  6  0  0  0
  5  1  1  0  0  0  0
  6 22  1  0  0  0  0
  8  9  1  0  0  0  0
  8  1  1  0  0  0  0
  9 16  1  0  0  0  0
 10  9  2  0  0  0  0
 10 12  1  0  0  0  0
 11 10  1  0  0  0  0
 12 14  2  0  0  0  0
 13 12  1  0  0  0  0
 14 15  1  0  0  0  0
 14 26  1  0  0  0  0
 15 32  1  0  0  0  0
 16 15  2  0  0  0  0
 17 18  1  6  0  0  0
 17 16  1  0  0  0  0
 17  5  1  0  0  0  0
 19 18  1  0  0  0  0
 20 18  2  0  0  0  0
 20  6  1  0  0  0  0
 21 20  1  0  0  0  0
 22 23  1  0  0  0  0
 22 25  1  0  0  0  0
 24 22  1  0  0  0  0
 26 28  2  0  0  0  0
 27 26  1  0  0  0  0
 28 30  1  0  0  0  0
 28 29  1  0  0  0  0
 30 31  1  0  0  0  0
 32 33  1  0  0  0  0
 32 30  2  0  0  0  0
 34 43  1  0  0  0  0
 35 34  2  0  0  0  0
 35 37  1  0  0  0  0
 36 35  1  0  0  0  0
 37 39  2  0  0  0  0
 38 37  1  0  0  0  0
 39 41  1  0  0  0  0
 39 40  1  0  0  0  0
 41 42  1  0  0  0  0
 43 44  1  0  0  0  0
 43 41  2  0  0  0  0
 45 54  1  0  0  0  0
 46 45  2  0  0  0  0
 46 48  1  0  0  0  0
 47 46  1  0  0  0  0
 48 50  2  0  0  0  0
 49 48  1  0  0  0  0
 50 52  1  0  0  0  0
 50 51  1  0  0  0  0
 52 53  1  0  0  0  0
 54 55  1  0  0  0  0
 54 52  2  0  0  0  0
 56 65  1  0  0  0  0
 57 56  2  0  0  0  0
 58 57  1  0  0  0  0
 59 57  1  0  0  0  0
 59 61  2  0  0  0  0
 60 59  1  0  0  0  0
 61 63  1  0  0  0  0
 62 61  1  0  0  0  0
 63 65  2  0  0  0  0
 63 64  1  0  0  0  0
 65 66  1  0  0  0  0
M  END
$$$$
