CSD_code = IXIPAH | q = 0 | S = 0 | Stoichiometry = C18H32Cl2N4Zn | MND = 4
 OpenBabel04212202053D

 57 60  0  0  1  0  0  0  0  0999 V2000
    0.8966    6.0073    9.0842 Zn  0  0  0  0  0  0  0  0  0  0  0  0
    2.0001    7.7645    8.2585 Cl  0  0  0  0  0  0  0  0  0  0  0  0
   -0.7584    6.2261   10.5455 Cl  0  0  0  0  0  0  0  0  0  0  0  0
    0.0437    5.2836    7.3197 N   0  0  0  0  0  0  0  0  0  0  0  0
    0.3179    5.0187    5.0127 N   0  0  2  0  0  0  0  0  0  0  0  0
    2.3147    4.8008   10.0207 N   0  0  0  0  0  0  0  0  0  0  0  0
    2.8157    3.1907   11.6316 N   0  0  1  0  0  0  0  0  0  0  0  0
    0.7283    4.9079    6.2919 C   0  0  2  0  0  3  0  0  0  0  0  0
    2.0574    4.2587    6.5504 C   0  0  0  0  0  0  0  0  0  0  0  0
    2.1311    3.3221    5.9922 H   0  0  0  0  0  0  0  0  0  0  0  0
    2.0931    4.0282    7.6146 H   0  0  0  0  0  0  0  0  0  0  0  0
    3.2401    5.1726    6.2079 C   0  0  0  0  0  0  0  0  0  0  0  0
    3.0213    6.1790    6.5681 H   0  0  0  0  0  0  0  0  0  0  0  0
    4.1182    4.8129    6.7481 H   0  0  0  0  0  0  0  0  0  0  0  0
    3.5723    5.2064    4.7202 C   0  0  0  0  0  0  0  0  0  0  0  0
    4.4306    5.8638    4.5698 H   0  0  0  0  0  0  0  0  0  0  0  0
    3.8614    4.2051    4.3857 H   0  0  0  0  0  0  0  0  0  0  0  0
    2.4146    5.7020    3.8599 C   0  0  0  0  0  0  0  0  0  0  0  0
    2.7545    5.7906    2.8260 H   0  0  0  0  0  0  0  0  0  0  0  0
    2.1069    6.6921    4.1998 H   0  0  0  0  0  0  0  0  0  0  0  0
    1.2064    4.7601    3.8994 C   0  0  0  0  0  0  0  0  0  0  0  0
    0.6182    4.8842    2.9877 H   0  0  0  0  0  0  0  0  0  0  0  0
    1.5503    3.7204    3.9287 H   0  0  0  0  0  0  0  0  0  0  0  0
   -0.9357    5.6844    4.7141 C   0  0  0  0  0  0  0  0  0  0  0  0
   -1.3209    5.2896    3.7691 H   0  0  0  0  0  0  0  0  0  0  0  0
   -0.7769    6.7639    4.5973 H   0  0  0  0  0  0  0  0  0  0  0  0
   -1.9193    5.4198    5.8436 C   0  0  0  0  0  0  0  0  0  0  0  0
   -2.8527    5.9535    5.6715 H   0  0  0  0  0  0  0  0  0  0  0  0
   -2.1307    4.3497    5.8971 H   0  0  0  0  0  0  0  0  0  0  0  0
   -1.2705    5.8770    7.1401 C   0  0  0  0  0  0  0  0  0  0  0  0
   -1.1691    6.9681    7.1519 H   0  0  0  0  0  0  0  0  0  0  0  0
   -1.8739    5.5981    8.0068 H   0  0  0  0  0  0  0  0  0  0  0  0
    2.0137    3.7476   10.7057 C   0  0  2  0  0  3  0  0  0  0  0  0
    0.7111    3.0672   10.4086 C   0  0  0  0  0  0  0  0  0  0  0  0
    0.1810    3.6858    9.6863 H   0  0  0  0  0  0  0  0  0  0  0  0
    0.0926    3.0273   11.3060 H   0  0  0  0  0  0  0  0  0  0  0  0
    0.9037    1.6610    9.8278 C   0  0  0  0  0  0  0  0  0  0  0  0
    0.0197    1.4130    9.2380 H   0  0  0  0  0  0  0  0  0  0  0  0
    1.7599    1.6642    9.1491 H   0  0  0  0  0  0  0  0  0  0  0  0
    1.0885    0.5773   10.8871 C   0  0  0  0  0  0  0  0  0  0  0  0
    1.1165   -0.3982   10.3961 H   0  0  0  0  0  0  0  0  0  0  0  0
    0.2254    0.5832   11.5566 H   0  0  0  0  0  0  0  0  0  0  0  0
    2.3599    0.7515   11.7119 C   0  0  0  0  0  0  0  0  0  0  0  0
    2.4249   -0.0617   12.4372 H   0  0  0  0  0  0  0  0  0  0  0  0
    3.2359    0.6903   11.0622 H   0  0  0  0  0  0  0  0  0  0  0  0
    2.3886    2.0853   12.4631 C   0  0  0  0  0  0  0  0  0  0  0  0
    1.3999    2.2945   12.8806 H   0  0  0  0  0  0  0  0  0  0  0  0
    3.0904    2.0227   13.2977 H   0  0  0  0  0  0  0  0  0  0  0  0
    4.1684    3.6720   11.8439 C   0  0  0  0  0  0  0  0  0  0  0  0
    4.8134    2.8107   12.0468 H   0  0  0  0  0  0  0  0  0  0  0  0
    4.1936    4.3325   12.7201 H   0  0  0  0  0  0  0  0  0  0  0  0
    4.6551    4.4188   10.6115 C   0  0  0  0  0  0  0  0  0  0  0  0
    4.7830    3.7181    9.7832 H   0  0  0  0  0  0  0  0  0  0  0  0
    5.6106    4.9007   10.8123 H   0  0  0  0  0  0  0  0  0  0  0  0
    3.5957    5.4465   10.2410 C   0  0  0  0  0  0  0  0  0  0  0  0
    3.4926    6.1908   11.0386 H   0  0  0  0  0  0  0  0  0  0  0  0
    3.8559    5.9808    9.3260 H   0  0  0  0  0  0  0  0  0  0  0  0
  1  6  1  0  0  0  0
  1  3  1  0  0  0  0
  2  1  1  0  0  0  0
  4  1  1  0  0  0  0
  5 21  1  6  0  0  0
  5  8  1  0  0  0  0
  6 55  1  0  0  0  0
  7 49  1  6  0  0  0
  7 46  1  0  0  0  0
  8  9  1  1  0  0  0
  8  4  1  0  0  0  0
  9 11  1  0  0  0  0
 10  9  1  0  0  0  0
 12  9  1  0  0  0  0
 12 13  1  0  0  0  0
 12 14  1  0  0  0  0
 15 12  1  0  0  0  0
 16 15  1  0  0  0  0
 17 15  1  0  0  0  0
 18 21  1  0  0  0  0
 18 20  1  0  0  0  0
 18 15  1  0  0  0  0
 19 18  1  0  0  0  0
 21 23  1  0  0  0  0
 22 21  1  0  0  0  0
 24  5  1  0  0  0  0
 24 27  1  0  0  0  0
 25 24  1  0  0  0  0
 26 24  1  0  0  0  0
 27 29  1  0  0  0  0
 27 30  1  0  0  0  0
 28 27  1  0  0  0  0
 30 31  1  0  0  0  0
 30  4  1  0  0  0  0
 30 32  1  0  0  0  0
 33  6  1  6  0  0  0
 33  7  1  0  0  0  0
 34 33  1  0  0  0  0
 34 36  1  0  0  0  0
 35 34  1  0  0  0  0
 37 34  1  0  0  0  0
 37 40  1  0  0  0  0
 38 37  1  0  0  0  0
 39 37  1  0  0  0  0
 40 42  1  0  0  0  0
 40 43  1  0  0  0  0
 41 40  1  0  0  0  0
 43 44  1  0  0  0  0
 43 46  1  0  0  0  0
 45 43  1  0  0  0  0
 46 47  1  0  0  0  0
 46 48  1  0  0  0  0
 49 50  1  0  0  0  0
 49 51  1  0  0  0  0
 52 54  1  0  0  0  0
 52 49  1  0  0  0  0
 53 52  1  0  0  0  0
 55 52  1  0  0  0  0
 55 56  1  0  0  0  0
 57 55  1  0  0  0  0
M  END
$$$$
