CSD_code = IXIXUJ | q = 0 | S = 0 | Stoichiometry = C26H30Cl4N4Pd | MND = 4
 OpenBabel04212202053D

 65 68  0  0  1  0  0  0  0  0999 V2000
    2.1481    0.6788   12.4999 Pd  0  0  0  0  0  0  0  0  0  0  0  0
    0.2971    6.8844    7.2954 Cl  0  0  0  0  0  0  0  0  0  0  0  0
    1.8510   -0.9509   10.8806 Cl  0  0  0  0  0  0  0  0  0  0  0  0
    3.8454    1.2303   11.6205 N   0  0  0  0  0  0  0  0  0  0  0  0
    4.0380    2.3685   10.9435 N   0  0  0  0  0  0  0  0  0  0  0  0
    5.0236   -0.8813   12.0669 C   0  0  0  0  0  0  0  0  0  0  0  0
    4.3827   -0.9335   12.9551 H   0  0  0  0  0  0  0  0  0  0  0  0
    6.0536   -1.0861   12.3486 H   0  0  0  0  0  0  0  0  0  0  0  0
    4.6948   -1.6454   11.3620 H   0  0  0  0  0  0  0  0  0  0  0  0
    4.9124    0.4640   11.4422 C   0  0  1  0  0  3  0  0  0  0  0  0
    5.8209    1.1363   10.6158 C   0  0  0  0  0  0  0  0  0  0  0  0
    6.7757    0.7817   10.2867 H   0  0  0  0  0  0  0  0  0  0  0  0
    5.2319    2.3471   10.3135 C   0  0  0  0  0  0  0  0  0  0  0  0
    5.7200    3.4707    9.4764 C   0  0  0  0  0  0  0  0  0  0  0  0
    5.0226    3.6735    8.6644 H   0  0  0  0  0  0  0  0  0  0  0  0
    6.6874    3.2155    9.0541 H   0  0  0  0  0  0  0  0  0  0  0  0
    5.8291    4.3783   10.0702 H   0  0  0  0  0  0  0  0  0  0  0  0
    3.0846    3.4545   10.9746 C   0  0  0  0  0  0  0  0  0  0  0  0
    3.6320    4.3972   11.0526 H   0  0  0  0  0  0  0  0  0  0  0  0
    2.4790    3.3218   11.8860 H   0  0  0  0  0  0  0  0  0  0  0  0
    2.1939    3.4547    9.7576 C   0  0  0  0  0  0  0  0  0  0  0  0
    2.2345    4.4880    8.8346 C   0  0  0  0  0  0  0  0  0  0  0  0
    2.8991    5.3263    8.9907 H   0  0  0  0  0  0  0  0  0  0  0  0
    1.4145    4.4689    7.7119 C   0  0  0  0  0  0  0  0  0  0  0  0
    0.5468    3.4004    7.5225 C   0  0  0  0  0  0  0  0  0  0  0  0
   -0.0952    3.3820    6.6544 H   0  0  0  0  0  0  0  0  0  0  0  0
    0.5008    2.3666    8.4421 C   0  0  0  0  0  0  0  0  0  0  0  0
   -0.1732    1.5375    8.2916 H   0  0  0  0  0  0  0  0  0  0  0  0
    1.3180    2.3943    9.5566 C   0  0  0  0  0  0  0  0  0  0  0  0
    1.2834    1.5771   10.2796 H   0  0  0  0  0  0  0  0  0  0  0  0
    1.4416    5.6060    6.7448 C   0  0  0  0  0  0  0  0  0  0  0  0
    1.1107    5.3067    5.7515 H   0  0  0  0  0  0  0  0  0  0  0  0
    2.4211    6.0794    6.6919 H   0  0  0  0  0  0  0  0  0  0  0  0
    3.9995   -5.5261   17.7056 Cl  0  0  0  0  0  0  0  0  0  0  0  0
    2.4450    2.3084   14.1207 Cl  0  0  0  0  0  0  0  0  0  0  0  0
    0.4512    0.1282   13.3809 N   0  0  0  0  0  0  0  0  0  0  0  0
    0.2586   -1.0101   14.0578 N   0  0  0  0  0  0  0  0  0  0  0  0
   -0.7272    2.2397   12.9345 C   0  0  0  0  0  0  0  0  0  0  0  0
   -0.0864    2.2918   12.0462 H   0  0  0  0  0  0  0  0  0  0  0  0
   -1.7572    2.4446   12.6529 H   0  0  0  0  0  0  0  0  0  0  0  0
   -0.3983    3.0038   13.6393 H   0  0  0  0  0  0  0  0  0  0  0  0
   -0.6158    0.8945   13.5592 C   0  0  2  0  0  3  0  0  0  0  0  0
   -1.5244    0.2221   14.3855 C   0  0  0  0  0  0  0  0  0  0  0  0
   -2.4792    0.5766   14.7145 H   0  0  0  0  0  0  0  0  0  0  0  0
   -0.9353   -0.9888   14.6877 C   0  0  0  0  0  0  0  0  0  0  0  0
   -1.4235   -2.1125   15.5246 C   0  0  0  0  0  0  0  0  0  0  0  0
   -0.7261   -2.3153   16.3366 H   0  0  0  0  0  0  0  0  0  0  0  0
   -2.3909   -1.8573   15.9470 H   0  0  0  0  0  0  0  0  0  0  0  0
   -1.5326   -3.0200   14.9307 H   0  0  0  0  0  0  0  0  0  0  0  0
    1.2119   -2.0961   14.0266 C   0  0  0  0  0  0  0  0  0  0  0  0
    0.6646   -3.0387   13.9484 H   0  0  0  0  0  0  0  0  0  0  0  0
    1.8176   -1.9632   13.1152 H   0  0  0  0  0  0  0  0  0  0  0  0
    2.1027   -2.0963   15.2436 C   0  0  0  0  0  0  0  0  0  0  0  0
    2.0621   -3.1297   16.1664 C   0  0  0  0  0  0  0  0  0  0  0  0
    1.3975   -3.9681   16.0102 H   0  0  0  0  0  0  0  0  0  0  0  0
    2.8819   -3.1106   17.2892 C   0  0  0  0  0  0  0  0  0  0  0  0
    3.7496   -2.0421   17.4788 C   0  0  0  0  0  0  0  0  0  0  0  0
    4.3914   -2.0236   18.3469 H   0  0  0  0  0  0  0  0  0  0  0  0
    3.7956   -1.0082   16.5592 C   0  0  0  0  0  0  0  0  0  0  0  0
    4.4695   -0.1791   16.7098 H   0  0  0  0  0  0  0  0  0  0  0  0
    2.9785   -1.0359   15.4447 C   0  0  0  0  0  0  0  0  0  0  0  0
    3.0132   -0.2186   14.7217 H   0  0  0  0  0  0  0  0  0  0  0  0
    2.8549   -4.2478   18.2563 C   0  0  0  0  0  0  0  0  0  0  0  0
    3.1857   -3.9485   19.2496 H   0  0  0  0  0  0  0  0  0  0  0  0
    1.8754   -4.7212   18.3090 H   0  0  0  0  0  0  0  0  0  0  0  0
  1 36  1  0  0  0  0
  1 35  1  0  0  0  0
  3  1  1  0  0  0  0
  4  1  1  0  0  0  0
  5 18  1  0  0  0  0
  5  4  1  0  0  0  0
  6  8  1  0  0  0  0
  6  7  1  0  0  0  0
  9  6  1  0  0  0  0
 10  4  1  0  0  0  0
 10  6  1  6  0  0  0
 11 10  1  0  0  0  0
 12 11  1  0  0  0  0
 13 11  2  0  0  0  0
 13  5  1  0  0  0  0
 14 17  1  0  0  0  0
 14 13  1  0  0  0  0
 15 14  1  0  0  0  0
 16 14  1  0  0  0  0
 18 19  1  0  0  0  0
 18 20  1  0  0  0  0
 21 18  1  0  0  0  0
 22 23  1  0  0  0  0
 22 21  2  0  0  0  0
 24 22  1  0  0  0  0
 25 24  2  0  0  0  0
 25 27  1  0  0  0  0
 26 25  1  0  0  0  0
 27 29  2  0  0  0  0
 28 27  1  0  0  0  0
 29 21  1  0  0  0  0
 29 30  1  0  0  0  0
 31  2  1  0  0  0  0
 31 24  1  0  0  0  0
 32 31  1  0  0  0  0
 33 31  1  0  0  0  0
 34 63  1  0  0  0  0
 36 42  1  0  0  0  0
 36 37  1  0  0  0  0
 37 45  1  0  0  0  0
 38 41  1  0  0  0  0
 39 38  1  0  0  0  0
 40 38  1  0  0  0  0
 42 38  1  1  0  0  0
 42 43  1  0  0  0  0
 43 45  2  0  0  0  0
 43 44  1  0  0  0  0
 45 46  1  0  0  0  0
 46 48  1  0  0  0  0
 46 47  1  0  0  0  0
 49 46  1  0  0  0  0
 50 37  1  0  0  0  0
 50 53  1  0  0  0  0
 51 50  1  0  0  0  0
 52 50  1  0  0  0  0
 53 61  2  0  0  0  0
 53 54  1  0  0  0  0
 54 56  2  0  0  0  0
 55 54  1  0  0  0  0
 56 57  1  0  0  0  0
 56 63  1  0  0  0  0
 57 58  1  0  0  0  0
 59 60  1  0  0  0  0
 59 57  2  0  0  0  0
 61 59  1  0  0  0  0
 62 61  1  0  0  0  0
 63 65  1  0  0  0  0
 63 64  1  0  0  0  0
M  END
$$$$
