CSD_code = IXIYAQ | q = 0 | S = 0 | Stoichiometry = C21H32ClN2OPPd | MND = 4
 OpenBabel04212202053D

 59 62  0  0  1  0  0  0  0  0999 V2000
    4.0046   -1.7974   -1.6275 C   0  0  0  0  0  0  0  0  0  0  0  0
    4.4476   -2.6938   -2.0598 H   0  0  0  0  0  0  0  0  0  0  0  0
    2.9914   -1.7018   -2.0201 H   0  0  0  0  0  0  0  0  0  0  0  0
    3.9572   -1.9303   -0.5352 H   0  0  0  0  0  0  0  0  0  0  0  0
    5.2471    3.0655   -2.1268 C   0  0  0  0  0  0  0  0  0  0  0  0
    4.2930    3.1277   -2.6444 H   0  0  0  0  0  0  0  0  0  0  0  0
    5.9505    2.5207   -2.7517 H   0  0  0  0  0  0  0  0  0  0  0  0
    5.6334    4.0743   -1.9857 H   0  0  0  0  0  0  0  0  0  0  0  0
    4.7185   -0.2410   -3.4605 C   0  0  0  0  0  0  0  0  0  0  0  0
    5.3461    0.6018   -3.7367 H   0  0  0  0  0  0  0  0  0  0  0  0
    3.6910   -0.0019   -3.7241 H   0  0  0  0  0  0  0  0  0  0  0  0
    5.0314   -1.1042   -4.0469 H   0  0  0  0  0  0  0  0  0  0  0  0
    6.3056   -0.8398   -1.6177 C   0  0  0  0  0  0  0  0  0  0  0  0
    6.6289   -1.7663   -2.0910 H   0  0  0  0  0  0  0  0  0  0  0  0
    6.4191   -0.9479   -0.5409 H   0  0  0  0  0  0  0  0  0  0  0  0
    6.9549   -0.0427   -1.9703 H   0  0  0  0  0  0  0  0  0  0  0  0
    6.4155    2.1310   -0.0906 C   0  0  0  0  0  0  0  0  0  0  0  0
    6.8194    3.0676    0.2921 H   0  0  0  0  0  0  0  0  0  0  0  0
    7.1454    1.7065   -0.7726 H   0  0  0  0  0  0  0  0  0  0  0  0
    6.2863    1.4431    0.7465 H   0  0  0  0  0  0  0  0  0  0  0  0
    4.8501   -0.5635   -1.9743 C   0  0  0  0  0  0  0  0  0  0  0  0
    3.4147    0.0275    1.0907 Pd  0  0  2  0  0  0  0  0  0  0  0  0
    4.0993    0.7865   -0.8804 P   0  0  0  0  0  4  0  0  0  0  0  0
    5.4551   -0.9223    1.7150 Cl  0  0  0  0  0  0  0  0  0  0  0  0
    2.5383   -0.7861    2.7748 N   0  0  2  0  0  0  0  0  0  0  0  0
    2.8745    1.2894   -1.8039 O   0  0  0  0  0  0  0  0  0  0  0  0
    1.7264    1.1290    0.9330 C   0  0  0  0  0  0  0  0  0  0  0  0
    2.2841   -2.0324    3.1430 C   0  0  2  0  0  3  0  0  0  0  0  0
    1.9837    0.0306    3.6675 N   0  0  0  0  0  0  0  0  0  0  0  0
    1.2939    1.7401    2.1168 C   0  0  0  0  0  0  0  0  0  0  0  0
    5.0755    2.3827   -0.7760 C   0  0  0  0  0  0  0  0  0  0  0  0
    2.7490   -3.1852    2.3275 C   0  0  0  0  0  0  0  0  0  0  0  0
    2.0087   -3.4295    1.5630 H   0  0  0  0  0  0  0  0  0  0  0  0
    2.9065   -4.0604    2.9525 H   0  0  0  0  0  0  0  0  0  0  0  0
    3.6873   -2.9186    1.8346 H   0  0  0  0  0  0  0  0  0  0  0  0
    1.5369   -2.0042    4.3286 C   0  0  0  0  0  0  0  0  0  0  0  0
    1.1791   -2.8457    4.8858 H   0  0  0  0  0  0  0  0  0  0  0  0
    2.0423    1.4489    3.4080 C   0  0  0  0  0  0  0  0  0  0  0  0
    3.1072    1.7298    3.3016 H   0  0  0  0  0  0  0  0  0  0  0  0
    1.6113    1.9902    4.2510 H   0  0  0  0  0  0  0  0  0  0  0  0
    1.0316    1.4264   -0.2364 C   0  0  0  0  0  0  0  0  0  0  0  0
    1.5384    0.8563   -1.5338 C   0  0  0  0  0  0  0  0  0  0  0  0
    0.9422    1.2089   -2.3804 H   0  0  0  0  0  0  0  0  0  0  0  0
    1.4935   -0.2396   -1.4965 H   0  0  0  0  0  0  0  0  0  0  0  0
    1.3528   -0.6682    4.6328 C   0  0  0  0  0  0  0  0  0  0  0  0
    4.2126    3.2380    0.1578 C   0  0  0  0  0  0  0  0  0  0  0  0
    4.6858    4.2017    0.3404 H   0  0  0  0  0  0  0  0  0  0  0  0
    4.0936    2.7196    1.1198 H   0  0  0  0  0  0  0  0  0  0  0  0
    3.2256    3.4124   -0.2693 H   0  0  0  0  0  0  0  0  0  0  0  0
   -0.0730    2.2680   -0.2236 C   0  0  0  0  0  0  0  0  0  0  0  0
   -0.5954    2.4812   -1.1459 H   0  0  0  0  0  0  0  0  0  0  0  0
    0.1825    2.5692    2.1339 C   0  0  0  0  0  0  0  0  0  0  0  0
   -0.1389    3.0231    3.0618 H   0  0  0  0  0  0  0  0  0  0  0  0
   -0.5057    2.8317    0.9624 C   0  0  0  0  0  0  0  0  0  0  0  0
   -1.3677    3.4818    0.9735 H   0  0  0  0  0  0  0  0  0  0  0  0
    0.6318   -0.0288    5.7628 C   0  0  0  0  0  0  0  0  0  0  0  0
    1.3065    0.5885    6.3560 H   0  0  0  0  0  0  0  0  0  0  0  0
    0.2120   -0.7976    6.4050 H   0  0  0  0  0  0  0  0  0  0  0  0
   -0.1797    0.6005    5.3966 H   0  0  0  0  0  0  0  0  0  0  0  0
  1  4  1  0  0  0  0
  2  1  1  0  0  0  0
  3  1  1  0  0  0  0
  5  8  1  0  0  0  0
  5 31  1  0  0  0  0
  6  5  1  0  0  0  0
  7  5  1  0  0  0  0
  9 21  1  0  0  0  0
 10  9  1  0  0  0  0
 11  9  1  0  0  0  0
 12  9  1  0  0  0  0
 13 15  1  0  0  0  0
 14 13  1  0  0  0  0
 16 13  1  0  0  0  0
 17 18  1  0  0  0  0
 17 20  1  0  0  0  0
 19 17  1  0  0  0  0
 21  1  1  0  0  0  0
 21 13  1  0  0  0  0
 21 23  1  0  0  0  0
 22 24  1  1  0  0  0
 22 25  1  0  0  0  0
 23 31  1  0  0  0  0
 23 22  1  0  0  0  0
 25 28  1  0  0  0  0
 25 29  1  6  0  0  0
 26 42  1  0  0  0  0
 26 23  1  0  0  0  0
 27 22  1  0  0  0  0
 27 30  1  0  0  0  0
 28 32  1  6  0  0  0
 28 36  1  0  0  0  0
 29 45  1  0  0  0  0
 30 52  2  0  0  0  0
 30 38  1  0  0  0  0
 31 17  1  0  0  0  0
 31 46  1  0  0  0  0
 32 34  1  0  0  0  0
 33 32  1  0  0  0  0
 35 32  1  0  0  0  0
 36 45  2  0  0  0  0
 36 37  1  0  0  0  0
 38 29  1  0  0  0  0
 38 40  1  0  0  0  0
 39 38  1  0  0  0  0
 41 50  1  0  0  0  0
 41 27  2  0  0  0  0
 42 44  1  0  0  0  0
 42 41  1  0  0  0  0
 43 42  1  0  0  0  0
 45 56  1  0  0  0  0
 46 47  1  0  0  0  0
 46 48  1  0  0  0  0
 49 46  1  0  0  0  0
 50 54  2  0  0  0  0
 51 50  1  0  0  0  0
 52 53  1  0  0  0  0
 54 55  1  0  0  0  0
 54 52  1  0  0  0  0
 56 57  1  0  0  0  0
 56 58  1  0  0  0  0
 59 56  1  0  0  0  0
M  END
$$$$
