CSD_code = IXOBAA | q = 0 | S = 0 | Stoichiometry = C21H13ClFN3PtS | MND = 4
 OpenBabel04212202053D

 41 47  0  0  1  0  0  0  0  0999 V2000
    3.5104    8.7409    8.9356 Pt  0  0  2  0  0  0  0  0  0  0  0  0
    3.3508    9.2181   11.1684 Cl  0  0  0  0  0  0  0  0  0  0  0  0
    1.6835   11.6163    6.0247 S   0  0  0  0  0  0  0  0  0  0  0  0
    1.3519   12.3009    7.5911 C   0  0  0  0  0  0  0  0  0  0  0  0
    0.6769   13.4740    7.8840 C   0  0  0  0  0  0  0  0  0  0  0  0
    0.2813   14.0892    7.0914 H   0  0  0  0  0  0  0  0  0  0  0  0
    0.5305   13.8241    9.2114 C   0  0  0  0  0  0  0  0  0  0  0  0
    0.0082   14.7336    9.4659 H   0  0  0  0  0  0  0  0  0  0  0  0
    1.0482   13.0173   10.2235 C   0  0  0  0  0  0  0  0  0  0  0  0
    0.9204   13.3133   11.2532 H   0  0  0  0  0  0  0  0  0  0  0  0
    1.7206   11.8494    9.9372 C   0  0  0  0  0  0  0  0  0  0  0  0
    2.1242   11.2204   10.7163 H   0  0  0  0  0  0  0  0  0  0  0  0
    1.8814   11.4753    8.6028 C   0  0  0  0  0  0  0  0  0  0  0  0
    2.5166   10.3572    8.1261 N   0  0  0  0  0  0  0  0  0  0  0  0
    2.4929   10.2960    6.8024 C   0  0  1  0  0  3  0  0  0  0  0  0
    3.1133    9.1862    6.1309 C   0  0  0  0  0  0  0  0  0  0  0  0
    3.2148    8.9192    4.7678 C   0  0  0  0  0  0  0  0  0  0  0  0
    2.7928    9.5873    4.0323 H   0  0  0  0  0  0  0  0  0  0  0  0
    3.8780    7.7702    4.3758 C   0  0  0  0  0  0  0  0  0  0  0  0
    3.9849    7.5254    3.3307 H   0  0  0  0  0  0  0  0  0  0  0  0
    4.4298    6.8958    5.3055 C   0  0  0  0  0  0  0  0  0  0  0  0
    4.3417    7.1279    6.6757 C   0  0  0  0  0  0  0  0  0  0  0  0
    3.6700    8.3017    7.0588 C   0  0  0  0  0  0  0  0  0  0  0  0
    5.0618    5.8076    4.8029 F   0  0  0  0  0  0  0  0  0  0  0  0
    4.8016    6.4318    7.8647 C   0  0  0  0  0  0  0  0  0  0  0  0
    4.5370    7.0125    9.0504 N   0  0  0  0  0  0  0  0  0  0  0  0
    5.0601    6.2047   10.0233 C   0  0  0  0  0  0  0  0  0  0  0  0
    5.0783    6.3271   11.4110 C   0  0  0  0  0  0  0  0  0  0  0  0
    4.6189    7.1774   11.8889 H   0  0  0  0  0  0  0  0  0  0  0  0
    5.7000    5.3293   12.1275 C   0  0  0  0  0  0  0  0  0  0  0  0
    5.7335    5.3930   13.2041 H   0  0  0  0  0  0  0  0  0  0  0  0
    6.2922    4.2321   11.4962 C   0  0  0  0  0  0  0  0  0  0  0  0
    6.7702    3.4741   12.0980 H   0  0  0  0  0  0  0  0  0  0  0  0
    6.2825    4.0944   10.1240 C   0  0  0  0  0  0  0  0  0  0  0  0
    6.7458    3.2418    9.6514 H   0  0  0  0  0  0  0  0  0  0  0  0
    5.6585    5.0942    9.3892 C   0  0  0  0  0  0  0  0  0  0  0  0
    5.4749    5.2667    8.0367 N   0  0  0  0  0  0  0  0  0  0  0  0
    5.9155    4.3428    7.0275 C   0  0  0  0  0  0  0  0  0  0  0  0
    5.0750    4.0079    6.4194 H   0  0  0  0  0  0  0  0  0  0  0  0
    6.3615    3.4797    7.5149 H   0  0  0  0  0  0  0  0  0  0  0  0
    6.6585    4.8040    6.3757 H   0  0  0  0  0  0  0  0  0  0  0  0
  1 26  1  0  0  0  0
  1  2  1  1  0  0  0
  3  4  1  0  0  0  0
  4  5  2  0  0  0  0
  4 13  1  0  0  0  0
  5  7  1  0  0  0  0
  6  5  1  0  0  0  0
  7  8  1  0  0  0  0
  7  9  2  0  0  0  0
  9 10  1  0  0  0  0
 11  9  1  0  0  0  0
 11 12  1  0  0  0  0
 13 11  2  0  0  0  0
 14 13  1  0  0  0  0
 14  1  1  0  0  0  0
 15  3  1  1  0  0  0
 15 14  1  0  0  0  0
 16 15  1  0  0  0  0
 16 23  1  0  0  0  0
 17 16  2  0  0  0  0
 18 17  1  0  0  0  0
 19 17  1  0  0  0  0
 19 21  2  0  0  0  0
 20 19  1  0  0  0  0
 21 22  1  0  0  0  0
 22 23  1  0  0  0  0
 22 25  2  0  0  0  0
 23  1  2  0  0  0  0
 24 21  1  0  0  0  0
 25 37  1  0  0  0  0
 25 26  1  0  0  0  0
 26 27  1  0  0  0  0
 27 28  1  0  0  0  0
 28 29  1  0  0  0  0
 28 30  2  0  0  0  0
 30 31  1  0  0  0  0
 32 33  1  0  0  0  0
 32 30  1  0  0  0  0
 34 32  2  0  0  0  0
 35 34  1  0  0  0  0
 36 27  2  0  0  0  0
 36 34  1  0  0  0  0
 37 36  1  0  0  0  0
 38 40  1  0  0  0  0
 38 37  1  0  0  0  0
 39 38  1  0  0  0  0
 41 38  1  0  0  0  0
M  END
$$$$
