CSD_code = IXOMIR | q = 1 | S = 0 | Stoichiometry = C12H21ClN3O2Ru(1+) | MND = 6
 OpenBabel04212202053D

 40 41  0  0  1  0  0  0  0  0999 V2000
   -0.3555    3.8375    3.0178 Ru  0  0  0  0  0  0  0  0  0  0  0  0
    1.3508    5.1306    2.0216 Cl  0  0  0  0  0  0  0  0  0  0  0  0
   -2.4131    5.3271    1.4681 O   0  0  0  0  0  1  0  0  0  0  0  0
    1.5662    2.8969    3.8260 O   0  0  0  0  0  0  0  0  0  0  0  0
   -1.4967    2.6611    4.0417 N   0  0  0  0  0  0  0  0  0  0  0  0
   -0.3326    2.1241    1.6940 N   0  0  0  0  0  4  0  0  0  0  0  0
   -0.7102    5.1141    4.7318 N   0  0  0  0  0  4  0  0  0  0  0  0
   -1.4878    1.3600    3.7511 C   0  0  2  0  0  3  0  0  0  0  0  0
   -2.2238    0.4686    4.5167 C   0  0  0  0  0  0  0  0  0  0  0  0
   -2.9393    0.9569    5.6031 C   0  0  0  0  0  0  0  0  0  0  0  0
   -2.8954    2.3117    5.9112 C   0  0  0  0  0  0  0  0  0  0  0  0
   -2.1586    3.1518    5.0924 C   0  0  0  0  0  0  0  0  0  0  0  0
   -0.5632    0.9887    2.6184 C   0  0  0  0  0  0  0  0  0  0  0  0
    0.9205    1.9336    0.9606 C   0  0  0  0  0  0  0  0  0  0  0  0
   -1.4321    2.1664    0.7221 C   0  0  0  0  0  0  0  0  0  0  0  0
   -2.0262    4.6476    5.2351 C   0  0  0  0  0  0  0  0  0  0  0  0
   -0.7495    6.5500    4.4435 C   0  0  0  0  0  0  0  0  0  0  0  0
    0.3055    4.8796    5.7605 C   0  0  0  0  0  0  0  0  0  0  0  0
   -1.6641    4.7275    2.0863 C   0  0  0  0  0  2  0  0  0  0  0  0
    0.3991    0.7108    3.0671 H   0  0  0  0  0  0  0  0  0  0  0  0
   -0.9424    0.1156    2.0728 H   0  0  0  0  0  0  0  0  0  0  0  0
   -2.2329   -0.5820    4.2764 H   0  0  0  0  0  0  0  0  0  0  0  0
    2.0004    2.9486    4.6840 H   0  0  0  0  0  0  0  0  0  0  0  0
    2.0320    3.5387    3.2297 H   0  0  0  0  0  0  0  0  0  0  0  0
    1.0991    2.8057    0.3316 H   0  0  0  0  0  0  0  0  0  0  0  0
   -3.5190    0.2837    6.2136 H   0  0  0  0  0  0  0  0  0  0  0  0
    0.8751    1.0423    0.3267 H   0  0  0  0  0  0  0  0  0  0  0  0
   -3.4273    2.7028    6.7631 H   0  0  0  0  0  0  0  0  0  0  0  0
    1.7548    1.8286    1.6528 H   0  0  0  0  0  0  0  0  0  0  0  0
   -2.3909    2.2608    1.2343 H   0  0  0  0  0  0  0  0  0  0  0  0
   -1.4468    1.2520    0.1182 H   0  0  0  0  0  0  0  0  0  0  0  0
   -1.2981    3.0152    0.0520 H   0  0  0  0  0  0  0  0  0  0  0  0
   -2.1778    4.9606    6.2755 H   0  0  0  0  0  0  0  0  0  0  0  0
   -2.8099    5.1114    4.6226 H   0  0  0  0  0  0  0  0  0  0  0  0
   -0.9455    7.1304    5.3505 H   0  0  0  0  0  0  0  0  0  0  0  0
   -1.5229    6.7703    3.7094 H   0  0  0  0  0  0  0  0  0  0  0  0
    0.2112    6.8539    4.0274 H   0  0  0  0  0  0  0  0  0  0  0  0
    1.2824    5.1811    5.3782 H   0  0  0  0  0  0  0  0  0  0  0  0
    0.3159    3.8263    6.0520 H   0  0  0  0  0  0  0  0  0  0  0  0
    0.0950    5.4759    6.6561 H   0  0  0  0  0  0  0  0  0  0  0  0
  1  5  1  0  0  0  0
  1  7  1  0  0  0  0
  2  1  1  0  0  0  0
  3 19  1  0  0  0  0
  4 23  1  0  0  0  0
  5 12  1  0  0  0  0
  6 13  1  0  0  0  0
  6  1  1  0  0  0  0
  7 16  1  0  0  0  0
  7 18  1  0  0  0  0
  8  5  1  0  0  0  0
  8  9  1  1  0  0  0
  9 10  2  0  0  0  0
 10 11  1  0  0  0  0
 10 26  1  0  0  0  0
 11 28  1  0  0  0  0
 12 16  1  0  0  0  0
 12 11  2  0  0  0  0
 13 20  1  0  0  0  0
 13  8  1  0  0  0  0
 14 29  1  0  0  0  0
 14  6  1  0  0  0  0
 15 30  1  0  0  0  0
 15  6  1  0  0  0  0
 16 33  1  0  0  0  0
 17  7  1  0  0  0  0
 17 35  1  0  0  0  0
 18 39  1  0  0  0  0
 18 40  1  0  0  0  0
 19  1  1  0  0  0  0
 21 13  1  0  0  0  0
 22  9  1  0  0  0  0
 24  4  1  0  0  0  0
 25 14  1  0  0  0  0
 27 14  1  0  0  0  0
 31 15  1  0  0  0  0
 32 15  1  0  0  0  0
 34 16  1  0  0  0  0
 36 17  1  0  0  0  0
 37 17  1  0  0  0  0
 38 18  1  0  0  0  0
M  END
$$$$
