CSD_code = IXUFOY | q = 0 | S = 0 | Stoichiometry = C13H15Cl2N3O2Zn | MND = 4
 OpenBabel04212202053D

 36 38  0  0  1  0  0  0  0  0999 V2000
    5.9397   12.2567    6.1645 Zn  0  0  0  0  0  0  0  0  0  0  0  0
    5.4985   14.0277    4.9545 Cl  0  0  0  0  0  0  0  0  0  0  0  0
    6.9023   11.9222    8.1475 Cl  0  0  0  0  0  0  0  0  0  0  0  0
    8.5069   10.7297    5.8207 O   0  0  0  0  0  0  0  0  0  0  0  0
    8.3563   11.0671    6.7358 H   0  0  0  0  0  0  0  0  0  0  0  0
   -1.6070    6.1668    5.9763 O   0  0  0  0  0  0  0  0  0  0  0  0
    7.3404   11.0395    5.1639 N   0  0  0  0  0  0  0  0  0  0  0  0
    4.5112   10.8526    5.4853 N   0  0  2  0  0  0  0  0  0  0  0  0
    3.4376   10.2257    5.9732 N   0  0  0  0  0  0  0  0  0  0  0  0
    3.1438   10.3913    6.9231 H   0  0  0  0  0  0  0  0  0  0  0  0
    7.1335   10.5757    4.0001 C   0  0  1  0  0  3  0  0  0  0  0  0
    8.0935    9.7299    3.2373 C   0  0  0  0  0  0  0  0  0  0  0  0
    8.3679   10.2334    2.3114 H   0  0  0  0  0  0  0  0  0  0  0  0
    7.6277    8.7799    2.9799 H   0  0  0  0  0  0  0  0  0  0  0  0
    8.9877    9.5498    3.8279 H   0  0  0  0  0  0  0  0  0  0  0  0
    5.7997   10.9013    3.3821 C   0  0  0  0  0  0  0  0  0  0  0  0
    5.7120   11.9899    3.2976 H   0  0  0  0  0  0  0  0  0  0  0  0
    5.7241   10.4561    2.3912 H   0  0  0  0  0  0  0  0  0  0  0  0
    4.6785   10.4150    4.2410 C   0  0  1  0  0  3  0  0  0  0  0  0
    3.6866    9.4807    3.9362 C   0  0  0  0  0  0  0  0  0  0  0  0
    3.5535    8.9703    3.0055 H   0  0  0  0  0  0  0  0  0  0  0  0
    2.8942    9.3783    5.0744 C   0  0  0  0  0  0  0  0  0  0  0  0
    1.7201    8.5701    5.3386 C   0  0  0  0  0  0  0  0  0  0  0  0
    1.4412    7.4529    4.5448 C   0  0  0  0  0  0  0  0  0  0  0  0
    2.1120    7.1885    3.7431 H   0  0  0  0  0  0  0  0  0  0  0  0
    0.3321    6.6782    4.7846 C   0  0  0  0  0  0  0  0  0  0  0  0
    0.1145    5.8134    4.1786 H   0  0  0  0  0  0  0  0  0  0  0  0
   -0.5464    6.9926    5.8269 C   0  0  0  0  0  0  0  0  0  0  0  0
   -0.2788    8.1067    6.6190 C   0  0  0  0  0  0  0  0  0  0  0  0
   -0.9371    8.3838    7.4268 H   0  0  0  0  0  0  0  0  0  0  0  0
    0.8401    8.8793    6.3741 C   0  0  0  0  0  0  0  0  0  0  0  0
    1.0092    9.7488    6.9920 H   0  0  0  0  0  0  0  0  0  0  0  0
   -2.5342    6.4257    7.0055 C   0  0  0  0  0  0  0  0  0  0  0  0
   -3.0132    7.4011    6.8773 H   0  0  0  0  0  0  0  0  0  0  0  0
   -2.0628    6.3758    7.9917 H   0  0  0  0  0  0  0  0  0  0  0  0
   -3.2862    5.6426    6.9263 H   0  0  0  0  0  0  0  0  0  0  0  0
  1  3  1  0  0  0  0
  2  1  1  0  0  0  0
  4  5  1  0  0  0  0
  6 33  1  0  0  0  0
  7  4  1  0  0  0  0
  7  1  1  0  0  0  0
  8  9  1  1  0  0  0
  8  1  1  0  0  0  0
  9 10  1  0  0  0  0
 11 12  1  1  0  0  0
 11  7  1  0  0  0  0
 12 15  1  0  0  0  0
 13 12  1  0  0  0  0
 14 12  1  0  0  0  0
 16 11  1  0  0  0  0
 16 19  1  0  0  0  0
 17 16  1  0  0  0  0
 18 16  1  0  0  0  0
 19 20  1  1  0  0  0
 19  8  1  0  0  0  0
 20 22  2  0  0  0  0
 21 20  1  0  0  0  0
 22 23  1  0  0  0  0
 22  9  1  0  0  0  0
 23 31  1  0  0  0  0
 24 26  1  0  0  0  0
 24 23  2  0  0  0  0
 25 24  1  0  0  0  0
 26 28  2  0  0  0  0
 27 26  1  0  0  0  0
 28  6  1  0  0  0  0
 28 29  1  0  0  0  0
 29 30  1  0  0  0  0
 31 29  2  0  0  0  0
 31 32  1  0  0  0  0
 33 35  1  0  0  0  0
 34 33  1  0  0  0  0
 36 33  1  0  0  0  0
M  END
$$$$
