CSD_code = IXUMUK | q = 0 | S = 0 | Stoichiometry = C14H17Cl3NTa | MND = 10
 OpenBabel04212202053D

 36 38  0  0  1  0  0  0  0  0999 V2000
   12.0050    7.5714    4.3025 C   0  0  0  0  0  0  0  0  0  0  0  0
   11.6280    7.4180    5.2981 H   0  0  0  0  0  0  0  0  0  0  0  0
   12.6592    6.6649    3.5341 C   0  0  0  0  0  0  0  0  0  0  0  0
   12.9714    5.6721    3.8186 H   0  0  0  0  0  0  0  0  0  0  0  0
   12.9434    7.2696    2.2290 C   0  0  2  0  0  0  0  0  0  0  0  0
   13.9276    7.1065    1.7951 H   0  0  0  0  0  0  0  0  0  0  0  0
   12.4668    8.6418    2.3537 C   0  0  0  0  0  0  0  0  0  0  0  0
   12.5613    9.3858    1.5808 H   0  0  0  0  0  0  0  0  0  0  0  0
   11.8856    8.7973    3.5700 C   0  0  0  0  0  0  0  0  0  0  0  0
   11.4040    9.6835    3.9425 H   0  0  0  0  0  0  0  0  0  0  0  0
    8.2832    4.5428   -0.2362 C   0  0  0  0  0  0  0  0  0  0  0  0
    8.6026    3.6090    0.2218 H   0  0  0  0  0  0  0  0  0  0  0  0
    7.4793    4.3313   -0.9529 H   0  0  0  0  0  0  0  0  0  0  0  0
    7.9035    5.1985    0.5462 H   0  0  0  0  0  0  0  0  0  0  0  0
   10.0389    4.2743   -1.8449 C   0  0  0  0  0  0  0  0  0  0  0  0
   10.4198    3.3976   -1.3228 H   0  0  0  0  0  0  0  0  0  0  0  0
   10.8706    4.7786   -2.3357 H   0  0  0  0  0  0  0  0  0  0  0  0
    9.3189    3.9503   -2.6078 H   0  0  0  0  0  0  0  0  0  0  0  0
    9.0251    6.4303   -1.5205 C   0  0  0  0  0  0  0  0  0  0  0  0
    8.4154    6.2402   -2.4168 H   0  0  0  0  0  0  0  0  0  0  0  0
    8.4171    6.9912   -0.8020 H   0  0  0  0  0  0  0  0  0  0  0  0
   10.2129    8.0666   -3.0079 C   0  0  0  0  0  0  0  0  0  0  0  0
    9.3497    8.0571   -3.6588 H   0  0  0  0  0  0  0  0  0  0  0  0
   10.2262    7.2728   -1.8680 C   0  0  0  0  0  0  0  0  0  0  0  0
   11.3236    7.2635   -1.0060 C   0  0  0  0  0  0  0  0  0  0  0  0
   12.4089    8.0668   -1.3445 C   0  0  0  0  0  0  0  0  0  0  0  0
   13.2890    8.0628   -0.7142 H   0  0  0  0  0  0  0  0  0  0  0  0
   12.4007    8.8680   -2.4756 C   0  0  0  0  0  0  0  0  0  0  0  0
   13.2579    9.4828   -2.7071 H   0  0  0  0  0  0  0  0  0  0  0  0
   11.2982    8.8685   -3.3113 C   0  0  0  0  0  0  0  0  0  0  0  0
   11.2869    9.4823   -4.1994 H   0  0  0  0  0  0  0  0  0  0  0  0
   13.2113    4.9837   -0.0792 Cl  0  0  0  0  0  0  0  0  0  0  0  0
   10.7270    4.0803    1.8484 Cl  0  0  0  0  0  0  0  0  0  0  0  0
    9.6496    7.2401    1.7001 Cl  0  0  0  0  0  0  0  0  0  0  0  0
    9.4234    5.1779   -0.8802 N   0  0  0  0  0  4  0  0  0  0  0  0
   11.4049    6.0454    0.8634 Ta  0  0  0  0  0  0  0  0  0  0  0  0
  1  2  1  0  0  0  0
  3  4  1  0  0  0  0
  3  1  2  0  0  0  0
  5  6  1  6  0  0  0
  5  7  1  0  0  0  0
  5  3  1  0  0  0  0
  7  9  2  0  0  0  0
  8  7  1  0  0  0  0
  9 10  1  0  0  0  0
  9  1  1  0  0  0  0
 11 12  1  0  0  0  0
 11 14  1  0  0  0  0
 13 11  1  0  0  0  0
 15 16  1  0  0  0  0
 15 35  1  0  0  0  0
 17 15  1  0  0  0  0
 18 15  1  0  0  0  0
 19 35  1  0  0  0  0
 19 21  1  0  0  0  0
 20 19  1  0  0  0  0
 22 24  1  0  0  0  0
 23 22  1  0  0  0  0
 24 19  1  0  0  0  0
 24 25  2  0  0  0  0
 25 36  1  0  0  0  0
 26 25  1  0  0  0  0
 26 27  1  0  0  0  0
 28 26  2  0  0  0  0
 29 28  1  0  0  0  0
 30 22  2  0  0  0  0
 30 28  1  0  0  0  0
 31 30  1  0  0  0  0
 32 36  1  0  0  0  0
 35 11  1  0  0  0  0
 35 36  1  0  0  0  0
 36 34  1  0  0  0  0
 36 33  1  0  0  0  0
 36  5  1  0  0  0  0
M  END
$$$$
