CSD_code = IXUNAR | q = 0 | S = 0 | Stoichiometry = C17H25Cl3NSiTa | MND = 10
 OpenBabel04212202053D

 48 50  0  0  1  0  0  0  0  0999 V2000
   -0.3455    7.4212    8.5952 Ta  0  0  0  0  0  0  0  0  0  0  0  0
   -0.1466    8.4600    4.8155 Si  0  0  0  0  0  0  0  0  0  0  0  0
    1.2240    9.0530    8.8857 Cl  0  0  0  0  0  0  0  0  0  0  0  0
   -1.8004    5.6783    8.2124 Cl  0  0  0  0  0  0  0  0  0  0  0  0
   -2.0451    8.9153    8.1901 Cl  0  0  0  0  0  0  0  0  0  0  0  0
   -1.0345    8.4485   11.1335 N   0  0  0  0  0  4  0  0  0  0  0  0
   -1.2717    9.8829   11.1791 C   0  0  0  0  0  0  0  0  0  0  0  0
   -0.4327   10.3976   10.7130 H   0  0  0  0  0  0  0  0  0  0  0  0
   -1.3902   10.2427   12.2093 H   0  0  0  0  0  0  0  0  0  0  0  0
   -2.1742   10.1166   10.6184 H   0  0  0  0  0  0  0  0  0  0  0  0
   -2.1963    7.7200   11.6282 C   0  0  0  0  0  0  0  0  0  0  0  0
   -3.0485    7.9262   10.9821 H   0  0  0  0  0  0  0  0  0  0  0  0
   -2.4491    8.0148   12.6555 H   0  0  0  0  0  0  0  0  0  0  0  0
   -1.9923    6.6498   11.6089 H   0  0  0  0  0  0  0  0  0  0  0  0
    1.1918    7.7170    5.9072 C   0  0  0  0  0  0  0  0  0  0  0  0
    1.0084    6.5783    6.8269 C   0  0  1  0  0  0  0  0  0  0  0  0
    0.4639    5.7199    6.4393 H   0  0  0  0  0  0  0  0  0  0  0  0
    2.3321    6.3326    7.3895 C   0  0  0  0  0  0  0  0  0  0  0  0
    2.5705    5.5199    8.0541 H   0  0  0  0  0  0  0  0  0  0  0  0
    3.1925    7.2713    6.9179 C   0  0  0  0  0  0  0  0  0  0  0  0
    4.2323    7.3747    7.1736 H   0  0  0  0  0  0  0  0  0  0  0  0
    2.4897    8.1218    6.0098 C   0  0  0  0  0  0  0  0  0  0  0  0
    2.9329    8.9575    5.4982 H   0  0  0  0  0  0  0  0  0  0  0  0
    0.4855    8.4435    3.0130 C   0  0  0  0  0  0  0  0  0  0  0  0
    1.4162    8.9929    2.9216 H   0  0  0  0  0  0  0  0  0  0  0  0
   -0.2349    8.9022    2.3440 H   0  0  0  0  0  0  0  0  0  0  0  0
    0.6667    7.4333    2.6615 H   0  0  0  0  0  0  0  0  0  0  0  0
   -1.7384    7.4056    4.8838 C   0  0  0  0  0  0  0  0  0  0  0  0
   -2.1747    7.3640    5.8779 H   0  0  0  0  0  0  0  0  0  0  0  0
   -1.5483    6.3842    4.5656 H   0  0  0  0  0  0  0  0  0  0  0  0
   -2.4933    7.8140    4.2179 H   0  0  0  0  0  0  0  0  0  0  0  0
   -0.4710   10.2783    5.3126 C   0  0  0  0  0  0  0  0  0  0  0  0
    0.3868   10.8995    5.0718 H   0  0  0  0  0  0  0  0  0  0  0  0
   -0.6568   10.3814    6.3778 H   0  0  0  0  0  0  0  0  0  0  0  0
   -1.3290   10.6865    4.7867 H   0  0  0  0  0  0  0  0  0  0  0  0
    0.4418    6.1877   10.3016 C   0  0  0  0  0  0  0  0  0  0  0  0
    0.8118    4.8654   10.0756 C   0  0  0  0  0  0  0  0  0  0  0  0
    0.6550    4.4290    9.0977 H   0  0  0  0  0  0  0  0  0  0  0  0
    1.3621    4.0795   11.0761 C   0  0  0  0  0  0  0  0  0  0  0  0
    1.6451    3.0590   10.8645 H   0  0  0  0  0  0  0  0  0  0  0  0
    1.5371    4.6029   12.3447 C   0  0  0  0  0  0  0  0  0  0  0  0
    1.9620    3.9982   13.1317 H   0  0  0  0  0  0  0  0  0  0  0  0
    1.1424    5.9025   12.6046 C   0  0  0  0  0  0  0  0  0  0  0  0
    1.2565    6.3129   13.5981 H   0  0  0  0  0  0  0  0  0  0  0  0
    0.5951    6.6860   11.5958 C   0  0  0  0  0  0  0  0  0  0  0  0
    0.1652    8.0995   11.8913 C   0  0  0  0  0  0  0  0  0  0  0  0
    0.0055    8.2333   12.9726 H   0  0  0  0  0  0  0  0  0  0  0  0
    0.9652    8.7771   11.5737 H   0  0  0  0  0  0  0  0  0  0  0  0
  1  3  1  0  0  0  0
  1 36  1  0  0  0  0
  1  6  1  0  0  0  0
  2 28  1  0  0  0  0
  2 32  1  0  0  0  0
  2 15  1  0  0  0  0
  4  1  1  0  0  0  0
  5  1  1  0  0  0  0
  6  7  1  0  0  0  0
  6 11  1  0  0  0  0
  6 46  1  0  0  0  0
  7  9  1  0  0  0  0
  8  7  1  0  0  0  0
 10  7  1  0  0  0  0
 11 13  1  0  0  0  0
 12 11  1  0  0  0  0
 14 11  1  0  0  0  0
 15 22  2  0  0  0  0
 15 16  1  0  0  0  0
 16 17  1  6  0  0  0
 16 18  1  0  0  0  0
 16  1  1  0  0  0  0
 18 19  1  0  0  0  0
 20 21  1  0  0  0  0
 20 18  2  0  0  0  0
 22 20  1  0  0  0  0
 23 22  1  0  0  0  0
 24  2  1  0  0  0  0
 25 24  1  0  0  0  0
 26 24  1  0  0  0  0
 27 24  1  0  0  0  0
 28 29  1  0  0  0  0
 30 28  1  0  0  0  0
 31 28  1  0  0  0  0
 32 34  1  0  0  0  0
 33 32  1  0  0  0  0
 35 32  1  0  0  0  0
 36 45  1  0  0  0  0
 37 36  2  0  0  0  0
 37 39  1  0  0  0  0
 38 37  1  0  0  0  0
 39 41  2  0  0  0  0
 40 39  1  0  0  0  0
 41 43  1  0  0  0  0
 41 42  1  0  0  0  0
 43 44  1  0  0  0  0
 45 46  1  0  0  0  0
 45 43  2  0  0  0  0
 46 47  1  0  0  0  0
 48 46  1  0  0  0  0
M  END
$$$$
