CSD_code = IXUNEV | q = 0 | S = 0 | Stoichiometry = C19H27Cl3NTa | MND = 10
 OpenBabel04212202053D

 51 53  0  0  1  0  0  0  0  0999 V2000
    0.2810    7.0631   15.1832 Ta  0  0  0  0  0  0  0  0  0  0  0  0
   -1.3503    5.9228   16.3306 Cl  0  0  0  0  0  0  0  0  0  0  0  0
    0.6216    8.4676   16.9794 Cl  0  0  0  0  0  0  0  0  0  0  0  0
    1.7981    8.1788   13.8836 Cl  0  0  0  0  0  0  0  0  0  0  0  0
   -1.2891    9.3297   14.4987 N   0  0  0  0  0  4  0  0  0  0  0  0
    3.8838    5.8045   14.6319 C   0  0  0  0  0  0  0  0  0  0  0  0
    2.7191    5.2368   14.2270 C   0  0  0  0  0  0  0  0  0  0  0  0
    1.7969    5.1582   15.3839 C   0  0  1  0  0  0  0  0  0  0  0  0
    2.5977    5.6705   16.5243 C   0  0  0  0  0  0  0  0  0  0  0  0
    3.8094    6.0729   16.0599 C   0  0  0  0  0  0  0  0  0  0  0  0
    5.0796    6.1605   13.8165 C   0  0  0  0  0  0  0  0  0  0  0  0
    5.0155    5.7440   12.8152 H   0  0  0  0  0  0  0  0  0  0  0  0
    5.9887    5.7939   14.2913 H   0  0  0  0  0  0  0  0  0  0  0  0
    5.1585    7.2449   13.7299 H   0  0  0  0  0  0  0  0  0  0  0  0
    2.3392    4.7659   12.8593 C   0  0  0  0  0  0  0  0  0  0  0  0
    2.0346    3.7193   12.8837 H   0  0  0  0  0  0  0  0  0  0  0  0
    3.1782    4.8591   12.1753 H   0  0  0  0  0  0  0  0  0  0  0  0
    1.5094    5.3540   12.4614 H   0  0  0  0  0  0  0  0  0  0  0  0
    1.0918    3.8344   15.5996 C   0  0  0  0  0  0  0  0  0  0  0  0
    0.4339    3.8691   16.4649 H   0  0  0  0  0  0  0  0  0  0  0  0
    1.8404    3.0581   15.7697 H   0  0  0  0  0  0  0  0  0  0  0  0
    0.5040    3.5490   14.7295 H   0  0  0  0  0  0  0  0  0  0  0  0
    2.1344    5.6045   17.9472 C   0  0  0  0  0  0  0  0  0  0  0  0
    1.0468    5.5950   18.0124 H   0  0  0  0  0  0  0  0  0  0  0  0
    2.5034    6.4541   18.5191 H   0  0  0  0  0  0  0  0  0  0  0  0
    2.5112    4.6953   18.4207 H   0  0  0  0  0  0  0  0  0  0  0  0
    4.9280    6.6893   16.8289 C   0  0  0  0  0  0  0  0  0  0  0  0
    4.6192    6.9267   17.8433 H   0  0  0  0  0  0  0  0  0  0  0  0
    5.2627    7.6042   16.3409 H   0  0  0  0  0  0  0  0  0  0  0  0
    5.7778    6.0075   16.8791 H   0  0  0  0  0  0  0  0  0  0  0  0
   -0.9792    6.7394   13.3595 C   0  0  0  0  0  0  0  0  0  0  0  0
   -1.2498    5.4447   12.9253 C   0  0  0  0  0  0  0  0  0  0  0  0
   -0.8833    4.6073   13.5042 H   0  0  0  0  0  0  0  0  0  0  0  0
   -1.9899    5.1879   11.7820 C   0  0  0  0  0  0  0  0  0  0  0  0
   -2.1732    4.1687   11.4748 H   0  0  0  0  0  0  0  0  0  0  0  0
   -2.4999    6.2409   11.0445 C   0  0  0  0  0  0  0  0  0  0  0  0
   -3.0823    6.0540   10.1547 H   0  0  0  0  0  0  0  0  0  0  0  0
   -2.2719    7.5381   11.4664 C   0  0  0  0  0  0  0  0  0  0  0  0
   -2.6788    8.3666   10.9033 H   0  0  0  0  0  0  0  0  0  0  0  0
   -1.5237    7.7858   12.6106 C   0  0  0  0  0  0  0  0  0  0  0  0
   -1.2728    9.2079   13.0433 C   0  0  0  0  0  0  0  0  0  0  0  0
   -2.0082    9.8841   12.5792 H   0  0  0  0  0  0  0  0  0  0  0  0
   -0.2738    9.4966   12.6984 H   0  0  0  0  0  0  0  0  0  0  0  0
   -0.7384   10.6080   14.9189 C   0  0  0  0  0  0  0  0  0  0  0  0
    0.2971   10.6769   14.5885 H   0  0  0  0  0  0  0  0  0  0  0  0
   -0.7581   10.6669   16.0053 H   0  0  0  0  0  0  0  0  0  0  0  0
   -1.3060   11.4531   14.5063 H   0  0  0  0  0  0  0  0  0  0  0  0
   -2.6369    9.1524   15.0217 C   0  0  0  0  0  0  0  0  0  0  0  0
   -3.0362    8.1984   14.6791 H   0  0  0  0  0  0  0  0  0  0  0  0
   -3.3088    9.9570   14.6926 H   0  0  0  0  0  0  0  0  0  0  0  0
   -2.6001    9.1458   16.1102 H   0  0  0  0  0  0  0  0  0  0  0  0
  1  8  1  0  0  0  0
  1  2  1  0  0  0  0
  1  3  1  0  0  0  0
  4  1  1  0  0  0  0
  5 44  1  0  0  0  0
  5 48  1  0  0  0  0
  5  1  1  0  0  0  0
  6 10  1  0  0  0  0
  7  6  2  0  0  0  0
  7  8  1  0  0  0  0
  8 19  1  1  0  0  0
  8  9  1  0  0  0  0
  9 23  1  0  0  0  0
 10  9  2  0  0  0  0
 10 27  1  0  0  0  0
 11 13  1  0  0  0  0
 11  6  1  0  0  0  0
 12 11  1  0  0  0  0
 14 11  1  0  0  0  0
 15 16  1  0  0  0  0
 15  7  1  0  0  0  0
 17 15  1  0  0  0  0
 18 15  1  0  0  0  0
 19 21  1  0  0  0  0
 19 20  1  0  0  0  0
 22 19  1  0  0  0  0
 23 24  1  0  0  0  0
 23 26  1  0  0  0  0
 23 25  1  0  0  0  0
 27 30  1  0  0  0  0
 27 28  1  0  0  0  0
 29 27  1  0  0  0  0
 31  1  1  0  0  0  0
 32 31  1  0  0  0  0
 32 33  1  0  0  0  0
 34 32  2  0  0  0  0
 35 34  1  0  0  0  0
 36 38  2  0  0  0  0
 36 34  1  0  0  0  0
 37 36  1  0  0  0  0
 38 40  1  0  0  0  0
 39 38  1  0  0  0  0
 40 41  1  0  0  0  0
 40 31  2  0  0  0  0
 41  5  1  0  0  0  0
 42 41  1  0  0  0  0
 43 41  1  0  0  0  0
 44 46  1  0  0  0  0
 45 44  1  0  0  0  0
 47 44  1  0  0  0  0
 48 51  1  0  0  0  0
 49 48  1  0  0  0  0
 50 48  1  0  0  0  0
M  END
$$$$
