CSD_code = IXUQEX | q = 0 | S = 0 | Stoichiometry = C16H14Cl2SeTi | MND = 12
 OpenBabel04212202053D

 34 35  0  0  1  0  0  0  0  0999 V2000
    9.2817    4.2923    7.3902 Se  0  0  0  0  0  1  0  0  0  0  0  0
   11.4783    5.4109    7.7487 Ti  0  0  0  0  0  0  0  0  0  0  0  0
   11.2059    5.5290    9.9472 Cl  0  0  0  0  0  0  0  0  0  0  0  0
    4.6364    8.3766    9.1027 Cl  0  0  0  0  0  0  0  0  0  0  0  0
   12.1383    3.5009    6.5315 C   0  0  2  0  0  0  0  0  0  0  0  0
   11.5694    3.0361    5.7343 H   0  0  0  0  0  0  0  0  0  0  0  0
   12.1061    3.1130    7.8973 C   0  0  0  0  0  0  0  0  0  0  0  0
   11.4883    2.3276    8.3167 H   0  0  0  0  0  0  0  0  0  0  0  0
   13.0996    3.8356    8.5765 C   0  0  0  0  0  0  0  0  0  0  0  0
   13.3807    3.7060    9.6139 H   0  0  0  0  0  0  0  0  0  0  0  0
   13.7252    4.6958    7.6519 C   0  0  0  0  0  0  0  0  0  0  0  0
   14.5995    5.3015    7.8557 H   0  0  0  0  0  0  0  0  0  0  0  0
   13.1550    4.4573    6.3794 C   0  0  0  0  0  0  0  0  0  0  0  0
   13.5190    4.8478    5.4387 H   0  0  0  0  0  0  0  0  0  0  0  0
   12.5744    7.2986    6.7827 C   0  0  0  0  0  0  0  0  0  0  0  0
   13.6246    7.3913    6.5395 H   0  0  0  0  0  0  0  0  0  0  0  0
   11.5538    6.8952    5.8956 C   0  0  0  0  0  0  0  0  0  0  0  0
   11.6779    6.6277    4.8537 H   0  0  0  0  0  0  0  0  0  0  0  0
   10.3156    7.0924    6.5410 C   0  0  0  0  0  0  0  0  0  0  0  0
    9.3421    7.0110    6.0744 H   0  0  0  0  0  0  0  0  0  0  0  0
   10.5725    7.5858    7.8375 C   0  0  2  0  0  0  0  0  0  0  0  0
    9.8270    7.9131    8.5513 H   0  0  0  0  0  0  0  0  0  0  0  0
   11.9720    7.7059    7.9875 C   0  0  0  0  0  0  0  0  0  0  0  0
   12.4799    8.1382    8.8413 H   0  0  0  0  0  0  0  0  0  0  0  0
    7.8939    5.5229    7.9088 C   0  0  0  0  0  0  0  0  0  0  0  0
    6.8871    5.8501    7.0064 C   0  0  0  0  0  0  0  0  0  0  0  0
    6.8959    5.4103    6.0189 H   0  0  0  0  0  0  0  0  0  0  0  0
    5.8821    6.7260    7.3710 C   0  0  0  0  0  0  0  0  0  0  0  0
    5.1010    6.9853    6.6734 H   0  0  0  0  0  0  0  0  0  0  0  0
    5.8844    7.2713    8.6456 C   0  0  0  0  0  0  0  0  0  0  0  0
    6.8717    6.9368    9.5602 C   0  0  0  0  0  0  0  0  0  0  0  0
    6.8530    7.3577   10.5537 H   0  0  0  0  0  0  0  0  0  0  0  0
    7.8731    6.0584    9.1910 C   0  0  0  0  0  0  0  0  0  0  0  0
    8.6410    5.7833    9.9015 H   0  0  0  0  0  0  0  0  0  0  0  0
  1 25  1  0  0  0  0
  2 21  1  0  0  0  0
  2  3  1  0  0  0  0
  5  6  1  6  0  0  0
  5  2  1  0  0  0  0
  5  7  1  0  0  0  0
  7  8  1  0  0  0  0
  7  9  2  0  0  0  0
  9 10  1  0  0  0  0
 11 12  1  0  0  0  0
 11  9  1  0  0  0  0
 13  5  1  0  0  0  0
 13 11  2  0  0  0  0
 14 13  1  0  0  0  0
 15 23  2  0  0  0  0
 16 15  1  0  0  0  0
 17 19  2  0  0  0  0
 17 15  1  0  0  0  0
 18 17  1  0  0  0  0
 19 21  1  0  0  0  0
 20 19  1  0  0  0  0
 21 23  1  0  0  0  0
 21 22  1  1  0  0  0
 23 24  1  0  0  0  0
 25 33  1  0  0  0  0
 26 28  1  0  0  0  0
 26 25  2  0  0  0  0
 27 26  1  0  0  0  0
 28 30  2  0  0  0  0
 29 28  1  0  0  0  0
 30  4  1  0  0  0  0
 30 31  1  0  0  0  0
 31 32  1  0  0  0  0
 33 31  2  0  0  0  0
 33 34  1  0  0  0  0
M  END
$$$$
