CSD_code = IYAGOF | q = 0 | S = 0 | Stoichiometry = C17H21ClN9OPPd | MND = 4
 OpenBabel04212202053D

 51 56  0  0  1  0  0  0  0  0999 V2000
    2.5464    2.8249    5.8454 Pd  0  0  2  0  0  0  0  0  0  0  0  0
   -0.9539    0.6185    3.3601 P   0  0  1  0  0  0  0  0  0  0  0  0
   -2.3686    0.3783    3.1269 O   0  0  0  0  0  0  0  0  0  0  0  0
   -0.4227    2.1932    3.1089 N   0  0  0  0  0  0  0  0  0  0  0  0
   -0.3593    0.1253    4.8525 N   0  0  0  0  0  0  0  0  0  0  0  0
    1.1870    1.9081    4.8126 N   0  0  0  0  0  0  0  0  0  0  0  0
    1.3023    0.3843    6.4734 N   0  0  0  0  0  0  0  0  0  0  0  0
    2.3158    1.1491    6.9803 N   0  0  0  0  0  0  0  0  0  0  0  0
    1.1995    3.8042    3.5892 N   0  0  0  0  0  0  0  0  0  0  0  0
    2.2281    4.1979    4.3959 N   0  0  0  0  0  0  0  0  0  0  0  0
    0.0812   -0.2411    2.3024 N   0  0  0  0  0  0  0  0  0  0  0  0
    1.4003   -0.0256    2.5077 N   0  0  0  0  0  0  0  0  0  0  0  0
    0.5912    2.5610    3.8045 C   0  0  0  0  0  0  0  0  0  0  0  0
    0.6457    0.7843    5.3033 C   0  0  0  0  0  0  0  0  0  0  0  0
   -0.0781    4.5835    1.5927 C   0  0  0  0  0  0  0  0  0  0  0  0
   -0.0564    5.4345    0.9177 H   0  0  0  0  0  0  0  0  0  0  0  0
   -1.0588    4.5061    2.0587 H   0  0  0  0  0  0  0  0  0  0  0  0
    0.0734    3.6624    1.0323 H   0  0  0  0  0  0  0  0  0  0  0  0
    0.9702    4.7316    2.6222 C   0  0  2  0  0  3  0  0  0  0  0  0
    1.8827    5.7403    2.8314 C   0  0  0  0  0  0  0  0  0  0  0  0
    1.9907    6.6359    2.2549 H   0  0  0  0  0  0  0  0  0  0  0  0
    2.6529    5.3714    3.9490 C   0  0  0  0  0  0  0  0  0  0  0  0
    3.7667    6.1134    4.5850 C   0  0  0  0  0  0  0  0  0  0  0  0
    3.4601    6.4788    5.5652 H   0  0  0  0  0  0  0  0  0  0  0  0
    4.0653    6.9536    3.9652 H   0  0  0  0  0  0  0  0  0  0  0  0
    4.6152    5.4491    4.7477 H   0  0  0  0  0  0  0  0  0  0  0  0
    0.1085   -1.7620    6.9226 C   0  0  0  0  0  0  0  0  0  0  0  0
    0.1755   -2.5719    7.6437 H   0  0  0  0  0  0  0  0  0  0  0  0
    0.2539   -2.1499    5.9158 H   0  0  0  0  0  0  0  0  0  0  0  0
   -0.8889   -1.3265    6.9471 H   0  0  0  0  0  0  0  0  0  0  0  0
    1.1261   -0.7354    7.2251 C   0  0  1  0  0  3  0  0  0  0  0  0
    2.0552   -0.6707    8.2362 C   0  0  0  0  0  0  0  0  0  0  0  0
    2.2045   -1.3865    9.0181 H   0  0  0  0  0  0  0  0  0  0  0  0
    2.7812    0.5216    8.0505 C   0  0  0  0  0  0  0  0  0  0  0  0
    3.8933    1.0413    8.8815 C   0  0  0  0  0  0  0  0  0  0  0  0
    4.6942    0.3061    8.9328 H   0  0  0  0  0  0  0  0  0  0  0  0
    3.5432    1.2283    9.8953 H   0  0  0  0  0  0  0  0  0  0  0  0
    4.2769    1.9692    8.4596 H   0  0  0  0  0  0  0  0  0  0  0  0
    3.5249   -0.7744    1.5456 C   0  0  0  0  0  0  0  0  0  0  0  0
    3.9364   -0.1129    2.3036 H   0  0  0  0  0  0  0  0  0  0  0  0
    3.8572   -0.4452    0.5620 H   0  0  0  0  0  0  0  0  0  0  0  0
    3.8990   -1.7843    1.7088 H   0  0  0  0  0  0  0  0  0  0  0  0
    2.0401   -0.7564    1.6210 C   0  0  0  0  0  0  0  0  0  0  0  0
    1.1190   -1.4659    0.8181 C   0  0  0  0  0  0  0  0  0  0  0  0
    1.3487   -2.1381    0.0162 H   0  0  0  0  0  0  0  0  0  0  0  0
   -0.1248   -1.1136    1.2804 C   0  0  0  0  0  0  0  0  0  0  0  0
   -1.4819   -1.5213    0.8499 C   0  0  0  0  0  0  0  0  0  0  0  0
   -1.4131   -2.2326    0.0303 H   0  0  0  0  0  0  0  0  0  0  0  0
   -2.0533   -0.6513    0.5304 H   0  0  0  0  0  0  0  0  0  0  0  0
   -2.0209   -1.9726    1.6810 H   0  0  0  0  0  0  0  0  0  0  0  0
    4.0871    3.9166    7.0111 Cl  0  0  0  0  0  0  0  0  0  0  0  0
  1  8  1  0  0  0  0
  1 51  1  6  0  0  0
  2  3  2  6  0  0  0
  2  5  1  0  0  0  0
  4  2  1  0  0  0  0
  4 13  2  0  0  0  0
  5 14  2  0  0  0  0
  6 14  1  0  0  0  0
  6  1  1  0  0  0  0
  7  8  1  0  0  0  0
  7 31  1  0  0  0  0
  8 34  1  0  0  0  0
  9 13  1  0  0  0  0
  9 10  1  0  0  0  0
 10  1  1  0  0  0  0
 11 12  1  0  0  0  0
 11  2  1  0  0  0  0
 13  6  1  0  0  0  0
 14  7  1  0  0  0  0
 15 17  1  0  0  0  0
 16 15  1  0  0  0  0
 18 15  1  0  0  0  0
 19 15  1  6  0  0  0
 19 20  1  0  0  0  0
 19  9  1  0  0  0  0
 20 22  2  0  0  0  0
 21 20  1  0  0  0  0
 22 10  1  0  0  0  0
 22 23  1  0  0  0  0
 23 26  1  0  0  0  0
 23 24  1  0  0  0  0
 25 23  1  0  0  0  0
 27 30  1  0  0  0  0
 27 28  1  0  0  0  0
 29 27  1  0  0  0  0
 31 27  1  6  0  0  0
 31 32  1  0  0  0  0
 32 33  1  0  0  0  0
 34 32  2  0  0  0  0
 34 35  1  0  0  0  0
 35 36  1  0  0  0  0
 35 37  1  0  0  0  0
 38 35  1  0  0  0  0
 39 43  1  0  0  0  0
 39 42  1  0  0  0  0
 39 40  1  0  0  0  0
 41 39  1  0  0  0  0
 43 12  2  0  0  0  0
 44 46  2  0  0  0  0
 44 43  1  0  0  0  0
 45 44  1  0  0  0  0
 46 11  1  0  0  0  0
 47 46  1  0  0  0  0
 47 50  1  0  0  0  0
 48 47  1  0  0  0  0
 49 47  1  0  0  0  0
M  END
$$$$
