CSD_code = IYAMIE | q = 0 | S = 0 | Stoichiometry = C20H39ClN2Pd | MND = 5
 OpenBabel04212202053D

 63 62  0  0  1  0  0  0  0  0999 V2000
   -4.9729   -0.0875   -9.9626 Pd  0  0  0  0  0  0  0  0  0  0  0  0
   -5.8409    1.7513   -8.8669 Cl  0  0  0  0  0 15  0  0  0  0  0  0
   -3.0481    1.7893  -11.3387 N   0  0  0  0  0  0  0  0  0  0  0  0
   -3.3078    0.9895  -10.2992 C   0  0  1  0  0  3  0  0  0  0  0  0
   -2.3220    1.0980   -9.4058 N   0  0  0  0  0  0  0  0  0  0  0  0
   -1.3496    2.1352   -9.7651 C   0  0  1  0  0  0  0  0  0  0  0  0
   -1.7106    2.3838  -11.2433 C   0  0  1  0  0  0  0  0  0  0  0  0
   -1.4136    3.4036   -8.8588 C   0  0  0  0  0  0  0  0  0  0  0  0
   -0.7000    1.7290  -12.2390 C   0  0  0  0  0  0  0  0  0  0  0  0
   -2.8125    4.0183   -8.8543 C   0  0  0  0  0  0  0  0  0  0  0  0
   -1.0229    3.0679   -7.4142 C   0  0  0  0  0  0  0  0  0  0  0  0
   -0.3935    4.4321   -9.3638 C   0  0  0  0  0  0  0  0  0  0  0  0
    0.6667    2.4067  -12.0918 C   0  0  0  0  0  0  0  0  0  0  0  0
   -1.1433    1.9173  -13.6945 C   0  0  0  0  0  0  0  0  0  0  0  0
   -0.5688    0.2268  -11.9784 C   0  0  0  0  0  0  0  0  0  0  0  0
   -2.0935    0.1896   -8.2888 C   0  0  0  0  0  0  0  0  0  0  0  0
   -3.2644    0.1705   -7.3013 C   0  0  0  0  0  0  0  0  0  0  0  0
   -1.8147   -1.2335   -8.7802 C   0  0  0  0  0  0  0  0  0  0  0  0
   -4.0220    2.2960  -12.3012 C   0  0  0  0  0  0  0  0  0  0  0  0
   -4.8450    3.4480  -11.7198 C   0  0  0  0  0  0  0  0  0  0  0  0
   -4.9587    1.1962  -12.7995 C   0  0  0  0  0  0  0  0  0  0  0  0
   -4.7502   -1.9219  -11.0122 C   0  0  0  0  0  3  0  0  0  0  0  0
   -5.6321   -2.0843   -9.9198 C   0  0  0  0  0  0  0  0  0  0  0  0
   -6.7585   -1.2719   -9.8184 C   0  0  0  0  0  3  0  0  0  0  0  0
   -0.3420    1.7220   -9.6663 H   0  0  0  0  0  0  0  0  0  0  0  0
   -1.7716    3.4481  -11.4770 H   0  0  0  0  0  0  0  0  0  0  0  0
   -2.8977    4.7390   -8.0451 H   0  0  0  0  0  0  0  0  0  0  0  0
   -3.0123    4.5422   -9.7835 H   0  0  0  0  0  0  0  0  0  0  0  0
   -3.5820    3.2618   -8.7160 H   0  0  0  0  0  0  0  0  0  0  0  0
   -0.8791    3.9924   -6.8586 H   0  0  0  0  0  0  0  0  0  0  0  0
   -0.0884    2.5099   -7.3739 H   0  0  0  0  0  0  0  0  0  0  0  0
   -1.8033    2.5050   -6.9145 H   0  0  0  0  0  0  0  0  0  0  0  0
   -0.4394    5.3215   -8.7401 H   0  0  0  0  0  0  0  0  0  0  0  0
   -0.5862    4.7381  -10.3878 H   0  0  0  0  0  0  0  0  0  0  0  0
    0.6172    4.0327   -9.3102 H   0  0  0  0  0  0  0  0  0  0  0  0
    1.3772    1.9499  -12.7768 H   0  0  0  0  0  0  0  0  0  0  0  0
    0.5967    3.4652  -12.3315 H   0  0  0  0  0  0  0  0  0  0  0  0
    1.0662    2.3108  -11.0866 H   0  0  0  0  0  0  0  0  0  0  0  0
   -0.3377    1.6094  -14.3586 H   0  0  0  0  0  0  0  0  0  0  0  0
   -1.3667    2.9606  -13.9084 H   0  0  0  0  0  0  0  0  0  0  0  0
   -2.0102    1.3049  -13.9239 H   0  0  0  0  0  0  0  0  0  0  0  0
   -0.0142   -0.2425  -12.7878 H   0  0  0  0  0  0  0  0  0  0  0  0
   -1.5511   -0.2387  -11.9202 H   0  0  0  0  0  0  0  0  0  0  0  0
   -0.0339    0.0299  -11.0535 H   0  0  0  0  0  0  0  0  0  0  0  0
   -1.2005    0.5518   -7.7743 H   0  0  0  0  0  0  0  0  0  0  0  0
   -2.9631   -0.3331   -6.3853 H   0  0  0  0  0  0  0  0  0  0  0  0
   -4.1266   -0.3687   -7.7312 H   0  0  0  0  0  0  0  0  0  0  0  0
   -3.5902    1.1803   -7.0602 H   0  0  0  0  0  0  0  0  0  0  0  0
   -1.6323   -1.8845   -7.9289 H   0  0  0  0  0  0  0  0  0  0  0  0
   -2.6811   -1.6028   -9.3298 H   0  0  0  0  0  0  0  0  0  0  0  0
   -0.9452   -1.2653   -9.4316 H   0  0  0  0  0  0  0  0  0  0  0  0
   -3.4523    2.6796  -13.1509 H   0  0  0  0  0  0  0  0  0  0  0  0
   -5.6193    3.7332  -12.4270 H   0  0  0  0  0  0  0  0  0  0  0  0
   -4.2239    4.3195  -11.5313 H   0  0  0  0  0  0  0  0  0  0  0  0
   -5.3137    3.1392  -10.7871 H   0  0  0  0  0  0  0  0  0  0  0  0
   -5.5200    1.5635  -13.6558 H   0  0  0  0  0  0  0  0  0  0  0  0
   -4.3900    0.3173  -13.1057 H   0  0  0  0  0  0  0  0  0  0  0  0
   -5.6779    0.9302  -12.0047 H   0  0  0  0  0  0  0  0  0  0  0  0
   -5.1922   -1.7324  -11.9900 H   0  0  0  0  0  0  0  0  0  0  0  0
   -3.8690   -2.5538  -11.0582 H   0  0  0  0  0  0  0  0  0  0  0  0
   -5.3203   -2.6828   -9.0608 H   0  0  0  0  0  0  0  0  0  0  0  0
   -7.2755   -0.9518  -10.7280 H   0  0  0  0  0  0  0  0  0  0  0  0
   -7.3946   -1.3560   -8.9426 H   0  0  0  0  0  0  0  0  0  0  0  0
  1 23  1  0  0  0  0
  3  7  1  0  0  0  0
  3  4  1  0  0  0  0
  4  1  1  1  0  0  0
  4  5  1  0  0  0  0
  5 16  1  0  0  0  0
  6 25  1  1  0  0  0
  6  5  1  0  0  0  0
  6  8  1  0  0  0  0
  7 26  1  6  0  0  0
  7  6  1  0  0  0  0
  8 10  1  0  0  0  0
  8 11  1  0  0  0  0
  9 13  1  0  0  0  0
  9 15  1  0  0  0  0
  9  7  1  0  0  0  0
 10 29  1  0  0  0  0
 10 27  1  0  0  0  0
 11 31  1  0  0  0  0
 11 32  1  0  0  0  0
 11 30  1  0  0  0  0
 12 35  1  0  0  0  0
 12  8  1  0  0  0  0
 12 33  1  0  0  0  0
 13 38  1  0  0  0  0
 14  9  1  0  0  0  0
 15 43  1  0  0  0  0
 15 44  1  0  0  0  0
 16 45  1  0  0  0  0
 16 17  1  0  0  0  0
 17 48  1  0  0  0  0
 17 46  1  0  0  0  0
 18 16  1  0  0  0  0
 18 49  1  0  0  0  0
 19 20  1  0  0  0  0
 19  3  1  0  0  0  0
 20 54  1  0  0  0  0
 20 55  1  0  0  0  0
 21 19  1  0  0  0  0
 21 58  1  0  0  0  0
 22 23  1  0  0  0  0
 23 24  1  0  0  0  0
 23 61  1  0  0  0  0
 24 63  1  0  0  0  0
 28 10  1  0  0  0  0
 34 12  1  0  0  0  0
 36 13  1  0  0  0  0
 37 13  1  0  0  0  0
 39 14  1  0  0  0  0
 40 14  1  0  0  0  0
 41 14  1  0  0  0  0
 42 15  1  0  0  0  0
 47 17  1  0  0  0  0
 50 18  1  0  0  0  0
 51 18  1  0  0  0  0
 52 19  1  0  0  0  0
 53 20  1  0  0  0  0
 56 21  1  0  0  0  0
 57 21  1  0  0  0  0
 59 22  1  0  0  0  0
 60 22  1  0  0  0  0
 62 24  1  0  0  0  0
M  END
$$$$
