CSD_code = IYEYAN | q = 1 | S = 0 | Stoichiometry = C28H34BrN4PdS(1+) | MND = 4
 OpenBabel04212202053D

 69 74  0  0  1  0  0  0  0  0999 V2000
    0.2806    2.0605    7.0983 Pd  0  0  2  0  0  0  0  0  0  0  0  0
    1.4569    2.0064    5.0281 Br  0  0  0  0  0  0  0  0  0  0  0  0
   -0.1842    1.9633    9.5023 S   0  0  1  0  0  3  0  0  0  0  0  0
   -0.4398   -0.8948    6.4171 N   0  0  0  0  0  0  0  0  0  0  0  0
    1.0481   -0.6067    7.9392 N   0  0  0  0  0  0  0  0  0  0  0  0
   -0.0603    4.9720    6.2639 N   0  0  0  0  0  0  0  0  0  0  0  0
    0.9543    4.7830    8.1509 N   0  0  0  0  0  0  0  0  0  0  0  0
    0.2231    0.0457    7.0973 C   0  0  1  0  0  3  0  0  0  0  0  0
   -0.0467   -2.1391    6.8349 C   0  0  0  0  0  0  0  0  0  0  0  0
   -0.4622   -3.0366    6.4258 H   0  0  0  0  0  0  0  0  0  0  0  0
    0.8886   -1.9606    7.7991 C   0  0  0  0  0  0  0  0  0  0  0  0
    1.4477   -2.6723    8.3703 H   0  0  0  0  0  0  0  0  0  0  0  0
   -1.4374   -0.6053    5.4392 C   0  0  0  0  0  0  0  0  0  0  0  0
   -2.6938   -0.1844    5.8780 C   0  0  0  0  0  0  0  0  0  0  0  0
   -3.6536    0.1210    4.9255 C   0  0  0  0  0  0  0  0  0  0  0  0
   -4.6339    0.4382    5.2507 H   0  0  0  0  0  0  0  0  0  0  0  0
   -3.3842    0.0153    3.5676 C   0  0  0  0  0  0  0  0  0  0  0  0
   -2.1295   -0.4225    3.1669 C   0  0  0  0  0  0  0  0  0  0  0  0
   -1.9152   -0.5191    2.1134 H   0  0  0  0  0  0  0  0  0  0  0  0
   -1.1413   -0.7484    4.0831 C   0  0  0  0  0  0  0  0  0  0  0  0
   -3.0134   -0.1133    7.3446 C   0  0  0  0  0  0  0  0  0  0  0  0
   -3.9989    0.3165    7.4984 H   0  0  0  0  0  0  0  0  0  0  0  0
   -2.2844    0.4918    7.8915 H   0  0  0  0  0  0  0  0  0  0  0  0
   -3.0069   -1.1136    7.7791 H   0  0  0  0  0  0  0  0  0  0  0  0
   -4.4357    0.3283    2.5504 C   0  0  0  0  0  0  0  0  0  0  0  0
   -3.9983    0.8024    1.6752 H   0  0  0  0  0  0  0  0  0  0  0  0
   -5.2052    0.9761    2.9631 H   0  0  0  0  0  0  0  0  0  0  0  0
   -4.9150   -0.5942    2.2225 H   0  0  0  0  0  0  0  0  0  0  0  0
    0.1981   -1.2357    3.6309 C   0  0  0  0  0  0  0  0  0  0  0  0
    0.9743   -0.5249    3.9104 H   0  0  0  0  0  0  0  0  0  0  0  0
    0.2150   -1.3475    2.5514 H   0  0  0  0  0  0  0  0  0  0  0  0
    0.4410   -2.1966    4.0819 H   0  0  0  0  0  0  0  0  0  0  0  0
    1.8815    0.1062    8.8742 C   0  0  0  0  0  0  0  0  0  0  0  0
    2.4054    0.9149    8.3271 H   0  0  0  0  0  0  0  0  0  0  0  0
    2.6262   -0.5779    9.2901 H   0  0  0  0  0  0  0  0  0  0  0  0
    1.0412    0.6872   10.0178 C   0  0  0  0  0  0  0  0  0  0  0  0
    1.6825    1.1397   10.7716 H   0  0  0  0  0  0  0  0  0  0  0  0
    0.4494   -0.1048   10.4805 H   0  0  0  0  0  0  0  0  0  0  0  0
    0.4205    4.0742    7.1364 C   0  0  0  0  0  0  0  0  0  0  0  0
    0.1533    6.2411    6.7347 C   0  0  0  0  0  0  0  0  0  0  0  0
   -0.1687    7.1110    6.2021 H   0  0  0  0  0  0  0  0  0  0  0  0
    0.7867    6.1257    7.9259 C   0  0  0  0  0  0  0  0  0  0  0  0
    1.1349    6.8728    8.6084 H   0  0  0  0  0  0  0  0  0  0  0  0
   -0.6283    4.6478    4.9969 C   0  0  0  0  0  0  0  0  0  0  0  0
   -1.7774    3.8565    4.9384 C   0  0  0  0  0  0  0  0  0  0  0  0
   -2.2956    3.5305    3.6953 C   0  0  0  0  0  0  0  0  0  0  0  0
   -3.1789    2.9128    3.6440 H   0  0  0  0  0  0  0  0  0  0  0  0
   -1.6971    3.9689    2.5233 C   0  0  0  0  0  0  0  0  0  0  0  0
   -0.5512    4.7459    2.6128 C   0  0  0  0  0  0  0  0  0  0  0  0
   -0.0652    5.0781    1.7081 H   0  0  0  0  0  0  0  0  0  0  0  0
    0.0054    5.0922    3.8340 C   0  0  0  0  0  0  0  0  0  0  0  0
   -2.4414    3.3415    6.1834 C   0  0  0  0  0  0  0  0  0  0  0  0
   -1.9012    2.4383    6.5426 H   0  0  0  0  0  0  0  0  0  0  0  0
   -3.4628    3.0426    5.9651 H   0  0  0  0  0  0  0  0  0  0  0  0
   -2.4589    4.0939    6.9740 H   0  0  0  0  0  0  0  0  0  0  0  0
   -2.2534    3.5809    1.1909 C   0  0  0  0  0  0  0  0  0  0  0  0
   -3.3276    3.4246    1.2481 H   0  0  0  0  0  0  0  0  0  0  0  0
   -1.7889    2.6521    0.8598 H   0  0  0  0  0  0  0  0  0  0  0  0
   -2.0446    4.3433    0.4452 H   0  0  0  0  0  0  0  0  0  0  0  0
    1.2755    5.8851    3.8796 C   0  0  0  0  0  0  0  0  0  0  0  0
    1.0745    6.9422    4.0515 H   0  0  0  0  0  0  0  0  0  0  0  0
    1.7987    5.7951    2.9322 H   0  0  0  0  0  0  0  0  0  0  0  0
    1.9355    5.5250    4.6664 H   0  0  0  0  0  0  0  0  0  0  0  0
    1.5806    4.1673    9.2929 C   0  0  0  0  0  0  0  0  0  0  0  0
    2.1065    4.9371    9.8639 H   0  0  0  0  0  0  0  0  0  0  0  0
    2.3187    3.4300    8.9391 H   0  0  0  0  0  0  0  0  0  0  0  0
    0.5450    3.4919   10.1942 C   0  0  0  0  0  0  0  0  0  0  0  0
   -0.3041    4.1581   10.3568 H   0  0  0  0  0  0  0  0  0  0  0  0
    0.9767    3.2313   11.1592 H   0  0  0  0  0  0  0  0  0  0  0  0
  1  2  1  1  0  0  0
  1 39  2  0  0  0  0
  1  3  1  0  0  0  0
  3 36  1  1  0  0  0
  3 67  1  0  0  0  0
  4  9  1  0  0  0  0
  5 33  1  0  0  0  0
  6 40  1  0  0  0  0
  6 39  1  0  0  0  0
  7 64  1  0  0  0  0
  8  4  1  6  0  0  0
  8  1  1  0  0  0  0
  8  5  1  0  0  0  0
  9 11  2  0  0  0  0
 10  9  1  0  0  0  0
 11  5  1  0  0  0  0
 11 12  1  0  0  0  0
 13 14  1  0  0  0  0
 13  4  1  0  0  0  0
 14 21  1  0  0  0  0
 15 16  1  0  0  0  0
 15 14  2  0  0  0  0
 17 15  1  0  0  0  0
 18 17  2  0  0  0  0
 18 20  1  0  0  0  0
 19 18  1  0  0  0  0
 20 13  2  0  0  0  0
 21 22  1  0  0  0  0
 21 24  1  0  0  0  0
 21 23  1  0  0  0  0
 25 27  1  0  0  0  0
 25 17  1  0  0  0  0
 26 25  1  0  0  0  0
 28 25  1  0  0  0  0
 29 30  1  0  0  0  0
 29 32  1  0  0  0  0
 29 20  1  0  0  0  0
 31 29  1  0  0  0  0
 33 35  1  0  0  0  0
 33 36  1  0  0  0  0
 34 33  1  0  0  0  0
 36 38  1  0  0  0  0
 36 37  1  0  0  0  0
 39  7  1  0  0  0  0
 40 42  2  0  0  0  0
 41 40  1  0  0  0  0
 42  7  1  0  0  0  0
 42 43  1  0  0  0  0
 44  6  1  0  0  0  0
 45 44  1  0  0  0  0
 45 52  1  0  0  0  0
 46 45  2  0  0  0  0
 47 46  1  0  0  0  0
 48 49  2  0  0  0  0
 48 46  1  0  0  0  0
 49 51  1  0  0  0  0
 50 49  1  0  0  0  0
 51 60  1  0  0  0  0
 51 44  2  0  0  0  0
 52 53  1  0  0  0  0
 52 55  1  0  0  0  0
 54 52  1  0  0  0  0
 56 57  1  0  0  0  0
 56 48  1  0  0  0  0
 58 56  1  0  0  0  0
 59 56  1  0  0  0  0
 60 61  1  0  0  0  0
 60 63  1  0  0  0  0
 62 60  1  0  0  0  0
 64 65  1  0  0  0  0
 64 67  1  0  0  0  0
 66 64  1  0  0  0  0
 67 68  1  0  0  0  0
 67 69  1  0  0  0  0
M  END
$$$$
