CSD_code = IYINOV | q = 0 | S = 0 | Stoichiometry = C14H36B10I2NiO2P2 | MND = 4
 OpenBabel04212202053D

 67 74  0  0  1  0  0  0  0  0999 V2000
    2.8315    4.8085    6.4847 I   0  0  0  0  0  0  0  0  0  0  0  0
   -1.1682    4.9280    4.2368 I   0  0  0  0  0  0  0  0  0  0  0  0
    1.2850    4.9298    3.8019 Ni  0  0  0  0  0  0  0  0  0  0  0  0
    1.6555    7.0988    3.9690 P   0  0  0  0  0  4  0  0  0  0  0  0
    1.6285    2.7495    3.7914 P   0  0  0  0  0  4  0  0  0  0  0  0
    3.2969    7.3540    4.0332 O   0  0  0  0  0  0  0  0  0  0  0  0
    3.2668    2.4709    3.8336 O   0  0  0  0  0  0  0  0  0  0  0  0
    4.0746    6.2595    3.6569 C   0  0  1  0  0  0  0  0  0  0  0  0
    4.0577    3.5830    3.5474 C   0  0  2  0  0  0  0  0  0  0  0  0
    1.2488    8.1222    5.4815 C   0  0  0  0  0  0  0  0  0  0  0  0
    1.7496    7.6162    6.3150 H   0  0  0  0  0  0  0  0  0  0  0  0
   -0.2432    8.1627    5.7812 C   0  0  0  0  0  0  0  0  0  0  0  0
   -0.8174    8.5191    4.9282 H   0  0  0  0  0  0  0  0  0  0  0  0
   -0.4272    8.8339    6.6177 H   0  0  0  0  0  0  0  0  0  0  0  0
   -0.6161    7.1802    6.0524 H   0  0  0  0  0  0  0  0  0  0  0  0
    1.8223    9.5332    5.3839 C   0  0  0  0  0  0  0  0  0  0  0  0
    2.8737    9.5139    5.1073 H   0  0  0  0  0  0  0  0  0  0  0  0
    1.7396   10.0166    6.3563 H   0  0  0  0  0  0  0  0  0  0  0  0
    1.2696   10.1342    4.6659 H   0  0  0  0  0  0  0  0  0  0  0  0
    1.0464    8.1652    2.5548 C   0  0  0  0  0  0  0  0  0  0  0  0
    0.2078    8.7338    2.9721 H   0  0  0  0  0  0  0  0  0  0  0  0
    0.4944    7.2721    1.4444 C   0  0  0  0  0  0  0  0  0  0  0  0
    1.2848    6.6782    0.9871 H   0  0  0  0  0  0  0  0  0  0  0  0
    0.0342    7.8781    0.6661 H   0  0  0  0  0  0  0  0  0  0  0  0
   -0.2653    6.5979    1.8364 H   0  0  0  0  0  0  0  0  0  0  0  0
    2.0827    9.1398    2.0040 C   0  0  0  0  0  0  0  0  0  0  0  0
    2.5430    9.7313    2.7892 H   0  0  0  0  0  0  0  0  0  0  0  0
    1.6019    9.8184    1.3004 H   0  0  0  0  0  0  0  0  0  0  0  0
    2.8719    8.6129    1.4740 H   0  0  0  0  0  0  0  0  0  0  0  0
    1.2089    1.6114    5.2158 C   0  0  0  0  0  0  0  0  0  0  0  0
    1.7153    2.0414    6.0877 H   0  0  0  0  0  0  0  0  0  0  0  0
   -0.2838    1.5649    5.5113 C   0  0  0  0  0  0  0  0  0  0  0  0
   -0.6451    2.5271    5.8597 H   0  0  0  0  0  0  0  0  0  0  0  0
   -0.4766    0.8315    6.2917 H   0  0  0  0  0  0  0  0  0  0  0  0
   -0.8614    1.2843    4.6327 H   0  0  0  0  0  0  0  0  0  0  0  0
    1.7649    0.2061    5.0025 C   0  0  0  0  0  0  0  0  0  0  0  0
    1.2080   -0.3262    4.2351 H   0  0  0  0  0  0  0  0  0  0  0  0
    1.6722   -0.3556    5.9309 H   0  0  0  0  0  0  0  0  0  0  0  0
    2.8176    0.2349    4.7316 H   0  0  0  0  0  0  0  0  0  0  0  0
    1.0083    1.8068    2.2964 C   0  0  0  0  0  0  0  0  0  0  0  0
    0.1668    1.2113    2.6677 H   0  0  0  0  0  0  0  0  0  0  0  0
    0.4601    2.7917    1.2647 C   0  0  0  0  0  0  0  0  0  0  0  0
   -0.3045    3.4263    1.7092 H   0  0  0  0  0  0  0  0  0  0  0  0
    0.0073    2.2545    0.4332 H   0  0  0  0  0  0  0  0  0  0  0  0
    1.2512    3.4261    0.8665 H   0  0  0  0  0  0  0  0  0  0  0  0
    2.0372    0.8736    1.6656 C   0  0  0  0  0  0  0  0  0  0  0  0
    2.8222    1.4368    1.1678 H   0  0  0  0  0  0  0  0  0  0  0  0
    1.5484    0.2488    0.9191 H   0  0  0  0  0  0  0  0  0  0  0  0
    2.5039    0.2258    2.4012 H   0  0  0  0  0  0  0  0  0  0  0  0
    3.1336    4.9463    3.1340 B   0  0  1  0  0  0  0  0  0  0  0  0
    4.0143    4.8780    4.6678 B   0  0  0  0  0  0  0  0  0  0  0  0
    4.1088    4.1189    1.9234 B   0  0  1  0  0  0  0  0  0  0  0  0
    3.5931    3.4576    1.1053 H   0  0  0  0  0  0  0  0  0  0  0  0
    4.1200    5.8578    1.9947 B   0  0  2  0  0  0  0  0  0  0  0  0
    3.6136    6.5907    1.2340 H   0  0  0  0  0  0  0  0  0  0  0  0
    5.4811    3.9739    4.4492 B   0  0  1  0  0  0  0  0  0  0  0  0
    5.8243    3.2398    5.2972 H   0  0  0  0  0  0  0  0  0  0  0  0
    5.5576    3.5039    2.7494 B   0  0  2  0  0  0  0  0  0  0  0  0
    5.9696    2.4439    2.4662 H   0  0  0  0  0  0  0  0  0  0  0  0
    5.6421    4.9869    1.7594 B   0  0  1  0  0  0  0  0  0  0  0  0
    6.2122    5.0254    0.7347 H   0  0  0  0  0  0  0  0  0  0  0  0
    5.5759    6.3848    2.8678 B   0  0  2  0  0  0  0  0  0  0  0  0
    6.0013    7.4592    2.6722 H   0  0  0  0  0  0  0  0  0  0  0  0
    5.4925    5.7782    4.5233 B   0  0  2  0  0  0  0  0  0  0  0  0
    5.8445    6.4358    5.4285 H   0  0  0  0  0  0  0  0  0  0  0  0
    6.4861    4.9170    3.3337 B   0  0  1  0  0  0  0  0  0  0  0  0
    7.6569    4.9067    3.4025 H   0  0  0  0  0  0  0  0  0  0  0  0
  3  4  1  0  0  0  0
  3  2  1  0  0  0  0
  4  6  1  0  0  0  0
  4 10  1  0  0  0  0
  5  3  1  0  0  0  0
  5  7  1  0  0  0  0
  5 30  1  0  0  0  0
  8  6  1  1  0  0  0
  9  7  1  1  0  0  0
 10 12  1  0  0  0  0
 10 11  1  0  0  0  0
 12 15  1  0  0  0  0
 12 14  1  0  0  0  0
 13 12  1  0  0  0  0
 16 10  1  0  0  0  0
 16 18  1  0  0  0  0
 17 16  1  0  0  0  0
 19 16  1  0  0  0  0
 20 21  1  0  0  0  0
 20  4  1  0  0  0  0
 22 25  1  0  0  0  0
 22 20  1  0  0  0  0
 23 22  1  0  0  0  0
 24 22  1  0  0  0  0
 26 20  1  0  0  0  0
 26 27  1  0  0  0  0
 28 26  1  0  0  0  0
 29 26  1  0  0  0  0
 30 32  1  0  0  0  0
 30 31  1  0  0  0  0
 32 33  1  0  0  0  0
 32 34  1  0  0  0  0
 35 32  1  0  0  0  0
 36 30  1  0  0  0  0
 36 38  1  0  0  0  0
 37 36  1  0  0  0  0
 39 36  1  0  0  0  0
 40 41  1  0  0  0  0
 40  5  1  0  0  0  0
 42 43  1  0  0  0  0
 42 40  1  0  0  0  0
 44 42  1  0  0  0  0
 45 42  1  0  0  0  0
 46 40  1  0  0  0  0
 46 49  1  0  0  0  0
 47 46  1  0  0  0  0
 48 46  1  0  0  0  0
 50  9  1  0  0  0  0
 50  8  1  0  0  0  0
 51  1  1  0  0  0  0
 52 53  1  6  0  0  0
 52 54  1  0  0  0  0
 52 50  1  0  0  0  0
 52  9  1  0  0  0  0
 54 55  1  6  0  0  0
 54 50  1  0  0  0  0
 54  8  1  0  0  0  0
 56 51  1  0  0  0  0
 56 57  1  1  0  0  0
 58 59  1  6  0  0  0
 58  9  1  0  0  0  0
 58 56  1  0  0  0  0
 60 61  1  6  0  0  0
 60 58  1  0  0  0  0
 60 62  1  0  0  0  0
 60 66  1  0  0  0  0
 62 63  1  6  0  0  0
 62  8  1  0  0  0  0
 62 64  1  0  0  0  0
 64 51  1  0  0  0  0
 64 65  1  1  0  0  0
 66 67  1  1  0  0  0
 66 56  1  0  0  0  0
 66 64  1  0  0  0  0
M  END
$$$$
