CSD_code = IYININ | q = 0 | S = 0 | Stoichiometry = C6H18I2N2Pt | MND = 4
 OpenBabel04212202053D

 29 28  0  0  0  0  0  0  0  0999 V2000
    9.1172    6.8535    1.9683 Pt  0  0  0  0  0  0  0  0  0  0  0  0
    9.6459    7.0283   -0.6018 I   0  0  0  0  0  0  0  0  0  0  0  0
    8.7185    6.7720    4.5656 I   0  0  0  0  0  0  0  0  0  0  0  0
    7.9318    8.5609    1.8372 N   0  0  0  0  0  4  0  0  0  0  0  0
    7.7726    8.8991    2.7933 H   0  0  0  0  0  0  0  0  0  0  0  0
    8.4808    9.2751    1.3472 H   0  0  0  0  0  0  0  0  0  0  0  0
   10.4054    5.2241    2.1217 N   0  0  0  0  0  4  0  0  0  0  0  0
   10.9414    5.1711    1.2478 H   0  0  0  0  0  0  0  0  0  0  0  0
   11.0685    5.4324    2.8757 H   0  0  0  0  0  0  0  0  0  0  0  0
    6.6224    8.4199    1.1747 C   0  0  0  0  0  0  0  0  0  0  0  0
    6.8051    8.1673    0.1235 H   0  0  0  0  0  0  0  0  0  0  0  0
    5.8458    9.7315    1.2490 C   0  0  0  0  0  0  0  0  0  0  0  0
    5.6488   10.0019    2.2852 H   0  0  0  0  0  0  0  0  0  0  0  0
    4.8937    9.6296    0.7367 H   0  0  0  0  0  0  0  0  0  0  0  0
    6.4005   10.5392    0.7753 H   0  0  0  0  0  0  0  0  0  0  0  0
    5.8583    7.2794    1.8382 C   0  0  0  0  0  0  0  0  0  0  0  0
    6.4622    6.3674    1.8187 H   0  0  0  0  0  0  0  0  0  0  0  0
    4.9296    7.0856    1.3097 H   0  0  0  0  0  0  0  0  0  0  0  0
    5.6278    7.5207    2.8740 H   0  0  0  0  0  0  0  0  0  0  0  0
    9.7942    3.9053    2.3678 C   0  0  0  0  0  0  0  0  0  0  0  0
    9.3137    3.9383    3.3527 H   0  0  0  0  0  0  0  0  0  0  0  0
    8.7341    3.6507    1.3016 C   0  0  0  0  0  0  0  0  0  0  0  0
    8.0144    4.4744    1.2897 H   0  0  0  0  0  0  0  0  0  0  0  0
    8.1969    2.7307    1.5118 H   0  0  0  0  0  0  0  0  0  0  0  0
    9.1892    3.5732    0.3161 H   0  0  0  0  0  0  0  0  0  0  0  0
   10.8627    2.8156    2.3661 C   0  0  0  0  0  0  0  0  0  0  0  0
   10.4102    1.8505    2.5746 H   0  0  0  0  0  0  0  0  0  0  0  0
   11.6156    3.0083    3.1281 H   0  0  0  0  0  0  0  0  0  0  0  0
   11.3522    2.7604    1.3950 H   0  0  0  0  0  0  0  0  0  0  0  0
  1  7  1  0  0  0  0
  1  3  1  0  0  0  0
  2  1  1  0  0  0  0
  4  1  1  0  0  0  0
  4  5  1  0  0  0  0
  6  4  1  0  0  0  0
  7 20  1  0  0  0  0
  7  9  1  0  0  0  0
  8  7  1  0  0  0  0
 10 12  1  0  0  0  0
 10  4  1  0  0  0  0
 10 16  1  0  0  0  0
 11 10  1  0  0  0  0
 12 13  1  0  0  0  0
 14 12  1  0  0  0  0
 15 12  1  0  0  0  0
 16 19  1  0  0  0  0
 17 16  1  0  0  0  0
 18 16  1  0  0  0  0
 20 21  1  0  0  0  0
 22 24  1  0  0  0  0
 22 20  1  0  0  0  0
 23 22  1  0  0  0  0
 25 22  1  0  0  0  0
 26 20  1  0  0  0  0
 26 27  1  0  0  0  0
 26 28  1  0  0  0  0
 29 26  1  0  0  0  0
M  END
$$$$
