CSD_code = IYINEJ | q = 0 | S = 0 | Stoichiometry = C8H22I2N2Pt | MND = 4
 OpenBabel04212202053D

 35 34  0  0  0  0  0  0  0  0999 V2000
    1.5174    2.1324    6.2268 Pt  0  0  0  0  0  0  0  0  0  0  0  0
    0.4747    4.4905    5.8102 I   0  0  0  0  0  0  0  0  0  0  0  0
    2.5602   -0.2250    6.6434 I   0  0  0  0  0  0  0  0  0  0  0  0
    1.2714    1.6697    4.2283 N   0  0  0  0  0  4  0  0  0  0  0  0
    1.3530    2.5167    3.6553 H   0  0  0  0  0  0  0  0  0  0  0  0
    1.9990    1.0144    3.9224 H   0  0  0  0  0  0  0  0  0  0  0  0
    1.7622    2.5958    8.2253 N   0  0  0  0  0  4  0  0  0  0  0  0
    1.0276    3.2432    8.5311 H   0  0  0  0  0  0  0  0  0  0  0  0
    1.6903    1.7485    8.7989 H   0  0  0  0  0  0  0  0  0  0  0  0
   -0.0446    1.0617    3.9884 C   0  0  0  0  0  0  0  0  0  0  0  0
   -0.8170    1.7677    4.3110 H   0  0  0  0  0  0  0  0  0  0  0  0
   -0.1252    0.1563    4.5993 H   0  0  0  0  0  0  0  0  0  0  0  0
   -0.2570    0.7085    2.5172 C   0  0  0  0  0  0  0  0  0  0  0  0
    0.5091   -0.0037    2.1981 H   0  0  0  0  0  0  0  0  0  0  0  0
   -0.1541    1.6105    1.9074 H   0  0  0  0  0  0  0  0  0  0  0  0
   -1.6379    0.1002    2.2829 C   0  0  0  0  0  0  0  0  0  0  0  0
   -1.7433   -0.7993    2.8929 H   0  0  0  0  0  0  0  0  0  0  0  0
   -2.4026    0.8108    2.6032 H   0  0  0  0  0  0  0  0  0  0  0  0
   -1.8549   -0.2521    0.8168 C   0  0  0  0  0  0  0  0  0  0  0  0
   -2.8439   -0.6785    0.6714 H   0  0  0  0  0  0  0  0  0  0  0  0
   -1.1163   -0.9781    0.4841 H   0  0  0  0  0  0  0  0  0  0  0  0
   -1.7692    0.6353    0.1934 H   0  0  0  0  0  0  0  0  0  0  0  0
    3.0710    3.2196    8.4645 C   0  0  0  0  0  0  0  0  0  0  0  0
    3.8522    2.5199    8.1493 H   0  0  0  0  0  0  0  0  0  0  0  0
    3.1435    4.1215    7.8474 H   0  0  0  0  0  0  0  0  0  0  0  0
    3.2734    3.5875    9.9335 C   0  0  0  0  0  0  0  0  0  0  0  0
    3.1984    2.6868   10.5492 H   0  0  0  0  0  0  0  0  0  0  0  0
    2.4855    4.2776   10.2480 H   0  0  0  0  0  0  0  0  0  0  0  0
    4.6338    4.2417   10.1640 C   0  0  0  0  0  0  0  0  0  0  0  0
    5.4220    3.5522    9.8548 H   0  0  0  0  0  0  0  0  0  0  0  0
    4.7122    5.1366    9.5433 H   0  0  0  0  0  0  0  0  0  0  0  0
    4.8338    4.6192   11.6261 C   0  0  0  0  0  0  0  0  0  0  0  0
    5.8055    5.0846   11.7688 H   0  0  0  0  0  0  0  0  0  0  0  0
    4.7798    3.7369   12.2602 H   0  0  0  0  0  0  0  0  0  0  0  0
    4.0673    5.3207   11.9482 H   0  0  0  0  0  0  0  0  0  0  0  0
  1  3  1  0  0  0  0
  1  7  1  0  0  0  0
  2  1  1  0  0  0  0
  4  1  1  0  0  0  0
  5  4  1  0  0  0  0
  6  4  1  0  0  0  0
  7 23  1  0  0  0  0
  7  8  1  0  0  0  0
  7  9  1  0  0  0  0
 10  4  1  0  0  0  0
 10 11  1  0  0  0  0
 10 12  1  0  0  0  0
 13 10  1  0  0  0  0
 14 13  1  0  0  0  0
 15 13  1  0  0  0  0
 16 13  1  0  0  0  0
 16 18  1  0  0  0  0
 16 17  1  0  0  0  0
 19 16  1  0  0  0  0
 20 19  1  0  0  0  0
 21 19  1  0  0  0  0
 22 19  1  0  0  0  0
 23 26  1  0  0  0  0
 24 23  1  0  0  0  0
 25 23  1  0  0  0  0
 26 29  1  0  0  0  0
 26 28  1  0  0  0  0
 26 27  1  0  0  0  0
 29 32  1  0  0  0  0
 30 29  1  0  0  0  0
 31 29  1  0  0  0  0
 32 33  1  0  0  0  0
 32 35  1  0  0  0  0
 32 34  1  0  0  0  0
M  END
$$$$
