CSD_code = IYIPOV | q = 0 | S = 0 | Stoichiometry = C2H10I2N2Pt | MND = 4
 OpenBabel04212202053D

 17 16  0  0  0  0  0  0  0  0999 V2000
    2.8809    2.0651    5.1646 Pt  0  0  0  0  0  0  0  0  0  0  0  0
    4.0325    1.1798    7.2889 I   0  0  0  0  0  0  0  0  0  0  0  0
    5.0572    2.4404    3.8446 I   0  0  0  0  0  0  0  0  0  0  0  0
    1.7986    2.7641    3.4125 N   0  0  0  0  0  4  0  0  0  0  0  0
    0.9470    3.2806    3.6333 H   0  0  0  0  0  0  0  0  0  0  0  0
    2.4473    3.4204    2.9714 H   0  0  0  0  0  0  0  0  0  0  0  0
    0.9777    1.8294    6.1908 N   0  0  0  0  0  4  0  0  0  0  0  0
    0.2098    1.5450    5.5824 H   0  0  0  0  0  0  0  0  0  0  0  0
    1.1500    1.0606    6.8431 H   0  0  0  0  0  0  0  0  0  0  0  0
    1.4999    1.6969    2.4533 C   0  0  0  0  0  0  0  0  0  0  0  0
    1.0374    2.0866    1.5415 H   0  0  0  0  0  0  0  0  0  0  0  0
    0.8240    0.9659    2.8986 H   0  0  0  0  0  0  0  0  0  0  0  0
    2.4269    1.1918    2.1818 H   0  0  0  0  0  0  0  0  0  0  0  0
    0.5908    3.0120    6.9649 C   0  0  0  0  0  0  0  0  0  0  0  0
   -0.3120    2.8339    7.5567 H   0  0  0  0  0  0  0  0  0  0  0  0
    0.4069    3.8567    6.3000 H   0  0  0  0  0  0  0  0  0  0  0  0
    1.4022    3.2751    7.6437 H   0  0  0  0  0  0  0  0  0  0  0  0
  1  7  1  0  0  0  0
  1  2  1  0  0  0  0
  3  1  1  0  0  0  0
  4  5  1  0  0  0  0
  4  1  1  0  0  0  0
  6  4  1  0  0  0  0
  7  9  1  0  0  0  0
  7 14  1  0  0  0  0
  8  7  1  0  0  0  0
 10 12  1  0  0  0  0
 10  4  1  0  0  0  0
 11 10  1  0  0  0  0
 13 10  1  0  0  0  0
 14 15  1  0  0  0  0
 14 17  1  0  0  0  0
 16 14  1  0  0  0  0
M  END
$$$$
