CSD_code = IYUDIQ | q = 0 | S = 0 | Stoichiometry = C10H9Cl4N3Pt | MND = 6
 OpenBabel04212202053D

 27 29  0  0  1  0  0  0  0  0999 V2000
    3.2952    3.1158   15.4347 Pt  0  0  0  0  0  0  0  0  0  0  0  0
    4.9459    4.6000   16.2162 Cl  0  0  0  0  0  0  0  0  0  0  0  0
    4.8758    1.6152   14.7114 Cl  0  0  0  0  0  0  0  0  0  0  0  0
    3.3389    4.0502   13.3376 Cl  0  0  0  0  0  0  0  0  0  0  0  0
    1.5539    1.6283   14.7481 Cl  0  0  0  0  0  0  0  0  0  0  0  0
    1.7851    4.4227   16.0775 N   0  0  0  0  0  0  0  0  0  0  0  0
    3.1791    2.2130   17.3252 N   0  0  0  0  0  0  0  0  0  0  0  0
    0.8929    2.7865   17.5363 N   0  0  0  0  0  0  0  0  0  0  0  0
    0.0227    2.4648   17.9383 H   0  0  0  0  0  0  0  0  0  0  0  0
    1.6731    5.6095   15.4803 C   0  0  0  0  0  3  0  0  0  0  0  0
    2.5464    5.9525   14.9420 H   0  0  0  0  0  0  0  0  0  0  0  0
    0.5154    6.3561   15.5301 C   0  0  0  0  0  0  0  0  0  0  0  0
    0.4651    7.3085   15.0307 H   0  0  0  0  0  0  0  0  0  0  0  0
   -0.5797    5.8357   16.2119 C   0  0  0  0  0  0  0  0  0  0  0  0
   -1.5160    6.3708   16.2419 H   0  0  0  0  0  0  0  0  0  0  0  0
   -0.4485    4.6293   16.8628 C   0  0  0  0  0  0  0  0  0  0  0  0
   -1.2703    4.2059   17.4189 H   0  0  0  0  0  0  0  0  0  0  0  0
    0.7717    3.9399   16.7983 C   0  0  0  0  0  0  0  0  0  0  0  0
    1.9803    2.0176   17.8769 C   0  0  2  0  0  3  0  0  0  0  0  0
    1.8031    1.0411   18.8686 C   0  0  0  0  0  0  0  0  0  0  0  0
    0.8191    0.8687   19.2763 H   0  0  0  0  0  0  0  0  0  0  0  0
    2.8883    0.3140   19.3041 C   0  0  0  0  0  0  0  0  0  0  0  0
    2.7650   -0.4493   20.0568 H   0  0  0  0  0  0  0  0  0  0  0  0
    4.1426    0.5900   18.7699 C   0  0  0  0  0  0  0  0  0  0  0  0
    5.0221    0.0654   19.1018 H   0  0  0  0  0  0  0  0  0  0  0  0
    4.2381    1.5391   17.7748 C   0  0  0  0  0  0  0  0  0  0  0  0
    5.1829    1.7745   17.3042 H   0  0  0  0  0  0  0  0  0  0  0  0
  1  6  1  0  0  0  0
  1  2  1  0  0  0  0
  1  7  1  0  0  0  0
  3  1  1  0  0  0  0
  4  1  1  0  0  0  0
  5  1  1  0  0  0  0
  6 18  1  0  0  0  0
  7 26  1  0  0  0  0
  7 19  1  0  0  0  0
  8 19  1  0  0  0  0
  8  9  1  0  0  0  0
 10 12  1  0  0  0  0
 10  6  1  0  0  0  0
 11 10  1  0  0  0  0
 12 14  2  0  0  0  0
 13 12  1  0  0  0  0
 14 15  1  0  0  0  0
 14 16  1  0  0  0  0
 16 17  1  0  0  0  0
 18 16  2  0  0  0  0
 18  8  1  0  0  0  0
 19 20  1  1  0  0  0
 20 21  1  0  0  0  0
 20 22  2  0  0  0  0
 22 23  1  0  0  0  0
 24 25  1  0  0  0  0
 24 22  1  0  0  0  0
 26 24  2  0  0  0  0
 27 26  1  0  0  0  0
M  END
$$$$
