CSD_code = IYUDEM | q = 0 | S = 0 | Stoichiometry = C6H4Cl4N2PtS2 | MND = 6
 OpenBabel04212202053D

 19 21  0  0  0  0  0  0  0  0999 V2000
   -1.2815    5.0483    2.8403 Pt  0  0  0  0  0  0  0  0  0  0  0  0
   -0.3932    3.7810    1.0368 Cl  0  0  0  0  0  0  0  0  0  0  0  0
   -2.3883    6.4484    1.4241 Cl  0  0  0  0  0  0  0  0  0  0  0  0
   -3.0972    3.6816    3.0155 Cl  0  0  0  0  0  0  0  0  0  0  0  0
   -1.9365    6.3118    4.7447 Cl  0  0  0  0  0  0  0  0  0  0  0  0
    2.4315    7.7483    2.5716 S   0  0  0  0  0  0  0  0  0  0  0  0
    1.0449    2.2815    5.6840 S   0  0  0  0  0  0  0  0  0  0  0  0
    0.4805    6.1700    2.8127 N   0  0  0  0  0  0  0  0  0  0  0  0
   -0.1017    3.8922    4.1195 N   0  0  0  0  0  0  0  0  0  0  0  0
    0.8288    7.2641    2.2195 C   0  0  0  0  0  3  0  0  0  0  0  0
    0.1728    7.8138    1.5688 H   0  0  0  0  0  0  0  0  0  0  0  0
   -0.3089    2.7968    4.7732 C   0  0  0  0  0  3  0  0  0  0  0  0
   -1.2422    2.2637    4.7456 H   0  0  0  0  0  0  0  0  0  0  0  0
    2.6155    6.3745    3.5803 C   0  0  0  0  0  0  0  0  0  0  0  0
    3.5329    6.1852    4.0984 H   0  0  0  0  0  0  0  0  0  0  0  0
    1.9251    3.6441    5.1296 C   0  0  0  0  0  0  0  0  0  0  0  0
    2.9370    3.8133    5.4355 H   0  0  0  0  0  0  0  0  0  0  0  0
    1.4669    5.6343    3.5941 C   0  0  0  0  0  0  0  0  0  0  0  0
    1.1543    4.4042    4.2957 C   0  0  0  0  0  0  0  0  0  0  0  0
  1  4  1  0  0  0  0
  1  9  1  0  0  0  0
  1  5  1  0  0  0  0
  2  1  1  0  0  0  0
  3  1  1  0  0  0  0
  6 14  1  0  0  0  0
  8  1  1  0  0  0  0
  8 18  1  0  0  0  0
  9 19  1  0  0  0  0
  9 12  1  0  0  0  0
 10  6  1  0  0  0  0
 10  8  1  0  0  0  0
 11 10  1  0  0  0  0
 12  7  1  0  0  0  0
 13 12  1  0  0  0  0
 14 18  2  0  0  0  0
 14 15  1  0  0  0  0
 16 17  1  0  0  0  0
 16  7  1  0  0  0  0
 18 19  1  0  0  0  0
 19 16  2  0  0  0  0
M  END
$$$$
