CSD_code = IYUQUP | q = 0 | S = 0 | Stoichiometry = C24H13ClF2N2Pt | MND = 4
 OpenBabel04212202053D

 43 49  0  0  1  0  0  0  0  0999 V2000
    6.7890    6.4076   -1.0554 Pt  0  0  2  0  0  0  0  0  0  0  0  0
    6.2989    7.9253   -2.7055 Cl  0  0  0  0  0  0  0  0  0  0  0  0
    6.0960    7.4367    0.5271 N   0  0  0  0  0  0  0  0  0  0  0  0
    5.6657    8.7116    0.4866 C   0  0  0  0  0  0  0  0  0  0  0  0
    5.6225    9.1597   -0.4979 H   0  0  0  0  0  0  0  0  0  0  0  0
    5.2750    9.3933    1.6027 C   0  0  0  0  0  0  0  0  0  0  0  0
    4.8758   10.3921    1.5251 H   0  0  0  0  0  0  0  0  0  0  0  0
    5.4517    8.8016    2.8705 C   0  0  0  0  0  0  0  0  0  0  0  0
    5.1812    9.4951    4.0659 C   0  0  0  0  0  0  0  0  0  0  0  0
    4.7618   10.4883    4.0024 H   0  0  0  0  0  0  0  0  0  0  0  0
    5.4708    8.9297    5.2766 C   0  0  0  0  0  0  0  0  0  0  0  0
    5.2632    9.4627    6.1924 H   0  0  0  0  0  0  0  0  0  0  0  0
    6.0806    7.6682    5.3330 C   0  0  0  0  0  0  0  0  0  0  0  0
    6.3642    7.2595    6.2910 H   0  0  0  0  0  0  0  0  0  0  0  0
    6.3285    6.9586    4.1900 C   0  0  0  0  0  0  0  0  0  0  0  0
    6.8404    6.0146    4.2545 H   0  0  0  0  0  0  0  0  0  0  0  0
    5.9698    7.4769    2.9276 C   0  0  0  0  0  0  0  0  0  0  0  0
    6.1671    6.7787    1.7042 C   0  0  0  0  0  0  0  0  0  0  0  0
    7.5587    4.9439   -2.1994 N   0  0  0  0  0  0  0  0  0  0  0  0
    7.8141    5.0506   -3.5169 C   0  0  0  0  0  0  0  0  0  0  0  0
    7.4942    5.9742   -3.9821 H   0  0  0  0  0  0  0  0  0  0  0  0
    8.4068    4.0531   -4.2357 C   0  0  0  0  0  0  0  0  0  0  0  0
    8.5385    4.1477   -5.3018 H   0  0  0  0  0  0  0  0  0  0  0  0
    8.9008    2.9166   -3.5627 C   0  0  1  0  0  3  0  0  0  0  0  0
    9.6256    1.9081   -4.2262 C   0  0  0  0  0  0  0  0  0  0  0  0
    9.7463    1.9791   -5.2971 H   0  0  0  0  0  0  0  0  0  0  0  0
   10.1855    0.8787   -3.5219 C   0  0  0  0  0  0  0  0  0  0  0  0
   10.7414    0.1062   -4.0319 H   0  0  0  0  0  0  0  0  0  0  0  0
   10.0770    0.8450   -2.1242 C   0  0  0  0  0  0  0  0  0  0  0  0
   10.5779    0.0640   -1.5728 H   0  0  0  0  0  0  0  0  0  0  0  0
    9.3546    1.7945   -1.4552 C   0  0  0  0  0  0  0  0  0  0  0  0
    9.3245    1.7757   -0.3800 H   0  0  0  0  0  0  0  0  0  0  0  0
    8.6959    2.8262   -2.1570 C   0  0  0  0  0  0  0  0  0  0  0  0
    7.8999    3.8231   -1.5281 C   0  0  0  0  0  0  0  0  0  0  0  0
    5.5447    4.3531    3.5349 F   0  0  0  0  0  0  0  0  0  0  0  0
    7.2475    1.4437    0.3510 F   0  0  0  0  0  0  0  0  0  0  0  0
    7.0466    5.0717    0.3048 C   0  0  0  0  0  0  0  0  0  0  0  0
    6.4951    5.3559    1.5656 C   0  0  0  0  0  0  0  0  0  0  0  0
    6.2175    4.2519    2.3691 C   0  0  0  0  0  0  0  0  0  0  0  0
    6.5198    2.9667    1.9469 C   0  0  0  0  0  0  0  0  0  0  0  0
    6.2428    2.1281    2.5653 H   0  0  0  0  0  0  0  0  0  0  0  0
    7.1045    2.7366    0.7113 C   0  0  0  0  0  0  0  0  0  0  0  0
    7.4116    3.7917   -0.1455 C   0  0  0  0  0  0  0  0  0  0  0  0
  1  2  1  6  0  0  0
  1 37  2  0  0  0  0
  1  3  1  0  0  0  0
  3 18  1  0  0  0  0
  4  3  1  0  0  0  0
  4  6  2  0  0  0  0
  5  4  1  0  0  0  0
  6  8  1  0  0  0  0
  7  6  1  0  0  0  0
  8 17  2  0  0  0  0
  8  9  1  0  0  0  0
  9 11  2  0  0  0  0
 10  9  1  0  0  0  0
 11 13  1  0  0  0  0
 11 12  1  0  0  0  0
 13 14  1  0  0  0  0
 15 16  1  0  0  0  0
 15 13  2  0  0  0  0
 17 15  1  0  0  0  0
 18 17  1  0  0  0  0
 19 34  1  0  0  0  0
 19  1  1  0  0  0  0
 20 19  1  0  0  0  0
 21 20  1  0  0  0  0
 22 20  2  0  0  0  0
 23 22  1  0  0  0  0
 24 22  1  1  0  0  0
 24 33  1  0  0  0  0
 25 24  1  0  0  0  0
 25 27  2  0  0  0  0
 26 25  1  0  0  0  0
 27 29  1  0  0  0  0
 28 27  1  0  0  0  0
 29 30  1  0  0  0  0
 29 31  2  0  0  0  0
 31 32  1  0  0  0  0
 33 34  2  0  0  0  0
 33 31  1  0  0  0  0
 34 43  1  0  0  0  0
 36 42  1  0  0  0  0
 37 38  1  0  0  0  0
 38 18  2  0  0  0  0
 38 39  1  0  0  0  0
 39 35  1  0  0  0  0
 40 39  2  0  0  0  0
 40 41  1  0  0  0  0
 42 40  1  0  0  0  0
 43 37  1  0  0  0  0
 43 42  2  0  0  0  0
M  END
$$$$
