CSD_code = IYURAW | q = 0 | S = 0 | Stoichiometry = C16H9ClF2N2Pt | MND = 4
 OpenBabel04212202053D

 31 35  0  0  0  0  0  0  0  0999 V2000
    1.9654    8.8121    8.1166 Pt  0  0  1  0  0  0  0  0  0  0  0  0
    3.2519    7.6078    6.6383 Cl  0  0  0  0  0  0  0  0  0  0  0  0
    1.6586    7.3840    9.5014 N   0  0  0  0  0  0  0  0  0  0  0  0
    0.8961    7.7787   10.5651 C   0  0  0  0  0  0  0  0  0  0  0  0
    0.6125    6.8899   11.5974 C   0  0  0  0  0  0  0  0  0  0  0  0
    0.0097    7.2142   12.4296 H   0  0  0  0  0  0  0  0  0  0  0  0
    1.1066    5.5982   11.5487 C   0  0  0  0  0  0  0  0  0  0  0  0
    0.8925    4.9030   12.3459 H   0  0  0  0  0  0  0  0  0  0  0  0
    1.8788    5.2155   10.4620 C   0  0  0  0  0  0  0  0  0  0  0  0
    2.2830    4.2193   10.3856 H   0  0  0  0  0  0  0  0  0  0  0  0
    2.1277    6.1409    9.4634 C   0  0  0  0  0  3  0  0  0  0  0  0
    2.7252    5.8841    8.5967 H   0  0  0  0  0  0  0  0  0  0  0  0
    1.9251   10.5703    7.1379 N   0  0  0  0  0  0  0  0  0  0  0  0
    2.5196   10.8367    5.9791 C   0  0  0  0  0  0  0  0  0  0  0  0
    3.0702   10.0198    5.5279 H   0  0  0  0  0  0  0  0  0  0  0  0
    2.4507   12.0775    5.3698 C   0  0  0  0  0  0  0  0  0  0  0  0
    2.9514   12.2441    4.4300 H   0  0  0  0  0  0  0  0  0  0  0  0
    1.7310   13.0869    5.9916 C   0  0  0  0  0  0  0  0  0  0  0  0
    1.6560   14.0667    5.5453 H   0  0  0  0  0  0  0  0  0  0  0  0
    1.1079   12.8197    7.1980 C   0  0  0  0  0  0  0  0  0  0  0  0
    0.5422   13.5852    7.7031 H   0  0  0  0  0  0  0  0  0  0  0  0
    1.2121   11.5535    7.7652 C   0  0  0  0  0  0  0  0  0  0  0  0
    0.8883    9.8166    9.3493 C   0  0  0  0  0  0  0  0  0  0  0  0
    0.4394    9.1655   10.5027 C   0  0  0  0  0  0  0  0  0  0  0  0
   -0.3404    9.9186   11.3755 C   0  0  0  0  0  0  0  0  0  0  0  0
   -0.8269    9.3911   12.5177 F   0  0  0  0  0  0  0  0  0  0  0  0
   -0.6458   11.2437   11.1002 C   0  0  0  0  0  0  0  0  0  0  0  0
   -1.2520   11.8068   11.7911 H   0  0  0  0  0  0  0  0  0  0  0  0
   -0.1779   11.8501    9.9435 C   0  0  0  0  0  0  0  0  0  0  0  0
   -0.5111   13.1411    9.7380 F   0  0  0  0  0  0  0  0  0  0  0  0
    0.6059   11.1490    9.0318 C   0  0  0  0  0  0  0  0  0  0  0  0
  1  2  1  6  0  0  0
  1 23  2  0  0  0  0
  1  3  1  0  0  0  0
  3  4  1  0  0  0  0
  4  5  2  0  0  0  0
  5  6  1  0  0  0  0
  7  5  1  0  0  0  0
  7  8  1  0  0  0  0
  9  7  2  0  0  0  0
 10  9  1  0  0  0  0
 11  3  1  0  0  0  0
 11  9  1  0  0  0  0
 12 11  1  0  0  0  0
 13 22  1  0  0  0  0
 13  1  1  0  0  0  0
 14 13  1  0  0  0  0
 15 14  1  0  0  0  0
 16 14  2  0  0  0  0
 16 18  1  0  0  0  0
 17 16  1  0  0  0  0
 18 20  2  0  0  0  0
 19 18  1  0  0  0  0
 20 21  1  0  0  0  0
 20 22  1  0  0  0  0
 22 31  2  0  0  0  0
 23 24  1  0  0  0  0
 24  4  1  0  0  0  0
 24 25  2  0  0  0  0
 25 26  1  0  0  0  0
 27 25  1  0  0  0  0
 27 28  1  0  0  0  0
 29 27  2  0  0  0  0
 30 29  1  0  0  0  0
 31 23  1  0  0  0  0
 31 29  1  0  0  0  0
M  END
$$$$
