CSD_code = IYUWAA | q = 0 | S = 0 | Stoichiometry = C19H19Cl2N5O3Zn | MND = 4
 OpenBabel04212202053D

 49 50  0  0  0  0  0  0  0  0999 V2000
   -0.2019    4.2886    6.7060 Zn  0  0  0  0  0  0  0  0  0  0  0  0
    0.8528    5.6769    5.3233 Cl  0  0  0  0  0  0  0  0  0  0  0  0
   -0.7702    4.5484    8.7864 Cl  0  0  0  0  0  0  0  0  0  0  0  0
    1.2574    2.6517    6.5773 O   0  0  0  0  0  0  0  0  0  0  0  0
    1.1713    2.1706    5.7257 H   0  0  0  0  0  0  0  0  0  0  0  0
    2.1795    2.9193    6.6361 H   0  0  0  0  0  0  0  0  0  0  0  0
    1.0187    1.4518    4.1742 O   0  0  0  0  0  0  0  0  0  0  0  0
    1.4430    0.2932   -2.7356 O   0  0  0  0  0  0  0  0  0  0  0  0
   -1.6402    2.9452    5.8434 N   0  0  0  0  0  0  0  0  0  0  0  0
   -0.2502    2.5048    2.6169 N   0  0  0  0  0  0  0  0  0  0  0  0
   -0.3789    2.6024    1.6204 H   0  0  0  0  0  0  0  0  0  0  0  0
    0.8941    1.1570    0.6529 N   0  0  0  0  0  0  0  0  0  0  0  0
   -0.1331    1.6027   -1.7670 N   0  0  0  0  0  0  0  0  0  0  0  0
   -0.4065    2.0329   -0.8966 H   0  0  0  0  0  0  0  0  0  0  0  0
   -1.0353    4.4650   -3.0126 N   0  0  0  0  0  0  0  0  0  0  0  0
   -2.3049    2.2621    6.7711 C   0  0  0  0  0  3  0  0  0  0  0  0
   -2.2051    2.6290    7.7827 H   0  0  0  0  0  0  0  0  0  0  0  0
   -3.0692    1.1490    6.4744 C   0  0  0  0  0  0  0  0  0  0  0  0
   -3.5880    0.6240    7.2595 H   0  0  0  0  0  0  0  0  0  0  0  0
   -3.1398    0.7268    5.1556 C   0  0  0  0  0  0  0  0  0  0  0  0
   -3.7194   -0.1421    4.8822 H   0  0  0  0  0  0  0  0  0  0  0  0
   -2.4546    1.4453    4.1930 C   0  0  0  0  0  0  0  0  0  0  0  0
   -2.4865    1.1523    3.1549 H   0  0  0  0  0  0  0  0  0  0  0  0
   -1.7092    2.5575    4.5723 C   0  0  0  0  0  0  0  0  0  0  0  0
   -0.9677    3.3614    3.5364 C   0  0  0  0  0  0  0  0  0  0  0  0
   -1.6823    3.9566    2.9639 H   0  0  0  0  0  0  0  0  0  0  0  0
   -0.2727    4.0486    4.0348 H   0  0  0  0  0  0  0  0  0  0  0  0
    0.7028    1.6497    3.0067 C   0  0  0  0  0  0  0  0  0  0  0  0
    1.3544    0.9183    1.8780 C   0  0  0  0  0  0  0  0  0  0  0  0
    2.3994    0.0366    2.1381 C   0  0  0  0  0  0  0  0  0  0  0  0
    2.7187   -0.1104    3.1575 H   0  0  0  0  0  0  0  0  0  0  0  0
    2.9931   -0.6199    1.0722 C   0  0  0  0  0  0  0  0  0  0  0  0
    3.8089   -1.3081    1.2350 H   0  0  0  0  0  0  0  0  0  0  0  0
    2.5183   -0.3734   -0.2041 C   0  0  0  0  0  0  0  0  0  0  0  0
    2.9320   -0.8479   -1.0798 H   0  0  0  0  0  0  0  0  0  0  0  0
    1.4627    0.5222   -0.3654 C   0  0  0  0  0  0  0  0  0  0  0  0
    0.9413    0.7931   -1.7472 C   0  0  0  0  0  0  0  0  0  0  0  0
   -0.7423    2.0709   -2.9927 C   0  0  0  0  0  0  0  0  0  0  0  0
   -1.8267    2.0972   -2.8674 H   0  0  0  0  0  0  0  0  0  0  0  0
   -0.4660    1.3604   -3.7755 H   0  0  0  0  0  0  0  0  0  0  0  0
   -0.2439    3.4529   -3.3399 C   0  0  0  0  0  0  0  0  0  0  0  0
    1.0026    3.6320   -3.9308 C   0  0  0  0  0  0  0  0  0  0  0  0
    1.6157    2.7764   -4.1677 H   0  0  0  0  0  0  0  0  0  0  0  0
    1.4237    4.9231   -4.2016 C   0  0  0  0  0  0  0  0  0  0  0  0
    2.3837    5.1015   -4.6638 H   0  0  0  0  0  0  0  0  0  0  0  0
    0.5900    5.9812   -3.8730 C   0  0  0  0  0  0  0  0  0  0  0  0
    0.8789    7.0015   -4.0708 H   0  0  0  0  0  0  0  0  0  0  0  0
   -0.6283    5.6945   -3.2768 C   0  0  0  0  0  0  0  0  0  0  0  0
   -1.3149    6.4817   -2.9941 H   0  0  0  0  0  0  0  0  0  0  0  0
  1  3  1  0  0  0  0
  2  1  1  0  0  0  0
  4  6  1  0  0  0  0
  5  4  1  0  0  0  0
  8 37  2  0  0  0  0
  9  1  1  0  0  0  0
  9 16  1  0  0  0  0
 10 28  1  0  0  0  0
 10 25  1  0  0  0  0
 11 10  1  0  0  0  0
 12 29  1  0  0  0  0
 13 37  1  0  0  0  0
 13 14  1  0  0  0  0
 16 17  1  0  0  0  0
 18 16  1  0  0  0  0
 18 19  1  0  0  0  0
 20 18  2  0  0  0  0
 21 20  1  0  0  0  0
 22 24  2  0  0  0  0
 22 20  1  0  0  0  0
 23 22  1  0  0  0  0
 24  9  1  0  0  0  0
 25 27  1  0  0  0  0
 25 24  1  0  0  0  0
 26 25  1  0  0  0  0
 28  7  2  0  0  0  0
 29 30  2  0  0  0  0
 29 28  1  0  0  0  0
 30 31  1  0  0  0  0
 32 33  1  0  0  0  0
 32 30  1  0  0  0  0
 34 32  2  0  0  0  0
 35 34  1  0  0  0  0
 36 34  1  0  0  0  0
 36 12  2  0  0  0  0
 37 36  1  0  0  0  0
 38 39  1  0  0  0  0
 38 13  1  0  0  0  0
 40 38  1  0  0  0  0
 41 15  2  0  0  0  0
 41 38  1  0  0  0  0
 42 41  1  0  0  0  0
 43 42  1  0  0  0  0
 44 42  2  0  0  0  0
 44 46  1  0  0  0  0
 45 44  1  0  0  0  0
 46 48  2  0  0  0  0
 47 46  1  0  0  0  0
 48 15  1  0  0  0  0
 48 49  1  0  0  0  0
M  END
$$$$
