CSD_code = IZAGEW | q = -1 | S = 0 | Stoichiometry = C4H6Cl2CuO2(1-) | MND = 4
 OpenBabel04212202053D

 15 12  0  0  1  0  0  0  0  0999 V2000
   -0.6779    7.5738    6.3302 Cu  0  0  0  0  0  0  0  0  0  0  0  0
   -1.2706    8.8932    8.0185 Cl  0  0  0  0  0 15  0  0  0  0  0  0
   -2.1540    6.3711    5.1824 Cl  0  0  0  0  0 15  0  0  0  0  0  0
    1.7138    8.6430    8.5298 O   0  0  0  0  0  0  0  0  0  0  0  0
    0.7391    8.7485    8.6203 H   0  0  0  0  0  0  0  0  0  0  0  0
    2.0180    8.8252    7.1780 C   0  0  0  0  0  0  0  0  0  0  0  0
    3.1020    8.6702    7.0778 H   0  0  0  0  0  0  0  0  0  0  0  0
    1.7795    9.8557    6.8581 H   0  0  0  0  0  0  0  0  0  0  0  0
    1.3361    7.8994    6.2578 C   0  0  0  0  0  2  0  0  0  0  0  0
    1.0580    7.0989    5.3675 C   0  0  2  0  0  3  0  0  0  0  0  0
    1.0990    6.1711    4.2245 C   0  0  0  0  0  0  0  0  0  0  0  0
    0.6965    6.7036    3.3437 H   0  0  0  0  0  0  0  0  0  0  0  0
    2.1505    5.9165    4.0283 H   0  0  0  0  0  0  0  0  0  0  0  0
    0.4278    4.9614    4.4217 O   0  0  0  0  0  0  0  0  0  0  0  0
   -0.5078    5.1841    4.6327 H   0  0  0  0  0  0  0  0  0  0  0  0
  4  5  1  0  0  0  0
  6  4  1  0  0  0  0
  7  6  1  0  0  0  0
  8  6  1  0  0  0  0
  9  6  1  0  0  0  0
 10  9  1  0  0  0  0
 10  1  1  6  0  0  0
 11 14  1  0  0  0  0
 11 10  1  0  0  0  0
 12 11  1  0  0  0  0
 13 11  1  0  0  0  0
 14 15  1  0  0  0  0
M  END
$$$$
