CSD_code = IZAYAK | q = 0 | S = 0 | Stoichiometry = C23H28Cl2O4P2Pt | MND = 4
 OpenBabel04212202053D

 60 65  0  0  1  0  0  0  0  0999 V2000
    9.4974    2.5406    4.5496 Pt  0  0  0  0  0  0  0  0  0  0  0  0
   11.1525    2.7725    3.0029 Cl  0  0  0  0  0  0  0  0  0  0  0  0
   11.0074    1.9198    6.1545 Cl  0  0  0  0  0  0  0  0  0  0  0  0
    8.0036    3.0768    2.9328 P   0  0  0  0  0  4  0  0  0  0  0  0
    7.6952    2.4771    5.9235 P   0  0  1  0  0  4  0  0  0  0  0  0
    7.1488    1.1203    7.0960 C   0  0  1  0  0  0  0  0  0  0  0  0
    8.1642    2.1912    8.9923 C   0  0  2  0  0  0  0  0  0  0  0  0
    5.9273    2.7171    8.5523 C   0  0  1  0  0  0  0  0  0  0  0  0
    5.7783    1.4520    7.6850 C   0  0  0  0  0  0  0  0  0  0  0  0
    5.0338    1.6069    6.9051 H   0  0  0  0  0  0  0  0  0  0  0  0
    5.4610    0.6324    8.3334 H   0  0  0  0  0  0  0  0  0  0  0  0
    8.6370    3.4569    8.2665 C   0  0  0  0  0  0  0  0  0  0  0  0
    8.7382    4.2625    8.9955 H   0  0  0  0  0  0  0  0  0  0  0  0
    9.5988    3.2613    7.7839 H   0  0  0  0  0  0  0  0  0  0  0  0
    7.5941    3.8196    7.2149 C   0  0  1  0  0  0  0  0  0  0  0  0
    7.2055   -0.2234    6.3798 C   0  0  0  0  0  0  0  0  0  0  0  0
    8.2232   -0.3750    6.0212 H   0  0  0  0  0  0  0  0  0  0  0  0
    6.5149   -0.2404    5.5386 H   0  0  0  0  0  0  0  0  0  0  0  0
    6.9586   -1.0263    7.0702 H   0  0  0  0  0  0  0  0  0  0  0  0
    9.1028    1.8032   10.1263 C   0  0  0  0  0  0  0  0  0  0  0  0
    9.1595    2.6102   10.8487 H   0  0  0  0  0  0  0  0  0  0  0  0
   10.0827    1.5993    9.7074 H   0  0  0  0  0  0  0  0  0  0  0  0
    8.7224    0.9093   10.6105 H   0  0  0  0  0  0  0  0  0  0  0  0
    4.6230    3.0824    9.2538 C   0  0  0  0  0  0  0  0  0  0  0  0
    4.3194    2.2667    9.9012 H   0  0  0  0  0  0  0  0  0  0  0  0
    3.8550    3.2819    8.5136 H   0  0  0  0  0  0  0  0  0  0  0  0
    4.7875    3.9723    9.8528 H   0  0  0  0  0  0  0  0  0  0  0  0
    7.8710    5.1692    6.5653 C   0  0  0  0  0  0  0  0  0  0  0  0
    7.0850    5.4121    5.8530 H   0  0  0  0  0  0  0  0  0  0  0  0
    8.8285    5.1163    6.0419 H   0  0  0  0  0  0  0  0  0  0  0  0
    7.9131    5.9520    7.3190 H   0  0  0  0  0  0  0  0  0  0  0  0
    8.1227    1.0789    8.1203 O   0  0  0  0  0  0  0  0  0  0  0  0
    6.8858    2.4560    9.5464 O   0  0  0  0  0  0  0  0  0  0  0  0
    6.2765    3.8358    7.7532 O   0  0  0  0  0  0  0  0  0  0  0  0
    6.2085    2.8219    4.8332 C   0  0  0  0  0  0  0  0  0  0  0  0
    5.7078    1.8699    4.6038 H   0  0  0  0  0  0  0  0  0  0  0  0
    5.5066    3.4852    5.3533 H   0  0  0  0  0  0  0  0  0  0  0  0
    6.5808    3.4622    3.6339 O   0  0  0  0  0  0  0  0  0  0  0  0
    8.1119    4.4033    1.7206 C   0  0  0  0  0  0  0  0  0  0  0  0
    7.4128    5.5959    1.8584 C   0  0  0  0  0  0  0  0  0  0  0  0
    6.7449    5.7315    2.6954 H   0  0  0  0  0  0  0  0  0  0  0  0
    7.5735    6.5933    0.9131 C   0  0  0  0  0  0  0  0  0  0  0  0
    7.0265    7.5194    1.0116 H   0  0  0  0  0  0  0  0  0  0  0  0
    8.4391    6.4096   -0.1531 C   0  0  0  0  0  0  0  0  0  0  0  0
    8.5643    7.1934   -0.8852 H   0  0  0  0  0  0  0  0  0  0  0  0
    9.1511    5.2263   -0.2782 C   0  0  0  0  0  0  0  0  0  0  0  0
    9.8333    5.0899   -1.1036 H   0  0  0  0  0  0  0  0  0  0  0  0
    8.9921    4.2220    0.6575 C   0  0  0  0  0  0  0  0  0  0  0  0
    9.5529    3.3009    0.5859 H   0  0  0  0  0  0  0  0  0  0  0  0
    7.6203    1.5933    1.9499 C   0  0  0  0  0  0  0  0  0  0  0  0
    6.6802    1.6291    0.9266 C   0  0  0  0  0  0  0  0  0  0  0  0
    6.1877    2.5620    0.6887 H   0  0  0  0  0  0  0  0  0  0  0  0
    6.3904    0.4729    0.2254 C   0  0  0  0  0  0  0  0  0  0  0  0
    5.6634    0.4946   -0.5730 H   0  0  0  0  0  0  0  0  0  0  0  0
    7.0370   -0.7125    0.5424 C   0  0  0  0  0  0  0  0  0  0  0  0
    6.8115   -1.6110   -0.0126 H   0  0  0  0  0  0  0  0  0  0  0  0
    7.9728   -0.7487    1.5639 C   0  0  0  0  0  0  0  0  0  0  0  0
    8.4764   -1.6726    1.8054 H   0  0  0  0  0  0  0  0  0  0  0  0
    8.2636    0.4046    2.2704 C   0  0  0  0  0  0  0  0  0  0  0  0
    9.0071    0.4031    3.0668 H   0  0  0  0  0  0  0  0  0  0  0  0
  1  5  1  0  0  0  0
  1  3  1  0  0  0  0
  2  1  1  0  0  0  0
  4 38  1  0  0  0  0
  4  1  1  0  0  0  0
  5 35  1  6  0  0  0
  5  6  1  0  0  0  0
  5 15  1  0  0  0  0
  6 16  1  6  0  0  0
  6  9  1  0  0  0  0
  6 32  1  0  0  0  0
  7 33  1  0  0  0  0
  7 20  1  1  0  0  0
  8 24  1  1  0  0  0
  8 33  1  0  0  0  0
  9 11  1  0  0  0  0
  9  8  1  0  0  0  0
 10  9  1  0  0  0  0
 12  7  1  0  0  0  0
 12 13  1  0  0  0  0
 14 12  1  0  0  0  0
 15 28  1  6  0  0  0
 15 34  1  0  0  0  0
 15 12  1  0  0  0  0
 16 19  1  0  0  0  0
 17 16  1  0  0  0  0
 18 16  1  0  0  0  0
 20 23  1  0  0  0  0
 20 21  1  0  0  0  0
 22 20  1  0  0  0  0
 24 27  1  0  0  0  0
 24 25  1  0  0  0  0
 26 24  1  0  0  0  0
 28 31  1  0  0  0  0
 29 28  1  0  0  0  0
 30 28  1  0  0  0  0
 32  7  1  0  0  0  0
 34  8  1  0  0  0  0
 35 37  1  0  0  0  0
 36 35  1  0  0  0  0
 38 35  1  0  0  0  0
 39 40  1  0  0  0  0
 39  4  1  0  0  0  0
 40 41  1  0  0  0  0
 42 43  1  0  0  0  0
 42 40  2  0  0  0  0
 44 42  1  0  0  0  0
 45 44  1  0  0  0  0
 46 44  2  0  0  0  0
 46 48  1  0  0  0  0
 47 46  1  0  0  0  0
 48 39  2  0  0  0  0
 49 48  1  0  0  0  0
 50 59  1  0  0  0  0
 50  4  1  0  0  0  0
 51 50  2  0  0  0  0
 52 51  1  0  0  0  0
 53 55  2  0  0  0  0
 53 51  1  0  0  0  0
 54 53  1  0  0  0  0
 55 57  1  0  0  0  0
 56 55  1  0  0  0  0
 57 58  1  0  0  0  0
 57 59  2  0  0  0  0
 59 60  1  0  0  0  0
M  END
$$$$
