CSD_code = IZICOJ | q = 0 | S = 0 | Stoichiometry = C28H18Cl2Zr | MND = 12
 OpenBabel04212202053D

 49 54  0  0  0  0  0  0  0  0999 V2000
    3.6806    2.9158    7.9051 Zr  0  0  0  0  0  0  0  0  0  0  0  0
    4.7607    4.6772    6.8379 Cl  0  0  0  0  0  0  0  0  0  0  0  0
    4.2463    1.3918    6.2401 Cl  0  0  0  0  0  0  0  0  0  0  0  0
    1.5541    3.1544    8.9540 C   0  0  0  0  0  0  0  0  0  0  0  0
    1.7214    4.3810    8.2311 C   0  0  0  0  0  0  0  0  0  0  0  0
    1.9478    5.7021    8.6712 C   0  0  0  0  0  0  0  0  0  0  0  0
    1.9884    5.9198    9.7322 H   0  0  0  0  0  0  0  0  0  0  0  0
    2.0741    6.6972    7.7320 C   0  0  0  0  0  0  0  0  0  0  0  0
    2.2446    7.7143    8.0522 H   0  0  0  0  0  0  0  0  0  0  0  0
    1.9827    6.4284    6.3575 C   0  0  0  0  0  0  0  0  0  0  0  0
    2.0845    7.2438    5.6585 H   0  0  0  0  0  0  0  0  0  0  0  0
    1.7734    5.1504    5.8903 C   0  0  0  0  0  0  0  0  0  0  0  0
    1.7057    4.9525    4.8290 H   0  0  0  0  0  0  0  0  0  0  0  0
    1.6510    4.1033    6.8121 C   0  0  0  0  0  0  0  0  0  0  0  0
    1.4252    2.6882    6.6590 C   0  0  0  0  0  0  0  0  0  0  0  0
    1.2426    1.8719    5.5359 C   0  0  0  0  0  0  0  0  0  0  0  0
    1.2606    2.3000    4.5429 H   0  0  0  0  0  0  0  0  0  0  0  0
    1.0473    0.5215    5.7174 C   0  0  0  0  0  0  0  0  0  0  0  0
    0.9129   -0.1201    4.8606 H   0  0  0  0  0  0  0  0  0  0  0  0
    1.0238   -0.0457    7.0009 C   0  0  0  0  0  0  0  0  0  0  0  0
    0.8723   -1.1107    7.0957 H   0  0  0  0  0  0  0  0  0  0  0  0
    1.1767    0.7212    8.1312 C   0  0  0  0  0  0  0  0  0  0  0  0
    1.1134    0.2836    9.1208 H   0  0  0  0  0  0  0  0  0  0  0  0
    1.3696    2.1118    7.9861 C   0  0  0  0  0  0  0  0  0  0  0  0
    1.4635    3.0028   10.4268 C   0  0  0  0  0  0  0  0  0  0  0  0
    0.2434    3.1897   11.1229 C   0  0  0  0  0  0  0  0  0  0  0  0
   -0.9507    3.5447   10.4608 C   0  0  0  0  0  0  0  0  0  0  0  0
   -0.9300    3.6760    9.3887 H   0  0  0  0  0  0  0  0  0  0  0  0
   -2.1086    3.7199   11.1648 C   0  0  0  0  0  0  0  0  0  0  0  0
   -3.0196    3.9931   10.6533 H   0  0  0  0  0  0  0  0  0  0  0  0
   -2.1272    3.5467   12.5579 C   0  0  0  0  0  0  0  0  0  0  0  0
   -3.0522    3.6890   13.0971 H   0  0  0  0  0  0  0  0  0  0  0  0
   -0.9863    3.2015   13.2260 C   0  0  0  0  0  0  0  0  0  0  0  0
   -0.9954    3.0668   14.2982 H   0  0  0  0  0  0  0  0  0  0  0  0
    0.2279    3.0144   12.5324 C   0  0  0  0  0  0  0  0  0  0  0  0
    1.4207    2.6603   13.1978 C   0  0  0  0  0  0  0  0  0  0  0  0
    1.3953    2.5273   14.2696 H   0  0  0  0  0  0  0  0  0  0  0  0
    2.5882    2.4910   12.5077 C   0  0  0  0  0  0  0  0  0  0  0  0
    3.5024    2.2253   13.0172 H   0  0  0  0  0  0  0  0  0  0  0  0
    2.6141    2.6644   11.1118 C   0  0  0  0  0  0  0  0  0  0  0  0
    3.8578    2.5168   10.3193 C   0  0  0  0  0  0  0  0  0  0  0  0
    4.7638    3.5631   10.0033 C   0  0  0  0  0  3  0  0  0  0  0  0
    4.7341    4.5703   10.4063 H   0  0  0  0  0  0  0  0  0  0  0  0
    5.8142    3.0067    9.2298 C   0  0  0  0  0  0  0  0  0  0  0  0
    6.7112    3.5274    8.9167 H   0  0  0  0  0  0  0  0  0  0  0  0
    5.5411    1.6395    9.0355 C   0  0  0  0  0  0  0  0  0  0  0  0
    6.1918    0.9241    8.5477 H   0  0  0  0  0  0  0  0  0  0  0  0
    4.3189    1.3340    9.6845 C   0  0  0  0  0  0  0  0  0  0  0  0
    3.8959    0.3428    9.8066 H   0  0  0  0  0  0  0  0  0  0  0  0
  1  4  1  0  0  0  0
  2  1  1  0  0  0  0
  3  1  1  0  0  0  0
  4 25  1  0  0  0  0
  5  6  1  0  0  0  0
  5  4  1  0  0  0  0
  6  7  1  0  0  0  0
  8  9  1  0  0  0  0
  8  6  2  0  0  0  0
 10  8  1  0  0  0  0
 11 10  1  0  0  0  0
 12 10  2  0  0  0  0
 12 14  1  0  0  0  0
 13 12  1  0  0  0  0
 14  5  2  0  0  0  0
 15 14  1  0  0  0  0
 15 24  1  0  0  0  0
 16 18  1  0  0  0  0
 16 15  2  0  0  0  0
 17 16  1  0  0  0  0
 18 20  2  0  0  0  0
 19 18  1  0  0  0  0
 20 21  1  0  0  0  0
 20 22  1  0  0  0  0
 22 23  1  0  0  0  0
 24 22  2  0  0  0  0
 24  4  1  0  0  0  0
 25 40  2  0  0  0  0
 25 26  1  0  0  0  0
 26 35  1  0  0  0  0
 27 26  2  0  0  0  0
 27 29  1  0  0  0  0
 28 27  1  0  0  0  0
 29 31  2  0  0  0  0
 30 29  1  0  0  0  0
 31 32  1  0  0  0  0
 31 33  1  0  0  0  0
 33 34  1  0  0  0  0
 35 36  1  0  0  0  0
 35 33  2  0  0  0  0
 36 37  1  0  0  0  0
 38 39  1  0  0  0  0
 38 36  2  0  0  0  0
 40 38  1  0  0  0  0
 41 40  1  0  0  0  0
 42 41  1  0  0  0  0
 42 43  1  0  0  0  0
 44 42  1  0  0  0  0
 45 44  1  0  0  0  0
 46 44  2  0  0  0  0
 46 48  1  0  0  0  0
 47 46  1  0  0  0  0
 48 49  1  0  0  0  0
 48 41  2  0  0  0  0
M  END
$$$$
