CSD_code = IZICOK | q = 0 | S = 0 | Stoichiometry = C8H16Cl2N4S2Zn | MND = 4
 OpenBabel04212202053D

 33 34  0  0  0  0  0  0  0  0999 V2000
    0.3466    2.1453    5.3846 Zn  0  0  0  0  0  0  0  0  0  0  0  0
    1.6739    0.3105    5.5249 Cl  0  0  0  0  0  0  0  0  0  0  0  0
   -0.7705    2.3585    7.6510 S   0  0  0  0  0  0  0  0  0  0  0  0
   -0.9703    2.2406    3.5419 Cl  0  0  0  0  0  0  0  0  0  0  0  0
    1.7396    4.3070    5.3943 S   0  0  0  0  0  0  0  0  0  0  0  0
    0.4040    1.8368    8.7636 C   0  0  0  0  0  3  0  0  0  0  0  0
    1.0829    5.3762    4.2506 C   0  0  0  0  0  3  0  0  0  0  0  0
    0.0690    5.0757    3.4633 N   0  0  0  0  0  0  0  0  0  0  0  0
    1.4568    1.1167    8.4310 N   0  0  0  0  0  0  0  0  0  0  0  0
    0.1938    2.1760   10.0427 N   0  0  0  0  0  0  0  0  0  0  0  0
    1.6618    6.5835    4.1746 N   0  0  0  0  0  0  0  0  0  0  0  0
    1.0552    1.7723   11.1323 C   0  0  0  0  0  0  0  0  0  0  0  0
    0.4467    1.6412   12.0301 H   0  0  0  0  0  0  0  0  0  0  0  0
    1.7993    2.5542   11.3316 H   0  0  0  0  0  0  0  0  0  0  0  0
   -0.4478    5.9880    2.4662 C   0  0  0  0  0  0  0  0  0  0  0  0
   -1.2810    6.5616    2.8899 H   0  0  0  0  0  0  0  0  0  0  0  0
   -0.8310    5.3923    1.6363 H   0  0  0  0  0  0  0  0  0  0  0  0
    2.4287    0.6594    9.3998 C   0  0  0  0  0  0  0  0  0  0  0  0
    3.2417    1.3910    9.4794 H   0  0  0  0  0  0  0  0  0  0  0  0
    2.8479   -0.2789    9.0338 H   0  0  0  0  0  0  0  0  0  0  0  0
    1.7531    0.4698   10.7540 C   0  0  0  0  0  0  0  0  0  0  0  0
    2.4855    0.1979   11.5121 H   0  0  0  0  0  0  0  0  0  0  0  0
    1.0128   -0.3280   10.6772 H   0  0  0  0  0  0  0  0  0  0  0  0
    0.6594    6.9292    2.0035 C   0  0  0  0  0  0  0  0  0  0  0  0
    0.2646    7.6742    1.3151 H   0  0  0  0  0  0  0  0  0  0  0  0
    1.4321    6.3522    1.4932 H   0  0  0  0  0  0  0  0  0  0  0  0
    1.2621    7.6044    3.2315 C   0  0  0  0  0  0  0  0  0  0  0  0
    2.1407    8.1940    2.9600 H   0  0  0  0  0  0  0  0  0  0  0  0
    0.5255    8.2755    3.6918 H   0  0  0  0  0  0  0  0  0  0  0  0
    1.5844    0.8179    7.4502 H   0  0  0  0  0  0  0  0  0  0  0  0
   -0.3408    4.1276    3.4926 H   0  0  0  0  0  0  0  0  0  0  0  0
    2.4195    6.7594    4.8143 H   0  0  0  0  0  0  0  0  0  0  0  0
   -0.6200    2.7395   10.2295 H   0  0  0  0  0  0  0  0  0  0  0  0
  1  5  1  0  0  0  0
  1  2  1  0  0  0  0
  1  3  1  0  0  0  0
  3  6  1  0  0  0  0
  4  1  1  0  0  0  0
  6 10  1  0  0  0  0
  7  5  1  0  0  0  0
  8 31  1  0  0  0  0
  8  7  1  0  0  0  0
  9  6  1  0  0  0  0
  9 18  1  0  0  0  0
 10 33  1  0  0  0  0
 10 12  1  0  0  0  0
 11  7  1  0  0  0  0
 11 32  1  0  0  0  0
 12 14  1  0  0  0  0
 12 13  1  0  0  0  0
 15 16  1  0  0  0  0
 15  8  1  0  0  0  0
 17 15  1  0  0  0  0
 18 19  1  0  0  0  0
 18 21  1  0  0  0  0
 20 18  1  0  0  0  0
 21 12  1  0  0  0  0
 21 22  1  0  0  0  0
 23 21  1  0  0  0  0
 24 15  1  0  0  0  0
 24 27  1  0  0  0  0
 25 24  1  0  0  0  0
 26 24  1  0  0  0  0
 27 29  1  0  0  0  0
 27 11  1  0  0  0  0
 28 27  1  0  0  0  0
 30  9  1  0  0  0  0
M  END
$$$$
