CSD_code = IZIFED | q = 0 | S = 0 | Stoichiometry = C26H36BrN5SZn | MND = 4
 OpenBabel04212202053D

 70 74  0  0  1  0  0  0  0  0999 V2000
    0.7634    3.4659    2.8807 Zn  0  0  1  0  0  0  0  0  0  0  0  0
   -0.6167    3.4659    1.0388 Br  0  0  0  0  0  0  0  0  0  0  0  0
    0.5481    3.4659    5.2383 S   0  0  0  0  0  0  0  0  0  0  0  0
    3.2372    2.2680    3.7324 N   0  0  1  0  0  0  0  0  0  0  0  0
    2.2472    2.0251    2.8533 N   0  0  0  0  0  0  0  0  0  0  0  0
    2.7796    3.4659    6.7986 N   0  0  0  0  0  0  0  0  0  0  0  0
    2.2172    3.4658    5.6536 C   0  0  0  0  0  0  0  0  0  0  0  0
    3.2749    3.4659    4.5308 C   0  0  2  0  0  0  0  0  0  0  0  0
    4.0878    1.2152    3.8037 C   0  0  2  0  0  3  0  0  0  0  0  0
    3.6087    0.2707    2.9201 C   0  0  0  0  0  0  0  0  0  0  0  0
    2.4562    0.8177    2.3453 C   0  0  0  0  0  0  0  0  0  0  0  0
    1.5533    0.2016    1.3288 C   0  0  0  0  0  0  0  0  0  0  0  0
    2.3455   -0.1819    0.0781 C   0  0  0  0  0  0  0  0  0  0  0  0
    0.8564   -1.0202    1.9327 C   0  0  0  0  0  0  0  0  0  0  0  0
    5.2762    1.1513    4.7076 C   0  0  0  0  0  0  0  0  0  0  0  0
    6.2804    0.1137    4.2057 C   0  0  0  0  0  0  0  0  0  0  0  0
    4.8336    0.8179    6.1378 C   0  0  0  0  0  0  0  0  0  0  0  0
    2.2391    3.4659    8.0693 C   0  0  0  0  0  0  0  0  0  0  0  0
    3.1936    3.4659    9.0942 C   0  0  0  0  0  0  0  0  0  0  0  0
    2.8077    3.4659   10.4175 C   0  0  0  0  0  0  0  0  0  0  0  0
    1.4612    3.4659   10.7476 C   0  0  0  0  0  0  0  0  0  0  0  0
    0.5097    3.4659    9.7416 C   0  0  0  0  0  0  0  0  0  0  0  0
    0.8851    3.4659    8.4118 C   0  0  0  0  0  0  0  0  0  0  0  0
    4.2365    3.4659    5.0519 H   0  0  0  0  0  0  0  0  0  0  0  0
    4.0320   -0.6889    2.7126 H   0  0  0  0  0  0  0  0  0  0  0  0
    0.7928    0.9338    1.0463 H   0  0  0  0  0  0  0  0  0  0  0  0
    1.6710   -0.5800   -0.6750 H   0  0  0  0  0  0  0  0  0  0  0  0
    2.8464    0.6897   -0.3367 H   0  0  0  0  0  0  0  0  0  0  0  0
    3.0931   -0.9375    0.3098 H   0  0  0  0  0  0  0  0  0  0  0  0
    0.2915   -0.7375    2.8183 H   0  0  0  0  0  0  0  0  0  0  0  0
    0.1687   -1.4476    1.2081 H   0  0  0  0  0  0  0  0  0  0  0  0
    1.5843   -1.7789    2.2130 H   0  0  0  0  0  0  0  0  0  0  0  0
    5.7755    2.1288    4.7111 H   0  0  0  0  0  0  0  0  0  0  0  0
    6.5495    0.3057    3.1697 H   0  0  0  0  0  0  0  0  0  0  0  0
    5.8647   -0.8875    4.2804 H   0  0  0  0  0  0  0  0  0  0  0  0
    7.1829    0.1524    4.8106 H   0  0  0  0  0  0  0  0  0  0  0  0
    4.3172   -0.1391    6.1537 H   0  0  0  0  0  0  0  0  0  0  0  0
    4.1642    1.5780    6.5348 H   0  0  0  0  0  0  0  0  0  0  0  0
    5.7032    0.7507    6.7868 H   0  0  0  0  0  0  0  0  0  0  0  0
    4.2389    3.4659    8.8226 H   0  0  0  0  0  0  0  0  0  0  0  0
    3.5563    3.4660   11.1968 H   0  0  0  0  0  0  0  0  0  0  0  0
    1.1558    3.4659   11.7836 H   0  0  0  0  0  0  0  0  0  0  0  0
   -0.5408    3.4659    9.9942 H   0  0  0  0  0  0  0  0  0  0  0  0
    0.1293    3.4658    7.6448 H   0  0  0  0  0  0  0  0  0  0  0  0
    3.2372    4.6638    3.7325 N   0  0  1  0  0  0  0  0  0  0  0  0
    2.2472    4.9067    2.8533 N   0  0  0  0  0  0  0  0  0  0  0  0
    4.0878    5.7167    3.8037 C   0  0  1  0  0  3  0  0  0  0  0  0
    3.6087    6.6611    2.9201 C   0  0  0  0  0  0  0  0  0  0  0  0
    2.4562    6.1142    2.3453 C   0  0  0  0  0  0  0  0  0  0  0  0
    1.5533    6.7302    1.3288 C   0  0  0  0  0  0  0  0  0  0  0  0
    2.3455    7.1138    0.0781 C   0  0  0  0  0  0  0  0  0  0  0  0
    0.8564    7.9520    1.9327 C   0  0  0  0  0  0  0  0  0  0  0  0
    5.2762    5.7805    4.7076 C   0  0  0  0  0  0  0  0  0  0  0  0
    6.2804    6.8182    4.2057 C   0  0  0  0  0  0  0  0  0  0  0  0
    4.8336    6.1139    6.1378 C   0  0  0  0  0  0  0  0  0  0  0  0
    4.0320    7.6208    2.7126 H   0  0  0  0  0  0  0  0  0  0  0  0
    0.7928    5.9981    1.0463 H   0  0  0  0  0  0  0  0  0  0  0  0
    1.6710    7.5118   -0.6750 H   0  0  0  0  0  0  0  0  0  0  0  0
    2.8464    6.2421   -0.3367 H   0  0  0  0  0  0  0  0  0  0  0  0
    3.0931    7.8693    0.3098 H   0  0  0  0  0  0  0  0  0  0  0  0
    0.2916    7.6693    2.8183 H   0  0  0  0  0  0  0  0  0  0  0  0
    0.1687    8.3794    1.2081 H   0  0  0  0  0  0  0  0  0  0  0  0
    1.5843    8.7108    2.2129 H   0  0  0  0  0  0  0  0  0  0  0  0
    5.7755    4.8031    4.7111 H   0  0  0  0  0  0  0  0  0  0  0  0
    6.5495    6.6261    3.1697 H   0  0  0  0  0  0  0  0  0  0  0  0
    5.8647    7.8193    4.2804 H   0  0  0  0  0  0  0  0  0  0  0  0
    7.1829    6.7795    4.8106 H   0  0  0  0  0  0  0  0  0  0  0  0
    4.3172    7.0709    6.1537 H   0  0  0  0  0  0  0  0  0  0  0  0
    4.1641    5.3538    6.5348 H   0  0  0  0  0  0  0  0  0  0  0  0
    5.7032    6.1812    6.7868 H   0  0  0  0  0  0  0  0  0  0  0  0
  1  2  1  6  0  0  0
  1  3  1  0  0  0  0
  3  7  1  0  0  0  0
  4  5  1  1  0  0  0
  4  9  1  0  0  0  0
  4  8  1  0  0  0  0
  5  1  1  0  0  0  0
  6 18  1  0  0  0  0
  7  6  2  0  0  0  0
  8 24  1  1  0  0  0
  8  7  1  0  0  0  0
  9 15  1  1  0  0  0
 10  9  1  0  0  0  0
 11  5  1  0  0  0  0
 11 10  2  0  0  0  0
 12 14  1  0  0  0  0
 12 11  1  0  0  0  0
 13 29  1  0  0  0  0
 13 12  1  0  0  0  0
 14 32  1  0  0  0  0
 14 30  1  0  0  0  0
 15 33  1  0  0  0  0
 15 17  1  0  0  0  0
 16 35  1  0  0  0  0
 16 15  1  0  0  0  0
 16 36  1  0  0  0  0
 17 37  1  0  0  0  0
 17 38  1  0  0  0  0
 17 39  1  0  0  0  0
 18 23  2  0  0  0  0
 18 19  1  0  0  0  0
 19 20  2  0  0  0  0
 20 21  1  0  0  0  0
 20 41  1  0  0  0  0
 21 42  1  0  0  0  0
 22 43  1  0  0  0  0
 22 21  2  0  0  0  0
 23 22  1  0  0  0  0
 25 10  1  0  0  0  0
 26 12  1  0  0  0  0
 27 13  1  0  0  0  0
 28 13  1  0  0  0  0
 31 14  1  0  0  0  0
 34 16  1  0  0  0  0
 40 19  1  0  0  0  0
 44 23  1  0  0  0  0
 45 46  1  1  0  0  0
 45 47  1  0  0  0  0
 45  8  1  0  0  0  0
 46  1  1  0  0  0  0
 47 53  1  1  0  0  0
 48 47  1  0  0  0  0
 49 46  1  0  0  0  0
 49 48  2  0  0  0  0
 50 52  1  0  0  0  0
 50 49  1  0  0  0  0
 51 60  1  0  0  0  0
 51 50  1  0  0  0  0
 52 63  1  0  0  0  0
 52 61  1  0  0  0  0
 53 64  1  0  0  0  0
 53 55  1  0  0  0  0
 54 66  1  0  0  0  0
 54 53  1  0  0  0  0
 54 67  1  0  0  0  0
 55 68  1  0  0  0  0
 55 69  1  0  0  0  0
 55 70  1  0  0  0  0
 56 48  1  0  0  0  0
 57 50  1  0  0  0  0
 58 51  1  0  0  0  0
 59 51  1  0  0  0  0
 62 52  1  0  0  0  0
 65 54  1  0  0  0  0
M  END
$$$$
