CSD_code = IZIPAJ | q = 0 | S = 0 | Stoichiometry = C12H15ClPdS | MND = 5
 OpenBabel04212202053D

 30 29  0  0  1  0  0  0  0  0999 V2000
    8.1153    4.2739   13.2276 C   0  0  0  0  0  3  0  0  0  0  0  0
    8.1435    4.3305   12.1365 H   0  0  0  0  0  0  0  0  0  0  0  0
    8.8327    4.9113   13.7336 H   0  0  0  0  0  0  0  0  0  0  0  0
    7.7258    3.0642   13.8463 C   0  0  2  0  0  0  0  0  0  0  0  0
    8.0506    2.8442   14.8640 H   0  0  0  0  0  0  0  0  0  0  0  0
    6.6870    2.3189   13.2655 C   0  0  0  0  0  3  0  0  0  0  0  0
    6.6276    2.2766   12.1716 H   0  0  0  0  0  0  0  0  0  0  0  0
    6.0687    1.1402   13.9674 C   0  0  0  0  0  0  0  0  0  0  0  0
    6.2645    1.1951   15.0426 H   0  0  0  0  0  0  0  0  0  0  0  0
    6.5295    0.2203   13.5895 H   0  0  0  0  0  0  0  0  0  0  0  0
    4.5551    1.0350   13.7303 C   0  0  0  0  0  0  0  0  0  0  0  0
    4.3456    1.1273   12.6608 H   0  0  0  0  0  0  0  0  0  0  0  0
    4.2232    0.0424   14.0466 H   0  0  0  0  0  0  0  0  0  0  0  0
    3.7238    2.0491   14.5071 C   0  0  0  0  0  0  0  0  0  0  0  0
    4.0623    2.1223   15.5425 H   0  0  0  0  0  0  0  0  0  0  0  0
    2.6746    1.7533   14.5060 H   0  0  0  0  0  0  0  0  0  0  0  0
    3.4465    3.5728   12.1611 C   0  0  0  0  0  0  0  0  0  0  0  0
    4.2528    4.2371   11.2405 C   0  0  0  0  0  0  0  0  0  0  0  0
    5.0655    4.8922   11.5893 H   0  0  0  0  0  0  0  0  0  0  0  0
    3.9970    4.0995    9.8869 C   0  0  0  0  0  0  0  0  0  0  0  0
    4.6188    4.6168    9.1721 H   0  0  0  0  0  0  0  0  0  0  0  0
    2.9514    3.3017    9.4499 C   0  0  0  0  0  0  0  0  0  0  0  0
    2.7608    3.1907    8.3934 H   0  0  0  0  0  0  0  0  0  0  0  0
    2.1438    2.6555   10.3708 C   0  0  0  0  0  0  0  0  0  0  0  0
    1.3186    2.0451   10.0352 H   0  0  0  0  0  0  0  0  0  0  0  0
    2.3804    2.7976   11.7271 C   0  0  0  0  0  0  0  0  0  0  0  0
    1.7366    2.3080   12.4415 H   0  0  0  0  0  0  0  0  0  0  0  0
    3.7676    3.7888   13.9093 S   0  0  0  0  0  0  0  0  0  0  0  0
    5.7106    6.5553   13.7845 Cl  0  0  0  0  0 15  0  0  0  0  0  0
    6.0638    4.3082   13.6353 Pd  0  0  0  0  0  0  0  0  0  0  0  0
  1  3  1  0  0  0  0
  1  4  1  0  0  0  0
  2  1  1  0  0  0  0
  4  5  1  1  0  0  0
  6  4  1  0  0  0  0
  6  8  1  0  0  0  0
  7  6  1  0  0  0  0
  8  9  1  0  0  0  0
 10  8  1  0  0  0  0
 11  8  1  0  0  0  0
 11 13  1  0  0  0  0
 11 14  1  0  0  0  0
 12 11  1  0  0  0  0
 14 15  1  0  0  0  0
 16 14  1  0  0  0  0
 17 28  1  0  0  0  0
 18 19  1  0  0  0  0
 18 17  2  0  0  0  0
 20 18  1  0  0  0  0
 21 20  1  0  0  0  0
 22 20  2  0  0  0  0
 22 24  1  0  0  0  0
 23 22  1  0  0  0  0
 24 26  2  0  0  0  0
 25 24  1  0  0  0  0
 26 17  1  0  0  0  0
 26 27  1  0  0  0  0
 28 14  1  0  0  0  0
 30  4  1  0  0  0  0
M  END
$$$$
