CSD_code = IZIXUM | q = 0 | S = 0 | Stoichiometry = C18H22ClN3O3PdS | MND = 4
 OpenBabel04212202053D

 49 51  0  0  0  0  0  0  0  0999 V2000
   -0.7459    9.0694   -0.7060 Pd  0  0  1  0  0  0  0  0  0  0  0  0
   -1.7686   14.3158    0.7194 S   0  0  0  0  0  0  0  0  0  0  0  0
   -1.4405    7.6971   -2.2824 Cl  0  0  0  0  0  0  0  0  0  0  0  0
   -0.1160   10.2941    0.6076 N   0  0  0  0  0  0  0  0  0  0  0  0
   -0.6003   11.4735    0.7058 N   0  0  0  0  0  0  0  0  0  0  0  0
   -1.6878   10.7267   -1.2802 C   0  0  0  0  0  0  0  0  0  0  0  0
    0.8643    9.9054    1.5113 C   0  0  0  0  0  0  0  0  0  0  0  0
   -0.0985    7.1823    0.4904 O   0  0  0  0  0  0  0  0  0  0  0  0
   -2.1003   12.9852   -0.4460 C   0  0  0  0  0  0  0  0  0  0  0  0
    1.8481    9.8404    3.6979 C   0  0  0  0  0  0  0  0  0  0  0  0
    1.8350   10.1318    4.7380 H   0  0  0  0  0  0  0  0  0  0  0  0
    0.8599   10.2963    2.8505 C   0  0  0  0  0  0  0  0  0  0  0  0
    0.0673   10.9342    3.2101 H   0  0  0  0  0  0  0  0  0  0  0  0
   -1.4722   11.7471   -0.3104 C   0  0  0  0  0  0  0  0  0  0  0  0
    1.8911    9.0853    1.0333 C   0  0  0  0  0  0  0  0  0  0  0  0
    1.9086    8.8253   -0.0275 H   0  0  0  0  0  0  0  0  0  0  0  0
   -2.5497   10.9893   -2.3351 C   0  0  0  0  0  0  0  0  0  0  0  0
   -2.7325   10.2281   -3.0835 H   0  0  0  0  0  0  0  0  0  0  0  0
   -2.0812   13.6003    2.3667 C   0  0  0  0  0  0  0  0  0  0  0  0
   -1.3383   12.8187    2.4876 H   0  0  0  0  0  0  0  0  0  0  0  0
   -1.9065   14.4057    3.0754 H   0  0  0  0  0  0  0  0  0  0  0  0
   -2.9476   13.2209   -1.5051 C   0  0  0  0  0  0  0  0  0  0  0  0
   -3.4189   14.1887   -1.5747 H   0  0  0  0  0  0  0  0  0  0  0  0
   -2.7411   15.3530    0.4838 O   0  0  0  0  0  0  0  0  0  0  0  0
   -3.1767   12.2252   -2.4467 C   0  0  0  0  0  0  0  0  0  0  0  0
   -3.8438   12.4146   -3.2744 H   0  0  0  0  0  0  0  0  0  0  0  0
   -0.1601    6.0038    0.1509 C   0  0  0  0  0  3  0  0  0  0  0  0
   -0.6991    5.6843   -0.7523 H   0  0  0  0  0  0  0  0  0  0  0  0
   -0.3817   14.6857    0.6283 O   0  0  0  0  0  0  0  0  0  0  0  0
    0.4133    5.0145    0.8269 N   0  0  0  0  0  0  0  0  0  0  0  0
    2.8801    8.6510    1.8915 C   0  0  0  0  0  0  0  0  0  0  0  0
    3.6778    8.0258    1.5163 H   0  0  0  0  0  0  0  0  0  0  0  0
    3.9354    8.5386    4.1722 C   0  0  0  0  0  0  0  0  0  0  0  0
    4.5398    7.7585    3.7168 H   0  0  0  0  0  0  0  0  0  0  0  0
    3.4985    8.1556    5.0926 H   0  0  0  0  0  0  0  0  0  0  0  0
    4.5904    9.3682    4.4376 H   0  0  0  0  0  0  0  0  0  0  0  0
    1.1683    5.2785    2.0307 C   0  0  0  0  0  0  0  0  0  0  0  0
    1.1561    6.3507    2.2196 H   0  0  0  0  0  0  0  0  0  0  0  0
    2.1997    4.9427    1.9089 H   0  0  0  0  0  0  0  0  0  0  0  0
    0.7240    4.7533    2.8781 H   0  0  0  0  0  0  0  0  0  0  0  0
   -3.5041   13.0959    2.4051 C   0  0  0  0  0  0  0  0  0  0  0  0
   -4.1737   13.8955    2.0958 H   0  0  0  0  0  0  0  0  0  0  0  0
   -3.7806   12.7720    3.4065 H   0  0  0  0  0  0  0  0  0  0  0  0
   -3.6284   12.2578    1.7218 H   0  0  0  0  0  0  0  0  0  0  0  0
    2.8674    9.0116    3.2360 C   0  0  0  0  0  0  0  0  0  0  0  0
    0.3223    3.6388    0.4125 C   0  0  0  0  0  0  0  0  0  0  0  0
   -0.2560    3.5640   -0.5058 H   0  0  0  0  0  0  0  0  0  0  0  0
   -0.1632    3.0419    1.1882 H   0  0  0  0  0  0  0  0  0  0  0  0
    1.3210    3.2321    0.2370 H   0  0  0  0  0  0  0  0  0  0  0  0
  1  3  1  6  0  0  0
  1  8  1  0  0  0  0
  1  4  1  0  0  0  0
  2 19  1  0  0  0  0
  4  5  1  0  0  0  0
  4  7  1  0  0  0  0
  6  1  2  0  0  0  0
  6 14  1  0  0  0  0
  7 12  1  0  0  0  0
  9 14  1  0  0  0  0
  9  2  1  0  0  0  0
 10 11  1  0  0  0  0
 12 13  1  0  0  0  0
 12 10  2  0  0  0  0
 14  5  2  0  0  0  0
 15  7  2  0  0  0  0
 15 31  1  0  0  0  0
 16 15  1  0  0  0  0
 17  6  1  0  0  0  0
 18 17  1  0  0  0  0
 19 41  1  0  0  0  0
 19 20  1  0  0  0  0
 19 21  1  0  0  0  0
 22  9  2  0  0  0  0
 23 22  1  0  0  0  0
 24  2  2  0  0  0  0
 25 17  2  0  0  0  0
 25 22  1  0  0  0  0
 26 25  1  0  0  0  0
 27  8  1  0  0  0  0
 27 30  1  0  0  0  0
 28 27  1  0  0  0  0
 29  2  2  0  0  0  0
 30 37  1  0  0  0  0
 31 45  2  0  0  0  0
 32 31  1  0  0  0  0
 33 36  1  0  0  0  0
 33 35  1  0  0  0  0
 34 33  1  0  0  0  0
 37 38  1  0  0  0  0
 37 40  1  0  0  0  0
 39 37  1  0  0  0  0
 41 43  1  0  0  0  0
 42 41  1  0  0  0  0
 44 41  1  0  0  0  0
 45 10  1  0  0  0  0
 45 33  1  0  0  0  0
 46 30  1  0  0  0  0
 46 48  1  0  0  0  0
 47 46  1  0  0  0  0
 49 46  1  0  0  0  0
M  END
$$$$
