CSD_code = IZIXOF | q = 0 | S = 0 | Stoichiometry = C32H30ClN2NiP | MND = 4
 OpenBabel04212202053D

 67 72  0  0  0  0  0  0  0  0999 V2000
    3.5212    2.8081   11.6104 Ni  0  0  2  0  0  0  0  0  0  0  0  0
    4.4631    3.8532   13.1067 Cl  0  0  0  0  0  0  0  0  0  0  0  0
    2.7788    1.3432   13.0126 P   0  0  0  0  0  4  0  0  0  0  0  0
    5.1519    2.9044   10.1818 N   0  0  0  0  0  4  0  0  0  0  0  0
    2.5121    2.3280   10.1250 N   0  0  0  0  0  0  0  0  0  0  0  0
    4.5908    2.3298    8.9649 C   0  0  0  0  0  0  0  0  0  0  0  0
    5.3427    2.1348    7.8240 C   0  0  0  0  0  0  0  0  0  0  0  0
    6.3989    2.3636    7.8217 H   0  0  0  0  0  0  0  0  0  0  0  0
    4.7535    1.6402    6.6713 C   0  0  0  0  0  0  0  0  0  0  0  0
    5.3496    1.4711    5.7878 H   0  0  0  0  0  0  0  0  0  0  0  0
    3.3907    1.3899    6.6616 C   0  0  0  0  0  0  0  0  0  0  0  0
    2.9159    1.0403    5.7560 H   0  0  0  0  0  0  0  0  0  0  0  0
    2.6246    1.5826    7.7907 C   0  0  0  0  0  0  0  0  0  0  0  0
    1.5582    1.4220    7.7491 H   0  0  0  0  0  0  0  0  0  0  0  0
    3.2097    2.0340    8.9873 C   0  0  0  0  0  0  0  0  0  0  0  0
    1.1727    1.9895   10.2730 C   0  0  0  0  0  0  0  0  0  0  0  0
    0.6355    0.7366    9.9523 C   0  0  0  0  0  0  0  0  0  0  0  0
    1.2803   -0.0459    9.5791 H   0  0  0  0  0  0  0  0  0  0  0  0
   -0.7117    0.4921   10.1300 C   0  0  0  0  0  0  0  0  0  0  0  0
   -1.1133   -0.4794    9.8774 H   0  0  0  0  0  0  0  0  0  0  0  0
   -1.5500    1.4753   10.6309 C   0  0  0  0  0  0  0  0  0  0  0  0
   -2.6043    1.2778   10.7559 H   0  0  0  0  0  0  0  0  0  0  0  0
   -1.0264    2.7101   10.9785 C   0  0  0  0  0  0  0  0  0  0  0  0
   -1.6722    3.4782   11.3789 H   0  0  0  0  0  0  0  0  0  0  0  0
    0.3178    2.9632   10.8068 C   0  0  0  0  0  0  0  0  0  0  0  0
    0.7406    3.9264   11.0682 H   0  0  0  0  0  0  0  0  0  0  0  0
    6.2649    2.0972   10.6952 C   0  0  0  0  0  0  0  0  0  0  0  0
    5.9356    1.0670   10.8419 H   0  0  0  0  0  0  0  0  0  0  0  0
    6.5956    2.5072   11.6502 H   0  0  0  0  0  0  0  0  0  0  0  0
    7.1142    2.0976   10.0010 H   0  0  0  0  0  0  0  0  0  0  0  0
    5.6182    4.2697    9.9164 C   0  0  0  0  0  0  0  0  0  0  0  0
    6.4687    4.2799    9.2246 H   0  0  0  0  0  0  0  0  0  0  0  0
    5.9200    4.7348   10.8549 H   0  0  0  0  0  0  0  0  0  0  0  0
    4.8033    4.8479    9.4815 H   0  0  0  0  0  0  0  0  0  0  0  0
    1.0478    1.5606   13.5230 C   0  0  0  0  0  0  0  0  0  0  0  0
    0.7211    2.8231   14.0174 C   0  0  0  0  0  0  0  0  0  0  0  0
    1.4909    3.5849   14.0599 H   0  0  0  0  0  0  0  0  0  0  0  0
   -0.5649    3.0934   14.4409 C   0  0  0  0  0  0  0  0  0  0  0  0
   -0.8130    4.0701   14.8299 H   0  0  0  0  0  0  0  0  0  0  0  0
   -1.5382    2.1092   14.3584 C   0  0  0  0  0  0  0  0  0  0  0  0
   -2.5461    2.3180   14.6857 H   0  0  0  0  0  0  0  0  0  0  0  0
   -1.2222    0.8633   13.8451 C   0  0  0  0  0  0  0  0  0  0  0  0
   -1.9844    0.1019   13.7674 H   0  0  0  0  0  0  0  0  0  0  0  0
    0.0667    0.5844   13.4237 C   0  0  0  0  0  0  0  0  0  0  0  0
    0.3013   -0.3850   13.0102 H   0  0  0  0  0  0  0  0  0  0  0  0
    3.6565    1.2143   14.6092 C   0  0  0  0  0  0  0  0  0  0  0  0
    3.0626    1.4159   15.8468 C   0  0  0  0  0  0  0  0  0  0  0  0
    2.0161    1.6762   15.9147 H   0  0  0  0  0  0  0  0  0  0  0  0
    3.8170    1.2883   17.0016 C   0  0  0  0  0  0  0  0  0  0  0  0
    3.3511    1.4500   17.9629 H   0  0  0  0  0  0  0  0  0  0  0  0
    5.1591    0.9609   16.9286 C   0  0  0  0  0  0  0  0  0  0  0  0
    5.7430    0.8686   17.8323 H   0  0  0  0  0  0  0  0  0  0  0  0
    5.7553    0.7579   15.6933 C   0  0  0  0  0  0  0  0  0  0  0  0
    6.8041    0.5073   15.6328 H   0  0  0  0  0  0  0  0  0  0  0  0
    5.0077    0.8848   14.5404 C   0  0  0  0  0  0  0  0  0  0  0  0
    5.4646    0.7439   13.5689 H   0  0  0  0  0  0  0  0  0  0  0  0
    2.9101   -0.4086   12.5140 C   0  0  0  0  0  0  0  0  0  0  0  0
    2.5983   -1.4167   13.4227 C   0  0  0  0  0  0  0  0  0  0  0  0
    2.2627   -1.1563   14.4172 H   0  0  0  0  0  0  0  0  0  0  0  0
    2.7261   -2.7429   13.0553 C   0  0  0  0  0  0  0  0  0  0  0  0
    2.4773   -3.5219   13.7611 H   0  0  0  0  0  0  0  0  0  0  0  0
    3.1774   -3.0750   11.7869 C   0  0  0  0  0  0  0  0  0  0  0  0
    3.2761   -4.1126   11.5043 H   0  0  0  0  0  0  0  0  0  0  0  0
    3.5118   -2.0765   10.8885 C   0  0  0  0  0  0  0  0  0  0  0  0
    3.8763   -2.3309    9.9039 H   0  0  0  0  0  0  0  0  0  0  0  0
    3.3819   -0.7474   11.2532 C   0  0  0  0  0  0  0  0  0  0  0  0
    3.6498    0.0374   10.5589 H   0  0  0  0  0  0  0  0  0  0  0  0
  1  3  1  0  0  0  0
  1  2  1  1  0  0  0
  3 35  1  0  0  0  0
  3 46  1  0  0  0  0
  4 27  1  0  0  0  0
  4  1  1  0  0  0  0
  5 16  1  0  0  0  0
  5  1  1  0  0  0  0
  6 15  1  0  0  0  0
  6  4  1  0  0  0  0
  7  6  2  0  0  0  0
  8  7  1  0  0  0  0
  9  7  1  0  0  0  0
 10  9  1  0  0  0  0
 11  9  2  0  0  0  0
 11 13  1  0  0  0  0
 12 11  1  0  0  0  0
 13 15  2  0  0  0  0
 14 13  1  0  0  0  0
 15  5  1  0  0  0  0
 16 25  1  0  0  0  0
 17 19  1  0  0  0  0
 17 16  2  0  0  0  0
 18 17  1  0  0  0  0
 19 21  2  0  0  0  0
 20 19  1  0  0  0  0
 21 22  1  0  0  0  0
 21 23  1  0  0  0  0
 23 24  1  0  0  0  0
 25 23  2  0  0  0  0
 25 26  1  0  0  0  0
 27 28  1  0  0  0  0
 27 29  1  0  0  0  0
 30 27  1  0  0  0  0
 31  4  1  0  0  0  0
 31 33  1  0  0  0  0
 32 31  1  0  0  0  0
 34 31  1  0  0  0  0
 35 36  1  0  0  0  0
 36 37  1  0  0  0  0
 36 38  2  0  0  0  0
 38 39  1  0  0  0  0
 40 38  1  0  0  0  0
 40 41  1  0  0  0  0
 42 40  2  0  0  0  0
 43 42  1  0  0  0  0
 44 35  2  0  0  0  0
 44 42  1  0  0  0  0
 45 44  1  0  0  0  0
 46 47  1  0  0  0  0
 47 48  1  0  0  0  0
 47 49  2  0  0  0  0
 49 50  1  0  0  0  0
 51 49  1  0  0  0  0
 51 52  1  0  0  0  0
 53 51  2  0  0  0  0
 54 53  1  0  0  0  0
 55 46  2  0  0  0  0
 55 53  1  0  0  0  0
 56 55  1  0  0  0  0
 57  3  1  0  0  0  0
 57 58  1  0  0  0  0
 58 59  1  0  0  0  0
 60 58  2  0  0  0  0
 60 61  1  0  0  0  0
 62 60  1  0  0  0  0
 63 62  1  0  0  0  0
 64 66  1  0  0  0  0
 64 62  2  0  0  0  0
 65 64  1  0  0  0  0
 66 57  2  0  0  0  0
 67 66  1  0  0  0  0
M  END
$$$$
