CSD_code = IZIXAR | q = 0 | S = 0 | Stoichiometry = C14H16ClN3Ni | MND = 4
 OpenBabel04212202053D

 35 38  0  0  0  0  0  0  0  0999 V2000
    2.3953    4.9933    5.1279 Ni  0  0  0  0  0  0  0  0  0  0  0  0
    3.8077    3.4978    5.2830 Cl  0  0  0  0  0  0  0  0  0  0  0  0
    0.9401    3.9246    5.8913 N   0  0  0  0  0  4  0  0  0  0  0  0
    1.2780    3.4532    6.7379 H   0  0  0  0  0  0  0  0  0  0  0  0
    1.1291    6.3371    4.9891 N   0  0  0  0  0  0  0  0  0  0  0  0
    3.6296    6.2976    4.3398 N   0  0  0  0  0  4  0  0  0  0  0  0
    4.1555    5.8436    3.5844 H   0  0  0  0  0  0  0  0  0  0  0  0
   -0.1334    4.8459    6.2516 C   0  0  0  0  0  0  0  0  0  0  0  0
   -1.1878    4.4800    7.0580 C   0  0  0  0  0  0  0  0  0  0  0  0
   -1.2473    3.4779    7.4595 H   0  0  0  0  0  0  0  0  0  0  0  0
   -2.1604    5.4188    7.3719 C   0  0  0  0  0  0  0  0  0  0  0  0
   -2.9902    5.1459    8.0048 H   0  0  0  0  0  0  0  0  0  0  0  0
   -2.0372    6.7132    6.8932 C   0  0  0  0  0  0  0  0  0  0  0  0
   -2.7764    7.4524    7.1662 H   0  0  0  0  0  0  0  0  0  0  0  0
   -0.9788    7.0907    6.0899 C   0  0  0  0  0  0  0  0  0  0  0  0
   -0.8826    8.1202    5.7878 H   0  0  0  0  0  0  0  0  0  0  0  0
   -0.0064    6.1488    5.7266 C   0  0  0  0  0  0  0  0  0  0  0  0
    1.4656    7.3737    4.1642 C   0  0  0  0  0  0  0  0  0  0  0  0
    0.6296    8.3477    3.6008 C   0  0  0  0  0  0  0  0  0  0  0  0
   -0.4301    8.3352    3.7936 H   0  0  0  0  0  0  0  0  0  0  0  0
    1.1552    9.2937    2.7427 C   0  0  0  0  0  0  0  0  0  0  0  0
    0.4966   10.0353    2.3143 H   0  0  0  0  0  0  0  0  0  0  0  0
    2.4987    9.2999    2.4037 C   0  0  0  0  0  0  0  0  0  0  0  0
    2.8882   10.0435    1.7265 H   0  0  0  0  0  0  0  0  0  0  0  0
    3.3363    8.3196    2.9164 C   0  0  0  0  0  0  0  0  0  0  0  0
    4.3777    8.2861    2.6269 H   0  0  0  0  0  0  0  0  0  0  0  0
    2.8217    7.3760    3.7774 C   0  0  0  0  0  0  0  0  0  0  0  0
    0.4564    2.8741    4.9769 C   0  0  0  0  0  0  0  0  0  0  0  0
   -0.3668    2.3117    5.4279 H   0  0  0  0  0  0  0  0  0  0  0  0
    1.2721    2.1906    4.7407 H   0  0  0  0  0  0  0  0  0  0  0  0
    0.0980    3.3371    4.0564 H   0  0  0  0  0  0  0  0  0  0  0  0
    4.6188    6.8159    5.3023 C   0  0  0  0  0  0  0  0  0  0  0  0
    5.2793    7.5489    4.8292 H   0  0  0  0  0  0  0  0  0  0  0  0
    5.2170    5.9920    5.6913 H   0  0  0  0  0  0  0  0  0  0  0  0
    4.0956    7.3008    6.1278 H   0  0  0  0  0  0  0  0  0  0  0  0
  1  2  1  0  0  0  0
  1  3  1  0  0  0  0
  3  8  1  0  0  0  0
  3  4  1  0  0  0  0
  5  1  1  0  0  0  0
  5 17  1  0  0  0  0
  6  1  1  0  0  0  0
  6 32  1  0  0  0  0
  7  6  1  0  0  0  0
  8  9  1  0  0  0  0
  9 11  2  0  0  0  0
  9 10  1  0  0  0  0
 11 12  1  0  0  0  0
 13 14  1  0  0  0  0
 13 11  1  0  0  0  0
 15 13  2  0  0  0  0
 16 15  1  0  0  0  0
 17 15  1  0  0  0  0
 17  8  2  0  0  0  0
 18  5  1  0  0  0  0
 19 20  1  0  0  0  0
 19 18  2  0  0  0  0
 21 19  1  0  0  0  0
 22 21  1  0  0  0  0
 23 21  2  0  0  0  0
 23 25  1  0  0  0  0
 24 23  1  0  0  0  0
 25 27  2  0  0  0  0
 26 25  1  0  0  0  0
 27 18  1  0  0  0  0
 27  6  1  0  0  0  0
 28 29  1  0  0  0  0
 28  3  1  0  0  0  0
 30 28  1  0  0  0  0
 31 28  1  0  0  0  0
 32 34  1  0  0  0  0
 32 35  1  0  0  0  0
 33 32  1  0  0  0  0
M  END
$$$$
