CSD_code = IZIXEW | q = 0 | S = 0 | Stoichiometry = C14H13ClN2PdS | MND = 4
 OpenBabel04212202053D

 32 35  0  0  0  0  0  0  0  0999 V2000
    3.2429    8.2505    2.2962 Pd  0  0  2  0  0  0  0  0  0  0  0  0
    2.2335   10.1743    1.9741 Cl  0  0  0  0  0  0  0  0  0  0  0  0
    1.5860    6.8848    0.9666 S   0  0  1  0  0  3  0  0  0  0  0  0
    5.1723    6.5124    3.3458 N   0  0  0  0  0  0  0  0  0  0  0  0
    4.0974    6.5569    2.6443 N   0  0  0  0  0  0  0  0  0  0  0  0
    5.5767    7.7417    3.7630 C   0  0  0  0  0  0  0  0  0  0  0  0
    4.7691    8.8676    3.4292 C   0  0  0  0  0  0  0  0  0  0  0  0
    5.1772   10.1135    3.8753 C   0  0  0  0  0  0  0  0  0  0  0  0
    4.5904   10.9919    3.6396 H   0  0  0  0  0  0  0  0  0  0  0  0
    6.3391   10.2455    4.6228 C   0  0  0  0  0  0  0  0  0  0  0  0
    6.6429   11.2272    4.9585 H   0  0  0  0  0  0  0  0  0  0  0  0
    7.1330    9.1432    4.9520 C   0  0  0  0  0  0  0  0  0  0  0  0
    6.7464    7.8911    4.5206 C   0  0  0  0  0  0  0  0  0  0  0  0
    7.3308    7.0130    4.7512 H   0  0  0  0  0  0  0  0  0  0  0  0
    3.5594    5.3484    2.2196 C   0  0  0  0  0  0  0  0  0  0  0  0
    2.3911    5.3446    1.4430 C   0  0  0  0  0  0  0  0  0  0  0  0
    1.8399    4.1524    1.0092 C   0  0  0  0  0  0  0  0  0  0  0  0
    0.9493    4.1772    0.4002 H   0  0  0  0  0  0  0  0  0  0  0  0
    2.4313    2.9474    1.3503 C   0  0  0  0  0  0  0  0  0  0  0  0
    1.9966    2.0205    1.0102 H   0  0  0  0  0  0  0  0  0  0  0  0
    3.5832    2.9385    2.1244 C   0  0  0  0  0  0  0  0  0  0  0  0
    4.0467    2.0002    2.3888 H   0  0  0  0  0  0  0  0  0  0  0  0
    4.1442    4.1217    2.5566 C   0  0  0  0  0  0  0  0  0  0  0  0
    5.0414    4.1374    3.1553 H   0  0  0  0  0  0  0  0  0  0  0  0
    8.3736    9.3351    5.7710 C   0  0  0  0  0  0  0  0  0  0  0  0
    8.1089    9.5815    6.7990 H   0  0  0  0  0  0  0  0  0  0  0  0
    8.9693   10.1554    5.3750 H   0  0  0  0  0  0  0  0  0  0  0  0
    8.9785    8.4325    5.7785 H   0  0  0  0  0  0  0  0  0  0  0  0
    0.4751    7.0763    2.4141 C   0  0  0  0  0  0  0  0  0  0  0  0
   -0.2096    6.2327    2.4504 H   0  0  0  0  0  0  0  0  0  0  0  0
   -0.0712    8.0029    2.2486 H   0  0  0  0  0  0  0  0  0  0  0  0
    1.0583    7.1470    3.3439 H   0  0  0  0  0  0  0  0  0  0  0  0
  1  2  1  1  0  0  0
  1  5  1  0  0  0  0
  1  7  2  0  0  0  0
  3 16  1  0  0  0  0
  3  1  1  0  0  0  0
  3 29  1  1  0  0  0
  4  6  2  0  0  0  0
  5  4  1  0  0  0  0
  6 13  1  0  0  0  0
  7  6  1  0  0  0  0
  7  8  1  0  0  0  0
  8 10  2  0  0  0  0
  9  8  1  0  0  0  0
 10 12  1  0  0  0  0
 10 11  1  0  0  0  0
 12 25  1  0  0  0  0
 13 14  1  0  0  0  0
 13 12  2  0  0  0  0
 15 23  1  0  0  0  0
 15  5  1  0  0  0  0
 16 15  2  0  0  0  0
 17 19  2  0  0  0  0
 17 16  1  0  0  0  0
 18 17  1  0  0  0  0
 19 21  1  0  0  0  0
 20 19  1  0  0  0  0
 21 22  1  0  0  0  0
 21 23  2  0  0  0  0
 23 24  1  0  0  0  0
 25 28  1  0  0  0  0
 25 26  1  0  0  0  0
 27 25  1  0  0  0  0
 29 30  1  0  0  0  0
 29 32  1  0  0  0  0
 31 29  1  0  0  0  0
M  END
$$$$
