CSD_code = IZIYOG | q = 0 | S = 0 | Stoichiometry = C27H28ClN3Ni | MND = 4
 OpenBabel04212202053D

 60 64  0  0  0  0  0  0  0  0999 V2000
    1.2631    0.0684    3.3577 Ni  0  0  2  0  0  0  0  0  0  0  0  0
    1.4459   -1.8572    2.5508 Cl  0  0  0  0  0  0  0  0  0  0  0  0
    0.6870   -0.5842    5.1433 N   0  0  0  0  0  4  0  0  0  0  0  0
    1.0367    1.8159    4.0717 N   0  0  0  0  0  0  0  0  0  0  0  0
    1.8888    0.7521    1.7154 N   0  0  0  0  0  0  0  0  0  0  0  0
    0.6114    0.5760    6.0318 C   0  0  0  0  0  0  0  0  0  0  0  0
    0.3137    0.4886    7.3755 C   0  0  0  0  0  0  0  0  0  0  0  0
    0.1479   -0.4702    7.8456 H   0  0  0  0  0  0  0  0  0  0  0  0
    0.2220    1.6408    8.1420 C   0  0  0  0  0  0  0  0  0  0  0  0
   -0.0022    1.5711    9.1951 H   0  0  0  0  0  0  0  0  0  0  0  0
    0.4084    2.8775    7.5426 C   0  0  0  0  0  0  0  0  0  0  0  0
    0.3236    3.7772    8.1354 H   0  0  0  0  0  0  0  0  0  0  0  0
    0.6927    2.9812    6.1992 C   0  0  0  0  0  0  0  0  0  0  0  0
    0.8154    3.9508    5.7391 H   0  0  0  0  0  0  0  0  0  0  0  0
    0.8149    1.8223    5.4097 C   0  0  0  0  0  0  0  0  0  0  0  0
    1.2546    3.0148    3.3900 C   0  0  0  0  0  0  0  0  0  0  0  0
    0.3245    3.4876    2.4424 C   0  0  0  0  0  0  0  0  0  0  0  0
    0.6389    4.6208    1.6997 C   0  0  0  0  0  0  0  0  0  0  0  0
   -0.0775    4.9915    0.9802 H   0  0  0  0  0  0  0  0  0  0  0  0
    1.8256    5.3026    1.8924 C   0  0  0  0  0  0  0  0  0  0  0  0
    2.0452    6.1829    1.3062 H   0  0  0  0  0  0  0  0  0  0  0  0
    2.7205    4.8643    2.8555 C   0  0  0  0  0  0  0  0  0  0  0  0
    3.6405    5.4045    3.0275 H   0  0  0  0  0  0  0  0  0  0  0  0
    2.4360    3.7335    3.5924 C   0  0  0  0  0  0  0  0  0  0  0  0
    3.1285    3.3809    4.3440 H   0  0  0  0  0  0  0  0  0  0  0  0
   -0.9685    2.8126    2.2406 C   0  0  0  0  0  0  0  0  0  0  0  0
   -1.7159    2.3505    3.3231 C   0  0  0  0  0  0  0  0  0  0  0  0
   -1.3679    2.5224    4.3298 H   0  0  0  0  0  0  0  0  0  0  0  0
   -2.9258    1.7105    3.1222 C   0  0  0  0  0  0  0  0  0  0  0  0
   -3.4923    1.3596    3.9735 H   0  0  0  0  0  0  0  0  0  0  0  0
   -3.4178    1.5259    1.8415 C   0  0  0  0  0  0  0  0  0  0  0  0
   -4.3588    1.0187    1.6871 H   0  0  0  0  0  0  0  0  0  0  0  0
   -2.6995    2.0076    0.7601 C   0  0  0  0  0  0  0  0  0  0  0  0
   -3.0826    1.8812   -0.2428 H   0  0  0  0  0  0  0  0  0  0  0  0
   -1.4903    2.6474    0.9582 C   0  0  0  0  0  0  0  0  0  0  0  0
   -0.9324    3.0112    0.1071 H   0  0  0  0  0  0  0  0  0  0  0  0
    1.5737   -1.6056    5.7203 C   0  0  0  0  0  0  0  0  0  0  0  0
    2.5449   -1.1599    5.9383 H   0  0  0  0  0  0  0  0  0  0  0  0
    1.7051   -2.4219    5.0106 H   0  0  0  0  0  0  0  0  0  0  0  0
    1.1554   -2.0101    6.6466 H   0  0  0  0  0  0  0  0  0  0  0  0
   -0.6647   -1.1455    4.9755 C   0  0  0  0  0  0  0  0  0  0  0  0
   -1.0771   -1.4523    5.9429 H   0  0  0  0  0  0  0  0  0  0  0  0
   -0.6224   -2.0122    4.3152 H   0  0  0  0  0  0  0  0  0  0  0  0
   -1.3187   -0.3892    4.5360 H   0  0  0  0  0  0  0  0  0  0  0  0
    1.0686    0.8793    0.6741 C   0  0  0  0  0  3  0  0  0  0  0  0
    0.0721    0.4720    0.7884 H   0  0  0  0  0  0  0  0  0  0  0  0
    1.4528    1.4893   -0.5008 C   0  0  0  0  0  0  0  0  0  0  0  0
    0.7540    1.5687   -1.3186 H   0  0  0  0  0  0  0  0  0  0  0  0
    2.7426    2.0016   -0.6186 C   0  0  0  0  0  0  0  0  0  0  0  0
    3.5977    1.8089    0.4558 C   0  0  0  0  0  0  0  0  0  0  0  0
    4.6205    2.1511    0.4089 H   0  0  0  0  0  0  0  0  0  0  0  0
    3.1531    1.1696    1.6044 C   0  0  0  0  0  0  0  0  0  0  0  0
    3.1765    2.7227   -1.8514 C   0  0  0  0  0  0  0  0  0  0  0  0
    4.2537    2.8647   -1.8635 H   0  0  0  0  0  0  0  0  0  0  0  0
    2.6985    3.7016   -1.8881 H   0  0  0  0  0  0  0  0  0  0  0  0
    2.8780    2.1731   -2.7419 H   0  0  0  0  0  0  0  0  0  0  0  0
    4.0832    0.8834    2.7394 C   0  0  0  0  0  0  0  0  0  0  0  0
    3.5072    0.5296    3.6083 H   0  0  0  0  0  0  0  0  0  0  0  0
    4.6545    1.7671    3.0118 H   0  0  0  0  0  0  0  0  0  0  0  0
    4.7782    0.0962    2.4475 H   0  0  0  0  0  0  0  0  0  0  0  0
  1  2  1  6  0  0  0
  1  4  1  0  0  0  0
  1  3  1  0  0  0  0
  3 37  1  0  0  0  0
  3  6  1  0  0  0  0
  4 15  1  0  0  0  0
  5  1  1  0  0  0  0
  6  7  1  0  0  0  0
  7  8  1  0  0  0  0
  7  9  2  0  0  0  0
  9 10  1  0  0  0  0
 11 12  1  0  0  0  0
 11  9  1  0  0  0  0
 13 11  2  0  0  0  0
 14 13  1  0  0  0  0
 15  6  2  0  0  0  0
 15 13  1  0  0  0  0
 16 24  1  0  0  0  0
 16  4  1  0  0  0  0
 17 16  2  0  0  0  0
 18 20  2  0  0  0  0
 18 17  1  0  0  0  0
 19 18  1  0  0  0  0
 20 22  1  0  0  0  0
 21 20  1  0  0  0  0
 22 23  1  0  0  0  0
 22 24  2  0  0  0  0
 24 25  1  0  0  0  0
 26 17  1  0  0  0  0
 26 27  1  0  0  0  0
 27 28  1  0  0  0  0
 29 27  2  0  0  0  0
 29 30  1  0  0  0  0
 31 29  1  0  0  0  0
 32 31  1  0  0  0  0
 33 35  1  0  0  0  0
 33 31  2  0  0  0  0
 34 33  1  0  0  0  0
 35 26  2  0  0  0  0
 36 35  1  0  0  0  0
 37 38  1  0  0  0  0
 37 40  1  0  0  0  0
 39 37  1  0  0  0  0
 41  3  1  0  0  0  0
 41 42  1  0  0  0  0
 43 41  1  0  0  0  0
 44 41  1  0  0  0  0
 45 46  1  0  0  0  0
 45  5  1  0  0  0  0
 47 45  1  0  0  0  0
 48 47  1  0  0  0  0
 49 47  2  0  0  0  0
 49 50  1  0  0  0  0
 50 52  2  0  0  0  0
 51 50  1  0  0  0  0
 52  5  1  0  0  0  0
 52 57  1  0  0  0  0
 53 49  1  0  0  0  0
 54 53  1  0  0  0  0
 55 53  1  0  0  0  0
 56 53  1  0  0  0  0
 57 59  1  0  0  0  0
 57 58  1  0  0  0  0
 60 57  1  0  0  0  0
M  END
$$$$
