CSD_code = IZOGOV | q = 0 | S = 0 | Stoichiometry = C15H34Cl2O2P2Pd | MND = 4
 OpenBabel04212202053D

 56 56  0  0  0  0  0  0  0  0999 V2000
    8.5899    4.0827    4.1679 Pd  0  0  0  0  0  0  0  0  0  0  0  0
    8.2505    2.3239    2.7453 Cl  0  0  0  0  0  0  0  0  0  0  0  0
    8.9034    2.6307    5.9086 Cl  0  0  0  0  0  0  0  0  0  0  0  0
    8.1188    5.1565    2.2454 P   0  0  0  0  0  4  0  0  0  0  0  0
    9.0873    5.5035    5.8447 P   0  0  0  0  0  4  0  0  0  0  0  0
    8.0957    6.7884    2.1455 O   0  0  0  0  0  0  0  0  0  0  0  0
    9.1388    7.1228    5.6235 O   0  0  0  0  0  0  0  0  0  0  0  0
    7.5514    7.5958    3.1734 C   0  0  0  0  0  0  0  0  0  0  0  0
    7.1606    6.9703    3.9874 H   0  0  0  0  0  0  0  0  0  0  0  0
    6.7308    8.1832    2.7491 H   0  0  0  0  0  0  0  0  0  0  0  0
    8.6292    8.5208    3.7304 C   0  0  0  0  0  0  0  0  0  0  0  0
    8.1731    9.2256    4.4257 H   0  0  0  0  0  0  0  0  0  0  0  0
    9.0949    9.0702    2.9123 H   0  0  0  0  0  0  0  0  0  0  0  0
    9.6933    7.7052    4.4583 C   0  0  0  0  0  0  0  0  0  0  0  0
   10.0726    6.9269    3.7825 H   0  0  0  0  0  0  0  0  0  0  0  0
   10.5240    8.3511    4.7607 H   0  0  0  0  0  0  0  0  0  0  0  0
    9.3614    4.9373    0.8843 C   0  0  0  0  0  0  0  0  0  0  0  0
    9.4113    5.9114    0.3820 H   0  0  0  0  0  0  0  0  0  0  0  0
    6.4242    4.6752    1.6281 C   0  0  0  0  0  0  0  0  0  0  0  0
    6.5425    3.6896    1.1715 H   0  0  0  0  0  0  0  0  0  0  0  0
   10.7748    5.1220    6.5457 C   0  0  0  0  0  0  0  0  0  0  0  0
   10.6397    4.2483    7.1878 H   0  0  0  0  0  0  0  0  0  0  0  0
    7.8444    5.5770    7.2210 C   0  0  0  0  0  0  0  0  0  0  0  0
    7.8134    6.6314    7.5229 H   0  0  0  0  0  0  0  0  0  0  0  0
    9.0249    3.8495   -0.1260 C   0  0  0  0  0  0  0  0  0  0  0  0
    9.8366    3.7620   -0.8466 H   0  0  0  0  0  0  0  0  0  0  0  0
    8.1124    4.0799   -0.6700 H   0  0  0  0  0  0  0  0  0  0  0  0
    8.9035    2.8927    0.3754 H   0  0  0  0  0  0  0  0  0  0  0  0
   10.6936    4.6490    1.5787 C   0  0  0  0  0  0  0  0  0  0  0  0
   10.6020    3.7453    2.1947 H   0  0  0  0  0  0  0  0  0  0  0  0
   10.9837    5.4873    2.2152 H   0  0  0  0  0  0  0  0  0  0  0  0
   11.4841    4.4851    0.8484 H   0  0  0  0  0  0  0  0  0  0  0  0
    5.8774    5.6623    0.6055 C   0  0  0  0  0  0  0  0  0  0  0  0
    4.9578    5.2753    0.1700 H   0  0  0  0  0  0  0  0  0  0  0  0
    6.5951    5.8317   -0.1944 H   0  0  0  0  0  0  0  0  0  0  0  0
    5.6565    6.6216    1.0694 H   0  0  0  0  0  0  0  0  0  0  0  0
    5.5091    4.5381    2.8458 C   0  0  0  0  0  0  0  0  0  0  0  0
    5.3014    5.5131    3.2894 H   0  0  0  0  0  0  0  0  0  0  0  0
    5.9814    3.8921    3.6027 H   0  0  0  0  0  0  0  0  0  0  0  0
    4.5607    4.0853    2.5622 H   0  0  0  0  0  0  0  0  0  0  0  0
   11.6836    4.7302    5.3796 C   0  0  0  0  0  0  0  0  0  0  0  0
   11.9084    5.5947    4.7531 H   0  0  0  0  0  0  0  0  0  0  0  0
   11.1973    3.9568    4.7643 H   0  0  0  0  0  0  0  0  0  0  0  0
   12.6240    4.3242    5.7481 H   0  0  0  0  0  0  0  0  0  0  0  0
   11.3422    6.2814    7.3537 C   0  0  0  0  0  0  0  0  0  0  0  0
   12.2566    5.9712    7.8567 H   0  0  0  0  0  0  0  0  0  0  0  0
   10.6306    6.6179    8.1046 H   0  0  0  0  0  0  0  0  0  0  0  0
   11.5783    7.1261    6.7096 H   0  0  0  0  0  0  0  0  0  0  0  0
    8.1639    4.7025    8.4254 C   0  0  0  0  0  0  0  0  0  0  0  0
    7.3533    4.7743    9.1492 H   0  0  0  0  0  0  0  0  0  0  0  0
    9.0827    5.0175    8.9135 H   0  0  0  0  0  0  0  0  0  0  0  0
    8.2649    3.6636    8.1218 H   0  0  0  0  0  0  0  0  0  0  0  0
    6.5052    5.1828    6.5958 C   0  0  0  0  0  0  0  0  0  0  0  0
    6.5788    4.1749    6.1679 H   0  0  0  0  0  0  0  0  0  0  0  0
    6.2280    5.8858    5.8076 H   0  0  0  0  0  0  0  0  0  0  0  0
    5.7142    5.1788    7.3436 H   0  0  0  0  0  0  0  0  0  0  0  0
  1  5  1  0  0  0  0
  1  3  1  0  0  0  0
  2  1  1  0  0  0  0
  4  1  1  0  0  0  0
  5 21  1  0  0  0  0
  5 23  1  0  0  0  0
  6  4  1  0  0  0  0
  6  8  1  0  0  0  0
  7  5  1  0  0  0  0
  8 11  1  0  0  0  0
  8  9  1  0  0  0  0
 10  8  1  0  0  0  0
 11 12  1  0  0  0  0
 11 14  1  0  0  0  0
 13 11  1  0  0  0  0
 14 16  1  0  0  0  0
 14  7  1  0  0  0  0
 15 14  1  0  0  0  0
 17 29  1  0  0  0  0
 17  4  1  0  0  0  0
 18 17  1  0  0  0  0
 19  4  1  0  0  0  0
 19 37  1  0  0  0  0
 20 19  1  0  0  0  0
 21 22  1  0  0  0  0
 21 45  1  0  0  0  0
 23 24  1  0  0  0  0
 23 49  1  0  0  0  0
 25 28  1  0  0  0  0
 25 17  1  0  0  0  0
 26 25  1  0  0  0  0
 27 25  1  0  0  0  0
 29 30  1  0  0  0  0
 29 31  1  0  0  0  0
 32 29  1  0  0  0  0
 33 36  1  0  0  0  0
 33 19  1  0  0  0  0
 34 33  1  0  0  0  0
 35 33  1  0  0  0  0
 37 38  1  0  0  0  0
 37 39  1  0  0  0  0
 40 37  1  0  0  0  0
 41 44  1  0  0  0  0
 41 21  1  0  0  0  0
 42 41  1  0  0  0  0
 43 41  1  0  0  0  0
 45 46  1  0  0  0  0
 45 47  1  0  0  0  0
 48 45  1  0  0  0  0
 49 51  1  0  0  0  0
 49 50  1  0  0  0  0
 52 49  1  0  0  0  0
 53 23  1  0  0  0  0
 53 56  1  0  0  0  0
 54 53  1  0  0  0  0
 55 53  1  0  0  0  0
M  END
$$$$
