CSD_code = IZOREV | q = 0 | S = 0 | Stoichiometry = C15H9ClN3O3Re | MND = 6
 OpenBabel04212202053D

 32 35  0  0  1  0  0  0  0  0999 V2000
    0.9549    1.1713    3.9001 Re  0  0  0  0  0  0  0  0  0  0  0  0
    0.6673    2.3522    1.8531 Cl  0  0  0  0  0  0  0  0  0  0  0  0
   -0.8596   -1.0510    2.7553 O   0  0  0  0  0  1  0  0  0  0  0  0
   -1.4760    2.7287    4.9960 O   0  0  0  0  0  1  0  0  0  0  0  0
    1.6670   -0.2480    6.5520 O   0  0  0  0  0  1  0  0  0  0  0  0
    2.3473    2.8337    4.1884 N   0  0  0  0  0  0  0  0  0  0  0  0
    2.7502    0.5384    2.9090 N   0  0  0  0  0  0  0  0  0  0  0  0
    4.5977    1.1668    1.8496 N   0  0  0  0  0  0  0  0  0  0  0  0
    5.3368    1.7563    1.5067 H   0  0  0  0  0  0  0  0  0  0  0  0
   -0.1944   -0.2574    3.2427 C   0  0  0  0  0  2  0  0  0  0  0  0
   -0.5893    2.1029    4.6324 C   0  0  0  0  0  2  0  0  0  0  0  0
    1.3829    0.2711    5.5662 C   0  0  0  0  0  2  0  0  0  0  0  0
    2.1077    3.9549    4.8561 C   0  0  0  0  0  3  0  0  0  0  0  0
    1.2487    3.9469    5.5142 H   0  0  0  0  0  0  0  0  0  0  0  0
    2.8922    5.0894    4.7343 C   0  0  0  0  0  0  0  0  0  0  0  0
    2.6440    5.9775    5.2923 H   0  0  0  0  0  0  0  0  0  0  0  0
    3.9849    5.0619    3.8793 C   0  0  0  0  0  0  0  0  0  0  0  0
    4.6105    5.9318    3.7515 H   0  0  0  0  0  0  0  0  0  0  0  0
    4.2554    3.8956    3.1899 C   0  0  0  0  0  0  0  0  0  0  0  0
    5.0949    3.8363    2.5145 H   0  0  0  0  0  0  0  0  0  0  0  0
    3.4139    2.7985    3.3643 C   0  0  0  0  0  0  0  0  0  0  0  0
    3.5955    1.5307    2.6962 C   0  0  2  0  0  3  0  0  0  0  0  0
    3.1923   -0.5232    2.1714 C   0  0  0  0  0  0  0  0  0  0  0  0
    2.6800   -1.8104    2.0297 C   0  0  0  0  0  0  0  0  0  0  0  0
    1.7869   -2.1032    2.5586 H   0  0  0  0  0  0  0  0  0  0  0  0
    3.3581   -2.6703    1.1945 C   0  0  0  0  0  0  0  0  0  0  0  0
    2.9892   -3.6747    1.0553 H   0  0  0  0  0  0  0  0  0  0  0  0
    4.5165   -2.2781    0.5153 C   0  0  0  0  0  0  0  0  0  0  0  0
    5.0104   -2.9885   -0.1300 H   0  0  0  0  0  0  0  0  0  0  0  0
    5.0429   -1.0097    0.6476 C   0  0  0  0  0  0  0  0  0  0  0  0
    5.9369   -0.7089    0.1234 H   0  0  0  0  0  0  0  0  0  0  0  0
    4.3662   -0.1362    1.4850 C   0  0  0  0  0  0  0  0  0  0  0  0
  1  6  1  0  0  0  0
  1 11  1  0  0  0  0
  1 12  1  0  0  0  0
  2  1  1  0  0  0  0
  3 10  1  0  0  0  0
  6 13  1  0  0  0  0
  7  1  1  0  0  0  0
  8 22  1  0  0  0  0
  9  8  1  0  0  0  0
 10  1  1  0  0  0  0
 11  4  1  0  0  0  0
 12  5  1  0  0  0  0
 13 14  1  0  0  0  0
 15 13  1  0  0  0  0
 15 16  1  0  0  0  0
 17 15  2  0  0  0  0
 18 17  1  0  0  0  0
 19 21  2  0  0  0  0
 19 17  1  0  0  0  0
 20 19  1  0  0  0  0
 21  6  1  0  0  0  0
 22  7  1  0  0  0  0
 22 21  1  1  0  0  0
 23  7  1  0  0  0  0
 24 23  1  0  0  0  0
 24 25  1  0  0  0  0
 26 24  2  0  0  0  0
 27 26  1  0  0  0  0
 28 30  2  0  0  0  0
 28 26  1  0  0  0  0
 29 28  1  0  0  0  0
 30 32  1  0  0  0  0
 31 30  1  0  0  0  0
 32  8  1  0  0  0  0
 32 23  2  0  0  0  0
M  END
$$$$
