CSD_code = IZUHEQ | q = 0 | S = 0 | Stoichiometry = C14H34Br2NiP2 | MND = 4
 OpenBabel04212202053D

 53 52  0  0  0  0  0  0  0  0999 V2000
    4.1155    0.4973    7.2895 Br  0  0  0  0  0  0  0  0  0  0  0  0
    0.6103    1.6225    9.9362 Br  0  0  0  0  0  0  0  0  0  0  0  0
    2.3669    1.0332    8.6304 Ni  0  0  0  0  0  0  0  0  0  0  0  0
    3.7727    2.1472    9.9315 P   0  0  0  0  0  4  0  0  0  0  0  0
    0.9687   -0.1128    7.3475 P   0  0  0  0  0  4  0  0  0  0  0  0
    3.1138    3.2265   11.2590 C   0  0  0  0  0  0  0  0  0  0  0  0
    2.4757    2.6419   11.9190 H   0  0  0  0  0  0  0  0  0  0  0  0
    2.5057    4.0183   10.8238 H   0  0  0  0  0  0  0  0  0  0  0  0
    3.9313    3.6569   11.8333 H   0  0  0  0  0  0  0  0  0  0  0  0
    4.7536    0.9376   10.9674 C   0  0  0  0  0  0  0  0  0  0  0  0
    4.9842    1.4515   11.9095 H   0  0  0  0  0  0  0  0  0  0  0  0
    6.0495    0.4448   10.3356 C   0  0  0  0  0  0  0  0  0  0  0  0
    6.7487    1.2600   10.1673 H   0  0  0  0  0  0  0  0  0  0  0  0
    5.8634   -0.0504    9.3862 H   0  0  0  0  0  0  0  0  0  0  0  0
    6.5235   -0.2740   11.0032 H   0  0  0  0  0  0  0  0  0  0  0  0
    3.8118   -0.2332   11.2529 C   0  0  0  0  0  0  0  0  0  0  0  0
    2.9159    0.1020   11.7771 H   0  0  0  0  0  0  0  0  0  0  0  0
    4.3008   -0.9915   11.8623 H   0  0  0  0  0  0  0  0  0  0  0  0
    3.5112   -0.7052   10.3093 H   0  0  0  0  0  0  0  0  0  0  0  0
    5.0019    3.2594    9.0809 C   0  0  0  0  0  0  0  0  0  0  0  0
    5.6491    2.5966    8.4961 H   0  0  0  0  0  0  0  0  0  0  0  0
    5.8611    4.0856   10.0305 C   0  0  0  0  0  0  0  0  0  0  0  0
    6.2902    3.4751   10.8227 H   0  0  0  0  0  0  0  0  0  0  0  0
    5.2853    4.8911   10.4811 H   0  0  0  0  0  0  0  0  0  0  0  0
    6.6800    4.5365    9.4717 H   0  0  0  0  0  0  0  0  0  0  0  0
    4.2339    4.1570    8.1126 C   0  0  0  0  0  0  0  0  0  0  0  0
    3.6511    3.5538    7.4148 H   0  0  0  0  0  0  0  0  0  0  0  0
    4.9217    4.7685    7.5319 H   0  0  0  0  0  0  0  0  0  0  0  0
    3.5545    4.8192    8.6487 H   0  0  0  0  0  0  0  0  0  0  0  0
    1.6417   -1.2570    6.0825 C   0  0  0  0  0  0  0  0  0  0  0  0
    2.2452   -2.0256    6.5633 H   0  0  0  0  0  0  0  0  0  0  0  0
    2.2860   -0.7061    5.4002 H   0  0  0  0  0  0  0  0  0  0  0  0
    0.8302   -1.7168    5.5228 H   0  0  0  0  0  0  0  0  0  0  0  0
    0.0171    1.0589    6.2448 C   0  0  0  0  0  0  0  0  0  0  0  0
   -0.2169    0.5028    5.3277 H   0  0  0  0  0  0  0  0  0  0  0  0
   -1.2730    1.6035    6.8457 C   0  0  0  0  0  0  0  0  0  0  0  0
   -1.9880    0.8102    7.0486 H   0  0  0  0  0  0  0  0  0  0  0  0
   -1.7308    2.2989    6.1430 H   0  0  0  0  0  0  0  0  0  0  0  0
   -1.0815    2.1392    7.7719 H   0  0  0  0  0  0  0  0  0  0  0  0
    0.9776    2.2005    5.9086 C   0  0  0  0  0  0  0  0  0  0  0  0
    1.8712    1.8291    5.4061 H   0  0  0  0  0  0  0  0  0  0  0  0
    1.2805    2.7114    6.8311 H   0  0  0  0  0  0  0  0  0  0  0  0
    0.5020    2.9360    5.2619 H   0  0  0  0  0  0  0  0  0  0  0  0
   -0.2904   -1.1744    8.2201 C   0  0  0  0  0  0  0  0  0  0  0  0
   -0.9333   -0.4800    8.7718 H   0  0  0  0  0  0  0  0  0  0  0  0
   -1.1525   -2.0184    7.2889 C   0  0  0  0  0  0  0  0  0  0  0  0
   -1.5556   -1.4305    6.4666 H   0  0  0  0  0  0  0  0  0  0  0  0
   -1.9898   -2.4293    7.8511 H   0  0  0  0  0  0  0  0  0  0  0  0
   -0.5879   -2.8533    6.8794 H   0  0  0  0  0  0  0  0  0  0  0  0
    0.4467   -2.0506    9.2308 C   0  0  0  0  0  0  0  0  0  0  0  0
    1.0322   -1.4342    9.9144 H   0  0  0  0  0  0  0  0  0  0  0  0
    1.1194   -2.7455    8.7286 H   0  0  0  0  0  0  0  0  0  0  0  0
   -0.2611   -2.6267    9.8236 H   0  0  0  0  0  0  0  0  0  0  0  0
  1  3  1  0  0  0  0
  3  4  1  0  0  0  0
  3  2  1  0  0  0  0
  4 10  1  0  0  0  0
  4  6  1  0  0  0  0
  5 44  1  0  0  0  0
  5  3  1  0  0  0  0
  6  9  1  0  0  0  0
  6  7  1  0  0  0  0
  8  6  1  0  0  0  0
 10 16  1  0  0  0  0
 10 11  1  0  0  0  0
 12 10  1  0  0  0  0
 12 15  1  0  0  0  0
 13 12  1  0  0  0  0
 14 12  1  0  0  0  0
 16 17  1  0  0  0  0
 16 18  1  0  0  0  0
 19 16  1  0  0  0  0
 20  4  1  0  0  0  0
 20 22  1  0  0  0  0
 21 20  1  0  0  0  0
 22 24  1  0  0  0  0
 22 23  1  0  0  0  0
 25 22  1  0  0  0  0
 26 29  1  0  0  0  0
 26 20  1  0  0  0  0
 27 26  1  0  0  0  0
 28 26  1  0  0  0  0
 30 31  1  0  0  0  0
 30  5  1  0  0  0  0
 32 30  1  0  0  0  0
 33 30  1  0  0  0  0
 34 36  1  0  0  0  0
 34  5  1  0  0  0  0
 35 34  1  0  0  0  0
 36 37  1  0  0  0  0
 36 39  1  0  0  0  0
 38 36  1  0  0  0  0
 40 34  1  0  0  0  0
 40 42  1  0  0  0  0
 41 40  1  0  0  0  0
 43 40  1  0  0  0  0
 44 45  1  0  0  0  0
 44 50  1  0  0  0  0
 46 48  1  0  0  0  0
 46 44  1  0  0  0  0
 47 46  1  0  0  0  0
 49 46  1  0  0  0  0
 50 53  1  0  0  0  0
 50 51  1  0  0  0  0
 52 50  1  0  0  0  0
M  END
$$$$
