CSD_code = IZUPUQ | q = 0 | S = 0 | Stoichiometry = C18H14Br2HgN4O | MND = 5
 OpenBabel04212202053D

 40 41  0  0  0  0  0  0  0  0999 V2000
   10.4863    4.4068    7.3025 Hg  0  0  0  0  0  0  0  0  0  0  0  0
    9.9562    2.7865    9.0743 Br  0  0  0  0  0  0  0  0  0  0  0  0
   10.5269    5.3578    5.0796 Br  0  0  0  0  0  0  0  0  0  0  0  0
   13.5314    3.1506    6.1516 C   0  0  0  0  0  0  0  0  0  0  0  0
   12.8484    2.9612    5.3336 H   0  0  0  0  0  0  0  0  0  0  0  0
   14.8563    2.7438    6.0794 C   0  0  0  0  0  0  0  0  0  0  0  0
   15.2182    2.2262    5.2059 H   0  0  0  0  0  0  0  0  0  0  0  0
   15.6896    3.0224    7.1499 C   0  0  0  0  0  0  0  0  0  0  0  0
   16.7279    2.7258    7.1350 H   0  0  0  0  0  0  0  0  0  0  0  0
   15.1707    3.6972    8.2413 C   0  0  0  0  0  0  0  0  0  0  0  0
   15.7931    3.9483    9.0862 H   0  0  0  0  0  0  0  0  0  0  0  0
   13.8261    4.0668    8.2303 C   0  0  0  0  0  0  0  0  0  0  0  0
   13.2391    4.8119    9.3506 C   0  0  0  0  0  0  0  0  0  0  0  0
   10.2019    6.5292    9.8257 C   0  0  0  0  0  0  0  0  0  0  0  0
    9.6089    7.2296   10.9933 C   0  0  0  0  0  0  0  0  0  0  0  0
    8.3125    7.7283   10.9281 C   0  0  0  0  0  0  0  0  0  0  0  0
    7.7434    7.6056   10.0205 H   0  0  0  0  0  0  0  0  0  0  0  0
    7.8003    8.3671   12.0463 C   0  0  0  0  0  0  0  0  0  0  0  0
    6.7974    8.7669   12.0380 H   0  0  0  0  0  0  0  0  0  0  0  0
    8.5990    8.4806   13.1729 C   0  0  0  0  0  0  0  0  0  0  0  0
    8.2391    8.9687   14.0648 H   0  0  0  0  0  0  0  0  0  0  0  0
    9.8823    7.9479   13.1332 C   0  0  0  0  0  0  0  0  0  0  0  0
   10.5435    8.0109   13.9872 H   0  0  0  0  0  0  0  0  0  0  0  0
   13.9321    4.8316   10.6541 C   0  0  0  0  0  0  0  0  0  0  0  0
   14.2183    3.6285   11.2964 C   0  0  0  0  0  0  0  0  0  0  0  0
   13.9409    2.6971   10.8258 H   0  0  0  0  0  0  0  0  0  0  0  0
   14.8264    3.6345   12.5378 C   0  0  0  0  0  0  0  0  0  0  0  0
   15.0403    2.6994   13.0327 H   0  0  0  0  0  0  0  0  0  0  0  0
   15.1604    4.8346   13.1451 C   0  0  0  0  0  0  0  0  0  0  0  0
   15.6381    4.8354   14.1131 H   0  0  0  0  0  0  0  0  0  0  0  0
   14.8822    6.0331   12.5096 C   0  0  0  0  0  0  0  0  0  0  0  0
   15.1444    6.9698   12.9778 H   0  0  0  0  0  0  0  0  0  0  0  0
   14.2639    6.0361   11.2717 C   0  0  0  0  0  0  0  0  0  0  0  0
   14.0691    6.9718   10.7663 H   0  0  0  0  0  0  0  0  0  0  0  0
   13.0266    3.7866    7.1945 N   0  0  0  0  0  0  0  0  0  0  0  0
   12.1196    5.3963    9.1222 N   0  0  0  0  0  0  0  0  0  0  0  0
   11.4631    6.0803   10.0655 N   0  0  0  0  0  0  0  0  0  0  0  0
   11.8209    6.1840   11.0188 H   0  0  0  0  0  0  0  0  0  0  0  0
   10.3795    7.3378   12.0758 N   0  0  0  0  0  0  0  0  0  0  0  0
    9.6206    6.3766    8.7643 O   0  0  0  0  0  0  0  0  0  0  0  0
  1  2  1  0  0  0  0
  3  1  1  0  0  0  0
  4 35  1  0  0  0  0
  5  4  1  0  0  0  0
  6  4  2  0  0  0  0
  6  8  1  0  0  0  0
  7  6  1  0  0  0  0
  8 10  2  0  0  0  0
  9  8  1  0  0  0  0
 10 11  1  0  0  0  0
 12 10  1  0  0  0  0
 12 13  1  0  0  0  0
 13 24  1  0  0  0  0
 14 37  1  0  0  0  0
 14 15  1  0  0  0  0
 15 39  1  0  0  0  0
 16 15  2  0  0  0  0
 16 18  1  0  0  0  0
 17 16  1  0  0  0  0
 18 20  2  0  0  0  0
 19 18  1  0  0  0  0
 20 21  1  0  0  0  0
 22 20  1  0  0  0  0
 22 23  1  0  0  0  0
 24 33  2  0  0  0  0
 24 25  1  0  0  0  0
 25 27  2  0  0  0  0
 26 25  1  0  0  0  0
 27 28  1  0  0  0  0
 27 29  1  0  0  0  0
 29 30  1  0  0  0  0
 31 32  1  0  0  0  0
 31 29  2  0  0  0  0
 33 31  1  0  0  0  0
 34 33  1  0  0  0  0
 35 12  2  0  0  0  0
 36 13  2  0  0  0  0
 36 37  1  0  0  0  0
 37 38  1  0  0  0  0
 39 22  2  0  0  0  0
 40 14  2  0  0  0  0
M  END
$$$$
