CSD_code = IZUQEB | q = 0 | S = 0 | Stoichiometry = C12H10Br2HgN4O | MND = 5
 OpenBabel04212202053D

 30 30  0  0  0  0  0  0  0  0999 V2000
   -0.4421    2.4387    0.5915 C   0  0  0  0  0  0  0  0  0  0  0  0
    0.0291    3.4102    0.5180 H   0  0  0  0  0  0  0  0  0  0  0  0
   -1.2071    1.9430   -0.4567 C   0  0  0  0  0  0  0  0  0  0  0  0
   -1.3367    2.5235   -1.3558 H   0  0  0  0  0  0  0  0  0  0  0  0
   -1.7910    0.6951   -0.3153 C   0  0  0  0  0  0  0  0  0  0  0  0
   -2.3915    0.2719   -1.1066 H   0  0  0  0  0  0  0  0  0  0  0  0
   -1.5905   -0.0010    0.8639 C   0  0  0  0  0  0  0  0  0  0  0  0
   -2.0290   -0.9754    1.0157 H   0  0  0  0  0  0  0  0  0  0  0  0
   -0.8085    0.5753    1.8652 C   0  0  0  0  0  0  0  0  0  0  0  0
   -0.5849   -0.1285    3.1150 C   0  0  0  0  0  0  0  0  0  0  0  0
   -1.0297   -1.1196    3.2303 H   0  0  0  0  0  0  0  0  0  0  0  0
    1.1158    0.4029    6.1453 C   0  0  0  0  0  0  0  0  0  0  0  0
    1.2763   -0.4279    7.3657 C   0  0  0  0  0  0  0  0  0  0  0  0
    2.0342    0.0363    8.4351 C   0  0  0  0  0  0  0  0  0  0  0  0
    2.5034    1.0049    8.3706 H   0  0  0  0  0  0  0  0  0  0  0  0
    2.1561   -0.7758    9.5519 C   0  0  0  0  0  0  0  0  0  0  0  0
    2.7358   -0.4532   10.4037 H   0  0  0  0  0  0  0  0  0  0  0  0
    1.5207   -2.0071    9.5528 C   0  0  0  0  0  0  0  0  0  0  0  0
    1.5897   -2.6700   10.4007 H   0  0  0  0  0  0  0  0  0  0  0  0
    0.7864   -2.3763    8.4316 C   0  0  0  0  0  0  0  0  0  0  0  0
    0.2728   -3.3274    8.3853 H   0  0  0  0  0  0  0  0  0  0  0  0
    3.2948    1.6774    2.7192 Br  0  0  0  0  0  0  0  0  0  0  0  0
   -0.4405    4.2208    4.4395 Br  0  0  0  0  0  0  0  0  0  0  0  0
    1.3146    2.7320    3.6686 Hg  0  0  0  0  0  0  0  0  0  0  0  0
   -0.2432    1.7806    1.7184 N   0  0  0  0  0  0  0  0  0  0  0  0
    0.1105    0.4115    4.0339 N   0  0  0  0  0  0  0  0  0  0  0  0
    0.3437   -0.1995    5.1925 N   0  0  0  0  0  0  0  0  0  0  0  0
    0.6637   -1.6123    7.3644 N   0  0  0  0  0  0  0  0  0  0  0  0
    1.6156    1.5023    6.0055 O   0  0  0  0  0  0  0  0  0  0  0  0
   -0.0189   -1.1323    5.4104 H   0  0  0  0  0  0  0  0  0  0  0  0
  1 25  1  0  0  0  0
  2  1  1  0  0  0  0
  3  5  1  0  0  0  0
  3  1  2  0  0  0  0
  4  3  1  0  0  0  0
  5  7  2  0  0  0  0
  6  5  1  0  0  0  0
  7  8  1  0  0  0  0
  7  9  1  0  0  0  0
  9 10  1  0  0  0  0
 10 11  1  0  0  0  0
 10 26  2  0  0  0  0
 12 13  1  0  0  0  0
 13 14  1  0  0  0  0
 14 16  2  0  0  0  0
 15 14  1  0  0  0  0
 16 18  1  0  0  0  0
 16 17  1  0  0  0  0
 18 19  1  0  0  0  0
 20 18  2  0  0  0  0
 21 20  1  0  0  0  0
 22 24  1  0  0  0  0
 24 23  1  0  0  0  0
 25  9  2  0  0  0  0
 26 27  1  0  0  0  0
 27 30  1  0  0  0  0
 27 12  1  0  0  0  0
 28 13  2  0  0  0  0
 28 20  1  0  0  0  0
 29 12  2  0  0  0  0
M  END
$$$$
