CSD_code = IZUWAB | q = 0 | S = 0 | Stoichiometry = C10H18Cl2N2OPtS | MND = 4
 OpenBabel04212202053D

 35 35  0  0  0  0  0  0  0  0999 V2000
    6.5342   16.5322    3.9540 Pt  0  0  0  0  0  0  0  0  0  0  0  0
    5.9539   16.7273    1.7844 Cl  0  0  0  0  0  0  0  0  0  0  0  0
    5.8259   18.6292    4.4624 Cl  0  0  0  0  0  0  0  0  0  0  0  0
    7.2042   14.4139    3.3657 S   0  0  0  0  0  0  0  0  0  0  0  0
    7.8229   13.6484    4.4455 O   0  0  0  0  0  1  0  0  0  0  0  0
    7.0260   16.2862    5.8551 N   0  0  0  0  0  0  0  0  0  0  0  0
    7.6484   15.8124    8.5131 N   0  0  0  0  0  0  0  0  0  0  0  0
    6.1084   16.4243    6.8157 C   0  0  0  0  0  3  0  0  0  0  0  0
    5.1195   16.7433    6.5149 H   0  0  0  0  0  0  0  0  0  0  0  0
    6.4339   16.1819    8.1416 C   0  0  0  0  0  0  0  0  0  0  0  0
    5.6996   16.2874    8.9270 H   0  0  0  0  0  0  0  0  0  0  0  0
    8.5535   15.6900    7.5568 C   0  0  0  0  0  0  0  0  0  0  0  0
    9.5462   15.3965    7.8654 H   0  0  0  0  0  0  0  0  0  0  0  0
    8.2559   15.9250    6.2227 C   0  0  0  0  0  0  0  0  0  0  0  0
    9.0034   15.8208    5.4498 H   0  0  0  0  0  0  0  0  0  0  0  0
    8.3381   14.3727    1.9335 C   0  0  0  0  0  0  0  0  0  0  0  0
    8.6769   13.3473    1.8073 H   0  0  0  0  0  0  0  0  0  0  0  0
    7.7568   14.7079    1.0784 H   0  0  0  0  0  0  0  0  0  0  0  0
    9.4788   15.3342    2.2235 C   0  0  0  0  0  0  0  0  0  0  0  0
   10.0588   14.9580    3.0696 H   0  0  0  0  0  0  0  0  0  0  0  0
    9.0433   16.3030    2.5051 H   0  0  0  0  0  0  0  0  0  0  0  0
   10.3856   15.5237    1.0139 C   0  0  0  0  0  0  0  0  0  0  0  0
   11.1933   16.2110    1.2510 H   0  0  0  0  0  0  0  0  0  0  0  0
    9.8200   15.9318    0.1802 H   0  0  0  0  0  0  0  0  0  0  0  0
   10.8189   14.5740    0.7081 H   0  0  0  0  0  0  0  0  0  0  0  0
    5.7906   13.4448    2.7361 C   0  0  0  0  0  0  0  0  0  0  0  0
    5.5387   13.8640    1.7652 H   0  0  0  0  0  0  0  0  0  0  0  0
    6.1081   12.4085    2.6497 H   0  0  0  0  0  0  0  0  0  0  0  0
    4.6471   13.6240    3.7211 C   0  0  0  0  0  0  0  0  0  0  0  0
    4.9393   13.2051    4.6871 H   0  0  0  0  0  0  0  0  0  0  0  0
    4.4771   14.7030    3.8521 H   0  0  0  0  0  0  0  0  0  0  0  0
    3.3619   12.9681    3.2324 C   0  0  0  0  0  0  0  0  0  0  0  0
    2.5646   13.1123    3.9566 H   0  0  0  0  0  0  0  0  0  0  0  0
    3.5084   11.8998    3.0893 H   0  0  0  0  0  0  0  0  0  0  0  0
    3.0512   13.4052    2.2867 H   0  0  0  0  0  0  0  0  0  0  0  0
  1  3  1  0  0  0  0
  1  6  1  0  0  0  0
  2  1  1  0  0  0  0
  4  1  1  0  0  0  0
  4  5  1  0  0  0  0
  6 14  1  0  0  0  0
  6  8  1  0  0  0  0
  8 10  1  0  0  0  0
  9  8  1  0  0  0  0
 10  7  2  0  0  0  0
 10 11  1  0  0  0  0
 12 13  1  0  0  0  0
 12  7  1  0  0  0  0
 14 12  2  0  0  0  0
 15 14  1  0  0  0  0
 16 19  1  0  0  0  0
 16  4  1  0  0  0  0
 17 16  1  0  0  0  0
 18 16  1  0  0  0  0
 19 21  1  0  0  0  0
 19 20  1  0  0  0  0
 22 23  1  0  0  0  0
 22 19  1  0  0  0  0
 24 22  1  0  0  0  0
 25 22  1  0  0  0  0
 26  4  1  0  0  0  0
 26 29  1  0  0  0  0
 27 26  1  0  0  0  0
 28 26  1  0  0  0  0
 29 31  1  0  0  0  0
 29 30  1  0  0  0  0
 32 29  1  0  0  0  0
 32 33  1  0  0  0  0
 34 32  1  0  0  0  0
 35 32  1  0  0  0  0
M  END
$$$$
