CSD_code = JABDEW | q = 0 | S = 0 | Stoichiometry = C4H12Cl2MoO4S2 | MND = 6
 OpenBabel04212202053D

 25 24  0  0  0  0  0  0  0  0999 V2000
    9.2094    5.4964    1.9094 Mo  0  0  0  0  0  0  0  0  0  0  0  0
    7.7888    7.0623    2.8295 Cl  0  0  0  0  0  0  0  0  0  0  0  0
   11.3447    4.5351    1.5983 Cl  0  0  0  0  0  0  0  0  0  0  0  0
    8.5873    4.1510    2.6596 O   0  0  0  0  0  1  0  0  0  0  0  0
    8.6898    5.6011    0.3660 O   0  0  0  0  0  1  0  0  0  0  0  0
   10.4060    7.1806    1.7422 O   0  0  0  0  0  0  0  0  0  0  0  0
   11.6396    7.4050    2.5763 S   0  0  0  0  0  3  0  0  0  0  0  0
   11.0865    8.7436    3.6894 C   0  0  0  0  0  0  0  0  0  0  0  0
   12.6322    8.4505    1.4544 C   0  0  0  0  0  0  0  0  0  0  0  0
   10.0925    5.7124    3.8983 O   0  0  0  0  0  0  0  0  0  0  0  0
    9.7127    4.4186    4.6025 S   0  0  0  0  0  3  0  0  0  0  0  0
    8.0835    4.7765    5.3251 C   0  0  0  0  0  0  0  0  0  0  0  0
   10.6319    4.7059    6.1806 C   0  0  0  0  0  0  0  0  0  0  0  0
   11.9159    9.0715    4.3052 H   0  0  0  0  0  0  0  0  0  0  0  0
   10.6821    9.5614    3.1033 H   0  0  0  0  0  0  0  0  0  0  0  0
   10.3002    8.3164    4.3069 H   0  0  0  0  0  0  0  0  0  0  0  0
   13.4433    8.9135    2.0037 H   0  0  0  0  0  0  0  0  0  0  0  0
   13.0317    7.7959    0.6862 H   0  0  0  0  0  0  0  0  0  0  0  0
   11.9878    9.1960    1.0020 H   0  0  0  0  0  0  0  0  0  0  0  0
    7.9369    4.1379    6.1886 H   0  0  0  0  0  0  0  0  0  0  0  0
    8.0533    5.8271    5.5948 H   0  0  0  0  0  0  0  0  0  0  0  0
    7.3365    4.5653    4.5650 H   0  0  0  0  0  0  0  0  0  0  0  0
   10.4066    3.9031    6.8719 H   0  0  0  0  0  0  0  0  0  0  0  0
   11.6886    4.6914    5.9385 H   0  0  0  0  0  0  0  0  0  0  0  0
   10.3647    5.6648    6.6065 H   0  0  0  0  0  0  0  0  0  0  0  0
  1  4  1  0  0  0  0
  1  2  1  0  0  0  0
  1 10  1  0  0  0  0
  3  1  1  0  0  0  0
  5  1  1  0  0  0  0
  6  1  1  0  0  0  0
  6  7  1  0  0  0  0
  7  8  1  0  0  0  0
  8 14  1  0  0  0  0
  8 16  1  0  0  0  0
  9 17  1  0  0  0  0
  9  7  1  0  0  0  0
 10 11  1  0  0  0  0
 11 12  1  0  0  0  0
 11 13  1  0  0  0  0
 12 21  1  0  0  0  0
 12 20  1  0  0  0  0
 13 25  1  0  0  0  0
 13 23  1  0  0  0  0
 15  8  1  0  0  0  0
 18  9  1  0  0  0  0
 19  9  1  0  0  0  0
 22 12  1  0  0  0  0
 24 13  1  0  0  0  0
M  END
$$$$
