CSD_code = JABTIS | q = 0 | S = 0 | Stoichiometry = C24H23BrCuN2PS3 | MND = 4
 OpenBabel04212202053D

 55 60  0  0  1  0  0  0  0  0999 V2000
    2.2797    0.4697    7.7363 Br  0  0  0  0  0  0  0  0  0  0  0  0
    4.3642    0.8311    8.5275 Cu  0  0  1  0  0  0  0  0  0  0  0  0
    5.1981    2.9684    9.1133 S   0  0  0  0  0  0  0  0  0  0  0  0
    7.9217    3.7519    9.9289 S   0  0  0  0  0  0  0  0  0  0  0  0
    8.0859    0.3434    6.0344 S   0  0  0  0  0  0  0  0  0  0  0  0
    5.3442   -0.4621   10.1459 P   0  0  0  0  0  4  0  0  0  0  0  0
    7.5013    2.2112    7.8952 N   0  0  1  0  0  0  0  0  0  0  0  0
    5.7324    0.9580    6.9725 N   0  0  1  0  0  0  0  0  0  0  0  0
    6.9616    1.2694    7.0731 C   0  0  2  0  0  3  0  0  0  0  0  0
    5.4494   -0.1110    6.0577 C   0  0  0  0  0  0  0  0  0  0  0  0
    4.5643    0.1527    5.4732 H   0  0  0  0  0  0  0  0  0  0  0  0
    5.2023   -1.0052    6.6458 H   0  0  0  0  0  0  0  0  0  0  0  0
    6.6637   -0.3664    5.1538 C   0  0  0  0  0  0  0  0  0  0  0  0
    6.5798    0.1471    4.1956 H   0  0  0  0  0  0  0  0  0  0  0  0
    6.8436   -1.4250    4.9850 H   0  0  0  0  0  0  0  0  0  0  0  0
    6.8189    2.8817    8.8795 C   0  0  2  0  0  3  0  0  0  0  0  0
    9.2845    3.6023    8.7282 C   0  0  0  0  0  0  0  0  0  0  0  0
    9.2985    4.5121    8.1276 H   0  0  0  0  0  0  0  0  0  0  0  0
   10.2235    3.5011    9.2649 H   0  0  0  0  0  0  0  0  0  0  0  0
    8.9500    2.3717    7.9064 C   0  0  0  0  0  0  0  0  0  0  0  0
    9.3061    2.4779    6.8780 H   0  0  0  0  0  0  0  0  0  0  0  0
    9.4023    1.4720    8.3419 H   0  0  0  0  0  0  0  0  0  0  0  0
    5.1401   -2.2661    9.9826 C   0  0  0  0  0  0  0  0  0  0  0  0
    3.9564   -2.6890    9.3816 C   0  0  0  0  0  0  0  0  0  0  0  0
    3.2447   -1.9581    9.0193 H   0  0  0  0  0  0  0  0  0  0  0  0
    3.6914   -4.0394    9.2472 C   0  0  0  0  0  0  0  0  0  0  0  0
    2.7724   -4.3594    8.7803 H   0  0  0  0  0  0  0  0  0  0  0  0
    4.6060   -4.9723    9.7078 C   0  0  0  0  0  0  0  0  0  0  0  0
    4.4026   -6.0276    9.6017 H   0  0  0  0  0  0  0  0  0  0  0  0
    5.7844   -4.5536   10.3051 C   0  0  0  0  0  0  0  0  0  0  0  0
    6.4966   -5.2818   10.6658 H   0  0  0  0  0  0  0  0  0  0  0  0
    6.0557   -3.2050   10.4468 C   0  0  0  0  0  0  0  0  0  0  0  0
    6.9789   -2.8866   10.9113 H   0  0  0  0  0  0  0  0  0  0  0  0
    4.5893   -0.1910   11.7804 C   0  0  0  0  0  0  0  0  0  0  0  0
    3.5320    0.7065   11.8732 C   0  0  0  0  0  0  0  0  0  0  0  0
    3.2004    1.2377   10.9895 H   0  0  0  0  0  0  0  0  0  0  0  0
    2.9089    0.9170   13.0906 C   0  0  0  0  0  0  0  0  0  0  0  0
    2.0869    1.6132   13.1598 H   0  0  0  0  0  0  0  0  0  0  0  0
    3.3396    0.2310   14.2132 C   0  0  0  0  0  0  0  0  0  0  0  0
    2.8535    0.3928   15.1639 H   0  0  0  0  0  0  0  0  0  0  0  0
    4.3918   -0.6684   14.1214 C   0  0  0  0  0  0  0  0  0  0  0  0
    4.7226   -1.2048   14.9989 H   0  0  0  0  0  0  0  0  0  0  0  0
    5.0164   -0.8855   12.9088 C   0  0  0  0  0  0  0  0  0  0  0  0
    5.8332   -1.5901   12.8321 H   0  0  0  0  0  0  0  0  0  0  0  0
    7.1204   -0.2496   10.4597 C   0  0  0  0  0  0  0  0  0  0  0  0
    8.0286   -0.8292    9.5735 C   0  0  0  0  0  0  0  0  0  0  0  0
    7.6649   -1.4711    8.7808 H   0  0  0  0  0  0  0  0  0  0  0  0
    9.3839   -0.5985    9.7161 C   0  0  0  0  0  0  0  0  0  0  0  0
   10.0830   -1.0662    9.0372 H   0  0  0  0  0  0  0  0  0  0  0  0
    9.8431    0.2330   10.7284 C   0  0  0  0  0  0  0  0  0  0  0  0
   10.9028    0.4097   10.8413 H   0  0  0  0  0  0  0  0  0  0  0  0
    8.9416    0.8441   11.5847 C   0  0  0  0  0  0  0  0  0  0  0  0
    9.2953    1.5074   12.3600 H   0  0  0  0  0  0  0  0  0  0  0  0
    7.5845    0.6121   11.4495 C   0  0  0  0  0  0  0  0  0  0  0  0
    6.8807    1.0967   12.1120 H   0  0  0  0  0  0  0  0  0  0  0  0
  2  1  1  6  0  0  0
  2  3  1  0  0  0  0
  2  6  1  0  0  0  0
  6 45  1  0  0  0  0
  6 34  1  0  0  0  0
  7 20  1  1  0  0  0
  7 16  1  0  0  0  0
  8 10  1  1  0  0  0
  8  9  1  0  0  0  0
  8  2  1  0  0  0  0
  9  5  1  1  0  0  0
  9  7  1  0  0  0  0
 10 12  1  0  0  0  0
 11 10  1  0  0  0  0
 13  5  1  0  0  0  0
 13 10  1  0  0  0  0
 14 13  1  0  0  0  0
 15 13  1  0  0  0  0
 16  3  1  6  0  0  0
 16  4  1  0  0  0  0
 17 19  1  0  0  0  0
 17  4  1  0  0  0  0
 18 17  1  0  0  0  0
 20 22  1  0  0  0  0
 20 17  1  0  0  0  0
 21 20  1  0  0  0  0
 23  6  1  0  0  0  0
 23 32  1  0  0  0  0
 24 23  2  0  0  0  0
 25 24  1  0  0  0  0
 26 24  1  0  0  0  0
 26 28  2  0  0  0  0
 27 26  1  0  0  0  0
 28 30  1  0  0  0  0
 29 28  1  0  0  0  0
 30 32  2  0  0  0  0
 30 31  1  0  0  0  0
 32 33  1  0  0  0  0
 34 35  2  0  0  0  0
 34 43  1  0  0  0  0
 35 37  1  0  0  0  0
 36 35  1  0  0  0  0
 37 38  1  0  0  0  0
 37 39  2  0  0  0  0
 39 40  1  0  0  0  0
 41 39  1  0  0  0  0
 41 42  1  0  0  0  0
 43 41  2  0  0  0  0
 44 43  1  0  0  0  0
 45 54  1  0  0  0  0
 46 48  1  0  0  0  0
 46 45  2  0  0  0  0
 47 46  1  0  0  0  0
 48 50  2  0  0  0  0
 49 48  1  0  0  0  0
 50 51  1  0  0  0  0
 50 52  1  0  0  0  0
 52 53  1  0  0  0  0
 54 52  2  0  0  0  0
 54 55  1  0  0  0  0
M  END
$$$$
