CSD_code = JABXIU | q = -1 | S = 0 | Stoichiometry = C5H10Cl4IrN2OS(1-) | MND = 6
 OpenBabel04212202053D

 24 24  0  0  0  0  0  0  0  0999 V2000
   13.2369    9.2920    1.5895 Ir  0  0  0  0  0  0  0  0  0  0  0  0
   13.8530    9.6661   -0.6283 Cl  0  0  0  0  0  0  0  0  0  0  0  0
   11.6804    7.6848    0.8886 Cl  0  0  0  0  0  0  0  0  0  0  0  0
   12.6444    8.8953    3.8467 Cl  0  0  0  0  0  0  0  0  0  0  0  0
   14.8127   10.8993    2.2686 Cl  0  0  0  0  0  0  0  0  0  0  0  0
   14.7710    7.6332    1.9319 S   0  0  0  0  0  0  0  0  0  0  0  0
   15.6740    7.2049    0.8780 O   0  0  0  0  0  1  0  0  0  0  0  0
   11.8728   10.7447    1.3856 N   0  0  0  0  0  0  0  0  0  0  0  0
   10.9676   12.6397    0.8055 N   0  0  0  0  0  0  0  0  0  0  0  0
   15.8230    7.9795    3.3783 C   0  0  0  0  0  0  0  0  0  0  0  0
   13.9944    6.1150    2.5717 C   0  0  0  0  0  0  0  0  0  0  0  0
   12.0848   11.8925    0.7783 C   0  0  0  0  0  3  0  0  0  0  0  0
   10.0051   11.9263    1.4624 C   0  0  0  0  0  0  0  0  0  0  0  0
   10.5809   10.7460    1.8197 C   0  0  0  0  0  0  0  0  0  0  0  0
   16.4755    7.1279    3.5337 H   0  0  0  0  0  0  0  0  0  0  0  0
   16.3971    8.8724    3.1547 H   0  0  0  0  0  0  0  0  0  0  0  0
   15.1708    8.1600    4.2247 H   0  0  0  0  0  0  0  0  0  0  0  0
   14.7796    5.4042    2.8025 H   0  0  0  0  0  0  0  0  0  0  0  0
   13.4121    6.3866    3.4443 H   0  0  0  0  0  0  0  0  0  0  0  0
   13.3410    5.7340    1.7942 H   0  0  0  0  0  0  0  0  0  0  0  0
   13.0127   12.1772    0.3220 H   0  0  0  0  0  0  0  0  0  0  0  0
    9.0159   12.3035    1.6191 H   0  0  0  0  0  0  0  0  0  0  0  0
   10.1731    9.9057    2.3458 H   0  0  0  0  0  0  0  0  0  0  0  0
   10.8638   13.5578    0.4067 H   0  0  0  0  0  0  0  0  0  0  0  0
  1  6  1  0  0  0  0
  1  5  1  0  0  0  0
  1  4  1  0  0  0  0
  2  1  1  0  0  0  0
  3  1  1  0  0  0  0
  6 11  1  0  0  0  0
  6 10  1  0  0  0  0
  7  6  1  0  0  0  0
  8  1  1  0  0  0  0
  8 14  1  0  0  0  0
  9 13  1  0  0  0  0
 10 15  1  0  0  0  0
 10 17  1  0  0  0  0
 11 18  1  0  0  0  0
 11 19  1  0  0  0  0
 12  9  1  0  0  0  0
 12  8  1  0  0  0  0
 13 22  1  0  0  0  0
 13 14  2  0  0  0  0
 14 23  1  0  0  0  0
 16 10  1  0  0  0  0
 20 11  1  0  0  0  0
 21 12  1  0  0  0  0
 24  9  1  0  0  0  0
M  END
$$$$
