CSD_code = JABYAN | q = 0 | S = 0 | Stoichiometry = C20H18Cl2O4Ti | MND = 6
 OpenBabel04212202053D

 45 48  0  0  1  0  0  0  0  0999 V2000
    0.2428    1.8393    5.9094 Ti  0  0  0  0  0  0  0  0  0  0  0  0
    0.8817    3.4277    7.3393 Cl  0  0  0  0  0  0  0  0  0  0  0  0
   -0.2820    3.2802    4.2895 Cl  0  0  0  0  0  0  0  0  0  0  0  0
   -3.8859    2.1188    9.2091 C   0  0  0  0  0  0  0  0  0  0  0  0
   -3.6438    1.2441    9.7932 H   0  0  0  0  0  0  0  0  0  0  0  0
   -5.0346    2.8357    9.4877 C   0  0  0  0  0  0  0  0  0  0  0  0
   -5.6747    2.5280   10.3014 H   0  0  0  0  0  0  0  0  0  0  0  0
   -5.3686    3.9452    8.7266 C   0  0  0  0  0  0  0  0  0  0  0  0
   -6.2649    4.5033    8.9533 H   0  0  0  0  0  0  0  0  0  0  0  0
   -4.5556    4.3350    7.6738 C   0  0  0  0  0  0  0  0  0  0  0  0
   -4.8151    5.1983    7.0801 H   0  0  0  0  0  0  0  0  0  0  0  0
   -3.4120    3.6173    7.3819 C   0  0  0  0  0  0  0  0  0  0  0  0
   -2.7604    3.9097    6.5672 H   0  0  0  0  0  0  0  0  0  0  0  0
   -3.0629    2.5066    8.1534 C   0  0  0  0  0  0  0  0  0  0  0  0
    0.6574    0.5001    7.2635 O   0  0  0  0  0  0  0  0  0  0  0  0
   -1.4502    1.8740    6.5721 O   0  0  0  0  0  0  0  0  0  0  0  0
   -0.2789    0.3751    4.7325 O   0  0  0  0  0  0  0  0  0  0  0  0
    1.9296    1.6619    5.2543 O   0  0  0  0  0  0  0  0  0  0  0  0
    4.0057    3.1466    4.2433 C   0  0  0  0  0  0  0  0  0  0  0  0
    3.3846    3.5793    5.0184 H   0  0  0  0  0  0  0  0  0  0  0  0
    5.1948    3.7403    3.8672 C   0  0  0  0  0  0  0  0  0  0  0  0
    5.5212    4.6465    4.3546 H   0  0  0  0  0  0  0  0  0  0  0  0
    5.9673    3.1717    2.8666 C   0  0  0  0  0  0  0  0  0  0  0  0
    6.8990    3.6331    2.5744 H   0  0  0  0  0  0  0  0  0  0  0  0
    5.5473    2.0074    2.2423 C   0  0  0  0  0  0  0  0  0  0  0  0
    6.1556    1.5609    1.4696 H   0  0  0  0  0  0  0  0  0  0  0  0
    4.3531    1.4130    2.6052 C   0  0  0  0  0  0  0  0  0  0  0  0
    4.0434    0.4955    2.1287 H   0  0  0  0  0  0  0  0  0  0  0  0
    3.5704    1.9808    3.6089 C   0  0  0  0  0  0  0  0  0  0  0  0
    0.1429    0.4786    8.4174 C   0  0  0  0  0  0  0  0  0  0  0  0
   -1.0639    1.1134    8.7493 C   0  0  0  0  0  0  0  0  0  0  0  0
   -1.4020    1.0806    9.7715 H   0  0  0  0  0  0  0  0  0  0  0  0
   -1.8161    1.8014    7.7942 C   0  0  1  0  0  3  0  0  0  0  0  0
    0.2247    0.1735    3.5912 C   0  0  0  0  0  0  0  0  0  0  0  0
    1.4718    0.6730    3.1855 C   0  0  0  0  0  0  0  0  0  0  0  0
    1.7986    0.4909    2.1754 H   0  0  0  0  0  0  0  0  0  0  0  0
    2.2793    1.4158    4.0501 C   0  0  2  0  0  3  0  0  0  0  0  0
    0.8833   -0.2655    9.4990 C   0  0  0  0  0  0  0  0  0  0  0  0
    1.6261   -0.9211    9.0508 H   0  0  0  0  0  0  0  0  0  0  0  0
    0.2020   -0.8366   10.1233 H   0  0  0  0  0  0  0  0  0  0  0  0
    1.3959    0.4641   10.1250 H   0  0  0  0  0  0  0  0  0  0  0  0
   -0.5756   -0.6429    2.6089 C   0  0  0  0  0  0  0  0  0  0  0  0
   -1.3619   -1.1805    3.1335 H   0  0  0  0  0  0  0  0  0  0  0  0
    0.0577   -1.3365    2.0630 H   0  0  0  0  0  0  0  0  0  0  0  0
   -1.0368    0.0386    1.8950 H   0  0  0  0  0  0  0  0  0  0  0  0
  1 16  1  0  0  0  0
  1 15  1  0  0  0  0
  1  2  1  0  0  0  0
  3  1  1  0  0  0  0
  4  6  1  0  0  0  0
  4  5  1  0  0  0  0
  6  7  1  0  0  0  0
  8  9  1  0  0  0  0
  8  6  2  0  0  0  0
 10  8  1  0  0  0  0
 11 10  1  0  0  0  0
 12 10  2  0  0  0  0
 12 14  1  0  0  0  0
 13 12  1  0  0  0  0
 14  4  2  0  0  0  0
 15 30  1  0  0  0  0
 16 33  1  0  0  0  0
 17  1  1  0  0  0  0
 18  1  1  0  0  0  0
 19 20  1  0  0  0  0
 21 19  1  0  0  0  0
 21 22  1  0  0  0  0
 23 21  2  0  0  0  0
 24 23  1  0  0  0  0
 25 27  2  0  0  0  0
 25 23  1  0  0  0  0
 26 25  1  0  0  0  0
 27 29  1  0  0  0  0
 28 27  1  0  0  0  0
 29 19  2  0  0  0  0
 30 31  2  0  0  0  0
 30 38  1  0  0  0  0
 31 32  1  0  0  0  0
 33 14  1  1  0  0  0
 33 31  1  0  0  0  0
 34 17  1  0  0  0  0
 35 34  2  0  0  0  0
 35 37  1  0  0  0  0
 36 35  1  0  0  0  0
 37 29  1  6  0  0  0
 37 18  1  0  0  0  0
 38 40  1  0  0  0  0
 38 41  1  0  0  0  0
 39 38  1  0  0  0  0
 42 43  1  0  0  0  0
 42 34  1  0  0  0  0
 44 42  1  0  0  0  0
 45 42  1  0  0  0  0
M  END
$$$$
