CSD_code = JACCEY | q = 0 | S = 0 | Stoichiometry = C27H27Cl2NP2Pd | MND = 4
 OpenBabel04212202053D

 60 64  0  0  0  0  0  0  0  0999 V2000
    0.3494   11.4152    2.5896 Pd  0  0  0  0  0  0  0  0  0  0  0  0
    1.6095   12.1024    4.3229 Cl  0  0  0  0  0  0  0  0  0  0  0  0
    1.9149   11.9791    1.0658 Cl  0  0  0  0  0  0  0  0  0  0  0  0
   -1.4321   10.7771    3.8138 P   0  0  0  0  0  4  0  0  0  0  0  0
   -1.2390   10.8139    1.1047 P   0  0  0  0  0  4  0  0  0  0  0  0
   -2.3517   10.4855    2.3776 N   0  0  0  0  0  0  0  0  0  0  0  0
   -1.4919    9.2478    4.7806 C   0  0  0  0  0  0  0  0  0  0  0  0
   -1.3931    8.0307    4.1101 C   0  0  0  0  0  0  0  0  0  0  0  0
   -1.3719    8.0246    3.0274 H   0  0  0  0  0  0  0  0  0  0  0  0
   -1.3005    6.8512    4.8228 C   0  0  0  0  0  0  0  0  0  0  0  0
   -1.2328    5.9081    4.3006 H   0  0  0  0  0  0  0  0  0  0  0  0
   -1.2749    6.8808    6.2090 C   0  0  0  0  0  0  0  0  0  0  0  0
   -1.1996    5.9591    6.7663 H   0  0  0  0  0  0  0  0  0  0  0  0
   -1.3157    8.0931    6.8785 C   0  0  0  0  0  0  0  0  0  0  0  0
   -1.2612    8.1167    7.9568 H   0  0  0  0  0  0  0  0  0  0  0  0
   -1.4123    9.2776    6.1703 C   0  0  0  0  0  0  0  0  0  0  0  0
   -1.4096   10.2262    6.6884 H   0  0  0  0  0  0  0  0  0  0  0  0
   -2.2735   12.0698    4.7771 C   0  0  0  0  0  0  0  0  0  0  0  0
   -3.2992   11.8585    5.6936 C   0  0  0  0  0  0  0  0  0  0  0  0
   -3.6552   10.8578    5.8960 H   0  0  0  0  0  0  0  0  0  0  0  0
   -3.8620   12.9363    6.3534 C   0  0  0  0  0  0  0  0  0  0  0  0
   -4.6564   12.7716    7.0666 H   0  0  0  0  0  0  0  0  0  0  0  0
   -3.4079   14.2224    6.1056 C   0  0  0  0  0  0  0  0  0  0  0  0
   -3.8510   15.0574    6.6275 H   0  0  0  0  0  0  0  0  0  0  0  0
   -2.3797   14.4361    5.2015 C   0  0  0  0  0  0  0  0  0  0  0  0
   -2.0156   15.4360    5.0214 H   0  0  0  0  0  0  0  0  0  0  0  0
   -1.8108   13.3623    4.5419 C   0  0  0  0  0  0  0  0  0  0  0  0
   -0.9728   13.5066    3.8567 H   0  0  0  0  0  0  0  0  0  0  0  0
   -1.8827   12.2789    0.2327 C   0  0  0  0  0  0  0  0  0  0  0  0
   -1.3762   13.5112    0.6396 C   0  0  0  0  0  0  0  0  0  0  0  0
   -0.5862   13.5406    1.3989 H   0  0  0  0  0  0  0  0  0  0  0  0
   -1.8386   14.6763    0.0559 C   0  0  0  0  0  0  0  0  0  0  0  0
   -1.4404   15.6308    0.3652 H   0  0  0  0  0  0  0  0  0  0  0  0
   -2.8042   14.6142   -0.9368 C   0  0  0  0  0  0  0  0  0  0  0  0
   -3.1638   15.5227   -1.3964 H   0  0  0  0  0  0  0  0  0  0  0  0
   -3.3006   13.3886   -1.3525 C   0  0  0  0  0  0  0  0  0  0  0  0
   -4.0446   13.3439   -2.1341 H   0  0  0  0  0  0  0  0  0  0  0  0
   -2.8415   12.2192   -0.7733 C   0  0  0  0  0  0  0  0  0  0  0  0
   -3.2187   11.2617   -1.1055 H   0  0  0  0  0  0  0  0  0  0  0  0
   -1.4104    9.4927   -0.1220 C   0  0  0  0  0  0  0  0  0  0  0  0
   -2.0689    8.2868    0.0834 C   0  0  0  0  0  0  0  0  0  0  0  0
   -2.5915    8.1041    1.0109 H   0  0  0  0  0  0  0  0  0  0  0  0
   -2.0567    7.3203   -0.9075 C   0  0  0  0  0  0  0  0  0  0  0  0
   -2.5778    6.3869   -0.7515 H   0  0  0  0  0  0  0  0  0  0  0  0
   -1.3739    7.5436   -2.0915 C   0  0  0  0  0  0  0  0  0  0  0  0
   -1.3651    6.7840   -2.8588 H   0  0  0  0  0  0  0  0  0  0  0  0
   -0.6899    8.7347   -2.2874 C   0  0  0  0  0  0  0  0  0  0  0  0
   -0.1425    8.9002   -3.2031 H   0  0  0  0  0  0  0  0  0  0  0  0
   -0.7022    9.7049   -1.3051 C   0  0  0  0  0  0  0  0  0  0  0  0
   -0.1583   10.6330   -1.4296 H   0  0  0  0  0  0  0  0  0  0  0  0
   -3.7980   10.3983    2.1807 C   0  0  0  0  0  0  0  0  0  0  0  0
   -3.9318   10.1021    1.1307 H   0  0  0  0  0  0  0  0  0  0  0  0
   -4.4107    9.3334    3.0836 C   0  0  0  0  0  0  0  0  0  0  0  0
   -3.9748    8.3559    2.8936 H   0  0  0  0  0  0  0  0  0  0  0  0
   -5.4827    9.2765    2.9114 H   0  0  0  0  0  0  0  0  0  0  0  0
   -4.2376    9.5855    4.1267 H   0  0  0  0  0  0  0  0  0  0  0  0
   -4.5006   11.7419    2.3816 C   0  0  0  0  0  0  0  0  0  0  0  0
   -3.9810   12.5274    1.8380 H   0  0  0  0  0  0  0  0  0  0  0  0
   -4.5290   12.0092    3.4339 H   0  0  0  0  0  0  0  0  0  0  0  0
   -5.5210   11.6800    2.0108 H   0  0  0  0  0  0  0  0  0  0  0  0
  1  4  1  0  0  0  0
  1  2  1  0  0  0  0
  3  1  1  0  0  0  0
  4 18  1  0  0  0  0
  4  7  1  0  0  0  0
  5  6  1  0  0  0  0
  5  1  1  0  0  0  0
  6  4  1  0  0  0  0
  7 16  1  0  0  0  0
  8  7  2  0  0  0  0
  8 10  1  0  0  0  0
  9  8  1  0  0  0  0
 10 12  2  0  0  0  0
 11 10  1  0  0  0  0
 12 13  1  0  0  0  0
 12 14  1  0  0  0  0
 14 15  1  0  0  0  0
 16 17  1  0  0  0  0
 16 14  2  0  0  0  0
 18 19  1  0  0  0  0
 19 20  1  0  0  0  0
 19 21  2  0  0  0  0
 21 22  1  0  0  0  0
 23 21  1  0  0  0  0
 23 24  1  0  0  0  0
 25 23  2  0  0  0  0
 26 25  1  0  0  0  0
 27 18  2  0  0  0  0
 27 25  1  0  0  0  0
 28 27  1  0  0  0  0
 29 30  1  0  0  0  0
 29  5  1  0  0  0  0
 30 31  1  0  0  0  0
 32 33  1  0  0  0  0
 32 30  2  0  0  0  0
 34 32  1  0  0  0  0
 35 34  1  0  0  0  0
 36 34  2  0  0  0  0
 36 38  1  0  0  0  0
 37 36  1  0  0  0  0
 38 29  2  0  0  0  0
 39 38  1  0  0  0  0
 40 41  1  0  0  0  0
 40  5  1  0  0  0  0
 41 42  1  0  0  0  0
 43 44  1  0  0  0  0
 43 41  2  0  0  0  0
 45 43  1  0  0  0  0
 46 45  1  0  0  0  0
 47 45  2  0  0  0  0
 47 49  1  0  0  0  0
 48 47  1  0  0  0  0
 49 40  2  0  0  0  0
 50 49  1  0  0  0  0
 51  6  1  0  0  0  0
 51 57  1  0  0  0  0
 51 53  1  0  0  0  0
 52 51  1  0  0  0  0
 53 56  1  0  0  0  0
 54 53  1  0  0  0  0
 55 53  1  0  0  0  0
 57 59  1  0  0  0  0
 58 57  1  0  0  0  0
 60 57  1  0  0  0  0
M  END
$$$$
