CSD_code = JADDUQ | q = 0 | S = 0 | Stoichiometry = C20H17ClHgN2O2 | MND = 3
 OpenBabel04212202053D

 43 46  0  0  0  0  0  0  0  0999 V2000
    0.6912    1.5912    3.9013 Hg  0  0  0  0  0  0  0  0  0  0  0  0
    2.7379    0.6418    4.6061 Cl  0  0  0  0  0  0  0  0  0  0  0  0
   -1.3412    0.5355    5.1233 N   0  0  0  0  0  0  0  0  0  0  0  0
   -5.6392   -0.1520    7.6961 N   0  0  0  0  0  0  0  0  0  0  0  0
   -4.5963    1.5371    8.7695 O   0  0  0  0  0  0  0  0  0  0  0  0
   -6.8934   -2.5872    8.3177 O   0  0  0  0  0  0  0  0  0  0  0  0
   -4.6150    0.7086    7.8811 C   0  0  0  0  0  0  0  0  0  0  0  0
   -1.1275    2.4952    3.0475 C   0  0  0  0  0  0  0  0  0  0  0  0
   -2.3458    2.1368    3.6495 C   0  0  0  0  0  0  0  0  0  0  0  0
   -3.5457    2.5503    3.0673 C   0  0  0  0  0  0  0  0  0  0  0  0
   -4.4887    2.2330    3.4866 H   0  0  0  0  0  0  0  0  0  0  0  0
   -3.5481    3.3349    1.9302 C   0  0  0  0  0  0  0  0  0  0  0  0
   -4.4857    3.6449    1.4931 H   0  0  0  0  0  0  0  0  0  0  0  0
   -2.3502    3.7163    1.3547 C   0  0  0  0  0  0  0  0  0  0  0  0
   -2.3435    4.3401    0.4732 H   0  0  0  0  0  0  0  0  0  0  0  0
   -1.1506    3.2843    1.9029 C   0  0  0  0  0  0  0  0  0  0  0  0
   -0.2253    3.5808    1.4251 H   0  0  0  0  0  0  0  0  0  0  0  0
   -2.3716    1.3234    4.8817 C   0  0  0  0  0  0  0  0  0  0  0  0
   -3.4683    1.3893    5.7727 C   0  0  0  0  0  0  0  0  0  0  0  0
   -4.2762    2.0798    5.5911 H   0  0  0  0  0  0  0  0  0  0  0  0
   -3.4882    0.5994    6.8919 C   0  0  0  0  0  0  0  0  0  0  0  0
   -2.3905   -0.2554    7.1582 C   0  0  0  0  0  0  0  0  0  0  0  0
   -2.3048   -1.0834    8.2943 C   0  0  0  0  0  0  0  0  0  0  0  0
   -3.1091   -1.0630    9.0153 H   0  0  0  0  0  0  0  0  0  0  0  0
   -1.2056   -1.8730    8.4909 C   0  0  0  0  0  0  0  0  0  0  0  0
   -1.1389   -2.5020    9.3660 H   0  0  0  0  0  0  0  0  0  0  0  0
   -0.1505   -1.8678    7.5642 C   0  0  0  0  0  0  0  0  0  0  0  0
    0.7100   -2.4953    7.7400 H   0  0  0  0  0  0  0  0  0  0  0  0
   -0.2008   -1.0707    6.4548 C   0  0  0  0  0  0  0  0  0  0  0  0
    0.6093   -1.0444    5.7385 H   0  0  0  0  0  0  0  0  0  0  0  0
   -1.3186   -0.2425    6.2256 C   0  0  0  0  0  0  0  0  0  0  0  0
   -6.7478   -0.1847    8.6296 C   0  0  0  0  0  0  0  0  0  0  0  0
   -7.6796    0.0022    8.0850 H   0  0  0  0  0  0  0  0  0  0  0  0
   -6.5894    0.5982    9.3722 H   0  0  0  0  0  0  0  0  0  0  0  0
   -6.8038   -1.5660    9.2875 C   0  0  0  0  0  0  0  0  0  0  0  0
   -5.9059   -1.7145    9.9067 H   0  0  0  0  0  0  0  0  0  0  0  0
   -7.6921   -1.6609    9.9129 H   0  0  0  0  0  0  0  0  0  0  0  0
   -5.7940   -2.5604    7.4406 C   0  0  0  0  0  0  0  0  0  0  0  0
   -5.9519   -3.3693    6.7259 H   0  0  0  0  0  0  0  0  0  0  0  0
   -4.8600   -2.7436    7.9948 H   0  0  0  0  0  0  0  0  0  0  0  0
   -5.6953   -1.2106    6.7149 C   0  0  0  0  0  0  0  0  0  0  0  0
   -4.8123   -1.1888    6.0763 H   0  0  0  0  0  0  0  0  0  0  0  0
   -6.5914   -1.0707    6.0980 H   0  0  0  0  0  0  0  0  0  0  0  0
  1  2  1  0  0  0  0
  3 31  1  0  0  0  0
  4  7  1  0  0  0  0
  4 32  1  0  0  0  0
  6 35  1  0  0  0  0
  7  5  2  0  0  0  0
  8  9  1  0  0  0  0
  8  1  1  0  0  0  0
  9 18  1  0  0  0  0
 10 11  1  0  0  0  0
 10  9  2  0  0  0  0
 12 10  1  0  0  0  0
 13 12  1  0  0  0  0
 14 16  1  0  0  0  0
 14 12  2  0  0  0  0
 15 14  1  0  0  0  0
 16  8  2  0  0  0  0
 17 16  1  0  0  0  0
 18  3  2  0  0  0  0
 18 19  1  0  0  0  0
 19 21  2  0  0  0  0
 20 19  1  0  0  0  0
 21 22  1  0  0  0  0
 21  7  1  0  0  0  0
 22 23  1  0  0  0  0
 23 25  2  0  0  0  0
 23 24  1  0  0  0  0
 25 26  1  0  0  0  0
 27 28  1  0  0  0  0
 27 25  1  0  0  0  0
 29 27  2  0  0  0  0
 30 29  1  0  0  0  0
 31 29  1  0  0  0  0
 31 22  2  0  0  0  0
 32 35  1  0  0  0  0
 32 34  1  0  0  0  0
 33 32  1  0  0  0  0
 35 36  1  0  0  0  0
 35 37  1  0  0  0  0
 38 40  1  0  0  0  0
 38  6  1  0  0  0  0
 39 38  1  0  0  0  0
 41 38  1  0  0  0  0
 41  4  1  0  0  0  0
 42 41  1  0  0  0  0
 43 41  1  0  0  0  0
M  END
$$$$
