CSD_code = JADHOO | q = 0 | S = 0 | Stoichiometry = C28H25ClN4OPd | MND = 4
 OpenBabel04212202053D

 60 65  0  0  1  0  0  0  0  0999 V2000
    7.7547   10.9799    7.6597 Pd  0  0  2  0  0  0  0  0  0  0  0  0
    6.7030   10.9644    5.5301 Cl  0  0  0  0  0  0  0  0  0  0  0  0
   10.8593   12.4801   11.8315 O   0  0  0  0  0  0  0  0  0  0  0  0
    9.7594   12.7635    6.4166 N   0  0  0  0  0  0  0  0  0  0  0  0
    8.0986   13.8829    7.2260 N   0  0  0  0  0  0  0  0  0  0  0  0
    6.8965    9.2737    8.2862 N   0  0  0  0  0  0  0  0  0  0  0  0
    5.8507    6.9616    9.3874 N   0  0  0  0  0  0  0  0  0  0  0  0
    8.6133   12.6404    7.1177 C   0  0  1  0  0  3  0  0  0  0  0  0
    9.9504   14.0808    6.0666 C   0  0  0  0  0  0  0  0  0  0  0  0
   10.7772   14.4057    5.4694 H   0  0  0  0  0  0  0  0  0  0  0  0
    8.9118   14.7808    6.5726 C   0  0  0  0  0  0  0  0  0  0  0  0
    8.6762   15.8218    6.4935 H   0  0  0  0  0  0  0  0  0  0  0  0
   10.2715   10.4066    6.0402 C   0  0  0  0  0  0  0  0  0  0  0  0
    9.2125   10.1710    5.9019 H   0  0  0  0  0  0  0  0  0  0  0  0
   11.2130    9.3976    5.9304 C   0  0  0  0  0  0  0  0  0  0  0  0
   10.8796    8.3836    5.7645 H   0  0  0  0  0  0  0  0  0  0  0  0
   12.5735    9.6647    6.0147 C   0  0  0  0  0  0  0  0  0  0  0  0
   12.9778   10.9806    6.2092 C   0  0  0  0  0  0  0  0  0  0  0  0
   14.0314   11.2096    6.2776 H   0  0  0  0  0  0  0  0  0  0  0  0
   12.0530   11.9992    6.3278 C   0  0  0  0  0  0  0  0  0  0  0  0
   12.3878   13.0104    6.5054 H   0  0  0  0  0  0  0  0  0  0  0  0
   10.6927   11.7195    6.2442 C   0  0  0  0  0  0  0  0  0  0  0  0
   13.5890    8.5695    5.9074 C   0  0  0  0  0  0  0  0  0  0  0  0
   14.3885    8.8523    5.2252 H   0  0  0  0  0  0  0  0  0  0  0  0
   13.1330    7.6489    5.5528 H   0  0  0  0  0  0  0  0  0  0  0  0
   14.0358    8.3776    6.8830 H   0  0  0  0  0  0  0  0  0  0  0  0
    6.9968   14.2123    8.0435 C   0  0  0  0  0  0  0  0  0  0  0  0
    7.0193   15.3941    8.7754 C   0  0  0  0  0  0  0  0  0  0  0  0
    7.8670   16.0593    8.7043 H   0  0  0  0  0  0  0  0  0  0  0  0
    5.9693   15.7089    9.6176 C   0  0  0  0  0  0  0  0  0  0  0  0
    6.0018   16.6301   10.1811 H   0  0  0  0  0  0  0  0  0  0  0  0
    4.8843   14.8539    9.7580 C   0  0  0  0  0  0  0  0  0  0  0  0
    4.8718   13.6750    9.0202 C   0  0  0  0  0  0  0  0  0  0  0  0
    4.0287   13.0052    9.1076 H   0  0  0  0  0  0  0  0  0  0  0  0
    5.9092   13.3472    8.1663 C   0  0  0  0  0  0  0  0  0  0  0  0
    5.8353   12.4459    7.5513 H   0  0  0  0  0  0  0  0  0  0  0  0
    3.7381   15.1987   10.6576 C   0  0  0  0  0  0  0  0  0  0  0  0
    4.0166   15.9749   11.3658 H   0  0  0  0  0  0  0  0  0  0  0  0
    3.4029   14.3216   11.2071 H   0  0  0  0  0  0  0  0  0  0  0  0
    2.8978   15.5621   10.0655 H   0  0  0  0  0  0  0  0  0  0  0  0
    6.0348    8.5212    7.6113 C   0  0  0  0  0  0  0  0  0  0  0  0
    5.7631    8.8547    6.6153 H   0  0  0  0  0  0  0  0  0  0  0  0
    5.5138    7.3623    8.1681 C   0  0  0  0  0  0  0  0  0  0  0  0
    4.8130    6.7398    7.6314 H   0  0  0  0  0  0  0  0  0  0  0  0
    6.7042    7.7108   10.0545 C   0  0  0  0  0  0  0  0  0  0  0  0
    6.9605    7.3629   11.0449 H   0  0  0  0  0  0  0  0  0  0  0  0
    7.2562    8.8885    9.5312 C   0  0  0  0  0  0  0  0  0  0  0  0
    8.1969    9.7669   10.2014 C   0  0  0  0  0  0  0  0  0  0  0  0
    8.6028   10.9076    9.4663 C   0  0  0  0  0  0  0  0  0  0  0  0
    9.4962   11.7735   10.0719 C   0  0  0  0  0  0  0  0  0  0  0  0
    9.8496   12.6656    9.5710 H   0  0  0  0  0  0  0  0  0  0  0  0
    9.9888   11.5445   11.3606 C   0  0  0  0  0  0  0  0  0  0  0  0
    9.5797   10.4159   12.0663 C   0  0  0  0  0  0  0  0  0  0  0  0
    9.9455   10.2140   13.0608 H   0  0  0  0  0  0  0  0  0  0  0  0
    8.6891    9.5372   11.4841 C   0  0  0  0  0  0  0  0  0  0  0  0
    8.3800    8.6652   12.0421 H   0  0  0  0  0  0  0  0  0  0  0  0
   11.3931   12.3174   13.1230 C   0  0  0  0  0  0  0  0  0  0  0  0
   11.9769   11.3946   13.2038 H   0  0  0  0  0  0  0  0  0  0  0  0
   10.6078   12.3186   13.8860 H   0  0  0  0  0  0  0  0  0  0  0  0
   12.0491   13.1720   13.2817 H   0  0  0  0  0  0  0  0  0  0  0  0
  1  2  1  6  0  0  0
  1  6  1  0  0  0  0
  1 49  2  0  0  0  0
  3 57  1  0  0  0  0
  5 27  1  0  0  0  0
  6 47  1  0  0  0  0
  7 45  2  0  0  0  0
  8  4  1  6  0  0  0
  8  5  1  0  0  0  0
  8  1  1  0  0  0  0
  9  4  1  0  0  0  0
  9 11  2  0  0  0  0
 10  9  1  0  0  0  0
 11  5  1  0  0  0  0
 12 11  1  0  0  0  0
 13 22  1  0  0  0  0
 14 13  1  0  0  0  0
 15 17  1  0  0  0  0
 15 13  2  0  0  0  0
 16 15  1  0  0  0  0
 17 18  2  0  0  0  0
 18 19  1  0  0  0  0
 18 20  1  0  0  0  0
 20 21  1  0  0  0  0
 22 20  2  0  0  0  0
 22  4  1  0  0  0  0
 23 17  1  0  0  0  0
 23 26  1  0  0  0  0
 24 23  1  0  0  0  0
 25 23  1  0  0  0  0
 27 35  2  0  0  0  0
 27 28  1  0  0  0  0
 28 30  2  0  0  0  0
 29 28  1  0  0  0  0
 30 32  1  0  0  0  0
 30 31  1  0  0  0  0
 32 37  1  0  0  0  0
 33 34  1  0  0  0  0
 33 32  2  0  0  0  0
 35 33  1  0  0  0  0
 36 35  1  0  0  0  0
 37 39  1  0  0  0  0
 37 38  1  0  0  0  0
 40 37  1  0  0  0  0
 41 43  2  0  0  0  0
 41  6  1  0  0  0  0
 42 41  1  0  0  0  0
 43  7  1  0  0  0  0
 44 43  1  0  0  0  0
 45 46  1  0  0  0  0
 47 45  1  0  0  0  0
 47 48  2  0  0  0  0
 48 55  1  0  0  0  0
 49 50  1  0  0  0  0
 49 48  1  0  0  0  0
 50 52  2  0  0  0  0
 51 50  1  0  0  0  0
 52  3  1  0  0  0  0
 52 53  1  0  0  0  0
 53 54  1  0  0  0  0
 55 56  1  0  0  0  0
 55 53  2  0  0  0  0
 57 58  1  0  0  0  0
 57 60  1  0  0  0  0
 57 59  1  0  0  0  0
M  END
$$$$
