CSD_code = JADTEQ | q = 0 | S = 0 | Stoichiometry = C16H14Cl2HgN4S | MND = 4
 OpenBabel04212202053D

 38 42  0  0  1  0  0  0  0  0999 V2000
   -0.2096    4.2317    3.1951 C   0  0  0  0  0  0  0  0  0  0  0  0
   -0.9761    3.2257    2.6181 C   0  0  0  0  0  0  0  0  0  0  0  0
   -0.9094    2.2074    2.9776 H   0  0  0  0  0  0  0  0  0  0  0  0
   -1.8130    3.5855    1.5840 C   0  0  0  0  0  0  0  0  0  0  0  0
   -2.4277    2.8340    1.1128 H   0  0  0  0  0  0  0  0  0  0  0  0
   -1.8900    4.9038    1.1256 C   0  0  0  0  0  0  0  0  0  0  0  0
   -2.5616    5.1362    0.3132 H   0  0  0  0  0  0  0  0  0  0  0  0
   -1.1321    5.9136    1.6832 C   0  0  0  0  0  0  0  0  0  0  0  0
   -1.1928    6.9306    1.3278 H   0  0  0  0  0  0  0  0  0  0  0  0
   -0.2899    5.5586    2.7252 C   0  0  0  0  0  0  0  0  0  0  0  0
    1.1513    5.4004    4.3826 C   0  0  1  0  0  3  0  0  0  0  0  0
    2.1460    5.8131    5.3930 C   0  0  0  0  0  0  0  0  0  0  0  0
    2.8948    6.4813    4.9677 H   0  0  0  0  0  0  0  0  0  0  0  0
    2.6254    4.9381    5.8320 H   0  0  0  0  0  0  0  0  0  0  0  0
    0.3934    5.4950    7.5998 C   0  0  0  0  0  0  0  0  0  0  0  0
   -0.1769    6.0347    8.3546 H   0  0  0  0  0  0  0  0  0  0  0  0
   -0.2841    5.0242    6.8865 H   0  0  0  0  0  0  0  0  0  0  0  0
    1.2986    4.5021    8.2091 C   0  0  1  0  0  3  0  0  0  0  0  0
    2.5732    2.7887    8.5112 C   0  0  0  0  0  0  0  0  0  0  0  0
    3.2792    1.5951    8.4072 C   0  0  0  0  0  0  0  0  0  0  0  0
    3.1764    0.9693    7.5339 H   0  0  0  0  0  0  0  0  0  0  0  0
    4.1022    1.2585    9.4609 C   0  0  0  0  0  0  0  0  0  0  0  0
    4.6647    0.3385    9.4191 H   0  0  0  0  0  0  0  0  0  0  0  0
    4.2299    2.0759   10.5874 C   0  0  0  0  0  0  0  0  0  0  0  0
    4.8862    1.7674   11.3869 H   0  0  0  0  0  0  0  0  0  0  0  0
    3.5392    3.2654   10.7041 C   0  0  0  0  0  0  0  0  0  0  0  0
    3.6382    3.8965   11.5736 H   0  0  0  0  0  0  0  0  0  0  0  0
    2.7097    3.6108    9.6488 C   0  0  0  0  0  0  0  0  0  0  0  0
    0.6967    4.1795    4.2317 N   0  0  0  0  0  0  0  0  0  0  0  0
    1.6899    3.3856    7.6361 N   0  0  0  0  0  0  0  0  0  0  0  0
    0.5924    6.2698    3.5027 N   0  0  0  0  0  0  0  0  0  0  0  0
    0.7685    7.2607    3.4614 H   0  0  0  0  0  0  0  0  0  0  0  0
    1.8898    4.6889    9.4159 N   0  0  0  0  0  0  0  0  0  0  0  0
    1.7448    5.4760   10.0273 H   0  0  0  0  0  0  0  0  0  0  0  0
    1.3677    6.7871    6.7377 S   0  0  0  0  0  0  0  0  0  0  0  0
   -1.5496    2.8588    6.4051 Cl  0  0  0  0  0  0  0  0  0  0  0  0
    1.8571    0.6163    4.9926 Cl  0  0  0  0  0  0  0  0  0  0  0  0
    0.5935    2.3230    5.7673 Hg  0  0  0  0  0  0  0  0  0  0  0  0
  1 29  1  0  0  0  0
  2  3  1  0  0  0  0
  2  1  2  0  0  0  0
  4  2  1  0  0  0  0
  5  4  1  0  0  0  0
  6  4  2  0  0  0  0
  6  8  1  0  0  0  0
  7  6  1  0  0  0  0
  8 10  2  0  0  0  0
  9  8  1  0  0  0  0
 10  1  1  0  0  0  0
 10 31  1  0  0  0  0
 11 31  1  1  0  0  0
 11 12  1  0  0  0  0
 12 14  1  0  0  0  0
 12 35  1  0  0  0  0
 13 12  1  0  0  0  0
 15 16  1  0  0  0  0
 17 15  1  0  0  0  0
 18 15  1  6  0  0  0
 18 33  1  0  0  0  0
 19 28  1  0  0  0  0
 20 19  2  0  0  0  0
 20 22  1  0  0  0  0
 21 20  1  0  0  0  0
 22 24  2  0  0  0  0
 23 22  1  0  0  0  0
 24 26  1  0  0  0  0
 24 25  1  0  0  0  0
 26 27  1  0  0  0  0
 28 26  2  0  0  0  0
 29 11  1  0  0  0  0
 29 38  1  0  0  0  0
 30 18  1  0  0  0  0
 30 19  1  0  0  0  0
 32 31  1  0  0  0  0
 33 28  1  0  0  0  0
 33 34  1  0  0  0  0
 35 15  1  0  0  0  0
 37 38  1  0  0  0  0
 38 36  1  0  0  0  0
 38 30  1  0  0  0  0
M  END
$$$$
