CSD_code = JAFNOW | q = 0 | S = 0 | Stoichiometry = C23H19ClN2Pt | MND = 6
 OpenBabel04212202053D

 46 51  0  0  1  0  0  0  0  0999 V2000
    9.6528    2.3871    2.1087 Pt  0  0  0  0  0  0  0  0  0  0  0  0
    9.4347    4.6700    2.9283 Cl  0  0  0  0  0  0  0  0  0  0  0  0
   10.9192    3.3353    0.6086 N   0  0  0  0  0  0  0  0  0  0  0  0
    7.8597    2.5280    0.9197 N   0  0  0  0  0  0  0  0  0  0  0  0
   11.4226    2.2721    3.0564 C   0  0  0  0  0  0  0  0  0  0  0  0
   11.7308    1.6257    4.2462 C   0  0  0  0  0  0  0  0  0  0  0  0
   10.9726    1.0652    4.7729 H   0  0  0  0  0  0  0  0  0  0  0  0
   13.0079    1.6855    4.7809 C   0  0  0  0  0  0  0  0  0  0  0  0
   13.2244    1.1775    5.7097 H   0  0  0  0  0  0  0  0  0  0  0  0
   14.0069    2.3909    4.1294 C   0  0  0  0  0  0  0  0  0  0  0  0
   15.0033    2.4323    4.5443 H   0  0  0  0  0  0  0  0  0  0  0  0
   13.7243    3.0429    2.9472 C   0  0  0  0  0  0  0  0  0  0  0  0
   14.5116    3.5800    2.4395 H   0  0  0  0  0  0  0  0  0  0  0  0
   12.4391    2.9968    2.4028 C   0  0  0  0  0  0  0  0  0  0  0  0
   12.0953    3.6817    1.1577 C   0  0  2  0  0  3  0  0  0  0  0  0
   12.8932    4.6563    0.5526 C   0  0  0  0  0  0  0  0  0  0  0  0
   13.8187    4.9604    1.0135 H   0  0  0  0  0  0  0  0  0  0  0  0
   12.4736    5.2546   -0.6179 C   0  0  0  0  0  0  0  0  0  0  0  0
   13.0750    6.0186   -1.0882 H   0  0  0  0  0  0  0  0  0  0  0  0
   11.2639    4.8663   -1.1770 C   0  0  0  0  0  0  0  0  0  0  0  0
   10.9000    5.3064   -2.0917 H   0  0  0  0  0  0  0  0  0  0  0  0
   10.5204    3.9055   -0.5180 C   0  0  0  0  0  0  0  0  0  0  0  0
    9.5672    3.5794   -0.9172 H   0  0  0  0  0  0  0  0  0  0  0  0
    9.6959    0.5800    1.2096 C   0  0  0  0  0  0  0  0  0  0  0  0
   10.6611   -0.4069    1.3452 C   0  0  0  0  0  0  0  0  0  0  0  0
   11.4675   -0.2784    2.0539 H   0  0  0  0  0  0  0  0  0  0  0  0
   10.6077   -1.5653    0.5853 C   0  0  0  0  0  0  0  0  0  0  0  0
   11.3693   -2.3222    0.7046 H   0  0  0  0  0  0  0  0  0  0  0  0
    9.5820   -1.7534   -0.3269 C   0  0  0  0  0  0  0  0  0  0  0  0
    9.5424   -2.6535   -0.9226 H   0  0  0  0  0  0  0  0  0  0  0  0
    8.6071   -0.7878   -0.4738 C   0  0  0  0  0  0  0  0  0  0  0  0
    7.8154   -0.9463   -1.1907 H   0  0  0  0  0  0  0  0  0  0  0  0
    8.6482    0.3814    0.2886 C   0  0  0  0  0  0  0  0  0  0  0  0
    7.6359    1.4333    0.1737 C   0  0  1  0  0  3  0  0  0  0  0  0
    6.4958    1.3627   -0.6302 C   0  0  0  0  0  0  0  0  0  0  0  0
    6.3011    0.4861   -1.2261 H   0  0  0  0  0  0  0  0  0  0  0  0
    5.6091    2.4228   -0.6524 C   0  0  0  0  0  0  0  0  0  0  0  0
    4.7229    2.3772   -1.2684 H   0  0  0  0  0  0  0  0  0  0  0  0
    5.8688    3.5418    0.1262 C   0  0  0  0  0  0  0  0  0  0  0  0
    5.2002    4.3872    0.1352 H   0  0  0  0  0  0  0  0  0  0  0  0
    7.0138    3.5455    0.9037 C   0  0  0  0  0  0  0  0  0  0  0  0
    7.2755    4.3855    1.5368 H   0  0  0  0  0  0  0  0  0  0  0  0
    8.5318    1.6101    3.6628 C   0  0  0  0  0  0  0  0  0  0  0  0
    8.7661    0.5699    3.8955 H   0  0  0  0  0  0  0  0  0  0  0  0
    7.4691    1.6706    3.4123 H   0  0  0  0  0  0  0  0  0  0  0  0
    8.7035    2.2214    4.5507 H   0  0  0  0  0  0  0  0  0  0  0  0
  1  2  1  0  0  0  0
  1  5  1  0  0  0  0
  1 43  1  0  0  0  0
  3 15  1  0  0  0  0
  3  1  1  0  0  0  0
  4  1  1  0  0  0  0
  5  6  1  0  0  0  0
  6  7  1  0  0  0  0
  6  8  2  0  0  0  0
  8  9  1  0  0  0  0
 10 11  1  0  0  0  0
 10  8  1  0  0  0  0
 12 10  2  0  0  0  0
 13 12  1  0  0  0  0
 14 12  1  0  0  0  0
 14  5  2  0  0  0  0
 15 16  1  1  0  0  0
 15 14  1  0  0  0  0
 16 17  1  0  0  0  0
 18 16  2  0  0  0  0
 19 18  1  0  0  0  0
 20 18  1  0  0  0  0
 20 22  2  0  0  0  0
 21 20  1  0  0  0  0
 22  3  1  0  0  0  0
 23 22  1  0  0  0  0
 24 25  1  0  0  0  0
 24  1  1  0  0  0  0
 25 26  1  0  0  0  0
 27 28  1  0  0  0  0
 27 25  2  0  0  0  0
 29 27  1  0  0  0  0
 30 29  1  0  0  0  0
 31 29  2  0  0  0  0
 31 33  1  0  0  0  0
 32 31  1  0  0  0  0
 33 24  2  0  0  0  0
 34 35  1  1  0  0  0
 34 33  1  0  0  0  0
 34  4  1  0  0  0  0
 36 35  1  0  0  0  0
 37 35  2  0  0  0  0
 37 39  1  0  0  0  0
 38 37  1  0  0  0  0
 39 40  1  0  0  0  0
 39 41  2  0  0  0  0
 41  4  1  0  0  0  0
 41 42  1  0  0  0  0
 43 44  1  0  0  0  0
 43 46  1  0  0  0  0
 45 43  1  0  0  0  0
M  END
$$$$
