CSD_code = JAFNIQ | q = 0 | S = 0 | Stoichiometry = C25H23ClN2O2Pt | MND = 6
 OpenBabel04212202053D

 54 59  0  0  1  0  0  0  0  0999 V2000
    0.2541    2.2846    3.2489 Pt  0  0  0  0  0  0  0  0  0  0  0  0
    1.3171    0.0999    3.1931 Cl  0  0  0  0  0  0  0  0  0  0  0  0
   -0.6691    1.8997    5.0598 C   0  0  0  0  0  0  0  0  0  0  0  0
   -1.5888    2.4671    5.2140 H   0  0  0  0  0  0  0  0  0  0  0  0
    0.0165    2.1403    5.8768 H   0  0  0  0  0  0  0  0  0  0  0  0
   -0.8929    0.8328    5.1148 H   0  0  0  0  0  0  0  0  0  0  0  0
    1.1912    2.5199    1.2970 N   0  0  0  0  0  0  0  0  0  0  0  0
    1.8938    3.1932    4.3033 N   0  0  0  0  0  0  0  0  0  0  0  0
   -4.6569    0.2363    1.8432 O   0  0  0  0  0  0  0  0  0  0  0  0
   -2.9821    6.6143    2.2890 O   0  0  0  0  0  0  0  0  0  0  0  0
   -1.2171    1.5493    2.0911 C   0  0  0  0  0  0  0  0  0  0  0  0
   -2.4879    1.1487    2.4774 C   0  0  0  0  0  0  0  0  0  0  0  0
   -2.7722    1.2243    3.5149 H   0  0  0  0  0  0  0  0  0  0  0  0
   -3.3962    0.6481    1.5484 C   0  0  0  0  0  0  0  0  0  0  0  0
   -3.0282    0.5628    0.2026 C   0  0  0  0  0  0  0  0  0  0  0  0
   -3.7476    0.1845   -0.5060 H   0  0  0  0  0  0  0  0  0  0  0  0
   -1.7701    0.9470   -0.1912 C   0  0  0  0  0  0  0  0  0  0  0  0
   -1.5074    0.8761   -1.2358 H   0  0  0  0  0  0  0  0  0  0  0  0
   -0.8451    1.4375    0.7368 C   0  0  0  0  0  0  0  0  0  0  0  0
    0.5049    1.8380    0.3636 C   0  0  2  0  0  3  0  0  0  0  0  0
    1.1035    1.5343   -0.8639 C   0  0  0  0  0  0  0  0  0  0  0  0
    0.5650    0.9597   -1.5994 H   0  0  0  0  0  0  0  0  0  0  0  0
    2.3966    1.9419   -1.1147 C   0  0  0  0  0  0  0  0  0  0  0  0
    2.8740    1.7009   -2.0531 H   0  0  0  0  0  0  0  0  0  0  0  0
    3.0793    2.6585   -0.1404 C   0  0  0  0  0  0  0  0  0  0  0  0
    4.0910    2.9972   -0.2962 H   0  0  0  0  0  0  0  0  0  0  0  0
    2.4308    2.9159    1.0520 C   0  0  0  0  0  0  0  0  0  0  0  0
    2.9300    3.4676    1.8396 H   0  0  0  0  0  0  0  0  0  0  0  0
   -0.3907    4.1961    3.2998 C   0  0  0  0  0  0  0  0  0  0  0  0
   -1.5722    4.6857    2.7685 C   0  0  0  0  0  0  0  0  0  0  0  0
   -2.2777    3.9934    2.3348 H   0  0  0  0  0  0  0  0  0  0  0  0
   -1.8536    6.0499    2.7886 C   0  0  0  0  0  0  0  0  0  0  0  0
   -0.9285    6.9319    3.3551 C   0  0  0  0  0  0  0  0  0  0  0  0
   -1.1590    7.9853    3.3616 H   0  0  0  0  0  0  0  0  0  0  0  0
    0.2436    6.4554    3.8902 C   0  0  0  0  0  0  0  0  0  0  0  0
    0.9400    7.1584    4.3214 H   0  0  0  0  0  0  0  0  0  0  0  0
    0.5349    5.0872    3.8751 C   0  0  0  0  0  0  0  0  0  0  0  0
    1.7610    4.5257    4.4312 C   0  0  1  0  0  3  0  0  0  0  0  0
    2.7652    5.2638    5.0651 C   0  0  0  0  0  0  0  0  0  0  0  0
    2.6685    6.3315    5.1746 H   0  0  0  0  0  0  0  0  0  0  0  0
    3.8829    4.6170    5.5552 C   0  0  0  0  0  0  0  0  0  0  0  0
    4.6631    5.1786    6.0478 H   0  0  0  0  0  0  0  0  0  0  0  0
    3.9908    3.2404    5.4095 C   0  0  0  0  0  0  0  0  0  0  0  0
    4.8474    2.7015    5.7802 H   0  0  0  0  0  0  0  0  0  0  0  0
    2.9618    2.5687    4.7733 C   0  0  0  0  0  0  0  0  0  0  0  0
    2.9841    1.4954    4.6239 H   0  0  0  0  0  0  0  0  0  0  0  0
   -5.0722    0.2328    3.1885 C   0  0  0  0  0  0  0  0  0  0  0  0
   -4.4254   -0.3974    3.8058 H   0  0  0  0  0  0  0  0  0  0  0  0
   -6.0803   -0.1792    3.1832 H   0  0  0  0  0  0  0  0  0  0  0  0
   -5.0977    1.2452    3.6045 H   0  0  0  0  0  0  0  0  0  0  0  0
   -3.9609    5.7793    1.7163 C   0  0  0  0  0  0  0  0  0  0  0  0
   -3.5696    5.2337    0.8521 H   0  0  0  0  0  0  0  0  0  0  0  0
   -4.7605    6.4440    1.3930 H   0  0  0  0  0  0  0  0  0  0  0  0
   -4.3549    5.0656    2.4462 H   0  0  0  0  0  0  0  0  0  0  0  0
  1 29  1  0  0  0  0
  1  8  1  0  0  0  0
  1  3  1  0  0  0  0
  2  1  1  0  0  0  0
  3  6  1  0  0  0  0
  3  4  1  0  0  0  0
  3  5  1  0  0  0  0
  7  1  1  0  0  0  0
  8 38  1  0  0  0  0
  8 45  1  0  0  0  0
  9 47  1  0  0  0  0
 10 32  1  0  0  0  0
 11 12  1  0  0  0  0
 11  1  1  0  0  0  0
 12 13  1  0  0  0  0
 14  9  1  0  0  0  0
 14 12  2  0  0  0  0
 15 14  1  0  0  0  0
 16 15  1  0  0  0  0
 17 15  2  0  0  0  0
 17 19  1  0  0  0  0
 18 17  1  0  0  0  0
 19 11  2  0  0  0  0
 20 21  1  1  0  0  0
 20 19  1  0  0  0  0
 20  7  1  0  0  0  0
 22 21  1  0  0  0  0
 23 21  2  0  0  0  0
 23 25  1  0  0  0  0
 24 23  1  0  0  0  0
 25 27  2  0  0  0  0
 26 25  1  0  0  0  0
 27  7  1  0  0  0  0
 27 28  1  0  0  0  0
 29 37  1  0  0  0  0
 30 32  1  0  0  0  0
 30 29  2  0  0  0  0
 31 30  1  0  0  0  0
 32 33  2  0  0  0  0
 33 34  1  0  0  0  0
 33 35  1  0  0  0  0
 35 36  1  0  0  0  0
 37 35  2  0  0  0  0
 38 37  1  1  0  0  0
 38 39  1  0  0  0  0
 39 40  1  0  0  0  0
 39 41  2  0  0  0  0
 41 42  1  0  0  0  0
 43 41  1  0  0  0  0
 43 44  1  0  0  0  0
 45 43  2  0  0  0  0
 46 45  1  0  0  0  0
 47 50  1  0  0  0  0
 47 48  1  0  0  0  0
 49 47  1  0  0  0  0
 51 10  1  0  0  0  0
 51 54  1  0  0  0  0
 52 51  1  0  0  0  0
 53 51  1  0  0  0  0
M  END
$$$$
