CSD_code = JAFWET | q = 0 | S = 0 | Stoichiometry = C7H18ClO3P2Rh | MND = 4
 OpenBabel04212202053D

 32 31  0  0  0  0  0  0  0  0999 V2000
    0.4983    2.0757    2.4913 Rh  0  0  0  0  0  0  0  0  0  0  0  0
   -0.3915    1.3207    4.4426 P   0  0  0  0  0  4  0  0  0  0  0  0
    1.6312    2.4711    0.5595 P   0  0  0  0  0  4  0  0  0  0  0  0
    1.8087    0.2886    2.6445 Cl  0  0  0  0  0  0  0  0  0  0  0  0
    4.1374    2.5513   -0.5168 O   0  0  0  0  0  0  0  0  0  0  0  0
    4.1022    1.6764   -0.9180 H   0  0  0  0  0  0  0  0  0  0  0  0
    0.3166    0.8122    7.0359 O   0  0  0  0  0  0  0  0  0  0  0  0
   -0.1352    1.5794    7.4034 H   0  0  0  0  0  0  0  0  0  0  0  0
   -1.2732    4.4601    2.2785 O   0  0  0  0  0  1  0  0  0  0  0  0
    3.4884    2.4963    0.7287 C   0  0  0  0  0  0  0  0  0  0  0  0
    3.7583    3.4099    1.2683 H   0  0  0  0  0  0  0  0  0  0  0  0
    3.8064    1.6324    1.3238 H   0  0  0  0  0  0  0  0  0  0  0  0
    1.3970    1.1602   -0.7032 C   0  0  0  0  0  0  0  0  0  0  0  0
    1.7458    0.2106   -0.2985 H   0  0  0  0  0  0  0  0  0  0  0  0
    1.9251    1.4076   -1.6240 H   0  0  0  0  0  0  0  0  0  0  0  0
    0.3308    1.0763   -0.9139 H   0  0  0  0  0  0  0  0  0  0  0  0
    1.3852    3.9775   -0.4531 C   0  0  0  0  0  0  0  0  0  0  0  0
    1.4941    4.8570    0.1790 H   0  0  0  0  0  0  0  0  0  0  0  0
    0.3817    3.9712   -0.8746 H   0  0  0  0  0  0  0  0  0  0  0  0
    2.1258    4.0110   -1.2515 H   0  0  0  0  0  0  0  0  0  0  0  0
    0.8804    1.1648    5.7986 C   0  0  0  0  0  0  0  0  0  0  0  0
    1.5570    0.3547    5.5126 H   0  0  0  0  0  0  0  0  0  0  0  0
    1.4628    2.0952    5.8612 H   0  0  0  0  0  0  0  0  0  0  0  0
   -1.0854   -0.3702    4.4688 C   0  0  0  0  0  0  0  0  0  0  0  0
   -0.3828   -1.0423    3.9789 H   0  0  0  0  0  0  0  0  0  0  0  0
   -2.0317   -0.3848    3.9297 H   0  0  0  0  0  0  0  0  0  0  0  0
   -1.2348   -0.6816    5.5027 H   0  0  0  0  0  0  0  0  0  0  0  0
   -1.7259    2.2537    5.2981 C   0  0  0  0  0  0  0  0  0  0  0  0
   -1.3677    3.2454    5.5728 H   0  0  0  0  0  0  0  0  0  0  0  0
   -2.0772    1.7199    6.1807 H   0  0  0  0  0  0  0  0  0  0  0  0
   -2.5561    2.3728    4.6036 H   0  0  0  0  0  0  0  0  0  0  0  0
   -0.5834    3.5401    2.3626 C   0  0  0  0  0  2  0  0  0  0  0  0
  1  4  1  0  0  0  0
  1  2  1  0  0  0  0
  2 24  1  0  0  0  0
  2 28  1  0  0  0  0
  2 21  1  0  0  0  0
  3 10  1  0  0  0  0
  3  1  1  0  0  0  0
  5 10  1  0  0  0  0
  6  5  1  0  0  0  0
  7  8  1  0  0  0  0
  9 32  1  0  0  0  0
 10 11  1  0  0  0  0
 10 12  1  0  0  0  0
 13 14  1  0  0  0  0
 13  3  1  0  0  0  0
 15 13  1  0  0  0  0
 16 13  1  0  0  0  0
 17 18  1  0  0  0  0
 17  3  1  0  0  0  0
 19 17  1  0  0  0  0
 20 17  1  0  0  0  0
 21 23  1  0  0  0  0
 21  7  1  0  0  0  0
 22 21  1  0  0  0  0
 24 27  1  0  0  0  0
 25 24  1  0  0  0  0
 26 24  1  0  0  0  0
 28 29  1  0  0  0  0
 28 30  1  0  0  0  0
 31 28  1  0  0  0  0
 32  1  1  0  0  0  0
M  END
$$$$
