CSD_code = JAGZUM | q = 1 | S = 0 | Stoichiometry = C26H32ClN4P2Pt(1+) | MND = 4
 OpenBabel04212202053D

 66 72  0  0  1  0  0  0  0  0999 V2000
    2.9096    8.2869    8.9593 Pt  0  0  2  0  0  0  0  0  0  0  0  0
    2.8234    7.3846   11.0557 Cl  0  0  0  0  0  0  0  0  0  0  0  0
    3.4863    9.3321    7.0568 P   0  0  2  0  0  4  0  0  0  0  0  0
    0.8536    7.5160    8.4264 P   0  0  0  0  0  4  0  0  0  0  0  0
    4.8851    8.9946    9.4489 N   0  0  1  0  0  4  0  0  0  0  0  0
    3.9100   10.9308    7.4270 N   0  0  1  0  0  0  0  0  0  0  0  0
    2.7702    9.6659    5.5710 N   0  0  2  0  0  0  0  0  0  0  0  0
    4.8653    8.5844    6.4316 N   0  0  2  0  0  0  0  0  0  0  0  0
    5.8502    8.1756    8.6948 C   0  0  0  0  0  0  0  0  0  0  0  0
    6.0729    8.5964    7.2407 C   0  0  0  0  0  0  0  0  0  0  0  0
    5.0539    9.0230    5.0505 C   0  0  0  0  0  0  0  0  0  0  0  0
    3.6344    9.1649    4.4979 C   0  0  0  0  0  0  0  0  0  0  0  0
    2.3521   11.0649    5.5903 C   0  0  0  0  0  0  0  0  0  0  0  0
    3.2891   11.8815    6.5079 C   0  0  0  0  0  0  0  0  0  0  0  0
    4.0316   11.2614    8.8384 C   0  0  0  0  0  0  0  0  0  0  0  0
    5.1546   10.4423    9.4911 C   0  0  0  0  0  0  0  0  0  0  0  0
    0.8724    6.3234    7.0668 C   0  0  0  0  0  0  0  0  0  0  0  0
   -0.2603    5.5662    6.7772 C   0  0  0  0  0  0  0  0  0  0  0  0
   -0.2354    4.6731    5.7213 C   0  0  0  0  0  0  0  0  0  0  0  0
    0.9142    4.5277    4.9599 C   0  0  0  0  0  0  0  0  0  0  0  0
    2.0448    5.2741    5.2538 C   0  0  0  0  0  0  0  0  0  0  0  0
    2.0266    6.1716    6.3061 C   0  0  0  0  0  0  0  0  0  0  0  0
   -0.0572    8.9734    7.8491 C   0  0  0  0  0  0  0  0  0  0  0  0
   -0.8826    8.9893    6.7333 C   0  0  0  0  0  0  0  0  0  0  0  0
   -1.5138   10.1676    6.3685 C   0  0  0  0  0  0  0  0  0  0  0  0
   -1.3249   11.3223    7.1106 C   0  0  0  0  0  0  0  0  0  0  0  0
   -0.4973   11.3096    8.2250 C   0  0  0  0  0  0  0  0  0  0  0  0
    0.1392   10.1387    8.5899 C   0  0  0  0  0  0  0  0  0  0  0  0
   -0.1558    6.7512    9.7154 C   0  0  0  0  0  0  0  0  0  0  0  0
    0.2212    5.4812   10.1494 C   0  0  0  0  0  0  0  0  0  0  0  0
   -0.4848    4.8650   11.1637 C   0  0  0  0  0  0  0  0  0  0  0  0
   -1.5633    5.5126   11.7487 C   0  0  0  0  0  0  0  0  0  0  0  0
   -1.9365    6.7753   11.3187 C   0  0  0  0  0  0  0  0  0  0  0  0
   -1.2335    7.4027   10.3045 C   0  0  0  0  0  0  0  0  0  0  0  0
    4.8681    8.6239   10.4052 H   0  0  0  0  0  0  0  0  0  0  0  0
    6.8309    8.1985    9.1882 H   0  0  0  0  0  0  0  0  0  0  0  0
    5.4797    7.1427    8.7142 H   0  0  0  0  0  0  0  0  0  0  0  0
    6.7805    7.8854    6.8003 H   0  0  0  0  0  0  0  0  0  0  0  0
    6.5434    9.5911    7.2030 H   0  0  0  0  0  0  0  0  0  0  0  0
    5.5861    9.9833    5.0046 H   0  0  0  0  0  0  0  0  0  0  0  0
    5.6309    8.2772    4.4997 H   0  0  0  0  0  0  0  0  0  0  0  0
    3.2525    8.1843    4.1999 H   0  0  0  0  0  0  0  0  0  0  0  0
    3.6001    9.8304    3.6361 H   0  0  0  0  0  0  0  0  0  0  0  0
    2.3304   11.4640    4.5768 H   0  0  0  0  0  0  0  0  0  0  0  0
    1.3360   11.0935    5.9952 H   0  0  0  0  0  0  0  0  0  0  0  0
    2.7220   12.6423    7.0481 H   0  0  0  0  0  0  0  0  0  0  0  0
    4.0704   12.3809    5.9241 H   0  0  0  0  0  0  0  0  0  0  0  0
    4.2767   12.3217    8.9310 H   0  0  0  0  0  0  0  0  0  0  0  0
    3.0922   11.0710    9.3851 H   0  0  0  0  0  0  0  0  0  0  0  0
    5.2450   10.7727   10.5290 H   0  0  0  0  0  0  0  0  0  0  0  0
    6.0973   10.6611    8.9834 H   0  0  0  0  0  0  0  0  0  0  0  0
   -1.1491    5.6740    7.3839 H   0  0  0  0  0  0  0  0  0  0  0  0
   -1.1118    4.0857    5.4942 H   0  0  0  0  0  0  0  0  0  0  0  0
    0.9303    3.8254    4.1408 H   0  0  0  0  0  0  0  0  0  0  0  0
    2.9415    5.1479    4.6660 H   0  0  0  0  0  0  0  0  0  0  0  0
    2.9075    6.7568    6.5548 H   0  0  0  0  0  0  0  0  0  0  0  0
   -1.0277    8.0896    6.1539 H   0  0  0  0  0  0  0  0  0  0  0  0
   -2.1577   10.1839    5.5025 H   0  0  0  0  0  0  0  0  0  0  0  0
   -1.8230   12.2351    6.8221 H   0  0  0  0  0  0  0  0  0  0  0  0
   -0.3560   12.2101    8.8037 H   0  0  0  0  0  0  0  0  0  0  0  0
    0.7812   10.0965    9.4678 H   0  0  0  0  0  0  0  0  0  0  0  0
    1.0720    4.9939    9.6911 H   0  0  0  0  0  0  0  0  0  0  0  0
   -0.1922    3.8839   11.5051 H   0  0  0  0  0  0  0  0  0  0  0  0
   -2.1105    5.0324   12.5453 H   0  0  0  0  0  0  0  0  0  0  0  0
   -2.7745    7.2773   11.7779 H   0  0  0  0  0  0  0  0  0  0  0  0
   -1.5200    8.3900    9.9709 H   0  0  0  0  0  0  0  0  0  0  0  0
  1  5  1  0  0  0  0
  1  2  1  1  0  0  0
  3  6  1  0  0  0  0
  3  1  1  0  0  0  0
  4  1  1  0  0  0  0
  4 29  1  0  0  0  0
  5 16  1  0  0  0  0
  5 35  1  0  0  0  0
  6 14  1  1  0  0  0
  6 15  1  0  0  0  0
  7 13  1  0  0  0  0
  7  3  1  0  0  0  0
  8 11  1  6  0  0  0
  8  3  1  0  0  0  0
  8 10  1  0  0  0  0
  9 37  1  0  0  0  0
  9 36  1  0  0  0  0
  9  5  1  0  0  0  0
 10  9  1  0  0  0  0
 12 11  1  0  0  0  0
 12  7  1  0  0  0  0
 13 45  1  0  0  0  0
 13 14  1  0  0  0  0
 14 46  1  0  0  0  0
 15 48  1  0  0  0  0
 15 49  1  0  0  0  0
 15 16  1  0  0  0  0
 16 50  1  0  0  0  0
 17  4  1  0  0  0  0
 18 17  1  0  0  0  0
 18 52  1  0  0  0  0
 19 18  2  0  0  0  0
 20 21  2  0  0  0  0
 20 19  1  0  0  0  0
 21 22  1  0  0  0  0
 22 56  1  0  0  0  0
 22 17  2  0  0  0  0
 23  4  1  0  0  0  0
 23 28  1  0  0  0  0
 24 23  2  0  0  0  0
 25 24  1  0  0  0  0
 25 26  2  0  0  0  0
 26 27  1  0  0  0  0
 27 28  2  0  0  0  0
 27 60  1  0  0  0  0
 28 61  1  0  0  0  0
 29 30  2  0  0  0  0
 29 34  1  0  0  0  0
 30 31  1  0  0  0  0
 31 63  1  0  0  0  0
 31 32  2  0  0  0  0
 32 64  1  0  0  0  0
 33 32  1  0  0  0  0
 33 65  1  0  0  0  0
 34 33  2  0  0  0  0
 38 10  1  0  0  0  0
 39 10  1  0  0  0  0
 40 11  1  0  0  0  0
 41 11  1  0  0  0  0
 42 12  1  0  0  0  0
 43 12  1  0  0  0  0
 44 13  1  0  0  0  0
 47 14  1  0  0  0  0
 51 16  1  0  0  0  0
 53 19  1  0  0  0  0
 54 20  1  0  0  0  0
 55 21  1  0  0  0  0
 57 24  1  0  0  0  0
 58 25  1  0  0  0  0
 59 26  1  0  0  0  0
 62 30  1  0  0  0  0
 66 34  1  0  0  0  0
M  END
$$$$
