CSD_code = JAHCIE | q = 1 | S = 0 | Stoichiometry = C14H34ClCoN5O4(1+) | MND = 6
 OpenBabel04212202053D

 59 60  0  0  1  0  0  0  0  0999 V2000
    0.7812    4.3426   11.8736 Co  0  0  0  0  0  0  0  0  0  0  0  0
   -0.0584    5.8453   10.5298 Cl  0  0  0  0  0  0  0  0  0  0  0  0
    1.3292    2.9519   13.1232 O   0  0  0  0  0  0  0  0  0  0  0  0
    3.2860    2.5902   12.1693 O   0  0  0  0  0  0  0  0  0  0  0  0
    1.6248    3.2067   17.1898 O   0  0  0  0  0  0  0  0  0  0  0  0
    2.3420    4.2299   15.2898 O   0  0  0  0  0  0  0  0  0  0  0  0
   -1.0125    3.5332   12.0201 N   0  0  0  0  0  4  0  0  0  0  0  0
    1.0271    3.1304   10.3477 N   0  0  0  0  0  4  0  0  0  0  0  0
    2.5508    5.1395   11.6540 N   0  0  0  0  0  4  0  0  0  0  0  0
    0.6576    5.5320   13.4163 N   0  0  0  0  0  4  0  0  0  0  0  0
    2.2505    1.9643   15.5044 N   0  0  0  0  0  0  0  0  0  0  0  0
   -0.9918    2.2418   11.3149 C   0  0  0  0  0  0  0  0  0  0  0  0
   -0.2452    2.4744   10.0076 C   0  0  0  0  0  0  0  0  0  0  0  0
    2.8858    6.0238   12.7829 C   0  0  0  0  0  0  0  0  0  0  0  0
    1.5798    6.6643   13.2279 C   0  0  0  0  0  0  0  0  0  0  0  0
    2.4851    2.4360   13.0903 C   0  0  0  0  0  0  0  0  0  0  0  0
    2.8643    1.5260   14.2705 C   0  0  2  0  0  0  0  0  0  0  0  0
    2.4434    0.0644   13.9988 C   0  0  0  0  0  0  0  0  0  0  0  0
    2.7178   -0.3482   12.5542 C   0  0  0  0  0  0  0  0  0  0  0  0
    3.1840   -0.8767   14.9479 C   0  0  0  0  0  0  0  0  0  0  0  0
    2.1074    3.2285   15.9450 C   0  0  0  0  0  0  0  0  0  0  0  0
    1.4533    4.4221   17.9689 C   0  0  0  0  0  0  0  0  0  0  0  0
    0.8872    3.9241   19.2977 C   0  0  0  0  0  0  0  0  0  0  0  0
    0.4633    5.3686   17.2884 C   0  0  0  0  0  0  0  0  0  0  0  0
    2.8059    5.1002   18.1777 C   0  0  0  0  0  0  0  0  0  0  0  0
   -2.0009    1.8615   11.1307 H   0  0  0  0  0  0  0  0  0  0  0  0
   -0.4463    1.5258   11.9336 H   0  0  0  0  0  0  0  0  0  0  0  0
   -0.0902    1.5368    9.4663 H   0  0  0  0  0  0  0  0  0  0  0  0
   -0.8218    3.1568    9.3780 H   0  0  0  0  0  0  0  0  0  0  0  0
    3.6323    6.7699   12.5018 H   0  0  0  0  0  0  0  0  0  0  0  0
    3.2692    5.4126   13.6027 H   0  0  0  0  0  0  0  0  0  0  0  0
    1.7112    7.2298   14.1546 H   0  0  0  0  0  0  0  0  0  0  0  0
    1.1865    7.3259   12.4530 H   0  0  0  0  0  0  0  0  0  0  0  0
    2.0297    1.2468   16.1791 H   0  0  0  0  0  0  0  0  0  0  0  0
    3.9605    1.5757   14.3416 H   0  0  0  0  0  0  0  0  0  0  0  0
    1.3656   -0.0054   14.1884 H   0  0  0  0  0  0  0  0  0  0  0  0
    2.5678   -1.4188   12.4427 H   0  0  0  0  0  0  0  0  0  0  0  0
    2.0502    0.1605   11.8619 H   0  0  0  0  0  0  0  0  0  0  0  0
    3.7416   -0.1104   12.2776 H   0  0  0  0  0  0  0  0  0  0  0  0
    4.2486   -0.8699   14.7271 H   0  0  0  0  0  0  0  0  0  0  0  0
    2.8167   -1.8922   14.8244 H   0  0  0  0  0  0  0  0  0  0  0  0
    3.0493   -0.5969   15.9901 H   0  0  0  0  0  0  0  0  0  0  0  0
   -0.0792    3.4517   19.1424 H   0  0  0  0  0  0  0  0  0  0  0  0
    0.7697    4.7550   19.9858 H   0  0  0  0  0  0  0  0  0  0  0  0
    1.5611    3.1946   19.7382 H   0  0  0  0  0  0  0  0  0  0  0  0
    0.9203    5.8383   16.4222 H   0  0  0  0  0  0  0  0  0  0  0  0
    0.1701    6.1437   17.9901 H   0  0  0  0  0  0  0  0  0  0  0  0
   -0.4261    4.8223   16.9806 H   0  0  0  0  0  0  0  0  0  0  0  0
    3.2368    5.3965   17.2245 H   0  0  0  0  0  0  0  0  0  0  0  0
    3.4927    4.4205   18.6763 H   0  0  0  0  0  0  0  0  0  0  0  0
    2.6788    5.9844   18.7949 H   0  0  0  0  0  0  0  0  0  0  0  0
   -1.6682    4.1605   11.5465 H   0  0  0  0  0  0  0  0  0  0  0  0
   -1.3461    3.3902   12.9727 H   0  0  0  0  0  0  0  0  0  0  0  0
    1.7303    2.4417   10.6365 H   0  0  0  0  0  0  0  0  0  0  0  0
    1.3951    3.5903    9.5145 H   0  0  0  0  0  0  0  0  0  0  0  0
    2.5780    5.6800   10.7879 H   0  0  0  0  0  0  0  0  0  0  0  0
    3.2408    4.3759   11.5979 H   0  0  0  0  0  0  0  0  0  0  0  0
    1.0537    4.9785   14.1960 H   0  0  0  0  0  0  0  0  0  0  0  0
   -0.2590    5.8805   13.6956 H   0  0  0  0  0  0  0  0  0  0  0  0
  1  7  1  0  0  0  0
  1  3  1  0  0  0  0
  1 10  1  0  0  0  0
  2  1  1  0  0  0  0
  4 16  2  0  0  0  0
  5 22  1  0  0  0  0
  6 21  2  0  0  0  0
  7 53  1  0  0  0  0
  8 54  1  0  0  0  0
  8  1  1  0  0  0  0
  9  1  1  0  0  0  0
  9 14  1  0  0  0  0
 10 59  1  0  0  0  0
 10 58  1  0  0  0  0
 11 21  1  0  0  0  0
 11 34  1  0  0  0  0
 12 27  1  0  0  0  0
 12  7  1  0  0  0  0
 13  8  1  0  0  0  0
 13 12  1  0  0  0  0
 14 15  1  0  0  0  0
 14 31  1  0  0  0  0
 15 10  1  0  0  0  0
 15 32  1  0  0  0  0
 16  3  1  0  0  0  0
 16 17  1  0  0  0  0
 17 35  1  1  0  0  0
 17 11  1  0  0  0  0
 18 36  1  0  0  0  0
 18 17  1  0  0  0  0
 18 20  1  0  0  0  0
 19 18  1  0  0  0  0
 20 42  1  0  0  0  0
 21  5  1  0  0  0  0
 22 25  1  0  0  0  0
 22 23  1  0  0  0  0
 23 45  1  0  0  0  0
 23 44  1  0  0  0  0
 24 22  1  0  0  0  0
 24 47  1  0  0  0  0
 25 50  1  0  0  0  0
 25 51  1  0  0  0  0
 26 12  1  0  0  0  0
 28 13  1  0  0  0  0
 29 13  1  0  0  0  0
 30 14  1  0  0  0  0
 33 15  1  0  0  0  0
 37 19  1  0  0  0  0
 38 19  1  0  0  0  0
 39 19  1  0  0  0  0
 40 20  1  0  0  0  0
 41 20  1  0  0  0  0
 43 23  1  0  0  0  0
 46 24  1  0  0  0  0
 48 24  1  0  0  0  0
 49 25  1  0  0  0  0
 52  7  1  0  0  0  0
 55  8  1  0  0  0  0
 56  9  1  0  0  0  0
 57  9  1  0  0  0  0
M  END
$$$$
