CSD_code = JAHTUI | q = 0 | S = 0 | Stoichiometry = C13H13Cl2N2O2Re | MND = 6
 OpenBabel04212202053D

 33 36  0  0  1  0  0  0  0  0999 V2000
    3.2587    4.2754   14.1115 Re  0  0  0  0  0  0  0  0  0  0  0  0
    2.7224    5.9169   15.6109 Cl  0  0  0  0  0  0  0  0  0  0  0  0
    2.7067    5.6487   12.3780 Cl  0  0  0  0  0  0  0  0  0  0  0  0
    1.8541    3.4065   14.2087 O   0  0  0  0  0  1  0  0  0  0  0  0
    5.0139    4.7603   14.1131 O   0  0  0  0  0  0  0  0  0  0  0  0
    4.1900    2.6664   15.6946 N   0  0  2  0  0  4  0  0  0  0  0  0
    4.2279    2.6062   12.8337 N   0  0  0  0  0  0  0  0  0  0  0  0
    6.2280    4.2740   14.2228 C   0  0  0  0  0  0  0  0  0  0  0  0
    7.2179    4.5791   13.2819 C   0  0  0  0  0  0  0  0  0  0  0  0
    6.9783    5.2766   12.4932 H   0  0  0  0  0  0  0  0  0  0  0  0
    8.4622    3.9896   13.3677 C   0  0  0  0  0  0  0  0  0  0  0  0
    9.2171    4.2316   12.6349 H   0  0  0  0  0  0  0  0  0  0  0  0
    8.7447    3.0919   14.3847 C   0  0  0  0  0  0  0  0  0  0  0  0
    9.7183    2.6314   14.4482 H   0  0  0  0  0  0  0  0  0  0  0  0
    7.7753    2.7924   15.3272 C   0  0  0  0  0  0  0  0  0  0  0  0
    7.9983    2.1011   16.1281 H   0  0  0  0  0  0  0  0  0  0  0  0
    6.5194    3.3690   15.2656 C   0  0  0  0  0  0  0  0  0  0  0  0
    5.4597    3.0856   16.2979 C   0  0  0  0  0  0  0  0  0  0  0  0
    5.8281    2.3211   16.9985 H   0  0  0  0  0  0  0  0  0  0  0  0
    5.2540    4.0031   16.8612 H   0  0  0  0  0  0  0  0  0  0  0  0
    4.2773    1.4156   14.9392 C   0  0  0  0  0  0  0  0  0  0  0  0
    3.2590    1.0285   14.8299 H   0  0  0  0  0  0  0  0  0  0  0  0
    4.8946    0.6734   15.4634 H   0  0  0  0  0  0  0  0  0  0  0  0
    4.8169    1.6468   13.5501 C   0  0  1  0  0  3  0  0  0  0  0  0
    5.8511    0.8889   13.0168 C   0  0  0  0  0  0  0  0  0  0  0  0
    6.3213    0.1226   13.6126 H   0  0  0  0  0  0  0  0  0  0  0  0
    6.2746    1.1407   11.7222 C   0  0  0  0  0  0  0  0  0  0  0  0
    7.0853    0.5711   11.2943 H   0  0  0  0  0  0  0  0  0  0  0  0
    5.6432    2.1344   10.9905 C   0  0  0  0  0  0  0  0  0  0  0  0
    5.9372    2.3573    9.9781 H   0  0  0  0  0  0  0  0  0  0  0  0
    4.6219    2.8488   11.5934 C   0  0  0  0  0  0  0  0  0  0  0  0
    4.0920    3.6433   11.0840 H   0  0  0  0  0  0  0  0  0  0  0  0
    3.4850    2.5857   16.4223 H   0  0  0  0  0  0  0  0  0  0  0  0
  1  5  1  0  0  0  0
  1  4  1  0  0  0  0
  1  2  1  0  0  0  0
  1  6  1  0  0  0  0
  3  1  1  0  0  0  0
  5  8  1  0  0  0  0
  6 18  1  0  0  0  0
  6 33  1  1  0  0  0
  7 24  1  0  0  0  0
  7  1  1  0  0  0  0
  8 17  1  0  0  0  0
  9 11  1  0  0  0  0
  9  8  2  0  0  0  0
 10  9  1  0  0  0  0
 11 13  2  0  0  0  0
 12 11  1  0  0  0  0
 13 14  1  0  0  0  0
 13 15  1  0  0  0  0
 15 16  1  0  0  0  0
 17 15  2  0  0  0  0
 17 18  1  0  0  0  0
 18 20  1  0  0  0  0
 18 19  1  0  0  0  0
 21 23  1  0  0  0  0
 21  6  1  0  0  0  0
 22 21  1  0  0  0  0
 24 25  1  6  0  0  0
 24 21  1  0  0  0  0
 25 26  1  0  0  0  0
 27 25  2  0  0  0  0
 28 27  1  0  0  0  0
 29 31  2  0  0  0  0
 29 27  1  0  0  0  0
 30 29  1  0  0  0  0
 31  7  1  0  0  0  0
 32 31  1  0  0  0  0
M  END
$$$$
