CSD_code = JAHTAO | q = 0 | S = 0 | Stoichiometry = C16H21Cl2FeN3 | MND = 5
 OpenBabel04212202053D

 43 46  0  0  1  0  0  0  0  0999 V2000
    0.7005   12.8891    3.8650 Fe  0  0  0  0  0  0  0  0  0  0  0  0
   -0.2584   14.4632    5.0386 Cl  0  0  0  0  0  0  0  0  0  0  0  0
    2.6387   13.8433    3.8910 Cl  0  0  0  0  0  0  0  0  0  0  0  0
    0.0687   13.5814    2.2526 N   0  0  0  0  0  0  0  0  0  0  0  0
   -1.0089   11.8236    3.8375 N   0  0  2  0  0  4  0  0  0  0  0  0
   -0.8586   10.9663    3.3067 H   0  0  0  0  0  0  0  0  0  0  0  0
    1.0285   11.8717    5.6960 N   0  0  0  0  0  4  0  0  0  0  0  0
    0.8928   12.6619    6.3303 H   0  0  0  0  0  0  0  0  0  0  0  0
    0.7705   14.2411    1.3238 C   0  0  0  0  0  3  0  0  0  0  0  0
    1.8033   14.4257    1.5792 H   0  0  0  0  0  0  0  0  0  0  0  0
    0.2217   14.6818    0.1367 C   0  0  0  0  0  0  0  0  0  0  0  0
    0.8360   15.2170   -0.5692 H   0  0  0  0  0  0  0  0  0  0  0  0
   -1.1191   14.4362   -0.1225 C   0  0  0  0  0  0  0  0  0  0  0  0
   -1.5820   14.7694   -1.0377 H   0  0  0  0  0  0  0  0  0  0  0  0
   -1.8563   13.7563    0.8387 C   0  0  0  0  0  0  0  0  0  0  0  0
   -2.9053   13.5504    0.6894 H   0  0  0  0  0  0  0  0  0  0  0  0
   -1.2421   13.3557    2.0081 C   0  0  0  0  0  0  0  0  0  0  0  0
   -1.9735   12.6618    3.1254 C   0  0  0  0  0  0  0  0  0  0  0  0
   -2.3058   13.4300    3.8301 H   0  0  0  0  0  0  0  0  0  0  0  0
   -2.8435   12.1048    2.7572 H   0  0  0  0  0  0  0  0  0  0  0  0
   -1.3433   11.4861    5.2186 C   0  0  0  0  0  0  0  0  0  0  0  0
   -2.1698   10.7676    5.2905 H   0  0  0  0  0  0  0  0  0  0  0  0
   -1.6213   12.4197    5.7129 H   0  0  0  0  0  0  0  0  0  0  0  0
   -0.0847   10.9281    5.8854 C   0  0  0  0  0  0  0  0  0  0  0  0
   -0.2784   10.7468    6.9500 H   0  0  0  0  0  0  0  0  0  0  0  0
    0.1894    9.9719    5.4317 H   0  0  0  0  0  0  0  0  0  0  0  0
    2.3199   11.2985    5.9194 C   0  0  0  0  0  0  0  0  0  0  0  0
    2.9995   11.5517    7.1135 C   0  0  0  0  0  0  0  0  0  0  0  0
    4.2435   10.9701    7.3123 C   0  0  0  0  0  0  0  0  0  0  0  0
    4.7774   11.1633    8.2311 H   0  0  0  0  0  0  0  0  0  0  0  0
    4.8053   10.1553    6.3479 C   0  0  0  0  0  0  0  0  0  0  0  0
    5.7720    9.7053    6.5159 H   0  0  0  0  0  0  0  0  0  0  0  0
    4.1418    9.9433    5.1538 C   0  0  0  0  0  0  0  0  0  0  0  0
    4.6007    9.3391    4.3850 H   0  0  0  0  0  0  0  0  0  0  0  0
    2.9010   10.5169    4.9173 C   0  0  0  0  0  0  0  0  0  0  0  0
    2.4126   12.4669    8.1475 C   0  0  0  0  0  0  0  0  0  0  0  0
    1.4496   12.1039    8.5081 H   0  0  0  0  0  0  0  0  0  0  0  0
    2.2734   13.4656    7.7317 H   0  0  0  0  0  0  0  0  0  0  0  0
    3.0828   12.5498    8.9990 H   0  0  0  0  0  0  0  0  0  0  0  0
    2.2427   10.3431    3.5768 C   0  0  0  0  0  0  0  0  0  0  0  0
    1.3906    9.6640    3.6220 H   0  0  0  0  0  0  0  0  0  0  0  0
    2.9572    9.9358    2.8665 H   0  0  0  0  0  0  0  0  0  0  0  0
    1.9082   11.3170    3.1882 H   0  0  0  0  0  0  0  0  0  0  0  0
  1  3  1  0  0  0  0
  1  2  1  0  0  0  0
  1  7  1  0  0  0  0
  4  1  1  0  0  0  0
  5  6  1  6  0  0  0
  5  1  1  0  0  0  0
  5 21  1  0  0  0  0
  7 24  1  0  0  0  0
  7 27  1  0  0  0  0
  7  8  1  0  0  0  0
  9 10  1  0  0  0  0
  9  4  1  0  0  0  0
 11  9  1  0  0  0  0
 12 11  1  0  0  0  0
 13 11  2  0  0  0  0
 13 15  1  0  0  0  0
 14 13  1  0  0  0  0
 15 17  2  0  0  0  0
 16 15  1  0  0  0  0
 17  4  1  0  0  0  0
 17 18  1  0  0  0  0
 18 19  1  0  0  0  0
 18  5  1  0  0  0  0
 20 18  1  0  0  0  0
 21 22  1  0  0  0  0
 21 23  1  0  0  0  0
 21 24  1  0  0  0  0
 24 25  1  0  0  0  0
 26 24  1  0  0  0  0
 27 28  1  0  0  0  0
 28 29  2  0  0  0  0
 28 36  1  0  0  0  0
 29 30  1  0  0  0  0
 31 32  1  0  0  0  0
 31 29  1  0  0  0  0
 33 31  2  0  0  0  0
 34 33  1  0  0  0  0
 35 33  1  0  0  0  0
 35 27  2  0  0  0  0
 36 37  1  0  0  0  0
 36 39  1  0  0  0  0
 38 36  1  0  0  0  0
 40 41  1  0  0  0  0
 40 35  1  0  0  0  0
 42 40  1  0  0  0  0
 43 40  1  0  0  0  0
M  END
$$$$
