CSD_code = JAHWUL | q = 0 | S = 0 | Stoichiometry = C17H26ClNPt | MND = 5
 OpenBabel04212202053D

 46 47  0  0  1  0  0  0  0  0999 V2000
    2.1950    1.6185    2.7535 Pt  0  0  0  0  0  0  0  0  0  0  0  0
    0.8295    2.1540    0.8597 Cl  0  0  0  0  0 15  0  0  0  0  0  0
    1.4480   -0.3553    2.6392 N   0  0  0  0  0  4  0  0  0  0  0  0
    2.4284    3.5796    3.5640 C   0  0  1  0  0  0  0  0  0  0  0  0
    2.8140    3.4654    4.5793 H   0  0  0  0  0  0  0  0  0  0  0  0
    3.3122    3.4324    2.4895 C   0  0  0  0  0  3  0  0  0  0  0  0
    4.3507    3.1736    2.7147 H   0  0  0  0  0  0  0  0  0  0  0  0
    3.1853    4.2167    1.2136 C   0  0  0  0  0  0  0  0  0  0  0  0
    2.1440    4.4137    0.9741 H   0  0  0  0  0  0  0  0  0  0  0  0
    3.6179    3.6573    0.3811 H   0  0  0  0  0  0  0  0  0  0  0  0
    3.9411    5.5455    1.3603 C   0  0  0  0  0  0  0  0  0  0  0  0
    3.7391    6.1494    0.4734 H   0  0  0  0  0  0  0  0  0  0  0  0
    5.0158    5.3478    1.3875 H   0  0  0  0  0  0  0  0  0  0  0  0
    3.5717    6.3464    2.6109 C   0  0  0  0  0  0  0  0  0  0  0  0
    3.9129    5.8123    3.4986 H   0  0  0  0  0  0  0  0  0  0  0  0
    4.1316    7.2837    2.5687 H   0  0  0  0  0  0  0  0  0  0  0  0
    2.0748    6.6597    2.7528 C   0  0  0  0  0  0  0  0  0  0  0  0
    1.5719    6.5091    1.7970 H   0  0  0  0  0  0  0  0  0  0  0  0
    1.9590    7.7152    3.0098 H   0  0  0  0  0  0  0  0  0  0  0  0
    1.3562    5.8511    3.8356 C   0  0  0  0  0  0  0  0  0  0  0  0
    1.9084    5.9336    4.7750 H   0  0  0  0  0  0  0  0  0  0  0  0
    0.3713    6.2969    3.9931 H   0  0  0  0  0  0  0  0  0  0  0  0
    1.1474    4.3683    3.4952 C   0  0  0  0  0  0  0  0  0  0  0  0
    0.6937    4.2892    2.5075 H   0  0  0  0  0  0  0  0  0  0  0  0
    0.4457    3.9469    4.2229 H   0  0  0  0  0  0  0  0  0  0  0  0
    3.3630    0.8045    4.2002 C   0  0  0  0  0  0  0  0  0  0  0  0
    4.5173    1.3000    4.7996 C   0  0  0  0  0  0  0  0  0  0  0  0
    4.8491    2.3114    4.6116 H   0  0  0  0  0  0  0  0  0  0  0  0
    5.2767    0.5270    5.6651 C   0  0  0  0  0  0  0  0  0  0  0  0
    6.1649    0.9468    6.1153 H   0  0  0  0  0  0  0  0  0  0  0  0
    4.9056   -0.7732    5.9517 C   0  0  0  0  0  0  0  0  0  0  0  0
    5.4995   -1.3780    6.6208 H   0  0  0  0  0  0  0  0  0  0  0  0
    3.7621   -1.2927    5.3726 C   0  0  0  0  0  0  0  0  0  0  0  0
    3.4546   -2.3066    5.5897 H   0  0  0  0  0  0  0  0  0  0  0  0
    3.0028   -0.5135    4.5138 C   0  0  0  0  0  0  0  0  0  0  0  0
    1.7265   -1.0357    3.9158 C   0  0  0  0  0  0  0  0  0  0  0  0
    0.9037   -0.8173    4.6068 H   0  0  0  0  0  0  0  0  0  0  0  0
    1.7590   -2.1250    3.7673 H   0  0  0  0  0  0  0  0  0  0  0  0
    0.0363   -0.5301    2.2968 C   0  0  0  0  0  0  0  0  0  0  0  0
   -0.1734   -0.0554    1.3396 H   0  0  0  0  0  0  0  0  0  0  0  0
   -0.5888   -0.0582    3.0555 H   0  0  0  0  0  0  0  0  0  0  0  0
   -0.2146   -1.5958    2.2340 H   0  0  0  0  0  0  0  0  0  0  0  0
    2.2779   -0.9323    1.5768 C   0  0  0  0  0  0  0  0  0  0  0  0
    3.3340   -0.8709    1.8515 H   0  0  0  0  0  0  0  0  0  0  0  0
    2.1146   -0.3819    0.6483 H   0  0  0  0  0  0  0  0  0  0  0  0
    2.0170   -1.9859    1.4117 H   0  0  0  0  0  0  0  0  0  0  0  0
  1  4  1  0  0  0  0
  1 26  1  0  0  0  0
  3  1  1  0  0  0  0
  3 36  1  0  0  0  0
  4  5  1  1  0  0  0
  6  7  1  0  0  0  0
  6  4  1  0  0  0  0
  8 11  1  0  0  0  0
  8  6  1  0  0  0  0
  9  8  1  0  0  0  0
 10  8  1  0  0  0  0
 11 13  1  0  0  0  0
 11 14  1  0  0  0  0
 12 11  1  0  0  0  0
 14 17  1  0  0  0  0
 14 15  1  0  0  0  0
 16 14  1  0  0  0  0
 17 19  1  0  0  0  0
 17 20  1  0  0  0  0
 18 17  1  0  0  0  0
 20 22  1  0  0  0  0
 20 21  1  0  0  0  0
 23  4  1  0  0  0  0
 23 20  1  0  0  0  0
 23 25  1  0  0  0  0
 24 23  1  0  0  0  0
 26 35  2  0  0  0  0
 26 27  1  0  0  0  0
 27 29  2  0  0  0  0
 28 27  1  0  0  0  0
 29 31  1  0  0  0  0
 29 30  1  0  0  0  0
 31 32  1  0  0  0  0
 33 34  1  0  0  0  0
 33 31  2  0  0  0  0
 35 33  1  0  0  0  0
 36 35  1  0  0  0  0
 36 37  1  0  0  0  0
 38 36  1  0  0  0  0
 39  3  1  0  0  0  0
 39 41  1  0  0  0  0
 40 39  1  0  0  0  0
 42 39  1  0  0  0  0
 43 44  1  0  0  0  0
 43  3  1  0  0  0  0
 45 43  1  0  0  0  0
 46 43  1  0  0  0  0
M  END
$$$$
