CSD_code = JAJCON | q = 1 | S = 0 | Stoichiometry = C15H21IN9O3Pt(1+) | MND = 4
 OpenBabel04212202053D

 50 52  0  0  0  0  0  0  0  0999 V2000
    2.3026   12.5392    1.8044 Pt  0  0  0  0  0  0  0  0  0  0  0  0
    0.8333   10.5286    2.5029 I   0  0  0  0  0  0  0  0  0  0  0  0
    1.7607   13.4630    3.5322 N   0  0  0  0  0  0  0  0  0  0  0  0
    2.8488   11.5180    0.1244 N   0  0  0  0  0  0  0  0  0  0  0  0
    1.4165   14.6365    0.0995 O   0  0  0  0  0  0  0  0  0  0  0  0
    3.3627   14.2273    1.1400 N   0  0  0  0  0  0  0  0  0  0  0  0
    3.1851   15.9558   -0.4419 N   0  0  0  0  0  0  0  0  0  0  0  0
    4.8232   11.2896    1.1762 O   0  0  0  0  0  0  0  0  0  0  0  0
    3.6900   12.6380    4.3426 O   0  0  0  0  0  0  0  0  0  0  0  0
    2.0996   13.2282    5.8526 N   0  0  0  0  0  0  0  0  0  0  0  0
    2.6020   14.9167    0.2651 C   0  0  0  0  0  0  0  0  0  0  0  0
    4.4105    9.8903   -0.5660 N   0  0  0  0  0  0  0  0  0  0  0  0
    4.6493   14.5101    1.3676 C   0  0  0  0  0  0  0  0  0  0  0  0
    4.4932   16.2446   -0.2689 C   0  0  0  0  0  3  0  0  0  0  0  0
    4.8909   17.0508   -0.8673 H   0  0  0  0  0  0  0  0  0  0  0  0
    0.8713   11.8304   -0.9808 N   0  0  0  0  0  0  0  0  0  0  0  0
    0.6884   12.6098   -0.3582 H   0  0  0  0  0  0  0  0  0  0  0  0
    0.1824   11.5591   -1.6594 H   0  0  0  0  0  0  0  0  0  0  0  0
   -0.1675   14.3450    2.6762 N   0  0  0  0  0  0  0  0  0  0  0  0
    0.2347   14.2521    1.7467 H   0  0  0  0  0  0  0  0  0  0  0  0
   -1.0985   14.7073    2.7816 H   0  0  0  0  0  0  0  0  0  0  0  0
    5.2592   15.5599    0.6134 C   0  0  0  0  0  0  0  0  0  0  0  0
    6.2997   15.7935    0.7525 H   0  0  0  0  0  0  0  0  0  0  0  0
    2.0183   11.1681   -0.8581 C   0  0  0  0  0  0  0  0  0  0  0  0
    4.0622   10.9232    0.3026 C   0  0  0  0  0  0  0  0  0  0  0  0
    5.2943   13.8347    2.2964 N   0  0  0  0  0  0  0  0  0  0  0  0
    4.8171   13.0832    2.7995 H   0  0  0  0  0  0  0  0  0  0  0  0
    6.2807   13.9627    2.4406 H   0  0  0  0  0  0  0  0  0  0  0  0
    0.5573   13.9999    3.7378 C   0  0  0  0  0  0  0  0  0  0  0  0
    2.5759   13.0823    4.5544 C   0  0  0  0  0  0  0  0  0  0  0  0
    0.0899   14.1799    5.0677 C   0  0  0  0  0  0  0  0  0  0  0  0
   -0.8811   14.6024    5.2522 H   0  0  0  0  0  0  0  0  0  0  0  0
    2.3806   10.1154   -1.7422 C   0  0  0  0  0  0  0  0  0  0  0  0
    1.7094    9.8048   -2.5221 H   0  0  0  0  0  0  0  0  0  0  0  0
    3.5716    9.4961   -1.5397 C   0  0  0  0  0  3  0  0  0  0  0  0
    3.8949    8.6687   -2.1539 H   0  0  0  0  0  0  0  0  0  0  0  0
    0.8834   13.7525    6.0837 C   0  0  0  0  0  3  0  0  0  0  0  0
    0.5717   13.8194    7.1154 H   0  0  0  0  0  0  0  0  0  0  0  0
    2.3430   16.6888   -1.3610 C   0  0  0  0  0  0  0  0  0  0  0  0
    2.9376   17.4172   -1.9052 H   0  0  0  0  0  0  0  0  0  0  0  0
    1.5508   17.1977   -0.8097 H   0  0  0  0  0  0  0  0  0  0  0  0
    1.8744   15.9953   -2.0601 H   0  0  0  0  0  0  0  0  0  0  0  0
    5.6799    9.2439   -0.3195 C   0  0  0  0  0  0  0  0  0  0  0  0
    5.8116    8.4123   -1.0061 H   0  0  0  0  0  0  0  0  0  0  0  0
    5.7094    8.8859    0.7105 H   0  0  0  0  0  0  0  0  0  0  0  0
    6.4891    9.9646   -0.4474 H   0  0  0  0  0  0  0  0  0  0  0  0
    2.9477   12.7287    6.9115 C   0  0  0  0  0  0  0  0  0  0  0  0
    2.4261   12.7895    7.8624 H   0  0  0  0  0  0  0  0  0  0  0  0
    3.8693   13.3109    6.9532 H   0  0  0  0  0  0  0  0  0  0  0  0
    3.2142   11.6926    6.6986 H   0  0  0  0  0  0  0  0  0  0  0  0
  1  2  1  0  0  0  0
  1  3  1  0  0  0  0
  3 29  1  0  0  0  0
  3 30  1  0  0  0  0
  4 25  1  0  0  0  0
  4  1  1  0  0  0  0
  5 11  2  0  0  0  0
  6 13  1  0  0  0  0
  6  1  1  0  0  0  0
  7 14  1  0  0  0  0
  7 11  1  0  0  0  0
  9 30  2  0  0  0  0
 10 37  1  0  0  0  0
 10 47  1  0  0  0  0
 11  6  1  0  0  0  0
 12 43  1  0  0  0  0
 12 25  1  0  0  0  0
 13 26  1  0  0  0  0
 14 22  1  0  0  0  0
 15 14  1  0  0  0  0
 16 24  1  0  0  0  0
 16 17  1  0  0  0  0
 18 16  1  0  0  0  0
 19 21  1  0  0  0  0
 19 29  1  0  0  0  0
 20 19  1  0  0  0  0
 22 23  1  0  0  0  0
 22 13  2  0  0  0  0
 24  4  1  0  0  0  0
 25  8  2  0  0  0  0
 26 28  1  0  0  0  0
 26 27  1  0  0  0  0
 29 31  2  0  0  0  0
 30 10  1  0  0  0  0
 31 32  1  0  0  0  0
 31 37  1  0  0  0  0
 33 35  1  0  0  0  0
 33 24  2  0  0  0  0
 34 33  1  0  0  0  0
 35 12  1  0  0  0  0
 36 35  1  0  0  0  0
 37 38  1  0  0  0  0
 39 41  1  0  0  0  0
 39  7  1  0  0  0  0
 40 39  1  0  0  0  0
 42 39  1  0  0  0  0
 43 45  1  0  0  0  0
 44 43  1  0  0  0  0
 46 43  1  0  0  0  0
 47 49  1  0  0  0  0
 47 48  1  0  0  0  0
 50 47  1  0  0  0  0
M  END
$$$$
