CSD_code = JAJXAT | q = 0 | S = 0 | Stoichiometry = C5H9Cl2NO2Pd | MND = 5
 OpenBabel04212202053D

 20 17  0  0  1  0  0  0  0  0999 V2000
   -0.7134    5.5594   10.7998 Pd  0  0  0  0  0  0  0  0  0  0  0  0
   -2.5939    6.5932   11.3167 Cl  0  0  0  0  0 15  0  0  0  0  0  0
    0.3120    7.5190   10.6229 Cl  0  0  0  0  0 15  0  0  0  0  0  0
   -1.7435    3.6498   11.1146 N   0  0  0  0  0  0  0  0  0  0  0  0
   -1.2790    1.4114   12.0149 C   0  0  0  0  0  0  0  0  0  0  0  0
   -2.2123    1.5143   12.7618 O   0  0  0  0  0  0  0  0  0  0  0  0
   -0.5490    0.3093   11.8730 O   0  0  0  0  0  0  0  0  0  0  0  0
   -0.7774    2.5534   11.1337 C   0  0  2  0  0  0  0  0  0  0  0  0
    0.5573    3.0710   11.7111 C   0  0  0  0  0  0  0  0  0  0  0  0
    1.0337    4.3312   11.0180 C   0  0  1  0  0  0  0  0  0  0  0  0
    0.8612    4.5939    9.6799 C   0  0  0  0  0  3  0  0  0  0  0  0
   -2.5083    3.4864   10.4599 H   0  0  0  0  0  0  0  0  0  0  0  0
   -2.1737    3.7455   12.0426 H   0  0  0  0  0  0  0  0  0  0  0  0
   -0.8630   -0.3985   12.4595 H   0  0  0  0  0  0  0  0  0  0  0  0
   -0.6170    2.1676   10.1219 H   0  0  0  0  0  0  0  0  0  0  0  0
    0.4170    3.2867   12.7768 H   0  0  0  0  0  0  0  0  0  0  0  0
    1.3183    2.2899   11.6253 H   0  0  0  0  0  0  0  0  0  0  0  0
    1.7896    4.8905   11.5696 H   0  0  0  0  0  0  0  0  0  0  0  0
    1.4759    5.3519    9.2065 H   0  0  0  0  0  0  0  0  0  0  0  0
    0.4007    3.8720    9.0103 H   0  0  0  0  0  0  0  0  0  0  0  0
  1 10  1  0  0  0  0
  4  8  1  0  0  0  0
  4 13  1  0  0  0  0
  5  6  2  0  0  0  0
  7  5  1  0  0  0  0
  7 14  1  0  0  0  0
  8 15  1  6  0  0  0
  8  9  1  0  0  0  0
  8  5  1  0  0  0  0
  9 16  1  0  0  0  0
 10 18  1  1  0  0  0
 10  9  1  0  0  0  0
 11 10  1  0  0  0  0
 12  4  1  0  0  0  0
 17  9  1  0  0  0  0
 19 11  1  0  0  0  0
 20 11  1  0  0  0  0
M  END
$$$$
