CSD_code = JAJYAX | q = 0 | S = 0 | Stoichiometry = C16H18Cl2Zr | MND = 12
 OpenBabel04212202053D

 37 40  0  0  1  0  0  0  0  0999 V2000
    2.1789    7.7717    3.5624 Zr  0  0  0  0  0  0  0  0  0  0  0  0
    2.6230    7.2324    5.7737 Cl  0  0  0  0  0  0  0  0  0  0  0  0
    0.8042    9.5577    4.1590 Cl  0  0  0  0  0  0  0  0  0  0  0  0
    3.1704    6.4902    1.0110 C   0  0  1  0  0  0  0  0  0  0  0  0
    3.2006    6.6674   -0.5057 C   0  0  0  0  0  0  0  0  0  0  0  0
    3.8207    5.1536    1.4681 C   0  0  0  0  0  0  0  0  0  0  0  0
    2.9983    4.5534    2.6549 C   0  0  0  0  0  0  0  0  0  0  0  0
    3.7746    4.4821    3.9747 C   0  0  0  0  0  0  0  0  0  0  0  0
    2.5066    3.1435    2.2931 C   0  0  0  0  0  0  0  0  0  0  0  0
    3.7453    7.6958    1.7573 C   0  0  1  0  0  0  0  0  0  0  0  0
    3.1695    8.9949    1.6822 C   0  0  0  0  0  3  0  0  0  0  0  0
    3.6290    9.7540    2.7798 C   0  0  0  0  0  0  0  0  0  0  0  0
    4.4621    8.9320    3.5618 C   0  0  0  0  0  0  0  0  0  0  0  0
    4.5312    7.6584    2.9427 C   0  0  0  0  0  3  0  0  0  0  0  0
    1.7881    6.3899    1.6400 C   0  0  1  0  0  0  0  0  0  0  0  0
    1.8276    5.4988    2.7341 C   0  0  0  0  0  0  0  0  0  0  0  0
    0.6882    5.7192    3.5411 C   0  0  0  0  0  0  0  0  0  0  0  0
   -0.0498    6.7645    2.9286 C   0  0  0  0  0  0  0  0  0  0  0  0
    0.6362    7.2041    1.7645 C   0  0  0  0  0  0  0  0  0  0  0  0
    0.2546    7.9292    1.0543 H   0  0  0  0  0  0  0  0  0  0  0  0
    2.5676    9.3830    0.8684 H   0  0  0  0  0  0  0  0  0  0  0  0
    3.4443   10.8088    2.9398 H   0  0  0  0  0  0  0  0  0  0  0  0
    5.0476    9.2474    4.4175 H   0  0  0  0  0  0  0  0  0  0  0  0
    0.3635    5.1315    4.3920 H   0  0  0  0  0  0  0  0  0  0  0  0
    3.7915    4.4548    0.6312 H   0  0  0  0  0  0  0  0  0  0  0  0
    5.2297    6.8857    3.2358 H   0  0  0  0  0  0  0  0  0  0  0  0
    4.8679    5.2938    1.7309 H   0  0  0  0  0  0  0  0  0  0  0  0
   -1.0343    7.0993    3.2358 H   0  0  0  0  0  0  0  0  0  0  0  0
    3.1841    3.9457    4.7154 H   0  0  0  0  0  0  0  0  0  0  0  0
    1.9238    3.1688    1.3753 H   0  0  0  0  0  0  0  0  0  0  0  0
    4.7115    3.9452    3.8381 H   0  0  0  0  0  0  0  0  0  0  0  0
    1.8750    2.7499    3.0857 H   0  0  0  0  0  0  0  0  0  0  0  0
    3.3504    2.4706    2.1571 H   0  0  0  0  0  0  0  0  0  0  0  0
    3.9789    5.4773    4.3765 H   0  0  0  0  0  0  0  0  0  0  0  0
    2.6815    5.8448   -0.9923 H   0  0  0  0  0  0  0  0  0  0  0  0
    2.7137    7.5963   -0.7916 H   0  0  0  0  0  0  0  0  0  0  0  0
    4.2284    6.6947   -0.8604 H   0  0  0  0  0  0  0  0  0  0  0  0
  1  3  1  0  0  0  0
  1  2  1  0  0  0  0
  4  5  1  6  0  0  0
  4  6  1  0  0  0  0
  4 15  1  0  0  0  0
  4 10  1  0  0  0  0
  6 27  1  0  0  0  0
  6  7  1  0  0  0  0
  7 16  1  0  0  0  0
  7  8  1  0  0  0  0
  8 34  1  0  0  0  0
  8 29  1  0  0  0  0
  9  7  1  0  0  0  0
  9 32  1  0  0  0  0
 10 11  1  6  0  0  0
 10 14  1  0  0  0  0
 10  1  1  0  0  0  0
 11 12  1  0  0  0  0
 12 22  1  0  0  0  0
 12 13  2  0  0  0  0
 13 23  1  0  0  0  0
 14 26  1  0  0  0  0
 14 13  1  0  0  0  0
 15 19  1  6  0  0  0
 15 16  1  0  0  0  0
 15  1  1  0  0  0  0
 16 17  2  0  0  0  0
 17 24  1  0  0  0  0
 18 28  1  0  0  0  0
 18 17  1  0  0  0  0
 19 18  2  0  0  0  0
 20 19  1  0  0  0  0
 21 11  1  0  0  0  0
 25  6  1  0  0  0  0
 30  9  1  0  0  0  0
 31  8  1  0  0  0  0
 33  9  1  0  0  0  0
 35  5  1  0  0  0  0
 36  5  1  0  0  0  0
 37  5  1  0  0  0  0
M  END
$$$$
