CSD_code = JAKWEY | q = 0 | S = 0 | Stoichiometry = C26H26ClN2OPPdS | MND = 4
 OpenBabel04212202053D

 59 63  0  0  0  0  0  0  0  0999 V2000
   13.2591    8.4085    9.6320 Pd  0  0  2  0  0  0  0  0  0  0  0  0
   11.3078    9.3539   10.5763 Cl  0  0  0  0  0  0  0  0  0  0  0  0
   12.0892    6.6581    8.9572 P   0  0  0  0  0  4  0  0  0  0  0  0
   10.6452    6.5658    9.8354 N   0  0  0  0  0  0  0  0  0  0  0  0
   10.4288    7.4432   10.3262 H   0  0  0  0  0  0  0  0  0  0  0  0
   10.0847    4.4386    9.3279 O   0  0  0  0  0  0  0  0  0  0  0  0
    9.8555    5.4587    9.9517 C   0  0  0  0  0  0  0  0  0  0  0  0
    8.7289    5.5934   10.8722 C   0  0  0  0  0  0  0  0  0  0  0  0
    7.6673    4.2350   11.0442 S   0  0  0  0  0  0  0  0  0  0  0  0
    6.7109    5.0952   12.1734 C   0  0  0  0  0  0  0  0  0  0  0  0
    5.8509    4.6230   12.6060 H   0  0  0  0  0  0  0  0  0  0  0  0
    7.1792    6.3532   12.4065 C   0  0  0  0  0  0  0  0  0  0  0  0
    6.7153    7.0473   13.0841 H   0  0  0  0  0  0  0  0  0  0  0  0
    8.3360    6.6434   11.6625 C   0  0  0  0  0  0  0  0  0  0  0  0
    8.8488    7.5874   11.7153 H   0  0  0  0  0  0  0  0  0  0  0  0
   11.5804    6.7585    7.2148 C   0  0  0  0  0  0  0  0  0  0  0  0
   10.7641    5.8320    6.5749 C   0  0  0  0  0  0  0  0  0  0  0  0
   10.4082    4.9666    7.1136 H   0  0  0  0  0  0  0  0  0  0  0  0
   10.4010    6.0436    5.2559 C   0  0  0  0  0  0  0  0  0  0  0  0
    9.7683    5.3267    4.7534 H   0  0  0  0  0  0  0  0  0  0  0  0
   10.8399    7.1711    4.5802 C   0  0  0  0  0  0  0  0  0  0  0  0
   10.5519    7.3277    3.5510 H   0  0  0  0  0  0  0  0  0  0  0  0
   11.6371    8.1056    5.2233 C   0  0  0  0  0  0  0  0  0  0  0  0
   11.9655    8.9902    4.6977 H   0  0  0  0  0  0  0  0  0  0  0  0
   12.0031    7.9020    6.5404 C   0  0  0  0  0  0  0  0  0  0  0  0
   12.6234    8.6303    7.0754 H   0  0  0  0  0  0  0  0  0  0  0  0
   12.9056    5.0816    9.3357 C   0  0  0  0  0  0  0  0  0  0  0  0
   13.5328    5.0906   10.5788 C   0  0  0  0  0  0  0  0  0  0  0  0
   13.4827    5.9999   11.1854 H   0  0  0  0  0  0  0  0  0  0  0  0
   14.2145    3.9735   11.0192 C   0  0  0  0  0  0  0  0  0  0  0  0
   14.6974    3.9740   11.9855 H   0  0  0  0  0  0  0  0  0  0  0  0
   14.2845    2.8512   10.2074 C   0  0  0  0  0  0  0  0  0  0  0  0
   14.8186    1.9757   10.5463 H   0  0  0  0  0  0  0  0  0  0  0  0
   13.6816    2.8523    8.9608 C   0  0  0  0  0  0  0  0  0  0  0  0
   13.7485    1.9781    8.3301 H   0  0  0  0  0  0  0  0  0  0  0  0
   12.9920    3.9675    8.5169 C   0  0  0  0  0  0  0  0  0  0  0  0
   12.5225    3.9687    7.5452 H   0  0  0  0  0  0  0  0  0  0  0  0
   14.4760   10.0156   10.2888 N   0  0  0  0  0  4  0  0  0  0  0  0
   14.3302   10.9920    9.2066 C   0  0  0  0  0  0  0  0  0  0  0  0
   14.9119   11.9015    9.4176 H   0  0  0  0  0  0  0  0  0  0  0  0
   13.2749   11.2673    9.1013 H   0  0  0  0  0  0  0  0  0  0  0  0
   14.6861   10.5594    8.2655 H   0  0  0  0  0  0  0  0  0  0  0  0
   14.1177   10.6358   11.5619 C   0  0  0  0  0  0  0  0  0  0  0  0
   14.8126   11.4503   11.8106 H   0  0  0  0  0  0  0  0  0  0  0  0
   14.1434    9.8866   12.3570 H   0  0  0  0  0  0  0  0  0  0  0  0
   13.1063   11.0401   11.5069 H   0  0  0  0  0  0  0  0  0  0  0  0
   15.8579    9.5134   10.3406 C   0  0  0  0  0  0  0  0  0  0  0  0
   16.0022    9.0085   11.3050 H   0  0  0  0  0  0  0  0  0  0  0  0
   16.5740   10.3494   10.2863 H   0  0  0  0  0  0  0  0  0  0  0  0
   16.0796    8.5145    9.2338 C   0  0  0  0  0  0  0  0  0  0  0  0
   17.3367    8.3034    8.6878 C   0  0  0  0  0  0  0  0  0  0  0  0
   18.1815    8.8759    9.0472 H   0  0  0  0  0  0  0  0  0  0  0  0
   17.5091    7.3624    7.6879 C   0  0  0  0  0  0  0  0  0  0  0  0
   18.4892    7.1957    7.2658 H   0  0  0  0  0  0  0  0  0  0  0  0
   16.4188    6.6450    7.2303 C   0  0  0  0  0  0  0  0  0  0  0  0
   16.5440    5.9130    6.4452 H   0  0  0  0  0  0  0  0  0  0  0  0
   15.1610    6.8628    7.7726 C   0  0  0  0  0  0  0  0  0  0  0  0
   14.3235    6.2893    7.3882 H   0  0  0  0  0  0  0  0  0  0  0  0
   14.9672    7.7881    8.7900 C   0  0  0  0  0  0  0  0  0  0  0  0
  1 38  1  0  0  0  0
  1  2  1  6  0  0  0
  3 27  1  0  0  0  0
  3  1  1  0  0  0  0
  3  4  1  0  0  0  0
  4  7  1  0  0  0  0
  4  5  1  0  0  0  0
  6  7  2  0  0  0  0
  7  8  1  0  0  0  0
  8  9  1  0  0  0  0
  8 14  2  0  0  0  0
  9 10  1  0  0  0  0
 10 12  2  0  0  0  0
 10 11  1  0  0  0  0
 12 13  1  0  0  0  0
 14 15  1  0  0  0  0
 14 12  1  0  0  0  0
 16  3  1  0  0  0  0
 17 18  1  0  0  0  0
 17 16  1  0  0  0  0
 19 17  2  0  0  0  0
 20 19  1  0  0  0  0
 21 23  2  0  0  0  0
 21 19  1  0  0  0  0
 22 21  1  0  0  0  0
 23 25  1  0  0  0  0
 24 23  1  0  0  0  0
 25 26  1  0  0  0  0
 25 16  2  0  0  0  0
 27 28  1  0  0  0  0
 28 30  2  0  0  0  0
 28 29  1  0  0  0  0
 30 31  1  0  0  0  0
 32 33  1  0  0  0  0
 32 30  1  0  0  0  0
 34 32  2  0  0  0  0
 35 34  1  0  0  0  0
 36 34  1  0  0  0  0
 36 27  2  0  0  0  0
 37 36  1  0  0  0  0
 38 47  1  0  0  0  0
 38 43  1  0  0  0  0
 39 40  1  0  0  0  0
 39 38  1  0  0  0  0
 41 39  1  0  0  0  0
 42 39  1  0  0  0  0
 43 44  1  0  0  0  0
 43 45  1  0  0  0  0
 46 43  1  0  0  0  0
 47 48  1  0  0  0  0
 49 47  1  0  0  0  0
 50 47  1  0  0  0  0
 51 52  1  0  0  0  0
 51 50  2  0  0  0  0
 53 51  1  0  0  0  0
 54 53  1  0  0  0  0
 55 53  2  0  0  0  0
 55 57  1  0  0  0  0
 56 55  1  0  0  0  0
 57 59  2  0  0  0  0
 58 57  1  0  0  0  0
 59 50  1  0  0  0  0
 59  1  1  0  0  0  0
M  END
$$$$
