CSD_code = JALWID | q = 0 | S = 0 | Stoichiometry = C22H32Cl2N2O2Zr | MND = 6
 OpenBabel04212202053D

 61 62  0  0  0  0  0  0  0  0999 V2000
   -0.0001   -0.0002    6.4017 Zr  0  0  0  0  0  0  0  0  0  0  0  0
    1.9413    1.3106    5.8462 Cl  0  0  0  0  0  0  0  0  0  0  0  0
   -1.0750    0.9719    7.8419 N   0  0  0  0  0  0  0  0  0  0  0  0
   -1.6548    2.1597    7.4900 C   0  0  0  0  0  0  0  0  0  0  0  0
   -2.9980    2.5114    7.7393 C   0  0  0  0  0  0  0  0  0  0  0  0
   -3.6526    1.8250    8.2543 H   0  0  0  0  0  0  0  0  0  0  0  0
   -3.5009    3.7279    7.3200 C   0  0  0  0  0  0  0  0  0  0  0  0
   -4.5374    3.9640    7.5174 H   0  0  0  0  0  0  0  0  0  0  0  0
   -2.7023    4.6442    6.6566 C   0  0  0  0  0  0  0  0  0  0  0  0
   -3.1059    5.5925    6.3356 H   0  0  0  0  0  0  0  0  0  0  0  0
   -1.3662    4.3338    6.4346 C   0  0  0  0  0  0  0  0  0  0  0  0
   -0.7205    5.0550    5.9513 H   0  0  0  0  0  0  0  0  0  0  0  0
   -0.8467    3.1239    6.8415 C   0  0  0  0  0  0  0  0  0  0  0  0
    0.2128    2.9137    6.7207 H   0  0  0  0  0  0  0  0  0  0  0  0
   -1.8324    0.1050    8.7363 C   0  0  0  0  0  0  0  0  0  0  0  0
   -1.1927   -0.7369    9.0291 H   0  0  0  0  0  0  0  0  0  0  0  0
   -2.7401   -0.2996    8.2615 H   0  0  0  0  0  0  0  0  0  0  0  0
   -2.1297    0.6532    9.6410 H   0  0  0  0  0  0  0  0  0  0  0  0
   -0.8709    1.1647    4.5825 O   0  0  0  0  0  0  0  0  0  0  0  0
   -2.2811    1.3382    4.3306 C   0  0  0  0  0  0  0  0  0  0  0  0
   -2.7985    1.4448    5.2885 H   0  0  0  0  0  0  0  0  0  0  0  0
   -2.6595    0.4438    3.8165 H   0  0  0  0  0  0  0  0  0  0  0  0
   -2.4006    2.5709    3.4445 C   0  0  0  0  0  0  0  0  0  0  0  0
   -2.3587    3.4739    4.0537 H   0  0  0  0  0  0  0  0  0  0  0  0
   -3.3188    2.5706    2.8630 H   0  0  0  0  0  0  0  0  0  0  0  0
   -1.1439    2.4431    2.5903 C   0  0  0  0  0  0  0  0  0  0  0  0
   -1.2966    1.7065    1.7997 H   0  0  0  0  0  0  0  0  0  0  0  0
   -0.8328    3.3826    2.1410 H   0  0  0  0  0  0  0  0  0  0  0  0
   -0.1319    1.9387    3.6148 C   0  0  0  0  0  0  0  0  0  0  0  0
    0.3500    2.7758    4.1338 H   0  0  0  0  0  0  0  0  0  0  0  0
    0.6451    1.3028    3.1772 H   0  0  0  0  0  0  0  0  0  0  0  0
   -1.9421   -1.3097    5.8479 Cl  0  0  0  0  0  0  0  0  0  0  0  0
    1.0751   -0.9720    7.8419 N   0  0  0  0  0  0  0  0  0  0  0  0
    1.6548   -2.1598    7.4901 C   0  0  0  0  0  0  0  0  0  0  0  0
    2.9980   -2.5116    7.7393 C   0  0  0  0  0  0  0  0  0  0  0  0
    3.6526   -1.8252    8.2543 H   0  0  0  0  0  0  0  0  0  0  0  0
    3.5008   -3.7280    7.3200 C   0  0  0  0  0  0  0  0  0  0  0  0
    4.5373   -3.9642    7.5174 H   0  0  0  0  0  0  0  0  0  0  0  0
    2.7022   -4.6443    6.6566 C   0  0  0  0  0  0  0  0  0  0  0  0
    3.1058   -5.5927    6.3357 H   0  0  0  0  0  0  0  0  0  0  0  0
    1.3661   -4.3339    6.4347 C   0  0  0  0  0  0  0  0  0  0  0  0
    0.7204   -5.0550    5.9514 H   0  0  0  0  0  0  0  0  0  0  0  0
    0.8466   -3.1240    6.8416 C   0  0  0  0  0  0  0  0  0  0  0  0
   -0.2129   -2.9137    6.7207 H   0  0  0  0  0  0  0  0  0  0  0  0
    1.8326   -0.1051    8.7363 C   0  0  0  0  0  0  0  0  0  0  0  0
    1.1929    0.7369    9.0291 H   0  0  0  0  0  0  0  0  0  0  0  0
    2.7403    0.2994    8.2615 H   0  0  0  0  0  0  0  0  0  0  0  0
    2.1298   -0.6532    9.6410 H   0  0  0  0  0  0  0  0  0  0  0  0
    0.8710   -1.1646    4.5825 O   0  0  0  0  0  0  0  0  0  0  0  0
    2.2812   -1.3382    4.3306 C   0  0  0  0  0  0  0  0  0  0  0  0
    2.7985   -1.4448    5.2886 H   0  0  0  0  0  0  0  0  0  0  0  0
    2.6596   -0.4438    3.8165 H   0  0  0  0  0  0  0  0  0  0  0  0
    2.4006   -2.5709    3.4446 C   0  0  0  0  0  0  0  0  0  0  0  0
    2.3587   -3.4739    4.0538 H   0  0  0  0  0  0  0  0  0  0  0  0
    3.3189   -2.5707    2.8630 H   0  0  0  0  0  0  0  0  0  0  0  0
    1.1440   -2.4430    2.5902 C   0  0  0  0  0  0  0  0  0  0  0  0
    1.2967   -1.7064    1.7997 H   0  0  0  0  0  0  0  0  0  0  0  0
    0.8329   -3.3825    2.1409 H   0  0  0  0  0  0  0  0  0  0  0  0
    0.1320   -1.9386    3.6147 C   0  0  0  0  0  0  0  0  0  0  0  0
   -0.3499   -2.7756    4.1337 H   0  0  0  0  0  0  0  0  0  0  0  0
   -0.6449   -1.3026    3.1771 H   0  0  0  0  0  0  0  0  0  0  0  0
  1  3  1  0  0  0  0
  1 33  1  0  0  0  0
  2  1  1  0  0  0  0
  3 15  1  0  0  0  0
  4  5  1  0  0  0  0
  4  3  1  0  0  0  0
  5  6  1  0  0  0  0
  7  8  1  0  0  0  0
  7  5  2  0  0  0  0
  9  7  1  0  0  0  0
 10  9  1  0  0  0  0
 11  9  2  0  0  0  0
 11 13  1  0  0  0  0
 12 11  1  0  0  0  0
 13  4  2  0  0  0  0
 14 13  1  0  0  0  0
 15 16  1  0  0  0  0
 15 18  1  0  0  0  0
 17 15  1  0  0  0  0
 20 19  1  0  0  0  0
 20 21  1  0  0  0  0
 22 20  1  0  0  0  0
 23 24  1  0  0  0  0
 23 20  1  0  0  0  0
 25 23  1  0  0  0  0
 26 23  1  0  0  0  0
 26 29  1  0  0  0  0
 27 26  1  0  0  0  0
 28 26  1  0  0  0  0
 29 30  1  0  0  0  0
 29 19  1  0  0  0  0
 31 29  1  0  0  0  0
 32  1  1  0  0  0  0
 33 45  1  0  0  0  0
 34 35  1  0  0  0  0
 34 33  1  0  0  0  0
 35 36  1  0  0  0  0
 37 38  1  0  0  0  0
 37 35  2  0  0  0  0
 39 37  1  0  0  0  0
 40 39  1  0  0  0  0
 41 39  2  0  0  0  0
 41 43  1  0  0  0  0
 42 41  1  0  0  0  0
 43 34  2  0  0  0  0
 44 43  1  0  0  0  0
 45 46  1  0  0  0  0
 45 48  1  0  0  0  0
 47 45  1  0  0  0  0
 50 49  1  0  0  0  0
 50 51  1  0  0  0  0
 52 50  1  0  0  0  0
 53 54  1  0  0  0  0
 53 50  1  0  0  0  0
 55 53  1  0  0  0  0
 56 53  1  0  0  0  0
 56 59  1  0  0  0  0
 57 56  1  0  0  0  0
 58 56  1  0  0  0  0
 59 60  1  0  0  0  0
 59 49  1  0  0  0  0
 61 59  1  0  0  0  0
M  END
$$$$
