CSD_code = JAMFUB | q = 0 | S = 0 | Stoichiometry = C22H32CuIN4 | MND = 4
 OpenBabel04212202053D

 60 64  0  0  1  0  0  0  0  0999 V2000
   12.1213    6.2381    8.8390 Cu  0  0  1  0  0  0  0  0  0  0  0  0
   14.4011    5.2692    8.9049 I   0  0  0  0  0  0  0  0  0  0  0  0
   11.1399    7.6086   10.0054 N   0  0  0  0  0  0  0  0  0  0  0  0
   11.0528    7.2405    7.4037 N   0  0  0  0  0  0  0  0  0  0  0  0
   10.1358    5.1534    9.0581 N   0  0  1  0  0  4  0  0  0  0  0  0
   13.0578    9.8287    8.2987 N   0  0  0  0  0  0  0  0  0  0  0  0
    9.5131    5.8403   10.1886 C   0  0  0  0  0  0  0  0  0  0  0  0
    9.8962    5.4115   11.1157 H   0  0  0  0  0  0  0  0  0  0  0  0
    8.4171    5.7292   10.1810 H   0  0  0  0  0  0  0  0  0  0  0  0
    9.8563    7.3067   10.2049 C   0  0  2  0  0  3  0  0  0  0  0  0
    8.8981    8.2850   10.4097 C   0  0  0  0  0  0  0  0  0  0  0  0
    7.8686    8.0107   10.5828 H   0  0  0  0  0  0  0  0  0  0  0  0
    9.2846    9.6173   10.3726 C   0  0  0  0  0  0  0  0  0  0  0  0
    8.5590   10.4018   10.5276 H   0  0  0  0  0  0  0  0  0  0  0  0
   10.6092    9.9193   10.1136 C   0  0  0  0  0  0  0  0  0  0  0  0
   10.9486   10.9398   10.0421 H   0  0  0  0  0  0  0  0  0  0  0  0
   11.5160    8.8829    9.9268 C   0  0  0  0  0  0  0  0  0  0  0  0
   12.9549    9.1756    9.6016 C   0  0  0  0  0  0  0  0  0  0  0  0
   13.3406    9.8382   10.3736 H   0  0  0  0  0  0  0  0  0  0  0  0
   13.5196    8.2328    9.6383 H   0  0  0  0  0  0  0  0  0  0  0  0
    9.4349    5.5034    7.8237 C   0  0  0  0  0  0  0  0  0  0  0  0
    8.3427    5.4107    7.9340 H   0  0  0  0  0  0  0  0  0  0  0  0
    9.7590    4.8274    7.0311 H   0  0  0  0  0  0  0  0  0  0  0  0
    9.7634    6.9025    7.3727 C   0  0  1  0  0  3  0  0  0  0  0  0
    8.7857    7.7880    6.9513 C   0  0  0  0  0  0  0  0  0  0  0  0
    7.7507    7.4827    6.9227 H   0  0  0  0  0  0  0  0  0  0  0  0
    9.1609    9.0721    6.5823 C   0  0  0  0  0  0  0  0  0  0  0  0
    8.4201    9.7837    6.2495 H   0  0  0  0  0  0  0  0  0  0  0  0
   10.4950    9.4268    6.6679 C   0  0  0  0  0  0  0  0  0  0  0  0
   10.8286   10.4218    6.4222 H   0  0  0  0  0  0  0  0  0  0  0  0
   11.4206    8.4815    7.0930 C   0  0  0  0  0  0  0  0  0  0  0  0
   12.8734    8.8416    7.2366 C   0  0  0  0  0  0  0  0  0  0  0  0
   13.4421    7.9203    7.4280 H   0  0  0  0  0  0  0  0  0  0  0  0
   13.2073    9.2612    6.2892 H   0  0  0  0  0  0  0  0  0  0  0  0
   10.3202    3.6925    9.2593 C   0  0  0  0  0  0  0  0  0  0  0  0
    8.9833    2.9519    9.4050 C   0  0  0  0  0  0  0  0  0  0  0  0
    8.4214    3.3133   10.2639 H   0  0  0  0  0  0  0  0  0  0  0  0
    9.1757    1.8922    9.5507 H   0  0  0  0  0  0  0  0  0  0  0  0
    8.3691    3.0631    8.5137 H   0  0  0  0  0  0  0  0  0  0  0  0
   11.1650    3.4597   10.5192 C   0  0  0  0  0  0  0  0  0  0  0  0
   11.9934    4.1622   10.5520 H   0  0  0  0  0  0  0  0  0  0  0  0
   11.5779    2.4552   10.5037 H   0  0  0  0  0  0  0  0  0  0  0  0
   10.5821    3.5527   11.4332 H   0  0  0  0  0  0  0  0  0  0  0  0
   11.0903    3.1134    8.0647 C   0  0  0  0  0  0  0  0  0  0  0  0
   10.4515    2.9482    7.1995 H   0  0  0  0  0  0  0  0  0  0  0  0
   11.5188    2.1526    8.3347 H   0  0  0  0  0  0  0  0  0  0  0  0
   11.9043    3.7765    7.7847 H   0  0  0  0  0  0  0  0  0  0  0  0
   14.2265   10.7116    8.1208 C   0  0  0  0  0  0  0  0  0  0  0  0
   14.2715   11.7367    9.2652 C   0  0  0  0  0  0  0  0  0  0  0  0
   13.2771   12.1329    9.4558 H   0  0  0  0  0  0  0  0  0  0  0  0
   14.9209   12.5625    8.9872 H   0  0  0  0  0  0  0  0  0  0  0  0
   14.6716   11.3114   10.1818 H   0  0  0  0  0  0  0  0  0  0  0  0
   14.0409   11.5123    6.8213 C   0  0  0  0  0  0  0  0  0  0  0  0
   14.2118   10.9104    5.9331 H   0  0  0  0  0  0  0  0  0  0  0  0
   14.7529   12.3327    6.7922 H   0  0  0  0  0  0  0  0  0  0  0  0
   13.0358   11.9251    6.7814 H   0  0  0  0  0  0  0  0  0  0  0  0
   15.5526    9.9411    8.0758 C   0  0  0  0  0  0  0  0  0  0  0  0
   15.6898    9.3570    8.9825 H   0  0  0  0  0  0  0  0  0  0  0  0
   16.3832   10.6366    7.9867 H   0  0  0  0  0  0  0  0  0  0  0  0
   15.5826    9.2622    7.2274 H   0  0  0  0  0  0  0  0  0  0  0  0
  1  2  1  1  0  0  0
  1  5  1  0  0  0  0
  1  3  1  0  0  0  0
  3 10  1  0  0  0  0
  4  1  1  0  0  0  0
  5 35  1  1  0  0  0
  5  7  1  0  0  0  0
  6 18  1  0  0  0  0
  7 10  1  0  0  0  0
  7  8  1  0  0  0  0
  9  7  1  0  0  0  0
 10 11  1  6  0  0  0
 11 12  1  0  0  0  0
 13 11  2  0  0  0  0
 13 14  1  0  0  0  0
 15 13  1  0  0  0  0
 16 15  1  0  0  0  0
 17  3  1  0  0  0  0
 17 15  2  0  0  0  0
 18 20  1  0  0  0  0
 18 17  1  0  0  0  0
 18 19  1  0  0  0  0
 21 22  1  0  0  0  0
 21  5  1  0  0  0  0
 23 21  1  0  0  0  0
 24 25  1  1  0  0  0
 24  4  1  0  0  0  0
 24 21  1  0  0  0  0
 26 25  1  0  0  0  0
 27 29  1  0  0  0  0
 27 25  2  0  0  0  0
 28 27  1  0  0  0  0
 29 31  2  0  0  0  0
 30 29  1  0  0  0  0
 31 32  1  0  0  0  0
 31  4  1  0  0  0  0
 32 33  1  0  0  0  0
 32  6  1  0  0  0  0
 34 32  1  0  0  0  0
 35 36  1  0  0  0  0
 35 40  1  0  0  0  0
 36 38  1  0  0  0  0
 36 37  1  0  0  0  0
 39 36  1  0  0  0  0
 40 41  1  0  0  0  0
 40 43  1  0  0  0  0
 42 40  1  0  0  0  0
 44 46  1  0  0  0  0
 44 35  1  0  0  0  0
 45 44  1  0  0  0  0
 47 44  1  0  0  0  0
 48  6  1  0  0  0  0
 48 49  1  0  0  0  0
 49 50  1  0  0  0  0
 49 52  1  0  0  0  0
 51 49  1  0  0  0  0
 53 48  1  0  0  0  0
 54 53  1  0  0  0  0
 55 53  1  0  0  0  0
 56 53  1  0  0  0  0
 57 48  1  0  0  0  0
 57 58  1  0  0  0  0
 59 57  1  0  0  0  0
 60 57  1  0  0  0  0
M  END
$$$$
