CSD_code = JAMGAI | q = 0 | S = 0 | Stoichiometry = C24H32CuIN4O4 | MND = 4
 OpenBabel04212202053D

 66 70  0  0  1  0  0  0  0  0999 V2000
    7.0708    4.2356    6.3739 Cu  0  0  1  0  0  0  0  0  0  0  0  0
    9.1363    4.0271    7.6810 I   0  0  0  0  0  0  0  0  0  0  0  0
    5.3091    3.2391    6.2303 N   0  0  0  0  0  0  0  0  0  0  0  0
    5.9695    5.6966    5.4898 N   0  0  0  0  0  0  0  0  0  0  0  0
    7.2313    3.5639    4.2176 N   0  0  1  0  0  4  0  0  0  0  0  0
    4.3498    5.5986    8.4628 N   0  0  0  0  0  0  0  0  0  0  0  0
   10.6731    1.2267    3.1163 O   0  0  0  0  0  0  0  0  0  0  0  0
   11.0986    2.9754    1.7702 O   0  0  0  0  0  0  0  0  0  0  0  0
    2.7784    8.7650   11.6976 O   0  0  0  0  0  0  0  0  0  0  0  0
    2.3838    6.5717   11.9618 O   0  0  0  0  0  0  0  0  0  0  0  0
    6.2613    2.4780    4.1575 C   0  0  0  0  0  0  0  0  0  0  0  0
    6.7378    1.5849    4.5748 H   0  0  0  0  0  0  0  0  0  0  0  0
    5.9457    2.2578    3.1259 H   0  0  0  0  0  0  0  0  0  0  0  0
    5.0510    2.7986    4.9968 C   0  0  2  0  0  3  0  0  0  0  0  0
    3.7574    2.6747    4.5221 C   0  0  0  0  0  0  0  0  0  0  0  0
    3.5766    2.3043    3.5246 H   0  0  0  0  0  0  0  0  0  0  0  0
    2.7038    3.0460    5.3473 C   0  0  0  0  0  0  0  0  0  0  0  0
    1.6845    2.9629    5.0019 H   0  0  0  0  0  0  0  0  0  0  0  0
    2.9849    3.5372    6.6099 C   0  0  0  0  0  0  0  0  0  0  0  0
    2.2011    3.8606    7.2752 H   0  0  0  0  0  0  0  0  0  0  0  0
    4.3092    3.6233    7.0208 C   0  0  0  0  0  0  0  0  0  0  0  0
    4.6635    4.1751    8.3733 C   0  0  0  0  0  0  0  0  0  0  0  0
    4.0676    3.6527    9.1260 H   0  0  0  0  0  0  0  0  0  0  0  0
    5.7300    3.9750    8.5692 H   0  0  0  0  0  0  0  0  0  0  0  0
    6.8191    4.7325    3.4513 C   0  0  0  0  0  0  0  0  0  0  0  0
    6.4468    4.4645    2.4504 H   0  0  0  0  0  0  0  0  0  0  0  0
    7.6940    5.3797    3.3307 H   0  0  0  0  0  0  0  0  0  0  0  0
    5.7594    5.5153    4.1844 C   0  0  1  0  0  3  0  0  0  0  0  0
    4.6296    6.0059    3.5529 C   0  0  0  0  0  0  0  0  0  0  0  0
    4.4907    5.8559    2.4933 H   0  0  0  0  0  0  0  0  0  0  0  0
    3.6806    6.6811    4.3084 C   0  0  0  0  0  0  0  0  0  0  0  0
    2.7895    7.0731    3.8421 H   0  0  0  0  0  0  0  0  0  0  0  0
    3.8899    6.8263    5.6684 C   0  0  0  0  0  0  0  0  0  0  0  0
    3.1671    7.3194    6.2979 H   0  0  0  0  0  0  0  0  0  0  0  0
    5.0514    6.3129    6.2312 C   0  0  0  0  0  0  0  0  0  0  0  0
    5.3018    6.4117    7.7093 C   0  0  0  0  0  0  0  0  0  0  0  0
    6.3437    6.1131    7.9139 H   0  0  0  0  0  0  0  0  0  0  0  0
    5.1717    7.4520    8.0125 H   0  0  0  0  0  0  0  0  0  0  0  0
    8.5968    3.1442    3.9618 C   0  0  0  0  0  0  0  0  0  0  0  0
    8.8635    2.3804    4.6964 H   0  0  0  0  0  0  0  0  0  0  0  0
    9.2487    4.0051    4.1318 H   0  0  0  0  0  0  0  0  0  0  0  0
    8.8537    2.5860    2.5485 C   0  0  0  0  0  0  0  0  0  0  0  0
    8.2976    1.6592    2.4047 H   0  0  0  0  0  0  0  0  0  0  0  0
    8.5715    3.3142    1.7877 H   0  0  0  0  0  0  0  0  0  0  0  0
   10.3333    2.3015    2.4070 C   0  0  0  0  0  0  0  0  0  0  0  0
   12.0596    0.8756    3.1533 C   0  0  0  0  0  0  0  0  0  0  0  0
   12.1824    0.3142    4.0812 H   0  0  0  0  0  0  0  0  0  0  0  0
   12.6532    1.7941    3.1914 H   0  0  0  0  0  0  0  0  0  0  0  0
   12.4558    0.0414    1.9443 C   0  0  0  0  0  0  0  0  0  0  0  0
   11.8392   -0.8523    1.8830 H   0  0  0  0  0  0  0  0  0  0  0  0
   13.4978   -0.2519    2.0322 H   0  0  0  0  0  0  0  0  0  0  0  0
   12.3298    0.6228    1.0341 H   0  0  0  0  0  0  0  0  0  0  0  0
    4.2430    6.0425    9.8450 C   0  0  0  0  0  0  0  0  0  0  0  0
    5.2290    6.1445   10.3239 H   0  0  0  0  0  0  0  0  0  0  0  0
    3.6752    5.2906   10.3983 H   0  0  0  0  0  0  0  0  0  0  0  0
    3.4677    7.3577    9.9528 C   0  0  0  0  0  0  0  0  0  0  0  0
    4.0863    8.2382    9.7835 H   0  0  0  0  0  0  0  0  0  0  0  0
    2.6648    7.3466    9.2110 H   0  0  0  0  0  0  0  0  0  0  0  0
    2.8156    7.4881   11.3147 C   0  0  0  0  0  0  0  0  0  0  0  0
    2.1586    9.0550   12.9544 C   0  0  0  0  0  0  0  0  0  0  0  0
    2.5892   10.0080   13.2673 H   0  0  0  0  0  0  0  0  0  0  0  0
    2.4271    8.2699   13.6683 H   0  0  0  0  0  0  0  0  0  0  0  0
    0.6460    9.1511   12.8215 C   0  0  0  0  0  0  0  0  0  0  0  0
    0.3795    9.8961   12.0757 H   0  0  0  0  0  0  0  0  0  0  0  0
    0.2149    9.4352   13.7770 H   0  0  0  0  0  0  0  0  0  0  0  0
    0.2377    8.1885   12.5238 H   0  0  0  0  0  0  0  0  0  0  0  0
  1  2  1  1  0  0  0
  3  1  1  0  0  0  0
  3 21  1  0  0  0  0
  4 35  1  0  0  0  0
  4  1  1  0  0  0  0
  5 39  1  6  0  0  0
  5  1  1  0  0  0  0
  6 53  1  0  0  0  0
  7 46  1  0  0  0  0
  8 45  2  0  0  0  0
  9 60  1  0  0  0  0
 11  5  1  0  0  0  0
 11 12  1  0  0  0  0
 11 14  1  0  0  0  0
 13 11  1  0  0  0  0
 14 15  1  6  0  0  0
 14  3  1  0  0  0  0
 15 17  2  0  0  0  0
 16 15  1  0  0  0  0
 17 19  1  0  0  0  0
 18 17  1  0  0  0  0
 19 21  2  0  0  0  0
 19 20  1  0  0  0  0
 21 22  1  0  0  0  0
 22  6  1  0  0  0  0
 22 24  1  0  0  0  0
 22 23  1  0  0  0  0
 25 28  1  0  0  0  0
 25  5  1  0  0  0  0
 26 25  1  0  0  0  0
 27 25  1  0  0  0  0
 28 29  1  1  0  0  0
 28  4  1  0  0  0  0
 29 31  2  0  0  0  0
 30 29  1  0  0  0  0
 31 33  1  0  0  0  0
 32 31  1  0  0  0  0
 33 35  2  0  0  0  0
 33 34  1  0  0  0  0
 35 36  1  0  0  0  0
 36 37  1  0  0  0  0
 36 38  1  0  0  0  0
 36  6  1  0  0  0  0
 39 41  1  0  0  0  0
 39 40  1  0  0  0  0
 42 39  1  0  0  0  0
 43 42  1  0  0  0  0
 44 42  1  0  0  0  0
 45 42  1  0  0  0  0
 45  7  1  0  0  0  0
 46 48  1  0  0  0  0
 46 47  1  0  0  0  0
 49 51  1  0  0  0  0
 49 46  1  0  0  0  0
 50 49  1  0  0  0  0
 52 49  1  0  0  0  0
 53 56  1  0  0  0  0
 53 54  1  0  0  0  0
 53 55  1  0  0  0  0
 56 59  1  0  0  0  0
 57 56  1  0  0  0  0
 58 56  1  0  0  0  0
 59  9  1  0  0  0  0
 59 10  2  0  0  0  0
 60 61  1  0  0  0  0
 60 62  1  0  0  0  0
 63 60  1  0  0  0  0
 63 65  1  0  0  0  0
 64 63  1  0  0  0  0
 66 63  1  0  0  0  0
M  END
$$$$
