CSD_code = JAMHOV | q = 0 | S = 0 | Stoichiometry = C9H13Br2CdN5S | MND = 5
 OpenBabel04212202053D

 31 32  0  0  1  0  0  0  0  0999 V2000
    2.9985    2.6126   -0.1249 Cd  0  0  0  0  0  0  0  0  0  0  0  0
    3.3294    5.0123    0.4759 Br  0  0  0  0  0  0  0  0  0  0  0  0
    4.7471    1.2736   -1.4387 Br  0  0  0  0  0  0  0  0  0  0  0  0
    0.5555    1.6695   -1.1796 S   0  0  0  0  0  0  0  0  0  0  0  0
    3.6152    1.8300    2.2236 N   0  0  0  0  0  0  0  0  0  0  0  0
    2.4027    0.1217    0.5298 N   0  0  0  0  0  0  0  0  0  0  0  0
    1.9501   -0.5089   -0.5806 N   0  0  0  0  0  0  0  0  0  0  0  0
    2.3620   -1.3957   -0.8649 H   0  0  0  0  0  0  0  0  0  0  0  0
    0.6904   -0.6113   -2.4901 N   0  0  0  0  0  0  0  0  0  0  0  0
    0.9627   -1.5817   -2.5495 H   0  0  0  0  0  0  0  0  0  0  0  0
    4.1656   -1.4236    0.8912 N   0  0  0  0  0  0  0  0  0  0  0  0
    4.2592   -1.6409   -0.0923 H   0  0  0  0  0  0  0  0  0  0  0  0
    5.0556   -1.4734    1.3631 H   0  0  0  0  0  0  0  0  0  0  0  0
    3.9546    2.6244    3.2264 C   0  0  0  0  0  3  0  0  0  0  0  0
    3.7882    3.6831    3.0703 H   0  0  0  0  0  0  0  0  0  0  0  0
    4.5033    2.1492    4.4096 C   0  0  0  0  0  0  0  0  0  0  0  0
    4.7688    2.8344    5.1981 H   0  0  0  0  0  0  0  0  0  0  0  0
    4.7016    0.7852    4.5461 C   0  0  0  0  0  0  0  0  0  0  0  0
    5.1229    0.3752    5.4518 H   0  0  0  0  0  0  0  0  0  0  0  0
    4.3510   -0.0505    3.4982 C   0  0  0  0  0  0  0  0  0  0  0  0
    4.4736   -1.1197    3.5772 H   0  0  0  0  0  0  0  0  0  0  0  0
    3.8049    0.5143    2.3491 C   0  0  0  0  0  0  0  0  0  0  0  0
    3.4271   -0.2987    1.1759 C   0  0  0  0  0  0  0  0  0  0  0  0
    1.0933    0.1099   -1.4319 C   0  0  1  0  0  3  0  0  0  0  0  0
   -0.2576   -0.1375   -3.4739 C   0  0  0  0  0  0  0  0  0  0  0  0
    0.0056   -0.5837   -4.4353 H   0  0  0  0  0  0  0  0  0  0  0  0
   -0.1485    0.9470   -3.5405 H   0  0  0  0  0  0  0  0  0  0  0  0
   -1.6926   -0.4877   -3.0938 C   0  0  0  0  0  0  0  0  0  0  0  0
   -1.8173   -1.5646   -3.0024 H   0  0  0  0  0  0  0  0  0  0  0  0
   -2.3738   -0.1216   -3.8558 H   0  0  0  0  0  0  0  0  0  0  0  0
   -1.9480   -0.0212   -2.1462 H   0  0  0  0  0  0  0  0  0  0  0  0
  1  2  1  0  0  0  0
  1  5  1  0  0  0  0
  3  1  1  0  0  0  0
  4  1  1  0  0  0  0
  5 22  1  0  0  0  0
  5 14  1  0  0  0  0
  6 23  2  0  0  0  0
  7  6  1  0  0  0  0
  8  7  1  0  0  0  0
 10  9  1  0  0  0  0
 11 23  1  0  0  0  0
 11 13  1  0  0  0  0
 12 11  1  0  0  0  0
 14 16  1  0  0  0  0
 15 14  1  0  0  0  0
 16 18  2  0  0  0  0
 16 17  1  0  0  0  0
 18 19  1  0  0  0  0
 20 21  1  0  0  0  0
 20 18  1  0  0  0  0
 22 20  2  0  0  0  0
 23 22  1  0  0  0  0
 24  9  1  1  0  0  0
 24  4  1  0  0  0  0
 24  7  1  0  0  0  0
 25 28  1  0  0  0  0
 25  9  1  0  0  0  0
 26 25  1  0  0  0  0
 27 25  1  0  0  0  0
 28 29  1  0  0  0  0
 28 31  1  0  0  0  0
 30 28  1  0  0  0  0
M  END
$$$$
