CSD_code = JAMHEL | q = 0 | S = 0 | Stoichiometry = C9H13I2N5SZn | MND = 5
 OpenBabel04212202053D

 31 32  0  0  1  0  0  0  0  0999 V2000
   -0.3974    7.6749    7.7424 Zn  0  0  0  0  0  0  0  0  0  0  0  0
    1.7058    7.0898    9.0220 I   0  0  0  0  0  0  0  0  0  0  0  0
   -2.8528    6.9617    7.7349 I   0  0  0  0  0  0  0  0  0  0  0  0
    0.3600    6.7191    5.2072 S   0  0  0  0  0  0  0  0  0  0  0  0
   -0.5711    9.7398    8.7484 N   0  0  0  0  0  0  0  0  0  0  0  0
   -0.7679    9.2487    6.1603 N   0  0  0  0  0  0  0  0  0  0  0  0
   -1.1993    8.8239    4.9395 N   0  0  0  0  0  0  0  0  0  0  0  0
   -2.0530    9.2519    4.5830 H   0  0  0  0  0  0  0  0  0  0  0  0
   -1.6463    7.0665    3.5267 N   0  0  0  0  0  0  0  0  0  0  0  0
   -2.4920    7.5538    3.2622 H   0  0  0  0  0  0  0  0  0  0  0  0
   -1.5481   11.4134    5.7359 N   0  0  0  0  0  0  0  0  0  0  0  0
   -1.4251   11.3457    4.7385 H   0  0  0  0  0  0  0  0  0  0  0  0
   -1.6406   12.3456    6.0985 H   0  0  0  0  0  0  0  0  0  0  0  0
   -0.3284    9.9439   10.0301 C   0  0  0  0  0  3  0  0  0  0  0  0
   -0.2857    9.0623   10.6544 H   0  0  0  0  0  0  0  0  0  0  0  0
   -0.1329   11.2069   10.5682 C   0  0  0  0  0  0  0  0  0  0  0  0
    0.0545   11.3249   11.6225 H   0  0  0  0  0  0  0  0  0  0  0  0
   -0.1667   12.2965    9.7142 C   0  0  0  0  0  0  0  0  0  0  0  0
    0.0075   13.2953   10.0847 H   0  0  0  0  0  0  0  0  0  0  0  0
   -0.4251   12.0872    8.3701 C   0  0  0  0  0  0  0  0  0  0  0  0
   -0.4296   12.9219    7.6858 H   0  0  0  0  0  0  0  0  0  0  0  0
   -0.6383   10.7852    7.9225 C   0  0  0  0  0  0  0  0  0  0  0  0
   -0.9623   10.4650    6.5269 C   0  0  1  0  0  3  0  0  0  0  0  0
   -0.9094    7.5448    4.5394 C   0  0  0  0  0  0  0  0  0  0  0  0
   -1.5104    5.7231    3.0047 C   0  0  0  0  0  0  0  0  0  0  0  0
   -2.1704    5.0444    3.5581 H   0  0  0  0  0  0  0  0  0  0  0  0
   -0.4784    5.4107    3.1739 H   0  0  0  0  0  0  0  0  0  0  0  0
   -1.8474    5.6968    1.5229 C   0  0  0  0  0  0  0  0  0  0  0  0
   -2.8781    6.0027    1.3549 H   0  0  0  0  0  0  0  0  0  0  0  0
   -1.7231    4.6889    1.1393 H   0  0  0  0  0  0  0  0  0  0  0  0
   -1.1883    6.3617    0.9698 H   0  0  0  0  0  0  0  0  0  0  0  0
  1  5  1  0  0  0  0
  1  2  1  0  0  0  0
  3  1  1  0  0  0  0
  5 14  1  0  0  0  0
  6 23  1  0  0  0  0
  6  1  1  0  0  0  0
  7  6  1  0  0  0  0
  8  7  1  0  0  0  0
  9 24  1  0  0  0  0
 10  9  1  0  0  0  0
 11 13  1  0  0  0  0
 12 11  1  0  0  0  0
 14 16  1  0  0  0  0
 14 15  1  0  0  0  0
 16 17  1  0  0  0  0
 18 19  1  0  0  0  0
 18 16  2  0  0  0  0
 20 18  1  0  0  0  0
 21 20  1  0  0  0  0
 22 20  2  0  0  0  0
 22  5  1  0  0  0  0
 23 11  1  1  0  0  0
 23 22  1  0  0  0  0
 24  7  1  0  0  0  0
 24  4  2  0  0  0  0
 25 27  1  0  0  0  0
 25  9  1  0  0  0  0
 25 26  1  0  0  0  0
 28 25  1  0  0  0  0
 29 28  1  0  0  0  0
 30 28  1  0  0  0  0
 31 28  1  0  0  0  0
M  END
$$$$
