CSD_code = JAPPOF | q = 0 | S = 0 | Stoichiometry = C26H31IN4P2Pt | MND = 4
 OpenBabel04212202053D

 65 72  0  0  1  0  0  0  0  0999 V2000
    2.2876    2.5018    2.6306 Pt  0  0  2  0  0  0  0  0  0  0  0  0
   -0.1689    2.6795    1.7545 I   0  0  0  0  0  0  0  0  0  0  0  0
    3.7057    2.0470    4.3234 P   0  0  0  0  0  0  0  0  0  0  0  0
    3.3442    3.0339    0.7357 P   0  0  0  0  0  4  0  0  0  0  0  0
    1.8469    1.9147    4.5765 N   0  0  1  0  0  4  0  0  0  0  0  0
    3.6647    3.2758    5.5071 N   0  0  2  0  0  0  0  0  0  0  0  0
    5.4276    2.0862    4.3605 N   0  0  1  0  0  0  0  0  0  0  0  0
    3.7520    0.3517    4.5460 N   0  0  2  0  0  0  0  0  0  0  0  0
    1.3197    2.9150    5.4611 C   0  0  0  0  0  0  0  0  0  0  0  0
    2.4081    3.9904    5.5229 C   0  0  0  0  0  0  0  0  0  0  0  0
    4.8602    4.0856    5.4934 C   0  0  0  0  0  0  0  0  0  0  0  0
    6.0161    3.1448    5.1291 C   0  0  0  0  0  0  0  0  0  0  0  0
    6.0816    0.8121    4.2893 C   0  0  0  0  0  0  0  0  0  0  0  0
    4.9707   -0.2075    4.0059 C   0  0  0  0  0  0  0  0  0  0  0  0
    2.5255   -0.2854    4.1242 C   0  0  0  0  0  0  0  0  0  0  0  0
    1.3937    0.5593    4.7137 C   0  0  0  0  0  0  0  0  0  0  0  0
    2.6524    2.2578   -0.7526 C   0  0  0  0  0  0  0  0  0  0  0  0
    2.1974    0.9526   -0.5751 C   0  0  0  0  0  0  0  0  0  0  0  0
    1.6294    0.2623   -1.6266 C   0  0  0  0  0  0  0  0  0  0  0  0
    1.5038    0.8798   -2.8618 C   0  0  0  0  0  0  0  0  0  0  0  0
    1.9418    2.1814   -3.0382 C   0  0  0  0  0  0  0  0  0  0  0  0
    2.5158    2.8765   -1.9870 C   0  0  0  0  0  0  0  0  0  0  0  0
    5.0962    2.5418    0.7013 C   0  0  0  0  0  0  0  0  0  0  0  0
    5.5610    1.4454   -0.0136 C   0  0  0  0  0  0  0  0  0  0  0  0
    6.8932    1.0791    0.0744 C   0  0  0  0  0  0  0  0  0  0  0  0
    7.7640    1.8030    0.8708 C   0  0  0  0  0  0  0  0  0  0  0  0
    7.3022    2.8965    1.5882 C   0  0  0  0  0  0  0  0  0  0  0  0
    5.9722    3.2583    1.5131 C   0  0  0  0  0  0  0  0  0  0  0  0
    3.4331    4.8118    0.3945 C   0  0  0  0  0  0  0  0  0  0  0  0
    4.3198    5.3569   -0.5294 C   0  0  0  0  0  0  0  0  0  0  0  0
    4.3298    6.7230   -0.7432 C   0  0  0  0  0  0  0  0  0  0  0  0
    3.4664    7.5464   -0.0364 C   0  0  0  0  0  0  0  0  0  0  0  0
    2.5934    7.0079    0.8949 C   0  0  0  0  0  0  0  0  0  0  0  0
    2.5784    5.6422    1.1110 C   0  0  0  0  0  0  0  0  0  0  0  0
    0.3635    3.3340    5.1198 H   0  0  0  0  0  0  0  0  0  0  0  0
    1.1716    2.4842    6.4624 H   0  0  0  0  0  0  0  0  0  0  0  0
    2.3214    4.5930    6.4319 H   0  0  0  0  0  0  0  0  0  0  0  0
    2.3246    4.6655    4.6495 H   0  0  0  0  0  0  0  0  0  0  0  0
    4.7764    4.8932    4.7493 H   0  0  0  0  0  0  0  0  0  0  0  0
    5.0187    4.5438    6.4756 H   0  0  0  0  0  0  0  0  0  0  0  0
    6.4816    2.7396    6.0400 H   0  0  0  0  0  0  0  0  0  0  0  0
    6.7905    3.6807    4.5650 H   0  0  0  0  0  0  0  0  0  0  0  0
    6.8418    0.7862    3.4970 H   0  0  0  0  0  0  0  0  0  0  0  0
    6.5756    0.5853    5.2456 H   0  0  0  0  0  0  0  0  0  0  0  0
    5.1877   -1.1711    4.4786 H   0  0  0  0  0  0  0  0  0  0  0  0
    4.8797   -0.3689    2.9199 H   0  0  0  0  0  0  0  0  0  0  0  0
    2.4466   -0.3003    3.0183 H   0  0  0  0  0  0  0  0  0  0  0  0
    2.4842   -1.3176    4.4842 H   0  0  0  0  0  0  0  0  0  0  0  0
    1.2693    0.3142    5.7790 H   0  0  0  0  0  0  0  0  0  0  0  0
    0.4423    0.3663    4.1998 H   0  0  0  0  0  0  0  0  0  0  0  0
    2.2810    0.5013    0.4112 H   0  0  0  0  0  0  0  0  0  0  0  0
    1.2714   -0.7467   -1.4850 H   0  0  0  0  0  0  0  0  0  0  0  0
    1.0505    0.3479   -3.6850 H   0  0  0  0  0  0  0  0  0  0  0  0
    1.8282    2.6631   -3.9983 H   0  0  0  0  0  0  0  0  0  0  0  0
    2.8404    3.8982   -2.1222 H   0  0  0  0  0  0  0  0  0  0  0  0
    4.8830    0.8822   -0.6404 H   0  0  0  0  0  0  0  0  0  0  0  0
    7.2525    0.2256   -0.4824 H   0  0  0  0  0  0  0  0  0  0  0  0
    8.8033    1.5152    0.9350 H   0  0  0  0  0  0  0  0  0  0  0  0
    7.9839    3.4604    2.2086 H   0  0  0  0  0  0  0  0  0  0  0  0
    5.5955    4.1019    2.0772 H   0  0  0  0  0  0  0  0  0  0  0  0
    5.0020    4.7110   -1.0663 H   0  0  0  0  0  0  0  0  0  0  0  0
    5.0139    7.1494   -1.4626 H   0  0  0  0  0  0  0  0  0  0  0  0
    3.4792    8.6124   -0.2100 H   0  0  0  0  0  0  0  0  0  0  0  0
    1.9264    7.6517    1.4488 H   0  0  0  0  0  0  0  0  0  0  0  0
    1.9035    5.1986    1.8381 H   0  0  0  0  0  0  0  0  0  0  0  0
  1  2  1  1  0  0  0
  1  3  1  0  0  0  0
  1  5  1  0  0  0  0
  3  7  1  0  0  0  0
  3  8  1  0  0  0  0
  3  5  1  0  0  0  0
  3  6  1  0  0  0  0
  4  1  1  0  0  0  0
  5 16  1  1  0  0  0
  5  9  1  0  0  0  0
  6 11  1  6  0  0  0
  6 10  1  0  0  0  0
  7 13  1  1  0  0  0
  7 12  1  0  0  0  0
  8 14  1  6  0  0  0
  9 10  1  0  0  0  0
  9 36  1  0  0  0  0
 10 37  1  0  0  0  0
 11 40  1  0  0  0  0
 12 11  1  0  0  0  0
 12 41  1  0  0  0  0
 13 44  1  0  0  0  0
 14 13  1  0  0  0  0
 14 45  1  0  0  0  0
 15 48  1  0  0  0  0
 15  8  1  0  0  0  0
 15 16  1  0  0  0  0
 16 49  1  0  0  0  0
 17 18  1  0  0  0  0
 17  4  1  0  0  0  0
 18 51  1  0  0  0  0
 19 52  1  0  0  0  0
 19 18  2  0  0  0  0
 20 19  1  0  0  0  0
 21 20  2  0  0  0  0
 21 22  1  0  0  0  0
 22 17  2  0  0  0  0
 23  4  1  0  0  0  0
 23 28  1  0  0  0  0
 24 25  1  0  0  0  0
 24 23  2  0  0  0  0
 25 26  2  0  0  0  0
 26 58  1  0  0  0  0
 26 27  1  0  0  0  0
 27 59  1  0  0  0  0
 28 27  2  0  0  0  0
 28 60  1  0  0  0  0
 29  4  1  0  0  0  0
 29 34  1  0  0  0  0
 30 29  2  0  0  0  0
 31 30  1  0  0  0  0
 31 32  2  0  0  0  0
 32 33  1  0  0  0  0
 33 34  2  0  0  0  0
 33 64  1  0  0  0  0
 34 65  1  0  0  0  0
 35  9  1  0  0  0  0
 38 10  1  0  0  0  0
 39 11  1  0  0  0  0
 42 12  1  0  0  0  0
 43 13  1  0  0  0  0
 46 14  1  0  0  0  0
 47 15  1  0  0  0  0
 50 16  1  0  0  0  0
 53 20  1  0  0  0  0
 54 21  1  0  0  0  0
 55 22  1  0  0  0  0
 56 24  1  0  0  0  0
 57 25  1  0  0  0  0
 61 30  1  0  0  0  0
 62 31  1  0  0  0  0
 63 32  1  0  0  0  0
M  END
$$$$
