CSD_code = JAPTAV | q = 0 | S = 0 | Stoichiometry = C21H38BClNiS3 | MND = 4
 OpenBabel04212202053D

 65 67  0  0  0  0  0  0  0  0999 V2000
    0.6689    3.7965    8.3542 Ni  0  0  2  0  0  0  0  0  0  0  0  0
   -0.4624    4.9321    9.6290 Cl  0  0  0  0  0  0  0  0  0  0  0  0
    2.2946    2.5651    7.6466 S   0  0  1  0  0  3  0  0  0  0  0  0
    0.8662    5.2822    6.5461 S   0  0  1  0  0  3  0  0  0  0  0  0
   -1.1454    2.4592    6.9581 S   0  0  1  0  0  3  0  0  0  0  0  0
    1.0834    2.7867    5.0535 B   0  0  2  0  0  0  0  0  0  0  0  0
    2.1889    1.3731    9.0761 C   0  0  0  0  0  0  0  0  0  0  0  0
    2.7098    2.1944   10.2536 C   0  0  0  0  0  0  0  0  0  0  0  0
    0.7399    0.9794    9.3185 C   0  0  0  0  0  0  0  0  0  0  0  0
    3.0724    0.1710    8.7866 C   0  0  0  0  0  0  0  0  0  0  0  0
    1.8025    1.7347    6.1375 C   0  0  0  0  0  0  0  0  0  0  0  0
    2.0758    6.5788    7.1230 C   0  0  0  0  0  0  0  0  0  0  0  0
    2.8051    7.1809    5.9322 C   0  0  0  0  0  0  0  0  0  0  0  0
    3.0358    5.9351    8.1135 C   0  0  0  0  0  0  0  0  0  0  0  0
    1.2049    7.6212    7.8149 C   0  0  0  0  0  0  0  0  0  0  0  0
    1.6969    4.3089    5.2570 C   0  0  0  0  0  0  0  0  0  0  0  0
   -2.8250    3.2546    7.0558 C   0  0  0  0  0  0  0  0  0  0  0  0
   -3.7164    2.6025    6.0066 C   0  0  0  0  0  0  0  0  0  0  0  0
   -3.3171    2.9359    8.4625 C   0  0  0  0  0  0  0  0  0  0  0  0
   -2.7294    4.7571    6.8517 C   0  0  0  0  0  0  0  0  0  0  0  0
   -0.5568    2.7933    5.2594 C   0  0  0  0  0  0  0  0  0  0  0  0
    1.4348    2.1935    3.5875 C   0  0  0  0  0  0  0  0  0  0  0  0
    2.2446    2.8338    2.6525 C   0  0  0  0  0  0  0  0  0  0  0  0
    2.5434    2.2668    1.4250 C   0  0  0  0  0  0  0  0  0  0  0  0
    2.0411    1.0225    1.0914 C   0  0  0  0  0  0  0  0  0  0  0  0
    1.2464    0.3528    2.0055 C   0  0  0  0  0  0  0  0  0  0  0  0
    0.9570    0.9321    3.2267 C   0  0  0  0  0  0  0  0  0  0  0  0
    3.7407    2.5028   10.0898 H   0  0  0  0  0  0  0  0  0  0  0  0
    2.6600    1.6171   11.1747 H   0  0  0  0  0  0  0  0  0  0  0  0
    2.0942    3.0940   10.3808 H   0  0  0  0  0  0  0  0  0  0  0  0
    0.3277    0.4237    8.4790 H   0  0  0  0  0  0  0  0  0  0  0  0
    0.1210    1.8788    9.4748 H   0  0  0  0  0  0  0  0  0  0  0  0
    0.6651    0.3611   10.2119 H   0  0  0  0  0  0  0  0  0  0  0  0
    4.0963    0.4841    8.5903 H   0  0  0  0  0  0  0  0  0  0  0  0
    2.7075   -0.3809    7.9226 H   0  0  0  0  0  0  0  0  0  0  0  0
    3.0768   -0.5010    9.6433 H   0  0  0  0  0  0  0  0  0  0  0  0
    2.7177    1.3265    5.7080 H   0  0  0  0  0  0  0  0  0  0  0  0
    1.1395    0.9125    6.3962 H   0  0  0  0  0  0  0  0  0  0  0  0
    2.0956    7.5702    5.2054 H   0  0  0  0  0  0  0  0  0  0  0  0
    3.4435    6.4509    5.4408 H   0  0  0  0  0  0  0  0  0  0  0  0
    3.4326    8.0031    6.2718 H   0  0  0  0  0  0  0  0  0  0  0  0
    3.6715    5.1979    7.6254 H   0  0  0  0  0  0  0  0  0  0  0  0
    2.4615    5.4396    8.9096 H   0  0  0  0  0  0  0  0  0  0  0  0
    3.6727    6.6907    8.5705 H   0  0  0  0  0  0  0  0  0  0  0  0
    0.5196    8.0786    7.1056 H   0  0  0  0  0  0  0  0  0  0  0  0
    1.8258    8.3999    8.2525 H   0  0  0  0  0  0  0  0  0  0  0  0
    0.6193    7.1574    8.6064 H   0  0  0  0  0  0  0  0  0  0  0  0
    1.5547    4.9076    4.3577 H   0  0  0  0  0  0  0  0  0  0  0  0
    2.7603    4.2820    5.4903 H   0  0  0  0  0  0  0  0  0  0  0  0
   -3.3593    2.8146    5.0013 H   0  0  0  0  0  0  0  0  0  0  0  0
   -4.7303    2.9888    6.0965 H   0  0  0  0  0  0  0  0  0  0  0  0
   -3.7443    1.5237    6.1455 H   0  0  0  0  0  0  0  0  0  0  0  0
   -2.6595    3.3920    9.1993 H   0  0  0  0  0  0  0  0  0  0  0  0
   -3.3366    1.8606    8.6278 H   0  0  0  0  0  0  0  0  0  0  0  0
   -4.3208    3.3300    8.6061 H   0  0  0  0  0  0  0  0  0  0  0  0
   -2.4051    5.0076    5.8439 H   0  0  0  0  0  0  0  0  0  0  0  0
   -2.0267    5.1895    7.5613 H   0  0  0  0  0  0  0  0  0  0  0  0
   -3.7062    5.2088    7.0139 H   0  0  0  0  0  0  0  0  0  0  0  0
   -1.0298    2.0265    4.6472 H   0  0  0  0  0  0  0  0  0  0  0  0
   -0.9659    3.7591    4.9701 H   0  0  0  0  0  0  0  0  0  0  0  0
    2.6640    3.8039    2.8794 H   0  0  0  0  0  0  0  0  0  0  0  0
    3.1735    2.7997    0.7254 H   0  0  0  0  0  0  0  0  0  0  0  0
    2.2695    0.5775    0.1332 H   0  0  0  0  0  0  0  0  0  0  0  0
    0.8529   -0.6256    1.7642 H   0  0  0  0  0  0  0  0  0  0  0  0
    0.3423    0.3814    3.9261 H   0  0  0  0  0  0  0  0  0  0  0  0
  1  2  1  1  0  0  0
  3  1  1  0  0  0  0
  3  7  1  1  0  0  0
  4 12  1  1  0  0  0
  4  1  1  0  0  0  0
  5 17  1  6  0  0  0
  5  1  1  0  0  0  0
  6 22  1  6  0  0  0
  6 16  1  0  0  0  0
  6 21  1  0  0  0  0
  6 11  1  0  0  0  0
  7  9  1  0  0  0  0
  7  8  1  0  0  0  0
  8 30  1  0  0  0  0
  8 29  1  0  0  0  0
  9 32  1  0  0  0  0
  9 33  1  0  0  0  0
 10  7  1  0  0  0  0
 10 36  1  0  0  0  0
 11 38  1  0  0  0  0
 11  3  1  0  0  0  0
 12 15  1  0  0  0  0
 12 14  1  0  0  0  0
 13 41  1  0  0  0  0
 13 12  1  0  0  0  0
 14 44  1  0  0  0  0
 14 43  1  0  0  0  0
 15 46  1  0  0  0  0
 15 47  1  0  0  0  0
 16 49  1  0  0  0  0
 16  4  1  0  0  0  0
 17 19  1  0  0  0  0
 18 51  1  0  0  0  0
 18 52  1  0  0  0  0
 18 17  1  0  0  0  0
 19 55  1  0  0  0  0
 19 54  1  0  0  0  0
 19 53  1  0  0  0  0
 20 58  1  0  0  0  0
 20 17  1  0  0  0  0
 20 57  1  0  0  0  0
 21  5  1  0  0  0  0
 23 61  1  0  0  0  0
 23 22  2  0  0  0  0
 24 23  1  0  0  0  0
 25 24  2  0  0  0  0
 25 26  1  0  0  0  0
 26 27  2  0  0  0  0
 27 22  1  0  0  0  0
 27 65  1  0  0  0  0
 28  8  1  0  0  0  0
 31  9  1  0  0  0  0
 34 10  1  0  0  0  0
 35 10  1  0  0  0  0
 37 11  1  0  0  0  0
 39 13  1  0  0  0  0
 40 13  1  0  0  0  0
 42 14  1  0  0  0  0
 45 15  1  0  0  0  0
 48 16  1  0  0  0  0
 50 18  1  0  0  0  0
 56 20  1  0  0  0  0
 59 21  1  0  0  0  0
 60 21  1  0  0  0  0
 62 24  1  0  0  0  0
 63 25  1  0  0  0  0
 64 26  1  0  0  0  0
M  END
$$$$
