CSD_code = JAQFOZ | q = 0 | S = 0 | Stoichiometry = C12H12Cl2N2S2Zn | MND = 4
 OpenBabel04212202053D

 31 33  0  0  0  0  0  0  0  0999 V2000
   -6.6519   12.3756    7.6417 N   0  0  0  0  0  0  0  0  0  0  0  0
   -5.7383   11.3227    7.3086 C   0  0  0  0  0  0  0  0  0  0  0  0
   -6.2600   10.3887    7.0573 H   0  0  0  0  0  0  0  0  0  0  0  0
   -5.1013   11.1570    8.1845 H   0  0  0  0  0  0  0  0  0  0  0  0
   -7.9045   12.1461    7.7125 C   0  0  0  0  0  3  0  0  0  0  0  0
   -8.2971   11.1480    7.4814 H   0  0  0  0  0  0  0  0  0  0  0  0
   -8.8742   13.1126    8.0870 C   0  0  0  0  0  0  0  0  0  0  0  0
  -10.2457   12.9729    7.9768 C   0  0  0  0  0  0  0  0  0  0  0  0
  -10.7151   12.0898    7.5811 H   0  0  0  0  0  0  0  0  0  0  0  0
  -10.9414   14.1040    8.4082 C   0  0  0  0  0  0  0  0  0  0  0  0
  -12.0122   14.1964    8.3910 H   0  0  0  0  0  0  0  0  0  0  0  0
  -10.1018   15.0862    8.8596 C   0  0  0  0  0  0  0  0  0  0  0  0
  -10.3748   16.0458    9.2531 H   0  0  0  0  0  0  0  0  0  0  0  0
   -8.4558   14.6557    8.7579 S   0  0  0  0  0  0  0  0  0  0  0  0
   -4.2134   13.0005    6.4242 N   0  0  0  0  0  0  0  0  0  0  0  0
   -4.8464   11.7478    6.1340 C   0  0  0  0  0  0  0  0  0  0  0  0
   -4.1147   10.9559    5.9215 H   0  0  0  0  0  0  0  0  0  0  0  0
   -5.4809   11.9010    5.2543 H   0  0  0  0  0  0  0  0  0  0  0  0
   -2.9443   13.1134    6.3656 C   0  0  0  0  0  3  0  0  0  0  0  0
   -2.3220   12.2424    6.1248 H   0  0  0  0  0  0  0  0  0  0  0  0
   -2.2410   14.3257    6.5899 C   0  0  0  0  0  0  0  0  0  0  0  0
   -0.8743   14.4555    6.7563 C   0  0  0  0  0  0  0  0  0  0  0  0
   -0.1986   13.6190    6.7306 H   0  0  0  0  0  0  0  0  0  0  0  0
   -0.4801   15.7752    6.9859 C   0  0  0  0  0  0  0  0  0  0  0  0
    0.5372   16.0802    7.1519 H   0  0  0  0  0  0  0  0  0  0  0  0
   -1.5401   16.6410    6.9737 C   0  0  0  0  0  0  0  0  0  0  0  0
   -1.5141   17.7043    7.1119 H   0  0  0  0  0  0  0  0  0  0  0  0
   -3.0319   15.8654    6.6936 S   0  0  0  0  0  0  0  0  0  0  0  0
   -5.6225   14.2268    7.4411 Zn  0  0  0  0  0  0  0  0  0  0  0  0
   -6.7041   15.4317    5.9369 Cl  0  0  0  0  0  0  0  0  0  0  0  0
   -4.7527   14.7277    9.4116 Cl  0  0  0  0  0  0  0  0  0  0  0  0
  1  5  1  0  0  0  0
  2  1  1  0  0  0  0
  2  4  1  0  0  0  0
  3  2  1  0  0  0  0
  5  7  1  0  0  0  0
  6  5  1  0  0  0  0
  7 14  1  0  0  0  0
  8  7  2  0  0  0  0
  8 10  1  0  0  0  0
  9  8  1  0  0  0  0
 10 12  2  0  0  0  0
 11 10  1  0  0  0  0
 12 13  1  0  0  0  0
 14 12  1  0  0  0  0
 15 29  1  0  0  0  0
 16 15  1  0  0  0  0
 16  2  1  0  0  0  0
 17 16  1  0  0  0  0
 18 16  1  0  0  0  0
 19 15  1  0  0  0  0
 19 21  1  0  0  0  0
 20 19  1  0  0  0  0
 21 28  1  0  0  0  0
 21 22  2  0  0  0  0
 22 24  1  0  0  0  0
 23 22  1  0  0  0  0
 24 25  1  0  0  0  0
 26 24  2  0  0  0  0
 26 27  1  0  0  0  0
 28 26  1  0  0  0  0
 29  1  1  0  0  0  0
 29 31  1  0  0  0  0
 30 29  1  0  0  0  0
M  END
$$$$
