CSD_code = JAQPUP | q = 0 | S = 0 | Stoichiometry = C30H31AuBrN | MND = 2
 OpenBabel04212202053D

 64 67  0  0  1  0  0  0  0  0999 V2000
    1.9325    2.7523   -1.6956 Au  0  0  0  0  0  0  0  0  0  0  0  0
    0.3929    2.5929   -3.4772 Br  0  0  0  0  0  0  0  0  0  0  0  0
    3.2519    2.8111   -0.1629 C   0  0  1  0  0  3  0  0  0  0  0  0
    7.4221    2.7391    2.8214 C   0  0  0  0  0  0  0  0  0  0  0  0
    3.7126    1.6797    0.4015 N   0  0  0  0  0  0  0  0  0  0  0  0
    6.0537    2.7496    3.0931 C   0  0  0  0  0  0  0  0  0  0  0  0
    2.2631   -1.9396   -1.1615 C   0  0  0  0  0  0  0  0  0  0  0  0
    3.2770    5.2848   -0.2040 C   0  0  0  0  0  0  0  0  0  0  0  0
    4.5894    1.6367    1.4207 C   0  0  0  0  0  0  0  0  0  0  0  0
    4.8766    0.6572    1.7766 H   0  0  0  0  0  0  0  0  0  0  0  0
    5.5816    2.7352    4.4058 C   0  0  0  0  0  0  0  0  0  0  0  0
    1.6230   -1.3242   -0.0937 C   0  0  0  0  0  0  0  0  0  0  0  0
    0.7333   -1.7736    0.3219 H   0  0  0  0  0  0  0  0  0  0  0  0
    4.6493    4.0074    1.4308 C   0  0  0  0  0  0  0  0  0  0  0  0
    5.0193    4.9374    1.8404 H   0  0  0  0  0  0  0  0  0  0  0  0
    3.2294    0.4368   -0.1210 C   0  0  0  0  0  0  0  0  0  0  0  0
    3.7501    4.0114    0.3852 C   0  0  0  0  0  0  0  0  0  0  0  0
    2.0906   -0.1358    0.4428 C   0  0  0  0  0  0  0  0  0  0  0  0
    3.4032   -1.3499   -1.6894 C   0  0  0  0  0  0  0  0  0  0  0  0
    3.9069   -1.8180   -2.5221 H   0  0  0  0  0  0  0  0  0  0  0  0
    1.3837    0.5448    1.5748 C   0  0  0  0  0  0  0  0  0  0  0  0
    0.5290   -0.0417    1.8989 H   0  0  0  0  0  0  0  0  0  0  0  0
    1.0287    1.5266    1.2591 H   0  0  0  0  0  0  0  0  0  0  0  0
    2.0503    0.6886    2.4257 H   0  0  0  0  0  0  0  0  0  0  0  0
    4.1069    2.7451    4.6788 C   0  0  0  0  0  0  0  0  0  0  0  0
    3.9144    2.8225    5.7455 H   0  0  0  0  0  0  0  0  0  0  0  0
    3.6438    1.8287    4.3121 H   0  0  0  0  0  0  0  0  0  0  0  0
    3.6256    3.5836    4.1766 H   0  0  0  0  0  0  0  0  0  0  0  0
    7.8571    2.6946    5.1878 C   0  0  0  0  0  0  0  0  0  0  0  0
    8.5613    2.6734    6.0058 H   0  0  0  0  0  0  0  0  0  0  0  0
    6.4987    2.7070    5.4466 C   0  0  0  0  0  0  0  0  0  0  0  0
    6.1439    2.6959    6.4666 H   0  0  0  0  0  0  0  0  0  0  0  0
    3.9044   -0.1613   -1.1827 C   0  0  0  0  0  0  0  0  0  0  0  0
    5.0881    2.7908    1.9711 C   0  0  0  0  0  0  0  0  0  0  0  0
    8.3149    2.7108    3.8830 C   0  0  0  0  0  0  0  0  0  0  0  0
    9.3765    2.7025    3.6839 H   0  0  0  0  0  0  0  0  0  0  0  0
    2.3797    7.6452   -1.3305 C   0  0  0  0  0  0  0  0  0  0  0  0
    2.0266    8.5639   -1.7738 H   0  0  0  0  0  0  0  0  0  0  0  0
    2.1036    5.8710    0.2710 C   0  0  0  0  0  0  0  0  0  0  0  0
    4.0028    5.8719   -1.2409 C   0  0  0  0  0  0  0  0  0  0  0  0
    7.9109    2.7521    1.4036 C   0  0  0  0  0  0  0  0  0  0  0  0
    8.9958    2.8059    1.3719 H   0  0  0  0  0  0  0  0  0  0  0  0
    7.5047    3.6057    0.8619 H   0  0  0  0  0  0  0  0  0  0  0  0
    7.5959    1.8482    0.8816 H   0  0  0  0  0  0  0  0  0  0  0  0
    1.7102   -3.1972   -1.7530 C   0  0  0  0  0  0  0  0  0  0  0  0
    1.2454   -3.8160   -0.9890 H   0  0  0  0  0  0  0  0  0  0  0  0
    2.4879   -3.7697   -2.2521 H   0  0  0  0  0  0  0  0  0  0  0  0
    0.9486   -2.9453   -2.4912 H   0  0  0  0  0  0  0  0  0  0  0  0
    1.6664    7.0553   -0.3034 C   0  0  0  0  0  0  0  0  0  0  0  0
    0.7556    7.5132    0.0534 H   0  0  0  0  0  0  0  0  0  0  0  0
    5.2493    5.2138   -1.7540 C   0  0  0  0  0  0  0  0  0  0  0  0
    5.9813    5.0894   -0.9558 H   0  0  0  0  0  0  0  0  0  0  0  0
    5.6977    5.8059   -2.5472 H   0  0  0  0  0  0  0  0  0  0  0  0
    5.0167    4.2250   -2.1504 H   0  0  0  0  0  0  0  0  0  0  0  0
    3.5408    7.0556   -1.7959 C   0  0  0  0  0  0  0  0  0  0  0  0
    4.0922    7.5141   -2.6036 H   0  0  0  0  0  0  0  0  0  0  0  0
    5.1135    0.4935   -1.7770 C   0  0  0  0  0  0  0  0  0  0  0  0
    5.8578    0.7199   -1.0132 H   0  0  0  0  0  0  0  0  0  0  0  0
    4.8292    1.4320   -2.2555 H   0  0  0  0  0  0  0  0  0  0  0  0
    5.5666   -0.1488   -2.5264 H   0  0  0  0  0  0  0  0  0  0  0  0
    1.3200    5.2117    1.3666 C   0  0  0  0  0  0  0  0  0  0  0  0
    1.9578    4.9742    2.2178 H   0  0  0  0  0  0  0  0  0  0  0  0
    0.8858    4.2792    1.0033 H   0  0  0  0  0  0  0  0  0  0  0  0
    0.5123    5.8561    1.7032 H   0  0  0  0  0  0  0  0  0  0  0  0
  2  1  1  0  0  0  0
  3  1  1  6  0  0  0
  3 17  1  0  0  0  0
  3  5  1  0  0  0  0
  4  6  2  0  0  0  0
  4 35  1  0  0  0  0
  5  9  1  0  0  0  0
  6 11  1  0  0  0  0
  7 12  1  0  0  0  0
  8 39  1  0  0  0  0
  8 17  1  0  0  0  0
  9 10  1  0  0  0  0
  9 34  2  0  0  0  0
 11 25  1  0  0  0  0
 11 31  2  0  0  0  0
 12 13  1  0  0  0  0
 12 18  2  0  0  0  0
 14 15  1  0  0  0  0
 14 34  1  0  0  0  0
 16  5  1  0  0  0  0
 16 18  1  0  0  0  0
 17 14  2  0  0  0  0
 18 21  1  0  0  0  0
 19 33  1  0  0  0  0
 19  7  2  0  0  0  0
 20 19  1  0  0  0  0
 21 22  1  0  0  0  0
 21 24  1  0  0  0  0
 23 21  1  0  0  0  0
 25 26  1  0  0  0  0
 27 25  1  0  0  0  0
 28 25  1  0  0  0  0
 29 31  1  0  0  0  0
 29 30  1  0  0  0  0
 31 32  1  0  0  0  0
 33 16  2  0  0  0  0
 34  6  1  0  0  0  0
 35 29  2  0  0  0  0
 36 35  1  0  0  0  0
 37 49  1  0  0  0  0
 38 37  1  0  0  0  0
 39 61  1  0  0  0  0
 40  8  2  0  0  0  0
 41  4  1  0  0  0  0
 42 41  1  0  0  0  0
 43 41  1  0  0  0  0
 44 41  1  0  0  0  0
 45  7  1  0  0  0  0
 45 46  1  0  0  0  0
 47 45  1  0  0  0  0
 48 45  1  0  0  0  0
 49 50  1  0  0  0  0
 49 39  2  0  0  0  0
 51 40  1  0  0  0  0
 51 52  1  0  0  0  0
 53 51  1  0  0  0  0
 54 51  1  0  0  0  0
 55 37  2  0  0  0  0
 55 40  1  0  0  0  0
 56 55  1  0  0  0  0
 57 33  1  0  0  0  0
 57 58  1  0  0  0  0
 59 57  1  0  0  0  0
 60 57  1  0  0  0  0
 61 64  1  0  0  0  0
 61 62  1  0  0  0  0
 63 61  1  0  0  0  0
M  END
$$$$
