CSD_code = JARJIV | q = 1 | S = 0 | Stoichiometry = C5H15IN3Pt(1+) | MND = 4
 OpenBabel04212202053D

 25 26  0  0  1  0  0  0  0  0999 V2000
    6.2349    4.4071    4.1369 Pt  0  0  1  0  0  0  0  0  0  0  0  0
    4.8371    2.4105    4.9252 I   0  0  0  0  0  0  0  0  0  0  0  0
    4.6756    5.2980    3.1342 N   0  0  0  0  0  4  0  0  0  0  0  0
    7.3764    6.0155    3.4692 N   0  0  1  0  0  4  0  0  0  0  0  0
    8.0098    3.6318    4.8270 N   0  0  0  0  0  4  0  0  0  0  0  0
    5.1781    6.5274    2.4757 C   0  0  0  0  0  0  0  0  0  0  0  0
    6.6869    6.3940    2.2224 C   0  0  0  0  0  0  0  0  0  0  0  0
    7.4743    7.1598    4.3755 C   0  0  0  0  0  0  0  0  0  0  0  0
    8.7004    5.4027    3.2578 C   0  0  0  0  0  0  0  0  0  0  0  0
    9.1001    4.5774    4.4897 C   0  0  0  0  0  0  0  0  0  0  0  0
    4.3813    4.6059    2.4349 H   0  0  0  0  0  0  0  0  0  0  0  0
    3.8464    5.4914    3.7033 H   0  0  0  0  0  0  0  0  0  0  0  0
    8.1268    2.7472    4.3186 H   0  0  0  0  0  0  0  0  0  0  0  0
    8.0216    3.3876    5.8215 H   0  0  0  0  0  0  0  0  0  0  0  0
    4.6664    6.7050    1.5252 H   0  0  0  0  0  0  0  0  0  0  0  0
    4.9757    7.3829    3.1235 H   0  0  0  0  0  0  0  0  0  0  0  0
    6.8511    5.6054    1.4805 H   0  0  0  0  0  0  0  0  0  0  0  0
    7.0831    7.3330    1.8183 H   0  0  0  0  0  0  0  0  0  0  0  0
    6.4879    7.5605    4.5977 H   0  0  0  0  0  0  0  0  0  0  0  0
    8.0816    7.9542    3.9301 H   0  0  0  0  0  0  0  0  0  0  0  0
    7.9273    6.8652    5.3193 H   0  0  0  0  0  0  0  0  0  0  0  0
    8.6418    4.7359    2.3913 H   0  0  0  0  0  0  0  0  0  0  0  0
    9.4625    6.1639    3.0537 H   0  0  0  0  0  0  0  0  0  0  0  0
   10.0347    4.0474    4.2828 H   0  0  0  0  0  0  0  0  0  0  0  0
    9.2752    5.2323    5.3458 H   0  0  0  0  0  0  0  0  0  0  0  0
  1  5  1  0  0  0  0
  1  2  1  1  0  0  0
  3 12  1  0  0  0  0
  3  1  1  0  0  0  0
  4  1  1  0  0  0  0
  4  8  1  1  0  0  0
  5 14  1  0  0  0  0
  6 16  1  0  0  0  0
  6  3  1  0  0  0  0
  7  6  1  0  0  0  0
  7  4  1  0  0  0  0
  8 19  1  0  0  0  0
  8 21  1  0  0  0  0
  9  4  1  0  0  0  0
  9 10  1  0  0  0  0
 10  5  1  0  0  0  0
 10 25  1  0  0  0  0
 11  3  1  0  0  0  0
 13  5  1  0  0  0  0
 15  6  1  0  0  0  0
 17  7  1  0  0  0  0
 18  7  1  0  0  0  0
 20  8  1  0  0  0  0
 22  9  1  0  0  0  0
 23  9  1  0  0  0  0
 24 10  1  0  0  0  0
M  END
$$$$
