CSD_code = JARNAS | q = 0 | S = 0 | Stoichiometry = C10H12Cl2O2Ti | MND = 9
 OpenBabel04212202053D

 27 28  0  0  1  0  0  0  0  0999 V2000
    2.9458    2.9420   -0.2578 Ti  0  0  0  0  0  0  0  0  0  0  0  0
    2.1668    1.4349    1.2248 Cl  0  0  0  0  0  0  0  0  0  0  0  0
    2.1404    1.6972   -1.4524 O   0  0  0  0  0  0  0  0  0  0  0  0
    4.8955    2.2371   -1.4282 C   0  0  0  0  0  0  0  0  0  0  0  0
    4.9274    1.6023   -2.3035 H   0  0  0  0  0  0  0  0  0  0  0  0
    4.9634    1.7982   -0.0888 C   0  0  0  0  0  0  0  0  0  0  0  0
    5.0647    0.7715    0.2400 H   0  0  0  0  0  0  0  0  0  0  0  0
    5.0031    2.9420    0.7438 C   0  0  1  0  0  0  0  0  0  0  0  0
    5.1486    2.9420    1.8188 H   0  0  0  0  0  0  0  0  0  0  0  0
    0.8869    1.7336   -1.6560 C   0  0  0  0  0  0  0  0  0  0  0  0
    0.1797    2.9420   -1.6969 C   0  0  0  0  0  0  0  0  0  0  0  0
   -0.8825    2.9420   -1.8795 H   0  0  0  0  0  0  0  0  0  0  0  0
    0.1826    0.4273   -1.8817 C   0  0  0  0  0  0  0  0  0  0  0  0
    0.8353   -0.2551   -2.4225 H   0  0  0  0  0  0  0  0  0  0  0  0
   -0.7581    0.5559   -2.4073 H   0  0  0  0  0  0  0  0  0  0  0  0
   -0.0099   -0.0084   -0.8996 H   0  0  0  0  0  0  0  0  0  0  0  0
    2.1668    4.4491    1.2248 Cl  0  0  0  0  0  0  0  0  0  0  0  0
    2.1404    4.1868   -1.4524 O   0  0  0  0  0  0  0  0  0  0  0  0
    4.8955    3.6469   -1.4282 C   0  0  0  0  0  0  0  0  0  0  0  0
    4.9274    4.2817   -2.3036 H   0  0  0  0  0  0  0  0  0  0  0  0
    4.9634    4.0858   -0.0888 C   0  0  0  0  0  0  0  0  0  0  0  0
    5.0647    5.1125    0.2400 H   0  0  0  0  0  0  0  0  0  0  0  0
    0.8869    4.1504   -1.6560 C   0  0  1  0  0  3  0  0  0  0  0  0
    0.1826    5.4567   -1.8817 C   0  0  0  0  0  0  0  0  0  0  0  0
    0.8353    6.1391   -2.4225 H   0  0  0  0  0  0  0  0  0  0  0  0
   -0.7581    5.3281   -2.4073 H   0  0  0  0  0  0  0  0  0  0  0  0
   -0.0099    5.8925   -0.8995 H   0  0  0  0  0  0  0  0  0  0  0  0
  1  8  1  0  0  0  0
  1 17  1  0  0  0  0
  1  2  1  0  0  0  0
  3  1  1  0  0  0  0
  4  6  2  0  0  0  0
  5  4  1  0  0  0  0
  6  7  1  0  0  0  0
  6  8  1  0  0  0  0
  8  9  1  1  0  0  0
 10  3  1  0  0  0  0
 11 10  2  0  0  0  0
 11 23  1  0  0  0  0
 12 11  1  0  0  0  0
 13 10  1  0  0  0  0
 13 16  1  0  0  0  0
 14 13  1  0  0  0  0
 15 13  1  0  0  0  0
 18  1  1  0  0  0  0
 19  4  1  0  0  0  0
 19 21  2  0  0  0  0
 20 19  1  0  0  0  0
 21 22  1  0  0  0  0
 21  8  1  0  0  0  0
 23 24  1  6  0  0  0
 23 18  1  0  0  0  0
 24 27  1  0  0  0  0
 25 24  1  0  0  0  0
 26 24  1  0  0  0  0
M  END
$$$$
