CSD_code = JASWUW | q = 0 | S = 0 | Stoichiometry = C6H15Cl3N3Sc | MND = 6
 OpenBabel04212202053D

 28 30  0  0  1  0  0  0  0  0999 V2000
    0.4741    9.1154    2.1403 Sc  0  0  0  0  0  0  0  0  0  0  0  0
    1.1318    9.1154    4.3268 Cl  0  0  0  0  0  0  0  0  0  0  0  0
   -0.6784    7.2220    1.5937 Cl  0  0  0  0  0  0  0  0  0  0  0  0
    1.4192    9.1154   -0.0946 N   0  0  1  0  0  4  0  0  0  0  0  0
    2.5278    7.9537    1.5857 N   0  0  1  0  0  4  0  0  0  0  0  0
    2.2375    7.9306    0.1539 C   0  0  0  0  0  0  0  0  0  0  0  0
    3.3686    9.1154    1.8657 C   0  0  0  0  0  0  0  0  0  0  0  0
    0.7901    9.1154   -1.4095 C   0  0  0  0  0  0  0  0  0  0  0  0
    3.0875    6.7025    2.0816 C   0  0  0  0  0  0  0  0  0  0  0  0
    3.1699    7.9435   -0.4526 H   0  0  0  0  0  0  0  0  0  0  0  0
    1.6558    7.0344   -0.0821 H   0  0  0  0  0  0  0  0  0  0  0  0
    3.6434    9.1154    2.9249 H   0  0  0  0  0  0  0  0  0  0  0  0
    4.2877    9.1154    1.2392 H   0  0  0  0  0  0  0  0  0  0  0  0
    1.5325    9.1154   -2.2176 H   0  0  0  0  0  0  0  0  0  0  0  0
    0.1596    9.9990   -1.4960 H   0  0  0  0  0  0  0  0  0  0  0  0
    4.0493    6.4686    1.6080 H   0  0  0  0  0  0  0  0  0  0  0  0
    3.2234    6.7828    3.1590 H   0  0  0  0  0  0  0  0  0  0  0  0
    2.3798    5.8993    1.8822 H   0  0  0  0  0  0  0  0  0  0  0  0
   -0.6783   11.0088    1.5938 Cl  0  0  0  0  0  0  0  0  0  0  0  0
    2.5278   10.2772    1.5857 N   0  0  1  0  0  4  0  0  0  0  0  0
    2.2375   10.3002    0.1539 C   0  0  0  0  0  0  0  0  0  0  0  0
    3.0875   11.5283    2.0816 C   0  0  0  0  0  0  0  0  0  0  0  0
    3.1699   10.2873   -0.4526 H   0  0  0  0  0  0  0  0  0  0  0  0
    1.6558   11.1965   -0.0821 H   0  0  0  0  0  0  0  0  0  0  0  0
    0.1596    8.2319   -1.4960 H   0  0  0  0  0  0  0  0  0  0  0  0
    4.0493   11.7622    1.6080 H   0  0  0  0  0  0  0  0  0  0  0  0
    3.2234   11.4480    3.1590 H   0  0  0  0  0  0  0  0  0  0  0  0
    2.3798   12.3315    1.8822 H   0  0  0  0  0  0  0  0  0  0  0  0
  1  2  1  0  0  0  0
  3  1  1  0  0  0  0
  4  8  1  6  0  0  0
  4  6  1  0  0  0  0
  4 21  1  0  0  0  0
  4  1  1  0  0  0  0
  5  7  1  0  0  0  0
  5  9  1  1  0  0  0
  5  1  1  0  0  0  0
  6  5  1  0  0  0  0
  7 12  1  0  0  0  0
  9 17  1  0  0  0  0
 10  6  1  0  0  0  0
 11  6  1  0  0  0  0
 13  7  1  0  0  0  0
 14  8  1  0  0  0  0
 15  8  1  0  0  0  0
 16  9  1  0  0  0  0
 18  9  1  0  0  0  0
 19  1  1  0  0  0  0
 20  7  1  0  0  0  0
 20 22  1  1  0  0  0
 20  1  1  0  0  0  0
 21 20  1  0  0  0  0
 22 27  1  0  0  0  0
 23 21  1  0  0  0  0
 24 21  1  0  0  0  0
 25  8  1  0  0  0  0
 26 22  1  0  0  0  0
 28 22  1  0  0  0  0
M  END
$$$$
