CSD_code = JATCEM | q = 0 | S = 0 | Stoichiometry = C28H24Cl2N4Pd | MND = 4
 OpenBabel04212202053D

 59 62  0  0  0  0  0  0  0  0999 V2000
   -1.6780   -0.0004    6.7859 Pd  0  0  0  0  0  0  0  0  0  0  0  0
   -1.7240    2.2319    6.1578 Cl  0  0  0  0  0  0  0  0  0  0  0  0
    0.1394    0.0977    7.5250 N   0  0  0  0  0  0  0  0  0  0  0  0
    1.2000   -0.0931    6.7034 N   0  0  0  0  0  0  0  0  0  0  0  0
    0.3836    0.0079    8.7853 C   0  0  0  0  0  3  0  0  0  0  0  0
   -0.6404    0.1272    9.8046 C   0  0  0  0  0  0  0  0  0  0  0  0
   -1.7673    0.9476    9.6364 C   0  0  0  0  0  0  0  0  0  0  0  0
   -2.7270    1.0140   10.6310 C   0  0  0  0  0  0  0  0  0  0  0  0
   -2.5936    0.2610   11.7880 C   0  0  0  0  0  0  0  0  0  0  0  0
   -1.4764   -0.5398   11.9669 C   0  0  0  0  0  0  0  0  0  0  0  0
   -0.4986   -0.5956   10.9925 C   0  0  0  0  0  0  0  0  0  0  0  0
    1.1246    0.3469    5.5064 C   0  0  0  0  0  0  0  0  0  0  0  0
    2.1925    0.1457    4.5557 C   0  0  0  0  0  0  0  0  0  0  0  0
    3.2700   -0.6990    4.8380 C   0  0  0  0  0  0  0  0  0  0  0  0
    4.2682   -0.8848    3.9033 C   0  0  0  0  0  0  0  0  0  0  0  0
    4.2095   -0.2297    2.6815 C   0  0  0  0  0  0  0  0  0  0  0  0
    3.1472    0.6141    2.3949 C   0  0  0  0  0  0  0  0  0  0  0  0
    2.1418    0.8015    3.3228 C   0  0  0  0  0  0  0  0  0  0  0  0
    1.4053   -0.1997    9.1031 H   0  0  0  0  0  0  0  0  0  0  0  0
   -1.8511    1.6031    8.7678 H   0  0  0  0  0  0  0  0  0  0  0  0
   -3.5835    1.6604   10.5049 H   0  0  0  0  0  0  0  0  0  0  0  0
   -3.3542    0.3099   12.5530 H   0  0  0  0  0  0  0  0  0  0  0  0
   -1.3648   -1.1182   12.8721 H   0  0  0  0  0  0  0  0  0  0  0  0
    0.3692   -1.2237   11.1295 H   0  0  0  0  0  0  0  0  0  0  0  0
    0.2565    0.9309    5.1606 H   0  0  0  0  0  0  0  0  0  0  0  0
    3.2958   -1.2021    5.7917 H   0  0  0  0  0  0  0  0  0  0  0  0
    5.0974   -1.5411    4.1222 H   0  0  0  0  0  0  0  0  0  0  0  0
    4.9928   -0.3768    1.9527 H   0  0  0  0  0  0  0  0  0  0  0  0
    3.1060    1.1257    1.4446 H   0  0  0  0  0  0  0  0  0  0  0  0
    1.3122    1.4584    3.1060 H   0  0  0  0  0  0  0  0  0  0  0  0
   -1.6324   -2.2321    7.4155 Cl  0  0  0  0  0  0  0  0  0  0  0  0
   -3.4959   -0.0977    6.0480 N   0  0  0  0  0  0  0  0  0  0  0  0
   -4.5564    0.0933    6.8697 N   0  0  0  0  0  0  0  0  0  0  0  0
   -3.7402   -0.0078    4.7877 C   0  0  0  0  0  3  0  0  0  0  0  0
   -4.4811   -0.3468    8.0668 C   0  0  0  0  0  0  0  0  0  0  0  0
   -2.7161   -0.1272    3.7685 C   0  0  0  0  0  0  0  0  0  0  0  0
   -4.7619    0.2000    4.4700 H   0  0  0  0  0  0  0  0  0  0  0  0
   -5.5490   -0.1457    9.0174 C   0  0  0  0  0  0  0  0  0  0  0  0
   -3.6131   -0.9310    8.4125 H   0  0  0  0  0  0  0  0  0  0  0  0
   -1.5893   -0.9475    3.9369 C   0  0  0  0  0  0  0  0  0  0  0  0
   -2.8578    0.5957    2.5806 C   0  0  0  0  0  0  0  0  0  0  0  0
   -6.6265    0.6991    8.7351 C   0  0  0  0  0  0  0  0  0  0  0  0
   -5.4984   -0.8015   10.2502 C   0  0  0  0  0  0  0  0  0  0  0  0
   -0.6296   -1.0141    2.9422 C   0  0  0  0  0  0  0  0  0  0  0  0
   -1.5054   -1.6027    4.8056 H   0  0  0  0  0  0  0  0  0  0  0  0
   -1.8800    0.5398    1.6063 C   0  0  0  0  0  0  0  0  0  0  0  0
   -3.7256    1.2239    2.4436 H   0  0  0  0  0  0  0  0  0  0  0  0
   -7.6246    0.8849    9.6699 C   0  0  0  0  0  0  0  0  0  0  0  0
   -6.6523    1.2023    7.7815 H   0  0  0  0  0  0  0  0  0  0  0  0
   -6.5037   -0.6142   11.1782 C   0  0  0  0  0  0  0  0  0  0  0  0
   -4.6688   -1.4586   10.4670 H   0  0  0  0  0  0  0  0  0  0  0  0
   -0.7629   -0.2611    1.7852 C   0  0  0  0  0  0  0  0  0  0  0  0
    0.2268   -1.6606    3.0683 H   0  0  0  0  0  0  0  0  0  0  0  0
   -1.9916    1.1182    0.7011 H   0  0  0  0  0  0  0  0  0  0  0  0
   -7.5660    0.2297   10.8917 C   0  0  0  0  0  0  0  0  0  0  0  0
   -8.4538    1.5413    9.4511 H   0  0  0  0  0  0  0  0  0  0  0  0
   -6.4626   -1.1259   12.1284 H   0  0  0  0  0  0  0  0  0  0  0  0
   -0.0023   -0.3102    1.0202 H   0  0  0  0  0  0  0  0  0  0  0  0
   -8.3493    0.3768   11.6205 H   0  0  0  0  0  0  0  0  0  0  0  0
  1 31  1  0  0  0  0
  1  3  1  0  0  0  0
  2  1  1  0  0  0  0
  3  5  1  0  0  0  0
  4  3  1  0  0  0  0
  5 19  1  0  0  0  0
  5  6  1  0  0  0  0
  6 11  1  0  0  0  0
  7  6  2  0  0  0  0
  7  8  1  0  0  0  0
  8  9  2  0  0  0  0
  9 10  1  0  0  0  0
  9 22  1  0  0  0  0
 10 23  1  0  0  0  0
 11 24  1  0  0  0  0
 11 10  2  0  0  0  0
 12  4  2  0  0  0  0
 13 14  1  0  0  0  0
 13 12  1  0  0  0  0
 14 26  1  0  0  0  0
 15 27  1  0  0  0  0
 15 14  2  0  0  0  0
 16 15  1  0  0  0  0
 17 16  2  0  0  0  0
 17 18  1  0  0  0  0
 18 13  2  0  0  0  0
 20  7  1  0  0  0  0
 21  8  1  0  0  0  0
 25 12  1  0  0  0  0
 28 16  1  0  0  0  0
 29 17  1  0  0  0  0
 30 18  1  0  0  0  0
 32  1  1  0  0  0  0
 32 33  1  0  0  0  0
 33 35  2  0  0  0  0
 34 32  1  0  0  0  0
 35 39  1  0  0  0  0
 35 38  1  0  0  0  0
 36 40  1  0  0  0  0
 36 34  1  0  0  0  0
 37 34  1  0  0  0  0
 38 43  1  0  0  0  0
 40 45  1  0  0  0  0
 41 36  2  0  0  0  0
 42 38  2  0  0  0  0
 42 48  1  0  0  0  0
 43 51  1  0  0  0  0
 43 50  2  0  0  0  0
 44 53  1  0  0  0  0
 44 40  2  0  0  0  0
 46 52  2  0  0  0  0
 46 41  1  0  0  0  0
 47 41  1  0  0  0  0
 48 55  2  0  0  0  0
 49 42  1  0  0  0  0
 50 57  1  0  0  0  0
 52 44  1  0  0  0  0
 54 46  1  0  0  0  0
 55 50  1  0  0  0  0
 55 59  1  0  0  0  0
 56 48  1  0  0  0  0
 58 52  1  0  0  0  0
M  END
$$$$
