CSD_code = JATXOS | q = 0 | S = 0 | Stoichiometry = C24H30BCl2N6Nb | MND = 7
 OpenBabel04212202053D

 64 64  0  0  0  0  0  0  0  0999 V2000
    5.7099    3.2792    3.5069 C   0  0  0  0  0  3  0  0  0  0  0  0
    4.9260    2.9602    4.1819 H   0  0  0  0  0  0  0  0  0  0  0  0
    5.9766    4.2907    2.7585 C   0  0  0  0  0  0  0  0  0  0  0  0
    5.4837    5.6223    2.3187 C   0  0  0  0  0  0  0  0  0  0  0  0
    5.2827    5.5769    1.2429 H   0  0  0  0  0  0  0  0  0  0  0  0
    6.2817    6.3551    2.4823 H   0  0  0  0  0  0  0  0  0  0  0  0
    4.2470    5.9883    3.0892 C   0  0  0  0  0  0  0  0  0  0  0  0
    4.3548    6.5620    4.3506 C   0  0  0  0  0  0  0  0  0  0  0  0
    5.3350    6.7815    4.7506 H   0  0  0  0  0  0  0  0  0  0  0  0
    3.2225    6.8532    5.0893 C   0  0  0  0  0  0  0  0  0  0  0  0
    3.3184    7.3041    6.0666 H   0  0  0  0  0  0  0  0  0  0  0  0
    1.9670    6.5700    4.5777 C   0  0  0  0  0  0  0  0  0  0  0  0
    1.0822    6.8001    5.1531 H   0  0  0  0  0  0  0  0  0  0  0  0
    1.8511    5.9907    3.3257 C   0  0  0  0  0  0  0  0  0  0  0  0
    0.8740    5.7664    2.9223 H   0  0  0  0  0  0  0  0  0  0  0  0
    2.9845    5.6988    2.5876 C   0  0  0  0  0  0  0  0  0  0  0  0
    2.8913    5.2442    1.6113 H   0  0  0  0  0  0  0  0  0  0  0  0
    4.7220    1.0902    1.2008 C   0  0  0  0  0  0  0  0  0  0  0  0
    4.5086    1.9767    1.8000 H   0  0  0  0  0  0  0  0  0  0  0  0
    3.8205    0.4931    1.0886 H   0  0  0  0  0  0  0  0  0  0  0  0
    5.0462    1.4280    0.2151 H   0  0  0  0  0  0  0  0  0  0  0  0
    5.7935    0.2750    1.8289 C   0  0  0  0  0  0  0  0  0  0  0  0
    5.8491   -1.1157    1.9340 C   0  0  0  0  0  0  0  0  0  0  0  0
    5.1172   -1.8195    1.5938 H   0  0  0  0  0  0  0  0  0  0  0  0
    7.0472   -1.3961    2.5670 C   0  0  0  0  0  0  0  0  0  0  0  0
    7.6040   -2.7247    2.9316 C   0  0  0  0  0  0  0  0  0  0  0  0
    8.5489   -2.9002    2.4209 H   0  0  0  0  0  0  0  0  0  0  0  0
    6.9007   -3.5013    2.6444 H   0  0  0  0  0  0  0  0  0  0  0  0
    7.7816   -2.7878    4.0033 H   0  0  0  0  0  0  0  0  0  0  0  0
    7.7198    4.0930    6.0221 C   0  0  0  0  0  0  0  0  0  0  0  0
    8.3997    4.8389    5.6069 H   0  0  0  0  0  0  0  0  0  0  0  0
    7.6276    4.2558    7.0931 H   0  0  0  0  0  0  0  0  0  0  0  0
    6.7493    4.2269    5.5420 H   0  0  0  0  0  0  0  0  0  0  0  0
    8.2518    2.7302    5.7626 C   0  0  0  0  0  0  0  0  0  0  0  0
    8.8299    1.8555    6.6834 C   0  0  0  0  0  0  0  0  0  0  0  0
    8.9702    2.0210    7.7321 H   0  0  0  0  0  0  0  0  0  0  0  0
    9.1865    0.7309    5.9598 C   0  0  0  0  0  0  0  0  0  0  0  0
    9.8387   -0.5099    6.4528 C   0  0  0  0  0  0  0  0  0  0  0  0
    9.2134   -1.3787    6.2561 H   0  0  0  0  0  0  0  0  0  0  0  0
   10.0036   -0.4296    7.5236 H   0  0  0  0  0  0  0  0  0  0  0  0
   10.7968   -0.6638    5.9601 H   0  0  0  0  0  0  0  0  0  0  0  0
   10.4344    3.6426    0.3318 C   0  0  0  0  0  0  0  0  0  0  0  0
    9.5388    3.6824   -0.2898 H   0  0  0  0  0  0  0  0  0  0  0  0
   11.3140    3.7282   -0.3013 H   0  0  0  0  0  0  0  0  0  0  0  0
   10.4017    4.4909    1.0171 H   0  0  0  0  0  0  0  0  0  0  0  0
   10.4834    2.3670    1.0897 C   0  0  0  0  0  0  0  0  0  0  0  0
   11.4916    1.4015    1.0517 C   0  0  0  0  0  0  0  0  0  0  0  0
   12.3891    1.4287    0.4678 H   0  0  0  0  0  0  0  0  0  0  0  0
   11.0911    0.4050    1.9230 C   0  0  0  0  0  0  0  0  0  0  0  0
   11.7979   -0.8578    2.2612 C   0  0  0  0  0  0  0  0  0  0  0  0
   12.0203   -0.9030    3.3258 H   0  0  0  0  0  0  0  0  0  0  0  0
   12.7301   -0.9081    1.7053 H   0  0  0  0  0  0  0  0  0  0  0  0
   11.1884   -1.7226    2.0051 H   0  0  0  0  0  0  0  0  0  0  0  0
    6.8967    0.7924    2.3707 N   0  0  0  0  0  0  0  0  0  0  0  0
    7.6577   -0.2238    2.8159 N   0  0  0  0  0  0  0  0  0  0  0  0
    8.2638    2.1570    4.5579 N   0  0  0  0  0  0  0  0  0  0  0  0
    8.8328    0.9440    4.6801 N   0  0  0  0  0  0  0  0  0  0  0  0
    9.5344    1.9661    1.9368 N   0  0  0  0  0  0  0  0  0  0  0  0
    9.9057    0.7731    2.4429 N   0  0  0  0  0  0  0  0  0  0  0  0
    7.1614    3.0465    0.2415 Cl  0  0  0  0  0 15  0  0  0  0  0  0
    8.9463    4.8004    3.0559 Cl  0  0  0  0  0 15  0  0  0  0  0  0
    7.6134    2.9056    2.5544 Nb  0  0  0  0  0  0  0  0  0  0  0  0
    9.0298    0.0289    3.4608 B   0  0  0  0  0  0  0  0  0  0  0  0
    9.5322   -0.9865    3.7801 H   0  0  0  0  0  0  0  0  0  0  0  0
  1  2  1  0  0  0  0
  3  1  2  0  0  0  0
  4  6  1  0  0  0  0
  4  3  1  0  0  0  0
  4  7  1  0  0  0  0
  5  4  1  0  0  0  0
  7  8  1  0  0  0  0
  8  9  1  0  0  0  0
  8 10  2  0  0  0  0
 10 11  1  0  0  0  0
 12 10  1  0  0  0  0
 12 13  1  0  0  0  0
 14 12  2  0  0  0  0
 15 14  1  0  0  0  0
 16  7  2  0  0  0  0
 16 14  1  0  0  0  0
 17 16  1  0  0  0  0
 18 19  1  0  0  0  0
 18 22  1  0  0  0  0
 20 18  1  0  0  0  0
 21 18  1  0  0  0  0
 22 23  1  0  0  0  0
 22 54  2  0  0  0  0
 23 25  2  0  0  0  0
 24 23  1  0  0  0  0
 25 55  1  0  0  0  0
 25 26  1  0  0  0  0
 26 29  1  0  0  0  0
 27 26  1  0  0  0  0
 28 26  1  0  0  0  0
 30 32  1  0  0  0  0
 31 30  1  0  0  0  0
 33 30  1  0  0  0  0
 34 30  1  0  0  0  0
 34 35  1  0  0  0  0
 35 36  1  0  0  0  0
 37 38  1  0  0  0  0
 37 35  2  0  0  0  0
 38 40  1  0  0  0  0
 39 38  1  0  0  0  0
 41 38  1  0  0  0  0
 42 45  1  0  0  0  0
 42 46  1  0  0  0  0
 43 42  1  0  0  0  0
 44 42  1  0  0  0  0
 46 58  2  0  0  0  0
 47 46  1  0  0  0  0
 47 49  2  0  0  0  0
 48 47  1  0  0  0  0
 49 50  1  0  0  0  0
 49 59  1  0  0  0  0
 50 51  1  0  0  0  0
 52 50  1  0  0  0  0
 53 50  1  0  0  0  0
 54 55  1  0  0  0  0
 55 63  1  0  0  0  0
 56 57  1  0  0  0  0
 56 34  2  0  0  0  0
 57 37  1  0  0  0  0
 58 59  1  0  0  0  0
 59 63  1  0  0  0  0
 62  3  1  0  0  0  0
 63 64  1  0  0  0  0
 63 57  1  0  0  0  0
M  END
$$$$
