CSD_code = JAVMAX | q = 1 | S = 0 | Stoichiometry = C21H21ClN2PPd(1+) | MND = 4
 OpenBabel04212202053D

 47 51  0  0  0  0  0  0  0  0999 V2000
    4.0042    7.2949    1.7657 Pd  0  0  1  0  0  0  0  0  0  0  0  0
    2.6918    8.9170    2.4897 Cl  0  0  0  0  0  0  0  0  0  0  0  0
    3.0066    6.1091    3.3772 P   0  0  0  0  0  4  0  0  0  0  0  0
    4.8236    8.3637    0.1625 N   0  0  0  0  0  0  0  0  0  0  0  0
    5.2801    5.9139    1.0989 N   0  0  0  0  0  0  0  0  0  0  0  0
    5.7320    7.6073   -0.4888 C   0  0  0  0  0  0  0  0  0  0  0  0
    5.9528    6.2902    0.0719 C   0  0  0  0  0  0  0  0  0  0  0  0
    6.7045    5.6474   -0.3852 H   0  0  0  0  0  0  0  0  0  0  0  0
    3.8155    4.4609    3.5826 C   0  0  0  0  0  0  0  0  0  0  0  0
    4.6633    4.5371    4.2668 H   0  0  0  0  0  0  0  0  0  0  0  0
    3.0843    3.7769    4.0220 H   0  0  0  0  0  0  0  0  0  0  0  0
    2.7565    6.7774    5.0358 C   0  0  0  0  0  0  0  0  0  0  0  0
    4.5576    9.5886   -0.2674 C   0  0  0  0  0  0  0  0  0  0  0  0
    3.8195   10.1479    0.2976 H   0  0  0  0  0  0  0  0  0  0  0  0
    1.1100    5.9615    1.3681 C   0  0  0  0  0  0  0  0  0  0  0  0
    1.8496    6.5161    0.7712 H   0  0  0  0  0  0  0  0  0  0  0  0
    1.5496    7.3831    5.3771 C   0  0  0  0  0  0  0  0  0  0  0  0
    0.7435    7.4198    4.6584 H   0  0  0  0  0  0  0  0  0  0  0  0
    3.8167    6.7785    5.9402 C   0  0  0  0  0  0  0  0  0  0  0  0
    4.7705    6.3512    5.6603 H   0  0  0  0  0  0  0  0  0  0  0  0
    4.2742    3.9380    2.2190 C   0  0  0  0  0  0  0  0  0  0  0  0
    4.4898    2.8716    2.3030 H   0  0  0  0  0  0  0  0  0  0  0  0
    3.4690    4.0598    1.4849 H   0  0  0  0  0  0  0  0  0  0  0  0
    1.3880    5.6525    2.6987 C   0  0  0  0  0  0  0  0  0  0  0  0
    0.4517    4.9602    3.4623 C   0  0  0  0  0  0  0  0  0  0  0  0
    0.6694    4.7221    4.4946 H   0  0  0  0  0  0  0  0  0  0  0  0
    5.5415    4.6281    1.6953 C   0  0  0  0  0  0  0  0  0  0  0  0
    6.2340    4.7859    2.5333 H   0  0  0  0  0  0  0  0  0  0  0  0
    6.0398    3.9749    0.9670 H   0  0  0  0  0  0  0  0  0  0  0  0
    6.4052    8.0865   -1.6126 C   0  0  0  0  0  0  0  0  0  0  0  0
    7.1270    7.4632   -2.1162 H   0  0  0  0  0  0  0  0  0  0  0  0
    1.3961    7.9457    6.6309 C   0  0  0  0  0  0  0  0  0  0  0  0
    0.4601    8.4126    6.8964 H   0  0  0  0  0  0  0  0  0  0  0  0
    5.1901   10.1311   -1.3788 C   0  0  0  0  0  0  0  0  0  0  0  0
    4.9505   11.1322   -1.6978 H   0  0  0  0  0  0  0  0  0  0  0  0
   -0.7580    4.5944    2.9002 C   0  0  0  0  0  0  0  0  0  0  0  0
   -1.4879    4.0655    3.4935 H   0  0  0  0  0  0  0  0  0  0  0  0
    6.1276    9.3674   -2.0606 C   0  0  0  0  0  0  0  0  0  0  0  0
    6.6344    9.7637   -2.9265 H   0  0  0  0  0  0  0  0  0  0  0  0
   -0.1008    5.5890    0.8118 C   0  0  0  0  0  0  0  0  0  0  0  0
   -0.3211    5.8322   -0.2164 H   0  0  0  0  0  0  0  0  0  0  0  0
    2.4422    7.9202    7.5397 C   0  0  0  0  0  0  0  0  0  0  0  0
    2.3187    8.3627    8.5160 H   0  0  0  0  0  0  0  0  0  0  0  0
   -1.0342    4.9088    1.5785 C   0  0  0  0  0  0  0  0  0  0  0  0
   -1.9808    4.6255    1.1452 H   0  0  0  0  0  0  0  0  0  0  0  0
    3.6532    7.3422    7.1919 C   0  0  0  0  0  0  0  0  0  0  0  0
    4.4727    7.3386    7.8942 H   0  0  0  0  0  0  0  0  0  0  0  0
  1  2  1  1  0  0  0
  1  3  1  0  0  0  0
  3  9  1  0  0  0  0
  3 12  1  0  0  0  0
  4  1  1  0  0  0  0
  5 27  1  0  0  0  0
  5  1  1  0  0  0  0
  6  7  2  0  0  0  0
  6  4  1  0  0  0  0
  7  5  1  0  0  0  0
  8  7  1  0  0  0  0
  9 11  1  0  0  0  0
  9 10  1  0  0  0  0
 12 17  2  0  0  0  0
 12 19  1  0  0  0  0
 13  4  1  0  0  0  0
 13 14  1  0  0  0  0
 15 24  1  0  0  0  0
 16 15  1  0  0  0  0
 17 32  1  0  0  0  0
 18 17  1  0  0  0  0
 19 46  2  0  0  0  0
 20 19  1  0  0  0  0
 21 22  1  0  0  0  0
 21  9  1  0  0  0  0
 23 21  1  0  0  0  0
 24  3  1  0  0  0  0
 24 25  2  0  0  0  0
 25 26  1  0  0  0  0
 27 21  1  0  0  0  0
 27 28  1  0  0  0  0
 29 27  1  0  0  0  0
 30  6  1  0  0  0  0
 31 30  1  0  0  0  0
 32 33  1  0  0  0  0
 32 42  2  0  0  0  0
 34 13  2  0  0  0  0
 35 34  1  0  0  0  0
 36 25  1  0  0  0  0
 36 37  1  0  0  0  0
 38 30  2  0  0  0  0
 38 34  1  0  0  0  0
 39 38  1  0  0  0  0
 40 15  2  0  0  0  0
 40 44  1  0  0  0  0
 41 40  1  0  0  0  0
 42 43  1  0  0  0  0
 44 36  2  0  0  0  0
 45 44  1  0  0  0  0
 46 42  1  0  0  0  0
 46 47  1  0  0  0  0
M  END
$$$$
