CSD_code = JAXMUQ | q = 0 | S = 0 | Stoichiometry = C28H20Cl2F6P2Pt | MND = 4
 OpenBabel04212202053D

 59 62  0  0  0  0  0  0  0  0999 V2000
    0.4650    2.0355    3.0824 Pt  0  0  0  0  0  0  0  0  0  0  0  0
    2.3284    2.7168    1.9575 Cl  0  0  0  0  0  0  0  0  0  0  0  0
   -0.7098    3.9048    2.4115 Cl  0  0  0  0  0  0  0  0  0  0  0  0
   -1.5641    1.6786    4.0749 P   0  0  0  0  0  4  0  0  0  0  0  0
    1.6240    0.2083    3.7765 P   0  0  0  0  0  4  0  0  0  0  0  0
   -4.1429    2.2279    3.3529 F   0  0  0  0  0  0  0  0  0  0  0  0
   -3.7316    1.5914    0.6564 F   0  0  0  0  0  0  0  0  0  0  0  0
   -1.6554    1.1019    1.1056 F   0  0  0  0  0  0  0  0  0  0  0  0
    3.3539   -1.0793    2.1015 F   0  0  0  0  0  0  0  0  0  0  0  0
    5.5541    0.4898    2.8872 F   0  0  0  0  0  0  0  0  0  0  0  0
    4.2691    1.5248    4.3106 F   0  0  0  0  0  0  0  0  0  0  0  0
   -1.9860    0.0680    4.8316 C   0  0  0  0  0  0  0  0  0  0  0  0
   -1.6325   -0.1631    6.1585 C   0  0  0  0  0  0  0  0  0  0  0  0
   -1.1846    0.6314    6.7382 H   0  0  0  0  0  0  0  0  0  0  0  0
   -1.8699   -1.3948    6.7385 C   0  0  0  0  0  0  0  0  0  0  0  0
   -1.5967   -1.5623    7.7697 H   0  0  0  0  0  0  0  0  0  0  0  0
   -2.4632   -2.4069    6.0017 C   0  0  0  0  0  0  0  0  0  0  0  0
   -2.6590   -3.3651    6.4586 H   0  0  0  0  0  0  0  0  0  0  0  0
   -2.8047   -2.1875    4.6777 C   0  0  0  0  0  0  0  0  0  0  0  0
   -3.2658   -2.9738    4.0994 H   0  0  0  0  0  0  0  0  0  0  0  0
   -2.5575   -0.9607    4.0896 C   0  0  0  0  0  0  0  0  0  0  0  0
   -2.8147   -0.8035    3.0520 H   0  0  0  0  0  0  0  0  0  0  0  0
   -2.0206    2.8533    5.3767 C   0  0  0  0  0  0  0  0  0  0  0  0
   -1.1425    3.8872    5.6855 C   0  0  0  0  0  0  0  0  0  0  0  0
   -0.2246    3.9969    5.1188 H   0  0  0  0  0  0  0  0  0  0  0  0
   -1.4579    4.7824    6.6914 C   0  0  0  0  0  0  0  0  0  0  0  0
   -0.7785    5.5878    6.9259 H   0  0  0  0  0  0  0  0  0  0  0  0
   -2.6471    4.6480    7.3891 C   0  0  0  0  0  0  0  0  0  0  0  0
   -2.8975    5.3519    8.1687 H   0  0  0  0  0  0  0  0  0  0  0  0
   -3.5178    3.6117    7.0894 C   0  0  0  0  0  0  0  0  0  0  0  0
   -4.4435    3.5080    7.6355 H   0  0  0  0  0  0  0  0  0  0  0  0
   -3.2071    2.7071    6.0913 C   0  0  0  0  0  0  0  0  0  0  0  0
   -3.8820    1.8940    5.8656 H   0  0  0  0  0  0  0  0  0  0  0  0
   -2.9482    1.8328    2.8844 C   0  0  0  0  0  0  0  0  0  0  0  0
   -2.8070    1.5396    1.5966 C   0  0  0  0  0  0  0  0  0  0  0  0
    0.7801   -1.3344    3.3270 C   0  0  0  0  0  0  0  0  0  0  0  0
    0.3175   -1.3821    2.0132 C   0  0  0  0  0  0  0  0  0  0  0  0
    0.4834   -0.5296    1.3639 H   0  0  0  0  0  0  0  0  0  0  0  0
   -0.3377   -2.5075    1.5532 C   0  0  0  0  0  0  0  0  0  0  0  0
   -0.6892   -2.5481    0.5334 H   0  0  0  0  0  0  0  0  0  0  0  0
   -0.5404   -3.5827    2.4046 C   0  0  0  0  0  0  0  0  0  0  0  0
   -1.0484   -4.4656    2.0460 H   0  0  0  0  0  0  0  0  0  0  0  0
   -0.0977   -3.5267    3.7156 C   0  0  0  0  0  0  0  0  0  0  0  0
   -0.2635   -4.3627    4.3786 H   0  0  0  0  0  0  0  0  0  0  0  0
    0.5605   -2.4028    4.1847 C   0  0  0  0  0  0  0  0  0  0  0  0
    0.8901   -2.3566    5.2123 H   0  0  0  0  0  0  0  0  0  0  0  0
    2.0024    0.1212    5.5475 C   0  0  0  0  0  0  0  0  0  0  0  0
    2.8027   -0.8829    6.0868 C   0  0  0  0  0  0  0  0  0  0  0  0
    3.2360   -1.6353    5.4417 H   0  0  0  0  0  0  0  0  0  0  0  0
    3.0493   -0.9043    7.4472 C   0  0  0  0  0  0  0  0  0  0  0  0
    3.6692   -1.6820    7.8678 H   0  0  0  0  0  0  0  0  0  0  0  0
    2.5106    0.0732    8.2699 C   0  0  0  0  0  0  0  0  0  0  0  0
    2.7113    0.0523    9.3305 H   0  0  0  0  0  0  0  0  0  0  0  0
    1.7302    1.0840    7.7328 C   0  0  0  0  0  0  0  0  0  0  0  0
    1.3259    1.8553    8.3712 H   0  0  0  0  0  0  0  0  0  0  0  0
    1.4790    1.1085    6.3731 C   0  0  0  0  0  0  0  0  0  0  0  0
    0.8892    1.9023    5.9271 H   0  0  0  0  0  0  0  0  0  0  0  0
    3.2683   -0.1312    3.0488 C   0  0  0  0  0  0  0  0  0  0  0  0
    4.3299    0.6064    3.3610 C   0  0  0  0  0  0  0  0  0  0  0  0
  1  5  1  0  0  0  0
  1  4  1  0  0  0  0
  2  1  1  0  0  0  0
  3  1  1  0  0  0  0
  4 12  1  0  0  0  0
  4 23  1  0  0  0  0
  5 47  1  0  0  0  0
  7 35  1  0  0  0  0
  8 35  1  0  0  0  0
  9 58  1  0  0  0  0
 10 59  1  0  0  0  0
 12 13  1  0  0  0  0
 13 14  1  0  0  0  0
 13 15  2  0  0  0  0
 15 16  1  0  0  0  0
 17 18  1  0  0  0  0
 17 15  1  0  0  0  0
 19 17  2  0  0  0  0
 20 19  1  0  0  0  0
 21 19  1  0  0  0  0
 21 12  2  0  0  0  0
 22 21  1  0  0  0  0
 23 24  2  0  0  0  0
 23 32  1  0  0  0  0
 24 26  1  0  0  0  0
 25 24  1  0  0  0  0
 26 27  1  0  0  0  0
 26 28  2  0  0  0  0
 28 29  1  0  0  0  0
 30 28  1  0  0  0  0
 30 31  1  0  0  0  0
 32 30  2  0  0  0  0
 33 32  1  0  0  0  0
 34  6  1  0  0  0  0
 34  4  1  0  0  0  0
 35 34  2  0  0  0  0
 36  5  1  0  0  0  0
 36 45  1  0  0  0  0
 37 36  2  0  0  0  0
 38 37  1  0  0  0  0
 39 37  1  0  0  0  0
 39 41  2  0  0  0  0
 40 39  1  0  0  0  0
 41 43  1  0  0  0  0
 42 41  1  0  0  0  0
 43 45  2  0  0  0  0
 43 44  1  0  0  0  0
 45 46  1  0  0  0  0
 47 48  2  0  0  0  0
 47 56  1  0  0  0  0
 48 50  1  0  0  0  0
 49 48  1  0  0  0  0
 50 51  1  0  0  0  0
 50 52  2  0  0  0  0
 52 53  1  0  0  0  0
 54 52  1  0  0  0  0
 54 55  1  0  0  0  0
 56 54  2  0  0  0  0
 57 56  1  0  0  0  0
 58 59  2  0  0  0  0
 58  5  1  0  0  0  0
 59 11  1  0  0  0  0
M  END
$$$$
