CSD_code = JAYGUL | q = 0 | S = 0 | Stoichiometry = C10H20Cl2N2SiTi | MND = 9
 OpenBabel04212202053D

 36 33  0  0  0  0  0  0  0  0999 V2000
    1.3867    2.4483    2.4512 Ti  0  0  0  0  0  0  0  0  0  0  0  0
   -0.6004    3.4982    2.4784 Cl  0  0  0  0  0 15  0  0  0  0  0  0
    0.5442    0.4049    2.6182 Cl  0  0  0  0  0 15  0  0  0  0  0  0
    2.5301    2.4199    3.8819 N   0  0  0  0  0  0  0  0  0  0  0  0
    3.3286    1.4195    4.5423 C   0  0  0  0  0  0  0  0  0  0  0  0
    1.3377    2.8371    4.4816 N   0  0  0  0  0  0  0  0  0  0  0  0
    1.4522    4.5242    5.0924 Si  0  0  0  0  0  0  0  0  0  0  0  0
    2.7892    4.5419    6.4627 C   0  0  0  0  0  0  0  0  0  0  0  0
    1.9969    5.5983    3.6223 C   0  0  0  0  0  0  0  0  0  0  0  0
   -0.2570    5.0291    5.7627 C   0  0  0  0  0  0  0  0  0  0  0  0
    0.6014    1.9156    5.3455 C   0  0  0  0  0  0  0  0  0  0  0  0
    1.3142    2.7979    0.1256 C   0  0  0  0  0  0  0  0  0  0  0  0
    2.1085    3.8093    0.7110 C   0  0  0  0  0  3  0  0  0  0  0  0
    3.2549    3.1955    1.2620 C   0  0  0  0  0  0  0  0  0  0  0  0
    3.1543    1.8049    1.0345 C   0  0  0  0  0  0  0  0  0  0  0  0
    1.9671    1.5687    0.3124 C   0  0  0  0  0  0  0  0  0  0  0  0
    4.3119    1.4079    4.0678 H   0  0  0  0  0  0  0  0  0  0  0  0
    2.8930    0.4106    4.4596 H   0  0  0  0  0  0  0  0  0  0  0  0
    3.4575    1.6633    5.6034 H   0  0  0  0  0  0  0  0  0  0  0  0
    2.5286    3.9012    7.3002 H   0  0  0  0  0  0  0  0  0  0  0  0
    3.7559    4.2222    6.0842 H   0  0  0  0  0  0  0  0  0  0  0  0
    2.9074    5.5464    6.8530 H   0  0  0  0  0  0  0  0  0  0  0  0
    2.9320    5.2448    3.1929 H   0  0  0  0  0  0  0  0  0  0  0  0
    1.2288    5.5870    2.8512 H   0  0  0  0  0  0  0  0  0  0  0  0
    2.1410    6.6287    3.9312 H   0  0  0  0  0  0  0  0  0  0  0  0
   -0.5277    4.4890    6.6649 H   0  0  0  0  0  0  0  0  0  0  0  0
   -1.0257    4.8498    5.0159 H   0  0  0  0  0  0  0  0  0  0  0  0
   -0.2687    6.0868    6.0020 H   0  0  0  0  0  0  0  0  0  0  0  0
   -0.4517    2.2020    5.3176 H   0  0  0  0  0  0  0  0  0  0  0  0
    0.9609    1.9682    6.3786 H   0  0  0  0  0  0  0  0  0  0  0  0
    0.6853    0.8867    4.9933 H   0  0  0  0  0  0  0  0  0  0  0  0
    0.4128    2.9590   -0.4530 H   0  0  0  0  0  0  0  0  0  0  0  0
    1.9386    4.8743    0.6102 H   0  0  0  0  0  0  0  0  0  0  0  0
    4.1191    3.7030    1.6731 H   0  0  0  0  0  0  0  0  0  0  0  0
    3.9140    1.0671    1.2569 H   0  0  0  0  0  0  0  0  0  0  0  0
    1.6502    0.6136   -0.0874 H   0  0  0  0  0  0  0  0  0  0  0  0
  1  4  1  0  0  0  0
  4  6  1  0  0  0  0
  4  5  1  0  0  0  0
  5 19  1  0  0  0  0
  6  7  1  0  0  0  0
  6 11  1  0  0  0  0
  7 10  1  0  0  0  0
  7  8  1  0  0  0  0
  8 22  1  0  0  0  0
  8 20  1  0  0  0  0
  9 25  1  0  0  0  0
  9  7  1  0  0  0  0
 10 28  1  0  0  0  0
 10 26  1  0  0  0  0
 11 30  1  0  0  0  0
 12 16  2  0  0  0  0
 12 13  1  0  0  0  0
 13 14  1  0  0  0  0
 14 34  1  0  0  0  0
 15 35  1  0  0  0  0
 15 14  2  0  0  0  0
 16 15  1  0  0  0  0
 17  5  1  0  0  0  0
 18  5  1  0  0  0  0
 21  8  1  0  0  0  0
 23  9  1  0  0  0  0
 24  9  1  0  0  0  0
 27 10  1  0  0  0  0
 29 11  1  0  0  0  0
 31 11  1  0  0  0  0
 32 12  1  0  0  0  0
 33 13  1  0  0  0  0
 36 16  1  0  0  0  0
M  END
$$$$
