CSD_code = JAYHAS | q = 0 | S = 0 | Stoichiometry = C6H18Cl2N4Ti | MND = 6
 OpenBabel04212202053D

 31 28  0  0  0  0  0  0  0  0999 V2000
    2.3268    0.5515    2.0272 Ti  0  0  0  0  0  0  0  0  0  0  0  0
    4.4197    0.4128    2.7471 Cl  0  0  0  0  0 15  0  0  0  0  0  0
    1.7444   -1.5795    1.8101 Cl  0  0  0  0  0 15  0  0  0  0  0  0
    2.4920    1.8007    0.7224 N   0  0  0  0  0  0  0  0  0  0  0  0
    2.1632    2.9786   -0.0381 C   0  0  0  0  0  0  0  0  0  0  0  0
    2.6902    0.5991    0.0359 N   0  0  0  0  0  0  0  0  0  0  0  0
    3.9889    0.4693   -0.6209 C   0  0  0  0  0  0  0  0  0  0  0  0
    1.5904    0.1872   -0.8352 C   0  0  0  0  0  0  0  0  0  0  0  0
    0.8919    1.2166    2.9133 N   0  0  0  0  0  0  0  0  0  0  0  0
   -0.1735    2.1375    3.2151 C   0  0  0  0  0  0  0  0  0  0  0  0
    1.7379    0.8123    3.9505 N   0  0  0  0  0  0  0  0  0  0  0  0
    2.3847    1.8971    4.6879 C   0  0  0  0  0  0  0  0  0  0  0  0
    1.1783   -0.1995    4.8443 C   0  0  0  0  0  0  0  0  0  0  0  0
    1.1760    2.9079   -0.5226 H   0  0  0  0  0  0  0  0  0  0  0  0
    2.9201    3.1725   -0.8114 H   0  0  0  0  0  0  0  0  0  0  0  0
    2.1492    3.8280    0.6452 H   0  0  0  0  0  0  0  0  0  0  0  0
    4.7575    0.8537    0.0545 H   0  0  0  0  0  0  0  0  0  0  0  0
    4.1858   -0.5850   -0.8237 H   0  0  0  0  0  0  0  0  0  0  0  0
    4.0184    1.0291   -1.5657 H   0  0  0  0  0  0  0  0  0  0  0  0
    0.6459    0.3600   -0.3032 H   0  0  0  0  0  0  0  0  0  0  0  0
    1.6834   -0.8812   -1.0429 H   0  0  0  0  0  0  0  0  0  0  0  0
    1.5952    0.7405   -1.7847 H   0  0  0  0  0  0  0  0  0  0  0  0
   -0.8207    1.7447    4.0119 H   0  0  0  0  0  0  0  0  0  0  0  0
   -0.7773    2.2605    2.3156 H   0  0  0  0  0  0  0  0  0  0  0  0
    0.1978    3.1288    3.5208 H   0  0  0  0  0  0  0  0  0  0  0  0
    1.7000    2.3605    5.4118 H   0  0  0  0  0  0  0  0  0  0  0  0
    3.2507    1.4974    5.2201 H   0  0  0  0  0  0  0  0  0  0  0  0
    2.7323    2.6465    3.9650 H   0  0  0  0  0  0  0  0  0  0  0  0
    0.4798    0.2451    5.5663 H   0  0  0  0  0  0  0  0  0  0  0  0
    0.6526   -0.9425    4.2393 H   0  0  0  0  0  0  0  0  0  0  0  0
    1.9888   -0.6891    5.3866 H   0  0  0  0  0  0  0  0  0  0  0  0
  1  9  1  0  0  0  0
  4  1  1  0  0  0  0
  5 16  1  0  0  0  0
  5  4  1  0  0  0  0
  6  4  1  0  0  0  0
  7  6  1  0  0  0  0
  7 17  1  0  0  0  0
  8 20  1  0  0  0  0
  8  6  1  0  0  0  0
  9 10  1  0  0  0  0
  9 11  1  0  0  0  0
 10 25  1  0  0  0  0
 10 23  1  0  0  0  0
 11 12  1  0  0  0  0
 11 13  1  0  0  0  0
 12 27  1  0  0  0  0
 12 26  1  0  0  0  0
 13 31  1  0  0  0  0
 13 29  1  0  0  0  0
 14  5  1  0  0  0  0
 15  5  1  0  0  0  0
 18  7  1  0  0  0  0
 19  7  1  0  0  0  0
 21  8  1  0  0  0  0
 22  8  1  0  0  0  0
 24 10  1  0  0  0  0
 28 12  1  0  0  0  0
 30 13  1  0  0  0  0
M  END
$$$$
