CSD_code = JAYHEW | q = 0 | S = 0 | Stoichiometry = C7H11Cl2NOTi | MND = 9
 OpenBabel04212202053D

 23 20  0  0  0  0  0  0  0  0999 V2000
    1.2173    3.1003    0.7128 Ti  0  0  0  0  0  0  0  0  0  0  0  0
    2.4906    4.8382    1.0868 Cl  0  0  0  0  0 15  0  0  0  0  0  0
    2.6740    1.6161    1.5555 Cl  0  0  0  0  0 15  0  0  0  0  0  0
    0.8876    3.3007   -1.0215 O   0  0  0  0  0  0  0  0  0  0  0  0
    2.0468    2.5798   -0.9819 N   0  0  0  0  0  0  0  0  0  0  0  0
    3.1618    3.2433   -1.6422 C   0  0  0  0  0  0  0  0  0  0  0  0
    1.8476    1.2141   -1.4502 C   0  0  0  0  0  0  0  0  0  0  0  0
    0.1340    2.8837    2.7619 C   0  0  0  0  0  0  0  0  0  0  0  0
   -0.2104    4.1484    2.2532 C   0  0  0  0  0  3  0  0  0  0  0  0
   -0.9151    3.9579    1.0441 C   0  0  0  0  0  0  0  0  0  0  0  0
   -1.0396    2.5662    0.8261 C   0  0  0  0  0  0  0  0  0  0  0  0
   -0.3776    1.9007    1.8788 C   0  0  0  0  0  0  0  0  0  0  0  0
    3.1311    4.3066   -1.3887 H   0  0  0  0  0  0  0  0  0  0  0  0
    3.0933    3.1270   -2.7305 H   0  0  0  0  0  0  0  0  0  0  0  0
    4.0951    2.8096   -1.2766 H   0  0  0  0  0  0  0  0  0  0  0  0
    0.9662    0.7975   -0.9462 H   0  0  0  0  0  0  0  0  0  0  0  0
    2.7243    0.6185   -1.1888 H   0  0  0  0  0  0  0  0  0  0  0  0
    1.6906    1.1968   -2.5365 H   0  0  0  0  0  0  0  0  0  0  0  0
    0.6114    2.6873    3.7143 H   0  0  0  0  0  0  0  0  0  0  0  0
   -0.0368    5.0994    2.7417 H   0  0  0  0  0  0  0  0  0  0  0  0
   -1.3797    4.7335    0.4502 H   0  0  0  0  0  0  0  0  0  0  0  0
   -1.6205    2.1014    0.0386 H   0  0  0  0  0  0  0  0  0  0  0  0
   -0.3651    0.8306    2.0529 H   0  0  0  0  0  0  0  0  0  0  0  0
  4  5  1  0  0  0  0
  4  1  1  0  0  0  0
  6 13  1  0  0  0  0
  6 15  1  0  0  0  0
  6  5  1  0  0  0  0
  7 17  1  0  0  0  0
  7  5  1  0  0  0  0
  7 16  1  0  0  0  0
  8 19  1  0  0  0  0
  9 20  1  0  0  0  0
  9  8  1  0  0  0  0
 10  9  1  0  0  0  0
 11 10  2  0  0  0  0
 11 12  1  0  0  0  0
 12 23  1  0  0  0  0
 12  8  2  0  0  0  0
 14  6  1  0  0  0  0
 18  7  1  0  0  0  0
 21 10  1  0  0  0  0
 22 11  1  0  0  0  0
M  END
$$$$
