CSD_code = JAYJAV | q = 0 | S = 0 | Stoichiometry = C24H17Cl2N2O2Rh | MND = 6
 OpenBabel04212202053D

 48 53  0  0  1  0  0  0  0  0999 V2000
    8.9806    2.0351    8.7579 Rh  0  0  0  0  0  0  0  0  0  0  0  0
    7.6182    2.4364    6.9647 Cl  0  0  0  0  0  0  0  0  0  0  0  0
   10.3484    1.7725   10.6317 Cl  0  0  0  0  0  0  0  0  0  0  0  0
    7.7782    3.1600   10.3824 O   0  0  0  0  0  0  0  0  0  0  0  0
    7.7772   -0.5595    5.5211 O   0  0  0  0  0  0  0  0  0  0  0  0
    9.7297    3.8537    8.6515 N   0  0  0  0  0  0  0  0  0  0  0  0
    8.0509    0.3233    8.9474 N   0  0  0  0  0  0  0  0  0  0  0  0
   10.3663    4.4144    7.6277 C   0  0  0  0  0  3  0  0  0  0  0  0
   10.4700    3.8118    6.7345 H   0  0  0  0  0  0  0  0  0  0  0  0
   10.8721    5.7013    7.6885 C   0  0  0  0  0  0  0  0  0  0  0  0
   11.3824    6.1167    6.8346 H   0  0  0  0  0  0  0  0  0  0  0  0
   10.7080    6.4376    8.8529 C   0  0  0  0  0  0  0  0  0  0  0  0
   11.0897    7.4440    8.9292 H   0  0  0  0  0  0  0  0  0  0  0  0
   10.0267    5.8628    9.9121 C   0  0  0  0  0  0  0  0  0  0  0  0
    9.8447    6.4116   10.8227 H   0  0  0  0  0  0  0  0  0  0  0  0
    9.5509    4.5630    9.7827 C   0  0  0  0  0  0  0  0  0  0  0  0
    8.6645    3.9135   10.7906 C   0  0  1  0  0  3  0  0  0  0  0  0
    8.7658    4.3031   12.2041 C   0  0  0  0  0  0  0  0  0  0  0  0
    9.9913    4.6270   12.7859 C   0  0  0  0  0  0  0  0  0  0  0  0
   10.8937    4.5741   12.1963 H   0  0  0  0  0  0  0  0  0  0  0  0
   10.0505    4.9527   14.1273 C   0  0  0  0  0  0  0  0  0  0  0  0
   11.0014    5.1924   14.5792 H   0  0  0  0  0  0  0  0  0  0  0  0
    8.8963    4.9651   14.8955 C   0  0  0  0  0  0  0  0  0  0  0  0
    8.9485    5.2258   15.9421 H   0  0  0  0  0  0  0  0  0  0  0  0
    7.6784    4.6279   14.3259 C   0  0  0  0  0  0  0  0  0  0  0  0
    6.7818    4.6251   14.9275 H   0  0  0  0  0  0  0  0  0  0  0  0
    7.6126    4.2868   12.9892 C   0  0  0  0  0  0  0  0  0  0  0  0
    6.6741    4.0155   12.5291 H   0  0  0  0  0  0  0  0  0  0  0  0
   10.2558    1.1203    7.5305 C   0  0  0  0  0  0  0  0  0  0  0  0
   11.6132    1.4121    7.5282 C   0  0  0  0  0  0  0  0  0  0  0  0
   12.0367    2.0664    8.2793 H   0  0  0  0  0  0  0  0  0  0  0  0
   12.4514    0.8513    6.5768 C   0  0  0  0  0  0  0  0  0  0  0  0
   13.5077    1.0775    6.6000 H   0  0  0  0  0  0  0  0  0  0  0  0
   11.9400    0.0158    5.5966 C   0  0  0  0  0  0  0  0  0  0  0  0
   12.5920   -0.4032    4.8449 H   0  0  0  0  0  0  0  0  0  0  0  0
   10.5930   -0.2801    5.5895 C   0  0  0  0  0  0  0  0  0  0  0  0
   10.1625   -0.9273    4.8396 H   0  0  0  0  0  0  0  0  0  0  0  0
    9.7483    0.2513    6.5655 C   0  0  0  0  0  0  0  0  0  0  0  0
    8.3297   -0.1747    6.5302 C   0  0  0  0  0  0  0  0  0  0  0  0
    7.6797   -0.3819    7.8716 C   0  0  1  0  0  3  0  0  0  0  0  0
    6.7244   -1.3913    7.9589 C   0  0  0  0  0  0  0  0  0  0  0  0
    6.4481   -1.9061    7.0517 H   0  0  0  0  0  0  0  0  0  0  0  0
    6.1562   -1.6924    9.1809 C   0  0  0  0  0  0  0  0  0  0  0  0
    5.4073   -2.4647    9.2674 H   0  0  0  0  0  0  0  0  0  0  0  0
    6.5755   -0.9773   10.2938 C   0  0  0  0  0  0  0  0  0  0  0  0
    6.1738   -1.1802   11.2737 H   0  0  0  0  0  0  0  0  0  0  0  0
    7.5131    0.0248   10.1315 C   0  0  0  0  0  0  0  0  0  0  0  0
    7.8453    0.6131   10.9795 H   0  0  0  0  0  0  0  0  0  0  0  0
  1  7  1  0  0  0  0
  1  4  1  0  0  0  0
  1  3  1  0  0  0  0
  2  1  1  0  0  0  0
  4 17  1  0  0  0  0
  5 39  2  0  0  0  0
  6  1  1  0  0  0  0
  6 16  1  0  0  0  0
  7 47  1  0  0  0  0
  8 10  1  0  0  0  0
  8  6  1  0  0  0  0
  9  8  1  0  0  0  0
 10 12  2  0  0  0  0
 11 10  1  0  0  0  0
 12 13  1  0  0  0  0
 12 14  1  0  0  0  0
 14 15  1  0  0  0  0
 16 14  2  0  0  0  0
 16 17  1  0  0  0  0
 17 18  1  6  0  0  0
 18 19  2  0  0  0  0
 18 27  1  0  0  0  0
 19 21  1  0  0  0  0
 20 19  1  0  0  0  0
 21 22  1  0  0  0  0
 21 23  2  0  0  0  0
 23 24  1  0  0  0  0
 25 23  1  0  0  0  0
 25 26  1  0  0  0  0
 27 25  2  0  0  0  0
 28 27  1  0  0  0  0
 29  1  1  0  0  0  0
 30 29  1  0  0  0  0
 30 31  1  0  0  0  0
 32 33  1  0  0  0  0
 32 30  2  0  0  0  0
 34 32  1  0  0  0  0
 35 34  1  0  0  0  0
 36 34  2  0  0  0  0
 36 38  1  0  0  0  0
 37 36  1  0  0  0  0
 38 29  2  0  0  0  0
 39 38  1  0  0  0  0
 40 39  1  1  0  0  0
 40 41  1  0  0  0  0
 40  7  1  0  0  0  0
 41 43  2  0  0  0  0
 42 41  1  0  0  0  0
 43 44  1  0  0  0  0
 43 45  1  0  0  0  0
 45 46  1  0  0  0  0
 47 45  2  0  0  0  0
 47 48  1  0  0  0  0
M  END
$$$$
