CSD_code = JAZDET | q = 0 | S = 0 | Stoichiometry = C10H30Cl4IrP3Si | MND = 6
 OpenBabel04212202053D

 49 48  0  0  0  0  0  0  0  0999 V2000
    0.3716    2.6473    2.8542 Ir  0  0  0  0  0  0  0  0  0  0  0  0
    2.1696    2.6006    4.3793 P   0  0  0  0  0  4  0  0  0  0  0  0
   -0.3584    0.4721    3.3378 P   0  0  0  0  0  4  0  0  0  0  0  0
   -0.9743    3.2477    0.9907 P   0  0  0  0  0  4  0  0  0  0  0  0
    1.4812    4.6069    2.0992 Cl  0  0  0  0  0  0  0  0  0  0  0  0
    1.5441    1.1352    1.2771 Cl  0  0  0  0  0  0  0  0  0  0  0  0
   -0.9817    3.8979    4.3440 Si  0  0  0  0  0  0  0  0  0  0  0  0
   -3.0398    3.5659    4.0261 Cl  0  0  0  0  0  0  0  0  0  0  0  0
   -0.8125    3.3723    6.3768 Cl  0  0  0  0  0  0  0  0  0  0  0  0
   -0.8986    5.8156    4.5036 C   0  0  0  0  0  0  0  0  0  0  0  0
    3.7391    2.1650    3.5587 C   0  0  0  0  0  0  0  0  0  0  0  0
    2.1964    1.5754    5.9031 C   0  0  0  0  0  0  0  0  0  0  0  0
    2.5953    4.2069    5.1421 C   0  0  0  0  0  0  0  0  0  0  0  0
   -1.3343    0.2525    4.8786 C   0  0  0  0  0  0  0  0  0  0  0  0
   -1.4712   -0.3683    2.1575 C   0  0  0  0  0  0  0  0  0  0  0  0
    0.9160   -0.8368    3.5316 C   0  0  0  0  0  0  0  0  0  0  0  0
   -0.0764    3.1984   -0.5961 C   0  0  0  0  0  0  0  0  0  0  0  0
   -1.5927    4.9709    0.9874 C   0  0  0  0  0  0  0  0  0  0  0  0
   -2.5319    2.3930    0.5270 C   0  0  0  0  0  0  0  0  0  0  0  0
   -1.1012    6.3040    3.5575 H   0  0  0  0  0  0  0  0  0  0  0  0
    0.0877    6.1316    4.8266 H   0  0  0  0  0  0  0  0  0  0  0  0
   -1.6247    6.1696    5.2319 H   0  0  0  0  0  0  0  0  0  0  0  0
    3.9153    2.8955    2.7701 H   0  0  0  0  0  0  0  0  0  0  0  0
    3.6631    1.1822    3.0979 H   0  0  0  0  0  0  0  0  0  0  0  0
    4.5591    2.1841    4.2768 H   0  0  0  0  0  0  0  0  0  0  0  0
    2.0515    0.5204    5.6934 H   0  0  0  0  0  0  0  0  0  0  0  0
    1.3972    1.9194    6.5562 H   0  0  0  0  0  0  0  0  0  0  0  0
    3.1544    1.7134    6.4036 H   0  0  0  0  0  0  0  0  0  0  0  0
    2.6648    4.9745    4.3754 H   0  0  0  0  0  0  0  0  0  0  0  0
    3.5510    4.1143    5.6578 H   0  0  0  0  0  0  0  0  0  0  0  0
    1.8217    4.4754    5.8577 H   0  0  0  0  0  0  0  0  0  0  0  0
   -0.7519    0.5727    5.7389 H   0  0  0  0  0  0  0  0  0  0  0  0
   -1.6266   -0.7898    4.9988 H   0  0  0  0  0  0  0  0  0  0  0  0
   -2.2260    0.8725    4.8229 H   0  0  0  0  0  0  0  0  0  0  0  0
   -2.4420    0.1205    2.1567 H   0  0  0  0  0  0  0  0  0  0  0  0
   -1.5864   -1.4072    2.4682 H   0  0  0  0  0  0  0  0  0  0  0  0
   -1.0287   -0.3339    1.1644 H   0  0  0  0  0  0  0  0  0  0  0  0
    1.8711   -0.4114    3.8250 H   0  0  0  0  0  0  0  0  0  0  0  0
    1.0544   -1.3201    2.5671 H   0  0  0  0  0  0  0  0  0  0  0  0
    0.5880   -1.5643    4.2734 H   0  0  0  0  0  0  0  0  0  0  0  0
    0.2332    2.1777   -0.8093 H   0  0  0  0  0  0  0  0  0  0  0  0
    0.8127    3.8210   -0.5180 H   0  0  0  0  0  0  0  0  0  0  0  0
   -0.7240    3.5685   -1.3913 H   0  0  0  0  0  0  0  0  0  0  0  0
   -0.7760    5.6555    1.2019 H   0  0  0  0  0  0  0  0  0  0  0  0
   -2.3707    5.0766    1.7392 H   0  0  0  0  0  0  0  0  0  0  0  0
   -2.0062    5.1967    0.0048 H   0  0  0  0  0  0  0  0  0  0  0  0
   -2.3213    1.3910    0.1644 H   0  0  0  0  0  0  0  0  0  0  0  0
   -3.0223    2.9601   -0.2634 H   0  0  0  0  0  0  0  0  0  0  0  0
   -3.1897    2.3443    1.3918 H   0  0  0  0  0  0  0  0  0  0  0  0
  1  3  1  0  0  0  0
  1  7  1  0  0  0  0
  1  2  1  0  0  0  0
  2 13  1  0  0  0  0
  2 12  1  0  0  0  0
  3 16  1  0  0  0  0
  3 14  1  0  0  0  0
  4  1  1  0  0  0  0
  5  1  1  0  0  0  0
  6  1  1  0  0  0  0
  7 10  1  0  0  0  0
  7  9  1  0  0  0  0
  8  7  1  0  0  0  0
 10 21  1  0  0  0  0
 10 22  1  0  0  0  0
 11 25  1  0  0  0  0
 11  2  1  0  0  0  0
 12 28  1  0  0  0  0
 12 27  1  0  0  0  0
 13 30  1  0  0  0  0
 13 31  1  0  0  0  0
 14 33  1  0  0  0  0
 14 32  1  0  0  0  0
 15 36  1  0  0  0  0
 15  3  1  0  0  0  0
 16 38  1  0  0  0  0
 16 40  1  0  0  0  0
 17 42  1  0  0  0  0
 17  4  1  0  0  0  0
 18  4  1  0  0  0  0
 18 44  1  0  0  0  0
 18 45  1  0  0  0  0
 19  4  1  0  0  0  0
 19 49  1  0  0  0  0
 20 10  1  0  0  0  0
 23 11  1  0  0  0  0
 24 11  1  0  0  0  0
 26 12  1  0  0  0  0
 29 13  1  0  0  0  0
 34 14  1  0  0  0  0
 35 15  1  0  0  0  0
 37 15  1  0  0  0  0
 39 16  1  0  0  0  0
 41 17  1  0  0  0  0
 43 17  1  0  0  0  0
 46 18  1  0  0  0  0
 47 19  1  0  0  0  0
 48 19  1  0  0  0  0
M  END
$$$$
