CSD_code = JAZGAS | q = 0 | S = 0 | Stoichiometry = C25H26F3O2Ta | MND = 10
 OpenBabel04212202053D

 57 60  0  0  1  0  0  0  0  0999 V2000
   -0.4911    2.6962    6.1094 Ta  0  0  0  0  0  0  0  0  0  0  0  0
   -1.8070    1.6549    5.3757 F   0  0  0  0  0  0  0  0  0  0  0  0
   -1.5143    2.9990    7.6107 F   0  0  0  0  0  0  0  0  0  0  0  0
    0.9042    3.6339    6.8228 F   0  0  0  0  0  0  0  0  0  0  0  0
    0.7490    0.6601    7.0832 O   0  0  0  0  0  0  0  0  0  0  0  0
    0.6623    2.0765    4.7738 O   0  0  0  0  0  0  0  0  0  0  0  0
    1.7991    0.1868    6.6101 C   0  0  0  0  0  0  0  0  0  0  0  0
    2.3214    0.5100    5.3191 C   0  0  0  0  0  0  0  0  0  0  0  0
    1.7307    1.4142    4.4654 C   0  0  1  0  0  3  0  0  0  0  0  0
   -0.4979    6.5713    5.7129 C   0  0  0  0  0  0  0  0  0  0  0  0
    0.2814    7.7873    6.0862 C   0  0  0  0  0  0  0  0  0  0  0  0
   -0.1435    5.5620    4.8856 C   0  0  0  0  0  0  0  0  0  0  0  0
    1.0985    5.4240    4.0619 C   0  0  0  0  0  0  0  0  0  0  0  0
   -1.2297    4.5396    4.8666 C   0  0  1  0  0  0  0  0  0  0  0  0
   -1.6975    4.1323    3.4733 C   0  0  0  0  0  0  0  0  0  0  0  0
   -2.2889    5.1441    5.7291 C   0  0  0  0  0  0  0  0  0  0  0  0
   -3.6362    4.5165    5.8999 C   0  0  0  0  0  0  0  0  0  0  0  0
   -1.8328    6.3123    6.2363 C   0  0  0  0  0  0  0  0  0  0  0  0
   -2.5213    7.2429    7.1773 C   0  0  0  0  0  0  0  0  0  0  0  0
    2.5371   -0.8209    7.4170 C   0  0  0  0  0  0  0  0  0  0  0  0
    3.9216   -0.9630    7.3558 C   0  0  0  0  0  0  0  0  0  0  0  0
    4.5578   -1.9012    8.1478 C   0  0  0  0  0  0  0  0  0  0  0  0
    3.8238   -2.7112    8.9992 C   0  0  0  0  0  0  0  0  0  0  0  0
    2.4475   -2.5686    9.0730 C   0  0  0  0  0  0  0  0  0  0  0  0
    1.8089   -1.6228    8.2945 C   0  0  0  0  0  0  0  0  0  0  0  0
    2.2921    1.6451    3.1143 C   0  0  0  0  0  0  0  0  0  0  0  0
    3.6636    1.6455    2.8712 C   0  0  0  0  0  0  0  0  0  0  0  0
    4.1409    1.8827    1.5954 C   0  0  0  0  0  0  0  0  0  0  0  0
    3.2599    2.1155    0.5512 C   0  0  0  0  0  0  0  0  0  0  0  0
    1.8945    2.1186    0.7862 C   0  0  0  0  0  0  0  0  0  0  0  0
    1.4126    1.8913    2.0611 C   0  0  0  0  0  0  0  0  0  0  0  0
    3.1865   -0.0290    4.9714 H   0  0  0  0  0  0  0  0  0  0  0  0
   -0.2762    8.6888    5.8331 H   0  0  0  0  0  0  0  0  0  0  0  0
    0.4636    7.7971    7.1603 H   0  0  0  0  0  0  0  0  0  0  0  0
    1.2376    7.8161    5.5722 H   0  0  0  0  0  0  0  0  0  0  0  0
    0.9188    5.7517    3.0357 H   0  0  0  0  0  0  0  0  0  0  0  0
    1.9029    6.0278    4.4732 H   0  0  0  0  0  0  0  0  0  0  0  0
    1.4311    4.3869    4.0358 H   0  0  0  0  0  0  0  0  0  0  0  0
   -2.1274    5.0001    2.9705 H   0  0  0  0  0  0  0  0  0  0  0  0
   -0.8613    3.7732    2.8767 H   0  0  0  0  0  0  0  0  0  0  0  0
   -2.4561    3.3544    3.5277 H   0  0  0  0  0  0  0  0  0  0  0  0
   -4.3254    4.8806    5.1352 H   0  0  0  0  0  0  0  0  0  0  0  0
   -3.5694    3.4331    5.8191 H   0  0  0  0  0  0  0  0  0  0  0  0
   -4.0534    4.7590    6.8739 H   0  0  0  0  0  0  0  0  0  0  0  0
   -2.6915    8.2096    6.7029 H   0  0  0  0  0  0  0  0  0  0  0  0
   -3.4790    6.8395    7.4922 H   0  0  0  0  0  0  0  0  0  0  0  0
   -1.9046    7.4072    8.0599 H   0  0  0  0  0  0  0  0  0  0  0  0
    4.5068   -0.3195    6.7169 H   0  0  0  0  0  0  0  0  0  0  0  0
    5.6325   -1.9998    8.1034 H   0  0  0  0  0  0  0  0  0  0  0  0
    4.3257   -3.4467    9.6102 H   0  0  0  0  0  0  0  0  0  0  0  0
    1.8741   -3.1924    9.7423 H   0  0  0  0  0  0  0  0  0  0  0  0
    0.7388   -1.4910    8.3460 H   0  0  0  0  0  0  0  0  0  0  0  0
    4.3537    1.4886    3.6856 H   0  0  0  0  0  0  0  0  0  0  0  0
    5.2053    1.8895    1.4142 H   0  0  0  0  0  0  0  0  0  0  0  0
    3.6382    2.2975   -0.4435 H   0  0  0  0  0  0  0  0  0  0  0  0
    1.2056    2.2995   -0.0252 H   0  0  0  0  0  0  0  0  0  0  0  0
    0.3501    1.8788    2.2575 H   0  0  0  0  0  0  0  0  0  0  0  0
  1  4  1  0  0  0  0
  1  5  1  0  0  0  0
  1  3  1  0  0  0  0
  2  1  1  0  0  0  0
  6  1  1  0  0  0  0
  7  5  1  0  0  0  0
  7 20  1  0  0  0  0
  8  7  2  0  0  0  0
  9 26  1  6  0  0  0
  9  6  1  0  0  0  0
  9  8  1  0  0  0  0
 10 11  1  0  0  0  0
 10 18  1  0  0  0  0
 11 34  1  0  0  0  0
 12 10  2  0  0  0  0
 13 37  1  0  0  0  0
 13 12  1  0  0  0  0
 14 15  1  6  0  0  0
 14 12  1  0  0  0  0
 14 16  1  0  0  0  0
 14  1  1  0  0  0  0
 15 41  1  0  0  0  0
 16 17  1  0  0  0  0
 16 18  2  0  0  0  0
 17 44  1  0  0  0  0
 18 19  1  0  0  0  0
 19 46  1  0  0  0  0
 19 47  1  0  0  0  0
 20 25  1  0  0  0  0
 21 20  2  0  0  0  0
 21 22  1  0  0  0  0
 22 23  2  0  0  0  0
 23 24  1  0  0  0  0
 23 50  1  0  0  0  0
 24 51  1  0  0  0  0
 25 52  1  0  0  0  0
 25 24  2  0  0  0  0
 27 26  1  0  0  0  0
 27 53  1  0  0  0  0
 28 27  2  0  0  0  0
 29 30  2  0  0  0  0
 29 28  1  0  0  0  0
 30 31  1  0  0  0  0
 31 57  1  0  0  0  0
 31 26  2  0  0  0  0
 32  8  1  0  0  0  0
 33 11  1  0  0  0  0
 35 11  1  0  0  0  0
 36 13  1  0  0  0  0
 38 13  1  0  0  0  0
 39 15  1  0  0  0  0
 40 15  1  0  0  0  0
 42 17  1  0  0  0  0
 43 17  1  0  0  0  0
 45 19  1  0  0  0  0
 48 21  1  0  0  0  0
 49 22  1  0  0  0  0
 54 28  1  0  0  0  0
 55 29  1  0  0  0  0
 56 30  1  0  0  0  0
M  END
$$$$
