CSD_code = JEBCUO | q = 0 | S = 0 | Stoichiometry = C18H22Cl2N2NiS2 | MND = 6
 OpenBabel04212202053D

 47 52  0  0  1  0  0  0  0  0999 V2000
    1.4739    1.0081    2.8703 Ni  0  0  0  0  0  0  0  0  0  0  0  0
    1.4721    1.8297    0.9193 Cl  0  0  0  0  0  0  0  0  0  0  0  0
    2.6362    2.6209    3.5129 Cl  0  0  0  0  0  0  0  0  0  0  0  0
   -0.8515    2.1172    3.5376 S   0  0  2  0  0  3  0  0  0  0  0  0
    3.5948   -0.5092    2.5323 S   0  0  1  0  0  3  0  0  0  0  0  0
    1.5126    0.2147    4.8235 N   0  0  2  0  0  4  0  0  0  0  0  0
    0.2846   -0.5622    2.1256 N   0  0  1  0  0  4  0  0  0  0  0  0
   -1.4405    1.2844    5.0012 C   0  0  0  0  0  0  0  0  0  0  0  0
   -2.7998    1.0518    5.1621 C   0  0  0  0  0  0  0  0  0  0  0  0
   -3.2734    0.4136    6.2931 C   0  0  0  0  0  0  0  0  0  0  0  0
   -2.3880    0.0169    7.2808 C   0  0  0  0  0  0  0  0  0  0  0  0
   -1.0350    0.2628    7.1278 C   0  0  0  0  0  0  0  0  0  0  0  0
   -0.5396    0.8994    5.9962 C   0  0  0  0  0  0  0  0  0  0  0  0
    0.9412    1.1161    5.8515 C   0  0  0  0  0  0  0  0  0  0  0  0
    2.8728   -0.1944    5.1813 C   0  0  0  0  0  0  0  0  0  0  0  0
    3.4356   -1.2283    4.2184 C   0  0  0  0  0  0  0  0  0  0  0  0
    3.0959   -1.8378    1.4510 C   0  0  0  0  0  0  0  0  0  0  0  0
    4.0770   -2.2481    0.5542 C   0  0  0  0  0  0  0  0  0  0  0  0
    3.8155   -3.2133   -0.3973 C   0  0  0  0  0  0  0  0  0  0  0  0
    2.5572   -3.7868   -0.4532 C   0  0  0  0  0  0  0  0  0  0  0  0
    1.5772   -3.3705    0.4281 C   0  0  0  0  0  0  0  0  0  0  0  0
    1.8143   -2.3879    1.3850 C   0  0  0  0  0  0  0  0  0  0  0  0
    0.6599   -1.9784    2.2653 C   0  0  0  0  0  0  0  0  0  0  0  0
   -1.1473   -0.3906    2.3778 C   0  0  0  0  0  0  0  0  0  0  0  0
   -1.5912    1.0578    2.2479 C   0  0  0  0  0  0  0  0  0  0  0  0
    0.9346   -0.6301    4.8266 H   0  0  0  0  0  0  0  0  0  0  0  0
    0.4552   -0.2841    1.1491 H   0  0  0  0  0  0  0  0  0  0  0  0
    1.4196    0.9177    6.8193 H   0  0  0  0  0  0  0  0  0  0  0  0
    1.1657    2.1482    5.5641 H   0  0  0  0  0  0  0  0  0  0  0  0
    2.8949   -0.6195    6.1984 H   0  0  0  0  0  0  0  0  0  0  0  0
    3.5034    0.6998    5.1603 H   0  0  0  0  0  0  0  0  0  0  0  0
    4.4393   -1.5144    4.5321 H   0  0  0  0  0  0  0  0  0  0  0  0
    2.8171   -2.1221    4.1591 H   0  0  0  0  0  0  0  0  0  0  0  0
    0.8764   -2.1940    3.3188 H   0  0  0  0  0  0  0  0  0  0  0  0
   -0.1993   -2.6088    1.9895 H   0  0  0  0  0  0  0  0  0  0  0  0
   -1.3752   -0.7516    3.3895 H   0  0  0  0  0  0  0  0  0  0  0  0
   -1.7371   -0.9955    1.6687 H   0  0  0  0  0  0  0  0  0  0  0  0
   -2.6766    1.1310    2.2964 H   0  0  0  0  0  0  0  0  0  0  0  0
   -1.2332    1.4929    1.3141 H   0  0  0  0  0  0  0  0  0  0  0  0
   -3.4903    1.3840    4.4024 H   0  0  0  0  0  0  0  0  0  0  0  0
   -4.3323    0.2381    6.4076 H   0  0  0  0  0  0  0  0  0  0  0  0
   -2.7495   -0.4772    8.1698 H   0  0  0  0  0  0  0  0  0  0  0  0
   -0.3473   -0.0418    7.9045 H   0  0  0  0  0  0  0  0  0  0  0  0
    5.0494   -1.7855    0.6162 H   0  0  0  0  0  0  0  0  0  0  0  0
    4.5877   -3.5173   -1.0869 H   0  0  0  0  0  0  0  0  0  0  0  0
    2.3329   -4.5471   -1.1857 H   0  0  0  0  0  0  0  0  0  0  0  0
    0.5924   -3.8129    0.3667 H   0  0  0  0  0  0  0  0  0  0  0  0
  1  3  1  0  0  0  0
  1  4  1  0  0  0  0
  1  6  1  0  0  0  0
  2  1  1  0  0  0  0
  4  8  1  1  0  0  0
  5 17  1  6  0  0  0
  5  1  1  0  0  0  0
  5 16  1  0  0  0  0
  6 26  1  6  0  0  0
  6 15  1  0  0  0  0
  6 14  1  0  0  0  0
  7 27  1  6  0  0  0
  7 23  1  0  0  0  0
  7 24  1  0  0  0  0
  7  1  1  0  0  0  0
  8  9  2  0  0  0  0
  8 13  1  0  0  0  0
  9 10  1  0  0  0  0
 10 41  1  0  0  0  0
 10 11  2  0  0  0  0
 11 42  1  0  0  0  0
 12 11  1  0  0  0  0
 12 43  1  0  0  0  0
 13 12  2  0  0  0  0
 14 13  1  0  0  0  0
 14 28  1  0  0  0  0
 15 30  1  0  0  0  0
 16 32  1  0  0  0  0
 16 15  1  0  0  0  0
 18 44  1  0  0  0  0
 18 17  2  0  0  0  0
 19 18  1  0  0  0  0
 20 19  2  0  0  0  0
 20 21  1  0  0  0  0
 21 22  2  0  0  0  0
 22 17  1  0  0  0  0
 22 23  1  0  0  0  0
 23 34  1  0  0  0  0
 24 36  1  0  0  0  0
 25 38  1  0  0  0  0
 25 24  1  0  0  0  0
 25  4  1  0  0  0  0
 29 14  1  0  0  0  0
 31 15  1  0  0  0  0
 33 16  1  0  0  0  0
 35 23  1  0  0  0  0
 37 24  1  0  0  0  0
 39 25  1  0  0  0  0
 40  9  1  0  0  0  0
 45 19  1  0  0  0  0
 46 20  1  0  0  0  0
 47 21  1  0  0  0  0
M  END
$$$$
