CSD_code = JEBCOI | q = 0 | S = 0 | Stoichiometry = C18H22Cl2N2NiO2 | MND = 6
 OpenBabel04212202053D

 47 50  0  0  1  0  0  0  0  0999 V2000
    0.9523    1.6660    3.7320 Ni  0  0  0  0  0  0  0  0  0  0  0  0
    1.0007   -0.1839    4.9905 Cl  0  0  0  0  0  0  0  0  0  0  0  0
    0.9036    3.5160    2.4736 Cl  0  0  0  0  0  0  0  0  0  0  0  0
    1.5696    3.0342    5.3660 O   0  0  0  0  0  0  0  0  0  0  0  0
    0.3261    0.6266    1.8745 O   0  0  0  0  0  0  0  0  0  0  0  0
   -0.8750    1.8107    4.1061 N   0  0  1  0  0  4  0  0  0  0  0  0
    2.7815    1.4373    3.4151 N   0  0  1  0  0  4  0  0  0  0  0  0
    0.7687    3.0217    6.4688 C   0  0  0  0  0  0  0  0  0  0  0  0
    1.2562    3.0089    7.7697 C   0  0  0  0  0  0  0  0  0  0  0  0
    0.3853    2.9979    8.8452 C   0  0  0  0  0  0  0  0  0  0  0  0
   -0.9797    2.9981    8.6346 C   0  0  0  0  0  0  0  0  0  0  0  0
   -1.4684    3.0085    7.3391 C   0  0  0  0  0  0  0  0  0  0  0  0
   -0.6223    3.0239    6.2418 C   0  0  0  0  0  0  0  0  0  0  0  0
   -1.2111    3.0373    4.8491 C   0  0  0  0  0  0  0  0  0  0  0  0
   -1.6015    1.6170    2.8502 C   0  0  0  0  0  0  0  0  0  0  0  0
   -1.0523    0.3877    2.1071 C   0  0  0  0  0  0  0  0  0  0  0  0
    1.1537   -0.3742    1.4607 C   0  0  0  0  0  0  0  0  0  0  0  0
    0.6991   -1.6056    1.0060 C   0  0  0  0  0  0  0  0  0  0  0  0
    1.5960   -2.5780    0.5990 C   0  0  0  0  0  0  0  0  0  0  0  0
    2.9545   -2.3328    0.6428 C   0  0  0  0  0  0  0  0  0  0  0  0
    3.4106   -1.1072    1.0979 C   0  0  0  0  0  0  0  0  0  0  0  0
    2.5377   -0.1121    1.5079 C   0  0  0  0  0  0  0  0  0  0  0  0
    3.0915    1.2086    1.9934 C   0  0  0  0  0  0  0  0  0  0  0  0
    3.4836    2.5599    4.0393 C   0  0  0  0  0  0  0  0  0  0  0  0
    2.9610    2.7799    5.4688 C   0  0  0  0  0  0  0  0  0  0  0  0
    2.3195    3.0083    7.9509 H   0  0  0  0  0  0  0  0  0  0  0  0
    0.7821    2.9880    9.8491 H   0  0  0  0  0  0  0  0  0  0  0  0
   -1.6624    2.9862    9.4700 H   0  0  0  0  0  0  0  0  0  0  0  0
   -2.5369    3.0054    7.1758 H   0  0  0  0  0  0  0  0  0  0  0  0
   -0.3587   -1.8126    0.9659 H   0  0  0  0  0  0  0  0  0  0  0  0
    1.2245   -3.5291    0.2486 H   0  0  0  0  0  0  0  0  0  0  0  0
    3.6575   -3.0890    0.3296 H   0  0  0  0  0  0  0  0  0  0  0  0
    4.4742   -0.9179    1.1344 H   0  0  0  0  0  0  0  0  0  0  0  0
   -1.0765    1.0128    4.7207 H   0  0  0  0  0  0  0  0  0  0  0  0
   -2.3036    3.1298    4.9275 H   0  0  0  0  0  0  0  0  0  0  0  0
   -0.8257    3.8928    4.2831 H   0  0  0  0  0  0  0  0  0  0  0  0
   -2.6769    1.4768    3.0303 H   0  0  0  0  0  0  0  0  0  0  0  0
   -1.4495    2.5018    2.2251 H   0  0  0  0  0  0  0  0  0  0  0  0
   -1.1785   -0.5131    2.7241 H   0  0  0  0  0  0  0  0  0  0  0  0
   -1.5878    0.2631    1.1571 H   0  0  0  0  0  0  0  0  0  0  0  0
    3.0265    0.5806    3.9259 H   0  0  0  0  0  0  0  0  0  0  0  0
    4.1817    1.2089    1.8518 H   0  0  0  0  0  0  0  0  0  0  0  0
    2.6620    2.0347    1.4156 H   0  0  0  0  0  0  0  0  0  0  0  0
    4.5674    2.3797    4.0773 H   0  0  0  0  0  0  0  0  0  0  0  0
    3.2848    3.4603    3.4505 H   0  0  0  0  0  0  0  0  0  0  0  0
    3.4774    3.6365    5.9209 H   0  0  0  0  0  0  0  0  0  0  0  0
    3.1346    1.8804    6.0761 H   0  0  0  0  0  0  0  0  0  0  0  0
  1  6  1  0  0  0  0
  1  2  1  0  0  0  0
  3  1  1  0  0  0  0
  4 25  1  0  0  0  0
  4  8  1  0  0  0  0
  5 16  1  0  0  0  0
  6 34  1  1  0  0  0
  6 14  1  0  0  0  0
  7  1  1  0  0  0  0
  7 41  1  1  0  0  0
  7 24  1  0  0  0  0
  8  9  1  0  0  0  0
  9 26  1  0  0  0  0
  9 10  2  0  0  0  0
 10 27  1  0  0  0  0
 11 10  1  0  0  0  0
 11 28  1  0  0  0  0
 12 11  2  0  0  0  0
 13  8  2  0  0  0  0
 13 12  1  0  0  0  0
 14 35  1  0  0  0  0
 14 13  1  0  0  0  0
 15 37  1  0  0  0  0
 15  6  1  0  0  0  0
 16 39  1  0  0  0  0
 16 15  1  0  0  0  0
 17 22  1  0  0  0  0
 17  5  1  0  0  0  0
 18 17  2  0  0  0  0
 19 20  2  0  0  0  0
 19 18  1  0  0  0  0
 20 21  1  0  0  0  0
 21 33  1  0  0  0  0
 21 22  2  0  0  0  0
 22 23  1  0  0  0  0
 23  7  1  0  0  0  0
 24 44  1  0  0  0  0
 24 25  1  0  0  0  0
 25 46  1  0  0  0  0
 25 47  1  0  0  0  0
 29 12  1  0  0  0  0
 30 18  1  0  0  0  0
 31 19  1  0  0  0  0
 32 20  1  0  0  0  0
 36 14  1  0  0  0  0
 38 15  1  0  0  0  0
 40 16  1  0  0  0  0
 42 23  1  0  0  0  0
 43 23  1  0  0  0  0
 45 24  1  0  0  0  0
M  END
$$$$
