CSD_code = JEBDIE | q = 0 | S = 0 | Stoichiometry = C17H29I2NO5PRe | MND = 6
 OpenBabel04212202053D

 56 58  0  0  0  0  0  0  0  0999 V2000
    2.7002    7.2940    3.7795 Re  0  0  0  0  0  0  0  0  0  0  0  0
    1.0282    8.5721    2.0303 I   0  0  0  0  0  0  0  0  0  0  0  0
    4.4580    6.0059    5.4397 I   0  0  0  0  0  0  0  0  0  0  0  0
    1.8172    5.1527    3.3193 P   0  0  0  0  0  4  0  0  0  0  0  0
    3.8994    7.4006    2.6507 O   0  0  0  0  0  1  0  0  0  0  0  0
    1.4056    7.2255    5.0226 O   0  0  0  0  0  0  0  0  0  0  0  0
    0.8254    4.6761    4.4617 O   0  0  0  0  0  0  0  0  0  0  0  0
    2.7474    3.8727    3.2629 O   0  0  0  0  0  0  0  0  0  0  0  0
    1.1121    4.9529    1.8931 O   0  0  0  0  0  0  0  0  0  0  0  0
    3.3431    9.3140    4.5930 N   0  0  0  0  0  0  0  0  0  0  0  0
    0.4464    6.6727    5.8434 C   0  0  0  0  0  0  0  0  0  0  0  0
   -0.2147    5.4650    5.0723 C   0  0  0  0  0  0  0  0  0  0  0  0
   -0.6001    7.7472    6.1941 C   0  0  0  0  0  0  0  0  0  0  0  0
   -1.4588    7.3051    6.6897 H   0  0  0  0  0  0  0  0  0  0  0  0
   -0.9325    8.2678    5.2979 H   0  0  0  0  0  0  0  0  0  0  0  0
   -0.1481    8.4728    6.8694 H   0  0  0  0  0  0  0  0  0  0  0  0
    1.1253    6.1856    7.1382 C   0  0  0  0  0  0  0  0  0  0  0  0
    1.7298    5.3018    6.9476 H   0  0  0  0  0  0  0  0  0  0  0  0
    0.3842    5.9643    7.8999 H   0  0  0  0  0  0  0  0  0  0  0  0
    1.7840    6.9703    7.5098 H   0  0  0  0  0  0  0  0  0  0  0  0
   -0.9338    4.4957    6.0093 C   0  0  0  0  0  0  0  0  0  0  0  0
   -1.4644    3.7574    5.4125 H   0  0  0  0  0  0  0  0  0  0  0  0
   -1.6514    5.0236    6.6302 H   0  0  0  0  0  0  0  0  0  0  0  0
   -0.2230    3.9727    6.6417 H   0  0  0  0  0  0  0  0  0  0  0  0
   -1.1720    5.9270    3.9778 C   0  0  0  0  0  0  0  0  0  0  0  0
   -0.7033    6.6622    3.3274 H   0  0  0  0  0  0  0  0  0  0  0  0
   -2.0765    6.3502    4.4052 H   0  0  0  0  0  0  0  0  0  0  0  0
   -1.4436    5.0684    3.3661 H   0  0  0  0  0  0  0  0  0  0  0  0
    2.9742    3.5070    1.8876 C   0  0  0  0  0  0  0  0  0  0  0  0
    1.5904    3.7717    1.2214 C   0  0  0  0  0  0  0  0  0  0  0  0
    4.0699    4.4129    1.3343 C   0  0  0  0  0  0  0  0  0  0  0  0
    4.3583    4.1132    0.3311 H   0  0  0  0  0  0  0  0  0  0  0  0
    4.9377    4.3459    1.9880 H   0  0  0  0  0  0  0  0  0  0  0  0
    3.7418    5.4544    1.3267 H   0  0  0  0  0  0  0  0  0  0  0  0
    3.4259    2.0541    1.8648 C   0  0  0  0  0  0  0  0  0  0  0  0
    3.4729    1.6971    0.8397 H   0  0  0  0  0  0  0  0  0  0  0  0
    2.7514    1.4269    2.4386 H   0  0  0  0  0  0  0  0  0  0  0  0
    4.4146    1.9839    2.3104 H   0  0  0  0  0  0  0  0  0  0  0  0
    1.6576    4.0733   -0.2684 C   0  0  0  0  0  0  0  0  0  0  0  0
    2.1558    3.2618   -0.7918 H   0  0  0  0  0  0  0  0  0  0  0  0
    2.1879    5.0031   -0.4474 H   0  0  0  0  0  0  0  0  0  0  0  0
    0.6491    4.1817   -0.6587 H   0  0  0  0  0  0  0  0  0  0  0  0
    0.5921    2.6527    1.5055 C   0  0  0  0  0  0  0  0  0  0  0  0
    0.8372    1.7617    0.9349 H   0  0  0  0  0  0  0  0  0  0  0  0
   -0.4013    2.9912    1.2193 H   0  0  0  0  0  0  0  0  0  0  0  0
    0.5847    2.4204    2.5688 H   0  0  0  0  0  0  0  0  0  0  0  0
    4.6121    9.6902    4.4717 C   0  0  0  0  0  3  0  0  0  0  0  0
    5.2735    8.9945    3.9705 H   0  0  0  0  0  0  0  0  0  0  0  0
    5.0680   10.9042    4.9527 C   0  0  0  0  0  0  0  0  0  0  0  0
    6.1055   11.1707    4.8336 H   0  0  0  0  0  0  0  0  0  0  0  0
    4.1730   11.7548    5.5826 C   0  0  0  0  0  0  0  0  0  0  0  0
    4.4969   12.7086    5.9703 H   0  0  0  0  0  0  0  0  0  0  0  0
    2.8509   11.3566    5.7009 C   0  0  0  0  0  0  0  0  0  0  0  0
    2.1147   11.9852    6.1759 H   0  0  0  0  0  0  0  0  0  0  0  0
    2.4797   10.1273    5.1878 C   0  0  0  0  0  0  0  0  0  0  0  0
    1.4531    9.7873    5.2508 H   0  0  0  0  0  0  0  0  0  0  0  0
  1 10  1  0  0  0  0
  1  6  1  0  0  0  0
  1  3  1  0  0  0  0
  2  1  1  0  0  0  0
  4  1  1  0  0  0  0
  4  7  1  0  0  0  0
  5  1  1  0  0  0  0
  6 11  1  0  0  0  0
  7 12  1  0  0  0  0
  8  4  1  0  0  0  0
  9  4  1  0  0  0  0
 10 55  1  0  0  0  0
 11 13  1  0  0  0  0
 11 17  1  0  0  0  0
 12 11  1  0  0  0  0
 12 21  1  0  0  0  0
 13 14  1  0  0  0  0
 13 16  1  0  0  0  0
 15 13  1  0  0  0  0
 17 20  1  0  0  0  0
 17 19  1  0  0  0  0
 18 17  1  0  0  0  0
 21 23  1  0  0  0  0
 21 24  1  0  0  0  0
 22 21  1  0  0  0  0
 25 27  1  0  0  0  0
 25 12  1  0  0  0  0
 26 25  1  0  0  0  0
 28 25  1  0  0  0  0
 29  8  1  0  0  0  0
 30 43  1  0  0  0  0
 30 29  1  0  0  0  0
 30  9  1  0  0  0  0
 31 29  1  0  0  0  0
 31 33  1  0  0  0  0
 32 31  1  0  0  0  0
 34 31  1  0  0  0  0
 35 29  1  0  0  0  0
 35 38  1  0  0  0  0
 35 37  1  0  0  0  0
 36 35  1  0  0  0  0
 39 30  1  0  0  0  0
 40 39  1  0  0  0  0
 41 39  1  0  0  0  0
 42 39  1  0  0  0  0
 43 46  1  0  0  0  0
 44 43  1  0  0  0  0
 45 43  1  0  0  0  0
 47 10  1  0  0  0  0
 47 49  1  0  0  0  0
 48 47  1  0  0  0  0
 49 51  2  0  0  0  0
 50 49  1  0  0  0  0
 51 53  1  0  0  0  0
 51 52  1  0  0  0  0
 53 54  1  0  0  0  0
 55 56  1  0  0  0  0
 55 53  2  0  0  0  0
M  END
$$$$
