CSD_code = JEBDEA | q = 0 | S = 0 | Stoichiometry = C17H29Br2NO5PRe | MND = 6
 OpenBabel04212202053D

 56 58  0  0  0  0  0  0  0  0999 V2000
    2.3521    8.3526    4.4264 Re  0  0  0  0  0  0  0  0  0  0  0  0
    3.0365    6.1115    4.6708 P   0  0  0  0  0  4  0  0  0  0  0  0
    3.7968    9.1518    6.3618 Br  0  0  0  0  0  0  0  0  0  0  0  0
    0.9151    7.5228    2.5064 Br  0  0  0  0  0  0  0  0  0  0  0  0
    1.0413    8.3844    5.4273 O   0  0  0  0  0  1  0  0  0  0  0  0
    3.7708    8.3625    3.3445 O   0  0  0  0  0  0  0  0  0  0  0  0
    4.2026    5.7327    3.6651 O   0  0  0  0  0  0  0  0  0  0  0  0
    2.0544    4.9083    4.3560 O   0  0  0  0  0  0  0  0  0  0  0  0
    3.4508    5.6491    6.1487 O   0  0  0  0  0  0  0  0  0  0  0  0
    1.9427   10.5032    3.8892 N   0  0  0  0  0  0  0  0  0  0  0  0
    4.7969    7.8528    2.5800 C   0  0  0  0  0  0  0  0  0  0  0  0
    5.3291    6.5534    3.2971 C   0  0  0  0  0  0  0  0  0  0  0  0
    5.9020    8.9164    2.4547 C   0  0  0  0  0  0  0  0  0  0  0  0
    5.5412    9.7282    1.8251 H   0  0  0  0  0  0  0  0  0  0  0  0
    6.7970    8.4986    2.0047 H   0  0  0  0  0  0  0  0  0  0  0  0
    6.1442    9.3268    3.4325 H   0  0  0  0  0  0  0  0  0  0  0  0
    4.2465    7.5073    1.1829 C   0  0  0  0  0  0  0  0  0  0  0  0
    3.5685    6.6581    1.2386 H   0  0  0  0  0  0  0  0  0  0  0  0
    5.0572    7.2895    0.4950 H   0  0  0  0  0  0  0  0  0  0  0  0
    3.6832    8.3559    0.7972 H   0  0  0  0  0  0  0  0  0  0  0  0
    6.1566    5.6670    2.3671 C   0  0  0  0  0  0  0  0  0  0  0  0
    6.5943    4.8595    2.9493 H   0  0  0  0  0  0  0  0  0  0  0  0
    6.9564    6.2365    1.9038 H   0  0  0  0  0  0  0  0  0  0  0  0
    5.5290    5.2289    1.5974 H   0  0  0  0  0  0  0  0  0  0  0  0
    6.1313    6.8715    4.5556 C   0  0  0  0  0  0  0  0  0  0  0  0
    5.6044    7.5708    5.2008 H   0  0  0  0  0  0  0  0  0  0  0  0
    7.1018    7.2863    4.2984 H   0  0  0  0  0  0  0  0  0  0  0  0
    6.2819    5.9502    5.1153 H   0  0  0  0  0  0  0  0  0  0  0  0
    1.5647    4.3490    5.5893 C   0  0  0  0  0  0  0  0  0  0  0  0
    2.8098    4.4158    6.5248 C   0  0  0  0  0  0  0  0  0  0  0  0
    0.4166    5.2249    6.0820 C   0  0  0  0  0  0  0  0  0  0  0  0
    0.7733    6.2269    6.3263 H   0  0  0  0  0  0  0  0  0  0  0  0
   -0.0674    4.7861    6.9495 H   0  0  0  0  0  0  0  0  0  0  0  0
   -0.3121    5.3223    5.2795 H   0  0  0  0  0  0  0  0  0  0  0  0
    1.0663    2.9420    5.2918 C   0  0  0  0  0  0  0  0  0  0  0  0
    0.8184    2.4332    6.2192 H   0  0  0  0  0  0  0  0  0  0  0  0
    1.8131    2.3707    4.7505 H   0  0  0  0  0  0  0  0  0  0  0  0
    0.1753    3.0067    4.6733 H   0  0  0  0  0  0  0  0  0  0  0  0
    2.4769    4.4927    8.0076 C   0  0  0  0  0  0  0  0  0  0  0  0
    1.8615    3.6453    8.2971 H   0  0  0  0  0  0  0  0  0  0  0  0
    1.9563    5.4173    8.2345 H   0  0  0  0  0  0  0  0  0  0  0  0
    3.3986    4.4763    8.5830 H   0  0  0  0  0  0  0  0  0  0  0  0
    3.7993    3.2871    6.2476 C   0  0  0  0  0  0  0  0  0  0  0  0
    3.9973    3.2198    5.1799 H   0  0  0  0  0  0  0  0  0  0  0  0
    3.4170    2.3388    6.6139 H   0  0  0  0  0  0  0  0  0  0  0  0
    4.7334    3.5112    6.7578 H   0  0  0  0  0  0  0  0  0  0  0  0
    1.4708   11.3381    4.8092 C   0  0  0  0  0  3  0  0  0  0  0  0
    1.3252   10.9303    5.8009 H   0  0  0  0  0  0  0  0  0  0  0  0
    1.1780   12.6593    4.5217 C   0  0  0  0  0  0  0  0  0  0  0  0
    0.7959   13.3028    5.2975 H   0  0  0  0  0  0  0  0  0  0  0  0
    1.3850   13.1272    3.2335 C   0  0  0  0  0  0  0  0  0  0  0  0
    1.1661   14.1524    2.9763 H   0  0  0  0  0  0  0  0  0  0  0  0
    1.8752   12.2488    2.2799 C   0  0  0  0  0  0  0  0  0  0  0  0
    2.0467   12.5623    1.2626 H   0  0  0  0  0  0  0  0  0  0  0  0
    2.1376   10.9432    2.6526 C   0  0  0  0  0  0  0  0  0  0  0  0
    2.5047   10.2238    1.9320 H   0  0  0  0  0  0  0  0  0  0  0  0
  1  2  1  0  0  0  0
  1  5  1  0  0  0  0
  1  3  1  0  0  0  0
  2  9  1  0  0  0  0
  4  1  1  0  0  0  0
  6  1  1  0  0  0  0
  7  2  1  0  0  0  0
  8  2  1  0  0  0  0
  8 29  1  0  0  0  0
  9 30  1  0  0  0  0
 10  1  1  0  0  0  0
 10 47  1  0  0  0  0
 11 12  1  0  0  0  0
 11  6  1  0  0  0  0
 12  7  1  0  0  0  0
 12 25  1  0  0  0  0
 13 11  1  0  0  0  0
 13 16  1  0  0  0  0
 14 13  1  0  0  0  0
 15 13  1  0  0  0  0
 17 18  1  0  0  0  0
 17 11  1  0  0  0  0
 19 17  1  0  0  0  0
 20 17  1  0  0  0  0
 21 22  1  0  0  0  0
 21 12  1  0  0  0  0
 23 21  1  0  0  0  0
 24 21  1  0  0  0  0
 25 28  1  0  0  0  0
 25 26  1  0  0  0  0
 27 25  1  0  0  0  0
 29 31  1  0  0  0  0
 29 30  1  0  0  0  0
 30 39  1  0  0  0  0
 31 32  1  0  0  0  0
 31 33  1  0  0  0  0
 34 31  1  0  0  0  0
 35 29  1  0  0  0  0
 35 36  1  0  0  0  0
 37 35  1  0  0  0  0
 38 35  1  0  0  0  0
 39 41  1  0  0  0  0
 39 40  1  0  0  0  0
 39 42  1  0  0  0  0
 43 30  1  0  0  0  0
 43 45  1  0  0  0  0
 43 46  1  0  0  0  0
 44 43  1  0  0  0  0
 47 48  1  0  0  0  0
 49 47  1  0  0  0  0
 49 50  1  0  0  0  0
 51 49  2  0  0  0  0
 52 51  1  0  0  0  0
 53 55  2  0  0  0  0
 53 51  1  0  0  0  0
 54 53  1  0  0  0  0
 55 10  1  0  0  0  0
 56 55  1  0  0  0  0
M  END
$$$$
