CSD_code = JEBHOO | q = 0 | S = 0 | Stoichiometry = C17H13ClN2Pt | MND = 4
 OpenBabel04212202053D

 34 38  0  0  0  0  0  0  0  0999 V2000
   -2.1487    1.4635    7.7736 Pt  0  0  1  0  0  0  0  0  0  0  0  0
   -1.6344    2.4683    5.7487 Cl  0  0  0  0  0  0  0  0  0  0  0  0
   -3.6601    0.2710    7.1751 N   0  0  0  0  0  0  0  0  0  0  0  0
   -4.1402    0.1727    5.9393 C   0  0  0  0  0  3  0  0  0  0  0  0
   -3.6659    0.7999    5.1938 H   0  0  0  0  0  0  0  0  0  0  0  0
   -5.1818   -0.6743    5.6045 C   0  0  0  0  0  0  0  0  0  0  0  0
   -5.5354   -0.7183    4.5873 H   0  0  0  0  0  0  0  0  0  0  0  0
   -5.7523   -1.4561    6.5992 C   0  0  0  0  0  0  0  0  0  0  0  0
   -6.5664   -2.1280    6.3728 H   0  0  0  0  0  0  0  0  0  0  0  0
   -5.2594   -1.3597    7.8875 C   0  0  0  0  0  0  0  0  0  0  0  0
   -5.6810   -1.9533    8.6831 H   0  0  0  0  0  0  0  0  0  0  0  0
   -4.2093   -0.4912    8.1698 C   0  0  0  0  0  0  0  0  0  0  0  0
   -0.7810    2.3681    8.9466 N   0  0  0  0  0  0  0  0  0  0  0  0
    0.1143    3.2699    8.5561 C   0  0  0  0  0  0  0  0  0  0  0  0
    0.0944    3.5356    7.5058 H   0  0  0  0  0  0  0  0  0  0  0  0
    1.0257    3.8459    9.4233 C   0  0  0  0  0  0  0  0  0  0  0  0
    1.7328    4.5727    9.0578 H   0  0  0  0  0  0  0  0  0  0  0  0
    1.0066    3.4689   10.7589 C   0  0  0  0  0  0  0  0  0  0  0  0
    1.7033    3.8986   11.4628 H   0  0  0  0  0  0  0  0  0  0  0  0
    0.0782    2.5318   11.1736 C   0  0  0  0  0  0  0  0  0  0  0  0
    0.0369    2.2174   12.2045 H   0  0  0  0  0  0  0  0  0  0  0  0
   -0.8155    1.9829   10.2590 C   0  0  0  0  0  0  0  0  0  0  0  0
   -2.5744    0.6311    9.4501 C   0  0  0  0  0  0  0  0  0  0  0  0
   -3.6069   -0.3047    9.4868 C   0  0  0  0  0  0  0  0  0  0  0  0
   -3.9067   -0.9048   10.7076 C   0  0  0  0  0  0  0  0  0  0  0  0
   -4.6974   -1.6373   10.7911 H   0  0  0  0  0  0  0  0  0  0  0  0
   -3.1798   -0.5628   11.8462 C   0  0  0  0  0  0  0  0  0  0  0  0
   -2.1500    0.3766   11.7882 C   0  0  0  0  0  0  0  0  0  0  0  0
   -1.6098    0.6143   12.6940 H   0  0  0  0  0  0  0  0  0  0  0  0
   -1.8353    0.9873   10.5779 C   0  0  0  0  0  0  0  0  0  0  0  0
   -3.5179   -1.1947   13.1656 C   0  0  0  0  0  0  0  0  0  0  0  0
   -2.6145   -1.4294   13.7247 H   0  0  0  0  0  0  0  0  0  0  0  0
   -4.0897   -2.1085   13.0261 H   0  0  0  0  0  0  0  0  0  0  0  0
   -4.1149   -0.5087   13.7673 H   0  0  0  0  0  0  0  0  0  0  0  0
  1  2  1  1  0  0  0
  1 13  1  0  0  0  0
  1 23  2  0  0  0  0
  3  1  1  0  0  0  0
  3 12  1  0  0  0  0
  4  3  1  0  0  0  0
  5  4  1  0  0  0  0
  6  4  1  0  0  0  0
  6  8  2  0  0  0  0
  7  6  1  0  0  0  0
  8 10  1  0  0  0  0
  9  8  1  0  0  0  0
 10 12  2  0  0  0  0
 10 11  1  0  0  0  0
 12 24  1  0  0  0  0
 13 22  1  0  0  0  0
 14 13  1  0  0  0  0
 14 16  2  0  0  0  0
 15 14  1  0  0  0  0
 16 18  1  0  0  0  0
 17 16  1  0  0  0  0
 18 20  2  0  0  0  0
 18 19  1  0  0  0  0
 20 21  1  0  0  0  0
 22 30  2  0  0  0  0
 22 20  1  0  0  0  0
 23 24  1  0  0  0  0
 23 30  1  0  0  0  0
 24 25  2  0  0  0  0
 25 26  1  0  0  0  0
 25 27  1  0  0  0  0
 27 31  1  0  0  0  0
 28 27  2  0  0  0  0
 28 29  1  0  0  0  0
 30 28  1  0  0  0  0
 31 32  1  0  0  0  0
 31 34  1  0  0  0  0
 33 31  1  0  0  0  0
M  END
$$$$
