CSD_code = JECMUA | q = 0 | S = 0 | Stoichiometry = C10H21Cl4NOW | MND = 6
 OpenBabel04212202053D

 38 37  0  0  0  0  0  0  0  0999 V2000
    1.4660    2.0508   14.9825 W   0  0  0  0  0  0  0  0  0  0  0  0
    1.0048    0.3268   16.4973 Cl  0  0  0  0  0  0  0  0  0  0  0  0
    3.6836    2.0326   15.7235 Cl  0  0  0  0  0  0  0  0  0  0  0  0
   -0.4181    1.4568   13.7461 Cl  0  0  0  0  0  0  0  0  0  0  0  0
    2.1384    3.4257   13.2025 Cl  0  0  0  0  0  0  0  0  0  0  0  0
    2.3578    0.3800   13.6690 O   0  0  0  0  0  0  0  0  0  0  0  0
    0.8342    3.3558   15.9735 N   0  0  0  0  0  2  0  0  0  0  0  0
    0.6262    4.5231   16.6980 C   0  0  0  0  0  0  0  0  0  0  0  0
    1.8109    4.7113   17.6676 C   0  0  0  0  0  0  0  0  0  0  0  0
    1.6991    6.0353   18.4129 C   0  0  0  0  0  0  0  0  0  0  0  0
    1.6285    7.2009   17.4307 C   0  0  0  0  0  0  0  0  0  0  0  0
    0.4422    7.0304   16.4865 C   0  0  0  0  0  0  0  0  0  0  0  0
    0.5479    5.7158   15.7234 C   0  0  0  0  0  0  0  0  0  0  0  0
    1.9039   -0.9801   13.7410 C   0  0  0  0  0  0  0  0  0  0  0  0
    2.8001   -1.8310   14.6339 C   0  0  0  0  0  0  0  0  0  0  0  0
    3.4113    0.5698   12.7112 C   0  0  0  0  0  0  0  0  0  0  0  0
    2.8677    0.7372   11.2968 C   0  0  0  0  0  0  0  0  0  0  0  0
   -0.3127    4.4585   17.2725 H   0  0  0  0  0  0  0  0  0  0  0  0
    1.8312    3.8704   18.3645 H   0  0  0  0  0  0  0  0  0  0  0  0
    2.7299    4.6815   17.0735 H   0  0  0  0  0  0  0  0  0  0  0  0
    0.8004    6.0277   19.0338 H   0  0  0  0  0  0  0  0  0  0  0  0
    2.5613    6.1531   19.0715 H   0  0  0  0  0  0  0  0  0  0  0  0
    1.5348    8.1408   17.9775 H   0  0  0  0  0  0  0  0  0  0  0  0
    2.5512    7.2397   16.8487 H   0  0  0  0  0  0  0  0  0  0  0  0
   -0.4860    7.0425   17.0624 H   0  0  0  0  0  0  0  0  0  0  0  0
    0.4079    7.8584   15.7764 H   0  0  0  0  0  0  0  0  0  0  0  0
   -0.3110    5.5768   15.0635 H   0  0  0  0  0  0  0  0  0  0  0  0
    1.4530    5.7033   15.1094 H   0  0  0  0  0  0  0  0  0  0  0  0
    1.8518   -1.3974   12.7301 H   0  0  0  0  0  0  0  0  0  0  0  0
    0.8896   -0.9461   14.1537 H   0  0  0  0  0  0  0  0  0  0  0  0
    3.7939   -1.9484   14.2087 H   0  0  0  0  0  0  0  0  0  0  0  0
    2.8894   -1.3674   15.6146 H   0  0  0  0  0  0  0  0  0  0  0  0
    2.3569   -2.8145   14.7541 H   0  0  0  0  0  0  0  0  0  0  0  0
    4.1049   -0.2755   12.7649 H   0  0  0  0  0  0  0  0  0  0  0  0
    3.9466    1.4765   13.0158 H   0  0  0  0  0  0  0  0  0  0  0  0
    2.1403    1.5469   11.2757 H   0  0  0  0  0  0  0  0  0  0  0  0
    3.6843    0.9855   10.6255 H   0  0  0  0  0  0  0  0  0  0  0  0
    2.3905   -0.1734   10.9413 H   0  0  0  0  0  0  0  0  0  0  0  0
  1  3  1  0  0  0  0
  1  7  1  0  0  0  0
  1  2  1  0  0  0  0
  4  1  1  0  0  0  0
  5  1  1  0  0  0  0
  6 14  1  0  0  0  0
  7  8  1  0  0  0  0
  8 18  1  0  0  0  0
  8  9  1  0  0  0  0
  9 19  1  0  0  0  0
  9 10  1  0  0  0  0
 10 21  1  0  0  0  0
 10 22  1  0  0  0  0
 11 23  1  0  0  0  0
 11 10  1  0  0  0  0
 12 25  1  0  0  0  0
 12 11  1  0  0  0  0
 13 12  1  0  0  0  0
 13  8  1  0  0  0  0
 14 30  1  0  0  0  0
 14 15  1  0  0  0  0
 15 33  1  0  0  0  0
 15 32  1  0  0  0  0
 16 34  1  0  0  0  0
 16 35  1  0  0  0  0
 16  6  1  0  0  0  0
 17 16  1  0  0  0  0
 20  9  1  0  0  0  0
 24 11  1  0  0  0  0
 26 12  1  0  0  0  0
 27 13  1  0  0  0  0
 28 13  1  0  0  0  0
 29 14  1  0  0  0  0
 31 15  1  0  0  0  0
 36 17  1  0  0  0  0
 37 17  1  0  0  0  0
 38 17  1  0  0  0  0
M  END
$$$$
