CSD_code = JECQAK | q = 0 | S = 0 | Stoichiometry = C22H28Cl2N4O2Pd | MND = 4
 OpenBabel04212202053D

 59 62  0  0  1  0  0  0  0  0999 V2000
    4.3056    3.8194    5.0642 Pd  0  0  0  0  0  0  0  0  0  0  0  0
    5.0319    5.8463    4.2950 Cl  0  0  0  0  0  0  0  0  0  0  0  0
    3.5794    1.7932    5.8310 Cl  0  0  0  0  0  0  0  0  0  0  0  0
    5.2369    2.9364    3.6244 N   0  0  0  0  0  0  0  0  0  0  0  0
    5.1638    1.0701   -0.7864 O   0  0  0  0  0  0  0  0  0  0  0  0
    3.2787    6.1872   11.0563 O   0  0  0  0  0  0  0  0  0  0  0  0
    4.6097    2.6578    2.4885 C   0  0  0  0  0  3  0  0  0  0  0  0
    3.5636    2.9480    2.3981 H   0  0  0  0  0  0  0  0  0  0  0  0
    5.2476    2.0104    1.4328 C   0  0  0  0  0  0  0  0  0  0  0  0
    6.5853    1.6470    1.5793 C   0  0  0  0  0  0  0  0  0  0  0  0
    7.0968    1.1438    0.7738 H   0  0  0  0  0  0  0  0  0  0  0  0
    7.2247    1.9465    2.7711 C   0  0  0  0  0  0  0  0  0  0  0  0
    8.2591    1.6828    2.9247 H   0  0  0  0  0  0  0  0  0  0  0  0
    6.5180    2.5916    3.7708 C   0  0  0  0  0  0  0  0  0  0  0  0
    6.9802    2.8474    4.7243 H   0  0  0  0  0  0  0  0  0  0  0  0
    4.5124    1.7243    0.2070 C   0  0  0  0  0  0  0  0  0  0  0  0
    2.9287    1.5952   -1.3166 C   0  0  2  0  0  0  0  0  0  0  0  0
    2.1169    0.8662   -1.2127 H   0  0  0  0  0  0  0  0  0  0  0  0
    4.2306    0.9350   -1.8531 C   0  0  0  0  0  0  0  0  0  0  0  0
    4.1114   -0.1262   -2.0821 H   0  0  0  0  0  0  0  0  0  0  0  0
    4.6322    1.4545   -2.7278 H   0  0  0  0  0  0  0  0  0  0  0  0
    2.4232    2.7672   -2.1724 C   0  0  0  0  0  0  0  0  0  0  0  0
    3.2541    3.4691   -2.3080 H   0  0  0  0  0  0  0  0  0  0  0  0
    1.2890    3.4856   -1.4473 C   0  0  0  0  0  0  0  0  0  0  0  0
    1.6222    3.8133   -0.4673 H   0  0  0  0  0  0  0  0  0  0  0  0
    0.4416    2.8166   -1.3174 H   0  0  0  0  0  0  0  0  0  0  0  0
    0.9645    4.3507   -2.0203 H   0  0  0  0  0  0  0  0  0  0  0  0
    1.9544    2.2692   -3.5367 C   0  0  0  0  0  0  0  0  0  0  0  0
    1.1259    1.5740   -3.4193 H   0  0  0  0  0  0  0  0  0  0  0  0
    2.7527    1.7627   -4.0742 H   0  0  0  0  0  0  0  0  0  0  0  0
    1.6148    3.1074   -4.1402 H   0  0  0  0  0  0  0  0  0  0  0  0
    3.9341    4.8266    7.6987 C   0  0  0  0  0  3  0  0  0  0  0  0
    4.9326    4.4146    7.8393 H   0  0  0  0  0  0  0  0  0  0  0  0
    3.2850    5.4581    8.7573 C   0  0  0  0  0  0  0  0  0  0  0  0
    2.0053    5.9703    8.5494 C   0  0  0  0  0  0  0  0  0  0  0  0
    1.4858    6.4626    9.3565 H   0  0  0  0  0  0  0  0  0  0  0  0
    1.4323    5.8282    7.2963 C   0  0  0  0  0  0  0  0  0  0  0  0
    0.4441    6.2096    7.0940 H   0  0  0  0  0  0  0  0  0  0  0  0
    2.1455    5.1874    6.2985 C   0  0  0  0  0  0  0  0  0  0  0  0
    1.7355    5.0553    5.2971 H   0  0  0  0  0  0  0  0  0  0  0  0
    3.9464    5.5675   10.0517 C   0  0  0  0  0  0  0  0  0  0  0  0
    5.4137    5.4134   11.6856 C   0  0  2  0  0  0  0  0  0  0  0  0
    5.5539    4.4630   12.2134 H   0  0  0  0  0  0  0  0  0  0  0  0
    4.1479    6.1669   12.1840 C   0  0  0  0  0  0  0  0  0  0  0  0
    3.6415    5.6588   13.0075 H   0  0  0  0  0  0  0  0  0  0  0  0
    4.3630    7.2005   12.4695 H   0  0  0  0  0  0  0  0  0  0  0  0
    6.7124    6.2272   11.7967 C   0  0  0  0  0  0  0  0  0  0  0  0
    6.5509    7.1903   11.2991 H   0  0  0  0  0  0  0  0  0  0  0  0
    7.8444    5.4918   11.0851 C   0  0  0  0  0  0  0  0  0  0  0  0
    8.0409    4.5404   11.5738 H   0  0  0  0  0  0  0  0  0  0  0  0
    8.7531    6.0883   11.1070 H   0  0  0  0  0  0  0  0  0  0  0  0
    7.5711    5.2983   10.0523 H   0  0  0  0  0  0  0  0  0  0  0  0
    7.0693    6.4682   13.2608 C   0  0  0  0  0  0  0  0  0  0  0  0
    7.9805    7.0575   13.3275 H   0  0  0  0  0  0  0  0  0  0  0  0
    7.2365    5.5205   13.7684 H   0  0  0  0  0  0  0  0  0  0  0  0
    6.2786    7.0015   13.7835 H   0  0  0  0  0  0  0  0  0  0  0  0
    3.3021    2.0377    0.0066 N   0  0  0  0  0  0  0  0  0  0  0  0
    3.3711    4.6999    6.5037 N   0  0  0  0  0  0  0  0  0  0  0  0
    5.1010    5.1151   10.3075 N   0  0  0  0  0  0  0  0  0  0  0  0
  1  3  1  0  0  0  0
  1 58  1  0  0  0  0
  2  1  1  0  0  0  0
  4 14  1  0  0  0  0
  4  1  1  0  0  0  0
  5 16  1  0  0  0  0
  6 44  1  0  0  0  0
  7  4  1  0  0  0  0
  8  7  1  0  0  0  0
  9 10  2  0  0  0  0
  9  7  1  0  0  0  0
 10 12  1  0  0  0  0
 11 10  1  0  0  0  0
 12 13  1  0  0  0  0
 12 14  2  0  0  0  0
 14 15  1  0  0  0  0
 16  9  1  0  0  0  0
 17 18  1  1  0  0  0
 17 57  1  0  0  0  0
 19 17  1  0  0  0  0
 19  5  1  0  0  0  0
 20 19  1  0  0  0  0
 21 19  1  0  0  0  0
 22 24  1  0  0  0  0
 22 17  1  0  0  0  0
 23 22  1  0  0  0  0
 24 26  1  0  0  0  0
 24 25  1  0  0  0  0
 27 24  1  0  0  0  0
 28 29  1  0  0  0  0
 28 22  1  0  0  0  0
 30 28  1  0  0  0  0
 31 28  1  0  0  0  0
 32 33  1  0  0  0  0
 32 34  1  0  0  0  0
 34 41  1  0  0  0  0
 35 34  2  0  0  0  0
 35 36  1  0  0  0  0
 37 35  1  0  0  0  0
 38 37  1  0  0  0  0
 39 58  1  0  0  0  0
 39 37  2  0  0  0  0
 40 39  1  0  0  0  0
 41 59  2  0  0  0  0
 41  6  1  0  0  0  0
 42 47  1  0  0  0  0
 42 44  1  0  0  0  0
 42 43  1  1  0  0  0
 44 46  1  0  0  0  0
 44 45  1  0  0  0  0
 47 53  1  0  0  0  0
 48 47  1  0  0  0  0
 49 51  1  0  0  0  0
 49 50  1  0  0  0  0
 49 47  1  0  0  0  0
 52 49  1  0  0  0  0
 53 54  1  0  0  0  0
 53 55  1  0  0  0  0
 53 56  1  0  0  0  0
 57 16  2  0  0  0  0
 58 32  1  0  0  0  0
 59 42  1  0  0  0  0
M  END
$$$$
