CSD_code = JEDNAK | q = 1 | S = 0 | Stoichiometry = C18H23Cl2N4Zn(1+) | MND = 5
 OpenBabel04212202053D

 48 52  0  0  0  0  0  0  0  0999 V2000
   14.7351   -3.4333    5.5383 C   0  0  0  0  0  0  0  0  0  0  0  0
   13.4228   -3.9103    5.3854 C   0  0  0  0  0  0  0  0  0  0  0  0
   13.2267   -4.9681    5.4612 H   0  0  0  0  0  0  0  0  0  0  0  0
   12.4112   -3.0170    5.1367 C   0  0  0  0  0  0  0  0  0  0  0  0
   11.3932   -3.3554    5.0156 H   0  0  0  0  0  0  0  0  0  0  0  0
   12.7016   -1.6432    5.0272 C   0  0  0  0  0  0  0  0  0  0  0  0
   11.7198   -0.6512    4.7471 C   0  0  0  0  0  0  0  0  0  0  0  0
   10.6956   -0.9663    4.6199 H   0  0  0  0  0  0  0  0  0  0  0  0
   12.0655    0.6555    4.6394 C   0  0  0  0  0  0  0  0  0  0  0  0
   11.3215    1.4074    4.4250 H   0  0  0  0  0  0  0  0  0  0  0  0
   13.4156    1.0764    4.8050 C   0  0  0  0  0  0  0  0  0  0  0  0
   13.8202    2.4174    4.7013 C   0  0  0  0  0  0  0  0  0  0  0  0
   13.0904    3.1815    4.4802 H   0  0  0  0  0  0  0  0  0  0  0  0
   15.1429    2.7345    4.8901 C   0  0  0  0  0  0  0  0  0  0  0  0
   15.4741    3.7591    4.8262 H   0  0  0  0  0  0  0  0  0  0  0  0
   16.0683    1.7190    5.1789 C   0  0  0  0  0  0  0  0  0  0  0  0
   14.4194    0.1230    5.0925 C   0  0  0  0  0  0  0  0  0  0  0  0
   14.0458   -1.2560    5.2023 C   0  0  0  0  0  0  0  0  0  0  0  0
   15.8971   -4.3667    5.7319 C   0  0  0  0  0  0  0  0  0  0  0  0
   15.6160   -5.1734    6.4217 H   0  0  0  0  0  0  0  0  0  0  0  0
   16.0951   -4.8276    4.7554 H   0  0  0  0  0  0  0  0  0  0  0  0
   18.3296   -4.4058    5.7868 C   0  0  0  0  0  0  0  0  0  0  0  0
   18.3882   -4.4325    4.6953 H   0  0  0  0  0  0  0  0  0  0  0  0
   18.2717   -5.4386    6.1561 H   0  0  0  0  0  0  0  0  0  0  0  0
   19.5666   -3.7288    6.3493 C   0  0  0  0  0  0  0  0  0  0  0  0
   20.4516   -4.2938    6.0718 H   0  0  0  0  0  0  0  0  0  0  0  0
   19.5202   -3.6725    7.4346 H   0  0  0  0  0  0  0  0  0  0  0  0
   19.6639   -2.7200    5.9536 H   0  0  0  0  0  0  0  0  0  0  0  0
   17.5062    2.0602    5.4675 C   0  0  0  0  0  0  0  0  0  0  0  0
   17.6060    3.1360    5.6184 H   0  0  0  0  0  0  0  0  0  0  0  0
   17.7926    1.5251    6.3832 H   0  0  0  0  0  0  0  0  0  0  0  0
   19.8559    1.5754    4.8355 C   0  0  0  0  0  0  0  0  0  0  0  0
   19.9057    0.9595    5.7352 H   0  0  0  0  0  0  0  0  0  0  0  0
   20.4160    1.0771    4.0429 H   0  0  0  0  0  0  0  0  0  0  0  0
   20.4233    2.9593    5.0911 C   0  0  0  0  0  0  0  0  0  0  0  0
   20.3060    3.5985    4.2182 H   0  0  0  0  0  0  0  0  0  0  0  0
   21.4850    2.8766    5.3025 H   0  0  0  0  0  0  0  0  0  0  0  0
   19.9535    3.4337    5.9475 H   0  0  0  0  0  0  0  0  0  0  0  0
   17.9267   -1.1435    3.6042 Cl  0  0  0  0  0  0  0  0  0  0  0  0
   18.1335   -0.5654    7.2666 Cl  0  0  0  0  0  0  0  0  0  0  0  0
   15.0065   -2.1512    5.4593 N   0  0  0  0  0  0  0  0  0  0  0  0
   15.7063    0.4527    5.2701 N   0  0  0  0  0  0  0  0  0  0  0  0
   18.4364    1.6156    4.4076 N   0  0  0  0  0  4  0  0  0  0  0  0
   17.1093   -3.6688    6.1562 N   0  0  0  0  0  4  0  0  0  0  0  0
   16.9297   -1.4809    5.6433 Zn  0  0  0  0  0  0  0  0  0  0  0  0
   18.3470    2.2130    3.5821 H   0  0  0  0  0  0  0  0  0  0  0  0
   18.1889    0.5982    4.0973 H   0  0  0  0  0  0  0  0  0  0  0  0
   17.1048   -3.6024    7.1750 H   0  0  0  0  0  0  0  0  0  0  0  0
  1 19  1  0  0  0  0
  2  3  1  0  0  0  0
  2  1  2  0  0  0  0
  4  2  1  0  0  0  0
  5  4  1  0  0  0  0
  6  4  2  0  0  0  0
  6 18  1  0  0  0  0
  7  6  1  0  0  0  0
  8  7  1  0  0  0  0
  9  7  2  0  0  0  0
  9 11  1  0  0  0  0
 10  9  1  0  0  0  0
 11 17  1  0  0  0  0
 12 11  2  0  0  0  0
 12 14  1  0  0  0  0
 13 12  1  0  0  0  0
 14 16  2  0  0  0  0
 15 14  1  0  0  0  0
 16 42  1  0  0  0  0
 16 29  1  0  0  0  0
 17 18  2  0  0  0  0
 17 42  1  0  0  0  0
 18 41  1  0  0  0  0
 19 44  1  0  0  0  0
 19 20  1  0  0  0  0
 21 19  1  0  0  0  0
 22 24  1  0  0  0  0
 22 44  1  0  0  0  0
 22 25  1  0  0  0  0
 23 22  1  0  0  0  0
 25 27  1  0  0  0  0
 26 25  1  0  0  0  0
 28 25  1  0  0  0  0
 29 30  1  0  0  0  0
 29 31  1  0  0  0  0
 32 35  1  0  0  0  0
 32 33  1  0  0  0  0
 34 32  1  0  0  0  0
 35 37  1  0  0  0  0
 35 38  1  0  0  0  0
 36 35  1  0  0  0  0
 39 45  1  0  0  0  0
 41  1  1  0  0  0  0
 41 45  1  0  0  0  0
 42 45  1  0  0  0  0
 43 32  1  0  0  0  0
 43 29  1  0  0  0  0
 44 48  1  0  0  0  0
 45 44  1  0  0  0  0
 45 40  1  0  0  0  0
 46 43  1  0  0  0  0
 47 43  1  0  0  0  0
M  END
$$$$
