CSD_code = JEFFIK | q = 1 | S = 0 | Stoichiometry = C12H24Cl3N2Pt(1+) | MND = 5
 OpenBabel04212202053D

 42 39  0  0  1  0  0  0  0  0999 V2000
   -4.6716   -1.0906   -0.6278 Pt  0  0  0  0  0  0  0  0  0  0  0  0
   -3.6790    0.9060   -0.3544 Cl  0  0  0  0  0 15  0  0  0  0  0  0
   -5.8790   -3.2917   -0.8444 Cl  0  0  0  0  0 15  0  0  0  0  0  0
   -6.4944   -0.2276    0.2486 Cl  0  0  0  0  0 15  0  0  0  0  0  0
    0.3962   -3.7628   -3.6872 N   0  0  0  0  0  4  0  0  0  0  0  0
    0.1303   -4.5778   -4.2522 H   0  0  0  0  0  0  0  0  0  0  0  0
   -4.6582   -5.9370   -1.4310 N   0  0  0  0  0  4  0  0  0  0  0  0
   -5.0726   -4.9298   -1.1026 H   0  0  0  0  0  0  0  0  0  0  0  0
   -3.0468   -1.6693   -1.8666 C   0  0  0  0  0  2  0  0  0  0  0  0
   -2.9883   -2.2727   -0.7351 C   0  0  2  0  0  3  0  0  0  0  0  0
   -2.7001   -3.7140   -0.5289 C   0  0  0  0  0  0  0  0  0  0  0  0
   -3.3792   -4.1489    0.2017 H   0  0  0  0  0  0  0  0  0  0  0  0
   -1.6792   -3.8922   -0.1916 H   0  0  0  0  0  0  0  0  0  0  0  0
   -2.9932   -4.2577   -1.9503 C   0  0  1  0  0  0  0  0  0  0  0  0
   -3.9670   -3.8354   -2.2175 H   0  0  0  0  0  0  0  0  0  0  0  0
   -2.0565   -3.6062   -3.0007 C   0  0  1  0  0  0  0  0  0  0  0  0
   -2.1781   -4.1434   -3.9478 H   0  0  0  0  0  0  0  0  0  0  0  0
   -2.5515   -2.1261   -3.1901 C   0  0  0  0  0  0  0  0  0  0  0  0
   -1.7645   -1.4689   -3.5546 H   0  0  0  0  0  0  0  0  0  0  0  0
   -3.3659   -2.1028   -3.9160 H   0  0  0  0  0  0  0  0  0  0  0  0
   -3.2573   -5.7629   -1.9198 C   0  0  0  0  0  0  0  0  0  0  0  0
   -3.1695   -6.2165   -2.9097 H   0  0  0  0  0  0  0  0  0  0  0  0
   -2.5771   -6.2819   -1.2420 H   0  0  0  0  0  0  0  0  0  0  0  0
   -4.7677   -6.8570   -0.2952 C   0  0  0  0  0  0  0  0  0  0  0  0
   -5.7956   -6.8680    0.0589 H   0  0  0  0  0  0  0  0  0  0  0  0
   -4.1327   -6.5216    0.5211 H   0  0  0  0  0  0  0  0  0  0  0  0
   -4.4813   -7.8685   -0.5853 H   0  0  0  0  0  0  0  0  0  0  0  0
   -5.5714   -6.3266   -2.5117 C   0  0  0  0  0  0  0  0  0  0  0  0
   -6.5913   -6.3259   -2.1364 H   0  0  0  0  0  0  0  0  0  0  0  0
   -5.3271   -7.3197   -2.8892 H   0  0  0  0  0  0  0  0  0  0  0  0
   -5.5153   -5.5985   -3.3165 H   0  0  0  0  0  0  0  0  0  0  0  0
   -0.5839   -3.6634   -2.5667 C   0  0  0  0  0  0  0  0  0  0  0  0
   -0.3492   -2.7725   -1.9817 H   0  0  0  0  0  0  0  0  0  0  0  0
   -0.4275   -4.5439   -1.9403 H   0  0  0  0  0  0  0  0  0  0  0  0
    0.4015   -2.5920   -4.5833 C   0  0  0  0  0  0  0  0  0  0  0  0
    1.1683   -2.7124   -5.3471 H   0  0  0  0  0  0  0  0  0  0  0  0
    0.6207   -1.6927   -4.0101 H   0  0  0  0  0  0  0  0  0  0  0  0
   -0.5611   -2.4804   -5.0755 H   0  0  0  0  0  0  0  0  0  0  0  0
    1.7535   -3.9980   -3.1576 C   0  0  0  0  0  0  0  0  0  0  0  0
    1.7772   -4.8958   -2.5432 H   0  0  0  0  0  0  0  0  0  0  0  0
    2.0595   -3.1485   -2.5492 H   0  0  0  0  0  0  0  0  0  0  0  0
    2.4642   -4.1164   -3.9735 H   0  0  0  0  0  0  0  0  0  0  0  0
  5 39  1  0  0  0  0
  5 32  1  0  0  0  0
  6  5  1  0  0  0  0
  7  8  1  0  0  0  0
  7 24  1  0  0  0  0
  9 10  1  0  0  0  0
 10  1  1  6  0  0  0
 10 11  1  0  0  0  0
 11 13  1  0  0  0  0
 11 12  1  0  0  0  0
 14 15  1  6  0  0  0
 14 21  1  0  0  0  0
 14 11  1  0  0  0  0
 16 17  1  6  0  0  0
 16 32  1  0  0  0  0
 16 14  1  0  0  0  0
 18 16  1  0  0  0  0
 18  9  1  0  0  0  0
 19 18  1  0  0  0  0
 20 18  1  0  0  0  0
 21  7  1  0  0  0  0
 21 23  1  0  0  0  0
 22 21  1  0  0  0  0
 24 25  1  0  0  0  0
 24 26  1  0  0  0  0
 27 24  1  0  0  0  0
 28 29  1  0  0  0  0
 28  7  1  0  0  0  0
 30 28  1  0  0  0  0
 31 28  1  0  0  0  0
 32 33  1  0  0  0  0
 32 34  1  0  0  0  0
 35 37  1  0  0  0  0
 35  5  1  0  0  0  0
 36 35  1  0  0  0  0
 38 35  1  0  0  0  0
 39 41  1  0  0  0  0
 39 40  1  0  0  0  0
 42 39  1  0  0  0  0
M  END
$$$$
