CSD_code = JEFJUA | q = 0 | S = 0 | Stoichiometry = C15H29Cl2N2PPd | MND = 4
 OpenBabel04212202053D

 50 51  0  0  1  0  0  0  0  0999 V2000
    4.4499    2.4407    0.2380 Pd  0  0  0  0  0  0  0  0  0  0  0  0
    2.6709    1.5246   -0.7806 Cl  0  0  0  0  0  0  0  0  0  0  0  0
    3.1961    3.6127    1.7870 Cl  0  0  0  0  0  0  0  0  0  0  0  0
    6.2696    3.3549    1.0315 P   0  0  0  0  0  4  0  0  0  0  0  0
    7.0247    1.8769   -1.0990 N   0  0  0  0  0  0  0  0  0  0  0  0
    8.8525    2.7396   -0.2808 N   0  0  0  0  0  0  0  0  0  0  0  0
    7.5215    2.6334   -0.1057 C   0  0  1  0  0  3  0  0  0  0  0  0
    8.0429    1.5219   -1.9475 C   0  0  0  0  0  0  0  0  0  0  0  0
    9.1818    2.0623   -1.4160 C   0  0  0  0  0  0  0  0  0  0  0  0
    5.6405    1.4500   -1.1061 C   0  0  0  0  0  0  0  0  0  0  0  0
    7.9202    0.7394   -3.2301 C   0  0  0  0  0  0  0  0  0  0  0  0
    7.1559    1.5812   -4.2620 C   0  0  0  0  0  0  0  0  0  0  0  0
    7.2134   -0.6027   -3.0031 C   0  0  0  0  0  0  0  0  0  0  0  0
    9.3251    0.4575   -3.7787 C   0  0  0  0  0  0  0  0  0  0  0  0
    9.8204    3.3468    0.5904 C   0  0  0  0  0  0  0  0  0  0  0  0
    6.2807    5.1821    0.6938 C   0  0  0  0  0  0  0  0  0  0  0  0
    5.6877    5.3629   -0.7054 C   0  0  0  0  0  0  0  0  0  0  0  0
    7.5819    5.9556    0.8648 C   0  0  0  0  0  0  0  0  0  0  0  0
    6.9130    3.0206    2.7408 C   0  0  0  0  0  0  0  0  0  0  0  0
    6.6322    1.5320    2.9505 C   0  0  0  0  0  0  0  0  0  0  0  0
    6.1120    3.8735    3.7196 C   0  0  0  0  0  0  0  0  0  0  0  0
   10.1971    2.0127   -1.7511 H   0  0  0  0  0  0  0  0  0  0  0  0
    5.6113    0.3977   -0.7835 H   0  0  0  0  0  0  0  0  0  0  0  0
    5.2441    1.5023   -2.1241 H   0  0  0  0  0  0  0  0  0  0  0  0
    7.0895    1.0347   -5.1989 H   0  0  0  0  0  0  0  0  0  0  0  0
    7.6749    2.5198   -4.4460 H   0  0  0  0  0  0  0  0  0  0  0  0
    6.1467    1.8066   -3.9312 H   0  0  0  0  0  0  0  0  0  0  0  0
    6.1582   -0.4730   -2.7896 H   0  0  0  0  0  0  0  0  0  0  0  0
    7.2994   -1.2102   -3.9005 H   0  0  0  0  0  0  0  0  0  0  0  0
    7.6757   -1.1442   -2.1803 H   0  0  0  0  0  0  0  0  0  0  0  0
    9.8520    1.3814   -4.0037 H   0  0  0  0  0  0  0  0  0  0  0  0
    9.9104   -0.1227   -3.0693 H   0  0  0  0  0  0  0  0  0  0  0  0
    9.2445   -0.1141   -4.6993 H   0  0  0  0  0  0  0  0  0  0  0  0
   10.5109    3.9583    0.0085 H   0  0  0  0  0  0  0  0  0  0  0  0
   10.3927    2.5742    1.1095 H   0  0  0  0  0  0  0  0  0  0  0  0
    9.3172    3.9705    1.3223 H   0  0  0  0  0  0  0  0  0  0  0  0
    5.5376    5.5362    1.4228 H   0  0  0  0  0  0  0  0  0  0  0  0
    5.4714    6.4124   -0.8940 H   0  0  0  0  0  0  0  0  0  0  0  0
    6.3782    5.0095   -1.4734 H   0  0  0  0  0  0  0  0  0  0  0  0
    4.7432    4.7974   -0.7879 H   0  0  0  0  0  0  0  0  0  0  0  0
    7.3768    7.0216    0.7807 H   0  0  0  0  0  0  0  0  0  0  0  0
    8.2977    5.6955    0.0873 H   0  0  0  0  0  0  0  0  0  0  0  0
    8.0266    5.7820    1.8429 H   0  0  0  0  0  0  0  0  0  0  0  0
    7.9858    3.2194    2.8424 H   0  0  0  0  0  0  0  0  0  0  0  0
    7.2349    0.9196    2.2770 H   0  0  0  0  0  0  0  0  0  0  0  0
    6.8460    1.2342    3.9748 H   0  0  0  0  0  0  0  0  0  0  0  0
    5.5716    1.3345    2.7440 H   0  0  0  0  0  0  0  0  0  0  0  0
    6.2600    3.5174    4.7371 H   0  0  0  0  0  0  0  0  0  0  0  0
    5.0486    3.8075    3.4767 H   0  0  0  0  0  0  0  0  0  0  0  0
    6.4149    4.9178    3.6756 H   0  0  0  0  0  0  0  0  0  0  0  0
  1  4  1  0  0  0  0
  1  3  1  0  0  0  0
  2  1  1  0  0  0  0
  4 19  1  0  0  0  0
  6  7  1  0  0  0  0
  6 15  1  0  0  0  0
  7  5  1  6  0  0  0
  7  4  1  0  0  0  0
  8  9  2  0  0  0  0
  8  5  1  0  0  0  0
  9  6  1  0  0  0  0
 10  5  1  0  0  0  0
 10 23  1  0  0  0  0
 10  1  1  0  0  0  0
 11 13  1  0  0  0  0
 11  8  1  0  0  0  0
 12 27  1  0  0  0  0
 12 11  1  0  0  0  0
 13 28  1  0  0  0  0
 13 30  1  0  0  0  0
 14 11  1  0  0  0  0
 14 32  1  0  0  0  0
 15 35  1  0  0  0  0
 15 36  1  0  0  0  0
 16 18  1  0  0  0  0
 16  4  1  0  0  0  0
 16 37  1  0  0  0  0
 17 16  1  0  0  0  0
 18 43  1  0  0  0  0
 19 44  1  0  0  0  0
 19 20  1  0  0  0  0
 19 21  1  0  0  0  0
 20 46  1  0  0  0  0
 21 48  1  0  0  0  0
 22  9  1  0  0  0  0
 24 10  1  0  0  0  0
 25 12  1  0  0  0  0
 26 12  1  0  0  0  0
 29 13  1  0  0  0  0
 31 14  1  0  0  0  0
 33 14  1  0  0  0  0
 34 15  1  0  0  0  0
 38 17  1  0  0  0  0
 39 17  1  0  0  0  0
 40 17  1  0  0  0  0
 41 18  1  0  0  0  0
 42 18  1  0  0  0  0
 45 20  1  0  0  0  0
 47 20  1  0  0  0  0
 49 21  1  0  0  0  0
 50 21  1  0  0  0  0
M  END
$$$$
