CSD_code = JEFSET | q = 0 | S = 0 | Stoichiometry = C17H29Cl2NO5PRe | MND = 6
 OpenBabel04212202053D

 56 58  0  0  0  0  0  0  0  0999 V2000
    8.1838    1.4051   10.2047 Re  0  0  0  0  0  0  0  0  0  0  0  0
    8.9203   -0.8276   10.3822 P   0  0  0  0  0  4  0  0  0  0  0  0
    9.4599    2.1235   12.0860 Cl  0  0  0  0  0  0  0  0  0  0  0  0
    7.0489    0.5558    8.2891 Cl  0  0  0  0  0  0  0  0  0  0  0  0
    6.8105    1.3763   11.1177 O   0  0  0  0  0  1  0  0  0  0  0  0
    9.6561    1.5020    9.2157 O   0  0  0  0  0  0  0  0  0  0  0  0
   10.1837   -1.1211    9.4742 O   0  0  0  0  0  0  0  0  0  0  0  0
    8.0068   -2.0373    9.9213 O   0  0  0  0  0  0  0  0  0  0  0  0
    9.2208   -1.3617   11.8646 O   0  0  0  0  0  0  0  0  0  0  0  0
    7.7673    3.6032    9.6300 N   0  0  0  0  0  0  0  0  0  0  0  0
   10.7417    1.0568    8.4999 C   0  0  0  0  0  0  0  0  0  0  0  0
   11.2876   -0.2237    9.2363 C   0  0  0  0  0  0  0  0  0  0  0  0
   11.7992    2.1729    8.4500 C   0  0  0  0  0  0  0  0  0  0  0  0
   11.4262    2.9781    7.8198 H   0  0  0  0  0  0  0  0  0  0  0  0
   12.7361    1.8113    8.0379 H   0  0  0  0  0  0  0  0  0  0  0  0
   11.9662    2.5711    9.4476 H   0  0  0  0  0  0  0  0  0  0  0  0
   10.2743    0.7100    7.0747 C   0  0  0  0  0  0  0  0  0  0  0  0
    9.6971    1.5468    6.6853 H   0  0  0  0  0  0  0  0  0  0  0  0
    9.6212   -0.1597    7.0966 H   0  0  0  0  0  0  0  0  0  0  0  0
   11.1218    0.5275    6.4211 H   0  0  0  0  0  0  0  0  0  0  0  0
   12.2561   -1.0347    8.3769 C   0  0  0  0  0  0  0  0  0  0  0  0
   12.6741   -1.8378    8.9791 H   0  0  0  0  0  0  0  0  0  0  0  0
   13.0669   -0.4094    8.0164 H   0  0  0  0  0  0  0  0  0  0  0  0
   11.7358   -1.4769    7.5331 H   0  0  0  0  0  0  0  0  0  0  0  0
   11.9291    0.1227   10.5767 C   0  0  0  0  0  0  0  0  0  0  0  0
   12.0750   -0.7954   11.1426 H   0  0  0  0  0  0  0  0  0  0  0  0
   11.2851    0.7817   11.1596 H   0  0  0  0  0  0  0  0  0  0  0  0
   12.8938    0.6001   10.4288 H   0  0  0  0  0  0  0  0  0  0  0  0
    7.4232   -2.6671   11.0771 C   0  0  0  0  0  0  0  0  0  0  0  0
    8.5818   -2.6262   12.1187 C   0  0  0  0  0  0  0  0  0  0  0  0
    6.2194   -1.8378   11.5136 C   0  0  0  0  0  0  0  0  0  0  0  0
    5.5649   -1.7039   10.6551 H   0  0  0  0  0  0  0  0  0  0  0  0
    6.5345   -0.8456   11.8398 H   0  0  0  0  0  0  0  0  0  0  0  0
    5.6692   -2.3335   12.3080 H   0  0  0  0  0  0  0  0  0  0  0  0
    6.9841   -4.0663   10.6676 C   0  0  0  0  0  0  0  0  0  0  0  0
    6.1469   -3.9858    9.9800 H   0  0  0  0  0  0  0  0  0  0  0  0
    6.6709   -4.6279   11.5433 H   0  0  0  0  0  0  0  0  0  0  0  0
    7.7868   -4.5941   10.1636 H   0  0  0  0  0  0  0  0  0  0  0  0
    8.1200   -2.6407   13.5687 C   0  0  0  0  0  0  0  0  0  0  0  0
    8.9880   -2.6808   14.2211 H   0  0  0  0  0  0  0  0  0  0  0  0
    7.4958   -3.5105   13.7543 H   0  0  0  0  0  0  0  0  0  0  0  0
    7.5666   -1.7364   13.7984 H   0  0  0  0  0  0  0  0  0  0  0  0
    9.6192   -3.7181   11.8673 C   0  0  0  0  0  0  0  0  0  0  0  0
   10.5012   -3.5033   12.4662 H   0  0  0  0  0  0  0  0  0  0  0  0
    9.9079   -3.7198   10.8186 H   0  0  0  0  0  0  0  0  0  0  0  0
    9.2319   -4.6933   12.1477 H   0  0  0  0  0  0  0  0  0  0  0  0
    8.2448    4.6115   10.3490 C   0  0  0  0  0  3  0  0  0  0  0  0
    8.8271    4.3442   11.2223 H   0  0  0  0  0  0  0  0  0  0  0  0
    8.0126    5.9333   10.0064 C   0  0  0  0  0  0  0  0  0  0  0  0
    8.4153    6.7248   10.6181 H   0  0  0  0  0  0  0  0  0  0  0  0
    7.2588    6.2095    8.8769 C   0  0  0  0  0  0  0  0  0  0  0  0
    7.0581    7.2293    8.5832 H   0  0  0  0  0  0  0  0  0  0  0  0
    6.7667    5.1486    8.1330 C   0  0  0  0  0  0  0  0  0  0  0  0
    6.1745    5.3135    7.2470 H   0  0  0  0  0  0  0  0  0  0  0  0
    7.0432    3.8561    8.5461 C   0  0  0  0  0  0  0  0  0  0  0  0
    6.6786    2.9940    8.0005 H   0  0  0  0  0  0  0  0  0  0  0  0
  1  2  1  0  0  0  0
  1  5  1  0  0  0  0
  1  3  1  0  0  0  0
  2  9  1  0  0  0  0
  4  1  1  0  0  0  0
  6  1  1  0  0  0  0
  7  2  1  0  0  0  0
  8  2  1  0  0  0  0
  8 29  1  0  0  0  0
  9 30  1  0  0  0  0
 10  1  1  0  0  0  0
 10 47  1  0  0  0  0
 11  6  1  0  0  0  0
 11 12  1  0  0  0  0
 12  7  1  0  0  0  0
 12 25  1  0  0  0  0
 13 11  1  0  0  0  0
 13 16  1  0  0  0  0
 14 13  1  0  0  0  0
 15 13  1  0  0  0  0
 17 19  1  0  0  0  0
 17 11  1  0  0  0  0
 18 17  1  0  0  0  0
 20 17  1  0  0  0  0
 21 22  1  0  0  0  0
 21 12  1  0  0  0  0
 23 21  1  0  0  0  0
 24 21  1  0  0  0  0
 25 26  1  0  0  0  0
 25 27  1  0  0  0  0
 28 25  1  0  0  0  0
 29 31  1  0  0  0  0
 29 30  1  0  0  0  0
 30 39  1  0  0  0  0
 31 33  1  0  0  0  0
 31 34  1  0  0  0  0
 32 31  1  0  0  0  0
 35 29  1  0  0  0  0
 35 37  1  0  0  0  0
 36 35  1  0  0  0  0
 38 35  1  0  0  0  0
 39 41  1  0  0  0  0
 39 42  1  0  0  0  0
 39 40  1  0  0  0  0
 43 30  1  0  0  0  0
 43 46  1  0  0  0  0
 43 44  1  0  0  0  0
 45 43  1  0  0  0  0
 47 48  1  0  0  0  0
 49 47  1  0  0  0  0
 49 50  1  0  0  0  0
 51 49  2  0  0  0  0
 52 51  1  0  0  0  0
 53 55  2  0  0  0  0
 53 51  1  0  0  0  0
 54 53  1  0  0  0  0
 55 10  1  0  0  0  0
 56 55  1  0  0  0  0
M  END
$$$$
