CSD_code = JEGDAB | q = 0 | S = 0 | Stoichiometry = C15H13ClN2Pt | MND = 5
 OpenBabel04212202053D

 32 34  0  0  0  0  0  0  0  0999 V2000
    3.6167    3.6104    1.8556 Pt  0  0  0  0  0  0  0  0  0  0  0  0
    1.4295    3.6779    1.3374 Cl  0  0  0  0  0 15  0  0  0  0  0  0
    5.6129    3.6365    2.4171 N   0  0  0  0  0  0  0  0  0  0  0  0
    3.5558    5.1969    3.0437 N   0  0  0  0  0  0  0  0  0  0  0  0
    3.6166    1.5555    1.1811 C   0  0  0  0  0  3  0  0  0  0  0  0
    3.8959    2.3738    0.1035 C   0  0  0  0  0  0  0  0  0  0  0  0
    6.6005    2.8201    2.0512 C   0  0  0  0  0  3  0  0  0  0  0  0
    7.8913    2.9419    2.5185 C   0  0  0  0  0  0  0  0  0  0  0  0
    8.1854    3.9653    3.4190 C   0  0  0  0  0  0  0  0  0  0  0  0
    7.1773    4.8154    3.8026 C   0  0  0  0  0  0  0  0  0  0  0  0
    5.8839    4.6386    3.2875 C   0  0  0  0  0  0  0  0  0  0  0  0
    4.7797    5.4749    3.6217 C   0  0  0  0  0  0  0  0  0  0  0  0
    4.7005    6.5806    4.4561 C   0  0  0  0  0  0  0  0  0  0  0  0
    3.3678    7.0183    4.3989 C   0  0  0  0  0  0  0  0  0  0  0  0
    2.6895    8.0773    5.0157 C   0  0  0  0  0  0  0  0  0  0  0  0
    1.3575    8.2485    4.7472 C   0  0  0  0  0  0  0  0  0  0  0  0
    0.6853    7.3822    3.8713 C   0  0  0  0  0  0  0  0  0  0  0  0
    1.3213    6.3348    3.2512 C   0  0  0  0  0  0  0  0  0  0  0  0
    2.6810    6.1337    3.5082 C   0  0  0  0  0  0  0  0  0  0  0  0
    2.6152    1.1554    1.3029 H   0  0  0  0  0  0  0  0  0  0  0  0
    4.3987    0.9932    1.6827 H   0  0  0  0  0  0  0  0  0  0  0  0
    3.1104    2.6073   -0.6080 H   0  0  0  0  0  0  0  0  0  0  0  0
    4.9068    2.4823   -0.2784 H   0  0  0  0  0  0  0  0  0  0  0  0
    6.3591    2.0314    1.3535 H   0  0  0  0  0  0  0  0  0  0  0  0
    8.6518    2.2536    2.1884 H   0  0  0  0  0  0  0  0  0  0  0  0
    9.1863    4.0843    3.8042 H   0  0  0  0  0  0  0  0  0  0  0  0
    7.3553    5.6212    4.4949 H   0  0  0  0  0  0  0  0  0  0  0  0
    5.4960    7.0154    5.0292 H   0  0  0  0  0  0  0  0  0  0  0  0
    3.2201    8.7375    5.6864 H   0  0  0  0  0  0  0  0  0  0  0  0
    0.8102    9.0572    5.2093 H   0  0  0  0  0  0  0  0  0  0  0  0
   -0.3650    7.5475    3.6804 H   0  0  0  0  0  0  0  0  0  0  0  0
    0.7823    5.6858    2.5826 H   0  0  0  0  0  0  0  0  0  0  0  0
  1  3  1  0  0  0  0
  1  4  1  0  0  0  0
  3 11  1  0  0  0  0
  4 19  1  0  0  0  0
  4 12  1  0  0  0  0
  5 20  1  0  0  0  0
  5 21  1  0  0  0  0
  6  5  1  0  0  0  0
  6  1  1  0  0  0  0
  7  3  1  0  0  0  0
  7  8  1  0  0  0  0
  8  9  2  0  0  0  0
  9 10  1  0  0  0  0
  9 26  1  0  0  0  0
 10 27  1  0  0  0  0
 11 12  1  0  0  0  0
 11 10  2  0  0  0  0
 12 13  2  0  0  0  0
 13 28  1  0  0  0  0
 14 13  1  0  0  0  0
 14 15  1  0  0  0  0
 15 29  1  0  0  0  0
 16 15  2  0  0  0  0
 16 30  1  0  0  0  0
 17 16  1  0  0  0  0
 18 19  1  0  0  0  0
 18 17  2  0  0  0  0
 19 14  2  0  0  0  0
 22  6  1  0  0  0  0
 23  6  1  0  0  0  0
 24  7  1  0  0  0  0
 25  8  1  0  0  0  0
 31 17  1  0  0  0  0
 32 18  1  0  0  0  0
M  END
$$$$
