CSD_code = JEGKIQ | q = 0 | S = 0 | Stoichiometry = C15H28ClN3PRh | MND = 6
 OpenBabel04212202053D

 49 49  0  0  1  0  0  0  0  0999 V2000
    5.6770    1.2847    3.0775 Rh  0  0  0  0  0  0  0  0  0  0  0  0
    5.7871    2.8578    1.4294 P   0  0  2  0  0  0  0  0  0  0  0  0
    5.4527    3.0716    4.4399 Cl  0  0  0  0  0 15  0  0  0  0  0  0
    7.6506    4.9123    1.5304 N   0  0  2  0  0  0  0  0  0  0  0  0
    8.0772    3.1755   -0.1206 N   0  0  1  0  0  0  0  0  0  0  0  0
    8.2872    2.7221    2.1984 N   0  0  0  0  0  0  0  0  0  0  0  0
    6.2386    4.6513    1.6837 C   0  0  0  0  0  0  0  0  0  0  0  0
    5.6943    5.2496    0.9446 H   0  0  0  0  0  0  0  0  0  0  0  0
    5.9267    4.9567    2.6860 H   0  0  0  0  0  0  0  0  0  0  0  0
    6.7195    2.6759   -0.1876 C   0  0  0  0  0  0  0  0  0  0  0  0
    6.7526    1.6249   -0.4918 H   0  0  0  0  0  0  0  0  0  0  0  0
    6.1886    3.2391   -0.9623 H   0  0  0  0  0  0  0  0  0  0  0  0
    8.1113    4.5972    0.1909 C   0  0  0  0  0  0  0  0  0  0  0  0
    9.1487    4.9359    0.0976 H   0  0  0  0  0  0  0  0  0  0  0  0
    7.4985    5.1360   -0.5356 H   0  0  0  0  0  0  0  0  0  0  0  0
    8.4049    4.1479    2.4913 C   0  0  0  0  0  0  0  0  0  0  0  0
    7.9979    4.3336    3.4879 H   0  0  0  0  0  0  0  0  0  0  0  0
    9.4582    4.4788    2.4548 H   0  0  0  0  0  0  0  0  0  0  0  0
    8.8445    2.4687    0.8773 C   0  0  0  0  0  0  0  0  0  0  0  0
    9.8947    2.8044    0.8044 H   0  0  0  0  0  0  0  0  0  0  0  0
    8.8026    1.3962    0.6654 H   0  0  0  0  0  0  0  0  0  0  0  0
    8.8863    1.9107    3.2395 C   0  0  0  0  0  0  0  0  0  0  0  0
    9.9460    2.1638    3.3910 H   0  0  0  0  0  0  0  0  0  0  0  0
    8.8125    0.8590    2.9658 H   0  0  0  0  0  0  0  0  0  0  0  0
    8.3424    2.0825    4.1698 H   0  0  0  0  0  0  0  0  0  0  0  0
    4.0718    3.1305    0.7964 C   0  0  0  0  0  0  0  0  0  0  0  0
    3.4673    3.4673    1.6395 H   0  0  0  0  0  0  0  0  0  0  0  0
    3.6512    2.1976    0.4245 H   0  0  0  0  0  0  0  0  0  0  0  0
    4.0402    3.8813    0.0065 H   0  0  0  0  0  0  0  0  0  0  0  0
    5.0640   -0.2109    1.7127 C   0  0  1  0  0  0  0  0  0  0  0  0
    4.8810    0.1953    0.7165 H   0  0  0  0  0  0  0  0  0  0  0  0
    6.3958   -0.4424    2.0641 C   0  0  0  0  0  3  0  0  0  0  0  0
    7.1448   -0.1535    1.3276 H   0  0  0  0  0  0  0  0  0  0  0  0
    6.8341   -1.5658    2.9829 C   0  0  0  0  0  0  0  0  0  0  0  0
    7.8218   -1.9150    2.6725 H   0  0  0  0  0  0  0  0  0  0  0  0
    6.1480   -2.4062    2.8622 H   0  0  0  0  0  0  0  0  0  0  0  0
    6.9003   -1.1357    4.4618 C   0  0  0  0  0  0  0  0  0  0  0  0
    6.6680   -1.9877    5.1107 H   0  0  0  0  0  0  0  0  0  0  0  0
    7.9184   -0.8197    4.7005 H   0  0  0  0  0  0  0  0  0  0  0  0
    5.9619    0.0034    4.7879 C   0  0  0  0  0  3  0  0  0  0  0  0
    6.2947    0.6333    5.6132 H   0  0  0  0  0  0  0  0  0  0  0  0
    4.6146    0.0102    4.4737 C   0  0  0  0  0  3  0  0  0  0  0  0
    3.9633    0.6787    5.0360 H   0  0  0  0  0  0  0  0  0  0  0  0
    3.9168   -1.1432    3.7895 C   0  0  0  0  0  0  0  0  0  0  0  0
    2.8931   -1.2131    4.1628 H   0  0  0  0  0  0  0  0  0  0  0  0
    4.4220   -2.0733    4.0533 H   0  0  0  0  0  0  0  0  0  0  0  0
    3.8763   -0.9686    2.2606 C   0  0  0  0  0  0  0  0  0  0  0  0
    3.8111   -1.9469    1.7701 H   0  0  0  0  0  0  0  0  0  0  0  0
    2.9732   -0.4132    1.9924 H   0  0  0  0  0  0  0  0  0  0  0  0
  2 26  1  6  0  0  0
  2  7  1  0  0  0  0
  4 13  1  6  0  0  0
  4  7  1  0  0  0  0
  4 16  1  0  0  0  0
  5 10  1  1  0  0  0
  5 13  1  0  0  0  0
  5 19  1  0  0  0  0
  6 16  1  0  0  0  0
  6 22  1  0  0  0  0
  7  9  1  0  0  0  0
  8  7  1  0  0  0  0
 10  2  1  0  0  0  0
 11 10  1  0  0  0  0
 12 10  1  0  0  0  0
 14 13  1  0  0  0  0
 15 13  1  0  0  0  0
 16 17  1  0  0  0  0
 18 16  1  0  0  0  0
 19  6  1  0  0  0  0
 20 19  1  0  0  0  0
 21 19  1  0  0  0  0
 22 23  1  0  0  0  0
 22 25  1  0  0  0  0
 24 22  1  0  0  0  0
 26 27  1  0  0  0  0
 28 26  1  0  0  0  0
 29 26  1  0  0  0  0
 30 31  1  6  0  0  0
 30 32  1  0  0  0  0
 30 47  1  0  0  0  0
 30  1  1  0  0  0  0
 32 34  1  0  0  0  0
 33 32  1  0  0  0  0
 34 37  1  0  0  0  0
 35 34  1  0  0  0  0
 36 34  1  0  0  0  0
 37 39  1  0  0  0  0
 37 40  1  0  0  0  0
 37 38  1  0  0  0  0
 40 41  1  0  0  0  0
 42 40  1  0  0  0  0
 42 43  1  0  0  0  0
 44 46  1  0  0  0  0
 44 45  1  0  0  0  0
 44 42  1  0  0  0  0
 47 44  1  0  0  0  0
 48 47  1  0  0  0  0
 49 47  1  0  0  0  0
M  END
$$$$
