CSD_code = JEGKEM | q = 0 | S = 0 | Stoichiometry = C20H30ClN3PRh | MND = 6
 OpenBabel04212202053D

 56 57  0  0  1  0  0  0  0  0999 V2000
    2.3255    7.6840    4.2381 Rh  0  0  0  0  0  0  0  0  0  0  0  0
    3.5539    6.1156    5.3299 Cl  0  0  0  0  0 15  0  0  0  0  0  0
    4.1261    9.0482    4.5879 P   0  0  1  0  0  0  0  0  0  0  0  0
    5.4852    8.7650    5.8417 C   0  0  0  0  0  0  0  0  0  0  0  0
    5.6047    7.6872    5.9836 H   0  0  0  0  0  0  0  0  0  0  0  0
    6.4169    9.1744    5.4367 H   0  0  0  0  0  0  0  0  0  0  0  0
    4.0150   10.9026    4.8619 C   0  0  0  0  0  0  0  0  0  0  0  0
    4.8948   11.3908    4.4360 H   0  0  0  0  0  0  0  0  0  0  0  0
    3.1307   11.2958    4.3502 H   0  0  0  0  0  0  0  0  0  0  0  0
    5.1105   10.8276    7.0005 C   0  0  0  0  0  0  0  0  0  0  0  0
    6.0074   11.2162    6.5125 H   0  0  0  0  0  0  0  0  0  0  0  0
    5.0476   11.2483    8.0097 H   0  0  0  0  0  0  0  0  0  0  0  0
    4.0046    8.8527    7.6849 C   0  0  0  0  0  0  0  0  0  0  0  0
    3.9092    9.2245    8.7206 H   0  0  0  0  0  0  0  0  0  0  0  0
    4.0666    7.7622    7.6917 H   0  0  0  0  0  0  0  0  0  0  0  0
    2.7628   10.7014    6.8805 C   0  0  0  0  0  0  0  0  0  0  0  0
    1.8772   11.0117    6.3181 H   0  0  0  0  0  0  0  0  0  0  0  0
    2.6889   11.1014    7.9078 H   0  0  0  0  0  0  0  0  0  0  0  0
    1.6394    8.5966    7.3078 C   0  0  0  0  0  0  0  0  0  0  0  0
    1.4167    8.8197    8.3615 H   0  0  0  0  0  0  0  0  0  0  0  0
    1.7597    7.5192    7.1898 H   0  0  0  0  0  0  0  0  0  0  0  0
    0.8083    8.9387    6.6923 H   0  0  0  0  0  0  0  0  0  0  0  0
    5.1710    8.9268    3.0787 C   0  0  0  0  0  0  0  0  0  0  0  0
    6.2415    9.7628    2.7742 C   0  0  0  0  0  0  0  0  0  0  0  0
    6.5090   10.5818    3.4283 H   0  0  0  0  0  0  0  0  0  0  0  0
    6.9879    9.5582    1.6277 C   0  0  0  0  0  0  0  0  0  0  0  0
    7.8126   10.2191    1.4013 H   0  0  0  0  0  0  0  0  0  0  0  0
    6.6871    8.5103    0.7737 C   0  0  0  0  0  0  0  0  0  0  0  0
    7.2739    8.3555   -0.1197 H   0  0  0  0  0  0  0  0  0  0  0  0
    5.6378    7.6588    1.0762 C   0  0  0  0  0  0  0  0  0  0  0  0
    5.4069    6.8306    0.4218 H   0  0  0  0  0  0  0  0  0  0  0  0
    4.8890    7.8682    2.2189 C   0  0  0  0  0  0  0  0  0  0  0  0
    4.0711    7.1944    2.4727 H   0  0  0  0  0  0  0  0  0  0  0  0
    1.6498    8.8947    2.6367 C   0  0  2  0  0  0  0  0  0  0  0  0
    2.3928    9.6506    2.3732 H   0  0  0  0  0  0  0  0  0  0  0  0
    0.8499    9.1376    3.7546 C   0  0  0  0  0  3  0  0  0  0  0  0
    1.0479   10.0547    4.3079 H   0  0  0  0  0  0  0  0  0  0  0  0
   -0.5777    8.6406    3.8724 C   0  0  0  0  0  0  0  0  0  0  0  0
   -1.0178    8.5992    2.8742 H   0  0  0  0  0  0  0  0  0  0  0  0
   -1.1608    9.3637    4.4476 H   0  0  0  0  0  0  0  0  0  0  0  0
   -0.6759    7.2632    4.5574 C   0  0  0  0  0  0  0  0  0  0  0  0
   -0.8600    7.4019    5.6251 H   0  0  0  0  0  0  0  0  0  0  0  0
   -1.5292    6.7052    4.1552 H   0  0  0  0  0  0  0  0  0  0  0  0
    0.5754    6.4315    4.3952 C   0  0  0  0  0  3  0  0  0  0  0  0
    0.7497    5.7248    5.2063 H   0  0  0  0  0  0  0  0  0  0  0  0
    1.1836    6.1799    3.1781 C   0  0  0  0  0  3  0  0  0  0  0  0
    1.8361    5.3094    3.1089 H   0  0  0  0  0  0  0  0  0  0  0  0
    0.6392    6.6839    1.8595 C   0  0  0  0  0  0  0  0  0  0  0  0
   -0.4479    6.7502    1.9302 H   0  0  0  0  0  0  0  0  0  0  0  0
    0.8682    5.9558    1.0788 H   0  0  0  0  0  0  0  0  0  0  0  0
    1.2325    8.0480    1.4558 C   0  0  0  0  0  0  0  0  0  0  0  0
    2.1143    7.8857    0.8312 H   0  0  0  0  0  0  0  0  0  0  0  0
    0.5092    8.6067    0.8504 H   0  0  0  0  0  0  0  0  0  0  0  0
    2.8584    9.2493    6.8714 N   0  0  0  0  0  0  0  0  0  0  0  0
    3.9367   11.2680    6.2604 N   0  0  2  0  0  0  0  0  0  0  0  0
    5.2179    9.3850    7.1162 N   0  0  1  0  0  0  0  0  0  0  0  0
  3 23  1  6  0  0  0
  3  7  1  0  0  0  0
  3  4  1  0  0  0  0
  4  5  1  0  0  0  0
  6  4  1  0  0  0  0
  8  7  1  0  0  0  0
  9  7  1  0  0  0  0
 10 56  1  0  0  0  0
 10 12  1  0  0  0  0
 11 10  1  0  0  0  0
 13 15  1  0  0  0  0
 13 14  1  0  0  0  0
 16 18  1  0  0  0  0
 17 16  1  0  0  0  0
 19 20  1  0  0  0  0
 21 19  1  0  0  0  0
 22 19  1  0  0  0  0
 24 23  1  0  0  0  0
 24 25  1  0  0  0  0
 26 24  2  0  0  0  0
 27 26  1  0  0  0  0
 28 30  2  0  0  0  0
 28 26  1  0  0  0  0
 29 28  1  0  0  0  0
 30 32  1  0  0  0  0
 31 30  1  0  0  0  0
 32 33  1  0  0  0  0
 32 23  2  0  0  0  0
 34 35  1  6  0  0  0
 34 36  1  0  0  0  0
 34  1  1  0  0  0  0
 36 38  1  0  0  0  0
 36 37  1  0  0  0  0
 38 40  1  0  0  0  0
 38 41  1  0  0  0  0
 39 38  1  0  0  0  0
 41 42  1  0  0  0  0
 43 41  1  0  0  0  0
 44 41  1  0  0  0  0
 44 45  1  0  0  0  0
 46 44  1  0  0  0  0
 47 46  1  0  0  0  0
 48 49  1  0  0  0  0
 48 46  1  0  0  0  0
 50 48  1  0  0  0  0
 51 48  1  0  0  0  0
 51 34  1  0  0  0  0
 52 51  1  0  0  0  0
 53 51  1  0  0  0  0
 54 16  1  0  0  0  0
 54 19  1  0  0  0  0
 54 13  1  0  0  0  0
 55  7  1  6  0  0  0
 55 16  1  0  0  0  0
 55 10  1  0  0  0  0
 56  4  1  6  0  0  0
 56 13  1  0  0  0  0
M  END
$$$$
