CSD_code = JEGNIS | q = 0 | S = 0 | Stoichiometry = C10H19ClCuNS | MND = 4
 OpenBabel04212202053D

 33 31  0  0  0  0  0  0  0  0999 V2000
    0.8093    9.4651    1.5549 Cu  0  0  0  0  0  0  0  0  0  0  0  0
   -2.2747   11.2768    4.5926 S   0  0  0  0  0  0  0  0  0  0  0  0
    1.8466    7.5431    1.6106 Cl  0  0  0  0  0 15  0  0  0  0  0  0
    1.3649    9.8167   -0.3570 N   0  0  0  0  0  0  0  0  0  0  0  0
    0.6200    9.8330   -1.0452 H   0  0  0  0  0  0  0  0  0  0  0  0
    1.8936    8.9506   -0.4641 H   0  0  0  0  0  0  0  0  0  0  0  0
    1.9876   10.6025   -0.5099 H   0  0  0  0  0  0  0  0  0  0  0  0
   -0.0798    9.8710    3.2139 C   0  0  0  0  0  0  0  0  0  0  0  0
   -0.2824   10.8095    2.4179 C   0  0  0  0  0  3  0  0  0  0  0  0
   -0.9734   12.0954    2.2045 C   0  0  0  0  0  0  0  0  0  0  0  0
   -2.2058   11.8732    1.3247 C   0  0  0  0  0  0  0  0  0  0  0  0
   -2.7204   12.8168    1.1570 H   0  0  0  0  0  0  0  0  0  0  0  0
   -2.8907   11.1847    1.8141 H   0  0  0  0  0  0  0  0  0  0  0  0
   -1.9169   11.4534    0.3641 H   0  0  0  0  0  0  0  0  0  0  0  0
   -0.0476   13.1409    1.5799 C   0  0  0  0  0  0  0  0  0  0  0  0
   -0.5522   14.1030    1.5217 H   0  0  0  0  0  0  0  0  0  0  0  0
    0.2347   12.8338    0.5756 H   0  0  0  0  0  0  0  0  0  0  0  0
    0.8570   13.2571    2.1731 H   0  0  0  0  0  0  0  0  0  0  0  0
   -1.3988   12.5511    3.6133 C   0  0  0  0  0  0  0  0  0  0  0  0
   -2.1023   13.3808    3.5455 H   0  0  0  0  0  0  0  0  0  0  0  0
   -0.5321   12.8615    4.1968 H   0  0  0  0  0  0  0  0  0  0  0  0
   -0.9219   10.3350    5.3881 C   0  0  0  0  0  0  0  0  0  0  0  0
   -0.1633   11.0602    5.6836 H   0  0  0  0  0  0  0  0  0  0  0  0
   -1.3739    9.9048    6.2815 H   0  0  0  0  0  0  0  0  0  0  0  0
   -0.3111    9.2245    4.5130 C   0  0  0  0  0  0  0  0  0  0  0  0
   -1.2978    8.0693    4.3293 C   0  0  0  0  0  0  0  0  0  0  0  0
   -1.4785    7.5768    5.2822 H   0  0  0  0  0  0  0  0  0  0  0  0
   -0.8893    7.3438    3.6300 H   0  0  0  0  0  0  0  0  0  0  0  0
   -2.2440    8.4405    3.9403 H   0  0  0  0  0  0  0  0  0  0  0  0
    0.9943    8.7193    5.1283 C   0  0  0  0  0  0  0  0  0  0  0  0
    0.8030    8.2531    6.0922 H   0  0  0  0  0  0  0  0  0  0  0  0
    1.6998    9.5368    5.2667 H   0  0  0  0  0  0  0  0  0  0  0  0
    1.4462    7.9857    4.4645 H   0  0  0  0  0  0  0  0  0  0  0  0
  1  8  1  0  0  0  0
  2 22  1  0  0  0  0
  5  4  1  0  0  0  0
  6  4  1  0  0  0  0
  7  4  1  0  0  0  0
  8 25  1  0  0  0  0
  9  8  2  0  0  0  0
 10  9  1  0  0  0  0
 10 19  1  0  0  0  0
 11 13  1  0  0  0  0
 11 10  1  0  0  0  0
 12 11  1  0  0  0  0
 14 11  1  0  0  0  0
 15 18  1  0  0  0  0
 15 10  1  0  0  0  0
 16 15  1  0  0  0  0
 17 15  1  0  0  0  0
 19 21  1  0  0  0  0
 19  2  1  0  0  0  0
 20 19  1  0  0  0  0
 22 23  1  0  0  0  0
 22 24  1  0  0  0  0
 25 30  1  0  0  0  0
 25 22  1  0  0  0  0
 26 25  1  0  0  0  0
 26 27  1  0  0  0  0
 28 26  1  0  0  0  0
 29 26  1  0  0  0  0
 30 32  1  0  0  0  0
 30 31  1  0  0  0  0
 33 30  1  0  0  0  0
M  END
$$$$
