CSD_code = JEGYOJ | q = 0 | S = 0 | Stoichiometry = C28H23Cl3N2PTc | MND = 6
 OpenBabel04212202053D

 58 63  0  0  1  0  0  0  0  0999 V2000
    1.7084    3.2144    0.2650 Tc  0  0  0  0  0  0  0  0  0  0  0  0
    3.8776    3.2257    0.9815 Cl  0  0  0  0  0  0  0  0  0  0  0  0
    0.8929    3.6123    2.4351 Cl  0  0  0  0  0  0  0  0  0  0  0  0
    1.3837    0.9783    0.5844 Cl  0  0  0  0  0  0  0  0  0  0  0  0
    2.6716    2.8637   -1.9332 P   0  0  0  0  0  4  0  0  0  0  0  0
   -0.1549    3.5204   -0.4803 N   0  0  0  0  0  0  0  0  0  0  0  0
    1.6773    5.2292   -0.0192 N   0  0  0  0  0  0  0  0  0  0  0  0
   -1.0935    2.5746   -0.6492 C   0  0  0  0  0  3  0  0  0  0  0  0
   -2.3361    2.8201   -1.1809 C   0  0  0  0  0  0  0  0  0  0  0  0
   -2.6674    4.1175   -1.5687 C   0  0  0  0  0  0  0  0  0  0  0  0
   -1.7323    5.1081   -1.3707 C   0  0  0  0  0  0  0  0  0  0  0  0
   -0.4905    4.7959   -0.8124 C   0  0  0  0  0  0  0  0  0  0  0  0
    0.5379    5.7674   -0.5236 C   0  0  1  0  0  3  0  0  0  0  0  0
    0.3958    7.1441   -0.7136 C   0  0  0  0  0  0  0  0  0  0  0  0
    1.4254    7.9930   -0.3773 C   0  0  0  0  0  0  0  0  0  0  0  0
    2.5864    7.4354    0.1537 C   0  0  0  0  0  0  0  0  0  0  0  0
    2.6634    6.0726    0.3151 C   0  0  0  0  0  0  0  0  0  0  0  0
    1.6198    2.2038   -3.2686 C   0  0  0  0  0  0  0  0  0  0  0  0
    1.6437    2.6647   -4.5801 C   0  0  0  0  0  0  0  0  0  0  0  0
    0.8372    2.0696   -5.5341 C   0  0  0  0  0  0  0  0  0  0  0  0
    0.0139    1.0097   -5.1917 C   0  0  0  0  0  0  0  0  0  0  0  0
    0.0080    0.5305   -3.8916 C   0  0  0  0  0  0  0  0  0  0  0  0
    0.8103    1.1214   -2.9332 C   0  0  0  0  0  0  0  0  0  0  0  0
    3.2283    4.4868   -2.5256 C   0  0  0  0  0  0  0  0  0  0  0  0
    2.3109    5.3777   -3.0795 C   0  0  0  0  0  0  0  0  0  0  0  0
    2.6922    6.6730   -3.3759 C   0  0  0  0  0  0  0  0  0  0  0  0
    3.9833    7.0965   -3.1047 C   0  0  0  0  0  0  0  0  0  0  0  0
    4.8905    6.2242   -2.5256 C   0  0  0  0  0  0  0  0  0  0  0  0
    4.5149    4.9270   -2.2276 C   0  0  0  0  0  0  0  0  0  0  0  0
    4.1231    1.7926   -2.1783 C   0  0  0  0  0  0  0  0  0  0  0  0
    4.4081    0.7847   -1.2658 C   0  0  0  0  0  0  0  0  0  0  0  0
    5.4867   -0.0557   -1.4816 C   0  0  0  0  0  0  0  0  0  0  0  0
    6.2755    0.0997   -2.6085 C   0  0  0  0  0  0  0  0  0  0  0  0
    5.9813    1.0929   -3.5300 C   0  0  0  0  0  0  0  0  0  0  0  0
    4.9065    1.9354   -3.3215 C   0  0  0  0  0  0  0  0  0  0  0  0
   -0.8225    1.5787   -0.3303 H   0  0  0  0  0  0  0  0  0  0  0  0
   -3.0400    2.0109   -1.2859 H   0  0  0  0  0  0  0  0  0  0  0  0
   -3.6312    4.3416   -1.9970 H   0  0  0  0  0  0  0  0  0  0  0  0
   -1.9563    6.1271   -1.6395 H   0  0  0  0  0  0  0  0  0  0  0  0
   -0.5242    7.5377   -1.1129 H   0  0  0  0  0  0  0  0  0  0  0  0
    1.3316    9.0589   -0.5115 H   0  0  0  0  0  0  0  0  0  0  0  0
    3.4188    8.0543    0.4456 H   0  0  0  0  0  0  0  0  0  0  0  0
    3.5523    5.6193    0.7296 H   0  0  0  0  0  0  0  0  0  0  0  0
    2.2891    3.4851   -4.8600 H   0  0  0  0  0  0  0  0  0  0  0  0
    0.8556    2.4333   -6.5512 H   0  0  0  0  0  0  0  0  0  0  0  0
   -0.6149    0.5523   -5.9412 H   0  0  0  0  0  0  0  0  0  0  0  0
   -0.6196   -0.3069   -3.6259 H   0  0  0  0  0  0  0  0  0  0  0  0
    0.8315    0.7436   -1.9199 H   0  0  0  0  0  0  0  0  0  0  0  0
    1.2972    5.0511   -3.2741 H   0  0  0  0  0  0  0  0  0  0  0  0
    1.9787    7.3565   -3.8128 H   0  0  0  0  0  0  0  0  0  0  0  0
    4.2780    8.1091   -3.3363 H   0  0  0  0  0  0  0  0  0  0  0  0
    5.8919    6.5582   -2.2985 H   0  0  0  0  0  0  0  0  0  0  0  0
    5.2108    4.2490   -1.7541 H   0  0  0  0  0  0  0  0  0  0  0  0
    5.7112   -0.8324   -0.7663 H   0  0  0  0  0  0  0  0  0  0  0  0
    7.1194   -0.5540   -2.7732 H   0  0  0  0  0  0  0  0  0  0  0  0
    6.5917    1.2098   -4.4137 H   0  0  0  0  0  0  0  0  0  0  0  0
    3.7892    0.6610   -0.3897 H   0  0  0  0  0  0  0  0  0  0  0  0
    4.6763    2.7099   -4.0403 H   0  0  0  0  0  0  0  0  0  0  0  0
  1  4  1  0  0  0  0
  1  2  1  0  0  0  0
  1  3  1  0  0  0  0
  5  1  1  0  0  0  0
  6  1  1  0  0  0  0
  7  1  1  0  0  0  0
  7 17  1  0  0  0  0
  8  6  1  0  0  0  0
  8 36  1  0  0  0  0
  9  8  1  0  0  0  0
 10 11  1  0  0  0  0
 10  9  2  0  0  0  0
 11 12  2  0  0  0  0
 12  6  1  0  0  0  0
 13 12  1  1  0  0  0
 13  7  1  0  0  0  0
 14 13  1  0  0  0  0
 14 15  2  0  0  0  0
 15 16  1  0  0  0  0
 16 17  2  0  0  0  0
 16 42  1  0  0  0  0
 17 43  1  0  0  0  0
 18 23  1  0  0  0  0
 18  5  1  0  0  0  0
 19 18  2  0  0  0  0
 20 21  2  0  0  0  0
 20 19  1  0  0  0  0
 21 22  1  0  0  0  0
 22 47  1  0  0  0  0
 22 23  2  0  0  0  0
 23 48  1  0  0  0  0
 24 29  1  0  0  0  0
 24  5  1  0  0  0  0
 25 24  2  0  0  0  0
 26 27  2  0  0  0  0
 26 25  1  0  0  0  0
 27 28  1  0  0  0  0
 28 52  1  0  0  0  0
 28 29  2  0  0  0  0
 29 53  1  0  0  0  0
 30  5  1  0  0  0  0
 30 31  1  0  0  0  0
 31 57  1  0  0  0  0
 32 31  2  0  0  0  0
 32 54  1  0  0  0  0
 33 32  1  0  0  0  0
 34 35  1  0  0  0  0
 34 33  2  0  0  0  0
 35 30  2  0  0  0  0
 37  9  1  0  0  0  0
 38 10  1  0  0  0  0
 39 11  1  0  0  0  0
 40 14  1  0  0  0  0
 41 15  1  0  0  0  0
 44 19  1  0  0  0  0
 45 20  1  0  0  0  0
 46 21  1  0  0  0  0
 49 25  1  0  0  0  0
 50 26  1  0  0  0  0
 51 27  1  0  0  0  0
 55 33  1  0  0  0  0
 56 34  1  0  0  0  0
 58 35  1  0  0  0  0
M  END
$$$$
