CSD_code = JEHHEK | q = 1 | S = 0 | Stoichiometry = C8H19BrN3Zn(1+) | MND = 4
 OpenBabel04212202053D

 32 34  0  0  1  0  0  0  0  0999 V2000
   -2.1745    8.2462    8.6603 Zn  0  0  2  0  0  0  0  0  0  0  0  0
   -3.3830    7.4850    6.9109 Br  0  0  0  0  0  0  0  0  0  0  0  0
   -0.3656    9.2666    8.3319 N   0  0  2  0  0  4  0  0  0  0  0  0
   -0.0032    8.9942    7.4169 H   0  0  0  0  0  0  0  0  0  0  0  0
    0.5768    8.7578    9.3394 C   0  0  0  0  0  0  0  0  0  0  0  0
    0.4212    9.3123   10.2652 H   0  0  0  0  0  0  0  0  0  0  0  0
    1.6162    8.9027    9.0284 H   0  0  0  0  0  0  0  0  0  0  0  0
    0.3257    7.2700    9.5930 C   0  0  0  0  0  0  0  0  0  0  0  0
    0.5038    6.7128    8.6690 H   0  0  0  0  0  0  0  0  0  0  0  0
    1.0251    6.9058   10.3528 H   0  0  0  0  0  0  0  0  0  0  0  0
   -1.0723    7.0492   10.0018 N   0  0  1  0  0  4  0  0  0  0  0  0
   -1.2879    6.0656    9.8457 H   0  0  0  0  0  0  0  0  0  0  0  0
   -1.3221    7.3258   11.4336 C   0  0  0  0  0  0  0  0  0  0  0  0
   -0.5817    8.0464   11.7857 H   0  0  0  0  0  0  0  0  0  0  0  0
   -1.1910    6.4092   12.0163 H   0  0  0  0  0  0  0  0  0  0  0  0
   -2.7219    7.8892   11.6922 C   0  0  0  0  0  0  0  0  0  0  0  0
   -3.4648    7.3175   11.1283 H   0  0  0  0  0  0  0  0  0  0  0  0
   -2.9430    7.7503   12.7508 H   0  0  0  0  0  0  0  0  0  0  0  0
   -2.8569    9.3810   11.3791 C   0  0  0  0  0  0  0  0  0  0  0  0
   -3.6964    9.7979   11.9455 H   0  0  0  0  0  0  0  0  0  0  0  0
   -1.9527    9.8942   11.7103 H   0  0  0  0  0  0  0  0  0  0  0  0
   -3.0500    9.6425    9.9374 N   0  0  1  0  0  4  0  0  0  0  0  0
   -4.0519    9.5366    9.7656 H   0  0  0  0  0  0  0  0  0  0  0  0
   -2.7262   11.0352    9.5544 C   0  0  0  0  0  0  0  0  0  0  0  0
   -3.1945   11.7261   10.2655 H   0  0  0  0  0  0  0  0  0  0  0  0
   -3.1621   11.2185    8.5685 H   0  0  0  0  0  0  0  0  0  0  0  0
   -1.2275   11.3350    9.4990 C   0  0  0  0  0  0  0  0  0  0  0  0
   -1.1245   12.4183    9.4204 H   0  0  0  0  0  0  0  0  0  0  0  0
   -0.7489   11.0463   10.4346 H   0  0  0  0  0  0  0  0  0  0  0  0
   -0.4747   10.7399    8.3084 C   0  0  0  0  0  0  0  0  0  0  0  0
   -0.9964   11.0136    7.3879 H   0  0  0  0  0  0  0  0  0  0  0  0
    0.5278   11.1836    8.2750 H   0  0  0  0  0  0  0  0  0  0  0  0
  1  2  1  6  0  0  0
  1 22  1  0  0  0  0
  1 11  1  0  0  0  0
  3  4  1  6  0  0  0
  3  1  1  0  0  0  0
  3  5  1  0  0  0  0
  5  8  1  0  0  0  0
  5  6  1  0  0  0  0
  7  5  1  0  0  0  0
  8 11  1  0  0  0  0
  8 10  1  0  0  0  0
  9  8  1  0  0  0  0
 11 12  1  6  0  0  0
 11 13  1  0  0  0  0
 13 16  1  0  0  0  0
 13 14  1  0  0  0  0
 13 15  1  0  0  0  0
 16 18  1  0  0  0  0
 17 16  1  0  0  0  0
 19 16  1  0  0  0  0
 19 21  1  0  0  0  0
 19 20  1  0  0  0  0
 22 23  1  6  0  0  0
 22 19  1  0  0  0  0
 24 22  1  0  0  0  0
 24 25  1  0  0  0  0
 26 24  1  0  0  0  0
 27 24  1  0  0  0  0
 27 29  1  0  0  0  0
 28 27  1  0  0  0  0
 30  3  1  0  0  0  0
 30 27  1  0  0  0  0
 31 30  1  0  0  0  0
 32 30  1  0  0  0  0
M  END
$$$$
