CSD_code = JEHQUL | q = 0 | S = 0 | Stoichiometry = C12H16ClIN2Pt | MND = 4
 OpenBabel04212202053D

 33 35  0  0  0  0  0  0  0  0999 V2000
    2.3289    2.5358    3.1134 Pt  0  0  2  0  0  0  0  0  0  0  0  0
    4.4458    2.3661    1.6977 I   0  0  0  0  0  0  0  0  0  0  0  0
    6.3068   -0.0119    6.4759 Cl  0  0  0  0  0  0  0  0  0  0  0  0
    0.7224    2.6541    4.3400 N   0  0  0  0  0  0  0  0  0  0  0  0
    1.1828    3.6011    1.3757 N   0  0  0  0  0  4  0  0  0  0  0  0
    3.1508    1.7113    4.7570 C   0  0  0  0  0  0  0  0  0  0  0  0
    2.2511    1.7407    5.8481 C   0  0  0  0  0  0  0  0  0  0  0  0
    0.9603    2.2676    5.5457 C   0  0  0  0  0  0  0  0  0  0  0  0
    0.1855    2.3158    6.3107 H   0  0  0  0  0  0  0  0  0  0  0  0
   -0.6064    3.1090    4.0241 C   0  0  0  0  0  0  0  0  0  0  0  0
   -1.1219    3.4169    4.9447 H   0  0  0  0  0  0  0  0  0  0  0  0
   -1.1692    2.2679    3.5955 H   0  0  0  0  0  0  0  0  0  0  0  0
   -0.6087    4.2646    3.0282 C   0  0  0  0  0  0  0  0  0  0  0  0
   -1.6139    4.6900    3.0033 H   0  0  0  0  0  0  0  0  0  0  0  0
    0.0722    5.0440    3.3740 H   0  0  0  0  0  0  0  0  0  0  0  0
   -0.2495    3.8054    1.6188 C   0  0  0  0  0  0  0  0  0  0  0  0
   -0.7659    2.8597    1.4258 H   0  0  0  0  0  0  0  0  0  0  0  0
   -0.6317    4.5431    0.8938 H   0  0  0  0  0  0  0  0  0  0  0  0
    1.8451    4.9045    1.2582 C   0  0  0  0  0  0  0  0  0  0  0  0
    2.8683    4.7742    0.9121 H   0  0  0  0  0  0  0  0  0  0  0  0
    1.8764    5.4096    2.2249 H   0  0  0  0  0  0  0  0  0  0  0  0
    1.3188    5.5489    0.5412 H   0  0  0  0  0  0  0  0  0  0  0  0
    1.2962    2.8957    0.0945 C   0  0  0  0  0  0  0  0  0  0  0  0
    0.9068    1.8818    0.1943 H   0  0  0  0  0  0  0  0  0  0  0  0
    2.3356    2.8337   -0.2166 H   0  0  0  0  0  0  0  0  0  0  0  0
    0.7326    3.4174   -0.6897 H   0  0  0  0  0  0  0  0  0  0  0  0
    2.6049    1.2530    7.1076 C   0  0  0  0  0  0  0  0  0  0  0  0
    1.8928    1.2959    7.9193 H   0  0  0  0  0  0  0  0  0  0  0  0
    3.8568    0.7159    7.3070 C   0  0  0  0  0  0  0  0  0  0  0  0
    4.1528    0.3317    8.2701 H   0  0  0  0  0  0  0  0  0  0  0  0
    4.7406    0.6714    6.2351 C   0  0  0  0  0  0  0  0  0  0  0  0
    4.4045    1.1594    4.9789 C   0  0  0  0  0  0  0  0  0  0  0  0
    5.1419    1.0928    4.1955 H   0  0  0  0  0  0  0  0  0  0  0  0
  1  2  1  6  0  0  0
  1  4  1  0  0  0  0
  1  6  2  0  0  0  0
  4  8  1  0  0  0  0
  5 16  1  0  0  0  0
  5  1  1  0  0  0  0
  6 32  1  0  0  0  0
  6  7  1  0  0  0  0
  7 27  1  0  0  0  0
  8  7  2  0  0  0  0
  8  9  1  0  0  0  0
 10  4  1  0  0  0  0
 10 11  1  0  0  0  0
 12 10  1  0  0  0  0
 13 15  1  0  0  0  0
 13 10  1  0  0  0  0
 14 13  1  0  0  0  0
 16 13  1  0  0  0  0
 17 16  1  0  0  0  0
 18 16  1  0  0  0  0
 19  5  1  0  0  0  0
 19 21  1  0  0  0  0
 20 19  1  0  0  0  0
 22 19  1  0  0  0  0
 23 24  1  0  0  0  0
 23  5  1  0  0  0  0
 25 23  1  0  0  0  0
 26 23  1  0  0  0  0
 27 29  2  0  0  0  0
 27 28  1  0  0  0  0
 29 30  1  0  0  0  0
 31  3  1  0  0  0  0
 31 29  1  0  0  0  0
 32 31  2  0  0  0  0
 33 32  1  0  0  0  0
M  END
$$$$
