CSD_code = JEHRAS | q = 0 | S = 0 | Stoichiometry = C13H19ClI2N2Pt | MND = 6
 OpenBabel04212202053D

 38 40  0  0  1  0  0  0  0  0999 V2000
    3.2556   12.9068    4.2379 Pt  0  0  0  0  0  0  0  0  0  0  0  0
    1.3947   12.6306    6.1263 I   0  0  0  0  0  0  0  0  0  0  0  0
    4.8827   12.9282    2.1267 I   0  0  0  0  0  0  0  0  0  0  0  0
   -0.9741   12.7871    0.3314 Cl  0  0  0  0  0  0  0  0  0  0  0  0
    3.7671   10.7717    4.4802 N   0  0  2  0  0  0  0  0  0  0  0  0
    5.0130   13.5405    5.7723 N   0  0  0  0  0  4  0  0  0  0  0  0
    1.9016   12.0892    2.9717 C   0  0  0  0  0  0  0  0  0  0  0  0
    1.0109   12.7346    2.1411 C   0  0  0  0  0  0  0  0  0  0  0  0
    0.9762   13.8105    2.0639 H   0  0  0  0  0  0  0  0  0  0  0  0
    0.1379   11.9786    1.3666 C   0  0  0  0  0  0  0  0  0  0  0  0
    0.1455   10.5892    1.4097 C   0  0  0  0  0  0  0  0  0  0  0  0
   -0.5467   10.0279    0.8031 H   0  0  0  0  0  0  0  0  0  0  0  0
    1.0512    9.9478    2.2245 C   0  0  0  0  0  0  0  0  0  0  0  0
    1.0826    8.8689    2.2621 H   0  0  0  0  0  0  0  0  0  0  0  0
    1.9429   10.6860    3.0076 C   0  0  0  0  0  0  0  0  0  0  0  0
    2.9413   10.0527    3.8273 C   0  0  0  0  0  3  0  0  0  0  0  0
    2.9895    8.9623    3.8525 H   0  0  0  0  0  0  0  0  0  0  0  0
    4.8253   10.1805    5.2449 C   0  0  0  0  0  0  0  0  0  0  0  0
    5.6880   10.0394    4.5790 H   0  0  0  0  0  0  0  0  0  0  0  0
    4.5263    9.1916    5.6201 H   0  0  0  0  0  0  0  0  0  0  0  0
    5.2325   11.0801    6.4114 C   0  0  0  0  0  0  0  0  0  0  0  0
    4.3532   11.2796    7.0256 H   0  0  0  0  0  0  0  0  0  0  0  0
    5.9393   10.5217    7.0277 H   0  0  0  0  0  0  0  0  0  0  0  0
    5.9076   12.3838    5.9686 C   0  0  0  0  0  0  0  0  0  0  0  0
    6.6628   12.6607    6.7211 H   0  0  0  0  0  0  0  0  0  0  0  0
    6.4371   12.2041    5.0276 H   0  0  0  0  0  0  0  0  0  0  0  0
    4.5306   14.0020    7.0777 C   0  0  0  0  0  0  0  0  0  0  0  0
    3.8663   14.8556    6.9516 H   0  0  0  0  0  0  0  0  0  0  0  0
    5.3726   14.3085    7.7114 H   0  0  0  0  0  0  0  0  0  0  0  0
    3.9799   13.2244    7.5997 H   0  0  0  0  0  0  0  0  0  0  0  0
    5.8302   14.6285    5.2195 C   0  0  0  0  0  0  0  0  0  0  0  0
    6.2599   14.3461    4.2613 H   0  0  0  0  0  0  0  0  0  0  0  0
    6.6521   14.8772    5.9031 H   0  0  0  0  0  0  0  0  0  0  0  0
    5.2227   15.5200    5.0769 H   0  0  0  0  0  0  0  0  0  0  0  0
    2.6834   14.8873    3.9989 C   0  0  0  0  0  0  0  0  0  0  0  0
    3.1695   15.3502    3.1388 H   0  0  0  0  0  0  0  0  0  0  0  0
    2.9493   15.4482    4.8986 H   0  0  0  0  0  0  0  0  0  0  0  0
    1.6024   14.9698    3.8760 H   0  0  0  0  0  0  0  0  0  0  0  0
  1  5  1  0  0  0  0
  1  6  1  0  0  0  0
  1  2  1  0  0  0  0
  3  1  1  0  0  0  0
  4 10  1  0  0  0  0
  5 16  1  1  0  0  0
  5 18  1  0  0  0  0
  6 24  1  0  0  0  0
  6 27  1  0  0  0  0
  7 15  1  0  0  0  0
  7  1  1  0  0  0  0
  8  7  2  0  0  0  0
  9  8  1  0  0  0  0
 10 11  2  0  0  0  0
 10  8  1  0  0  0  0
 11 13  1  0  0  0  0
 12 11  1  0  0  0  0
 13 14  1  0  0  0  0
 13 15  2  0  0  0  0
 15 16  1  0  0  0  0
 16 17  1  0  0  0  0
 18 20  1  0  0  0  0
 18 21  1  0  0  0  0
 19 18  1  0  0  0  0
 21 22  1  0  0  0  0
 21 23  1  0  0  0  0
 24 21  1  0  0  0  0
 24 25  1  0  0  0  0
 26 24  1  0  0  0  0
 27 30  1  0  0  0  0
 27 29  1  0  0  0  0
 28 27  1  0  0  0  0
 31  6  1  0  0  0  0
 31 33  1  0  0  0  0
 32 31  1  0  0  0  0
 34 31  1  0  0  0  0
 35  1  1  0  0  0  0
 35 37  1  0  0  0  0
 36 35  1  0  0  0  0
 38 35  1  0  0  0  0
M  END
$$$$
