CSD_code = JEHREW | q = 0 | S = 0 | Stoichiometry = C12H16Cl2I2N2Pt | MND = 6
 OpenBabel04212202053D

 35 37  0  0  1  0  0  0  0  0999 V2000
    4.5719    2.5450    4.3025 Pt  0  0  0  0  0  0  0  0  0  0  0  0
    6.0164    1.3600    6.2094 I   0  0  0  0  0  0  0  0  0  0  0  0
    3.9801    0.3293    3.0089 I   0  0  0  0  0  0  0  0  0  0  0  0
    3.5655    3.8801    2.6204 Cl  0  0  0  0  0  0  0  0  0  0  0  0
    8.9721    1.6684    0.6533 Cl  0  0  0  0  0  0  0  0  0  0  0  0
    5.0475    4.3591    5.1705 N   0  0  1  0  0  0  0  0  0  0  0  0
    2.5043    2.3332    5.5296 N   0  0  0  0  0  4  0  0  0  0  0  0
    6.3025    2.9213    3.2934 C   0  0  0  0  0  0  0  0  0  0  0  0
    6.9811    2.1360    2.3899 C   0  0  0  0  0  0  0  0  0  0  0  0
    6.6643    1.1364    2.1357 H   0  0  0  0  0  0  0  0  0  0  0  0
    8.1253    2.6471    1.7796 C   0  0  0  0  0  0  0  0  0  0  0  0
    8.5932    3.9272    2.0619 C   0  0  0  0  0  0  0  0  0  0  0  0
    9.4773    4.2956    1.5670 H   0  0  0  0  0  0  0  0  0  0  0  0
    7.9217    4.7031    2.9786 C   0  0  0  0  0  0  0  0  0  0  0  0
    8.2729    5.6951    3.2204 H   0  0  0  0  0  0  0  0  0  0  0  0
    6.7759    4.2056    3.6080 C   0  0  0  0  0  0  0  0  0  0  0  0
    6.0529    4.9204    4.6119 C   0  0  0  0  0  3  0  0  0  0  0  0
    6.3792    5.9127    4.9196 H   0  0  0  0  0  0  0  0  0  0  0  0
    4.3473    4.9925    6.2492 C   0  0  0  0  0  0  0  0  0  0  0  0
    4.5569    6.0700    6.2391 H   0  0  0  0  0  0  0  0  0  0  0  0
    4.7331    4.5814    7.1926 H   0  0  0  0  0  0  0  0  0  0  0  0
    2.8386    4.7596    6.1762 C   0  0  0  0  0  0  0  0  0  0  0  0
    2.3615    5.4660    6.8576 H   0  0  0  0  0  0  0  0  0  0  0  0
    2.4905    4.9850    5.1668 H   0  0  0  0  0  0  0  0  0  0  0  0
    2.4337    3.3460    6.5936 C   0  0  0  0  0  0  0  0  0  0  0  0
    3.0830    3.0228    7.4142 H   0  0  0  0  0  0  0  0  0  0  0  0
    1.4036    3.3734    6.9814 H   0  0  0  0  0  0  0  0  0  0  0  0
    2.3313    1.0232    6.1733 C   0  0  0  0  0  0  0  0  0  0  0  0
    2.3116    0.2325    5.4267 H   0  0  0  0  0  0  0  0  0  0  0  0
    1.3864    0.9941    6.7286 H   0  0  0  0  0  0  0  0  0  0  0  0
    3.1451    0.8215    6.8676 H   0  0  0  0  0  0  0  0  0  0  0  0
    1.3765    2.5128    4.6081 C   0  0  0  0  0  0  0  0  0  0  0  0
    1.4329    3.4721    4.0995 H   0  0  0  0  0  0  0  0  0  0  0  0
    0.4254    2.4572    5.1520 H   0  0  0  0  0  0  0  0  0  0  0  0
    1.3869    1.7306    3.8512 H   0  0  0  0  0  0  0  0  0  0  0  0
  1  6  1  0  0  0  0
  1  7  1  0  0  0  0
  1  2  1  0  0  0  0
  3  1  1  0  0  0  0
  4  1  1  0  0  0  0
  5 11  1  0  0  0  0
  6 17  1  6  0  0  0
  6 19  1  0  0  0  0
  7 28  1  0  0  0  0
  7 25  1  0  0  0  0
  8 16  1  0  0  0  0
  8  1  1  0  0  0  0
  9  8  2  0  0  0  0
 10  9  1  0  0  0  0
 11 12  2  0  0  0  0
 11  9  1  0  0  0  0
 12 14  1  0  0  0  0
 13 12  1  0  0  0  0
 14 15  1  0  0  0  0
 14 16  2  0  0  0  0
 16 17  1  0  0  0  0
 17 18  1  0  0  0  0
 19 21  1  0  0  0  0
 20 19  1  0  0  0  0
 22 19  1  0  0  0  0
 22 25  1  0  0  0  0
 22 23  1  0  0  0  0
 24 22  1  0  0  0  0
 25 27  1  0  0  0  0
 25 26  1  0  0  0  0
 28 30  1  0  0  0  0
 28 31  1  0  0  0  0
 29 28  1  0  0  0  0
 32 34  1  0  0  0  0
 32  7  1  0  0  0  0
 33 32  1  0  0  0  0
 35 32  1  0  0  0  0
M  END
$$$$
