CSD_code = JEJCOR | q = 0 | S = 0 | Stoichiometry = C18H21IN2OPd | MND = 4
 OpenBabel04212202053D

 44 47  0  0  1  0  0  0  0  0999 V2000
    0.7339    3.7192    1.1051 Pd  0  0  2  0  0  0  0  0  0  0  0  0
    3.0251    2.7095    0.7264 I   0  0  0  0  0  0  0  0  0  0  0  0
    0.8737    4.1023    3.3824 O   0  0  0  0  0  0  0  0  0  0  0  0
   -1.1738    4.6453    1.6087 N   0  0  1  0  0  4  0  0  0  0  0  0
   -0.2111    4.9925    5.1260 N   0  0  0  0  0  0  0  0  0  0  0  0
    0.0528    3.8648   -0.7441 C   0  0  0  0  0  0  0  0  0  0  0  0
    0.4359    3.1742   -1.8831 C   0  0  0  0  0  0  0  0  0  0  0  0
    1.2767    2.4947   -1.8571 H   0  0  0  0  0  0  0  0  0  0  0  0
   -0.2459    3.3552   -3.0788 C   0  0  0  0  0  0  0  0  0  0  0  0
    0.0736    2.8172   -3.9594 H   0  0  0  0  0  0  0  0  0  0  0  0
   -1.3259    4.2157   -3.1463 C   0  0  0  0  0  0  0  0  0  0  0  0
   -1.8566    4.3556   -4.0765 H   0  0  0  0  0  0  0  0  0  0  0  0
   -1.7314    4.8973   -2.0116 C   0  0  0  0  0  0  0  0  0  0  0  0
   -2.5807    5.5669   -2.0532 H   0  0  0  0  0  0  0  0  0  0  0  0
   -1.0509    4.7288   -0.8152 C   0  0  0  0  0  0  0  0  0  0  0  0
   -1.4666    5.4761    0.4321 C   0  0  0  0  0  0  0  0  0  0  0  0
   -2.5327    5.7555    0.3995 H   0  0  0  0  0  0  0  0  0  0  0  0
   -0.8748    6.3994    0.5014 H   0  0  0  0  0  0  0  0  0  0  0  0
   -2.1384    3.5350    1.7209 C   0  0  0  0  0  0  0  0  0  0  0  0
   -2.3452    3.1677    0.7096 H   0  0  0  0  0  0  0  0  0  0  0  0
   -3.0812    3.8934    2.1658 H   0  0  0  0  0  0  0  0  0  0  0  0
   -1.5308    2.4308    2.5501 C   0  0  0  0  0  0  0  0  0  0  0  0
   -0.6178    1.5538    1.9511 C   0  0  0  0  0  0  0  0  0  0  0  0
   -0.5188    1.5153    0.8601 H   0  0  0  0  0  0  0  0  0  0  0  0
    0.0828    0.6461    2.7339 C   0  0  0  0  0  0  0  0  0  0  0  0
    0.7970   -0.0188    2.2712 H   0  0  0  0  0  0  0  0  0  0  0  0
   -0.1313    0.5955    4.1029 C   0  0  0  0  0  0  0  0  0  0  0  0
    0.4288   -0.0996    4.7098 H   0  0  0  0  0  0  0  0  0  0  0  0
   -1.0724    1.4228    4.6881 C   0  0  0  0  0  0  0  0  0  0  0  0
   -1.2624    1.3651    5.7502 H   0  0  0  0  0  0  0  0  0  0  0  0
   -1.7634    2.3428    3.9145 C   0  0  0  0  0  0  0  0  0  0  0  0
   -2.4922    2.9954    4.3786 H   0  0  0  0  0  0  0  0  0  0  0  0
   -1.0910    5.3932    2.8603 C   0  0  0  0  0  0  0  0  0  0  0  0
   -2.0792    5.4723    3.3341 H   0  0  0  0  0  0  0  0  0  0  0  0
   -0.7253    6.4072    2.6524 H   0  0  0  0  0  0  0  0  0  0  0  0
   -0.0682    4.7561    3.8107 C   0  0  1  0  0  3  0  0  0  0  0  0
   -1.2505    5.8149    5.6999 C   0  0  0  0  0  0  0  0  0  0  0  0
   -0.9825    6.0387    6.7303 H   0  0  0  0  0  0  0  0  0  0  0  0
   -2.2170    5.3014    5.7038 H   0  0  0  0  0  0  0  0  0  0  0  0
   -1.3502    6.7593    5.1638 H   0  0  0  0  0  0  0  0  0  0  0  0
    0.7030    4.3616    6.0556 C   0  0  0  0  0  0  0  0  0  0  0  0
    0.1468    3.7443    6.7629 H   0  0  0  0  0  0  0  0  0  0  0  0
    1.2717    5.1166    6.6012 H   0  0  0  0  0  0  0  0  0  0  0  0
    1.3898    3.7337    5.4916 H   0  0  0  0  0  0  0  0  0  0  0  0
  1  2  1  1  0  0  0
  1  4  1  0  0  0  0
  1  3  1  0  0  0  0
  3 36  1  0  0  0  0
  4 19  1  1  0  0  0
  4 33  1  0  0  0  0
  5 37  1  0  0  0  0
  5 41  1  0  0  0  0
  6  1  1  0  0  0  0
  7  8  1  0  0  0  0
  7  6  2  0  0  0  0
  9  7  1  0  0  0  0
 10  9  1  0  0  0  0
 11  9  2  0  0  0  0
 11 13  1  0  0  0  0
 12 11  1  0  0  0  0
 13 15  2  0  0  0  0
 14 13  1  0  0  0  0
 15  6  1  0  0  0  0
 15 16  1  0  0  0  0
 16 18  1  0  0  0  0
 16  4  1  0  0  0  0
 17 16  1  0  0  0  0
 19 21  1  0  0  0  0
 19 22  1  0  0  0  0
 20 19  1  0  0  0  0
 22 31  1  0  0  0  0
 23 22  2  0  0  0  0
 23 25  1  0  0  0  0
 24 23  1  0  0  0  0
 25 27  2  0  0  0  0
 26 25  1  0  0  0  0
 27 29  1  0  0  0  0
 27 28  1  0  0  0  0
 29 30  1  0  0  0  0
 31 32  1  0  0  0  0
 31 29  2  0  0  0  0
 33 34  1  0  0  0  0
 33 36  1  0  0  0  0
 35 33  1  0  0  0  0
 36  5  1  6  0  0  0
 37 39  1  0  0  0  0
 37 38  1  0  0  0  0
 40 37  1  0  0  0  0
 41 43  1  0  0  0  0
 41 42  1  0  0  0  0
 44 41  1  0  0  0  0
M  END
$$$$
