CSD_code = JEJDAD | q = 0 | S = 0 | Stoichiometry = C19H10F12OTi | MND = 12
 OpenBabel04212202053D

 43 44  0  0  1  0  0  0  0  0999 V2000
    3.6022    1.9280    4.0046 Ti  0  0  0  0  0  0  0  0  0  0  0  0
    4.9362    1.8350    2.8755 F   0  0  0  0  0  0  0  0  0  0  0  0
    3.7210    1.8676    0.6124 F   0  0  0  0  0  0  0  0  0  0  0  0
    2.8375    1.9090   -1.3551 F   0  0  0  0  0  0  0  0  0  0  0  0
    0.2842    0.8946   -2.0644 F   0  0  0  0  0  0  0  0  0  0  0  0
    0.3333    3.0435   -2.0296 F   0  0  0  0  0  0  0  0  0  0  0  0
   -1.5266    2.0062   -1.7525 F   0  0  0  0  0  0  0  0  0  0  0  0
   -2.7430    3.0933    0.3716 F   0  0  0  0  0  0  0  0  0  0  0  0
   -2.7957    0.9354    0.3324 F   0  0  0  0  0  0  0  0  0  0  0  0
   -2.9014    1.9836    2.1955 F   0  0  0  0  0  0  0  0  0  0  0  0
   -1.3231    0.8602    4.0317 F   0  0  0  0  0  0  0  0  0  0  0  0
   -1.2820    3.0151    4.0396 F   0  0  0  0  0  0  0  0  0  0  0  0
    0.4686    1.9029    4.5897 F   0  0  0  0  0  0  0  0  0  0  0  0
    2.2902    1.8533    2.7992 O   0  0  0  0  0  0  0  0  0  0  0  0
    1.2922    1.8898    2.0158 C   0  0  0  0  0  0  0  0  0  0  0  0
    1.3989    1.9046    0.5372 C   0  0  0  0  0  0  0  0  0  0  0  0
    0.0477    1.9427    0.0212 C   0  0  0  0  0  0  0  0  0  0  0  0
   -0.8108    1.9531    1.0918 C   0  0  0  0  0  0  0  0  0  0  0  0
   -0.0676    1.9220    2.3162 C   0  0  2  0  0  3  0  0  0  0  0  0
    2.5951    1.8934   -0.0713 C   0  0  0  0  0  3  0  0  0  0  0  0
   -0.2345    1.9714   -1.4434 C   0  0  0  0  0  0  0  0  0  0  0  0
   -2.3103    1.9911    0.9984 C   0  0  0  0  0  0  0  0  0  0  0  0
   -0.5772    1.9243    3.7106 C   0  0  0  0  0  0  0  0  0  0  0  0
    3.9394   -0.4398    3.9369 C   0  0  0  0  0  0  0  0  0  0  0  0
    2.6463   -0.2091    4.4598 C   0  0  0  0  0  0  0  0  0  0  0  0
    2.7861    0.4783    5.6803 C   0  0  0  0  0  0  0  0  0  0  0  0
    4.1681    0.6556    5.9251 C   0  0  0  0  0  0  0  0  0  0  0  0
    4.8777    0.0824    4.8506 C   0  0  0  0  0  3  0  0  0  0  0  0
    4.5030    3.5374    5.4593 C   0  0  0  0  0  0  0  0  0  0  0  0
    3.0874    3.5364    5.6019 C   0  0  1  0  0  0  0  0  0  0  0  0
    2.5352    4.0254    4.4060 C   0  0  0  0  0  0  0  0  0  0  0  0
    3.5988    4.3140    3.5163 C   0  0  0  0  0  0  0  0  0  0  0  0
    4.8075    4.0520    4.1851 C   0  0  0  0  0  0  0  0  0  0  0  0
    4.1746   -0.9949    3.0379 H   0  0  0  0  0  0  0  0  0  0  0  0
    1.7214   -0.5946    4.0499 H   0  0  0  0  0  0  0  0  0  0  0  0
    1.9884    0.6820    6.3797 H   0  0  0  0  0  0  0  0  0  0  0  0
    4.6016    0.9955    6.8567 H   0  0  0  0  0  0  0  0  0  0  0  0
    5.9532   -0.0066    4.7685 H   0  0  0  0  0  0  0  0  0  0  0  0
    5.2222    3.3808    6.2538 H   0  0  0  0  0  0  0  0  0  0  0  0
    2.5434    3.3629    6.5205 H   0  0  0  0  0  0  0  0  0  0  0  0
    1.4939    4.2634    4.2364 H   0  0  0  0  0  0  0  0  0  0  0  0
    3.5028    4.7641    2.5368 H   0  0  0  0  0  0  0  0  0  0  0  0
    5.7986    4.2335    3.7926 H   0  0  0  0  0  0  0  0  0  0  0  0
  1 30  1  0  0  0  0
  2  1  1  0  0  0  0
  4 20  1  0  0  0  0
  5 21  1  0  0  0  0
  6 21  1  0  0  0  0
  7 21  1  0  0  0  0
  8 22  1  0  0  0  0
  9 22  1  0  0  0  0
 14  1  1  0  0  0  0
 15 19  1  0  0  0  0
 15 14  1  0  0  0  0
 16 15  2  0  0  0  0
 17 16  1  0  0  0  0
 17 18  2  0  0  0  0
 18 19  1  0  0  0  0
 19 23  1  1  0  0  0
 20 16  1  0  0  0  0
 20  3  1  0  0  0  0
 21 17  1  0  0  0  0
 22 18  1  0  0  0  0
 22 10  1  0  0  0  0
 23 11  1  0  0  0  0
 23 12  1  0  0  0  0
 23 13  1  0  0  0  0
 24 25  2  0  0  0  0
 24 28  1  0  0  0  0
 25 26  1  0  0  0  0
 26 27  2  0  0  0  0
 26 36  1  0  0  0  0
 27 37  1  0  0  0  0
 28 27  1  0  0  0  0
 29 30  1  0  0  0  0
 29 39  1  0  0  0  0
 30 40  1  1  0  0  0
 31 30  1  0  0  0  0
 32 33  1  0  0  0  0
 32 31  2  0  0  0  0
 33 29  2  0  0  0  0
 34 24  1  0  0  0  0
 35 25  1  0  0  0  0
 38 28  1  0  0  0  0
 41 31  1  0  0  0  0
 42 32  1  0  0  0  0
 43 33  1  0  0  0  0
M  END
$$$$
