CSD_code = JEKQAS | q = 0 | S = 0 | Stoichiometry = C31H24IN3O2PdS | MND = 4
 OpenBabel04212202053D

 63 69  0  0  1  0  0  0  0  0999 V2000
    1.2410    6.9896    3.1508 Pd  0  0  0  0  0  0  0  0  0  0  0  0
    1.5338    5.8652    5.4144 I   0  0  0  0  0 15  0  0  0  0  0  0
   -0.7000    8.0017    1.8994 S   0  0  2  0  0  0  0  0  0  0  0  0
   -0.8635    6.9217    2.8736 O   0  0  0  0  0  0  0  0  0  0  0  0
   -1.6945    8.1252    0.8755 O   0  0  0  0  0  1  0  0  0  0  0  0
    0.7900    7.8173    1.3645 N   0  0  0  0  0  0  0  0  0  0  0  0
    3.8457    8.0574    2.4525 N   0  0  0  0  0  0  0  0  0  0  0  0
    3.8093    5.9150    2.2529 N   0  0  0  0  0  0  0  0  0  0  0  0
    3.3520    9.3549    2.7669 C   0  0  0  0  0  0  0  0  0  0  0  0
    3.6391    9.8818    4.0413 C   0  0  0  0  0  0  0  0  0  0  0  0
    4.2021    9.2775    4.7374 H   0  0  0  0  0  0  0  0  0  0  0  0
    3.2246   11.1412    4.3620 C   0  0  0  0  0  0  0  0  0  0  0  0
    3.4594   11.5650    5.3267 H   0  0  0  0  0  0  0  0  0  0  0  0
    2.4860   11.9113    3.4379 C   0  0  0  0  0  0  0  0  0  0  0  0
    2.0817   13.2284    3.7367 C   0  0  0  0  0  0  0  0  0  0  0  0
    2.3676   13.6513    4.6888 H   0  0  0  0  0  0  0  0  0  0  0  0
    1.3499   13.9569    2.8422 C   0  0  0  0  0  0  0  0  0  0  0  0
    1.0538   14.9691    3.0745 H   0  0  0  0  0  0  0  0  0  0  0  0
    0.9711   13.3898    1.6173 C   0  0  0  0  0  0  0  0  0  0  0  0
    0.3742   13.9663    0.9266 H   0  0  0  0  0  0  0  0  0  0  0  0
    1.3557   12.1189    1.2926 C   0  0  0  0  0  0  0  0  0  0  0  0
    1.0623   11.6879    0.3475 H   0  0  0  0  0  0  0  0  0  0  0  0
    2.1426   11.3539    2.1784 C   0  0  0  0  0  0  0  0  0  0  0  0
    2.6066   10.0497    1.8383 C   0  0  0  0  0  0  0  0  0  0  0  0
    2.2999    9.5101    0.4923 C   0  0  0  0  0  0  0  0  0  0  0  0
    2.9380   10.0893   -0.6360 C   0  0  0  0  0  0  0  0  0  0  0  0
    3.9782   11.0352   -0.5024 C   0  0  0  0  0  0  0  0  0  0  0  0
    4.2988   11.3269    0.4877 H   0  0  0  0  0  0  0  0  0  0  0  0
    4.5804   11.5770   -1.6037 C   0  0  0  0  0  0  0  0  0  0  0  0
    5.3754   12.2985   -1.4847 H   0  0  0  0  0  0  0  0  0  0  0  0
    4.1775   11.2020   -2.8934 C   0  0  0  0  0  0  0  0  0  0  0  0
    4.6637   11.6404   -3.7521 H   0  0  0  0  0  0  0  0  0  0  0  0
    3.1767   10.2849   -3.0562 C   0  0  0  0  0  0  0  0  0  0  0  0
    2.8605    9.9848   -4.0450 H   0  0  0  0  0  0  0  0  0  0  0  0
    2.5362    9.7072   -1.9424 C   0  0  0  0  0  0  0  0  0  0  0  0
    1.4938    8.7655   -2.0879 C   0  0  0  0  0  0  0  0  0  0  0  0
    1.1627    8.5054   -3.0830 H   0  0  0  0  0  0  0  0  0  0  0  0
    0.9270    8.1799   -0.9981 C   0  0  0  0  0  0  0  0  0  0  0  0
    0.1372    7.4499   -1.0918 H   0  0  0  0  0  0  0  0  0  0  0  0
    1.3447    8.5172    0.3115 C   0  0  0  0  0  0  0  0  0  0  0  0
    5.0304    7.6974    1.8649 C   0  0  0  0  0  0  0  0  0  0  0  0
    5.7719    8.4157    1.5830 H   0  0  0  0  0  0  0  0  0  0  0  0
    5.0066    6.3476    1.7450 C   0  0  0  0  0  0  0  0  0  0  0  0
    5.7356    5.6754    1.3418 H   0  0  0  0  0  0  0  0  0  0  0  0
    3.1073    6.9674    2.6975 C   0  0  2  0  0  3  0  0  0  0  0  0
    3.3195    4.5592    2.3040 C   0  0  0  0  0  0  0  0  0  0  0  0
    3.6676    4.0603    3.2124 H   0  0  0  0  0  0  0  0  0  0  0  0
    3.6613    4.0069    1.4297 H   0  0  0  0  0  0  0  0  0  0  0  0
    2.2139    4.5876    2.3182 H   0  0  0  0  0  0  0  0  0  0  0  0
   -0.7102    9.5206    2.8718 C   0  0  0  0  0  0  0  0  0  0  0  0
   -0.0329    9.6152    4.0773 C   0  0  0  0  0  0  0  0  0  0  0  0
    0.5642    8.7767    4.4744 H   0  0  0  0  0  0  0  0  0  0  0  0
   -0.1337   10.7753    4.8258 C   0  0  0  0  0  0  0  0  0  0  0  0
    0.3774   10.8396    5.7752 H   0  0  0  0  0  0  0  0  0  0  0  0
   -0.8979   11.8481    4.3798 C   0  0  0  0  0  0  0  0  0  0  0  0
   -1.5487   11.7430    3.1553 C   0  0  0  0  0  0  0  0  0  0  0  0
   -2.1421   12.5696    2.7934 H   0  0  0  0  0  0  0  0  0  0  0  0
   -1.4598   10.5840    2.4062 C   0  0  0  0  0  0  0  0  0  0  0  0
   -1.9787   10.4743    1.4667 H   0  0  0  0  0  0  0  0  0  0  0  0
   -1.0521   13.0762    5.2207 C   0  0  0  0  0  0  0  0  0  0  0  0
   -1.1653   13.9605    4.5987 H   0  0  0  0  0  0  0  0  0  0  0  0
   -0.1968   13.2081    5.8779 H   0  0  0  0  0  0  0  0  0  0  0  0
   -1.9439   12.9847    5.8417 H   0  0  0  0  0  0  0  0  0  0  0  0
  3  5  1  6  0  0  0
  3 50  1  0  0  0  0
  3  4  1  0  0  0  0
  4  1  1  0  0  0  0
  6  3  1  0  0  0  0
  6  1  1  0  0  0  0
  7 45  1  0  0  0  0
  7  9  1  0  0  0  0
  8 46  1  0  0  0  0
  9 10  1  0  0  0  0
 10 12  2  0  0  0  0
 10 11  1  0  0  0  0
 12 13  1  0  0  0  0
 14 15  1  0  0  0  0
 14 12  1  0  0  0  0
 15 16  1  0  0  0  0
 17 18  1  0  0  0  0
 17 15  2  0  0  0  0
 19 17  1  0  0  0  0
 20 19  1  0  0  0  0
 21 19  2  0  0  0  0
 21 23  1  0  0  0  0
 22 21  1  0  0  0  0
 23 14  2  0  0  0  0
 24 23  1  0  0  0  0
 24  9  2  0  0  0  0
 25 24  1  0  0  0  0
 26 27  1  0  0  0  0
 26 25  2  0  0  0  0
 27 28  1  0  0  0  0
 29 30  1  0  0  0  0
 29 27  2  0  0  0  0
 31 29  1  0  0  0  0
 32 31  1  0  0  0  0
 33 31  2  0  0  0  0
 33 35  1  0  0  0  0
 34 33  1  0  0  0  0
 35 26  1  0  0  0  0
 36 35  2  0  0  0  0
 36 38  1  0  0  0  0
 37 36  1  0  0  0  0
 38 40  2  0  0  0  0
 39 38  1  0  0  0  0
 40 25  1  0  0  0  0
 40  6  1  0  0  0  0
 41  7  1  0  0  0  0
 42 41  1  0  0  0  0
 43 41  2  0  0  0  0
 43  8  1  0  0  0  0
 44 43  1  0  0  0  0
 45  8  1  6  0  0  0
 45  1  1  0  0  0  0
 46 49  1  0  0  0  0
 46 47  1  0  0  0  0
 48 46  1  0  0  0  0
 50 51  1  0  0  0  0
 51 52  1  0  0  0  0
 51 53  2  0  0  0  0
 53 54  1  0  0  0  0
 55 53  1  0  0  0  0
 55 60  1  0  0  0  0
 56 55  2  0  0  0  0
 57 56  1  0  0  0  0
 58 50  2  0  0  0  0
 58 56  1  0  0  0  0
 59 58  1  0  0  0  0
 60 63  1  0  0  0  0
 60 62  1  0  0  0  0
 61 60  1  0  0  0  0
M  END
$$$$
