CSD_code = JEKTOJ | q = 0 | S = 0 | Stoichiometry = C28H26Cl2N2O2Zn | MND = 4
 OpenBabel04212202053D

 61 64  0  0  0  0  0  0  0  0999 V2000
    7.7008    7.5990    5.3603 Zn  0  0  0  0  0  0  0  0  0  0  0  0
    6.8790    7.1106    7.3427 Cl  0  0  0  0  0  0  0  0  0  0  0  0
    9.5750    8.2952    4.4408 Cl  0  0  0  0  0  0  0  0  0  0  0  0
    7.7595    6.1803    2.0946 C   0  0  0  0  0  0  0  0  0  0  0  0
    8.7314    6.4681    2.4665 H   0  0  0  0  0  0  0  0  0  0  0  0
    7.5110    6.0901    0.7558 C   0  0  0  0  0  0  0  0  0  0  0  0
    8.3010    6.2977    0.0487 H   0  0  0  0  0  0  0  0  0  0  0  0
    6.2357    5.7392    0.2771 C   0  0  0  0  0  0  0  0  0  0  0  0
    6.0619    5.6816   -0.7864 H   0  0  0  0  0  0  0  0  0  0  0  0
    5.2342    5.4668    1.1620 C   0  0  0  0  0  0  0  0  0  0  0  0
    4.2501    5.1886    0.8110 H   0  0  0  0  0  0  0  0  0  0  0  0
    5.4466    5.5347    2.5594 C   0  0  0  0  0  0  0  0  0  0  0  0
    6.7482    5.9152    3.0564 C   0  0  0  0  0  0  0  0  0  0  0  0
    4.3839    5.2714    3.4348 C   0  0  0  0  0  0  0  0  0  0  0  0
    3.4175    5.0305    3.0057 H   0  0  0  0  0  0  0  0  0  0  0  0
    3.5167    5.1208    5.7070 C   0  0  0  0  0  0  0  0  0  0  0  0
    2.2195    4.7058    5.4114 C   0  0  0  0  0  0  0  0  0  0  0  0
    1.9207    4.5002    4.3951 H   0  0  0  0  0  0  0  0  0  0  0  0
    1.2988    4.5464    6.4291 C   0  0  0  0  0  0  0  0  0  0  0  0
    0.2967    4.2230    6.1871 H   0  0  0  0  0  0  0  0  0  0  0  0
    1.6390    4.7926    7.7539 C   0  0  0  0  0  0  0  0  0  0  0  0
    2.9391    5.2047    8.0379 C   0  0  0  0  0  0  0  0  0  0  0  0
    3.2224    5.4036    9.0603 H   0  0  0  0  0  0  0  0  0  0  0  0
    3.8715    5.3657    7.0357 C   0  0  0  0  0  0  0  0  0  0  0  0
    4.8710    5.7047    7.2699 H   0  0  0  0  0  0  0  0  0  0  0  0
    0.6431    4.6235    8.8573 C   0  0  0  0  0  0  0  0  0  0  0  0
   -0.3158    4.2846    8.4740 H   0  0  0  0  0  0  0  0  0  0  0  0
    0.4966    5.5674    9.3808 H   0  0  0  0  0  0  0  0  0  0  0  0
    1.0055    3.8978    9.5840 H   0  0  0  0  0  0  0  0  0  0  0  0
    5.1452    8.6187    4.1298 C   0  0  0  0  0  0  0  0  0  0  0  0
    4.2251    8.3697    5.1831 C   0  0  0  0  0  0  0  0  0  0  0  0
    4.6217    8.3325    6.1866 H   0  0  0  0  0  0  0  0  0  0  0  0
    2.8975    8.1713    4.9374 C   0  0  0  0  0  0  0  0  0  0  0  0
    2.2222    7.9843    5.7598 H   0  0  0  0  0  0  0  0  0  0  0  0
    2.3910    8.1974    3.6254 C   0  0  0  0  0  0  0  0  0  0  0  0
    1.3382    8.0313    3.4561 H   0  0  0  0  0  0  0  0  0  0  0  0
    3.2341    8.4410    2.5813 C   0  0  0  0  0  0  0  0  0  0  0  0
    2.8601    8.4714    1.5673 H   0  0  0  0  0  0  0  0  0  0  0  0
    4.6163    8.6640    2.7867 C   0  0  0  0  0  0  0  0  0  0  0  0
    5.4533    8.8864    1.6843 C   0  0  0  0  0  0  0  0  0  0  0  0
    5.0089    8.8711    0.6952 H   0  0  0  0  0  0  0  0  0  0  0  0
   10.0013    9.5424    0.2099 C   0  0  0  0  0  0  0  0  0  0  0  0
   11.0347    9.5989    0.5168 H   0  0  0  0  0  0  0  0  0  0  0  0
    9.0224    9.3695    1.1645 C   0  0  0  0  0  0  0  0  0  0  0  0
    9.2888    9.2733    2.2079 H   0  0  0  0  0  0  0  0  0  0  0  0
    7.6815    9.2865    0.7818 C   0  0  0  0  0  0  0  0  0  0  0  0
    7.3486    9.3874   -0.5678 C   0  0  0  0  0  0  0  0  0  0  0  0
    6.3206    9.3343   -0.8913 H   0  0  0  0  0  0  0  0  0  0  0  0
    8.3428    9.5635   -1.5109 C   0  0  0  0  0  0  0  0  0  0  0  0
    8.0719    9.6411   -2.5539 H   0  0  0  0  0  0  0  0  0  0  0  0
    9.6804    9.6434   -1.1420 C   0  0  0  0  0  0  0  0  0  0  0  0
   10.7588    9.8295   -2.1618 C   0  0  0  0  0  0  0  0  0  0  0  0
   11.4360    8.9762   -2.1536 H   0  0  0  0  0  0  0  0  0  0  0  0
   11.3464   10.7171   -1.9322 H   0  0  0  0  0  0  0  0  0  0  0  0
   10.3428    9.9341   -3.1605 H   0  0  0  0  0  0  0  0  0  0  0  0
    4.4959    5.3135    4.7397 N   0  0  0  0  0  4  0  0  0  0  0  0
    5.4449    5.5718    5.0681 H   0  0  0  0  0  0  0  0  0  0  0  0
    6.7420    9.0999    1.7885 N   0  0  0  0  0  4  0  0  0  0  0  0
    7.0887    9.0802    2.7657 H   0  0  0  0  0  0  0  0  0  0  0  0
    6.9669    6.0072    4.3103 O   0  0  0  0  0  0  0  0  0  0  0  0
    6.3903    8.7954    4.3473 O   0  0  0  0  0  0  0  0  0  0  0  0
  1  2  1  0  0  0  0
  3  1  1  0  0  0  0
  4  5  1  0  0  0  0
  4 13  1  0  0  0  0
  6  4  2  0  0  0  0
  7  6  1  0  0  0  0
  8  6  1  0  0  0  0
  8 10  2  0  0  0  0
  9  8  1  0  0  0  0
 10 12  1  0  0  0  0
 11 10  1  0  0  0  0
 12 13  2  0  0  0  0
 12 14  1  0  0  0  0
 13 60  1  0  0  0  0
 14 56  2  0  0  0  0
 15 14  1  0  0  0  0
 16 24  1  0  0  0  0
 17 16  2  0  0  0  0
 17 19  1  0  0  0  0
 18 17  1  0  0  0  0
 19 21  2  0  0  0  0
 20 19  1  0  0  0  0
 21 22  1  0  0  0  0
 21 26  1  0  0  0  0
 22 23  1  0  0  0  0
 24 25  1  0  0  0  0
 24 22  2  0  0  0  0
 26 28  1  0  0  0  0
 26 29  1  0  0  0  0
 27 26  1  0  0  0  0
 30 61  1  0  0  0  0
 30 31  1  0  0  0  0
 31 32  1  0  0  0  0
 33 31  2  0  0  0  0
 33 34  1  0  0  0  0
 35 33  1  0  0  0  0
 36 35  1  0  0  0  0
 37 39  1  0  0  0  0
 37 35  2  0  0  0  0
 38 37  1  0  0  0  0
 39 30  2  0  0  0  0
 40 58  2  0  0  0  0
 40 39  1  0  0  0  0
 41 40  1  0  0  0  0
 42 43  1  0  0  0  0
 42 44  1  0  0  0  0
 44 45  1  0  0  0  0
 46 44  2  0  0  0  0
 46 58  1  0  0  0  0
 47 46  1  0  0  0  0
 48 47  1  0  0  0  0
 49 51  1  0  0  0  0
 49 47  2  0  0  0  0
 50 49  1  0  0  0  0
 51 42  2  0  0  0  0
 52 53  1  0  0  0  0
 52 54  1  0  0  0  0
 52 51  1  0  0  0  0
 55 52  1  0  0  0  0
 56 57  1  0  0  0  0
 56 16  1  0  0  0  0
 58 59  1  0  0  0  0
 60  1  1  0  0  0  0
 61  1  1  0  0  0  0
M  END
$$$$
