CSD_code = JELZEF | q = 0 | S = 0 | Stoichiometry = C20H13Cl2N2O2Tc | MND = 6
 OpenBabel04212202053D

 40 45  0  0  0  0  0  0  0  0999 V2000
   12.6832    2.9377    3.6115 Tc  0  0  0  0  0  0  0  0  0  0  0  0
   11.0708    4.5996    3.3595 Cl  0  0  0  0  0  0  0  0  0  0  0  0
   14.3624    1.3488    3.1891 Cl  0  0  0  0  0  0  0  0  0  0  0  0
   12.7038    2.7971    5.2444 O   0  0  0  0  0  1  0  0  0  0  0  0
   13.9624    4.2097    2.9417 O   0  0  0  0  0  0  0  0  0  0  0  0
   11.1113    1.5728    3.5780 N   0  0  0  0  0  0  0  0  0  0  0  0
   12.3251    2.6375    1.5644 N   0  0  0  0  0  0  0  0  0  0  0  0
   10.5834    0.9884    4.6385 C   0  0  0  0  0  0  0  0  0  0  0  0
    9.4216    0.2132    4.5726 C   0  0  0  0  0  0  0  0  0  0  0  0
    8.7770    0.0440    3.3749 C   0  0  0  0  0  0  0  0  0  0  0  0
    9.3174    0.6472    2.2219 C   0  0  0  0  0  0  0  0  0  0  0  0
    8.7349    0.5710    0.9404 C   0  0  0  0  0  3  0  0  0  0  0  0
    9.3152    1.2193   -0.1172 C   0  0  0  0  0  0  0  0  0  0  0  0
   10.5082    1.9356    0.0289 C   0  0  0  0  0  0  0  0  0  0  0  0
   11.1329    2.0068    1.2600 C   0  0  0  0  0  0  0  0  0  0  0  0
   10.5082    1.3942    2.3779 C   0  0  0  0  0  0  0  0  0  0  0  0
   13.2017    2.8602    0.6047 C   0  0  0  0  0  3  0  0  0  0  0  0
   14.4108    3.5539    0.7150 C   0  0  0  0  0  0  0  0  0  0  0  0
   15.3242    3.6455   -0.4036 C   0  0  0  0  0  0  0  0  0  0  0  0
   15.1572    2.9276   -1.5979 C   0  0  0  0  0  0  0  0  0  0  0  0
   16.0463    3.0498   -2.6399 C   0  0  0  0  0  0  0  0  0  0  0  0
   17.1511    3.8931   -2.5386 C   0  0  0  0  0  0  0  0  0  0  0  0
   17.3568    4.5912   -1.3759 C   0  0  0  0  0  0  0  0  0  0  0  0
   16.4651    4.4778   -0.2985 C   0  0  0  0  0  0  0  0  0  0  0  0
   16.7126    5.1871    0.9105 C   0  0  0  0  0  0  0  0  0  0  0  0
   15.8906    5.0771    1.9779 C   0  0  0  0  0  0  0  0  0  0  0  0
   14.7277    4.2482    1.9276 C   0  0  0  0  0  0  0  0  0  0  0  0
   11.0922    1.1462    5.5794 H   0  0  0  0  0  0  0  0  0  0  0  0
    9.0451   -0.2340    5.4783 H   0  0  0  0  0  0  0  0  0  0  0  0
    7.8694   -0.5354    3.2986 H   0  0  0  0  0  0  0  0  0  0  0  0
    7.8194    0.0143    0.8155 H   0  0  0  0  0  0  0  0  0  0  0  0
    8.8502    1.1837   -1.0907 H   0  0  0  0  0  0  0  0  0  0  0  0
   10.9127    2.4515   -0.8281 H   0  0  0  0  0  0  0  0  0  0  0  0
   12.9539    2.4607   -0.3737 H   0  0  0  0  0  0  0  0  0  0  0  0
   14.3323    2.2430   -1.7153 H   0  0  0  0  0  0  0  0  0  0  0  0
   15.8890    2.4814   -3.5445 H   0  0  0  0  0  0  0  0  0  0  0  0
   17.8403    3.9839   -3.3642 H   0  0  0  0  0  0  0  0  0  0  0  0
   18.2157    5.2380   -1.2700 H   0  0  0  0  0  0  0  0  0  0  0  0
   17.5924    5.8126    0.9627 H   0  0  0  0  0  0  0  0  0  0  0  0
   16.0789    5.5957    2.9054 H   0  0  0  0  0  0  0  0  0  0  0  0
  1  4  1  0  0  0  0
  2  1  1  0  0  0  0
  3  1  1  0  0  0  0
  5  1  1  0  0  0  0
  6  1  1  0  0  0  0
  6  8  1  0  0  0  0
  7  1  1  0  0  0  0
  8 28  1  0  0  0  0
  9  8  2  0  0  0  0
  9 29  1  0  0  0  0
 10  9  1  0  0  0  0
 11 16  1  0  0  0  0
 11 10  2  0  0  0  0
 12 11  1  0  0  0  0
 13 14  2  0  0  0  0
 13 12  1  0  0  0  0
 14 15  1  0  0  0  0
 15  7  1  0  0  0  0
 15 16  2  0  0  0  0
 16  6  1  0  0  0  0
 17 18  1  0  0  0  0
 17  7  1  0  0  0  0
 18 27  1  0  0  0  0
 19 24  1  0  0  0  0
 19 18  2  0  0  0  0
 20 19  1  0  0  0  0
 21 22  1  0  0  0  0
 21 20  2  0  0  0  0
 22 23  2  0  0  0  0
 23 38  1  0  0  0  0
 23 24  1  0  0  0  0
 24 25  2  0  0  0  0
 25 39  1  0  0  0  0
 25 26  1  0  0  0  0
 26 40  1  0  0  0  0
 27 26  2  0  0  0  0
 27  5  1  0  0  0  0
 30 10  1  0  0  0  0
 31 12  1  0  0  0  0
 32 13  1  0  0  0  0
 33 14  1  0  0  0  0
 34 17  1  0  0  0  0
 35 20  1  0  0  0  0
 36 21  1  0  0  0  0
 37 22  1  0  0  0  0
M  END
$$$$
