CSD_code = JENHUI | q = 0 | S = 0 | Stoichiometry = C24H16ClCuN4 | MND = 5
 OpenBabel04212202053D

 46 53  0  0  0  0  0  0  0  0999 V2000
   -2.0964    3.0744   20.3940 Cu  0  0  0  0  0  0  0  0  0  0  0  0
   -3.2649    1.6208   19.0924 Cl  0  0  0  0  0  0  0  0  0  0  0  0
   -2.0617    4.4050   18.5424 N   0  0  0  0  0  0  0  0  0  0  0  0
   -3.3121    4.5151   20.9215 N   0  0  0  0  0  0  0  0  0  0  0  0
   -2.3312    1.4989   22.0269 N   0  0  0  0  0  0  0  0  0  0  0  0
   -0.2659    2.4017   20.5584 N   0  0  0  0  0  0  0  0  0  0  0  0
   -1.4963    4.2245   17.3740 C   0  0  0  0  0  0  0  0  0  0  0  0
   -0.5366    3.7244   17.3786 H   0  0  0  0  0  0  0  0  0  0  0  0
   -2.0748    4.6379   16.1685 C   0  0  0  0  0  0  0  0  0  0  0  0
   -1.5704    4.4429   15.2349 H   0  0  0  0  0  0  0  0  0  0  0  0
   -3.2772    5.3000   16.2026 C   0  0  0  0  0  0  0  0  0  0  0  0
   -3.7483    5.6553   15.2968 H   0  0  0  0  0  0  0  0  0  0  0  0
   -3.9132    5.5008   17.4398 C   0  0  0  0  0  0  0  0  0  0  0  0
   -3.2653    4.9996   18.5898 C   0  0  0  0  0  0  0  0  0  0  0  0
   -5.1737    6.1460   17.5740 C   0  0  0  0  0  0  0  0  0  0  0  0
   -5.6487    6.5295   16.6822 H   0  0  0  0  0  0  0  0  0  0  0  0
   -5.7768    6.2550   18.7830 C   0  0  0  0  0  0  0  0  0  0  0  0
   -6.7415    6.7325   18.8794 H   0  0  0  0  0  0  0  0  0  0  0  0
   -5.1792    5.7105   19.9546 C   0  0  0  0  0  0  0  0  0  0  0  0
   -3.9193    5.0822   19.8606 C   0  0  0  0  0  0  0  0  0  0  0  0
   -5.8006    5.7384   21.2150 C   0  0  0  0  0  0  0  0  0  0  0  0
   -6.7670    6.2087   21.3253 H   0  0  0  0  0  0  0  0  0  0  0  0
   -5.1607    5.1594   22.2874 C   0  0  0  0  0  0  0  0  0  0  0  0
   -5.6069    5.1658   23.2701 H   0  0  0  0  0  0  0  0  0  0  0  0
   -3.9143    4.5652   22.0961 C   0  0  0  0  0  0  0  0  0  0  0  0
   -3.3745    4.1249   22.9225 H   0  0  0  0  0  0  0  0  0  0  0  0
   -3.4055    1.0462   22.6256 C   0  0  0  0  0  0  0  0  0  0  0  0
   -4.1865    1.7698   22.8192 H   0  0  0  0  0  0  0  0  0  0  0  0
   -3.5687   -0.2916   23.0027 C   0  0  0  0  0  0  0  0  0  0  0  0
   -4.4854   -0.6096   23.4746 H   0  0  0  0  0  0  0  0  0  0  0  0
   -2.5431   -1.1753   22.7731 C   0  0  0  0  0  0  0  0  0  0  0  0
   -2.6192   -2.2124   23.0682 H   0  0  0  0  0  0  0  0  0  0  0  0
   -1.3814   -0.7220   22.1247 C   0  0  0  0  0  0  0  0  0  0  0  0
   -1.3415    0.6365   21.7421 C   0  0  0  0  0  0  0  0  0  0  0  0
   -0.2798   -1.5671   21.8154 C   0  0  0  0  0  0  0  0  0  0  0  0
   -0.3273   -2.6017   22.1240 H   0  0  0  0  0  0  0  0  0  0  0  0
    0.7904   -1.0959   21.1299 C   0  0  0  0  0  0  0  0  0  0  0  0
    1.6194   -1.7441   20.8840 H   0  0  0  0  0  0  0  0  0  0  0  0
    0.8386    0.2533   20.6785 C   0  0  0  0  0  0  0  0  0  0  0  0
   -0.2288    1.1239   20.9846 C   0  0  0  0  0  0  0  0  0  0  0  0
    1.8950    0.7648   19.9053 C   0  0  0  0  0  0  0  0  0  0  0  0
    2.7291    0.1274   19.6499 H   0  0  0  0  0  0  0  0  0  0  0  0
    1.8416    2.0748   19.4861 C   0  0  0  0  0  0  0  0  0  0  0  0
    2.6370    2.5015   18.8944 H   0  0  0  0  0  0  0  0  0  0  0  0
    0.7450    2.8587   19.8413 C   0  0  0  0  0  0  0  0  0  0  0  0
    0.6848    3.8974   19.5488 H   0  0  0  0  0  0  0  0  0  0  0  0
  1  6  1  0  0  0  0
  1  4  1  0  0  0  0
  1  5  1  0  0  0  0
  2  1  1  0  0  0  0
  3 14  1  0  0  0  0
  3  1  1  0  0  0  0
  4 25  1  0  0  0  0
  5 27  1  0  0  0  0
  6 40  1  0  0  0  0
  7  8  1  0  0  0  0
  7  3  1  0  0  0  0
  9 11  1  0  0  0  0
  9  7  2  0  0  0  0
 10  9  1  0  0  0  0
 11 13  2  0  0  0  0
 12 11  1  0  0  0  0
 13 15  1  0  0  0  0
 13 14  1  0  0  0  0
 14 20  2  0  0  0  0
 15 17  2  0  0  0  0
 16 15  1  0  0  0  0
 17 18  1  0  0  0  0
 17 19  1  0  0  0  0
 19 21  2  0  0  0  0
 20 19  1  0  0  0  0
 20  4  1  0  0  0  0
 21 22  1  0  0  0  0
 21 23  1  0  0  0  0
 23 24  1  0  0  0  0
 25 23  2  0  0  0  0
 25 26  1  0  0  0  0
 27 28  1  0  0  0  0
 27 29  2  0  0  0  0
 29 30  1  0  0  0  0
 31 29  1  0  0  0  0
 31 32  1  0  0  0  0
 33 31  2  0  0  0  0
 34  5  1  0  0  0  0
 34 33  1  0  0  0  0
 35 36  1  0  0  0  0
 35 33  1  0  0  0  0
 37 35  2  0  0  0  0
 38 37  1  0  0  0  0
 39 40  1  0  0  0  0
 39 37  1  0  0  0  0
 40 34  2  0  0  0  0
 41 39  2  0  0  0  0
 42 41  1  0  0  0  0
 43 45  2  0  0  0  0
 43 41  1  0  0  0  0
 44 43  1  0  0  0  0
 45  6  1  0  0  0  0
 46 45  1  0  0  0  0
M  END
$$$$
