CSD_code = JENJOE | q = 0 | S = 0 | Stoichiometry = C20H25ClIrN5 | MND = 8
 OpenBabel04212202053D

 52 55  0  0  1  0  0  0  0  0999 V2000
    9.2446    1.9767    9.2221 C   0  0  0  0  0  3  0  0  0  0  0  0
    9.9046    2.5747    9.8358 H   0  0  0  0  0  0  0  0  0  0  0  0
    7.9872    1.6165    9.6672 C   0  0  0  0  0  0  0  0  0  0  0  0
    7.6282    1.9295   10.6334 H   0  0  0  0  0  0  0  0  0  0  0  0
    7.2203    0.8288    8.8131 C   0  0  0  0  0  0  0  0  0  0  0  0
    6.2226    0.5036    9.0739 H   0  0  0  0  0  0  0  0  0  0  0  0
    8.8835    0.8009    7.2785 C   0  0  0  0  0  0  0  0  0  0  0  0
    9.5038    0.3768    6.0359 C   0  0  0  0  0  0  0  0  0  0  0  0
   10.8382    0.7993    5.8851 C   0  0  0  0  0  0  0  0  0  0  0  0
   11.4512    0.3111    4.7296 C   0  0  0  0  0  0  0  0  0  0  0  0
   12.4927    0.5062    4.5065 H   0  0  0  0  0  0  0  0  0  0  0  0
    9.5338   -0.7349    4.0683 C   0  0  0  0  0  0  0  0  0  0  0  0
    9.5613   -1.9442    1.9569 C   0  0  0  0  0  0  0  0  0  0  0  0
    9.0300   -1.6031    1.0640 H   0  0  0  0  0  0  0  0  0  0  0  0
    9.5899   -3.0377    1.9484 H   0  0  0  0  0  0  0  0  0  0  0  0
   10.5756   -1.5557    1.9502 H   0  0  0  0  0  0  0  0  0  0  0  0
    7.5304   -1.8895    3.3290 C   0  0  0  0  0  0  0  0  0  0  0  0
    7.1670   -1.4672    4.2618 H   0  0  0  0  0  0  0  0  0  0  0  0
    7.4718   -2.9805    3.3731 H   0  0  0  0  0  0  0  0  0  0  0  0
    6.9115   -1.5400    2.4980 H   0  0  0  0  0  0  0  0  0  0  0  0
   12.1899    4.0270    8.3301 C   0  0  0  0  0  0  0  0  0  0  0  0
   11.7826    4.1179    6.9414 C   0  0  2  0  0  0  0  0  0  0  0  0
   12.7473    3.4156    6.1502 C   0  0  2  0  0  3  0  0  0  0  0  0
   13.6132    2.7320    7.0531 C   0  0  2  0  0  0  0  0  0  0  0  0
   13.2970    3.1831    8.4006 C   0  0  0  0  0  0  0  0  0  0  0  0
   11.5797    4.8128    9.4471 C   0  0  0  0  0  0  0  0  0  0  0  0
   11.7117    4.3111   10.4045 H   0  0  0  0  0  0  0  0  0  0  0  0
   10.5154    4.9742    9.2817 H   0  0  0  0  0  0  0  0  0  0  0  0
   12.0567    5.7929    9.5136 H   0  0  0  0  0  0  0  0  0  0  0  0
   10.7814    5.0927    6.4058 C   0  0  0  0  0  0  0  0  0  0  0  0
    9.9217    5.1850    7.0671 H   0  0  0  0  0  0  0  0  0  0  0  0
   10.4281    4.7844    5.4246 H   0  0  0  0  0  0  0  0  0  0  0  0
   11.2396    6.0794    6.3092 H   0  0  0  0  0  0  0  0  0  0  0  0
   12.8835    3.5210    4.6634 C   0  0  0  0  0  0  0  0  0  0  0  0
   11.9266    3.3867    4.1629 H   0  0  0  0  0  0  0  0  0  0  0  0
   13.5765    2.7779    4.2801 H   0  0  0  0  0  0  0  0  0  0  0  0
   13.2661    4.5104    4.4068 H   0  0  0  0  0  0  0  0  0  0  0  0
   14.8701    1.9925    6.7118 C   0  0  0  0  0  0  0  0  0  0  0  0
   14.8408    1.6149    5.6930 H   0  0  0  0  0  0  0  0  0  0  0  0
   15.0074    1.1487    7.3845 H   0  0  0  0  0  0  0  0  0  0  0  0
   15.7322    2.6551    6.8112 H   0  0  0  0  0  0  0  0  0  0  0  0
   14.1024    2.8153    9.6017 C   0  0  0  0  0  0  0  0  0  0  0  0
   15.1387    3.1262    9.4657 H   0  0  0  0  0  0  0  0  0  0  0  0
   14.0911    1.7346    9.7462 H   0  0  0  0  0  0  0  0  0  0  0  0
   13.7128    3.2884   10.4997 H   0  0  0  0  0  0  0  0  0  0  0  0
   12.1701   -0.0399    8.4827 Cl  0  0  0  0  0 15  0  0  0  0  0  0
   11.5886    1.9440    7.3776 Ir  0  0  2  0  0  0  0  0  0  0  0  0
    9.7021    1.5970    8.0287 N   0  0  0  0  0  0  0  0  0  0  0  0
    7.6739    0.4278    7.6425 N   0  0  0  0  0  0  0  0  0  0  0  0
    8.8490   -0.3682    5.1547 N   0  0  0  0  0  0  0  0  0  0  0  0
   10.8232   -0.4212    3.8348 N   0  0  0  0  0  0  0  0  0  0  0  0
    8.8940   -1.4696    3.1396 N   0  0  0  0  0  0  0  0  0  0  0  0
  1  3  1  0  0  0  0
  1  2  1  0  0  0  0
  3  4  1  0  0  0  0
  5  6  1  0  0  0  0
  5  3  2  0  0  0  0
  7 49  2  0  0  0  0
  7 48  1  0  0  0  0
  8  7  1  0  0  0  0
  9  8  2  0  0  0  0
 10  9  1  0  0  0  0
 11 10  1  0  0  0  0
 12 50  2  0  0  0  0
 13 52  1  0  0  0  0
 14 13  1  0  0  0  0
 15 13  1  0  0  0  0
 16 13  1  0  0  0  0
 17 19  1  0  0  0  0
 17 18  1  0  0  0  0
 20 17  1  0  0  0  0
 21 25  2  0  0  0  0
 21 26  1  0  0  0  0
 22 30  1  6  0  0  0
 22 47  1  0  0  0  0
 22 21  1  0  0  0  0
 23 34  1  1  0  0  0
 23 22  1  0  0  0  0
 23 24  1  0  0  0  0
 24 38  1  6  0  0  0
 24 47  1  0  0  0  0
 24 25  1  0  0  0  0
 25 42  1  0  0  0  0
 26 29  1  0  0  0  0
 26 27  1  0  0  0  0
 28 26  1  0  0  0  0
 30 31  1  0  0  0  0
 32 30  1  0  0  0  0
 33 30  1  0  0  0  0
 35 34  1  0  0  0  0
 36 34  1  0  0  0  0
 37 34  1  0  0  0  0
 38 41  1  0  0  0  0
 38 40  1  0  0  0  0
 39 38  1  0  0  0  0
 42 44  1  0  0  0  0
 42 45  1  0  0  0  0
 43 42  1  0  0  0  0
 47  9  1  6  0  0  0
 47 48  1  0  0  0  0
 48  1  1  0  0  0  0
 49  5  1  0  0  0  0
 50  8  1  0  0  0  0
 51 12  1  0  0  0  0
 51 10  2  0  0  0  0
 52 17  1  0  0  0  0
 52 12  1  0  0  0  0
M  END
$$$$
