CSD_code = JENQEZ | q = 0 | S = 0 | Stoichiometry = C16H39ClIrNP2 | MND = 6
 OpenBabel04212202053D

 60 61  0  0  0  0  0  0  0  0999 V2000
    0.0415    5.2013    3.1794 Ir  0  0  0  0  0  0  0  0  0  0  0  0
   -0.1963    5.4980    4.6606 H   0  0  0  0  0  0  0  0  0  0  0  0
    0.5867    3.8245    3.6165 H   0  0  0  0  0  0  0  0  0  0  0  0
    0.3361    4.9346    0.7338 Cl  0  0  0  0  0  0  0  0  0  0  0  0
    2.0429    6.3235    3.1345 P   0  0  0  0  0  4  0  0  0  0  0  0
   -2.1356    4.5692    2.8200 P   0  0  0  0  0  4  0  0  0  0  0  0
   -0.7126    7.1305    2.4227 N   0  0  0  0  0  4  0  0  0  0  0  0
   -0.5352    6.8786    1.4423 H   0  0  0  0  0  0  0  0  0  0  0  0
    1.5665    7.9795    2.4247 C   0  0  0  0  0  0  0  0  0  0  0  0
    2.2220    8.7750    2.7860 H   0  0  0  0  0  0  0  0  0  0  0  0
    1.6815    7.8996    1.3395 H   0  0  0  0  0  0  0  0  0  0  0  0
    0.1069    8.2877    2.7481 C   0  0  0  0  0  0  0  0  0  0  0  0
   -0.0159    8.5041    3.8143 H   0  0  0  0  0  0  0  0  0  0  0  0
   -0.2191    9.1786    2.1837 H   0  0  0  0  0  0  0  0  0  0  0  0
   -2.1427    7.3438    2.5844 C   0  0  0  0  0  0  0  0  0  0  0  0
   -2.4796    8.2319    2.0221 H   0  0  0  0  0  0  0  0  0  0  0  0
   -2.3434    7.5239    3.6456 H   0  0  0  0  0  0  0  0  0  0  0  0
   -2.8950    6.1092    2.0952 C   0  0  0  0  0  0  0  0  0  0  0  0
   -2.7833    6.0313    1.0094 H   0  0  0  0  0  0  0  0  0  0  0  0
   -3.9589    6.1821    2.3309 H   0  0  0  0  0  0  0  0  0  0  0  0
    2.9629    6.8064    4.6860 C   0  0  0  0  0  0  0  0  0  0  0  0
    3.8387    7.4005    4.4015 H   0  0  0  0  0  0  0  0  0  0  0  0
    2.0719    7.6427    5.5975 C   0  0  0  0  0  0  0  0  0  0  0  0
    2.5720    7.8130    6.5499 H   0  0  0  0  0  0  0  0  0  0  0  0
    1.1418    7.1116    5.7892 H   0  0  0  0  0  0  0  0  0  0  0  0
    1.8473    8.6136    5.1613 H   0  0  0  0  0  0  0  0  0  0  0  0
    3.3971    5.5362    5.4090 C   0  0  0  0  0  0  0  0  0  0  0  0
    3.7939    5.7745    6.3947 H   0  0  0  0  0  0  0  0  0  0  0  0
    4.1670    5.0081    4.8534 H   0  0  0  0  0  0  0  0  0  0  0  0
    2.5380    4.8757    5.5222 H   0  0  0  0  0  0  0  0  0  0  0  0
    3.3587    5.8149    1.9137 C   0  0  0  0  0  0  0  0  0  0  0  0
    2.8517    5.9502    0.9497 H   0  0  0  0  0  0  0  0  0  0  0  0
    4.6160    6.6769    1.9360 C   0  0  0  0  0  0  0  0  0  0  0  0
    5.2285    6.4437    1.0660 H   0  0  0  0  0  0  0  0  0  0  0  0
    5.2116    6.4761    2.8241 H   0  0  0  0  0  0  0  0  0  0  0  0
    4.3768    7.7387    1.9041 H   0  0  0  0  0  0  0  0  0  0  0  0
    3.6898    4.3316    2.0393 C   0  0  0  0  0  0  0  0  0  0  0  0
    4.2758    4.0079    1.1804 H   0  0  0  0  0  0  0  0  0  0  0  0
    2.7697    3.7522    2.0703 H   0  0  0  0  0  0  0  0  0  0  0  0
    4.2588    4.1189    2.9404 H   0  0  0  0  0  0  0  0  0  0  0  0
   -2.5317    3.3495    1.4652 C   0  0  0  0  0  0  0  0  0  0  0  0
   -2.1370    3.8541    0.5738 H   0  0  0  0  0  0  0  0  0  0  0  0
   -1.7432    2.0548    1.6310 C   0  0  0  0  0  0  0  0  0  0  0  0
   -1.7885    1.4721    0.7120 H   0  0  0  0  0  0  0  0  0  0  0  0
   -2.1348    1.4442    2.4404 H   0  0  0  0  0  0  0  0  0  0  0  0
   -0.7017    2.2843    1.8459 H   0  0  0  0  0  0  0  0  0  0  0  0
   -4.0189    3.0807    1.2638 C   0  0  0  0  0  0  0  0  0  0  0  0
   -4.1632    2.5303    0.3349 H   0  0  0  0  0  0  0  0  0  0  0  0
   -4.5904    4.0052    1.1995 H   0  0  0  0  0  0  0  0  0  0  0  0
   -4.4193    2.4745    2.0737 H   0  0  0  0  0  0  0  0  0  0  0  0
   -3.3071    4.1636    4.2163 C   0  0  0  0  0  0  0  0  0  0  0  0
   -4.2974    3.9601    3.7935 H   0  0  0  0  0  0  0  0  0  0  0  0
   -3.4125    5.3366    5.1843 C   0  0  0  0  0  0  0  0  0  0  0  0
   -3.9956    5.0457    6.0568 H   0  0  0  0  0  0  0  0  0  0  0  0
   -3.9019    6.1941    4.7275 H   0  0  0  0  0  0  0  0  0  0  0  0
   -2.4184    5.6267    5.5183 H   0  0  0  0  0  0  0  0  0  0  0  0
   -2.7811    2.9341    4.9488 C   0  0  0  0  0  0  0  0  0  0  0  0
   -3.3514    2.7590    5.8597 H   0  0  0  0  0  0  0  0  0  0  0  0
   -1.7349    3.0918    5.2093 H   0  0  0  0  0  0  0  0  0  0  0  0
   -2.8506    2.0444    4.3295 H   0  0  0  0  0  0  0  0  0  0  0  0
  1  3  1  0  0  0  0
  1  2  1  0  0  0  0
  4  1  1  0  0  0  0
  5  1  1  0  0  0  0
  5 21  1  0  0  0  0
  6  1  1  0  0  0  0
  6 51  1  0  0  0  0
  7 15  1  0  0  0  0
  7 12  1  0  0  0  0
  7  1  1  0  0  0  0
  8  7  1  0  0  0  0
  9 12  1  0  0  0  0
  9 10  1  0  0  0  0
  9  5  1  0  0  0  0
 11  9  1  0  0  0  0
 12 13  1  0  0  0  0
 14 12  1  0  0  0  0
 15 17  1  0  0  0  0
 16 15  1  0  0  0  0
 18 20  1  0  0  0  0
 18 15  1  0  0  0  0
 18  6  1  0  0  0  0
 19 18  1  0  0  0  0
 21 27  1  0  0  0  0
 21 23  1  0  0  0  0
 22 21  1  0  0  0  0
 23 25  1  0  0  0  0
 23 24  1  0  0  0  0
 26 23  1  0  0  0  0
 27 30  1  0  0  0  0
 27 28  1  0  0  0  0
 29 27  1  0  0  0  0
 31 33  1  0  0  0  0
 31 37  1  0  0  0  0
 31  5  1  0  0  0  0
 32 31  1  0  0  0  0
 33 35  1  0  0  0  0
 34 33  1  0  0  0  0
 36 33  1  0  0  0  0
 37 39  1  0  0  0  0
 37 40  1  0  0  0  0
 38 37  1  0  0  0  0
 41 43  1  0  0  0  0
 41  6  1  0  0  0  0
 42 41  1  0  0  0  0
 43 46  1  0  0  0  0
 43 45  1  0  0  0  0
 44 43  1  0  0  0  0
 47 41  1  0  0  0  0
 47 50  1  0  0  0  0
 48 47  1  0  0  0  0
 49 47  1  0  0  0  0
 51 57  1  0  0  0  0
 51 53  1  0  0  0  0
 52 51  1  0  0  0  0
 53 56  1  0  0  0  0
 53 54  1  0  0  0  0
 55 53  1  0  0  0  0
 57 59  1  0  0  0  0
 57 58  1  0  0  0  0
 60 57  1  0  0  0  0
M  END
$$$$
