CSD_code = JENXAC | q = 0 | S = 0 | Stoichiometry = C16H26ClNbOSi2 | MND = 12
 OpenBabel04212202053D

 47 47  0  0  1  0  0  0  0  0999 V2000
    4.8297    3.9625    3.3807 Nb  0  0  0  0  0  0  0  0  0  0  0  0
    3.5168    5.5858    2.3431 Cl  0  0  0  0  0  0  0  0  0  0  0  0
    6.2083    7.6253    3.3949 Si  0  0  0  0  0  0  0  0  0  0  0  0
    5.2061    0.5445    2.6031 Si  0  0  0  0  0  0  0  0  0  0  0  0
    3.5526    2.9688    3.8613 O   0  0  0  0  0  1  0  0  0  0  0  0
    6.1104    5.9391    4.2437 C   0  0  0  0  0  0  0  0  0  0  0  0
    7.1464    2.6778    1.9202 C   0  0  0  0  0  0  0  0  0  0  0  0
    7.9686    2.2518    2.4760 H   0  0  0  0  0  0  0  0  0  0  0  0
    5.0454    3.0798    1.1044 C   0  0  0  0  0  3  0  0  0  0  0  0
    4.0594    2.8254    0.7222 H   0  0  0  0  0  0  0  0  0  0  0  0
    5.7785    2.2838    2.0730 C   0  0  2  0  0  0  0  0  0  0  0  0
    5.1684    5.5324    5.2369 C   0  0  0  0  0  3  0  0  0  0  0  0
    4.3880    6.1614    5.6497 H   0  0  0  0  0  0  0  0  0  0  0  0
    7.2478    3.6433    0.9331 C   0  0  0  0  0  0  0  0  0  0  0  0
    8.1553    4.1255    0.6086 H   0  0  0  0  0  0  0  0  0  0  0  0
    7.0422    4.8987    4.1217 C   0  0  0  0  0  0  0  0  0  0  0  0
    7.9473    4.9369    3.5288 H   0  0  0  0  0  0  0  0  0  0  0  0
    5.5507    4.2706    5.7385 C   0  0  0  0  0  0  0  0  0  0  0  0
    5.1054    3.7539    6.5810 H   0  0  0  0  0  0  0  0  0  0  0  0
    5.9674    3.8988    0.4287 C   0  0  0  0  0  3  0  0  0  0  0  0
    5.7294    4.5814   -0.3721 H   0  0  0  0  0  0  0  0  0  0  0  0
    6.6911    3.8504    5.0092 C   0  0  0  0  0  0  0  0  0  0  0  0
    7.3032    2.9894    5.2484 H   0  0  0  0  0  0  0  0  0  0  0  0
    6.4359    7.3908    1.5147 C   0  0  0  0  0  0  0  0  0  0  0  0
    6.5949    8.3452    1.0220 H   0  0  0  0  0  0  0  0  0  0  0  0
    5.5573    6.9310    1.0701 H   0  0  0  0  0  0  0  0  0  0  0  0
    7.2938    6.7616    1.2903 H   0  0  0  0  0  0  0  0  0  0  0  0
    5.3920    0.3837    4.4993 C   0  0  0  0  0  0  0  0  0  0  0  0
    5.0460   -0.5813    4.8552 H   0  0  0  0  0  0  0  0  0  0  0  0
    4.7898    1.1570    4.9772 H   0  0  0  0  0  0  0  0  0  0  0  0
    6.4232    0.4990    4.8227 H   0  0  0  0  0  0  0  0  0  0  0  0
    4.6585    8.6521    3.8062 C   0  0  0  0  0  0  0  0  0  0  0  0
    4.6913    9.6103    3.2974 H   0  0  0  0  0  0  0  0  0  0  0  0
    4.5823    8.8517    4.8714 H   0  0  0  0  0  0  0  0  0  0  0  0
    3.7529    8.1426    3.4919 H   0  0  0  0  0  0  0  0  0  0  0  0
    6.3282   -0.7200    1.7127 C   0  0  0  0  0  0  0  0  0  0  0  0
    6.0075   -1.7319    1.9314 H   0  0  0  0  0  0  0  0  0  0  0  0
    7.3625   -0.6281    2.0256 H   0  0  0  0  0  0  0  0  0  0  0  0
    6.2986   -0.5885    0.6365 H   0  0  0  0  0  0  0  0  0  0  0  0
    3.3836    0.3357    2.0852 C   0  0  0  0  0  0  0  0  0  0  0  0
    2.9546   -0.5697    2.5019 H   0  0  0  0  0  0  0  0  0  0  0  0
    3.2638    0.2897    1.0067 H   0  0  0  0  0  0  0  0  0  0  0  0
    2.8102    1.1821    2.4615 H   0  0  0  0  0  0  0  0  0  0  0  0
    7.7620    8.4816    4.1081 C   0  0  0  0  0  0  0  0  0  0  0  0
    7.8787    9.4684    3.6733 H   0  0  0  0  0  0  0  0  0  0  0  0
    8.6671    7.9207    3.8967 H   0  0  0  0  0  0  0  0  0  0  0  0
    7.6954    8.6025    5.1848 H   0  0  0  0  0  0  0  0  0  0  0  0
  1  5  1  0  0  0  0
  2  1  1  0  0  0  0
  3 32  1  0  0  0  0
  3 44  1  0  0  0  0
  3  6  1  0  0  0  0
  4 28  1  0  0  0  0
  6 12  1  0  0  0  0
  7 11  1  0  0  0  0
  7  8  1  0  0  0  0
  9 11  1  0  0  0  0
 10  9  1  0  0  0  0
 11  4  1  0  0  0  0
 11  1  1  1  0  0  0
 12 13  1  0  0  0  0
 12 18  1  0  0  0  0
 14  7  2  0  0  0  0
 15 14  1  0  0  0  0
 16  6  2  0  0  0  0
 16 22  1  0  0  0  0
 17 16  1  0  0  0  0
 18 19  1  0  0  0  0
 20 14  1  0  0  0  0
 20  9  1  0  0  0  0
 21 20  1  0  0  0  0
 22 23  1  0  0  0  0
 22 18  2  0  0  0  0
 24  3  1  0  0  0  0
 25 24  1  0  0  0  0
 26 24  1  0  0  0  0
 27 24  1  0  0  0  0
 28 31  1  0  0  0  0
 28 29  1  0  0  0  0
 28 30  1  0  0  0  0
 32 34  1  0  0  0  0
 33 32  1  0  0  0  0
 35 32  1  0  0  0  0
 36 37  1  0  0  0  0
 36 38  1  0  0  0  0
 36  4  1  0  0  0  0
 39 36  1  0  0  0  0
 40 43  1  0  0  0  0
 40 41  1  0  0  0  0
 40  4  1  0  0  0  0
 42 40  1  0  0  0  0
 44 47  1  0  0  0  0
 45 44  1  0  0  0  0
 46 44  1  0  0  0  0
M  END
$$$$
