CSD_code = JESGAQ | q = 0 | S = 0 | Stoichiometry = C27H24Cl2NPPd | MND = 4
 OpenBabel04212202053D

 56 61  0  0  0  0  0  0  0  0999 V2000
    2.2587    3.1308   14.2709 Pd  0  0  0  0  0  0  0  0  0  0  0  0
    1.5727    4.4522   15.9876 Cl  0  0  0  0  0  0  0  0  0  0  0  0
    2.0191    4.8089   12.8217 Cl  0  0  0  0  0  0  0  0  0  0  0  0
    3.3258    1.9258   12.7470 P   0  0  0  0  0  4  0  0  0  0  0  0
    2.4495    1.3029   15.4897 N   0  0  0  0  0  4  0  0  0  0  0  0
    3.0514    1.6314   16.8097 C   0  0  0  0  0  0  0  0  0  0  0  0
    1.8964    1.7734   17.8211 C   0  0  0  0  0  0  0  0  0  0  0  0
    0.6701    1.5364   16.9903 C   0  0  0  0  0  0  0  0  0  0  0  0
   -0.6636    1.5794   17.3374 C   0  0  0  0  0  0  0  0  0  0  0  0
   -1.6205    1.3541   16.3557 C   0  0  0  0  0  0  0  0  0  0  0  0
   -1.2498    1.0956   15.0455 C   0  0  0  0  0  0  0  0  0  0  0  0
    0.0891    1.0458   14.6800 C   0  0  0  0  0  0  0  0  0  0  0  0
    1.0349    1.2724   15.6713 C   0  0  0  0  0  0  0  0  0  0  0  0
    2.8542    1.5811   11.0368 C   0  0  0  0  0  0  0  0  0  0  0  0
    2.1426    0.4414   10.6730 C   0  0  0  0  0  0  0  0  0  0  0  0
    1.7138    0.2868    9.3672 C   0  0  0  0  0  0  0  0  0  0  0  0
    1.9723    1.2718    8.4277 C   0  0  0  0  0  0  0  0  0  0  0  0
    2.6521    2.4228    8.7954 C   0  0  0  0  0  0  0  0  0  0  0  0
    3.0870    2.5842   10.0968 C   0  0  0  0  0  0  0  0  0  0  0  0
    5.0329    2.5492   12.6431 C   0  0  0  0  0  0  0  0  0  0  0  0
    5.9487    2.1054   11.6947 C   0  0  0  0  0  0  0  0  0  0  0  0
    7.2393    2.6025   11.7010 C   0  0  0  0  0  0  0  0  0  0  0  0
    7.6210    3.5390   12.6484 C   0  0  0  0  0  0  0  0  0  0  0  0
    6.7099    3.9880   13.5914 C   0  0  0  0  0  0  0  0  0  0  0  0
    5.4176    3.4951   13.5918 C   0  0  0  0  0  0  0  0  0  0  0  0
    3.5347    0.2980   13.5439 C   0  0  0  0  0  0  0  0  0  0  0  0
    4.1487   -0.7642   12.8920 C   0  0  0  0  0  0  0  0  0  0  0  0
    4.2149   -1.9972   13.5087 C   0  0  0  0  0  0  0  0  0  0  0  0
    3.6297   -2.1691   14.7496 C   0  0  0  0  0  0  0  0  0  0  0  0
    3.0105   -1.1232   15.4271 C   0  0  0  0  0  0  0  0  0  0  0  0
    3.0043    0.1445   14.8297 C   0  0  0  0  0  0  0  0  0  0  0  0
    2.3677   -1.4218   16.7491 C   0  0  0  0  0  0  0  0  0  0  0  0
    3.5882    2.5830   16.7121 H   0  0  0  0  0  0  0  0  0  0  0  0
    3.7707    0.8606   17.0946 H   0  0  0  0  0  0  0  0  0  0  0  0
    1.8718    2.7827   18.2312 H   0  0  0  0  0  0  0  0  0  0  0  0
    1.9706    1.0624   18.6471 H   0  0  0  0  0  0  0  0  0  0  0  0
   -0.9570    1.7955   18.3531 H   0  0  0  0  0  0  0  0  0  0  0  0
   -2.6674    1.3954   16.6140 H   0  0  0  0  0  0  0  0  0  0  0  0
   -2.0084    0.9368   14.2942 H   0  0  0  0  0  0  0  0  0  0  0  0
    0.3857    0.8358   13.6537 H   0  0  0  0  0  0  0  0  0  0  0  0
    1.9298   -0.3232   11.4087 H   0  0  0  0  0  0  0  0  0  0  0  0
    1.1695   -0.6022    9.0835 H   0  0  0  0  0  0  0  0  0  0  0  0
    1.6323    1.1471    7.4104 H   0  0  0  0  0  0  0  0  0  0  0  0
    2.8356    3.1986    8.0673 H   0  0  0  0  0  0  0  0  0  0  0  0
    3.5952    3.4881   10.4042 H   0  0  0  0  0  0  0  0  0  0  0  0
    5.6460    1.3891   10.9435 H   0  0  0  0  0  0  0  0  0  0  0  0
    7.9489    2.2621   10.9611 H   0  0  0  0  0  0  0  0  0  0  0  0
    8.6288    3.9267   12.6453 H   0  0  0  0  0  0  0  0  0  0  0  0
    7.0053    4.7282   14.3197 H   0  0  0  0  0  0  0  0  0  0  0  0
    4.6806    3.8681   14.3169 H   0  0  0  0  0  0  0  0  0  0  0  0
    4.5616   -0.6167   11.9055 H   0  0  0  0  0  0  0  0  0  0  0  0
    4.6975   -2.8283   13.0174 H   0  0  0  0  0  0  0  0  0  0  0  0
    3.6440   -3.1456   15.2115 H   0  0  0  0  0  0  0  0  0  0  0  0
    3.0486   -1.2095   17.5734 H   0  0  0  0  0  0  0  0  0  0  0  0
    2.1132   -2.4783   16.7998 H   0  0  0  0  0  0  0  0  0  0  0  0
    1.4601   -0.8425   16.8920 H   0  0  0  0  0  0  0  0  0  0  0  0
  1  5  1  0  0  0  0
  1  2  1  0  0  0  0
  3  1  1  0  0  0  0
  4 26  1  0  0  0  0
  4  1  1  0  0  0  0
  5 13  1  0  0  0  0
  5  6  1  0  0  0  0
  6 34  1  0  0  0  0
  6  7  1  0  0  0  0
  7 35  1  0  0  0  0
  7 36  1  0  0  0  0
  8  9  1  0  0  0  0
  8  7  1  0  0  0  0
  9 37  1  0  0  0  0
 10 38  1  0  0  0  0
 10  9  2  0  0  0  0
 11 10  1  0  0  0  0
 12 11  2  0  0  0  0
 12 13  1  0  0  0  0
 13  8  2  0  0  0  0
 14  4  1  0  0  0  0
 15 14  1  0  0  0  0
 15 41  1  0  0  0  0
 16 15  2  0  0  0  0
 17 18  2  0  0  0  0
 17 16  1  0  0  0  0
 18 19  1  0  0  0  0
 19 45  1  0  0  0  0
 19 14  2  0  0  0  0
 20  4  1  0  0  0  0
 20 25  1  0  0  0  0
 21 22  1  0  0  0  0
 21 20  2  0  0  0  0
 22 23  2  0  0  0  0
 23 24  1  0  0  0  0
 24 25  2  0  0  0  0
 24 49  1  0  0  0  0
 25 50  1  0  0  0  0
 26 31  1  0  0  0  0
 27 28  1  0  0  0  0
 27 26  2  0  0  0  0
 28 29  2  0  0  0  0
 29 53  1  0  0  0  0
 29 30  1  0  0  0  0
 30 32  1  0  0  0  0
 31 30  2  0  0  0  0
 31  5  1  0  0  0  0
 32 55  1  0  0  0  0
 32 56  1  0  0  0  0
 32 54  1  0  0  0  0
 33  6  1  0  0  0  0
 39 11  1  0  0  0  0
 40 12  1  0  0  0  0
 42 16  1  0  0  0  0
 43 17  1  0  0  0  0
 44 18  1  0  0  0  0
 46 21  1  0  0  0  0
 47 22  1  0  0  0  0
 48 23  1  0  0  0  0
 51 27  1  0  0  0  0
 52 28  1  0  0  0  0
M  END
$$$$
