CSD_code = JETCAN | q = 0 | S = 0 | Stoichiometry = C21H35AuClPS2 | MND = 2
 OpenBabel04212202053D

 61 61  0  0  0  0  0  0  0  0999 V2000
   10.5979    2.4719    7.7170 Au  0  0  0  0  0  0  0  0  0  0  0  0
   10.4186    2.7662    9.9524 Cl  0  0  0  0  0  0  0  0  0  0  0  0
   13.5420    1.0697    6.2554 S   0  0  0  0  0  0  0  0  0  0  0  0
   13.0717    1.9308    3.3502 S   0  0  0  0  0  0  0  0  0  0  0  0
   10.9625    2.2839    5.4906 P   0  0  2  0  0  0  0  0  0  0  0  0
   12.5192    1.8212    5.0149 C   0  0  0  0  0  3  0  0  0  0  0  0
   14.1965    2.5384    7.1094 C   0  0  0  0  0  0  0  0  0  0  0  0
   14.5502    0.8783    3.3650 C   0  0  0  0  0  0  0  0  0  0  0  0
   10.2382    2.9065    3.9433 C   0  0  0  0  0  0  0  0  0  0  0  0
    9.6378    1.9711    3.0744 C   0  0  0  0  0  0  0  0  0  0  0  0
    9.5135    2.3235    1.7411 C   0  0  0  0  0  0  0  0  0  0  0  0
    9.9095    3.5605    1.2519 C   0  0  0  0  0  0  0  0  0  0  0  0
   10.3085    4.5151    2.1719 C   0  0  0  0  0  0  0  0  0  0  0  0
   10.4658    4.2298    3.5212 C   0  0  0  0  0  0  0  0  0  0  0  0
    9.0630    0.6363    3.5535 C   0  0  0  0  0  0  0  0  0  0  0  0
    8.2338    0.8679    4.8224 C   0  0  0  0  0  0  0  0  0  0  0  0
   10.1684   -0.3948    3.8199 C   0  0  0  0  0  0  0  0  0  0  0  0
    8.1095    0.0237    2.5154 C   0  0  0  0  0  0  0  0  0  0  0  0
    9.8472    3.8286   -0.2424 C   0  0  0  0  0  0  0  0  0  0  0  0
   10.7327    2.7987   -0.9581 C   0  0  0  0  0  0  0  0  0  0  0  0
    8.3956    3.6954   -0.7234 C   0  0  0  0  0  0  0  0  0  0  0  0
   10.3489    5.2266   -0.6139 C   0  0  0  0  0  0  0  0  0  0  0  0
   10.7799    5.3620    4.4986 C   0  0  0  0  0  0  0  0  0  0  0  0
   10.7637    6.7411    3.8238 C   0  0  0  0  0  0  0  0  0  0  0  0
    9.6863    5.3811    5.5751 C   0  0  0  0  0  0  0  0  0  0  0  0
   12.1607    5.1930    5.1448 C   0  0  0  0  0  0  0  0  0  0  0  0
   14.6290    3.2189    6.3821 H   0  0  0  0  0  0  0  0  0  0  0  0
   13.4019    3.0179    7.6765 H   0  0  0  0  0  0  0  0  0  0  0  0
   14.9619    2.1667    7.7833 H   0  0  0  0  0  0  0  0  0  0  0  0
   14.2795   -0.1181    3.6994 H   0  0  0  0  0  0  0  0  0  0  0  0
   14.9049    0.8545    2.3395 H   0  0  0  0  0  0  0  0  0  0  0  0
   15.3050    1.3068    4.0166 H   0  0  0  0  0  0  0  0  0  0  0  0
    9.1125    1.6072    1.0470 H   0  0  0  0  0  0  0  0  0  0  0  0
   10.5251    5.5067    1.8243 H   0  0  0  0  0  0  0  0  0  0  0  0
    7.7921   -0.0680    5.1573 H   0  0  0  0  0  0  0  0  0  0  0  0
    7.4351    1.5808    4.6267 H   0  0  0  0  0  0  0  0  0  0  0  0
    8.8436    1.2526    5.6417 H   0  0  0  0  0  0  0  0  0  0  0  0
   10.7071   -0.1760    4.7407 H   0  0  0  0  0  0  0  0  0  0  0  0
   10.8775   -0.4116    2.9947 H   0  0  0  0  0  0  0  0  0  0  0  0
    9.7315   -1.3859    3.9215 H   0  0  0  0  0  0  0  0  0  0  0  0
    7.5987   -0.8260    2.9634 H   0  0  0  0  0  0  0  0  0  0  0  0
    8.6471   -0.3424    1.6441 H   0  0  0  0  0  0  0  0  0  0  0  0
    7.3545    0.7407    2.2013 H   0  0  0  0  0  0  0  0  0  0  0  0
   11.7563    2.8705   -0.5964 H   0  0  0  0  0  0  0  0  0  0  0  0
   10.3822    1.7849   -0.7868 H   0  0  0  0  0  0  0  0  0  0  0  0
   10.7298    2.9829   -2.0301 H   0  0  0  0  0  0  0  0  0  0  0  0
    8.0120    2.6922   -0.5601 H   0  0  0  0  0  0  0  0  0  0  0  0
    8.3341    3.9130   -1.7873 H   0  0  0  0  0  0  0  0  0  0  0  0
    7.7565    4.3964   -0.1905 H   0  0  0  0  0  0  0  0  0  0  0  0
   10.3215    5.3446   -1.6952 H   0  0  0  0  0  0  0  0  0  0  0  0
    9.7195    5.9998   -0.1795 H   0  0  0  0  0  0  0  0  0  0  0  0
   11.3755    5.3726   -0.2862 H   0  0  0  0  0  0  0  0  0  0  0  0
   11.5824    6.8474    3.1159 H   0  0  0  0  0  0  0  0  0  0  0  0
    9.8189    6.9256    3.3184 H   0  0  0  0  0  0  0  0  0  0  0  0
   10.8844    7.5065    4.5875 H   0  0  0  0  0  0  0  0  0  0  0  0
    8.7186    5.5908    5.1235 H   0  0  0  0  0  0  0  0  0  0  0  0
    9.8987    6.1497    6.3148 H   0  0  0  0  0  0  0  0  0  0  0  0
    9.6163    4.4259    6.0964 H   0  0  0  0  0  0  0  0  0  0  0  0
   12.4707    6.1272    5.6084 H   0  0  0  0  0  0  0  0  0  0  0  0
   12.1398    4.4331    5.9243 H   0  0  0  0  0  0  0  0  0  0  0  0
   12.8998    4.9136    4.3958 H   0  0  0  0  0  0  0  0  0  0  0  0
  1  2  1  0  0  0  0
  3  7  1  0  0  0  0
  4  8  1  0  0  0  0
  4  6  1  0  0  0  0
  5  6  1  1  0  0  0
  5  1  1  0  0  0  0
  6  3  1  0  0  0  0
  7 28  1  0  0  0  0
  7 29  1  0  0  0  0
  8 30  1  0  0  0  0
  8 32  1  0  0  0  0
  9  5  1  0  0  0  0
 10 15  1  0  0  0  0
 10  9  2  0  0  0  0
 11 10  1  0  0  0  0
 12 11  2  0  0  0  0
 12 13  1  0  0  0  0
 13 14  2  0  0  0  0
 14  9  1  0  0  0  0
 14 23  1  0  0  0  0
 15 17  1  0  0  0  0
 15 16  1  0  0  0  0
 16 35  1  0  0  0  0
 16 37  1  0  0  0  0
 17 40  1  0  0  0  0
 17 38  1  0  0  0  0
 18 41  1  0  0  0  0
 18 15  1  0  0  0  0
 19 12  1  0  0  0  0
 20 45  1  0  0  0  0
 20 44  1  0  0  0  0
 20 19  1  0  0  0  0
 21 47  1  0  0  0  0
 21 19  1  0  0  0  0
 21 49  1  0  0  0  0
 22 52  1  0  0  0  0
 22 19  1  0  0  0  0
 22 51  1  0  0  0  0
 23 26  1  0  0  0  0
 23 25  1  0  0  0  0
 24 23  1  0  0  0  0
 24 55  1  0  0  0  0
 25 58  1  0  0  0  0
 25 57  1  0  0  0  0
 26 59  1  0  0  0  0
 26 60  1  0  0  0  0
 27  7  1  0  0  0  0
 31  8  1  0  0  0  0
 33 11  1  0  0  0  0
 34 13  1  0  0  0  0
 36 16  1  0  0  0  0
 39 17  1  0  0  0  0
 42 18  1  0  0  0  0
 43 18  1  0  0  0  0
 46 20  1  0  0  0  0
 48 21  1  0  0  0  0
 50 22  1  0  0  0  0
 53 24  1  0  0  0  0
 54 24  1  0  0  0  0
 56 25  1  0  0  0  0
 61 26  1  0  0  0  0
M  END
$$$$
