CSD_code = JETQAB | q = 0 | S = 0 | Stoichiometry = C27H35Cl2N2OPRuS | MND = 6
 OpenBabel04212202053D

 70 75  0  0  1  0  0  0  0  0999 V2000
    8.4926    2.6267    2.0375 Ru  0  0  0  0  0  0  0  0  0  0  0  0
    6.1193    2.6426    2.0300 Cl  0  0  0  0  0  0  0  0  0  0  0  0
   10.8305    3.0166    1.7647 Cl  0  0  0  0  0  0  0  0  0  0  0  0
    8.8155    1.2541    3.8260 P   0  0  0  0  0  4  0  0  0  0  0  0
    8.1080    2.0268    5.3238 C   0  0  0  0  0  0  0  0  0  0  0  0
    8.2965    3.3993    5.5286 C   0  0  0  0  0  0  0  0  0  0  0  0
    7.7292    4.0041    6.6408 C   0  0  0  0  0  0  0  0  0  0  0  0
    7.8705    5.0644    6.8009 H   0  0  0  0  0  0  0  0  0  0  0  0
    6.9888    3.2684    7.5507 C   0  0  0  0  0  0  0  0  0  0  0  0
    6.5546    3.7555    8.4110 H   0  0  0  0  0  0  0  0  0  0  0  0
    6.8067    1.9120    7.3497 C   0  0  0  0  0  0  0  0  0  0  0  0
    6.2305    1.3312    8.0545 H   0  0  0  0  0  0  0  0  0  0  0  0
    7.3623    1.2966    6.2417 C   0  0  0  0  0  0  0  0  0  0  0  0
    7.2171    0.2379    6.0854 H   0  0  0  0  0  0  0  0  0  0  0  0
    9.0749    4.2300    4.5430 C   0  0  0  0  0  0  0  0  0  0  0  0
    9.2620    5.2160    4.9829 H   0  0  0  0  0  0  0  0  0  0  0  0
   10.0428    3.7669    4.3087 H   0  0  0  0  0  0  0  0  0  0  0  0
    8.3165    4.3489    3.2856 N   0  0  1  0  0  4  0  0  0  0  0  0
    7.3143    4.3971    3.5183 H   0  0  0  0  0  0  0  0  0  0  0  0
    8.6461    5.5326    2.4779 C   0  0  1  0  0  0  0  0  0  0  0  0
    9.7338    5.5258    2.3238 H   0  0  0  0  0  0  0  0  0  0  0  0
    7.9410    5.3881    1.1177 C   0  0  2  0  0  0  0  0  0  0  0  0
    6.8578    5.3220    1.2936 H   0  0  0  0  0  0  0  0  0  0  0  0
    8.3601    4.1277    0.4987 N   0  0  0  0  0  4  0  0  0  0  0  0
    9.3414    4.2088    0.2048 H   0  0  0  0  0  0  0  0  0  0  0  0
    7.7805    3.9413   -0.3192 H   0  0  0  0  0  0  0  0  0  0  0  0
    8.2498    6.5874    0.2175 C   0  0  0  0  0  0  0  0  0  0  0  0
    7.7321    6.4718   -0.7380 H   0  0  0  0  0  0  0  0  0  0  0  0
    9.3250    6.6159    0.0208 H   0  0  0  0  0  0  0  0  0  0  0  0
    7.8218    7.8894    0.8857 C   0  0  0  0  0  0  0  0  0  0  0  0
    8.0701    8.7345    0.2420 H   0  0  0  0  0  0  0  0  0  0  0  0
    6.7395    7.8850    1.0318 H   0  0  0  0  0  0  0  0  0  0  0  0
    8.5180    8.0362    2.2332 C   0  0  0  0  0  0  0  0  0  0  0  0
    9.5977    8.0958    2.0809 H   0  0  0  0  0  0  0  0  0  0  0  0
    8.1965    8.9581    2.7201 H   0  0  0  0  0  0  0  0  0  0  0  0
    8.2010    6.8452    3.1334 C   0  0  0  0  0  0  0  0  0  0  0  0
    7.1237    6.8020    3.3167 H   0  0  0  0  0  0  0  0  0  0  0  0
    8.7013    6.9847    4.0923 H   0  0  0  0  0  0  0  0  0  0  0  0
   10.5374    0.9489    4.3312 C   0  0  0  0  0  0  0  0  0  0  0  0
   11.0625    1.3694    5.5477 C   0  0  0  0  0  0  0  0  0  0  0  0
   10.4315    1.8689    6.2702 H   0  0  0  0  0  0  0  0  0  0  0  0
   12.3977    1.1449    5.8374 C   0  0  0  0  0  0  0  0  0  0  0  0
   12.8014    1.4742    6.7844 H   0  0  0  0  0  0  0  0  0  0  0  0
   13.2140    0.5085    4.9186 C   0  0  0  0  0  0  0  0  0  0  0  0
   14.2572    0.3436    5.1465 H   0  0  0  0  0  0  0  0  0  0  0  0
   12.6929    0.0863    3.7053 C   0  0  0  0  0  0  0  0  0  0  0  0
   13.3297   -0.4076    2.9859 H   0  0  0  0  0  0  0  0  0  0  0  0
   11.3616    0.3057    3.4094 C   0  0  0  0  0  0  0  0  0  0  0  0
   10.9405   -0.0161    2.4668 H   0  0  0  0  0  0  0  0  0  0  0  0
    8.0700   -0.4029    3.8511 C   0  0  0  0  0  0  0  0  0  0  0  0
    8.7566   -1.5460    4.2413 C   0  0  0  0  0  0  0  0  0  0  0  0
    9.7859   -1.4773    4.5618 H   0  0  0  0  0  0  0  0  0  0  0  0
    8.1206   -2.7748    4.2099 C   0  0  0  0  0  0  0  0  0  0  0  0
    8.6590   -3.6630    4.5082 H   0  0  0  0  0  0  0  0  0  0  0  0
    6.8033   -2.8713    3.7949 C   0  0  0  0  0  0  0  0  0  0  0  0
    6.3147   -3.8346    3.7666 H   0  0  0  0  0  0  0  0  0  0  0  0
    6.1134   -1.7317    3.4126 C   0  0  0  0  0  0  0  0  0  0  0  0
    5.0844   -1.8040    3.0898 H   0  0  0  0  0  0  0  0  0  0  0  0
    6.7431   -0.5022    3.4389 C   0  0  0  0  0  0  0  0  0  0  0  0
    6.2133    0.3936    3.1429 H   0  0  0  0  0  0  0  0  0  0  0  0
    9.1637   -0.3192    1.1807 O   0  0  0  0  0  1  0  0  0  0  0  0
    8.6066    0.9060    0.6333 S   0  0  0  0  0  0  0  0  0  0  0  0
    9.5716    1.2454   -0.8850 C   0  0  0  0  0  0  0  0  0  0  0  0
   10.5143    1.6845   -0.5705 H   0  0  0  0  0  0  0  0  0  0  0  0
    9.0201    1.9296   -1.5202 H   0  0  0  0  0  0  0  0  0  0  0  0
    9.7472    0.2997   -1.3838 H   0  0  0  0  0  0  0  0  0  0  0  0
    7.0615    0.4136   -0.1978 C   0  0  0  0  0  0  0  0  0  0  0  0
    7.2902   -0.3650   -0.9156 H   0  0  0  0  0  0  0  0  0  0  0  0
    6.6213    1.2843   -0.6701 H   0  0  0  0  0  0  0  0  0  0  0  0
    6.3967    0.0363    0.5711 H   0  0  0  0  0  0  0  0  0  0  0  0
  1 18  1  0  0  0  0
  1  4  1  0  0  0  0
  2  1  1  0  0  0  0
  3  1  1  0  0  0  0
  4 50  1  0  0  0  0
  4 39  1  0  0  0  0
  4  5  1  0  0  0  0
  5  6  2  0  0  0  0
  5 13  1  0  0  0  0
  6  7  1  0  0  0  0
  7  8  1  0  0  0  0
  7  9  2  0  0  0  0
  9 10  1  0  0  0  0
 11  9  1  0  0  0  0
 11 12  1  0  0  0  0
 13 11  2  0  0  0  0
 14 13  1  0  0  0  0
 15 16  1  0  0  0  0
 15  6  1  0  0  0  0
 17 15  1  0  0  0  0
 18 19  1  1  0  0  0
 18 15  1  0  0  0  0
 20 21  1  6  0  0  0
 20 36  1  0  0  0  0
 20 18  1  0  0  0  0
 22 23  1  1  0  0  0
 22 20  1  0  0  0  0
 24 22  1  0  0  0  0
 24  1  1  0  0  0  0
 25 24  1  0  0  0  0
 26 24  1  0  0  0  0
 27 30  1  0  0  0  0
 27 22  1  0  0  0  0
 28 27  1  0  0  0  0
 29 27  1  0  0  0  0
 30 32  1  0  0  0  0
 30 33  1  0  0  0  0
 31 30  1  0  0  0  0
 33 35  1  0  0  0  0
 33 36  1  0  0  0  0
 34 33  1  0  0  0  0
 36 37  1  0  0  0  0
 36 38  1  0  0  0  0
 39 40  1  0  0  0  0
 40 42  2  0  0  0  0
 40 41  1  0  0  0  0
 42 43  1  0  0  0  0
 44 45  1  0  0  0  0
 44 42  1  0  0  0  0
 46 44  2  0  0  0  0
 47 46  1  0  0  0  0
 48 46  1  0  0  0  0
 48 39  2  0  0  0  0
 49 48  1  0  0  0  0
 50 51  1  0  0  0  0
 51 52  1  0  0  0  0
 53 51  2  0  0  0  0
 53 54  1  0  0  0  0
 55 53  1  0  0  0  0
 56 55  1  0  0  0  0
 57 59  1  0  0  0  0
 57 55  2  0  0  0  0
 58 57  1  0  0  0  0
 59 50  2  0  0  0  0
 60 59  1  0  0  0  0
 62 61  1  0  0  0  0
 62  1  1  0  0  0  0
 63 64  1  0  0  0  0
 63 62  1  0  0  0  0
 65 63  1  0  0  0  0
 66 63  1  0  0  0  0
 67 70  1  0  0  0  0
 67 62  1  0  0  0  0
 68 67  1  0  0  0  0
 69 67  1  0  0  0  0
M  END
$$$$
