CSD_code = JEVDUJ | q = 0 | S = 0 | Stoichiometry = C5H12AuBrN2S | MND = 2
 OpenBabel04212202053D

 22 21  0  0  0  0  0  0  0  0999 V2000
    0.4784    3.6782    2.2597 Au  0  0  0  0  0  0  0  0  0  0  0  0
    1.9809    1.9333    1.7032 Br  0  0  0  0  0  0  0  0  0  0  0  0
   -0.7661    5.6295    2.7574 S   0  0  0  0  0  0  0  0  0  0  0  0
    1.6142    6.7769    3.1484 N   0  0  0  0  0  0  0  0  0  0  0  0
    0.1631    7.8337    1.6758 N   0  0  0  0  0  0  0  0  0  0  0  0
    0.4302    6.8075    2.4994 C   0  0  0  0  0  3  0  0  0  0  0  0
    2.8595    7.1101    2.4833 C   0  0  0  0  0  0  0  0  0  0  0  0
    0.7487    9.1474    1.8340 C   0  0  0  0  0  0  0  0  0  0  0  0
    1.7886    5.9419    4.3128 C   0  0  0  0  0  0  0  0  0  0  0  0
   -0.9822    7.7934    0.7960 C   0  0  0  0  0  0  0  0  0  0  0  0
    2.6768    7.4687    1.4749 H   0  0  0  0  0  0  0  0  0  0  0  0
    3.4771    6.2098    2.4170 H   0  0  0  0  0  0  0  0  0  0  0  0
    3.4103    7.8648    3.0479 H   0  0  0  0  0  0  0  0  0  0  0  0
    1.3462    9.1934    2.7400 H   0  0  0  0  0  0  0  0  0  0  0  0
   -0.0576    9.8798    1.9157 H   0  0  0  0  0  0  0  0  0  0  0  0
    1.3670    9.4134    0.9735 H   0  0  0  0  0  0  0  0  0  0  0  0
    0.8508    5.8723    4.8603 H   0  0  0  0  0  0  0  0  0  0  0  0
    2.5464    6.3969    4.9501 H   0  0  0  0  0  0  0  0  0  0  0  0
    2.1136    4.9292    4.0451 H   0  0  0  0  0  0  0  0  0  0  0  0
   -1.1689    6.7698    0.4775 H   0  0  0  0  0  0  0  0  0  0  0  0
   -0.7731    8.4107   -0.0768 H   0  0  0  0  0  0  0  0  0  0  0  0
   -1.8802    8.1658    1.2957 H   0  0  0  0  0  0  0  0  0  0  0  0
  1  3  1  0  0  0  0
  2  1  1  0  0  0  0
  4  9  1  0  0  0  0
  5  8  1  0  0  0  0
  5  6  1  0  0  0  0
  6  3  1  0  0  0  0
  6  4  1  0  0  0  0
  7 13  1  0  0  0  0
  7  4  1  0  0  0  0
  8 15  1  0  0  0  0
  8 14  1  0  0  0  0
  9 17  1  0  0  0  0
  9 18  1  0  0  0  0
 10 22  1  0  0  0  0
 10  5  1  0  0  0  0
 11  7  1  0  0  0  0
 12  7  1  0  0  0  0
 16  8  1  0  0  0  0
 19  9  1  0  0  0  0
 20 10  1  0  0  0  0
 21 10  1  0  0  0  0
M  END
$$$$
