CSD_code = JEVFOF | q = 0 | S = 0 | Stoichiometry = C19H20AuClN2O2 | MND = 4
 OpenBabel04212202053D

 45 47  0  0  0  0  0  0  0  0999 V2000
    6.5949    7.1084    2.1478 Au  0  0  2  0  0  0  0  0  0  0  0  0
    7.3265    9.2985    2.3245 Cl  0  0  0  0  0  0  0  0  0  0  0  0
    4.6792    7.5078    2.9347 N   0  0  0  0  0  0  0  0  0  0  0  0
    3.8276    6.6059    2.6887 N   0  0  0  0  0  0  0  0  0  0  0  0
    8.3805    6.5327    1.2743 C   0  0  0  0  0  0  0  0  0  0  0  0
    9.1903    7.7402    0.8611 C   0  0  0  0  0  0  0  0  0  0  0  0
    8.7321    8.3518   -0.4432 C   0  0  0  0  0  0  0  0  0  0  0  0
    9.0694    5.5921    2.2160 C   0  0  0  0  0  0  0  0  0  0  0  0
    9.6597    6.1842    3.4574 C   0  0  0  0  0  0  0  0  0  0  0  0
   10.1794    8.1260    1.4307 O   0  0  0  0  0  0  0  0  0  0  0  0
    9.1464    4.4072    1.9546 O   0  0  0  0  0  0  0  0  0  0  0  0
    5.6986    5.3332    1.8783 C   0  0  0  0  0  0  0  0  0  0  0  0
    4.3135    5.4585    2.1657 C   0  0  0  0  0  0  0  0  0  0  0  0
    3.4426    4.3785    1.9659 C   0  0  0  0  0  0  0  0  0  0  0  0
    3.9391    3.1780    1.5143 C   0  0  0  0  0  0  0  0  0  0  0  0
    5.3020    3.0245    1.2636 C   0  0  0  0  0  0  0  0  0  0  0  0
    6.1594    4.1174    1.4404 C   0  0  0  0  0  0  0  0  0  0  0  0
    5.8594    1.7246    0.7919 C   0  0  0  0  0  0  0  0  0  0  0  0
    4.2323    8.6986    3.4753 C   0  0  0  0  0  0  0  0  0  0  0  0
    2.9532    9.1826    3.1734 C   0  0  0  0  0  0  0  0  0  0  0  0
    2.5351   10.3850    3.6926 C   0  0  0  0  0  0  0  0  0  0  0  0
    3.3621   11.1299    4.5348 C   0  0  0  0  0  0  0  0  0  0  0  0
    4.6187   10.6249    4.8530 C   0  0  0  0  0  0  0  0  0  0  0  0
    5.0602    9.4267    4.3321 C   0  0  0  0  0  0  0  0  0  0  0  0
    2.8977   12.4460    5.0680 C   0  0  0  0  0  0  0  0  0  0  0  0
    8.1172    5.9861    0.3633 H   0  0  0  0  0  0  0  0  0  0  0  0
    7.6615    8.2426   -0.5912 H   0  0  0  0  0  0  0  0  0  0  0  0
    9.2576    7.8477   -1.2546 H   0  0  0  0  0  0  0  0  0  0  0  0
    9.0038    9.4040   -0.4616 H   0  0  0  0  0  0  0  0  0  0  0  0
    9.9792    5.3982    4.1367 H   0  0  0  0  0  0  0  0  0  0  0  0
   10.5177    6.7883    3.1587 H   0  0  0  0  0  0  0  0  0  0  0  0
    8.9557    6.8529    3.9468 H   0  0  0  0  0  0  0  0  0  0  0  0
    2.3949    4.5141    2.1836 H   0  0  0  0  0  0  0  0  0  0  0  0
    3.2723    2.3417    1.3638 H   0  0  0  0  0  0  0  0  0  0  0  0
    7.2141    3.9668    1.2566 H   0  0  0  0  0  0  0  0  0  0  0  0
    5.2013    0.8973    1.0456 H   0  0  0  0  0  0  0  0  0  0  0  0
    5.9754    1.7477   -0.2926 H   0  0  0  0  0  0  0  0  0  0  0  0
    6.8432    1.5537    1.2229 H   0  0  0  0  0  0  0  0  0  0  0  0
    2.3262    8.6085    2.5080 H   0  0  0  0  0  0  0  0  0  0  0  0
    1.5558   10.7649    3.4399 H   0  0  0  0  0  0  0  0  0  0  0  0
    5.2645   11.1808    5.5159 H   0  0  0  0  0  0  0  0  0  0  0  0
    6.0269    9.0363    4.6027 H   0  0  0  0  0  0  0  0  0  0  0  0
    3.5648   12.8127    5.8433 H   0  0  0  0  0  0  0  0  0  0  0  0
    2.8687   13.1815    4.2638 H   0  0  0  0  0  0  0  0  0  0  0  0
    1.8911   12.3619    5.4745 H   0  0  0  0  0  0  0  0  0  0  0  0
  1  2  1  6  0  0  0
  1  3  1  0  0  0  0
  3 19  1  0  0  0  0
  4  3  1  0  0  0  0
  5  1  1  0  0  0  0
  5  8  1  0  0  0  0
  6  5  1  0  0  0  0
  6 10  2  0  0  0  0
  7  6  1  0  0  0  0
  8  9  1  0  0  0  0
  9 32  1  0  0  0  0
  9 30  1  0  0  0  0
 11  8  2  0  0  0  0
 12  1  2  0  0  0  0
 12 13  1  0  0  0  0
 13  4  2  0  0  0  0
 14 13  1  0  0  0  0
 14 33  1  0  0  0  0
 15 14  2  0  0  0  0
 16 17  2  0  0  0  0
 16 15  1  0  0  0  0
 17 12  1  0  0  0  0
 18 36  1  0  0  0  0
 18 38  1  0  0  0  0
 18 16  1  0  0  0  0
 19 24  1  0  0  0  0
 20 19  2  0  0  0  0
 20 21  1  0  0  0  0
 21 22  2  0  0  0  0
 22 23  1  0  0  0  0
 22 25  1  0  0  0  0
 23 41  1  0  0  0  0
 24 42  1  0  0  0  0
 24 23  2  0  0  0  0
 25 45  1  0  0  0  0
 25 43  1  0  0  0  0
 26  5  1  0  0  0  0
 27  7  1  0  0  0  0
 28  7  1  0  0  0  0
 29  7  1  0  0  0  0
 31  9  1  0  0  0  0
 34 15  1  0  0  0  0
 35 17  1  0  0  0  0
 37 18  1  0  0  0  0
 39 20  1  0  0  0  0
 40 21  1  0  0  0  0
 44 25  1  0  0  0  0
M  END
$$$$
