CSD_code = JEVSEJ | q = 0 | S = 0 | Stoichiometry = C11H15Br2N3O3Zn | MND = 4
 OpenBabel04212202053D

 35 36  0  0  0  0  0  0  0  0999 V2000
   -1.2625    0.8744    3.2125 Zn  0  0  0  0  0  0  0  0  0  0  0  0
   -1.1780   -0.5765    1.4068 Br  0  0  0  0  0  0  0  0  0  0  0  0
   -3.3999    2.0627    3.5473 Br  0  0  0  0  0  0  0  0  0  0  0  0
   -0.3650    0.7984    4.8364 O   0  0  0  0  0  0  0  0  0  0  0  0
    1.5244    4.8376    9.0943 O   0  0  0  0  0  0  0  0  0  0  0  0
    1.5969    6.0989    7.3529 O   0  0  0  0  0  0  0  0  0  0  0  0
   -0.2798    2.6652    2.5874 N   0  0  0  0  0  0  0  0  0  0  0  0
   -2.6082    3.5725    0.8806 N   0  0  0  0  0  4  0  0  0  0  0  0
   -2.8657    3.1777    1.8477 H   0  0  0  0  0  0  0  0  0  0  0  0
   -2.4321    4.5742    0.9970 H   0  0  0  0  0  0  0  0  0  0  0  0
    1.3810    5.0339    7.9034 N   0  0  0  0  0  0  0  0  0  0  0  0
    0.3209    3.0903    4.9127 C   0  0  0  0  0  0  0  0  0  0  0  0
    0.0333    1.8083    5.4986 C   0  0  0  0  0  0  0  0  0  0  0  0
    0.2344    1.6677    6.9042 C   0  0  0  0  0  0  0  0  0  0  0  0
    0.0192    0.6990    7.3284 H   0  0  0  0  0  0  0  0  0  0  0  0
    0.6606    2.6979    7.6835 C   0  0  0  0  0  0  0  0  0  0  0  0
    0.7979    2.5843    8.7481 H   0  0  0  0  0  0  0  0  0  0  0  0
    0.9321    3.9470    7.0955 C   0  0  0  0  0  0  0  0  0  0  0  0
    0.7736    4.1248    5.7392 C   0  0  0  0  0  0  0  0  0  0  0  0
    0.9976    5.0946    5.3169 H   0  0  0  0  0  0  0  0  0  0  0  0
    0.2256    3.3892    3.5222 C   0  0  0  0  0  3  0  0  0  0  0  0
    0.6481    4.3640    3.2469 H   0  0  0  0  0  0  0  0  0  0  0  0
   -0.1660    3.1582    1.2321 C   0  0  0  0  0  0  0  0  0  0  0  0
    0.6658    2.6285    0.7531 H   0  0  0  0  0  0  0  0  0  0  0  0
    0.0714    4.2337    1.2307 H   0  0  0  0  0  0  0  0  0  0  0  0
   -1.4017    2.8872    0.3759 C   0  0  0  0  0  0  0  0  0  0  0  0
   -1.1988    3.2282   -0.6419 H   0  0  0  0  0  0  0  0  0  0  0  0
   -1.6038    1.8139    0.3442 H   0  0  0  0  0  0  0  0  0  0  0  0
   -3.8075    3.3731    0.0370 C   0  0  0  0  0  0  0  0  0  0  0  0
   -4.0108    2.3022    0.0035 H   0  0  0  0  0  0  0  0  0  0  0  0
   -3.5955    3.7249   -0.9752 H   0  0  0  0  0  0  0  0  0  0  0  0
   -4.9890    4.1099    0.6400 C   0  0  0  0  0  0  0  0  0  0  0  0
   -5.1798    3.7505    1.6477 H   0  0  0  0  0  0  0  0  0  0  0  0
   -5.8749    3.9313    0.0397 H   0  0  0  0  0  0  0  0  0  0  0  0
   -4.8107    5.1820    0.6710 H   0  0  0  0  0  0  0  0  0  0  0  0
  1  3  1  0  0  0  0
  1  4  1  0  0  0  0
  2  1  1  0  0  0  0
  4 13  1  0  0  0  0
  6 11  2  0  0  0  0
  7  1  1  0  0  0  0
  7 21  1  0  0  0  0
  8 10  1  0  0  0  0
  8  9  1  0  0  0  0
 11  5  2  0  0  0  0
 12 13  2  0  0  0  0
 12 19  1  0  0  0  0
 13 14  1  0  0  0  0
 14 15  1  0  0  0  0
 14 16  2  0  0  0  0
 16 17  1  0  0  0  0
 18 16  1  0  0  0  0
 18 11  1  0  0  0  0
 19 18  2  0  0  0  0
 20 19  1  0  0  0  0
 21 12  1  0  0  0  0
 22 21  1  0  0  0  0
 23  7  1  0  0  0  0
 24 23  1  0  0  0  0
 25 23  1  0  0  0  0
 26  8  1  0  0  0  0
 26 23  1  0  0  0  0
 27 26  1  0  0  0  0
 28 26  1  0  0  0  0
 29 32  1  0  0  0  0
 29  8  1  0  0  0  0
 30 29  1  0  0  0  0
 31 29  1  0  0  0  0
 32 35  1  0  0  0  0
 32 33  1  0  0  0  0
 34 32  1  0  0  0  0
M  END
$$$$
