CSD_code = JEXBET | q = 0 | S = 0 | Stoichiometry = C20H28Cl2Ti | MND = 12
 OpenBabel04212202053D

 51 53  0  0  1  0  0  0  0  0999 V2000
    1.0710    4.2365    4.3419 Ti  0  0  0  0  0  0  0  0  0  0  0  0
   -1.0621    4.8473    4.3009 Cl  0  0  0  0  0  0  0  0  0  0  0  0
    0.5604    2.0894    4.5020 Cl  0  0  0  0  0  0  0  0  0  0  0  0
    2.7684    5.2933    5.5661 C   0  0  0  0  0  0  0  0  0  0  0  0
    2.5658    4.0140    6.1307 C   0  0  0  0  0  0  0  0  0  0  0  0
    1.2950    3.9989    6.7747 C   0  0  0  0  0  0  0  0  0  0  0  0
    0.6980    5.2508    6.5253 C   0  0  0  0  0  0  0  0  0  0  0  0
    1.5779    6.0345    5.7478 C   0  0  2  0  0  0  0  0  0  0  0  0
    4.0020    5.8161    4.8913 C   0  0  0  0  0  0  0  0  0  0  0  0
    0.7837    3.0033    7.7933 C   0  0  0  0  0  0  0  0  0  0  0  0
    1.5476    1.6777    7.7301 C   0  0  0  0  0  0  0  0  0  0  0  0
   -0.7161    2.7471    7.6000 C   0  0  0  0  0  0  0  0  0  0  0  0
    1.0113    3.6358    9.1790 C   0  0  0  0  0  0  0  0  0  0  0  0
    2.6258    5.2766    2.9363 C   0  0  2  0  0  0  0  0  0  0  0  0
    1.3418    5.5224    2.4045 C   0  0  0  0  0  0  0  0  0  0  0  0
    0.8128    4.2958    1.9106 C   0  0  0  0  0  0  0  0  0  0  0  0
    1.7626    3.2948    2.2041 C   0  0  0  0  0  0  0  0  0  0  0  0
    2.8573    3.8810    2.8712 C   0  0  0  0  0  0  0  0  0  0  0  0
    3.6039    6.2760    3.4787 C   0  0  0  0  0  0  0  0  0  0  0  0
   -0.3761    4.0943    0.9963 C   0  0  0  0  0  0  0  0  0  0  0  0
   -1.2486    5.3499    0.9153 C   0  0  0  0  0  0  0  0  0  0  0  0
   -1.2257    2.9067    1.4662 C   0  0  0  0  0  0  0  0  0  0  0  0
    0.1822    3.7917   -0.4063 C   0  0  0  0  0  0  0  0  0  0  0  0
    3.3239    3.2456    6.2141 H   0  0  0  0  0  0  0  0  0  0  0  0
   -0.2448    5.5970    6.9261 H   0  0  0  0  0  0  0  0  0  0  0  0
    1.4307    7.0794    5.5014 H   0  0  0  0  0  0  0  0  0  0  0  0
    4.4233    6.6488    5.4627 H   0  0  0  0  0  0  0  0  0  0  0  0
    4.7589    5.0299    4.8354 H   0  0  0  0  0  0  0  0  0  0  0  0
    1.1270    0.9780    8.4489 H   0  0  0  0  0  0  0  0  0  0  0  0
    2.5969    1.8238    7.9772 H   0  0  0  0  0  0  0  0  0  0  0  0
    1.4734    1.2376    6.7393 H   0  0  0  0  0  0  0  0  0  0  0  0
   -1.2895    3.6626    7.7278 H   0  0  0  0  0  0  0  0  0  0  0  0
   -1.0665    2.0224    8.3317 H   0  0  0  0  0  0  0  0  0  0  0  0
   -0.9113    2.3548    6.6035 H   0  0  0  0  0  0  0  0  0  0  0  0
    0.4566    4.5659    9.2755 H   0  0  0  0  0  0  0  0  0  0  0  0
    0.6801    2.9526    9.9577 H   0  0  0  0  0  0  0  0  0  0  0  0
    2.0674    3.8497    9.3306 H   0  0  0  0  0  0  0  0  0  0  0  0
    0.9087    6.5032    2.2557 H   0  0  0  0  0  0  0  0  0  0  0  0
    1.7066    2.2573    1.9036 H   0  0  0  0  0  0  0  0  0  0  0  0
    3.7840    3.3747    3.1133 H   0  0  0  0  0  0  0  0  0  0  0  0
    4.4843    6.3391    2.8314 H   0  0  0  0  0  0  0  0  0  0  0  0
    3.1432    7.2664    3.5171 H   0  0  0  0  0  0  0  0  0  0  0  0
   -2.1079    5.1579    0.2767 H   0  0  0  0  0  0  0  0  0  0  0  0
   -0.6904    6.1812    0.4895 H   0  0  0  0  0  0  0  0  0  0  0  0
   -1.6100    5.6307    1.9011 H   0  0  0  0  0  0  0  0  0  0  0  0
   -0.6373    1.9921    1.4992 H   0  0  0  0  0  0  0  0  0  0  0  0
   -1.6243    3.0947    2.4618 H   0  0  0  0  0  0  0  0  0  0  0  0
   -2.0590    2.7528    0.7840 H   0  0  0  0  0  0  0  0  0  0  0  0
    0.7698    2.8771   -0.4012 H   0  0  0  0  0  0  0  0  0  0  0  0
    0.8185    4.6066   -0.7455 H   0  0  0  0  0  0  0  0  0  0  0  0
   -0.6355    3.6730   -1.1134 H   0  0  0  0  0  0  0  0  0  0  0  0
  1  3  1  0  0  0  0
  1  8  1  0  0  0  0
  2  1  1  0  0  0  0
  4  8  1  0  0  0  0
  4  5  2  0  0  0  0
  5 24  1  0  0  0  0
  5  6  1  0  0  0  0
  6 10  1  0  0  0  0
  7  6  2  0  0  0  0
  7 25  1  0  0  0  0
  8 26  1  6  0  0  0
  8  7  1  0  0  0  0
  9 27  1  0  0  0  0
  9  4  1  0  0  0  0
 10 13  1  0  0  0  0
 11 10  1  0  0  0  0
 11 30  1  0  0  0  0
 11 29  1  0  0  0  0
 12 32  1  0  0  0  0
 12 10  1  0  0  0  0
 12 33  1  0  0  0  0
 13 35  1  0  0  0  0
 13 37  1  0  0  0  0
 13 36  1  0  0  0  0
 14 15  1  6  0  0  0
 14 19  1  0  0  0  0
 14  1  1  0  0  0  0
 16 17  1  0  0  0  0
 16 15  2  0  0  0  0
 17 18  2  0  0  0  0
 18 14  1  0  0  0  0
 18 40  1  0  0  0  0
 19 42  1  0  0  0  0
 19  9  1  0  0  0  0
 20 22  1  0  0  0  0
 20 16  1  0  0  0  0
 21 20  1  0  0  0  0
 21 45  1  0  0  0  0
 22 46  1  0  0  0  0
 22 47  1  0  0  0  0
 23 49  1  0  0  0  0
 23 20  1  0  0  0  0
 28  9  1  0  0  0  0
 31 11  1  0  0  0  0
 34 12  1  0  0  0  0
 38 15  1  0  0  0  0
 39 17  1  0  0  0  0
 41 19  1  0  0  0  0
 43 21  1  0  0  0  0
 44 21  1  0  0  0  0
 48 22  1  0  0  0  0
 50 23  1  0  0  0  0
 51 23  1  0  0  0  0
M  END
$$$$
