CSD_code = JEXHUQ | q = 0 | S = 0 | Stoichiometry = C21H26ClOP2Rh | MND = 4
 OpenBabel04212202053D

 52 55  0  0  0  0  0  0  0  0999 V2000
   -0.0002    8.1249    3.0594 Rh  0  0  0  0  0  0  0  0  0  0  0  0
    1.6850    8.3543    1.5600 P   0  0  0  0  0  4  0  0  0  0  0  0
   -0.0006   10.3458    3.0590 Cl  0  0  0  0  0  0  0  0  0  0  0  0
    0.0002    5.1453    3.0601 O   0  0  0  0  0  1  0  0  0  0  0  0
    2.6693    6.4380   -0.3347 C   0  0  0  0  0  0  0  0  0  0  0  0
    2.2309    7.0143   -1.1359 H   0  0  0  0  0  0  0  0  0  0  0  0
    2.5613    6.8613    0.9821 C   0  0  0  0  0  0  0  0  0  0  0  0
    3.1208    6.0822    1.9931 C   0  0  0  0  0  0  0  0  0  0  0  0
    3.0112    6.4087    3.0219 H   0  0  0  0  0  0  0  0  0  0  0  0
    3.7927    4.9142    1.6942 C   0  0  0  0  0  0  0  0  0  0  0  0
    4.2232    4.3183    2.4856 H   0  0  0  0  0  0  0  0  0  0  0  0
    3.9051    4.5036    0.3745 C   0  0  0  0  0  0  0  0  0  0  0  0
    4.4254    3.5880    0.1351 H   0  0  0  0  0  0  0  0  0  0  0  0
    3.3416    5.2645   -0.6344 C   0  0  0  0  0  0  0  0  0  0  0  0
    3.4223    4.9424   -1.6627 H   0  0  0  0  0  0  0  0  0  0  0  0
    0.0000    6.2974    3.0597 C   0  0  0  0  0  2  0  0  0  0  0  0
    3.1301    9.3896    2.1135 C   0  0  0  0  0  0  0  0  0  0  0  0
    2.9787    9.7329    3.1386 H   0  0  0  0  0  0  0  0  0  0  0  0
    4.0325    8.7733    2.0818 H   0  0  0  0  0  0  0  0  0  0  0  0
    3.2202   10.5618    1.1355 C   0  0  0  0  0  0  0  0  0  0  0  0
    2.5510   11.3586    1.4646 H   0  0  0  0  0  0  0  0  0  0  0  0
    4.2355   10.9583    1.0915 H   0  0  0  0  0  0  0  0  0  0  0  0
    2.7518   10.0485   -0.2218 C   0  0  0  0  0  0  0  0  0  0  0  0
    2.6507   10.8591   -0.9451 H   0  0  0  0  0  0  0  0  0  0  0  0
    3.4730    9.3246   -0.6097 H   0  0  0  0  0  0  0  0  0  0  0  0
    1.4124    9.3699    0.0458 C   0  0  0  0  0  0  0  0  0  0  0  0
    1.0394    8.7730   -0.7870 H   0  0  0  0  0  0  0  0  0  0  0  0
    0.6545   10.1182    0.2949 H   0  0  0  0  0  0  0  0  0  0  0  0
   -1.6854    8.3544    4.5587 P   0  0  0  0  0  4  0  0  0  0  0  0
   -2.6690    6.4379    6.4537 C   0  0  0  0  0  0  0  0  0  0  0  0
   -2.2304    7.0142    7.2548 H   0  0  0  0  0  0  0  0  0  0  0  0
   -2.5614    6.8613    5.1368 C   0  0  0  0  0  0  0  0  0  0  0  0
   -3.1212    6.0823    4.1260 C   0  0  0  0  0  0  0  0  0  0  0  0
   -3.0120    6.4089    3.0972 H   0  0  0  0  0  0  0  0  0  0  0  0
   -3.7929    4.9142    4.4250 C   0  0  0  0  0  0  0  0  0  0  0  0
   -4.2236    4.3183    3.6337 H   0  0  0  0  0  0  0  0  0  0  0  0
   -3.9048    4.5034    5.7446 C   0  0  0  0  0  0  0  0  0  0  0  0
   -4.4248    3.5877    5.9841 H   0  0  0  0  0  0  0  0  0  0  0  0
   -3.3411    5.2643    6.7534 C   0  0  0  0  0  0  0  0  0  0  0  0
   -3.4214    4.9421    7.7817 H   0  0  0  0  0  0  0  0  0  0  0  0
   -3.1307    9.3898    4.0058 C   0  0  0  0  0  0  0  0  0  0  0  0
   -2.9796    9.7331    2.9806 H   0  0  0  0  0  0  0  0  0  0  0  0
   -4.0330    8.7735    4.0380 H   0  0  0  0  0  0  0  0  0  0  0  0
   -3.2202   10.5621    4.9838 C   0  0  0  0  0  0  0  0  0  0  0  0
   -2.5510   11.3587    4.6545 H   0  0  0  0  0  0  0  0  0  0  0  0
   -4.2354   10.9587    5.0282 H   0  0  0  0  0  0  0  0  0  0  0  0
   -2.7515   10.0487    6.3410 C   0  0  0  0  0  0  0  0  0  0  0  0
   -2.6501   10.8593    7.0642 H   0  0  0  0  0  0  0  0  0  0  0  0
   -3.4726    9.3249    6.7291 H   0  0  0  0  0  0  0  0  0  0  0  0
   -1.4122    9.3699    6.0730 C   0  0  0  0  0  0  0  0  0  0  0  0
   -1.0391    8.7729    6.9057 H   0  0  0  0  0  0  0  0  0  0  0  0
   -0.6544   10.1181    5.8236 H   0  0  0  0  0  0  0  0  0  0  0  0
  1 16  1  0  0  0  0
  1 29  1  0  0  0  0
  2 17  1  0  0  0  0
  2  1  1  0  0  0  0
  3  1  1  0  0  0  0
  5  7  1  0  0  0  0
  6  5  1  0  0  0  0
  7  2  1  0  0  0  0
  7  8  2  0  0  0  0
  8  9  1  0  0  0  0
 10  8  1  0  0  0  0
 10 11  1  0  0  0  0
 12 10  2  0  0  0  0
 13 12  1  0  0  0  0
 14  5  2  0  0  0  0
 14 12  1  0  0  0  0
 15 14  1  0  0  0  0
 16  4  1  0  0  0  0
 17 18  1  0  0  0  0
 19 17  1  0  0  0  0
 20 21  1  0  0  0  0
 20 17  1  0  0  0  0
 22 20  1  0  0  0  0
 23 26  1  0  0  0  0
 23 20  1  0  0  0  0
 24 23  1  0  0  0  0
 25 23  1  0  0  0  0
 26 28  1  0  0  0  0
 26  2  1  0  0  0  0
 27 26  1  0  0  0  0
 29 32  1  0  0  0  0
 29 50  1  0  0  0  0
 30 39  1  0  0  0  0
 30 31  1  0  0  0  0
 32 30  2  0  0  0  0
 33 35  2  0  0  0  0
 33 32  1  0  0  0  0
 34 33  1  0  0  0  0
 35 37  1  0  0  0  0
 36 35  1  0  0  0  0
 37 38  1  0  0  0  0
 37 39  2  0  0  0  0
 39 40  1  0  0  0  0
 41 43  1  0  0  0  0
 41 29  1  0  0  0  0
 41 44  1  0  0  0  0
 42 41  1  0  0  0  0
 44 46  1  0  0  0  0
 44 47  1  0  0  0  0
 45 44  1  0  0  0  0
 47 49  1  0  0  0  0
 47 48  1  0  0  0  0
 50 47  1  0  0  0  0
 50 51  1  0  0  0  0
 52 50  1  0  0  0  0
M  END
$$$$
