CSD_code = JEXHAW | q = 0 | S = 0 | Stoichiometry = C22H30Cl2P2Pt | MND = 4
 OpenBabel04212202053D

 57 60  0  0  0  0  0  0  0  0999 V2000
    0.6422    6.5207   10.6113 Pt  0  0  0  0  0  0  0  0  0  0  0  0
    0.3836    5.4860    8.5925 P   0  0  0  0  0  4  0  0  0  0  0  0
    0.3636    8.7736   10.3667 P   0  0  0  0  0  4  0  0  0  0  0  0
    0.8315    7.2159   12.8086 Cl  0  0  0  0  0  0  0  0  0  0  0  0
    1.1180    4.3355   11.1972 Cl  0  0  0  0  0  0  0  0  0  0  0  0
   -0.7522    4.0460    8.6259 C   0  0  0  0  0  0  0  0  0  0  0  0
   -0.7703    3.5665    7.6429 H   0  0  0  0  0  0  0  0  0  0  0  0
   -0.3940    3.3315    9.3679 H   0  0  0  0  0  0  0  0  0  0  0  0
   -2.1355    4.5704    9.0047 C   0  0  0  0  0  0  0  0  0  0  0  0
   -2.8121    3.7306    9.1794 H   0  0  0  0  0  0  0  0  0  0  0  0
   -2.0469    5.1287    9.9443 H   0  0  0  0  0  0  0  0  0  0  0  0
   -2.7224    5.4770    7.9257 C   0  0  0  0  0  0  0  0  0  0  0  0
   -2.8190    4.9132    6.9937 H   0  0  0  0  0  0  0  0  0  0  0  0
   -3.7240    5.7910    8.2274 H   0  0  0  0  0  0  0  0  0  0  0  0
   -1.8673    6.7177    7.6797 C   0  0  0  0  0  0  0  0  0  0  0  0
   -1.7857    7.2828    8.6170 H   0  0  0  0  0  0  0  0  0  0  0  0
   -2.3605    7.3575    6.9426 H   0  0  0  0  0  0  0  0  0  0  0  0
   -0.4637    6.3558    7.2011 C   0  0  0  0  0  0  0  0  0  0  0  0
    0.0965    7.2463    6.9148 H   0  0  0  0  0  0  0  0  0  0  0  0
   -0.5100    5.6923    6.3335 H   0  0  0  0  0  0  0  0  0  0  0  0
    1.9475    4.9093    7.8819 C   0  0  0  0  0  0  0  0  0  0  0  0
    3.1176    5.2930    8.5281 C   0  0  0  0  0  0  0  0  0  0  0  0
    3.0421    5.8832    9.4369 H   0  0  0  0  0  0  0  0  0  0  0  0
    4.3489    4.9017    8.0374 C   0  0  0  0  0  0  0  0  0  0  0  0
    5.2540    5.1968    8.5471 H   0  0  0  0  0  0  0  0  0  0  0  0
    4.4171    4.1227    6.8938 C   0  0  0  0  0  0  0  0  0  0  0  0
    5.3765    3.8100    6.5092 H   0  0  0  0  0  0  0  0  0  0  0  0
    3.2547    3.7373    6.2451 C   0  0  0  0  0  0  0  0  0  0  0  0
    3.3108    3.1255    5.3565 H   0  0  0  0  0  0  0  0  0  0  0  0
    2.0215    4.1292    6.7334 C   0  0  0  0  0  0  0  0  0  0  0  0
    1.1203    3.8214    6.2223 H   0  0  0  0  0  0  0  0  0  0  0  0
    0.4612    9.5492    8.6934 C   0  0  0  0  0  0  0  0  0  0  0  0
   -0.3321    9.1637    8.0521 H   0  0  0  0  0  0  0  0  0  0  0  0
    0.3253   10.6300    8.7863 H   0  0  0  0  0  0  0  0  0  0  0  0
    1.8390    9.2254    8.1217 C   0  0  0  0  0  0  0  0  0  0  0  0
    1.9881    8.1386    8.1539 H   0  0  0  0  0  0  0  0  0  0  0  0
    1.8941    9.5420    7.0765 H   0  0  0  0  0  0  0  0  0  0  0  0
    2.9565    9.8987    8.9143 C   0  0  0  0  0  0  0  0  0  0  0  0
    2.8223   10.9834    8.8801 H   0  0  0  0  0  0  0  0  0  0  0  0
    3.9141    9.6690    8.4420 H   0  0  0  0  0  0  0  0  0  0  0  0
    2.9939    9.4411   10.3703 C   0  0  0  0  0  0  0  0  0  0  0  0
    3.8423    9.9088   10.8752 H   0  0  0  0  0  0  0  0  0  0  0  0
    3.1394    8.3550   10.4095 H   0  0  0  0  0  0  0  0  0  0  0  0
    1.7035    9.7802   11.1132 C   0  0  0  0  0  0  0  0  0  0  0  0
    1.4641   10.8432   11.0172 H   0  0  0  0  0  0  0  0  0  0  0  0
    1.7886    9.5252   12.1701 H   0  0  0  0  0  0  0  0  0  0  0  0
   -1.1988    9.3805   11.0550 C   0  0  0  0  0  0  0  0  0  0  0  0
   -2.1169    8.4283   11.4842 C   0  0  0  0  0  0  0  0  0  0  0  0
   -1.8481    7.3778   11.4200 H   0  0  0  0  0  0  0  0  0  0  0  0
   -3.3339    8.8172   12.0113 C   0  0  0  0  0  0  0  0  0  0  0  0
   -4.0398    8.0737   12.3505 H   0  0  0  0  0  0  0  0  0  0  0  0
   -3.6411   10.1644   12.1109 C   0  0  0  0  0  0  0  0  0  0  0  0
   -4.5885   10.4734   12.5271 H   0  0  0  0  0  0  0  0  0  0  0  0
   -2.7313   11.1181   11.6831 C   0  0  0  0  0  0  0  0  0  0  0  0
   -2.9717   12.1681   11.7659 H   0  0  0  0  0  0  0  0  0  0  0  0
   -1.5133   10.7312   11.1543 C   0  0  0  0  0  0  0  0  0  0  0  0
   -0.8087   11.4822   10.8266 H   0  0  0  0  0  0  0  0  0  0  0  0
  1  5  1  0  0  0  0
  1  4  1  0  0  0  0
  2  6  1  0  0  0  0
  2  1  1  0  0  0  0
  3  1  1  0  0  0  0
  3 47  1  0  0  0  0
  3 44  1  0  0  0  0
  6  9  1  0  0  0  0
  6  8  1  0  0  0  0
  7  6  1  0  0  0  0
  9 10  1  0  0  0  0
  9 11  1  0  0  0  0
 12 14  1  0  0  0  0
 12  9  1  0  0  0  0
 13 12  1  0  0  0  0
 15 12  1  0  0  0  0
 15 16  1  0  0  0  0
 17 15  1  0  0  0  0
 18 15  1  0  0  0  0
 18  2  1  0  0  0  0
 19 18  1  0  0  0  0
 20 18  1  0  0  0  0
 21 22  1  0  0  0  0
 21  2  1  0  0  0  0
 22 23  1  0  0  0  0
 24 22  2  0  0  0  0
 24 25  1  0  0  0  0
 26 24  1  0  0  0  0
 27 26  1  0  0  0  0
 28 30  1  0  0  0  0
 28 26  2  0  0  0  0
 29 28  1  0  0  0  0
 30 21  2  0  0  0  0
 31 30  1  0  0  0  0
 32 34  1  0  0  0  0
 32  3  1  0  0  0  0
 33 32  1  0  0  0  0
 35 36  1  0  0  0  0
 35 32  1  0  0  0  0
 35 38  1  0  0  0  0
 37 35  1  0  0  0  0
 38 41  1  0  0  0  0
 39 38  1  0  0  0  0
 40 38  1  0  0  0  0
 41 43  1  0  0  0  0
 41 42  1  0  0  0  0
 41 44  1  0  0  0  0
 44 46  1  0  0  0  0
 45 44  1  0  0  0  0
 47 56  2  0  0  0  0
 47 48  1  0  0  0  0
 48 50  2  0  0  0  0
 49 48  1  0  0  0  0
 50 52  1  0  0  0  0
 50 51  1  0  0  0  0
 52 53  1  0  0  0  0
 54 55  1  0  0  0  0
 54 52  2  0  0  0  0
 56 54  1  0  0  0  0
 57 56  1  0  0  0  0
M  END
$$$$
