CSD_code = JEXZAO | q = 0 | S = 0 | Stoichiometry = C14H16Cl2N2Pd | MND = 4
 OpenBabel04212202053D

 35 37  0  0  0  0  0  0  0  0999 V2000
    0.8270    0.8803    9.1075 Pd  0  0  0  0  0  0  0  0  0  0  0  0
   -2.0816    1.1425    9.7596 C   0  0  0  0  0  3  0  0  0  0  0  0
   -1.7943    2.1743    9.9300 H   0  0  0  0  0  0  0  0  0  0  0  0
   -3.3697    0.6891    9.9760 C   0  0  0  0  0  0  0  0  0  0  0  0
   -4.1271    1.3699   10.3283 H   0  0  0  0  0  0  0  0  0  0  0  0
   -3.6609   -0.6451    9.7326 C   0  0  0  0  0  0  0  0  0  0  0  0
   -4.6540   -1.0358    9.8910 H   0  0  0  0  0  0  0  0  0  0  0  0
   -2.6450   -1.4704    9.2792 C   0  0  0  0  0  0  0  0  0  0  0  0
   -2.8281   -2.5146    9.0763 H   0  0  0  0  0  0  0  0  0  0  0  0
   -1.3746   -0.9456    9.0824 C   0  0  0  0  0  0  0  0  0  0  0  0
   -0.2595   -1.8291    8.5671 C   0  0  0  0  0  0  0  0  0  0  0  0
   -0.4937   -2.1236    7.5371 H   0  0  0  0  0  0  0  0  0  0  0  0
   -0.2398   -2.7525    9.1629 H   0  0  0  0  0  0  0  0  0  0  0  0
    1.8641   -1.4047    7.4198 C   0  0  0  0  0  0  0  0  0  0  0  0
    2.9870   -2.2312    7.5312 C   0  0  0  0  0  0  0  0  0  0  0  0
    3.7523   -2.4813    6.4021 C   0  0  0  0  0  0  0  0  0  0  0  0
    4.6231   -3.1144    6.4830 H   0  0  0  0  0  0  0  0  0  0  0  0
    3.4138   -1.9266    5.1825 C   0  0  0  0  0  0  0  0  0  0  0  0
    4.0132   -2.1325    4.3091 H   0  0  0  0  0  0  0  0  0  0  0  0
    2.3231   -1.0838    5.0906 C   0  0  0  0  0  0  0  0  0  0  0  0
    2.0833   -0.6201    4.1454 H   0  0  0  0  0  0  0  0  0  0  0  0
    1.5378   -0.7991    6.2003 C   0  0  0  0  0  0  0  0  0  0  0  0
    3.3946   -2.8046    8.8579 C   0  0  0  0  0  0  0  0  0  0  0  0
    4.2716   -3.4346    8.7372 H   0  0  0  0  0  0  0  0  0  0  0  0
    2.6049   -3.4130    9.3020 H   0  0  0  0  0  0  0  0  0  0  0  0
    3.6576   -1.9991    9.5461 H   0  0  0  0  0  0  0  0  0  0  0  0
    0.4304    0.2083    6.0771 C   0  0  0  0  0  0  0  0  0  0  0  0
    0.4176    0.6202    5.0713 H   0  0  0  0  0  0  0  0  0  0  0  0
    0.6087    1.0487    6.7850 H   0  0  0  0  0  0  0  0  0  0  0  0
   -0.5543   -0.2164    6.2796 H   0  0  0  0  0  0  0  0  0  0  0  0
    3.0215    1.1842    8.9442 Cl  0  0  0  0  0  0  0  0  0  0  0  0
    0.5102    3.0225    9.6542 Cl  0  0  0  0  0  0  0  0  0  0  0  0
   -1.1059    0.3451    9.3225 N   0  0  0  0  0  0  0  0  0  0  0  0
    1.0530   -1.1698    8.5812 N   0  0  0  0  0  4  0  0  0  0  0  0
    1.5864   -1.4519    9.4055 H   0  0  0  0  0  0  0  0  0  0  0  0
  1 33  1  0  0  0  0
  1 32  1  0  0  0  0
  2  3  1  0  0  0  0
  2  4  1  0  0  0  0
  4  5  1  0  0  0  0
  6  7  1  0  0  0  0
  6  4  2  0  0  0  0
  8  6  1  0  0  0  0
  9  8  1  0  0  0  0
 10  8  2  0  0  0  0
 10 33  1  0  0  0  0
 11 34  1  0  0  0  0
 11 10  1  0  0  0  0
 11 13  1  0  0  0  0
 12 11  1  0  0  0  0
 14 15  1  0  0  0  0
 14 34  1  0  0  0  0
 15 23  1  0  0  0  0
 16 17  1  0  0  0  0
 16 15  2  0  0  0  0
 18 16  1  0  0  0  0
 19 18  1  0  0  0  0
 20 18  2  0  0  0  0
 20 22  1  0  0  0  0
 21 20  1  0  0  0  0
 22 14  2  0  0  0  0
 23 25  1  0  0  0  0
 23 26  1  0  0  0  0
 24 23  1  0  0  0  0
 27 22  1  0  0  0  0
 27 30  1  0  0  0  0
 27 29  1  0  0  0  0
 28 27  1  0  0  0  0
 31  1  1  0  0  0  0
 33  2  1  0  0  0  0
 34  1  1  0  0  0  0
 34 35  1  0  0  0  0
M  END
$$$$
