CSD_code = JEYDUN | q = 0 | S = 0 | Stoichiometry = C15H33AgClN3 | MND = 4
 OpenBabel04212202053D

 53 55  0  0  0  0  0  0  0  0999 V2000
    1.5113    4.2658    5.2846 Ag  0  0  0  0  0  0  0  0  0  0  0  0
   -0.8930    4.2657    5.6963 Cl  0  0  0  0  0  0  0  0  0  0  0  0
    1.4429    4.2657    2.7600 N   0  0  0  0  0  4  0  0  0  0  0  0
    0.6796    5.4674    2.4161 C   0  0  0  0  0  0  0  0  0  0  0  0
    0.2841    5.5106    0.9394 C   0  0  0  0  0  0  0  0  0  0  0  0
   -0.5242    4.2657    0.5857 C   0  0  0  0  0  0  0  0  0  0  0  0
    2.0258    6.4433    6.4644 N   0  0  0  0  0  4  0  0  0  0  0  0
    1.6073    6.2187    7.8498 C   0  0  0  0  0  0  0  0  0  0  0  0
    1.5764    7.5074    8.6728 C   0  0  0  0  0  0  0  0  0  0  0  0
    0.6476    8.5201    8.0096 C   0  0  0  0  0  0  0  0  0  0  0  0
    1.0990    8.7542    6.5710 C   0  0  0  0  0  0  0  0  0  0  0  0
    1.1466    7.4225    5.8209 C   0  0  0  0  0  0  0  0  0  0  0  0
    2.2931    4.2658    2.1964 H   0  0  0  0  0  0  0  0  0  0  0  0
    1.2845    6.3419    2.6691 H   0  0  0  0  0  0  0  0  0  0  0  0
   -0.2158    5.4722    3.0425 H   0  0  0  0  0  0  0  0  0  0  0  0
    1.1853    5.5519    0.3193 H   0  0  0  0  0  0  0  0  0  0  0  0
   -0.2991    6.4117    0.7444 H   0  0  0  0  0  0  0  0  0  0  0  0
   -0.7801    4.2657   -0.4761 H   0  0  0  0  0  0  0  0  0  0  0  0
   -1.4523    4.2656    1.1599 H   0  0  0  0  0  0  0  0  0  0  0  0
    2.9673    6.8355    6.4833 H   0  0  0  0  0  0  0  0  0  0  0  0
    2.2941    5.4994    8.3035 H   0  0  0  0  0  0  0  0  0  0  0  0
    0.6097    5.7741    7.8176 H   0  0  0  0  0  0  0  0  0  0  0  0
    2.5865    7.9242    8.7403 H   0  0  0  0  0  0  0  0  0  0  0  0
    1.2369    7.2847    9.6853 H   0  0  0  0  0  0  0  0  0  0  0  0
    0.6467    9.4593    8.5670 H   0  0  0  0  0  0  0  0  0  0  0  0
   -0.3698    8.1249    8.0059 H   0  0  0  0  0  0  0  0  0  0  0  0
    2.0929    9.2132    6.5682 H   0  0  0  0  0  0  0  0  0  0  0  0
    0.4138    9.4339    6.0627 H   0  0  0  0  0  0  0  0  0  0  0  0
    0.1477    6.9819    5.7792 H   0  0  0  0  0  0  0  0  0  0  0  0
    1.4986    7.5795    4.7982 H   0  0  0  0  0  0  0  0  0  0  0  0
    0.6797    3.0640    2.4161 C   0  0  0  0  0  0  0  0  0  0  0  0
    0.2842    3.0208    0.9394 C   0  0  0  0  0  0  0  0  0  0  0  0
    2.0258    2.0882    6.4644 N   0  0  0  0  0  4  0  0  0  0  0  0
    1.6073    2.3129    7.8497 C   0  0  0  0  0  0  0  0  0  0  0  0
    1.5764    1.0242    8.6727 C   0  0  0  0  0  0  0  0  0  0  0  0
    0.6476    0.0114    8.0096 C   0  0  0  0  0  0  0  0  0  0  0  0
    1.0990   -0.2227    6.5710 C   0  0  0  0  0  0  0  0  0  0  0  0
    1.1466    1.1090    5.8208 C   0  0  0  0  0  0  0  0  0  0  0  0
    1.2847    2.1896    2.6690 H   0  0  0  0  0  0  0  0  0  0  0  0
   -0.2157    3.0592    3.0424 H   0  0  0  0  0  0  0  0  0  0  0  0
    1.1854    2.9796    0.3192 H   0  0  0  0  0  0  0  0  0  0  0  0
   -0.2989    2.1197    0.7444 H   0  0  0  0  0  0  0  0  0  0  0  0
    2.9673    1.6960    6.4833 H   0  0  0  0  0  0  0  0  0  0  0  0
    2.2941    3.0321    8.3034 H   0  0  0  0  0  0  0  0  0  0  0  0
    0.6097    2.7574    7.8176 H   0  0  0  0  0  0  0  0  0  0  0  0
    2.5864    0.6073    8.7403 H   0  0  0  0  0  0  0  0  0  0  0  0
    1.2368    1.2468    9.6852 H   0  0  0  0  0  0  0  0  0  0  0  0
    0.6467   -0.9278    8.5670 H   0  0  0  0  0  0  0  0  0  0  0  0
   -0.3699    0.4066    8.0059 H   0  0  0  0  0  0  0  0  0  0  0  0
    2.0929   -0.6817    6.5682 H   0  0  0  0  0  0  0  0  0  0  0  0
    0.4137   -0.9024    6.0627 H   0  0  0  0  0  0  0  0  0  0  0  0
    0.1477    1.5496    5.7792 H   0  0  0  0  0  0  0  0  0  0  0  0
    1.4985    0.9520    4.7982 H   0  0  0  0  0  0  0  0  0  0  0  0
  1  2  1  0  0  0  0
  1 33  1  0  0  0  0
  1  7  1  0  0  0  0
  3  1  1  0  0  0  0
  4 14  1  0  0  0  0
  4  3  1  0  0  0  0
  4 15  1  0  0  0  0
  5  4  1  0  0  0  0
  6 32  1  0  0  0  0
  6  5  1  0  0  0  0
  6 19  1  0  0  0  0
  7 20  1  0  0  0  0
  7  8  1  0  0  0  0
  8 21  1  0  0  0  0
  8  9  1  0  0  0  0
  9 23  1  0  0  0  0
  9 24  1  0  0  0  0
 10 25  1  0  0  0  0
 10  9  1  0  0  0  0
 11 10  1  0  0  0  0
 12  7  1  0  0  0  0
 12 11  1  0  0  0  0
 13  3  1  0  0  0  0
 16  5  1  0  0  0  0
 17  5  1  0  0  0  0
 18  6  1  0  0  0  0
 22  8  1  0  0  0  0
 26 10  1  0  0  0  0
 27 11  1  0  0  0  0
 28 11  1  0  0  0  0
 29 12  1  0  0  0  0
 30 12  1  0  0  0  0
 31 39  1  0  0  0  0
 31  3  1  0  0  0  0
 31 40  1  0  0  0  0
 32 31  1  0  0  0  0
 33 43  1  0  0  0  0
 33 34  1  0  0  0  0
 34 44  1  0  0  0  0
 34 35  1  0  0  0  0
 35 46  1  0  0  0  0
 35 47  1  0  0  0  0
 36 48  1  0  0  0  0
 36 35  1  0  0  0  0
 37 36  1  0  0  0  0
 38 33  1  0  0  0  0
 38 37  1  0  0  0  0
 41 32  1  0  0  0  0
 42 32  1  0  0  0  0
 45 34  1  0  0  0  0
 49 36  1  0  0  0  0
 50 37  1  0  0  0  0
 51 37  1  0  0  0  0
 52 38  1  0  0  0  0
 53 38  1  0  0  0  0
M  END
$$$$
