CSD_code = JEZLEF | q = -1 | S = 0 | Stoichiometry = C18H15Br5PPt(1-) | MND = 6
 OpenBabel04212202053D

 40 42  0  0  0  0  0  0  0  0999 V2000
    2.1641    4.4032    1.5065 Pt  0  0  0  0  0  0  0  0  0  0  0  0
    0.9843    2.7450   -0.0258 Br  0  0  0  0  0  0  0  0  0  0  0  0
    3.2266    6.2544    2.9128 Br  0  0  0  0  0  0  0  0  0  0  0  0
    4.3341    3.8236    0.2854 Br  0  0  0  0  0  0  0  0  0  0  0  0
    0.0002    4.6192    2.8097 Br  0  0  0  0  0  0  0  0  0  0  0  0
    1.4991    6.1850   -0.1460 Br  0  0  0  0  0  0  0  0  0  0  0  0
    2.9547    2.7573    3.0552 P   0  0  0  0  0  4  0  0  0  0  0  0
    1.6440    1.4509    5.2154 C   0  0  0  0  0  0  0  0  0  0  0  0
    1.0716    1.4396    6.4749 C   0  0  0  0  0  0  0  0  0  0  0  0
    0.9675    2.6088    7.2080 C   0  0  0  0  0  0  0  0  0  0  0  0
    1.4504    3.7953    6.6821 C   0  0  0  0  0  0  0  0  0  0  0  0
    2.0245    3.8131    5.4258 C   0  0  0  0  0  0  0  0  0  0  0  0
    2.1144    2.6429    4.6765 C   0  0  0  0  0  0  0  0  0  0  0  0
    5.6139    3.7240    3.4564 C   0  0  0  0  0  0  0  0  0  0  0  0
    6.8789    3.6219    4.0117 C   0  0  0  0  0  0  0  0  0  0  0  0
    7.2107    2.5387    4.8040 C   0  0  0  0  0  0  0  0  0  0  0  0
    6.2698    1.5496    5.0468 C   0  0  0  0  0  0  0  0  0  0  0  0
    5.0073    1.6468    4.4980 C   0  0  0  0  0  0  0  0  0  0  0  0
    4.6721    2.7341    3.6914 C   0  0  0  0  0  0  0  0  0  0  0  0
    1.5144    0.5450    2.2202 C   0  0  0  0  0  0  0  0  0  0  0  0
    1.3508   -0.6776    1.5980 C   0  0  0  0  0  0  0  0  0  0  0  0
    2.4449   -1.3303    1.0536 C   0  0  0  0  0  0  0  0  0  0  0  0
    3.7026   -0.7548    1.1231 C   0  0  0  0  0  0  0  0  0  0  0  0
    3.8773    0.4643    1.7524 C   0  0  0  0  0  0  0  0  0  0  0  0
    2.7861    1.1076    2.3261 C   0  0  0  0  0  0  0  0  0  0  0  0
    1.7177    0.5276    4.6580 H   0  0  0  0  0  0  0  0  0  0  0  0
    0.7027    0.5085    6.8824 H   0  0  0  0  0  0  0  0  0  0  0  0
    0.5107    2.5941    8.1873 H   0  0  0  0  0  0  0  0  0  0  0  0
    1.3754    4.7123    7.2470 H   0  0  0  0  0  0  0  0  0  0  0  0
    2.3954    4.7443    5.0225 H   0  0  0  0  0  0  0  0  0  0  0  0
    5.3813    4.5776    2.8417 H   0  0  0  0  0  0  0  0  0  0  0  0
    7.6042    4.3979    3.8184 H   0  0  0  0  0  0  0  0  0  0  0  0
    8.1989    2.4612    5.2347 H   0  0  0  0  0  0  0  0  0  0  0  0
    6.5207    0.7002    5.6667 H   0  0  0  0  0  0  0  0  0  0  0  0
    4.2756    0.8736    4.6904 H   0  0  0  0  0  0  0  0  0  0  0  0
    0.6556    1.0778    2.6073 H   0  0  0  0  0  0  0  0  0  0  0  0
    0.3640   -1.1089    1.5173 H   0  0  0  0  0  0  0  0  0  0  0  0
    2.3128   -2.2805    0.5559 H   0  0  0  0  0  0  0  0  0  0  0  0
    4.5517   -1.2492    0.6736 H   0  0  0  0  0  0  0  0  0  0  0  0
    4.8546    0.9253    1.7846 H   0  0  0  0  0  0  0  0  0  0  0  0
  1  5  1  0  0  0  0
  1  3  1  0  0  0  0
  1  7  1  0  0  0  0
  2  1  1  0  0  0  0
  4  1  1  0  0  0  0
  6  1  1  0  0  0  0
  7 19  1  0  0  0  0
  7 13  1  0  0  0  0
  8  9  1  0  0  0  0
  9 27  1  0  0  0  0
  9 10  2  0  0  0  0
 10 28  1  0  0  0  0
 11 10  1  0  0  0  0
 11 29  1  0  0  0  0
 12 11  2  0  0  0  0
 13  8  2  0  0  0  0
 13 12  1  0  0  0  0
 14 19  2  0  0  0  0
 14 15  1  0  0  0  0
 15 16  2  0  0  0  0
 16 17  1  0  0  0  0
 16 33  1  0  0  0  0
 17 34  1  0  0  0  0
 18 35  1  0  0  0  0
 18 17  2  0  0  0  0
 19 18  1  0  0  0  0
 20 25  1  0  0  0  0
 20 36  1  0  0  0  0
 21 20  2  0  0  0  0
 22 23  2  0  0  0  0
 22 21  1  0  0  0  0
 23 24  1  0  0  0  0
 24 40  1  0  0  0  0
 24 25  2  0  0  0  0
 25  7  1  0  0  0  0
 26  8  1  0  0  0  0
 30 12  1  0  0  0  0
 31 14  1  0  0  0  0
 32 15  1  0  0  0  0
 37 21  1  0  0  0  0
 38 22  1  0  0  0  0
 39 23  1  0  0  0  0
M  END
$$$$
