CSD_code = JIBLEL | q = 0 | S = 0 | Stoichiometry = C28H38Cl2Ti | MND = 12
 OpenBabel04212202053D

 69 74  0  0  1  0  0  0  0  0999 V2000
   -0.8669    3.2423    2.8017 Ti  0  0  0  0  0  0  0  0  0  0  0  0
   -0.4533    4.7298    1.2603 Cl  0  0  0  0  0  0  0  0  0  0  0  0
   -2.3553    4.5705    3.7738 Cl  0  0  0  0  0  0  0  0  0  0  0  0
    1.3598    2.4112    3.1998 C   0  0  0  0  0  0  0  0  0  0  0  0
    0.4419    1.6757    3.9862 C   0  0  0  0  0  0  0  0  0  0  0  0
   -0.1865    2.5703    4.8837 C   0  0  1  0  0  0  0  0  0  0  0  0
    0.3562    3.8615    4.6713 C   0  0  0  0  0  0  0  0  0  0  0  0
    1.3027    3.7682    3.6266 C   0  0  0  0  0  0  0  0  0  0  0  0
    2.4328    4.6680    3.2452 C   0  0  1  0  0  0  0  0  0  0  0  0
    3.7231    3.8707    3.6166 C   0  0  0  0  0  0  0  0  0  0  0  0
    3.5068    3.1285    2.2636 C   0  0  1  0  0  0  0  0  0  0  0  0
    2.4951    1.9582    2.3054 C   0  0  0  0  0  0  0  0  0  0  0  0
    2.7925    4.4022    1.7741 C   0  0  0  0  0  0  0  0  0  0  0  0
    4.9791    4.7403    3.5760 C   0  0  0  0  0  0  0  0  0  0  0  0
    3.7364    3.1352    4.9522 C   0  0  0  0  0  0  0  0  0  0  0  0
    3.1570    0.6782    2.8351 C   0  0  0  0  0  0  0  0  0  0  0  0
    2.0064    1.6583    0.8733 C   0  0  0  0  0  0  0  0  0  0  0  0
   -3.0834    2.5813    0.7507 C   0  0  0  0  0  0  0  0  0  0  0  0
   -1.8094    2.0895    0.5136 C   0  0  0  0  0  0  0  0  0  0  0  0
   -1.3429    1.4372    1.7000 C   0  0  2  0  0  0  0  0  0  0  0  0
   -2.4107    1.5246    2.6731 C   0  0  0  0  0  0  0  0  0  0  0  0
   -3.4607    2.2315    2.0758 C   0  0  0  0  0  0  0  0  0  0  0  0
   -4.8501    2.5470    2.5042 C   0  0  2  0  0  0  0  0  0  0  0  0
   -5.7780    2.0526    1.3550 C   0  0  0  0  0  0  0  0  0  0  0  0
   -5.3866    3.3739    0.6259 C   0  0  2  0  0  0  0  0  0  0  0  0
   -4.0483    3.3184   -0.1413 C   0  0  0  0  0  0  0  0  0  0  0  0
   -5.1526    3.9782    2.0235 C   0  0  0  0  0  0  0  0  0  0  0  0
   -7.2538    2.0586    1.7497 C   0  0  0  0  0  0  0  0  0  0  0  0
   -5.4727    0.6767    0.7741 C   0  0  0  0  0  0  0  0  0  0  0  0
   -3.5238    4.7401   -0.4114 C   0  0  0  0  0  0  0  0  0  0  0  0
   -4.2110    2.6407   -1.5088 C   0  0  0  0  0  0  0  0  0  0  0  0
    0.3352    0.5985    4.0095 H   0  0  0  0  0  0  0  0  0  0  0  0
   -0.8720    2.3000    5.6787 H   0  0  0  0  0  0  0  0  0  0  0  0
    0.1612    4.7392    5.2757 H   0  0  0  0  0  0  0  0  0  0  0  0
    2.3257    5.6952    3.5954 H   0  0  0  0  0  0  0  0  0  0  0  0
    4.4125    2.8260    1.7355 H   0  0  0  0  0  0  0  0  0  0  0  0
    1.9593    4.2878    1.0897 H   0  0  0  0  0  0  0  0  0  0  0  0
    3.4757    5.1435    1.3694 H   0  0  0  0  0  0  0  0  0  0  0  0
    5.0620    5.3154    2.6598 H   0  0  0  0  0  0  0  0  0  0  0  0
    5.8638    4.1116    3.6608 H   0  0  0  0  0  0  0  0  0  0  0  0
    4.9756    5.4360    4.4129 H   0  0  0  0  0  0  0  0  0  0  0  0
    2.8701    2.4994    5.0992 H   0  0  0  0  0  0  0  0  0  0  0  0
    3.7483    3.8698    5.7565 H   0  0  0  0  0  0  0  0  0  0  0  0
    4.6377    2.5309    5.0377 H   0  0  0  0  0  0  0  0  0  0  0  0
    3.5623    0.8149    3.8308 H   0  0  0  0  0  0  0  0  0  0  0  0
    3.9687    0.3887    2.1710 H   0  0  0  0  0  0  0  0  0  0  0  0
    2.4383   -0.1379    2.8665 H   0  0  0  0  0  0  0  0  0  0  0  0
    1.2623    2.3837    0.5430 H   0  0  0  0  0  0  0  0  0  0  0  0
    1.5615    0.6662    0.8278 H   0  0  0  0  0  0  0  0  0  0  0  0
    2.8469    1.6801    0.1826 H   0  0  0  0  0  0  0  0  0  0  0  0
   -1.2624    2.1416   -0.4173 H   0  0  0  0  0  0  0  0  0  0  0  0
   -0.6187    0.6298    1.6740 H   0  0  0  0  0  0  0  0  0  0  0  0
   -2.4898    0.9372    3.5839 H   0  0  0  0  0  0  0  0  0  0  0  0
   -5.0806    2.2647    3.5316 H   0  0  0  0  0  0  0  0  0  0  0  0
   -6.1644    3.8275    0.0093 H   0  0  0  0  0  0  0  0  0  0  0  0
   -6.0514    4.3954    2.4684 H   0  0  0  0  0  0  0  0  0  0  0  0
   -4.3445    4.6931    2.1341 H   0  0  0  0  0  0  0  0  0  0  0  0
   -7.5635    3.0008    2.1900 H   0  0  0  0  0  0  0  0  0  0  0  0
   -7.4511    1.2666    2.4701 H   0  0  0  0  0  0  0  0  0  0  0  0
   -7.8690    1.8790    0.8695 H   0  0  0  0  0  0  0  0  0  0  0  0
   -4.4295    0.5636    0.4976 H   0  0  0  0  0  0  0  0  0  0  0  0
   -6.0981    0.4840   -0.0955 H   0  0  0  0  0  0  0  0  0  0  0  0
   -5.7013   -0.0784    1.5258 H   0  0  0  0  0  0  0  0  0  0  0  0
   -3.2413    5.2488    0.5072 H   0  0  0  0  0  0  0  0  0  0  0  0
   -4.2824    5.3330   -0.9184 H   0  0  0  0  0  0  0  0  0  0  0  0
   -2.6393    4.6900   -1.0429 H   0  0  0  0  0  0  0  0  0  0  0  0
   -4.8963    3.2213   -2.1232 H   0  0  0  0  0  0  0  0  0  0  0  0
   -4.5996    1.6332   -1.4219 H   0  0  0  0  0  0  0  0  0  0  0  0
   -3.2516    2.5950   -2.0186 H   0  0  0  0  0  0  0  0  0  0  0  0
  1  3  1  0  0  0  0
  1  6  1  0  0  0  0
  2  1  1  0  0  0  0
  4  8  1  0  0  0  0
  4  5  2  0  0  0  0
  5 32  1  0  0  0  0
  5  6  1  0  0  0  0
  6 33  1  1  0  0  0
  7  6  1  0  0  0  0
  7 34  1  0  0  0  0
  8  7  2  0  0  0  0
  9 35  1  1  0  0  0
  9 10  1  0  0  0  0
  9  8  1  0  0  0  0
 10 15  1  0  0  0  0
 11 36  1  6  0  0  0
 11 12  1  0  0  0  0
 11 10  1  0  0  0  0
 12 16  1  0  0  0  0
 12  4  1  0  0  0  0
 13 11  1  0  0  0  0
 13  9  1  0  0  0  0
 14 10  1  0  0  0  0
 14 40  1  0  0  0  0
 14 41  1  0  0  0  0
 15 44  1  0  0  0  0
 15 42  1  0  0  0  0
 15 43  1  0  0  0  0
 16 47  1  0  0  0  0
 16 45  1  0  0  0  0
 17 12  1  0  0  0  0
 18 22  1  0  0  0  0
 19 18  2  0  0  0  0
 19 20  1  0  0  0  0
 20 52  1  6  0  0  0
 20 21  1  0  0  0  0
 20  1  1  0  0  0  0
 21 53  1  0  0  0  0
 22 23  1  0  0  0  0
 22 21  2  0  0  0  0
 23 54  1  1  0  0  0
 24 28  1  0  0  0  0
 24 23  1  0  0  0  0
 25 55  1  6  0  0  0
 25 24  1  0  0  0  0
 25 27  1  0  0  0  0
 26 25  1  0  0  0  0
 26 18  1  0  0  0  0
 27 57  1  0  0  0  0
 27 56  1  0  0  0  0
 27 23  1  0  0  0  0
 28 58  1  0  0  0  0
 28 59  1  0  0  0  0
 29 24  1  0  0  0  0
 29 63  1  0  0  0  0
 30 26  1  0  0  0  0
 30 64  1  0  0  0  0
 31 68  1  0  0  0  0
 31 26  1  0  0  0  0
 37 13  1  0  0  0  0
 38 13  1  0  0  0  0
 39 14  1  0  0  0  0
 46 16  1  0  0  0  0
 48 17  1  0  0  0  0
 49 17  1  0  0  0  0
 50 17  1  0  0  0  0
 51 19  1  0  0  0  0
 60 28  1  0  0  0  0
 61 29  1  0  0  0  0
 62 29  1  0  0  0  0
 65 30  1  0  0  0  0
 66 30  1  0  0  0  0
 67 31  1  0  0  0  0
 69 31  1  0  0  0  0
M  END
$$$$
