CSD_code = JIDYUT | q = 0 | S = 0 | Stoichiometry = C26H22ClFeN3O3 | MND = 6
 OpenBabel04212202053D

 56 62  0  0  1  0  0  0  0  0999 V2000
    7.4263    7.6230    0.4138 Fe  0  0  0  0  0  0  0  0  0  0  0  0
    6.1467    9.0019    1.4309 Cl  0  0  0  0  0  0  0  0  0  0  0  0
    9.9079    6.4420   -0.4685 C   0  0  0  0  0  0  0  0  0  0  0  0
   11.7618    6.1897    1.0631 C   0  0  0  0  0  0  0  0  0  0  0  0
   12.1541    5.7783    1.9809 H   0  0  0  0  0  0  0  0  0  0  0  0
   10.4579    5.9133    0.7017 C   0  0  0  0  0  0  0  0  0  0  0  0
    9.8512    5.3212    1.3677 H   0  0  0  0  0  0  0  0  0  0  0  0
   10.7193    7.2435   -1.2674 C   0  0  0  0  0  0  0  0  0  0  0  0
   10.3559    7.6871   -2.1789 H   0  0  0  0  0  0  0  0  0  0  0  0
   12.0235    7.5227   -0.8939 C   0  0  0  0  0  0  0  0  0  0  0  0
   12.6191    8.1660   -1.5227 H   0  0  0  0  0  0  0  0  0  0  0  0
   12.5545    7.0009    0.2696 C   0  0  0  0  0  0  0  0  0  0  0  0
   13.5665    7.2317    0.5627 H   0  0  0  0  0  0  0  0  0  0  0  0
    5.7388    6.4454   -3.1132 C   0  0  0  0  0  0  0  0  0  0  0  0
    6.1719    6.0732   -4.0290 H   0  0  0  0  0  0  0  0  0  0  0  0
    4.7580    7.3973   -0.7662 C   0  0  0  0  0  3  0  0  0  0  0  0
    4.4305    7.7982    0.1813 H   0  0  0  0  0  0  0  0  0  0  0  0
    8.0460    6.5782   -2.0739 C   0  0  0  0  0  0  0  0  0  0  0  0
    8.3697    5.8553   -2.8342 H   0  0  0  0  0  0  0  0  0  0  0  0
    8.4301    7.5700   -2.3223 H   0  0  0  0  0  0  0  0  0  0  0  0
    6.5530    6.7266   -2.0316 C   0  0  0  0  0  0  0  0  0  0  0  0
    3.8795    7.1504   -1.8049 C   0  0  0  0  0  0  0  0  0  0  0  0
    2.8275    7.3434   -1.6721 H   0  0  0  0  0  0  0  0  0  0  0  0
    4.3720    6.6641   -3.0060 C   0  0  0  0  0  0  0  0  0  0  0  0
    3.7169    6.4632   -3.8391 H   0  0  0  0  0  0  0  0  0  0  0  0
    7.4833    3.8287    1.9029 C   0  0  0  0  0  0  0  0  0  0  0  0
    7.8695    2.8944    1.5238 H   0  0  0  0  0  0  0  0  0  0  0  0
    7.5026    4.9544    1.0994 C   0  0  1  0  0  3  0  0  0  0  0  0
    6.9757    3.9195    3.1919 C   0  0  0  0  0  0  0  0  0  0  0  0
    6.9570    3.0557    3.8374 H   0  0  0  0  0  0  0  0  0  0  0  0
    6.5045    5.1516    3.6199 C   0  0  0  0  0  0  0  0  0  0  0  0
    6.1038    5.2798    4.6122 H   0  0  0  0  0  0  0  0  0  0  0  0
    8.0320    4.9114   -0.3107 C   0  0  0  0  0  0  0  0  0  0  0  0
    8.8165    4.1502   -0.4026 H   0  0  0  0  0  0  0  0  0  0  0  0
    7.2061    4.6224   -0.9685 H   0  0  0  0  0  0  0  0  0  0  0  0
    6.5558    6.2294    2.7577 C   0  0  0  0  0  0  0  0  0  0  0  0
    6.1925    7.2076    3.0339 H   0  0  0  0  0  0  0  0  0  0  0  0
    7.0384    6.1454    1.5146 N   0  0  0  0  0  0  0  0  0  0  0  0
    8.5274    6.2266   -0.7385 N   0  0  0  0  0  4  0  0  0  0  0  0
    6.0719    7.1938   -0.8685 N   0  0  0  0  0  0  0  0  0  0  0  0
    8.1808    9.1004   -0.6843 O   0  0  0  0  0  0  0  0  0  0  0  0
    9.8483   10.5693   -0.7464 O   0  0  0  0  0  0  0  0  0  0  0  0
    8.8514    8.1168    1.4997 O   0  0  0  0  0  0  0  0  0  0  0  0
    9.5886    9.0696    1.1503 C   0  0  2  0  0  3  0  0  0  0  0  0
    9.2004    9.6931   -0.1992 C   0  0  0  0  0  0  0  0  0  0  0  0
   10.7751    9.4077    1.9200 C   0  0  0  0  0  0  0  0  0  0  0  0
   11.0177    8.7264    3.1203 C   0  0  0  0  0  0  0  0  0  0  0  0
   10.2973    7.9938    3.4528 H   0  0  0  0  0  0  0  0  0  0  0  0
   11.6915   10.3694    1.4852 C   0  0  0  0  0  0  0  0  0  0  0  0
   11.4984   10.8938    0.5636 H   0  0  0  0  0  0  0  0  0  0  0  0
   12.1502    8.9943    3.8585 C   0  0  0  0  0  0  0  0  0  0  0  0
   12.3300    8.4658    4.7839 H   0  0  0  0  0  0  0  0  0  0  0  0
   13.0594    9.9442    3.4152 C   0  0  0  0  0  0  0  0  0  0  0  0
   13.9479   10.1519    3.9938 H   0  0  0  0  0  0  0  0  0  0  0  0
   12.8238   10.6287    2.2328 C   0  0  0  0  0  0  0  0  0  0  0  0
   13.5307   11.3712    1.8925 H   0  0  0  0  0  0  0  0  0  0  0  0
  1  2  1  0  0  0  0
  1 43  1  0  0  0  0
  1 38  1  0  0  0  0
  3  6  1  0  0  0  0
  4  5  1  0  0  0  0
  6  4  2  0  0  0  0
  6  7  1  0  0  0  0
  8 10  1  0  0  0  0
  8  3  2  0  0  0  0
  9  8  1  0  0  0  0
 10 12  2  0  0  0  0
 11 10  1  0  0  0  0
 12 13  1  0  0  0  0
 12  4  1  0  0  0  0
 14 24  1  0  0  0  0
 14 21  2  0  0  0  0
 15 14  1  0  0  0  0
 16 17  1  0  0  0  0
 18 21  1  0  0  0  0
 18 39  1  0  0  0  0
 19 18  1  0  0  0  0
 20 18  1  0  0  0  0
 21 40  1  0  0  0  0
 22 23  1  0  0  0  0
 22 16  1  0  0  0  0
 24 22  2  0  0  0  0
 25 24  1  0  0  0  0
 26 29  2  0  0  0  0
 27 26  1  0  0  0  0
 28 38  1  0  0  0  0
 28 26  1  6  0  0  0
 29 31  1  0  0  0  0
 29 30  1  0  0  0  0
 31 32  1  0  0  0  0
 33 28  1  0  0  0  0
 34 33  1  0  0  0  0
 35 33  1  0  0  0  0
 36 37  1  0  0  0  0
 36 31  2  0  0  0  0
 38 36  1  0  0  0  0
 39  3  1  0  0  0  0
 39 33  1  0  0  0  0
 39  1  1  0  0  0  0
 40 16  1  0  0  0  0
 40  1  1  0  0  0  0
 41 45  1  0  0  0  0
 41  1  1  0  0  0  0
 42 45  2  0  0  0  0
 44 43  1  0  0  0  0
 44 46  1  6  0  0  0
 45 44  1  0  0  0  0
 46 47  1  0  0  0  0
 47 48  1  0  0  0  0
 47 51  2  0  0  0  0
 49 46  2  0  0  0  0
 49 55  1  0  0  0  0
 50 49  1  0  0  0  0
 51 52  1  0  0  0  0
 53 51  1  0  0  0  0
 53 54  1  0  0  0  0
 55 53  2  0  0  0  0
 56 55  1  0  0  0  0
M  END
$$$$
