CSD_code = JIFNEU | q = 0 | S = 0 | Stoichiometry = C25H25Cl2NTi | MND = 12
 OpenBabel04212202053D

 54 57  0  0  1  0  0  0  0  0999 V2000
    4.7345    4.8313    3.0088 C   0  0  1  0  0  0  0  0  0  0  0  0
    4.0675    5.9646    3.5405 C   0  0  0  0  0  3  0  0  0  0  0  0
    4.4532    6.9772    3.5501 H   0  0  0  0  0  0  0  0  0  0  0  0
    2.7765    5.5665    3.9338 C   0  0  0  0  0  0  0  0  0  0  0  0
    1.9884    6.2277    4.2685 H   0  0  0  0  0  0  0  0  0  0  0  0
    2.6388    4.1855    3.6595 C   0  0  0  0  0  0  0  0  0  0  0  0
    1.7269    3.6075    3.7391 H   0  0  0  0  0  0  0  0  0  0  0  0
    3.8371    3.7389    3.0724 C   0  0  0  0  0  3  0  0  0  0  0  0
    4.0292    2.7589    2.6572 H   0  0  0  0  0  0  0  0  0  0  0  0
    4.4035    3.7298    7.5386 C   0  0  0  0  0  0  0  0  0  0  0  0
    5.1827    3.1308    7.9923 H   0  0  0  0  0  0  0  0  0  0  0  0
    4.3267    5.1325    7.5539 C   0  0  0  0  0  0  0  0  0  0  0  0
    5.0325    5.8018    8.0276 H   0  0  0  0  0  0  0  0  0  0  0  0
    3.1249    5.5138    6.9226 C   0  0  0  0  0  0  0  0  0  0  0  0
    2.7363    6.5230    6.8767 H   0  0  0  0  0  0  0  0  0  0  0  0
    2.4284    4.3355    6.5697 C   0  0  0  0  0  0  0  0  0  0  0  0
    1.4077    4.2875    6.2159 H   0  0  0  0  0  0  0  0  0  0  0  0
    3.2305    3.2331    6.9189 C   0  0  1  0  0  0  0  0  0  0  0  0
    2.9493    2.1895    6.8478 H   0  0  0  0  0  0  0  0  0  0  0  0
    6.0918    4.7617    2.3701 C   0  0  0  0  0  0  0  0  0  0  0  0
    6.5697    5.7568    2.3704 H   0  0  0  0  0  0  0  0  0  0  0  0
    6.7234    4.0809    2.9534 H   0  0  0  0  0  0  0  0  0  0  0  0
    7.0912    3.4037    0.6222 C   0  0  0  0  0  0  0  0  0  0  0  0
    8.0405    3.9641    0.6869 H   0  0  0  0  0  0  0  0  0  0  0  0
    6.9305    3.1206   -0.4223 H   0  0  0  0  0  0  0  0  0  0  0  0
    7.1446    2.1690    1.4800 C   0  0  0  0  0  0  0  0  0  0  0  0
    6.0811    1.2747    1.4415 C   0  0  0  0  0  0  0  0  0  0  0  0
    5.2711    1.4583    0.7499 H   0  0  0  0  0  0  0  0  0  0  0  0
    6.0589    0.1749    2.2782 C   0  0  0  0  0  0  0  0  0  0  0  0
    5.2232   -0.5096    2.2487 H   0  0  0  0  0  0  0  0  0  0  0  0
    7.1034   -0.0471    3.1605 C   0  0  0  0  0  0  0  0  0  0  0  0
    7.0807   -0.8991    3.8235 H   0  0  0  0  0  0  0  0  0  0  0  0
    8.1716    0.8303    3.1955 C   0  0  0  0  0  0  0  0  0  0  0  0
    8.9874    0.6634    3.8835 H   0  0  0  0  0  0  0  0  0  0  0  0
    8.1899    1.9354    2.3613 C   0  0  0  0  0  0  0  0  0  0  0  0
    9.0222    2.6249    2.4014 H   0  0  0  0  0  0  0  0  0  0  0  0
    5.5595    5.2021    0.0507 C   0  0  0  0  0  0  0  0  0  0  0  0
    6.4091    5.8363   -0.2605 H   0  0  0  0  0  0  0  0  0  0  0  0
    4.8083    5.8446    0.5218 H   0  0  0  0  0  0  0  0  0  0  0  0
    4.9429    4.5283   -1.1442 C   0  0  0  0  0  0  0  0  0  0  0  0
    5.4486    4.6991   -2.4244 C   0  0  0  0  0  0  0  0  0  0  0  0
    6.3010    5.3454   -2.5823 H   0  0  0  0  0  0  0  0  0  0  0  0
    4.8683    4.0483   -3.5007 C   0  0  0  0  0  0  0  0  0  0  0  0
    5.2698    4.1898   -4.4937 H   0  0  0  0  0  0  0  0  0  0  0  0
    3.7815    3.2153   -3.3040 C   0  0  0  0  0  0  0  0  0  0  0  0
    3.3311    2.7049   -4.1427 H   0  0  0  0  0  0  0  0  0  0  0  0
    3.2721    3.0379   -2.0272 C   0  0  0  0  0  0  0  0  0  0  0  0
    2.4222    2.3890   -1.8713 H   0  0  0  0  0  0  0  0  0  0  0  0
    3.8484    3.6923   -0.9550 C   0  0  0  0  0  0  0  0  0  0  0  0
    3.4613    3.5633    0.0452 H   0  0  0  0  0  0  0  0  0  0  0  0
    5.9512    4.2078    1.0332 N   0  0  0  0  0  0  0  0  0  0  0  0
    5.5322    2.5026    5.0690 Cl  0  0  0  0  0  0  0  0  0  0  0  0
    6.2872    5.5575    5.4852 Cl  0  0  0  0  0  0  0  0  0  0  0  0
    4.3918    4.4019    5.2603 Ti  0  0  0  0  0  0  0  0  0  0  0  0
  1 20  1  6  0  0  0
  1  8  1  0  0  0  0
  1  2  1  0  0  0  0
  1 54  1  0  0  0  0
  2  3  1  0  0  0  0
  2  4  1  0  0  0  0
  4  5  1  0  0  0  0
  6  7  1  0  0  0  0
  6  4  2  0  0  0  0
  8  6  1  0  0  0  0
  9  8  1  0  0  0  0
 10 12  2  0  0  0  0
 10 11  1  0  0  0  0
 12 13  1  0  0  0  0
 14 12  1  0  0  0  0
 15 14  1  0  0  0  0
 16 18  1  0  0  0  0
 16 14  2  0  0  0  0
 17 16  1  0  0  0  0
 18 19  1  6  0  0  0
 18 10  1  0  0  0  0
 20 21  1  0  0  0  0
 20 22  1  0  0  0  0
 23 24  1  0  0  0  0
 23 51  1  0  0  0  0
 23 26  1  0  0  0  0
 25 23  1  0  0  0  0
 26 35  1  0  0  0  0
 27 26  2  0  0  0  0
 27 29  1  0  0  0  0
 28 27  1  0  0  0  0
 29 31  2  0  0  0  0
 30 29  1  0  0  0  0
 31 33  1  0  0  0  0
 31 32  1  0  0  0  0
 33 34  1  0  0  0  0
 35 36  1  0  0  0  0
 35 33  2  0  0  0  0
 37 39  1  0  0  0  0
 37 51  1  0  0  0  0
 38 37  1  0  0  0  0
 40 49  1  0  0  0  0
 40 37  1  0  0  0  0
 41 40  2  0  0  0  0
 42 41  1  0  0  0  0
 43 45  2  0  0  0  0
 43 41  1  0  0  0  0
 44 43  1  0  0  0  0
 45 47  1  0  0  0  0
 46 45  1  0  0  0  0
 47 48  1  0  0  0  0
 47 49  2  0  0  0  0
 49 50  1  0  0  0  0
 51 20  1  0  0  0  0
 52 54  1  0  0  0  0
 54 53  1  0  0  0  0
 54 18  1  0  0  0  0
M  END
$$$$
