CSD_code = JIFPAS | q = 1 | S = 0 | Stoichiometry = C17H26Cl2NTi(1+) | MND = 12
 OpenBabel04212202053D

 47 47  0  0  1  0  0  0  0  0999 V2000
    4.9615   10.4374    3.4934 C   0  0  0  0  0  0  0  0  0  0  0  0
    4.3105   11.6289    3.8948 C   0  0  0  0  0  3  0  0  0  0  0  0
    4.1799   11.9922    4.9065 H   0  0  0  0  0  0  0  0  0  0  0  0
    3.9078   12.3187    2.7385 C   0  0  0  0  0  0  0  0  0  0  0  0
    3.5016   13.3206    2.7222 H   0  0  0  0  0  0  0  0  0  0  0  0
    4.3192   11.5660    1.6130 C   0  0  0  0  0  0  0  0  0  0  0  0
    4.2807   11.8946    0.5841 H   0  0  0  0  0  0  0  0  0  0  0  0
    4.9666   10.4072    2.0763 C   0  0  0  0  0  0  0  0  0  0  0  0
    5.4530    9.6633    1.4579 H   0  0  0  0  0  0  0  0  0  0  0  0
    0.4108    9.8638    2.4879 C   0  0  0  0  0  0  0  0  0  0  0  0
   -0.1963    9.2496    3.1428 H   0  0  0  0  0  0  0  0  0  0  0  0
    0.6126   11.2635    2.6095 C   0  0  2  0  0  0  0  0  0  0  0  0
    0.1724   11.9001    3.3682 H   0  0  0  0  0  0  0  0  0  0  0  0
    1.3341   11.6942    1.4798 C   0  0  0  0  0  0  0  0  0  0  0  0
    1.5202   12.7227    1.2042 H   0  0  0  0  0  0  0  0  0  0  0  0
    1.6164   10.5619    0.6791 C   0  0  0  0  0  0  0  0  0  0  0  0
    2.0615   10.5741   -0.3071 H   0  0  0  0  0  0  0  0  0  0  0  0
    1.0150    9.4399    1.2864 C   0  0  0  0  0  0  0  0  0  0  0  0
    0.9513    8.4461    0.8620 H   0  0  0  0  0  0  0  0  0  0  0  0
    5.4890    9.3756    4.4133 C   0  0  0  0  0  0  0  0  0  0  0  0
    6.0342    8.6125    3.8552 H   0  0  0  0  0  0  0  0  0  0  0  0
    4.6284    8.8962    4.8903 H   0  0  0  0  0  0  0  0  0  0  0  0
    7.8171    9.9601    5.0900 C   0  0  0  0  0  0  0  0  0  0  0  0
    8.1216    8.9249    4.9126 H   0  0  0  0  0  0  0  0  0  0  0  0
    7.9776   10.7698    3.8088 C   0  0  0  0  0  0  0  0  0  0  0  0
    7.6263   11.7900    3.9489 H   0  0  0  0  0  0  0  0  0  0  0  0
    7.4503   10.3322    2.9687 H   0  0  0  0  0  0  0  0  0  0  0  0
    9.0307   10.8126    3.5458 H   0  0  0  0  0  0  0  0  0  0  0  0
    8.6885   10.5717    6.1837 C   0  0  0  0  0  0  0  0  0  0  0  0
    8.2774   11.5171    6.5319 H   0  0  0  0  0  0  0  0  0  0  0  0
    9.6735   10.7747    5.7732 H   0  0  0  0  0  0  0  0  0  0  0  0
    8.8343    9.9081    7.0308 H   0  0  0  0  0  0  0  0  0  0  0  0
    6.0946    9.2779    6.8283 C   0  0  0  0  0  0  0  0  0  0  0  0
    6.8888    9.6108    7.4982 H   0  0  0  0  0  0  0  0  0  0  0  0
    4.7744    9.7943    7.3837 C   0  0  0  0  0  0  0  0  0  0  0  0
    3.9252    9.5644    6.7446 H   0  0  0  0  0  0  0  0  0  0  0  0
    4.8109   10.8711    7.5378 H   0  0  0  0  0  0  0  0  0  0  0  0
    4.5931    9.3329    8.3501 H   0  0  0  0  0  0  0  0  0  0  0  0
    6.1354    7.7595    6.7435 C   0  0  0  0  0  0  0  0  0  0  0  0
    6.1262    7.3563    7.7524 H   0  0  0  0  0  0  0  0  0  0  0  0
    7.0419    7.4073    6.2591 H   0  0  0  0  0  0  0  0  0  0  0  0
    5.2746    7.3525    6.2217 H   0  0  0  0  0  0  0  0  0  0  0  0
    3.2251    8.1004    2.5942 Cl  0  0  0  0  0  0  0  0  0  0  0  0
    2.1724    9.9687    4.8878 Cl  0  0  0  0  0  0  0  0  0  0  0  0
    2.6912   10.2527    2.7316 Ti  0  0  0  0  0  0  0  0  0  0  0  0
    6.3666    9.9295    5.4912 N   0  0  0  0  0  4  0  0  0  0  0  0
    6.0835   10.9109    5.6024 H   0  0  0  0  0  0  0  0  0  0  0  0
  1  2  1  0  0  0  0
  1 20  1  0  0  0  0
  2  3  1  0  0  0  0
  4  2  1  0  0  0  0
  5  4  1  0  0  0  0
  6  8  1  0  0  0  0
  6  4  2  0  0  0  0
  7  6  1  0  0  0  0
  8  1  2  0  0  0  0
  9  8  1  0  0  0  0
 10 12  1  0  0  0  0
 10 11  1  0  0  0  0
 12 45  1  0  0  0  0
 12 13  1  1  0  0  0
 14 12  1  0  0  0  0
 15 14  1  0  0  0  0
 16 18  1  0  0  0  0
 16 14  2  0  0  0  0
 17 16  1  0  0  0  0
 18 10  2  0  0  0  0
 19 18  1  0  0  0  0
 20 22  1  0  0  0  0
 20 46  1  0  0  0  0
 21 20  1  0  0  0  0
 23 46  1  0  0  0  0
 23 29  1  0  0  0  0
 24 23  1  0  0  0  0
 25 26  1  0  0  0  0
 25 23  1  0  0  0  0
 27 25  1  0  0  0  0
 28 25  1  0  0  0  0
 29 30  1  0  0  0  0
 29 32  1  0  0  0  0
 31 29  1  0  0  0  0
 33 35  1  0  0  0  0
 33 34  1  0  0  0  0
 35 37  1  0  0  0  0
 35 38  1  0  0  0  0
 36 35  1  0  0  0  0
 39 33  1  0  0  0  0
 39 40  1  0  0  0  0
 41 39  1  0  0  0  0
 42 39  1  0  0  0  0
 43 45  1  0  0  0  0
 45 44  1  0  0  0  0
 46 47  1  0  0  0  0
 46 33  1  0  0  0  0
M  END
$$$$
