CSD_code = JIJMOH | q = 0 | S = 0 | Stoichiometry = C28H31ClN2OPd | MND = 4
 OpenBabel04212202053D

 64 69  0  0  1  0  0  0  0  0999 V2000
   -0.7959    1.3373   -1.7592 C   0  0  0  0  0  0  0  0  0  0  0  0
   -1.4707    1.0905   -0.9330 H   0  0  0  0  0  0  0  0  0  0  0  0
   -0.6892    0.4685   -2.4073 H   0  0  0  0  0  0  0  0  0  0  0  0
   -1.2160    2.1680   -2.3357 H   0  0  0  0  0  0  0  0  0  0  0  0
    0.6632    2.6841   -0.4441 C   0  0  0  0  0  0  0  0  0  0  0  0
   -0.3586    3.5141    0.0045 C   0  0  0  0  0  0  0  0  0  0  0  0
   -1.3773    3.3605   -0.3161 H   0  0  0  0  0  0  0  0  0  0  0  0
   -0.0825    4.5591    0.8783 C   0  0  0  0  0  0  0  0  0  0  0  0
   -0.8978    5.1878    1.2120 H   0  0  0  0  0  0  0  0  0  0  0  0
    1.2054    4.8063    1.3268 C   0  0  0  0  0  0  0  0  0  0  0  0
    2.2420    3.9545    0.8621 C   0  0  0  0  0  0  0  0  0  0  0  0
    1.9665    2.9104   -0.0119 C   0  0  0  0  0  0  0  0  0  0  0  0
    2.7428    2.2538   -0.3731 H   0  0  0  0  0  0  0  0  0  0  0  0
    3.5734    4.2592    1.3766 C   0  0  0  0  0  0  0  0  0  0  0  0
    4.7692    3.5922    1.1169 C   0  0  0  0  0  0  0  0  0  0  0  0
    4.7807    2.7436    0.4527 H   0  0  0  0  0  0  0  0  0  0  0  0
    5.9416    4.0177    1.7250 C   0  0  0  0  0  0  0  0  0  0  0  0
    6.8690    3.4977    1.5348 H   0  0  0  0  0  0  0  0  0  0  0  0
    5.9275    5.1077    2.5863 C   0  0  0  0  0  0  0  0  0  0  0  0
    7.1467    5.6208    3.2918 C   0  0  0  0  0  0  0  0  0  0  0  0
    7.6527    6.3473    2.6464 H   0  0  0  0  0  0  0  0  0  0  0  0
    7.8441    4.8000    3.4701 H   0  0  0  0  0  0  0  0  0  0  0  0
    6.7646    6.2935    4.6100 C   0  0  0  0  0  0  0  0  0  0  0  0
    7.6565    6.6891    5.0984 H   0  0  0  0  0  0  0  0  0  0  0  0
    6.3167    5.5517    5.2760 H   0  0  0  0  0  0  0  0  0  0  0  0
    5.7672    7.4247    4.3615 C   0  0  0  0  0  0  0  0  0  0  0  0
    5.4794    7.9176    5.2937 H   0  0  0  0  0  0  0  0  0  0  0  0
    6.2368    8.1814    3.7237 H   0  0  0  0  0  0  0  0  0  0  0  0
    4.5428    6.8950    3.6707 C   0  0  1  0  0  3  0  0  0  0  0  0
    4.7005    5.7436    2.7957 C   0  0  0  0  0  0  0  0  0  0  0  0
    2.9666    8.4488    4.5733 C   0  0  0  0  0  0  0  0  0  0  0  0
    3.1606    9.7547    4.0978 C   0  0  0  0  0  0  0  0  0  0  0  0
    2.7085   10.8027    4.8828 C   0  0  0  0  0  0  0  0  0  0  0  0
    2.8368   11.8202    4.5512 H   0  0  0  0  0  0  0  0  0  0  0  0
    2.0836   10.5650    6.0944 C   0  0  0  0  0  0  0  0  0  0  0  0
    1.7560   11.3972    6.6995 H   0  0  0  0  0  0  0  0  0  0  0  0
    1.8395    9.2711    6.5145 C   0  0  0  0  0  0  0  0  0  0  0  0
    1.3099    9.1059    7.4388 H   0  0  0  0  0  0  0  0  0  0  0  0
    2.2523    8.1904    5.7514 C   0  0  0  0  0  0  0  0  0  0  0  0
    1.9532    6.7586    6.1399 C   0  0  0  0  0  0  0  0  0  0  0  0
    1.9180    6.1498    5.2085 H   0  0  0  0  0  0  0  0  0  0  0  0
    3.0620    6.2035    7.0383 C   0  0  0  0  0  0  0  0  0  0  0  0
    4.0263    6.2307    6.5342 H   0  0  0  0  0  0  0  0  0  0  0  0
    2.8465    5.1723    7.3102 H   0  0  0  0  0  0  0  0  0  0  0  0
    3.1352    6.7934    7.9505 H   0  0  0  0  0  0  0  0  0  0  0  0
    0.5887    6.6119    6.8099 C   0  0  0  0  0  0  0  0  0  0  0  0
    0.5741    7.0691    7.7964 H   0  0  0  0  0  0  0  0  0  0  0  0
    0.3491    5.5567    6.9236 H   0  0  0  0  0  0  0  0  0  0  0  0
   -0.1756    7.0718    6.1886 H   0  0  0  0  0  0  0  0  0  0  0  0
    3.7359    9.9549    2.7108 C   0  0  0  0  0  0  0  0  0  0  0  0
    4.5849    9.2738    2.5774 H   0  0  0  0  0  0  0  0  0  0  0  0
    2.6696    9.5899    1.6670 C   0  0  0  0  0  0  0  0  0  0  0  0
    2.3701    8.5278    1.7407 H   0  0  0  0  0  0  0  0  0  0  0  0
    3.0519    9.7640    0.6628 H   0  0  0  0  0  0  0  0  0  0  0  0
    1.7795   10.1974    1.8144 H   0  0  0  0  0  0  0  0  0  0  0  0
    4.2445   11.3735    2.4602 C   0  0  0  0  0  0  0  0  0  0  0  0
    3.4199   12.0800    2.4139 H   0  0  0  0  0  0  0  0  0  0  0  0
    4.7696   11.4108    1.5077 H   0  0  0  0  0  0  0  0  0  0  0  0
    4.9331   11.6835    3.2437 H   0  0  0  0  0  0  0  0  0  0  0  0
    0.0183    7.1955    3.0608 Cl  0  0  0  0  0  0  0  0  0  0  0  0
    3.5736    5.3181    2.2057 N   0  0  0  0  0  0  0  0  0  0  0  0
    3.3518    7.3570    3.7954 N   0  0  0  0  0  0  0  0  0  0  0  0
    0.5001    1.6296   -1.2988 O   0  0  0  0  0  0  0  0  0  0  0  0
    1.9227    6.1982    2.5826 Pd  0  0  1  0  0  0  0  0  0  0  0  0
  1 63  1  0  0  0  0
  1  2  1  0  0  0  0
  3  1  1  0  0  0  0
  4  1  1  0  0  0  0
  5 12  2  0  0  0  0
  5  6  1  0  0  0  0
  6  8  2  0  0  0  0
  7  6  1  0  0  0  0
  8  9  1  0  0  0  0
  8 10  1  0  0  0  0
 10 64  2  0  0  0  0
 11 10  1  0  0  0  0
 11 14  2  0  0  0  0
 12 11  1  0  0  0  0
 13 12  1  0  0  0  0
 14 61  1  0  0  0  0
 15 14  1  0  0  0  0
 15 17  2  0  0  0  0
 16 15  1  0  0  0  0
 17 19  1  0  0  0  0
 18 17  1  0  0  0  0
 19 30  2  0  0  0  0
 19 20  1  0  0  0  0
 20 22  1  0  0  0  0
 20 23  1  0  0  0  0
 21 20  1  0  0  0  0
 23 24  1  0  0  0  0
 23 25  1  0  0  0  0
 26 23  1  0  0  0  0
 26 27  1  0  0  0  0
 28 26  1  0  0  0  0
 29 30  1  1  0  0  0
 29 62  1  0  0  0  0
 29 26  1  0  0  0  0
 31 39  1  0  0  0  0
 32 31  2  0  0  0  0
 32 33  1  0  0  0  0
 33 35  2  0  0  0  0
 34 33  1  0  0  0  0
 35 37  1  0  0  0  0
 35 36  1  0  0  0  0
 37 38  1  0  0  0  0
 39 40  1  0  0  0  0
 39 37  2  0  0  0  0
 40 46  1  0  0  0  0
 40 42  1  0  0  0  0
 41 40  1  0  0  0  0
 42 44  1  0  0  0  0
 42 45  1  0  0  0  0
 43 42  1  0  0  0  0
 46 48  1  0  0  0  0
 46 47  1  0  0  0  0
 49 46  1  0  0  0  0
 50 32  1  0  0  0  0
 51 50  1  0  0  0  0
 52 53  1  0  0  0  0
 52 55  1  0  0  0  0
 52 50  1  0  0  0  0
 54 52  1  0  0  0  0
 56 50  1  0  0  0  0
 56 59  1  0  0  0  0
 57 56  1  0  0  0  0
 58 56  1  0  0  0  0
 61 64  1  0  0  0  0
 61 30  1  0  0  0  0
 62 31  1  0  0  0  0
 63  5  1  0  0  0  0
 64 60  1  1  0  0  0
 64 62  1  0  0  0  0
M  END
$$$$
