CSD_code = JIJVIK | q = 0 | S = 0 | Stoichiometry = C18H31BrNNiP | MND = 4
 OpenBabel04212202053D

 53 55  0  0  0  0  0  0  0  0999 V2000
   11.9637    7.0894    2.1435 Br  0  0  0  0  0  0  0  0  0  0  0  0
   11.1485    5.1653    2.9432 Ni  0  0  1  0  0  0  0  0  0  0  0  0
    9.5275    5.9640    4.0804 P   0  0  0  0  0  4  0  0  0  0  0  0
   12.5919    3.9348    1.9965 N   0  0  0  0  0  4  0  0  0  0  0  0
   10.5152    3.5225    3.6329 C   0  0  0  0  0  0  0  0  0  0  0  0
    9.5976    3.3720    4.6737 C   0  0  0  0  0  0  0  0  0  0  0  0
   11.0679    2.3757    3.0562 C   0  0  0  0  0  0  0  0  0  0  0  0
    9.0668    4.6342    5.2850 C   0  0  0  0  0  0  0  0  0  0  0  0
    9.5847    4.8143    6.2316 H   0  0  0  0  0  0  0  0  0  0  0  0
    7.9944    4.5985    5.4918 H   0  0  0  0  0  0  0  0  0  0  0  0
    9.7849    7.4656    5.2086 C   0  0  0  0  0  0  0  0  0  0  0  0
    7.9957    6.1275    2.9832 C   0  0  0  0  0  0  0  0  0  0  0  0
    9.2379    2.1093    5.1214 C   0  0  0  0  0  0  0  0  0  0  0  0
    8.5227    2.0093    5.9269 H   0  0  0  0  0  0  0  0  0  0  0  0
   12.0217    2.5793    1.9146 C   0  0  0  0  0  0  0  0  0  0  0  0
   12.8195    1.8204    1.9019 H   0  0  0  0  0  0  0  0  0  0  0  0
   11.4674    2.4936    0.9717 H   0  0  0  0  0  0  0  0  0  0  0  0
   10.7108    1.1157    3.5140 C   0  0  0  0  0  0  0  0  0  0  0  0
   11.1504    0.2392    3.0577 H   0  0  0  0  0  0  0  0  0  0  0  0
    7.6795    4.7205    2.4682 C   0  0  0  0  0  0  0  0  0  0  0  0
    8.5647    4.2786    2.0062 H   0  0  0  0  0  0  0  0  0  0  0  0
    6.8960    4.7733    1.7133 H   0  0  0  0  0  0  0  0  0  0  0  0
    7.3419    4.0582    3.2622 H   0  0  0  0  0  0  0  0  0  0  0  0
    9.7946    0.9827    4.5416 C   0  0  0  0  0  0  0  0  0  0  0  0
    9.5158    0.0000    4.8927 H   0  0  0  0  0  0  0  0  0  0  0  0
    9.7319    8.7859    4.4429 C   0  0  0  0  0  0  0  0  0  0  0  0
   10.3753    8.7587    3.5676 H   0  0  0  0  0  0  0  0  0  0  0  0
   10.0853    9.5886    5.0886 H   0  0  0  0  0  0  0  0  0  0  0  0
    8.7174    9.0288    4.1365 H   0  0  0  0  0  0  0  0  0  0  0  0
   11.1982    7.2682    5.7678 C   0  0  0  0  0  0  0  0  0  0  0  0
   11.2981    6.3039    6.2679 H   0  0  0  0  0  0  0  0  0  0  0  0
   11.4316    8.0492    6.4893 H   0  0  0  0  0  0  0  0  0  0  0  0
   11.9350    7.3192    4.9676 H   0  0  0  0  0  0  0  0  0  0  0  0
   13.6774    3.9457    2.9839 C   0  0  0  0  0  0  0  0  0  0  0  0
   14.0631    4.9601    3.0986 H   0  0  0  0  0  0  0  0  0  0  0  0
   14.5020    3.2944    2.6622 H   0  0  0  0  0  0  0  0  0  0  0  0
   13.3129    3.5914    3.9501 H   0  0  0  0  0  0  0  0  0  0  0  0
    8.3626    6.9989    1.7817 C   0  0  0  0  0  0  0  0  0  0  0  0
    8.6202    8.0122    2.0753 H   0  0  0  0  0  0  0  0  0  0  0  0
    7.5275    7.0445    1.0839 H   0  0  0  0  0  0  0  0  0  0  0  0
    9.2179    6.5694    1.2584 H   0  0  0  0  0  0  0  0  0  0  0  0
    8.7873    7.5151    6.3681 C   0  0  0  0  0  0  0  0  0  0  0  0
    7.7602    7.5733    6.0229 H   0  0  0  0  0  0  0  0  0  0  0  0
    8.9902    8.4084    6.9580 H   0  0  0  0  0  0  0  0  0  0  0  0
    8.8832    6.6595    7.0310 H   0  0  0  0  0  0  0  0  0  0  0  0
    6.7737    6.6937    3.6986 C   0  0  0  0  0  0  0  0  0  0  0  0
    6.5340    6.1264    4.5959 H   0  0  0  0  0  0  0  0  0  0  0  0
    5.9141    6.6359    3.0312 H   0  0  0  0  0  0  0  0  0  0  0  0
    6.9148    7.7381    3.9633 H   0  0  0  0  0  0  0  0  0  0  0  0
   13.1468    4.3053    0.6950 C   0  0  0  0  0  0  0  0  0  0  0  0
   12.3494    4.3666   -0.0458 H   0  0  0  0  0  0  0  0  0  0  0  0
   13.8862    3.5646    0.3636 H   0  0  0  0  0  0  0  0  0  0  0  0
   13.6285    5.2797    0.7565 H   0  0  0  0  0  0  0  0  0  0  0  0
  2  1  1  1  0  0  0
  2  5  1  0  0  0  0
  2  3  1  0  0  0  0
  3 11  1  0  0  0  0
  3  8  1  0  0  0  0
  4  2  1  0  0  0  0
  4 34  1  0  0  0  0
  5  6  1  0  0  0  0
  6 13  2  0  0  0  0
  6  8  1  0  0  0  0
  7 18  1  0  0  0  0
  7  5  2  0  0  0  0
  8 10  1  0  0  0  0
  8  9  1  0  0  0  0
 11 30  1  0  0  0  0
 11 42  1  0  0  0  0
 12 46  1  0  0  0  0
 12  3  1  0  0  0  0
 13 14  1  0  0  0  0
 15  4  1  0  0  0  0
 15  7  1  0  0  0  0
 16 15  1  0  0  0  0
 17 15  1  0  0  0  0
 18 24  2  0  0  0  0
 19 18  1  0  0  0  0
 20 12  1  0  0  0  0
 20 23  1  0  0  0  0
 21 20  1  0  0  0  0
 22 20  1  0  0  0  0
 24 25  1  0  0  0  0
 24 13  1  0  0  0  0
 26 28  1  0  0  0  0
 26 11  1  0  0  0  0
 27 26  1  0  0  0  0
 29 26  1  0  0  0  0
 30 31  1  0  0  0  0
 30 32  1  0  0  0  0
 33 30  1  0  0  0  0
 34 35  1  0  0  0  0
 34 37  1  0  0  0  0
 36 34  1  0  0  0  0
 38 39  1  0  0  0  0
 38 12  1  0  0  0  0
 40 38  1  0  0  0  0
 41 38  1  0  0  0  0
 42 44  1  0  0  0  0
 42 45  1  0  0  0  0
 43 42  1  0  0  0  0
 46 49  1  0  0  0  0
 46 47  1  0  0  0  0
 48 46  1  0  0  0  0
 50 53  1  0  0  0  0
 50  4  1  0  0  0  0
 51 50  1  0  0  0  0
 52 50  1  0  0  0  0
M  END
$$$$
