CSD_code = JIJWAD | q = 0 | S = 0 | Stoichiometry = C18H33Cl3NNiP | MND = 4
 OpenBabel04212202053D

 57 56  0  0  0  0  0  0  0  0999 V2000
    4.7946    8.7751    4.1519 Ni  0  0  0  0  0  0  0  0  0  0  0  0
    6.3600    9.0932    5.6336 P   0  0  0  0  0  4  0  0  0  0  0  0
    3.5051    7.6984    5.3942 Cl  0  0  0  0  0  0  0  0  0  0  0  0
    3.2022   10.4792    3.5469 Cl  0  0  0  0  0 15  0  0  0  0  0  0
    6.0173    9.0176    2.4966 Cl  0  0  0  0  0  0  0  0  0  0  0  0
    1.7764   12.1946    5.3452 N   0  0  0  0  0  4  0  0  0  0  0  0
    2.4153   11.4030    4.7195 H   0  0  0  0  0  0  0  0  0  0  0  0
    4.8704   10.2793    7.7949 C   0  0  0  0  0  0  0  0  0  0  0  0
    3.6711   10.5150    7.1341 C   0  0  0  0  0  0  0  0  0  0  0  0
    3.3807    9.8549    6.3332 H   0  0  0  0  0  0  0  0  0  0  0  0
    7.4707    7.5477    5.6880 C   0  0  0  0  0  0  0  0  0  0  0  0
    7.3368   10.7264    5.4899 C   0  0  0  0  0  0  0  0  0  0  0  0
    5.7454    9.1319    7.3986 C   0  0  0  0  0  0  0  0  0  0  0  0
    5.1649    8.2087    7.4895 H   0  0  0  0  0  0  0  0  0  0  0  0
    6.6088    9.0819    8.0620 H   0  0  0  0  0  0  0  0  0  0  0  0
    2.8449   11.5685    7.4897 C   0  0  0  0  0  0  0  0  0  0  0  0
    5.2096   11.1062    8.8620 C   0  0  0  0  0  0  0  0  0  0  0  0
    6.1144   10.9238    9.4251 H   0  0  0  0  0  0  0  0  0  0  0  0
    3.2134   12.4030    8.5374 C   0  0  0  0  0  0  0  0  0  0  0  0
    2.5794   13.2289    8.8264 H   0  0  0  0  0  0  0  0  0  0  0  0
    1.5555   11.7681    6.7385 C   0  0  0  0  0  0  0  0  0  0  0  0
    0.9346   12.5158    7.2462 H   0  0  0  0  0  0  0  0  0  0  0  0
    1.0134   10.8203    6.7093 H   0  0  0  0  0  0  0  0  0  0  0  0
    4.3887   12.1597    9.2263 C   0  0  0  0  0  0  0  0  0  0  0  0
    4.6673   12.7941   10.0545 H   0  0  0  0  0  0  0  0  0  0  0  0
    8.2426   10.7825    4.2606 C   0  0  0  0  0  0  0  0  0  0  0  0
    9.1619   10.2259    4.4059 H   0  0  0  0  0  0  0  0  0  0  0  0
    8.5129   11.8199    4.0678 H   0  0  0  0  0  0  0  0  0  0  0  0
    7.7285   10.4029    3.3823 H   0  0  0  0  0  0  0  0  0  0  0  0
    8.1452    7.2902    7.0360 C   0  0  0  0  0  0  0  0  0  0  0  0
    8.7256    8.1455    7.3734 H   0  0  0  0  0  0  0  0  0  0  0  0
    8.8310    6.4510    6.9220 H   0  0  0  0  0  0  0  0  0  0  0  0
    7.4247    7.0219    7.8042 H   0  0  0  0  0  0  0  0  0  0  0  0
    6.5364    6.3771    5.3688 C   0  0  0  0  0  0  0  0  0  0  0  0
    5.7496    6.2768    6.1148 H   0  0  0  0  0  0  0  0  0  0  0  0
    7.0972    5.4441    5.3354 H   0  0  0  0  0  0  0  0  0  0  0  0
    6.0699    6.5247    4.3890 H   0  0  0  0  0  0  0  0  0  0  0  0
    8.5384    7.6131    4.5959 C   0  0  0  0  0  0  0  0  0  0  0  0
    8.1172    7.9825    3.6638 H   0  0  0  0  0  0  0  0  0  0  0  0
    8.9344    6.6141    4.4156 H   0  0  0  0  0  0  0  0  0  0  0  0
    9.3681    8.2484    4.8931 H   0  0  0  0  0  0  0  0  0  0  0  0
    0.5167   12.2792    4.6097 C   0  0  0  0  0  0  0  0  0  0  0  0
    0.0124   11.3168    4.6409 H   0  0  0  0  0  0  0  0  0  0  0  0
    0.7306   12.5157    3.5708 H   0  0  0  0  0  0  0  0  0  0  0  0
   -0.1356   13.0445    5.0351 H   0  0  0  0  0  0  0  0  0  0  0  0
    6.2589   11.8024    5.3161 C   0  0  0  0  0  0  0  0  0  0  0  0
    5.6076   11.5424    4.4802 H   0  0  0  0  0  0  0  0  0  0  0  0
    6.7229   12.7630    5.0984 H   0  0  0  0  0  0  0  0  0  0  0  0
    5.6536   11.9118    6.2115 H   0  0  0  0  0  0  0  0  0  0  0  0
    8.1746   11.0177    6.7325 C   0  0  0  0  0  0  0  0  0  0  0  0
    7.5594   11.1269    7.6197 H   0  0  0  0  0  0  0  0  0  0  0  0
    8.7078   11.9559    6.5819 H   0  0  0  0  0  0  0  0  0  0  0  0
    8.9165   10.2407    6.9012 H   0  0  0  0  0  0  0  0  0  0  0  0
    2.5187   13.4499    5.2659 C   0  0  0  0  0  0  0  0  0  0  0  0
    1.9320   14.2749    5.6751 H   0  0  0  0  0  0  0  0  0  0  0  0
    2.7590   13.6527    4.2256 H   0  0  0  0  0  0  0  0  0  0  0  0
    3.4473   13.3575    5.8236 H   0  0  0  0  0  0  0  0  0  0  0  0
  1  3  1  0  0  0  0
  1  2  1  0  0  0  0
  2 11  1  0  0  0  0
  2 13  1  0  0  0  0
  5  1  1  0  0  0  0
  6 21  1  0  0  0  0
  7  6  1  0  0  0  0
  8 17  1  0  0  0  0
  9 16  1  0  0  0  0
  9  8  2  0  0  0  0
 10  9  1  0  0  0  0
 11 30  1  0  0  0  0
 12  2  1  0  0  0  0
 12 50  1  0  0  0  0
 13 14  1  0  0  0  0
 13  8  1  0  0  0  0
 13 15  1  0  0  0  0
 16 19  2  0  0  0  0
 17 24  2  0  0  0  0
 17 18  1  0  0  0  0
 19 20  1  0  0  0  0
 19 24  1  0  0  0  0
 21 22  1  0  0  0  0
 21 16  1  0  0  0  0
 23 21  1  0  0  0  0
 24 25  1  0  0  0  0
 26 27  1  0  0  0  0
 26 12  1  0  0  0  0
 28 26  1  0  0  0  0
 29 26  1  0  0  0  0
 30 31  1  0  0  0  0
 30 33  1  0  0  0  0
 32 30  1  0  0  0  0
 34 11  1  0  0  0  0
 34 35  1  0  0  0  0
 36 34  1  0  0  0  0
 37 34  1  0  0  0  0
 38 41  1  0  0  0  0
 38 11  1  0  0  0  0
 39 38  1  0  0  0  0
 40 38  1  0  0  0  0
 42 43  1  0  0  0  0
 42 45  1  0  0  0  0
 42  6  1  0  0  0  0
 44 42  1  0  0  0  0
 46 12  1  0  0  0  0
 46 49  1  0  0  0  0
 47 46  1  0  0  0  0
 48 46  1  0  0  0  0
 50 53  1  0  0  0  0
 50 51  1  0  0  0  0
 52 50  1  0  0  0  0
 54  6  1  0  0  0  0
 54 55  1  0  0  0  0
 54 57  1  0  0  0  0
 56 54  1  0  0  0  0
M  END
$$$$
