CSD_code = JIKNEW | q = 0 | S = 0 | Stoichiometry = C8H23BrP2Pd | MND = 4
 OpenBabel04212202053D

 35 34  0  0  0  0  0  0  0  0999 V2000
    3.3182    7.3609    0.4048 Pd  0  0  0  0  0  0  0  0  0  0  0  0
    1.1492    7.6944    1.5245 Br  0  0  0  0  0  0  0  0  0  0  0  0
    3.6024    5.5475    1.7377 P   0  0  0  0  0  4  0  0  0  0  0  0
    2.7196    9.0272   -1.0132 P   0  0  0  0  0  4  0  0  0  0  0  0
    5.2364    7.2778   -0.3161 C   0  0  0  0  0  0  0  0  0  0  0  0
    5.9062    8.2246    0.6716 C   0  0  0  0  0  0  0  0  0  0  0  0
    3.4830    5.8907    3.5338 C   0  0  0  0  0  0  0  0  0  0  0  0
    5.0878    4.4648    1.6995 C   0  0  0  0  0  0  0  0  0  0  0  0
    2.2725    4.3094    1.5050 C   0  0  0  0  0  0  0  0  0  0  0  0
    1.1870    8.6174   -1.9290 C   0  0  0  0  0  0  0  0  0  0  0  0
    3.7795    9.6488   -2.3809 C   0  0  0  0  0  0  0  0  0  0  0  0
    2.2612   10.6052   -0.2020 C   0  0  0  0  0  0  0  0  0  0  0  0
    5.3558    7.6488   -1.3397 H   0  0  0  0  0  0  0  0  0  0  0  0
    5.6999    6.2866   -0.2678 H   0  0  0  0  0  0  0  0  0  0  0  0
    5.4625    9.2276    0.6209 H   0  0  0  0  0  0  0  0  0  0  0  0
    6.9759    8.3308    0.4619 H   0  0  0  0  0  0  0  0  0  0  0  0
    5.8105    7.8549    1.7008 H   0  0  0  0  0  0  0  0  0  0  0  0
    2.5372    6.3898    3.7427 H   0  0  0  0  0  0  0  0  0  0  0  0
    4.2997    6.5474    3.8356 H   0  0  0  0  0  0  0  0  0  0  0  0
    3.5390    4.9593    4.0968 H   0  0  0  0  0  0  0  0  0  0  0  0
    5.9793    5.0430    1.9366 H   0  0  0  0  0  0  0  0  0  0  0  0
    5.2022    4.0316    0.7070 H   0  0  0  0  0  0  0  0  0  0  0  0
    4.9755    3.6639    2.4294 H   0  0  0  0  0  0  0  0  0  0  0  0
    1.3080    4.7759    1.7048 H   0  0  0  0  0  0  0  0  0  0  0  0
    2.4206    3.4662    2.1796 H   0  0  0  0  0  0  0  0  0  0  0  0
    2.2855    3.9582    0.4723 H   0  0  0  0  0  0  0  0  0  0  0  0
    1.3589    7.7261   -2.5343 H   0  0  0  0  0  0  0  0  0  0  0  0
    0.3878    8.4096   -1.2174 H   0  0  0  0  0  0  0  0  0  0  0  0
    0.8991    9.4473   -2.5741 H   0  0  0  0  0  0  0  0  0  0  0  0
    4.0025    8.8377   -3.0724 H   0  0  0  0  0  0  0  0  0  0  0  0
    4.7145   10.0394   -1.9826 H   0  0  0  0  0  0  0  0  0  0  0  0
    3.2584   10.4423   -2.9152 H   0  0  0  0  0  0  0  0  0  0  0  0
    1.4838   10.4175    0.5380 H   0  0  0  0  0  0  0  0  0  0  0  0
    1.8978   11.3150   -0.9447 H   0  0  0  0  0  0  0  0  0  0  0  0
    3.1326   11.0225    0.3036 H   0  0  0  0  0  0  0  0  0  0  0  0
  1  2  1  0  0  0  0
  1  3  1  0  0  0  0
  3  7  1  0  0  0  0
  4 12  1  0  0  0  0
  4  1  1  0  0  0  0
  5 14  1  0  0  0  0
  5  1  1  0  0  0  0
  5  6  1  0  0  0  0
  6 17  1  0  0  0  0
  7 18  1  0  0  0  0
  7 19  1  0  0  0  0
  7 20  1  0  0  0  0
  8  3  1  0  0  0  0
  8 21  1  0  0  0  0
  8 23  1  0  0  0  0
  9 24  1  0  0  0  0
  9  3  1  0  0  0  0
  9 25  1  0  0  0  0
 10 28  1  0  0  0  0
 10  4  1  0  0  0  0
 11 31  1  0  0  0  0
 11  4  1  0  0  0  0
 12 35  1  0  0  0  0
 12 33  1  0  0  0  0
 13  5  1  0  0  0  0
 15  6  1  0  0  0  0
 16  6  1  0  0  0  0
 22  8  1  0  0  0  0
 26  9  1  0  0  0  0
 27 10  1  0  0  0  0
 29 10  1  0  0  0  0
 30 11  1  0  0  0  0
 32 11  1  0  0  0  0
 34 12  1  0  0  0  0
M  END
$$$$
