CSD_code = JIKRIH | q = 1 | S = 0 | Stoichiometry = C10H24ClFeN4(1+) | MND = 5
 OpenBabel04212202053D

 40 42  0  0  1  0  0  0  0  0999 V2000
   10.2368    7.0507    4.3684 Fe  0  0  2  0  0  0  0  0  0  0  0  0
    9.8948    8.6083    3.2066 Cl  0  0  0  0  0  0  0  0  0  0  0  0
    8.7825    8.1056    6.2875 N   0  0  0  0  0  0  0  0  0  0  0  0
   11.6175    8.4661    5.8195 N   0  0  2  0  0  4  0  0  0  0  0  0
   12.1536    9.0416    5.1756 H   0  0  0  0  0  0  0  0  0  0  0  0
   11.9526    5.7842    4.8266 N   0  0  1  0  0  4  0  0  0  0  0  0
    9.3074    5.4150    5.4311 N   0  0  1  0  0  4  0  0  0  0  0  0
    8.4738    5.2676    4.8581 H   0  0  0  0  0  0  0  0  0  0  0  0
   12.5320    7.5410    6.4803 C   0  0  0  0  0  0  0  0  0  0  0  0
   11.9861    7.0199    7.2676 H   0  0  0  0  0  0  0  0  0  0  0  0
   13.3850    8.0547    6.9474 H   0  0  0  0  0  0  0  0  0  0  0  0
   13.0528    6.5489    5.4426 C   0  0  0  0  0  0  0  0  0  0  0  0
   13.5521    7.1168    4.6551 H   0  0  0  0  0  0  0  0  0  0  0  0
   13.7880    5.8727    5.8941 H   0  0  0  0  0  0  0  0  0  0  0  0
   11.5924    4.6257    5.6533 C   0  0  0  0  0  0  0  0  0  0  0  0
   11.6743    4.9087    6.7029 H   0  0  0  0  0  0  0  0  0  0  0  0
   12.2700    3.7816    5.4746 H   0  0  0  0  0  0  0  0  0  0  0  0
    8.0031    6.9762    6.7924 C   0  0  0  0  0  0  0  0  0  0  0  0
    7.1454    6.8357    6.1306 H   0  0  0  0  0  0  0  0  0  0  0  0
    7.6173    7.1616    7.8054 H   0  0  0  0  0  0  0  0  0  0  0  0
    9.6670    8.6441    7.3220 C   0  0  0  0  0  0  0  0  0  0  0  0
   10.0144    7.8250    7.9509 H   0  0  0  0  0  0  0  0  0  0  0  0
    9.1325    9.3539    7.9686 H   0  0  0  0  0  0  0  0  0  0  0  0
   10.1497    4.2168    5.3566 C   0  0  0  0  0  0  0  0  0  0  0  0
   10.0794    3.7972    4.3513 H   0  0  0  0  0  0  0  0  0  0  0  0
    9.8266    3.4461    6.0671 H   0  0  0  0  0  0  0  0  0  0  0  0
   10.8822    9.3517    6.7181 C   0  0  0  0  0  0  0  0  0  0  0  0
   10.5462   10.2067    6.1332 H   0  0  0  0  0  0  0  0  0  0  0  0
   11.5161    9.7220    7.5352 H   0  0  0  0  0  0  0  0  0  0  0  0
    8.8350    5.6971    6.7901 C   0  0  0  0  0  0  0  0  0  0  0  0
    9.7038    5.8102    7.4382 H   0  0  0  0  0  0  0  0  0  0  0  0
    8.2276    4.8674    7.1750 H   0  0  0  0  0  0  0  0  0  0  0  0
    7.8936    9.1508    5.7893 C   0  0  0  0  0  0  0  0  0  0  0  0
    8.4839    9.9780    5.4080 H   0  0  0  0  0  0  0  0  0  0  0  0
    7.2243    9.5255    6.5739 H   0  0  0  0  0  0  0  0  0  0  0  0
    7.2954    8.7607    4.9688 H   0  0  0  0  0  0  0  0  0  0  0  0
   12.3413    5.3545    3.4793 C   0  0  0  0  0  0  0  0  0  0  0  0
   11.5486    4.7605    3.0276 H   0  0  0  0  0  0  0  0  0  0  0  0
   13.2558    4.7525    3.5006 H   0  0  0  0  0  0  0  0  0  0  0  0
   12.5136    6.2284    2.8504 H   0  0  0  0  0  0  0  0  0  0  0  0
  1  2  1  6  0  0  0
  1  6  1  0  0  0  0
  1  7  1  0  0  0  0
  1  4  1  0  0  0  0
  3 18  1  0  0  0  0
  3 21  1  0  0  0  0
  4  5  1  6  0  0  0
  4  9  1  0  0  0  0
  4 27  1  0  0  0  0
  6 37  1  6  0  0  0
  6 12  1  0  0  0  0
  6 15  1  0  0  0  0
  7  8  1  6  0  0  0
  7 30  1  0  0  0  0
  9 11  1  0  0  0  0
  9 10  1  0  0  0  0
 12 14  1  0  0  0  0
 12  9  1  0  0  0  0
 13 12  1  0  0  0  0
 15 16  1  0  0  0  0
 17 15  1  0  0  0  0
 18 20  1  0  0  0  0
 19 18  1  0  0  0  0
 21 22  1  0  0  0  0
 21 23  1  0  0  0  0
 24  7  1  0  0  0  0
 24 15  1  0  0  0  0
 24 26  1  0  0  0  0
 25 24  1  0  0  0  0
 27 21  1  0  0  0  0
 27 29  1  0  0  0  0
 28 27  1  0  0  0  0
 30 18  1  0  0  0  0
 30 32  1  0  0  0  0
 30 31  1  0  0  0  0
 33  3  1  0  0  0  0
 33 35  1  0  0  0  0
 34 33  1  0  0  0  0
 36 33  1  0  0  0  0
 37 39  1  0  0  0  0
 38 37  1  0  0  0  0
 40 37  1  0  0  0  0
M  END
$$$$
