CSD_code = JILCOW | q = -1 | S = 0 | Stoichiometry = C17H21Cl3N2Re(1-) | MND = 6
 OpenBabel04212202053D

 44 45  0  0  0  0  0  0  0  0999 V2000
   10.9729    3.7323    1.2753 Re  0  0  0  0  0  0  0  0  0  0  0  0
   10.3629    5.4019   -0.1527 Cl  0  0  0  0  0  0  0  0  0  0  0  0
   10.1925    2.0172   -0.4548 Cl  0  0  0  0  0  0  0  0  0  0  0  0
    8.8180    3.8518    2.0607 Cl  0  0  0  0  0  0  0  0  0  0  0  0
   12.6305    3.7879    0.6128 N   0  0  0  0  0  2  0  0  0  0  0  0
   11.2947    2.4166    2.4384 N   0  0  0  0  0  2  0  0  0  0  0  0
   11.4949    5.3560    2.7364 C   0  0  0  0  0  0  0  0  0  0  0  0
   13.8526    3.7729    0.1236 C   0  0  0  0  0  0  0  0  0  0  0  0
   14.0528    3.7266   -1.2860 C   0  0  0  0  0  0  0  0  0  0  0  0
   15.3386    3.6644   -1.7824 C   0  0  0  0  0  0  0  0  0  0  0  0
   16.4399    3.6694   -0.9386 C   0  0  0  0  0  0  0  0  0  0  0  0
   16.2521    3.7216    0.4332 C   0  0  0  0  0  0  0  0  0  0  0  0
   14.9852    3.7594    0.9822 C   0  0  0  0  0  0  0  0  0  0  0  0
   12.8562    3.7128   -2.1761 C   0  0  0  0  0  0  0  0  0  0  0  0
   14.7807    3.8235    2.4643 C   0  0  0  0  0  0  0  0  0  0  0  0
   11.4969    1.3932    3.2427 C   0  0  0  0  0  0  0  0  0  0  0  0
   12.2065    0.2545    2.7617 C   0  0  0  0  0  0  0  0  0  0  0  0
   12.3769   -0.8315    3.5958 C   0  0  0  0  0  0  0  0  0  0  0  0
   11.9029   -0.8227    4.8995 C   0  0  0  0  0  0  0  0  0  0  0  0
   11.2393    0.2940    5.3817 C   0  0  0  0  0  0  0  0  0  0  0  0
   11.0187    1.3976    4.5809 C   0  0  0  0  0  0  0  0  0  0  0  0
   12.7221    0.2624    1.3603 C   0  0  0  0  0  0  0  0  0  0  0  0
   10.3203    2.6135    5.0992 C   0  0  0  0  0  0  0  0  0  0  0  0
   12.1047    6.1147    2.2484 H   0  0  0  0  0  0  0  0  0  0  0  0
   10.5679    5.8242    3.0602 H   0  0  0  0  0  0  0  0  0  0  0  0
   12.0248    5.0012    3.6185 H   0  0  0  0  0  0  0  0  0  0  0  0
   15.4849    3.6206   -2.8534 H   0  0  0  0  0  0  0  0  0  0  0  0
   17.4389    3.6297   -1.3493 H   0  0  0  0  0  0  0  0  0  0  0  0
   17.1098    3.7200    1.0929 H   0  0  0  0  0  0  0  0  0  0  0  0
   12.8993   -1.7023    3.2226 H   0  0  0  0  0  0  0  0  0  0  0  0
   12.0516   -1.6829    5.5371 H   0  0  0  0  0  0  0  0  0  0  0  0
   10.8719    0.3020    6.3995 H   0  0  0  0  0  0  0  0  0  0  0  0
   12.2300    4.5805   -1.9689 H   0  0  0  0  0  0  0  0  0  0  0  0
   13.1435    3.7145   -3.2255 H   0  0  0  0  0  0  0  0  0  0  0  0
   12.2438    2.8345   -1.9702 H   0  0  0  0  0  0  0  0  0  0  0  0
   13.8592    3.3104    2.7328 H   0  0  0  0  0  0  0  0  0  0  0  0
   15.6225    3.3759    2.9891 H   0  0  0  0  0  0  0  0  0  0  0  0
   14.6850    4.8607    2.7853 H   0  0  0  0  0  0  0  0  0  0  0  0
   11.9161    0.4913    0.6639 H   0  0  0  0  0  0  0  0  0  0  0  0
   13.4694    1.0473    1.2411 H   0  0  0  0  0  0  0  0  0  0  0  0
   13.1634   -0.6975    1.1011 H   0  0  0  0  0  0  0  0  0  0  0  0
    9.6872    3.0382    4.3221 H   0  0  0  0  0  0  0  0  0  0  0  0
    9.7181    2.3725    5.9730 H   0  0  0  0  0  0  0  0  0  0  0  0
   11.0486    3.3757    5.3789 H   0  0  0  0  0  0  0  0  0  0  0  0
  1  4  1  0  0  0  0
  1  6  1  0  0  0  0
  1  7  1  0  0  0  0
  2  1  1  0  0  0  0
  3  1  1  0  0  0  0
  5  1  1  0  0  0  0
  6 16  1  0  0  0  0
  7 25  1  0  0  0  0
  7 26  1  0  0  0  0
  8  5  1  0  0  0  0
  8 13  1  0  0  0  0
  9  8  2  0  0  0  0
 10  9  1  0  0  0  0
 10 11  2  0  0  0  0
 11 12  1  0  0  0  0
 12 13  2  0  0  0  0
 12 29  1  0  0  0  0
 13 15  1  0  0  0  0
 14 35  1  0  0  0  0
 14 33  1  0  0  0  0
 14  9  1  0  0  0  0
 15 36  1  0  0  0  0
 15 38  1  0  0  0  0
 15 37  1  0  0  0  0
 16 21  1  0  0  0  0
 17 16  2  0  0  0  0
 17 18  1  0  0  0  0
 18 19  2  0  0  0  0
 19 20  1  0  0  0  0
 19 31  1  0  0  0  0
 20 32  1  0  0  0  0
 21 23  1  0  0  0  0
 21 20  2  0  0  0  0
 22 17  1  0  0  0  0
 23 44  1  0  0  0  0
 23 43  1  0  0  0  0
 24  7  1  0  0  0  0
 27 10  1  0  0  0  0
 28 11  1  0  0  0  0
 30 18  1  0  0  0  0
 34 14  1  0  0  0  0
 39 22  1  0  0  0  0
 40 22  1  0  0  0  0
 41 22  1  0  0  0  0
 42 23  1  0  0  0  0
M  END
$$$$
