CSD_code = JILNOK | q = 0 | S = 0 | Stoichiometry = C17H19ClIrN | MND = 6
 OpenBabel04212202053D

 39 41  0  0  1  0  0  0  0  0999 V2000
    3.0144    5.6212    9.9630 Ir  0  0  0  0  0  0  0  0  0  0  0  0
    3.4776    3.6088    8.9053 Cl  0  0  0  0  0 15  0  0  0  0  0  0
    1.5737    5.8024    8.5659 N   0  0  0  0  0  0  0  0  0  0  0  0
    0.3640    5.3371    8.8301 C   0  0  0  0  0  0  0  0  0  0  0  0
    0.1589    5.0716    9.8588 H   0  0  0  0  0  0  0  0  0  0  0  0
   -0.6321    5.1775    7.8647 C   0  0  0  0  0  0  0  0  0  0  0  0
   -1.5927    4.7848    8.1584 H   0  0  0  0  0  0  0  0  0  0  0  0
   -0.3692    5.5239    6.5649 C   0  0  0  0  0  0  0  0  0  0  0  0
   -1.1140    5.4175    5.7904 H   0  0  0  0  0  0  0  0  0  0  0  0
    0.9088    6.0197    6.2387 C   0  0  0  0  0  0  0  0  0  0  0  0
    1.2713    6.3831    4.9259 C   0  0  0  0  0  3  0  0  0  0  0  0
    0.5319    6.2893    4.1439 H   0  0  0  0  0  0  0  0  0  0  0  0
    2.5326    6.8325    4.6486 C   0  0  0  0  0  0  0  0  0  0  0  0
    2.8046    7.1024    3.6391 H   0  0  0  0  0  0  0  0  0  0  0  0
    3.4840    6.9391    5.6728 C   0  0  0  0  0  0  0  0  0  0  0  0
    4.4798    7.2835    5.4384 H   0  0  0  0  0  0  0  0  0  0  0  0
    3.1596    6.6069    6.9604 C   0  0  0  0  0  0  0  0  0  0  0  0
    3.8912    6.6681    7.7550 H   0  0  0  0  0  0  0  0  0  0  0  0
    1.8708    6.1388    7.2776 C   0  0  0  0  0  0  0  0  0  0  0  0
    4.8920    5.6738   11.0026 C   0  0  0  0  0  3  0  0  0  0  0  0
    5.6150    5.1092   10.4175 H   0  0  0  0  0  0  0  0  0  0  0  0
    3.9676    4.9424   11.7470 C   0  0  1  0  0  0  0  0  0  0  0  0
    4.0436    3.8574   11.7127 H   0  0  0  0  0  0  0  0  0  0  0  0
    3.2557    5.4613   12.9771 C   0  0  0  0  0  0  0  0  0  0  0  0
    3.9615    5.5032   13.8130 H   0  0  0  0  0  0  0  0  0  0  0  0
    2.4821    4.7397   13.2448 H   0  0  0  0  0  0  0  0  0  0  0  0
    2.6030    6.8403   12.7614 C   0  0  0  0  0  0  0  0  0  0  0  0
    3.2791    7.6350   13.0795 H   0  0  0  0  0  0  0  0  0  0  0  0
    1.7104    6.9089   13.3856 H   0  0  0  0  0  0  0  0  0  0  0  0
    2.2163    7.0709   11.3135 C   0  0  0  0  0  3  0  0  0  0  0  0
    1.1470    7.1961   11.1533 H   0  0  0  0  0  0  0  0  0  0  0  0
    3.0694    7.6976   10.3909 C   0  0  1  0  0  0  0  0  0  0  0  0
    2.6006    8.2850    9.6013 H   0  0  0  0  0  0  0  0  0  0  0  0
    4.4726    8.1636   10.7149 C   0  0  0  0  0  0  0  0  0  0  0  0
    4.4243    9.0511   11.3551 H   0  0  0  0  0  0  0  0  0  0  0  0
    4.9477    8.4693    9.7807 H   0  0  0  0  0  0  0  0  0  0  0  0
    5.3335    7.0740   11.3837 C   0  0  0  0  0  0  0  0  0  0  0  0
    6.3736    7.2137   11.0852 H   0  0  0  0  0  0  0  0  0  0  0  0
    5.2937    7.1728   12.4692 H   0  0  0  0  0  0  0  0  0  0  0  0
  1 32  1  0  0  0  0
  1 22  1  0  0  0  0
  3  4  1  0  0  0  0
  3  1  1  0  0  0  0
  4  5  1  0  0  0  0
  6  7  1  0  0  0  0
  6  4  2  0  0  0  0
  8  6  1  0  0  0  0
  9  8  1  0  0  0  0
 10  8  2  0  0  0  0
 10 19  1  0  0  0  0
 11 10  1  0  0  0  0
 12 11  1  0  0  0  0
 13 11  1  0  0  0  0
 13 15  2  0  0  0  0
 14 13  1  0  0  0  0
 15 17  1  0  0  0  0
 16 15  1  0  0  0  0
 17 19  2  0  0  0  0
 17 18  1  0  0  0  0
 19  3  1  0  0  0  0
 20 37  1  0  0  0  0
 20 22  1  0  0  0  0
 21 20  1  0  0  0  0
 22 23  1  1  0  0  0
 22 24  1  0  0  0  0
 24 26  1  0  0  0  0
 24 25  1  0  0  0  0
 27 24  1  0  0  0  0
 27 28  1  0  0  0  0
 27 29  1  0  0  0  0
 30 27  1  0  0  0  0
 31 30  1  0  0  0  0
 32 33  1  6  0  0  0
 32 34  1  0  0  0  0
 32 30  1  0  0  0  0
 34 35  1  0  0  0  0
 34 37  1  0  0  0  0
 36 34  1  0  0  0  0
 37 39  1  0  0  0  0
 38 37  1  0  0  0  0
M  END
$$$$
