CSD_code = JILSEC | q = 0 | S = 0 | Stoichiometry = C13H18Cl2N2Pd | MND = 4
 OpenBabel04212202053D

 36 37  0  0  0  0  0  0  0  0999 V2000
    7.2899   19.5918    0.1142 Pd  0  0  0  0  0  0  0  0  0  0  0  0
    6.3079   17.7724    0.9880 Cl  0  0  0  0  0  0  0  0  0  0  0  0
    7.3501   20.4858    2.1618 Cl  0  0  0  0  0  0  0  0  0  0  0  0
    7.1194   18.7444   -1.7186 N   0  0  0  0  0  0  0  0  0  0  0  0
    8.3859   21.3458   -0.6607 N   0  0  0  0  0  4  0  0  0  0  0  0
    5.9924   18.1233   -2.0622 C   0  0  0  0  0  3  0  0  0  0  0  0
    5.1969   18.1281   -1.3267 H   0  0  0  0  0  0  0  0  0  0  0  0
    5.8441   17.4826   -3.2796 C   0  0  0  0  0  0  0  0  0  0  0  0
    4.9171   16.9866   -3.5168 H   0  0  0  0  0  0  0  0  0  0  0  0
    6.9046   17.4851   -4.1719 C   0  0  0  0  0  0  0  0  0  0  0  0
    6.8292   16.9849   -5.1252 H   0  0  0  0  0  0  0  0  0  0  0  0
    8.0651   18.1540   -3.8176 C   0  0  0  0  0  0  0  0  0  0  0  0
    8.9095   18.1909   -4.4883 H   0  0  0  0  0  0  0  0  0  0  0  0
    8.1385   18.7770   -2.5798 C   0  0  0  0  0  0  0  0  0  0  0  0
    9.3258   19.5931   -2.1615 C   0  0  0  0  0  0  0  0  0  0  0  0
    9.6998   19.2174   -1.1974 H   0  0  0  0  0  0  0  0  0  0  0  0
   10.1213   19.5099   -2.9021 H   0  0  0  0  0  0  0  0  0  0  0  0
    8.8922   21.0651   -2.0063 C   0  0  0  0  0  0  0  0  0  0  0  0
    8.1059   21.2700   -2.7376 H   0  0  0  0  0  0  0  0  0  0  0  0
    9.7427   21.7247   -2.2251 H   0  0  0  0  0  0  0  0  0  0  0  0
    9.5117   21.7016    0.2280 C   0  0  0  0  0  0  0  0  0  0  0  0
   10.2190   20.8655    0.2426 H   0  0  0  0  0  0  0  0  0  0  0  0
    9.1036   21.8078    1.2408 H   0  0  0  0  0  0  0  0  0  0  0  0
   10.2232   22.9598   -0.1678 C   0  0  0  0  0  0  0  0  0  0  0  0
    9.6157   23.8537   -0.2147 H   0  0  0  0  0  0  0  0  0  0  0  0
   11.5182   23.0259   -0.4208 C   0  0  0  0  0  0  0  0  0  0  0  0
   12.0064   23.9532   -0.6679 H   0  0  0  0  0  0  0  0  0  0  0  0
   12.1517   22.1549   -0.3692 H   0  0  0  0  0  0  0  0  0  0  0  0
    7.3291   22.3810   -0.6599 C   0  0  0  0  0  0  0  0  0  0  0  0
    7.3474   22.8748    0.3138 H   0  0  0  0  0  0  0  0  0  0  0  0
    7.5097   23.1232   -1.4482 H   0  0  0  0  0  0  0  0  0  0  0  0
    5.9752   21.7331   -0.8365 C   0  0  0  0  0  0  0  0  0  0  0  0
    5.4520   21.4577    0.0839 H   0  0  0  0  0  0  0  0  0  0  0  0
    5.3811   21.5771   -2.0133 C   0  0  0  0  0  0  0  0  0  0  0  0
    5.8336   21.9074   -2.9365 H   0  0  0  0  0  0  0  0  0  0  0  0
    4.4065   21.1279   -2.1020 H   0  0  0  0  0  0  0  0  0  0  0  0
  1  2  1  0  0  0  0
  1  3  1  0  0  0  0
  4  1  1  0  0  0  0
  5 29  1  0  0  0  0
  5  1  1  0  0  0  0
  5 21  1  0  0  0  0
  6  4  1  0  0  0  0
  6  7  1  0  0  0  0
  8  6  1  0  0  0  0
  9  8  1  0  0  0  0
 10 12  1  0  0  0  0
 10  8  2  0  0  0  0
 11 10  1  0  0  0  0
 12 14  2  0  0  0  0
 13 12  1  0  0  0  0
 14 15  1  0  0  0  0
 14  4  1  0  0  0  0
 15 18  1  0  0  0  0
 15 16  1  0  0  0  0
 17 15  1  0  0  0  0
 18  5  1  0  0  0  0
 19 18  1  0  0  0  0
 20 18  1  0  0  0  0
 21 22  1  0  0  0  0
 21 23  1  0  0  0  0
 24 21  1  0  0  0  0
 25 24  1  0  0  0  0
 26 28  1  0  0  0  0
 26 24  2  0  0  0  0
 27 26  1  0  0  0  0
 29 30  1  0  0  0  0
 31 29  1  0  0  0  0
 32 29  1  0  0  0  0
 32 33  1  0  0  0  0
 34 32  2  0  0  0  0
 35 34  1  0  0  0  0
 36 34  1  0  0  0  0
M  END
$$$$
