CSD_code = JILZIQ | q = 0 | S = 0 | Stoichiometry = C18H24Br2N4Zn | MND = 4
 OpenBabel04212202053D

 49 52  0  0  1  0  0  0  0  0999 V2000
    4.4477   18.7030    8.0864 Br  0  0  0  0  0  0  0  0  0  0  0  0
    8.8883   18.0530    8.8979 Br  0  0  0  0  0  0  0  0  0  0  0  0
    6.3718   14.7018    8.7570 C   0  0  2  0  0  0  0  0  0  0  0  0
    7.4516   14.5766    8.9086 H   0  0  0  0  0  0  0  0  0  0  0  0
    6.1124   14.9365    7.2553 C   0  0  2  0  0  0  0  0  0  0  0  0
    5.0376   15.1044    7.1096 H   0  0  0  0  0  0  0  0  0  0  0  0
    6.5549   13.7065    6.4563 C   0  0  0  0  0  0  0  0  0  0  0  0
    7.6326   13.5691    6.5826 H   0  0  0  0  0  0  0  0  0  0  0  0
    6.3552   13.8619    5.3949 H   0  0  0  0  0  0  0  0  0  0  0  0
    5.8245   12.4533    6.9265 C   0  0  0  0  0  0  0  0  0  0  0  0
    4.7528   12.5698    6.7512 H   0  0  0  0  0  0  0  0  0  0  0  0
    6.1663   11.5929    6.3497 H   0  0  0  0  0  0  0  0  0  0  0  0
    6.0774   12.2217    8.4107 C   0  0  0  0  0  0  0  0  0  0  0  0
    7.1416   12.0411    8.5771 H   0  0  0  0  0  0  0  0  0  0  0  0
    5.5313   11.3408    8.7505 H   0  0  0  0  0  0  0  0  0  0  0  0
    5.6371   13.4387    9.2170 C   0  0  0  0  0  0  0  0  0  0  0  0
    5.8344   13.2592   10.2751 H   0  0  0  0  0  0  0  0  0  0  0  0
    4.5607   13.5880    9.0928 H   0  0  0  0  0  0  0  0  0  0  0  0
    6.4153   15.9339   10.9073 C   0  0  0  0  0  0  0  0  0  0  0  0
    7.5085   15.9052   10.9183 H   0  0  0  0  0  0  0  0  0  0  0  0
    6.0333   15.0742   11.4736 H   0  0  0  0  0  0  0  0  0  0  0  0
    4.5659   17.3879   11.8008 C   0  0  0  0  0  0  0  0  0  0  0  0
    3.8490   16.6009   11.5955 H   0  0  0  0  0  0  0  0  0  0  0  0
    5.9230   17.2082   11.5377 C   0  0  0  0  0  0  0  0  0  0  0  0
    6.7810   18.2565   11.8552 C   0  0  0  0  0  0  0  0  0  0  0  0
    7.8467   18.1591   11.7032 H   0  0  0  0  0  0  0  0  0  0  0  0
    6.2489   19.4216   12.3850 C   0  0  0  0  0  0  0  0  0  0  0  0
    6.8873   20.2546   12.6339 H   0  0  0  0  0  0  0  0  0  0  0  0
    4.8784   19.4900   12.5862 C   0  0  0  0  0  0  0  0  0  0  0  0
    4.4126   20.3785   12.9902 H   0  0  0  0  0  0  0  0  0  0  0  0
    6.4114   16.6700    5.5097 C   0  0  0  0  0  0  0  0  0  0  0  0
    5.3431   16.9032    5.5325 H   0  0  0  0  0  0  0  0  0  0  0  0
    6.5937   15.9242    4.7247 H   0  0  0  0  0  0  0  0  0  0  0  0
    8.5746   17.8292    4.9553 C   0  0  0  0  0  0  0  0  0  0  0  0
    9.0782   16.8696    4.9194 H   0  0  0  0  0  0  0  0  0  0  0  0
    7.2078   17.9121    5.2155 C   0  0  0  0  0  0  0  0  0  0  0  0
    6.6320   19.1785    5.2166 C   0  0  0  0  0  0  0  0  0  0  0  0
    5.5704   19.2988    5.3799 H   0  0  0  0  0  0  0  0  0  0  0  0
    7.4389   20.2822    4.9884 C   0  0  0  0  0  0  0  0  0  0  0  0
    7.0235   21.2776    4.9908 H   0  0  0  0  0  0  0  0  0  0  0  0
    8.7906   20.0758    4.7577 C   0  0  0  0  0  0  0  0  0  0  0  0
    9.4642   20.9033    4.5816 H   0  0  0  0  0  0  0  0  0  0  0  0
    5.9672   15.8983    9.5053 N   0  0  0  0  0  4  0  0  0  0  0  0
    4.9451   15.9259    9.5134 H   0  0  0  0  0  0  0  0  0  0  0  0
    6.8013   16.1633    6.8359 N   0  0  0  0  0  4  0  0  0  0  0  0
    7.8022   15.9573    6.7990 H   0  0  0  0  0  0  0  0  0  0  0  0
    4.0578   18.4908   12.3124 N   0  0  0  0  0  0  0  0  0  0  0  0
    9.3429   18.8755    4.7290 N   0  0  0  0  0  0  0  0  0  0  0  0
    6.5928   17.7585    8.4074 Zn  0  0  0  0  0  0  0  0  0  0  0  0
  1 49  1  0  0  0  0
  3  4  1  1  0  0  0
  3 16  1  0  0  0  0
  3 43  1  0  0  0  0
  5  6  1  6  0  0  0
  5  3  1  0  0  0  0
  7  8  1  0  0  0  0
  7 10  1  0  0  0  0
  7  5  1  0  0  0  0
  9  7  1  0  0  0  0
 10 13  1  0  0  0  0
 11 10  1  0  0  0  0
 12 10  1  0  0  0  0
 13 14  1  0  0  0  0
 13 15  1  0  0  0  0
 13 16  1  0  0  0  0
 16 17  1  0  0  0  0
 18 16  1  0  0  0  0
 19 20  1  0  0  0  0
 19 21  1  0  0  0  0
 19 24  1  0  0  0  0
 22 47  1  0  0  0  0
 23 22  1  0  0  0  0
 24 22  2  0  0  0  0
 24 25  1  0  0  0  0
 25 27  2  0  0  0  0
 26 25  1  0  0  0  0
 27 29  1  0  0  0  0
 27 28  1  0  0  0  0
 29 30  1  0  0  0  0
 31 32  1  0  0  0  0
 31 45  1  0  0  0  0
 33 31  1  0  0  0  0
 34 36  1  0  0  0  0
 35 34  1  0  0  0  0
 36 37  2  0  0  0  0
 36 31  1  0  0  0  0
 37 38  1  0  0  0  0
 39 40  1  0  0  0  0
 39 37  1  0  0  0  0
 41 39  2  0  0  0  0
 42 41  1  0  0  0  0
 43 44  1  0  0  0  0
 43 19  1  0  0  0  0
 45  5  1  0  0  0  0
 45 49  1  0  0  0  0
 46 45  1  0  0  0  0
 47 29  2  0  0  0  0
 48 41  1  0  0  0  0
 48 34  2  0  0  0  0
 49  2  1  0  0  0  0
 49 43  1  0  0  0  0
M  END
$$$$
