CSD_code = JIMLOG | q = 0 | S = 0 | Stoichiometry = C12H24Cl2RuS4 | MND = 6
 OpenBabel04212202053D

 43 46  0  0  0  0  0  0  0  0999 V2000
    0.0003   -0.0001    6.0914 Ru  0  0  0  0  0  0  0  0  0  0  0  0
    0.3250   -1.2791    8.0841 Cl  0  0  0  0  0  0  0  0  0  0  0  0
    0.1929    1.9952    7.3396 S   0  0  1  0  0  3  0  0  0  0  0  0
    2.3386    0.2321    5.8593 S   0  0  2  0  0  3  0  0  0  0  0  0
    1.3402    1.7270    8.7365 C   0  0  0  0  0  0  0  0  0  0  0  0
    2.8093    1.4232    8.4692 C   0  0  0  0  0  0  0  0  0  0  0  0
    3.1113    0.2743    7.5148 C   0  0  0  0  0  0  0  0  0  0  0  0
    2.7132    1.8394    5.0745 C   0  0  0  0  0  0  0  0  0  0  0  0
    2.3769    3.1369    5.7991 C   0  0  0  0  0  0  0  0  0  0  0  0
    0.9452    3.2936    6.2965 C   0  0  0  0  0  0  0  0  0  0  0  0
    0.8737    0.8824    9.2479 H   0  0  0  0  0  0  0  0  0  0  0  0
    1.2578    2.6170    9.3616 H   0  0  0  0  0  0  0  0  0  0  0  0
    3.2408    1.1369    9.4351 H   0  0  0  0  0  0  0  0  0  0  0  0
    3.3323    2.3255    8.1548 H   0  0  0  0  0  0  0  0  0  0  0  0
    4.1865    0.2157    7.3404 H   0  0  0  0  0  0  0  0  0  0  0  0
    2.7640   -0.6670    7.9458 H   0  0  0  0  0  0  0  0  0  0  0  0
    2.1407    1.7730    4.1470 H   0  0  0  0  0  0  0  0  0  0  0  0
    3.7788    1.8141    4.8430 H   0  0  0  0  0  0  0  0  0  0  0  0
    2.5357    3.9412    5.0717 H   0  0  0  0  0  0  0  0  0  0  0  0
    3.0822    3.3126    6.6102 H   0  0  0  0  0  0  0  0  0  0  0  0
    0.8539    4.2196    6.8656 H   0  0  0  0  0  0  0  0  0  0  0  0
    0.2586    3.3224    5.4478 H   0  0  0  0  0  0  0  0  0  0  0  0
   -0.3265    1.2791    4.0992 Cl  0  0  0  0  0  0  0  0  0  0  0  0
   -0.1929   -1.9953    4.8433 S   0  0  2  0  0  3  0  0  0  0  0  0
   -2.3383   -0.2321    6.3237 S   0  0  1  0  0  3  0  0  0  0  0  0
   -1.3402   -1.7270    3.4465 C   0  0  0  0  0  0  0  0  0  0  0  0
   -0.9452   -3.2936    5.8865 C   0  0  0  0  0  0  0  0  0  0  0  0
   -3.1112   -0.2742    4.6682 C   0  0  0  0  0  0  0  0  0  0  0  0
   -2.7130   -1.8393    7.1085 C   0  0  0  0  0  0  0  0  0  0  0  0
   -2.8093   -1.4232    3.7138 C   0  0  0  0  0  0  0  0  0  0  0  0
   -0.8738   -0.8825    2.9350 H   0  0  0  0  0  0  0  0  0  0  0  0
   -1.2579   -2.6171    2.8213 H   0  0  0  0  0  0  0  0  0  0  0  0
   -2.3769   -3.1369    6.3840 C   0  0  0  0  0  0  0  0  0  0  0  0
   -0.8540   -4.2197    5.3174 H   0  0  0  0  0  0  0  0  0  0  0  0
   -0.2586   -3.3225    6.7352 H   0  0  0  0  0  0  0  0  0  0  0  0
   -4.1863   -0.2156    4.8426 H   0  0  0  0  0  0  0  0  0  0  0  0
   -2.7637    0.6670    4.2371 H   0  0  0  0  0  0  0  0  0  0  0  0
   -2.1404   -1.7729    8.0360 H   0  0  0  0  0  0  0  0  0  0  0  0
   -3.7786   -1.8139    7.3401 H   0  0  0  0  0  0  0  0  0  0  0  0
   -3.2408   -1.1369    2.7479 H   0  0  0  0  0  0  0  0  0  0  0  0
   -3.3323   -2.3254    4.0282 H   0  0  0  0  0  0  0  0  0  0  0  0
   -2.5358   -3.9412    7.1113 H   0  0  0  0  0  0  0  0  0  0  0  0
   -3.0823   -3.3125    5.5729 H   0  0  0  0  0  0  0  0  0  0  0  0
  1 25  1  0  0  0  0
  1  3  1  0  0  0  0
  1  2  1  0  0  0  0
  3 10  1  6  0  0  0
  3  5  1  0  0  0  0
  4  8  1  1  0  0  0
  4  1  1  0  0  0  0
  4  7  1  0  0  0  0
  5 11  1  0  0  0  0
  5 12  1  0  0  0  0
  6  5  1  0  0  0  0
  6 13  1  0  0  0  0
  7 16  1  0  0  0  0
  7  6  1  0  0  0  0
  8  9  1  0  0  0  0
  9 10  1  0  0  0  0
  9 20  1  0  0  0  0
 10 21  1  0  0  0  0
 14  6  1  0  0  0  0
 15  7  1  0  0  0  0
 17  8  1  0  0  0  0
 18  8  1  0  0  0  0
 19  9  1  0  0  0  0
 22 10  1  0  0  0  0
 23  1  1  0  0  0  0
 24 26  1  6  0  0  0
 24 27  1  0  0  0  0
 24  1  1  0  0  0  0
 25 28  1  6  0  0  0
 25 29  1  0  0  0  0
 26 30  1  0  0  0  0
 27 33  1  0  0  0  0
 27 35  1  0  0  0  0
 28 36  1  0  0  0  0
 29 39  1  0  0  0  0
 29 38  1  0  0  0  0
 30 41  1  0  0  0  0
 30 28  1  0  0  0  0
 31 26  1  0  0  0  0
 32 26  1  0  0  0  0
 33 29  1  0  0  0  0
 33 42  1  0  0  0  0
 34 27  1  0  0  0  0
 37 28  1  0  0  0  0
 40 30  1  0  0  0  0
 43 33  1  0  0  0  0
M  END
$$$$
