CSD_code = JIMMAT | q = 0 | S = 0 | Stoichiometry = C12H24Cl2O2RuS4 | MND = 6
 OpenBabel04212202053D

 45 48  0  0  0  0  0  0  0  0999 V2000
   11.5552   -0.0001   -0.0009 Ru  0  0  0  0  0  0  0  0  0  0  0  0
    9.7849   -1.4298   -0.6063 Cl  0  0  0  0  0  0  0  0  0  0  0  0
   10.2176    1.7670   -0.2692 S   0  0  2  0  0  0  0  0  0  0  0  0
   10.6917    0.1289    2.2090 S   0  0  1  0  0  3  0  0  0  0  0  0
   10.2323    2.3166   -1.6087 O   0  0  0  0  0  1  0  0  0  0  0  0
   10.6007    3.2039    0.8099 C   0  0  0  0  0  0  0  0  0  0  0  0
   10.4514    3.0320    2.3129 C   0  0  0  0  0  0  0  0  0  0  0  0
   11.0735    1.7742    2.9115 C   0  0  0  0  0  0  0  0  0  0  0  0
    8.8682   -0.0065    2.1542 C   0  0  0  0  0  0  0  0  0  0  0  0
    8.0373    1.0856    1.4886 C   0  0  0  0  0  0  0  0  0  0  0  0
    8.4387    1.4572    0.0706 C   0  0  0  0  0  0  0  0  0  0  0  0
    9.9727    4.0096    0.4349 H   0  0  0  0  0  0  0  0  0  0  0  0
   11.6389    3.4130    0.5473 H   0  0  0  0  0  0  0  0  0  0  0  0
   10.9628    3.8753    2.7897 H   0  0  0  0  0  0  0  0  0  0  0  0
    9.4039    3.1068    2.6019 H   0  0  0  0  0  0  0  0  0  0  0  0
   12.1604    1.8108    2.8128 H   0  0  0  0  0  0  0  0  0  0  0  0
   10.8151    1.7050    3.9687 H   0  0  0  0  0  0  0  0  0  0  0  0
    8.5547   -0.1261    3.1917 H   0  0  0  0  0  0  0  0  0  0  0  0
    8.7305   -0.9542    1.6295 H   0  0  0  0  0  0  0  0  0  0  0  0
    8.0073    1.9723    2.1204 H   0  0  0  0  0  0  0  0  0  0  0  0
    7.0121    0.7014    1.4480 H   0  0  0  0  0  0  0  0  0  0  0  0
    8.2142    0.6423   -0.6195 H   0  0  0  0  0  0  0  0  0  0  0  0
    7.9287    2.3570   -0.2678 H   0  0  0  0  0  0  0  0  0  0  0  0
   13.3222    1.4316    0.6099 Cl  0  0  0  0  0  0  0  0  0  0  0  0
   12.8925   -1.7671    0.2694 S   0  0  1  0  0  0  0  0  0  0  0  0
   12.4186   -0.1288   -2.2102 S   0  0  2  0  0  3  0  0  0  0  0  0
   12.8778   -2.3169    1.6089 O   0  0  0  0  0  1  0  0  0  0  0  0
   12.5094   -3.2039   -0.8099 C   0  0  0  0  0  0  0  0  0  0  0  0
   14.6714   -1.4573   -0.0706 C   0  0  0  0  0  0  0  0  0  0  0  0
   12.0367   -1.7743   -2.9119 C   0  0  0  0  0  0  0  0  0  0  0  0
   14.2421    0.0064   -2.1545 C   0  0  0  0  0  0  0  0  0  0  0  0
   12.6587   -3.0320   -2.3129 C   0  0  0  0  0  0  0  0  0  0  0  0
   13.1374   -4.0096   -0.4349 H   0  0  0  0  0  0  0  0  0  0  0  0
   11.4712   -3.4130   -0.5473 H   0  0  0  0  0  0  0  0  0  0  0  0
   15.0727   -1.0856   -1.4886 C   0  0  0  0  0  0  0  0  0  0  0  0
   14.8958   -0.6424    0.6195 H   0  0  0  0  0  0  0  0  0  0  0  0
   15.1813   -2.3571    0.2677 H   0  0  0  0  0  0  0  0  0  0  0  0
   10.9498   -1.8109   -2.8132 H   0  0  0  0  0  0  0  0  0  0  0  0
   12.2951   -1.7054   -3.9691 H   0  0  0  0  0  0  0  0  0  0  0  0
   14.5557    0.1259   -3.1919 H   0  0  0  0  0  0  0  0  0  0  0  0
   14.3797    0.9542   -1.6298 H   0  0  0  0  0  0  0  0  0  0  0  0
   12.1472   -3.8754   -2.7896 H   0  0  0  0  0  0  0  0  0  0  0  0
   13.7062   -3.1069   -2.6019 H   0  0  0  0  0  0  0  0  0  0  0  0
   15.1028   -1.9724   -2.1203 H   0  0  0  0  0  0  0  0  0  0  0  0
   16.0979   -0.7015   -1.4479 H   0  0  0  0  0  0  0  0  0  0  0  0
  1 25  1  0  0  0  0
  1 24  1  0  0  0  0
  1  4  1  0  0  0  0
  2  1  1  0  0  0  0
  3  5  1  6  0  0  0
  3  1  1  0  0  0  0
  3 11  1  0  0  0  0
  3  6  1  0  0  0  0
  4  9  1  6  0  0  0
  4  8  1  0  0  0  0
  6  7  1  0  0  0  0
  7 15  1  0  0  0  0
  7 14  1  0  0  0  0
  7  8  1  0  0  0  0
  8 17  1  0  0  0  0
  9 18  1  0  0  0  0
 10 20  1  0  0  0  0
 10  9  1  0  0  0  0
 11 10  1  0  0  0  0
 12  6  1  0  0  0  0
 13  6  1  0  0  0  0
 16  8  1  0  0  0  0
 19  9  1  0  0  0  0
 21 10  1  0  0  0  0
 22 11  1  0  0  0  0
 23 11  1  0  0  0  0
 25 27  1  1  0  0  0
 26 30  1  1  0  0  0
 26 31  1  0  0  0  0
 26  1  1  0  0  0  0
 28 34  1  0  0  0  0
 28 33  1  0  0  0  0
 28 25  1  0  0  0  0
 29 37  1  0  0  0  0
 29 25  1  0  0  0  0
 29 36  1  0  0  0  0
 30 38  1  0  0  0  0
 30 32  1  0  0  0  0
 31 41  1  0  0  0  0
 31 35  1  0  0  0  0
 32 28  1  0  0  0  0
 35 45  1  0  0  0  0
 35 29  1  0  0  0  0
 39 30  1  0  0  0  0
 40 31  1  0  0  0  0
 42 32  1  0  0  0  0
 43 32  1  0  0  0  0
 44 35  1  0  0  0  0
M  END
$$$$
