CSD_code = JINGET | q = 0 | S = 0 | Stoichiometry = C25H31Cl2N3OPdS | MND = 4
 OpenBabel04212202053D

 64 68  0  0  1  0  0  0  0  0999 V2000
    0.8501    1.3239    4.1192 Pd  0  0  0  0  0  0  0  0  0  0  0  0
    0.2007   -0.7474    3.5946 Cl  0  0  0  0  0  0  0  0  0  0  0  0
   -0.4639    1.3731    5.9056 Cl  0  0  0  0  0  0  0  0  0  0  0  0
    1.6547    3.5247    4.6789 S   0  0  0  0  0  0  0  0  0  0  0  0
    3.6350    2.3445    1.3005 O   0  0  0  0  0  0  0  0  0  0  0  0
    4.3784    3.0173    4.2378 N   0  0  0  0  0  0  0  0  0  0  0  0
    3.3151    3.7234    4.7518 C   0  0  1  0  0  3  0  0  0  0  0  0
    3.7960    4.8145    5.4002 N   0  0  0  0  0  0  0  0  0  0  0  0
    5.1631    4.8282    5.3185 C   0  0  0  0  0  0  0  0  0  0  0  0
    5.5511    3.6903    4.5841 C   0  0  0  0  0  0  0  0  0  0  0  0
    6.9057    3.4785    4.3633 C   0  0  0  0  0  0  0  0  0  0  0  0
    7.2894    2.6439    3.8084 H   0  0  0  0  0  0  0  0  0  0  0  0
    7.8080    4.3945    4.8810 C   0  0  0  0  0  0  0  0  0  0  0  0
    8.8606    4.2311    4.7095 H   0  0  0  0  0  0  0  0  0  0  0  0
    7.4050    5.5065    5.6088 C   0  0  0  0  0  0  0  0  0  0  0  0
    8.1441    6.1903    5.9949 H   0  0  0  0  0  0  0  0  0  0  0  0
    6.0633    5.7408    5.8394 C   0  0  0  0  0  0  0  0  0  0  0  0
    5.7145    6.5935    6.3997 H   0  0  0  0  0  0  0  0  0  0  0  0
    4.2028    1.7062    3.5984 C   0  0  0  0  0  0  0  0  0  0  0  0
    3.1939    1.8382    2.4713 C   0  0  2  0  0  3  0  0  0  0  0  0
    1.9962    1.4152    2.4787 N   0  0  2  0  0  0  0  0  0  0  0  0
    1.4188    1.5386    1.1526 C   0  0  2  0  0  0  0  0  0  0  0  0
    1.2597    0.5136    0.7917 H   0  0  0  0  0  0  0  0  0  0  0  0
    2.5535    2.2411    0.3677 C   0  0  0  0  0  0  0  0  0  0  0  0
    2.8987    1.6586   -0.4885 H   0  0  0  0  0  0  0  0  0  0  0  0
    2.2904    3.2484    0.0387 H   0  0  0  0  0  0  0  0  0  0  0  0
    3.7752    0.6822    4.6664 C   0  0  0  0  0  0  0  0  0  0  0  0
    2.9093    1.0160    5.2687 H   0  0  0  0  0  0  0  0  0  0  0  0
    4.6102    0.5180    5.3459 H   0  0  0  0  0  0  0  0  0  0  0  0
    3.5165   -0.2660    4.1913 H   0  0  0  0  0  0  0  0  0  0  0  0
    5.4749    1.1811    2.9261 C   0  0  0  0  0  0  0  0  0  0  0  0
    6.2149    0.8978    3.6679 H   0  0  0  0  0  0  0  0  0  0  0  0
    5.8808    1.9116    2.2323 H   0  0  0  0  0  0  0  0  0  0  0  0
    5.2109    0.2887    2.3621 H   0  0  0  0  0  0  0  0  0  0  0  0
    0.0369    2.2275    1.1812 C   0  0  0  0  0  0  0  0  0  0  0  0
   -0.5160    1.7624    2.0278 H   0  0  0  0  0  0  0  0  0  0  0  0
   -0.7170    1.9279   -0.1115 C   0  0  0  0  0  0  0  0  0  0  0  0
   -1.6938    2.4032   -0.0892 H   0  0  0  0  0  0  0  0  0  0  0  0
   -0.8619    0.8576   -0.2330 H   0  0  0  0  0  0  0  0  0  0  0  0
   -0.1689    2.3069   -0.9728 H   0  0  0  0  0  0  0  0  0  0  0  0
    0.1047    3.7347    1.4270 C   0  0  0  0  0  0  0  0  0  0  0  0
   -0.8909    4.1078    1.6534 H   0  0  0  0  0  0  0  0  0  0  0  0
    0.4680    4.2671    0.5492 H   0  0  0  0  0  0  0  0  0  0  0  0
    0.7465    3.9682    2.2759 H   0  0  0  0  0  0  0  0  0  0  0  0
    2.9879    5.7267    6.1322 C   0  0  0  0  0  0  0  0  0  0  0  0
    2.5097    5.3823    7.3962 C   0  0  0  0  0  0  0  0  0  0  0  0
    1.7092    6.3148    8.0471 C   0  0  0  0  0  0  0  0  0  0  0  0
    1.3125    6.0780    9.0220 H   0  0  0  0  0  0  0  0  0  0  0  0
    1.4067    7.5350    7.4735 C   0  0  0  0  0  0  0  0  0  0  0  0
    0.7779    8.2351    8.0028 H   0  0  0  0  0  0  0  0  0  0  0  0
    1.9051    7.8627    6.2238 C   0  0  0  0  0  0  0  0  0  0  0  0
    1.6742    8.8158    5.7737 H   0  0  0  0  0  0  0  0  0  0  0  0
    2.6957    6.9519    5.5503 C   0  0  0  0  0  0  0  0  0  0  0  0
    3.0873    7.1768    4.5691 H   0  0  0  0  0  0  0  0  0  0  0  0
    2.8598    4.0718    8.0566 C   0  0  0  0  0  0  0  0  0  0  0  0
    3.4900    3.4850    7.3797 H   0  0  0  0  0  0  0  0  0  0  0  0
    1.6068    3.2498    8.3614 C   0  0  0  0  0  0  0  0  0  0  0  0
    1.0484    3.0335    7.4528 H   0  0  0  0  0  0  0  0  0  0  0  0
    0.9489    3.7765    9.0466 H   0  0  0  0  0  0  0  0  0  0  0  0
    1.8876    2.3032    8.8167 H   0  0  0  0  0  0  0  0  0  0  0  0
    3.6702    4.3312    9.3304 C   0  0  0  0  0  0  0  0  0  0  0  0
    4.5667    4.9070    9.1049 H   0  0  0  0  0  0  0  0  0  0  0  0
    3.9697    3.3861    9.7770 H   0  0  0  0  0  0  0  0  0  0  0  0
    3.0814    4.8816   10.0593 H   0  0  0  0  0  0  0  0  0  0  0  0
  1  4  1  0  0  0  0
  1  3  1  0  0  0  0
  2  1  1  0  0  0  0
  6 10  1  0  0  0  0
  6  7  1  0  0  0  0
  7  4  1  6  0  0  0
  7  8  1  0  0  0  0
  8 45  1  0  0  0  0
  9  8  1  0  0  0  0
  9 17  1  0  0  0  0
 10  9  2  0  0  0  0
 11 10  1  0  0  0  0
 11 13  2  0  0  0  0
 12 11  1  0  0  0  0
 13 15  1  0  0  0  0
 14 13  1  0  0  0  0
 15 17  2  0  0  0  0
 15 16  1  0  0  0  0
 17 18  1  0  0  0  0
 19  6  1  0  0  0  0
 19 27  1  0  0  0  0
 20  5  1  6  0  0  0
 20 21  1  0  0  0  0
 20 19  1  0  0  0  0
 21  1  1  1  0  0  0
 22 23  1  6  0  0  0
 22 35  1  0  0  0  0
 22 21  1  0  0  0  0
 24 22  1  0  0  0  0
 24  5  1  0  0  0  0
 25 24  1  0  0  0  0
 26 24  1  0  0  0  0
 27 28  1  0  0  0  0
 27 29  1  0  0  0  0
 30 27  1  0  0  0  0
 31 19  1  0  0  0  0
 31 32  1  0  0  0  0
 33 31  1  0  0  0  0
 34 31  1  0  0  0  0
 35 41  1  0  0  0  0
 35 36  1  0  0  0  0
 37 38  1  0  0  0  0
 37 35  1  0  0  0  0
 39 37  1  0  0  0  0
 40 37  1  0  0  0  0
 41 42  1  0  0  0  0
 41 44  1  0  0  0  0
 43 41  1  0  0  0  0
 45 46  1  0  0  0  0
 46 47  2  0  0  0  0
 46 55  1  0  0  0  0
 47 48  1  0  0  0  0
 49 50  1  0  0  0  0
 49 47  1  0  0  0  0
 51 49  2  0  0  0  0
 52 51  1  0  0  0  0
 53 45  2  0  0  0  0
 53 51  1  0  0  0  0
 54 53  1  0  0  0  0
 55 57  1  0  0  0  0
 55 61  1  0  0  0  0
 56 55  1  0  0  0  0
 57 60  1  0  0  0  0
 57 59  1  0  0  0  0
 58 57  1  0  0  0  0
 61 63  1  0  0  0  0
 61 64  1  0  0  0  0
 62 61  1  0  0  0  0
M  END
$$$$
