CSD_code = JINMIF | q = 0 | S = 0 | Stoichiometry = C19H12Cl5N2O3Re | MND = 6
 OpenBabel04212202053D

 42 44  0  0  0  0  0  0  0  0999 V2000
    5.8108    4.3891    3.4715 Re  0  0  0  0  0  0  0  0  0  0  0  0
    4.7416    2.3588    2.8662 Cl  0  0  0  0  0  0  0  0  0  0  0  0
    5.3822    4.1725    6.5257 O   0  0  0  0  0  1  0  0  0  0  0  0
    7.7055    3.2540    3.3056 N   0  0  0  0  0  0  0  0  0  0  0  0
    7.8575    2.0798    5.4317 C   0  0  0  0  0  0  0  0  0  0  0  0
    4.6279    0.4836    7.1158 Cl  0  0  0  0  0  0  0  0  0  0  0  0
    6.5833    1.5511    5.6173 C   0  0  0  0  0  0  0  0  0  0  0  0
    5.9057    1.4458    4.7817 H   0  0  0  0  0  0  0  0  0  0  0  0
    6.1698    4.3582    1.2596 N   0  0  0  0  0  0  0  0  0  0  0  0
    2.9225    5.4666    3.3714 O   0  0  0  0  0  1  0  0  0  0  0  0
    9.4080    1.9094    9.0961 Cl  0  0  0  0  0  0  0  0  0  0  0  0
    6.1991    1.1383    6.8842 C   0  0  0  0  0  0  0  0  0  0  0  0
    7.3901    7.0103    3.8997 O   0  0  0  0  0  1  0  0  0  0  0  0
    0.7522    6.3795   -1.0059 Cl  0  0  0  0  0  0  0  0  0  0  0  0
    7.0565    1.2518    7.9682 C   0  0  0  0  0  0  0  0  0  0  0  0
    6.7437    0.9380    8.9508 H   0  0  0  0  0  0  0  0  0  0  0  0
    3.8440    9.2752    2.2912 Cl  0  0  0  0  0  0  0  0  0  0  0  0
    8.3259    1.7712    7.7623 C   0  0  0  0  0  0  0  0  0  0  0  0
    8.7436    2.1686    6.5045 C   0  0  0  0  0  0  0  0  0  0  0  0
    9.7353    2.5697    6.3652 H   0  0  0  0  0  0  0  0  0  0  0  0
    8.3189    2.4817    4.1048 C   0  0  0  0  0  3  0  0  0  0  0  0
    9.2913    2.0676    3.8160 H   0  0  0  0  0  0  0  0  0  0  0  0
    8.2932    3.4790    2.0018 C   0  0  0  0  0  0  0  0  0  0  0  0
    9.0937    2.7605    1.7838 H   0  0  0  0  0  0  0  0  0  0  0  0
    8.7110    4.4940    1.9760 H   0  0  0  0  0  0  0  0  0  0  0  0
    7.1779    3.3650    0.9617 C   0  0  0  0  0  0  0  0  0  0  0  0
    7.5756    3.4783   -0.0538 H   0  0  0  0  0  0  0  0  0  0  0  0
    6.7151    2.3725    1.0543 H   0  0  0  0  0  0  0  0  0  0  0  0
    5.4662    4.7965    0.2977 C   0  0  0  0  0  3  0  0  0  0  0  0
    5.6081    4.3962   -0.7109 H   0  0  0  0  0  0  0  0  0  0  0  0
    4.4261    5.8123    0.4220 C   0  0  0  0  0  0  0  0  0  0  0  0
    3.2364    5.6482   -0.2848 C   0  0  0  0  0  0  0  0  0  0  0  0
    3.0813    4.7764   -0.9012 H   0  0  0  0  0  0  0  0  0  0  0  0
    2.2329    6.5938   -0.1556 C   0  0  0  0  0  0  0  0  0  0  0  0
    2.4026    7.7175    0.6402 C   0  0  0  0  0  0  0  0  0  0  0  0
    1.6158    8.4482    0.7334 H   0  0  0  0  0  0  0  0  0  0  0  0
    3.6054    7.8845    1.3104 C   0  0  0  0  0  0  0  0  0  0  0  0
    4.6181    6.9438    1.2126 C   0  0  0  0  0  0  0  0  0  0  0  0
    5.5521    7.0981    1.7295 H   0  0  0  0  0  0  0  0  0  0  0  0
    5.5660    4.2164    5.3951 C   0  0  0  0  0  2  0  0  0  0  0  0
    4.0254    5.1647    3.4008 C   0  0  0  0  0  2  0  0  0  0  0  0
    6.7862    6.0413    3.7553 C   0  0  0  0  0  2  0  0  0  0  0  0
  1 42  1  0  0  0  0
  1 40  1  0  0  0  0
  2  1  1  0  0  0  0
  4  1  1  0  0  0  0
  4 21  1  0  0  0  0
  5  7  2  0  0  0  0
  5 19  1  0  0  0  0
  7 12  1  0  0  0  0
  8  7  1  0  0  0  0
  9  1  1  0  0  0  0
 10 41  1  0  0  0  0
 12  6  1  0  0  0  0
 12 15  2  0  0  0  0
 14 34  1  0  0  0  0
 15 16  1  0  0  0  0
 18 15  1  0  0  0  0
 18 11  1  0  0  0  0
 19 18  2  0  0  0  0
 20 19  1  0  0  0  0
 21  5  1  0  0  0  0
 22 21  1  0  0  0  0
 23  4  1  0  0  0  0
 24 23  1  0  0  0  0
 25 23  1  0  0  0  0
 26 28  1  0  0  0  0
 26  9  1  0  0  0  0
 26 23  1  0  0  0  0
 27 26  1  0  0  0  0
 29 31  1  0  0  0  0
 29  9  1  0  0  0  0
 30 29  1  0  0  0  0
 31 38  1  0  0  0  0
 32 34  1  0  0  0  0
 32 31  2  0  0  0  0
 33 32  1  0  0  0  0
 34 35  2  0  0  0  0
 35 36  1  0  0  0  0
 35 37  1  0  0  0  0
 37 17  1  0  0  0  0
 38 37  2  0  0  0  0
 38 39  1  0  0  0  0
 40  3  1  0  0  0  0
 41  1  1  0  0  0  0
 42 13  1  0  0  0  0
M  END
$$$$
