CSD_code = JINMOL | q = 0 | S = 0 | Stoichiometry = C19H12BrCl2F2N2O3Re | MND = 6
 OpenBabel04212202053D

 42 44  0  0  0  0  0  0  0  0999 V2000
    0.6447    1.0016   13.9987 C   0  0  0  0  0  0  0  0  0  0  0  0
    1.8310    0.7614   14.6874 C   0  0  0  0  0  0  0  0  0  0  0  0
    2.4937    1.5723   14.9476 H   0  0  0  0  0  0  0  0  0  0  0  0
    2.1622   -0.5264   15.0795 C   0  0  0  0  0  0  0  0  0  0  0  0
    1.2997   -1.5722   14.7630 C   0  0  0  0  0  0  0  0  0  0  0  0
    0.1128   -1.3415   14.0887 C   0  0  0  0  0  0  0  0  0  0  0  0
   -0.5337   -2.1753   13.8656 H   0  0  0  0  0  0  0  0  0  0  0  0
   -0.2239   -0.0539   13.7223 C   0  0  0  0  0  0  0  0  0  0  0  0
   -1.1478    0.1313   13.1961 H   0  0  0  0  0  0  0  0  0  0  0  0
    0.2593    2.3575   13.6090 C   0  0  0  0  0  3  0  0  0  0  0  0
   -0.7276    2.6760   13.9607 H   0  0  0  0  0  0  0  0  0  0  0  0
    0.4241    4.4717   12.6430 C   0  0  0  0  0  0  0  0  0  0  0  0
   -0.3707    4.7349   13.3517 H   0  0  0  0  0  0  0  0  0  0  0  0
    0.0099    4.4903   11.6259 H   0  0  0  0  0  0  0  0  0  0  0  0
    1.5732    5.4755   12.7353 C   0  0  0  0  0  0  0  0  0  0  0  0
    1.2095    6.4957   12.5668 H   0  0  0  0  0  0  0  0  0  0  0  0
    2.0089    5.4239   13.7427 H   0  0  0  0  0  0  0  0  0  0  0  0
    3.3365    6.0268   11.3160 C   0  0  0  0  0  3  0  0  0  0  0  0
    3.2261    7.0492   11.6887 H   0  0  0  0  0  0  0  0  0  0  0  0
    4.3838    5.8361   10.3198 C   0  0  0  0  0  0  0  0  0  0  0  0
    5.6060    6.4826   10.4999 C   0  0  0  0  0  0  0  0  0  0  0  0
    5.7787    7.0866   11.3773 H   0  0  0  0  0  0  0  0  0  0  0  0
    6.6248    6.3205    9.5776 C   0  0  0  0  0  0  0  0  0  0  0  0
    6.3982    5.5317    8.4509 C   0  0  0  0  0  0  0  0  0  0  0  0
    5.1781    4.9125    8.2452 C   0  0  0  0  0  0  0  0  0  0  0  0
    5.0337    4.3184    7.3572 H   0  0  0  0  0  0  0  0  0  0  0  0
    4.1734    5.0558    9.1824 C   0  0  0  0  0  0  0  0  0  0  0  0
    3.2160    4.5853    9.0197 H   0  0  0  0  0  0  0  0  0  0  0  0
    3.0142    0.9439   12.0156 C   0  0  0  0  0  2  0  0  0  0  0  0
    4.6369    2.8346   10.9757 C   0  0  0  0  0  2  0  0  0  0  0  0
    1.8687    2.6245   10.1579 C   0  0  0  0  0  2  0  0  0  0  0  0
    2.5889    5.1046   11.7714 N   0  0  0  0  0  0  0  0  0  0  0  0
    0.9545    3.1475   12.8973 N   0  0  0  0  0  0  0  0  0  0  0  0
    3.1321   -0.1936   12.0918 O   0  0  0  0  0  1  0  0  0  0  0  0
    5.7247    2.7907   10.6217 O   0  0  0  0  0  1  0  0  0  0  0  0
    1.2693    2.4824    9.1873 O   0  0  0  0  0  1  0  0  0  0  0  0
    3.6224   -0.8235   15.9362 Cl  0  0  0  0  0  0  0  0  0  0  0  0
    8.1455    7.0932    9.8082 Cl  0  0  0  0  0  0  0  0  0  0  0  0
    1.6027   -2.8246   15.1268 F   0  0  0  0  0  0  0  0  0  0  0  0
    7.3662    5.3824    7.5397 F   0  0  0  0  0  0  0  0  0  0  0  0
    4.1361    3.4508   13.9422 Br  0  0  0  0  0  0  0  0  0  0  0  0
    2.8682    2.8746   11.7974 Re  0  0  0  0  0  0  0  0  0  0  0  0
  1  2  1  0  0  0  0
  2  3  1  0  0  0  0
  2  4  2  0  0  0  0
  4 37  1  0  0  0  0
  5  4  1  0  0  0  0
  5 39  1  0  0  0  0
  6  5  2  0  0  0  0
  7  6  1  0  0  0  0
  8  1  2  0  0  0  0
  8  6  1  0  0  0  0
  9  8  1  0  0  0  0
 10 11  1  0  0  0  0
 10  1  1  0  0  0  0
 12 15  1  0  0  0  0
 12 33  1  0  0  0  0
 12 13  1  0  0  0  0
 14 12  1  0  0  0  0
 15 17  1  0  0  0  0
 16 15  1  0  0  0  0
 18 19  1  0  0  0  0
 18 32  1  0  0  0  0
 20 21  1  0  0  0  0
 20 18  1  0  0  0  0
 21 22  1  0  0  0  0
 23 38  1  0  0  0  0
 23 21  2  0  0  0  0
 24 23  1  0  0  0  0
 25 24  2  0  0  0  0
 25 27  1  0  0  0  0
 26 25  1  0  0  0  0
 27 20  2  0  0  0  0
 28 27  1  0  0  0  0
 29 34  1  0  0  0  0
 30 42  1  0  0  0  0
 31 42  1  0  0  0  0
 32 42  1  0  0  0  0
 32 15  1  0  0  0  0
 33 10  1  0  0  0  0
 35 30  1  0  0  0  0
 36 31  1  0  0  0  0
 40 24  1  0  0  0  0
 42 29  1  0  0  0  0
 42 33  1  0  0  0  0
 42 41  1  0  0  0  0
M  END
$$$$
