CSD_code = JINNIG | q = 0 | S = 0 | Stoichiometry = C21H12BrCl2F6N2O3Re | MND = 6
 OpenBabel04212202053D

 48 50  0  0  0  0  0  0  0  0999 V2000
    7.1905   17.0995    3.2588 Re  0  0  0  0  0  0  0  0  0  0  0  0
    6.0388   16.3656    1.0862 Br  0  0  0  0  0  0  0  0  0  0  0  0
    8.8995   20.4429    4.1879 Cl  0  0  0  0  0  0  0  0  0  0  0  0
    8.5279   14.2552    5.5066 Cl  0  0  0  0  0  0  0  0  0  0  0  0
    8.7691   15.6660    2.6432 N   0  0  0  0  0  0  0  0  0  0  0  0
    6.2149   20.8835    1.2722 C   0  0  0  0  0  0  0  0  0  0  0  0
    6.0379   20.4976    0.2792 H   0  0  0  0  0  0  0  0  0  0  0  0
    7.4927   13.3984    4.4244 C   0  0  0  0  0  0  0  0  0  0  0  0
    5.1665   15.2395    4.6667 O   0  0  0  0  0  1  0  0  0  0  0  0
    6.5163   12.5569    4.9361 C   0  0  0  0  0  0  0  0  0  0  0  0
    6.4144   12.4450    6.0032 H   0  0  0  0  0  0  0  0  0  0  0  0
    8.1898   17.5212    4.8691 C   0  0  0  0  0  2  0  0  0  0  0  0
    6.6420   21.8593    3.8425 C   0  0  0  0  0  0  0  0  0  0  0  0
    6.8218   22.2369    4.8360 H   0  0  0  0  0  0  0  0  0  0  0  0
    5.5430   22.2816    3.1196 C   0  0  0  0  0  0  0  0  0  0  0  0
    4.8475   22.9862    3.5479 H   0  0  0  0  0  0  0  0  0  0  0  0
    9.3580   17.4465    1.1291 C   0  0  0  0  0  0  0  0  0  0  0  0
   10.1803   18.0327    0.7046 H   0  0  0  0  0  0  0  0  0  0  0  0
    8.8160   16.9590    0.3066 H   0  0  0  0  0  0  0  0  0  0  0  0
    4.9440   19.1741    3.7222 O   0  0  0  0  0  1  0  0  0  0  0  0
    8.4256   18.2856    1.8557 N   0  0  0  0  0  0  0  0  0  0  0  0
    5.9792   15.8984    4.1996 C   0  0  0  0  0  2  0  0  0  0  0  0
    9.8950   16.3693    2.0716 C   0  0  0  0  0  0  0  0  0  0  0  0
   10.5691   15.6931    1.5302 H   0  0  0  0  0  0  0  0  0  0  0  0
   10.4464   16.8441    2.8927 H   0  0  0  0  0  0  0  0  0  0  0  0
    7.6455   13.5604    3.0463 C   0  0  0  0  0  0  0  0  0  0  0  0
    5.8172   18.4466    3.5663 C   0  0  0  0  0  2  0  0  0  0  0  0
    7.5167   20.9365    3.2902 C   0  0  0  0  0  0  0  0  0  0  0  0
    5.8157   12.0442    2.7013 C   0  0  0  0  0  0  0  0  0  0  0  0
    7.3048   20.4265    2.0067 C   0  0  0  0  0  0  0  0  0  0  0  0
    8.2203   19.4530    1.4012 C   0  0  0  0  0  3  0  0  0  0  0  0
    8.7181   19.7857    0.4863 H   0  0  0  0  0  0  0  0  0  0  0  0
    8.7065   14.4101    2.4915 C   0  0  0  0  0  3  0  0  0  0  0  0
    9.4714   13.8819    1.9133 H   0  0  0  0  0  0  0  0  0  0  0  0
    4.8805   11.2977    1.7877 C   0  0  0  0  0  0  0  0  0  0  0  0
    6.8025   12.8663    2.1843 C   0  0  0  0  0  0  0  0  0  0  0  0
    6.8975   12.9998    1.1170 H   0  0  0  0  0  0  0  0  0  0  0  0
    5.3350   21.7932    1.8352 C   0  0  0  0  0  0  0  0  0  0  0  0
    5.6711   11.8844    4.0751 C   0  0  0  0  0  0  0  0  0  0  0  0
    4.8998   11.2377    4.4634 H   0  0  0  0  0  0  0  0  0  0  0  0
    8.7735   17.7045    5.8385 O   0  0  0  0  0  1  0  0  0  0  0  0
    4.1690   22.3073    1.0339 C   0  0  0  0  0  0  0  0  0  0  0  0
    4.4632   23.4911    0.4539 F   0  0  0  0  0  0  0  0  0  0  0  0
    3.0823   22.5231    1.7846 F   0  0  0  0  0  0  0  0  0  0  0  0
    3.8078   21.4869    0.0433 F   0  0  0  0  0  0  0  0  0  0  0  0
    4.8335    9.9870    2.0979 F   0  0  0  0  0  0  0  0  0  0  0  0
    5.2338   11.3669    0.5003 F   0  0  0  0  0  0  0  0  0  0  0  0
    3.6193   11.7437    1.8736 F   0  0  0  0  0  0  0  0  0  0  0  0
  1 27  1  0  0  0  0
  1 22  1  0  0  0  0
  1 12  1  0  0  0  0
  2  1  1  0  0  0  0
  5  1  1  0  0  0  0
  6 38  2  0  0  0  0
  6 30  1  0  0  0  0
  7  6  1  0  0  0  0
  8 10  1  0  0  0  0
  8  4  1  0  0  0  0
 10 11  1  0  0  0  0
 12 41  1  0  0  0  0
 13 14  1  0  0  0  0
 15 16  1  0  0  0  0
 15 13  2  0  0  0  0
 17 21  1  0  0  0  0
 17 23  1  0  0  0  0
 18 17  1  0  0  0  0
 19 17  1  0  0  0  0
 21  1  1  0  0  0  0
 22  9  1  0  0  0  0
 23  5  1  0  0  0  0
 23 25  1  0  0  0  0
 24 23  1  0  0  0  0
 26  8  2  0  0  0  0
 27 20  1  0  0  0  0
 28 13  1  0  0  0  0
 28  3  1  0  0  0  0
 29 39  1  0  0  0  0
 30 28  2  0  0  0  0
 31 21  1  0  0  0  0
 31 30  1  0  0  0  0
 32 31  1  0  0  0  0
 33  5  1  0  0  0  0
 33 26  1  0  0  0  0
 34 33  1  0  0  0  0
 35 48  1  0  0  0  0
 35 46  1  0  0  0  0
 35 29  1  0  0  0  0
 36 29  2  0  0  0  0
 36 26  1  0  0  0  0
 37 36  1  0  0  0  0
 38 15  1  0  0  0  0
 39 40  1  0  0  0  0
 39 10  2  0  0  0  0
 42 44  1  0  0  0  0
 42 38  1  0  0  0  0
 43 42  1  0  0  0  0
 45 42  1  0  0  0  0
 47 35  1  0  0  0  0
M  END
$$$$
