CSD_code = JINTOS | q = 0 | S = 0 | Stoichiometry = C35H27ClNO2PPt | MND = 4
 OpenBabel04212202053D

 68 74  0  0  0  0  0  0  0  0999 V2000
    4.2572    7.7824   12.7288 Pt  0  0  2  0  0  0  0  0  0  0  0  0
    4.1729    9.9164   11.6819 Cl  0  0  0  0  0  0  0  0  0  0  0  0
    4.9227    8.8878   14.5847 P   0  0  0  0  0  4  0  0  0  0  0  0
    0.7231    3.9547    8.3835 O   0  0  0  0  0  0  0  0  0  0  0  0
    0.9834    5.6554    6.9544 O   0  0  0  0  0  0  0  0  0  0  0  0
    3.7249    6.7480   11.0863 N   0  0  0  0  0  0  0  0  0  0  0  0
    3.7329    6.0466   13.5983 C   0  0  0  0  0  0  0  0  0  0  0  0
    3.8628    5.6001   14.9085 C   0  0  0  0  0  0  0  0  0  0  0  0
    4.5111    6.1259   15.5978 H   0  0  0  0  0  0  0  0  0  0  0  0
    3.1828    4.4802   15.3581 C   0  0  0  0  0  0  0  0  0  0  0  0
    3.3129    4.1477   16.3782 H   0  0  0  0  0  0  0  0  0  0  0  0
    2.3284    3.7893   14.5116 C   0  0  0  0  0  0  0  0  0  0  0  0
    1.7904    2.9246   14.8717 H   0  0  0  0  0  0  0  0  0  0  0  0
    2.1692    4.2075   13.2062 C   0  0  0  0  0  0  0  0  0  0  0  0
    1.5044    3.6653   12.5498 H   0  0  0  0  0  0  0  0  0  0  0  0
    2.8663    5.3233   12.7437 C   0  0  0  0  0  0  0  0  0  0  0  0
    2.8522    5.7725   11.3572 C   0  0  0  0  0  0  0  0  0  0  0  0
    2.0617    5.2192   10.3363 C   0  0  0  0  0  0  0  0  0  0  0  0
    1.3223    4.4744   10.5786 H   0  0  0  0  0  0  0  0  0  0  0  0
    2.1808    5.6618    9.0383 C   0  0  0  0  0  0  0  0  0  0  0  0
    3.2019    6.6042    8.7229 C   0  0  0  0  0  0  0  0  0  0  0  0
    3.5016    7.0484    7.4221 C   0  0  0  0  0  0  0  0  0  0  0  0
    2.8972    6.6987    6.6015 H   0  0  0  0  0  0  0  0  0  0  0  0
    4.5434    7.9101    7.2005 C   0  0  0  0  0  0  0  0  0  0  0  0
    4.7564    8.2479    6.1973 H   0  0  0  0  0  0  0  0  0  0  0  0
    5.3565    8.3355    8.2585 C   0  0  0  0  0  0  0  0  0  0  0  0
    6.2007    8.9784    8.0602 H   0  0  0  0  0  0  0  0  0  0  0  0
    5.0882    7.9332    9.5383 C   0  0  0  0  0  0  0  0  0  0  0  0
    5.7182    8.2336   10.3656 H   0  0  0  0  0  0  0  0  0  0  0  0
    3.9859    7.0980    9.8061 C   0  0  0  0  0  0  0  0  0  0  0  0
    1.2554    5.1302    8.0055 C   0  0  0  0  0  0  0  0  0  0  0  0
   -0.1913    3.3706    7.4692 C   0  0  0  0  0  0  0  0  0  0  0  0
   -1.0371    4.0399    7.2979 H   0  0  0  0  0  0  0  0  0  0  0  0
   -0.5234    2.4410    7.9243 H   0  0  0  0  0  0  0  0  0  0  0  0
    0.2996    3.1759    6.5133 H   0  0  0  0  0  0  0  0  0  0  0  0
    6.2578    7.9619   15.4135 C   0  0  0  0  0  0  0  0  0  0  0  0
    7.0706    7.2175   14.5611 C   0  0  0  0  0  0  0  0  0  0  0  0
    6.8308    7.2041   13.4978 H   0  0  0  0  0  0  0  0  0  0  0  0
    8.1383    6.4993   15.0632 C   0  0  0  0  0  0  0  0  0  0  0  0
    8.7667    5.9244   14.3992 H   0  0  0  0  0  0  0  0  0  0  0  0
    8.3957    6.5135   16.4257 C   0  0  0  0  0  0  0  0  0  0  0  0
    9.2268    5.9505   16.8240 H   0  0  0  0  0  0  0  0  0  0  0  0
    7.5821    7.2408   17.2782 C   0  0  0  0  0  0  0  0  0  0  0  0
    7.7778    7.2413   18.3406 H   0  0  0  0  0  0  0  0  0  0  0  0
    6.5151    7.9679   16.7772 C   0  0  0  0  0  0  0  0  0  0  0  0
    5.8764    8.5213   17.4496 H   0  0  0  0  0  0  0  0  0  0  0  0
    3.6419    9.1902   15.8358 C   0  0  0  0  0  0  0  0  0  0  0  0
    2.4050    8.5802   15.6593 C   0  0  0  0  0  0  0  0  0  0  0  0
    2.2469    7.9619   14.7817 H   0  0  0  0  0  0  0  0  0  0  0  0
    1.3949    8.7753   16.5839 C   0  0  0  0  0  0  0  0  0  0  0  0
    0.4350    8.3010   16.4432 H   0  0  0  0  0  0  0  0  0  0  0  0
    1.6151    9.5842   17.6867 C   0  0  0  0  0  0  0  0  0  0  0  0
    0.8288    9.7362   18.4113 H   0  0  0  0  0  0  0  0  0  0  0  0
    2.8385   10.2145   17.8539 C   0  0  0  0  0  0  0  0  0  0  0  0
    3.0013   10.8600   18.7048 H   0  0  0  0  0  0  0  0  0  0  0  0
    3.8497   10.0266   16.9296 C   0  0  0  0  0  0  0  0  0  0  0  0
    4.7928   10.5446   17.0417 H   0  0  0  0  0  0  0  0  0  0  0  0
    5.6769   10.5347   14.4094 C   0  0  0  0  0  0  0  0  0  0  0  0
    7.0525   10.6952   14.2921 C   0  0  0  0  0  0  0  0  0  0  0  0
    7.7045    9.8347   14.3522 H   0  0  0  0  0  0  0  0  0  0  0  0
    7.5867   11.9567   14.0960 C   0  0  0  0  0  0  0  0  0  0  0  0
    8.6567   12.0772   14.0071 H   0  0  0  0  0  0  0  0  0  0  0  0
    6.7543   13.0590   14.0052 C   0  0  0  0  0  0  0  0  0  0  0  0
    7.1741   14.0414   13.8457 H   0  0  0  0  0  0  0  0  0  0  0  0
    5.3811   12.9004   14.1084 C   0  0  0  0  0  0  0  0  0  0  0  0
    4.7296   13.7577   14.0240 H   0  0  0  0  0  0  0  0  0  0  0  0
    4.8420   11.6445   14.3071 C   0  0  0  0  0  0  0  0  0  0  0  0
    3.7706   11.5129   14.3701 H   0  0  0  0  0  0  0  0  0  0  0  0
  1  2  1  1  0  0  0
  1  7  2  0  0  0  0
  1  3  1  0  0  0  0
  3 36  1  0  0  0  0
  3 47  1  0  0  0  0
  5 31  2  0  0  0  0
  6 17  1  0  0  0  0
  6  1  1  0  0  0  0
  7  8  1  0  0  0  0
  8 10  2  0  0  0  0
  8  9  1  0  0  0  0
 10 11  1  0  0  0  0
 12 13  1  0  0  0  0
 12 10  1  0  0  0  0
 14 12  2  0  0  0  0
 15 14  1  0  0  0  0
 16 14  1  0  0  0  0
 16  7  1  0  0  0  0
 17 16  2  0  0  0  0
 18 19  1  0  0  0  0
 18 17  1  0  0  0  0
 20 18  2  0  0  0  0
 21 20  1  0  0  0  0
 21 30  1  0  0  0  0
 22 21  2  0  0  0  0
 23 22  1  0  0  0  0
 24 22  1  0  0  0  0
 24 26  2  0  0  0  0
 25 24  1  0  0  0  0
 26 28  1  0  0  0  0
 27 26  1  0  0  0  0
 28 30  2  0  0  0  0
 28 29  1  0  0  0  0
 30  6  1  0  0  0  0
 31  4  1  0  0  0  0
 31 20  1  0  0  0  0
 32 34  1  0  0  0  0
 32  4  1  0  0  0  0
 33 32  1  0  0  0  0
 35 32  1  0  0  0  0
 36 45  1  0  0  0  0
 37 39  1  0  0  0  0
 37 36  2  0  0  0  0
 38 37  1  0  0  0  0
 39 41  2  0  0  0  0
 40 39  1  0  0  0  0
 41 42  1  0  0  0  0
 41 43  1  0  0  0  0
 43 44  1  0  0  0  0
 45 43  2  0  0  0  0
 45 46  1  0  0  0  0
 47 56  1  0  0  0  0
 48 47  2  0  0  0  0
 48 50  1  0  0  0  0
 49 48  1  0  0  0  0
 50 52  2  0  0  0  0
 51 50  1  0  0  0  0
 52 54  1  0  0  0  0
 52 53  1  0  0  0  0
 54 55  1  0  0  0  0
 56 57  1  0  0  0  0
 56 54  2  0  0  0  0
 58  3  1  0  0  0  0
 59 60  1  0  0  0  0
 59 58  2  0  0  0  0
 61 59  1  0  0  0  0
 62 61  1  0  0  0  0
 63 61  2  0  0  0  0
 63 65  1  0  0  0  0
 64 63  1  0  0  0  0
 65 67  2  0  0  0  0
 66 65  1  0  0  0  0
 67 68  1  0  0  0  0
 67 58  1  0  0  0  0
M  END
$$$$
