CSD_code = JIPFAS | q = 0 | S = 0 | Stoichiometry = C7H12AuCl2NS2 | MND = 4
 OpenBabel04212202053D

 25 26  0  0  0  0  0  0  0  0999 V2000
    4.7151    6.3498    6.7983 Au  0  0  0  0  0  0  0  0  0  0  0  0
    2.6175    6.8064    7.5349 Cl  0  0  0  0  0  0  0  0  0  0  0  0
    5.5873    7.3356    8.6471 Cl  0  0  0  0  0  0  0  0  0  0  0  0
    4.1221    5.2786    4.7675 S   0  0  0  0  0  0  0  0  0  0  0  0
    6.7561    5.7149    5.7710 S   0  0  0  0  0  0  0  0  0  0  0  0
    6.2965    4.4618    3.4468 N   0  0  0  0  0  0  0  0  0  0  0  0
    5.8024    5.0670    4.5019 C   0  0  0  0  0  3  0  0  0  0  0  0
    5.4103    3.9686    2.4120 C   0  0  0  0  0  0  0  0  0  0  0  0
    4.5004    3.6003    2.8937 H   0  0  0  0  0  0  0  0  0  0  0  0
    5.9037    3.1396    1.9045 H   0  0  0  0  0  0  0  0  0  0  0  0
    5.0455    5.0769    1.4219 C   0  0  0  0  0  0  0  0  0  0  0  0
    4.1923    4.7428    0.8309 H   0  0  0  0  0  0  0  0  0  0  0  0
    4.7295    5.9538    1.9891 H   0  0  0  0  0  0  0  0  0  0  0  0
    6.1904    5.4467    0.4832 C   0  0  0  0  0  0  0  0  0  0  0  0
    5.8704    6.2945   -0.1245 H   0  0  0  0  0  0  0  0  0  0  0  0
    6.3856    4.6138   -0.1966 H   0  0  0  0  0  0  0  0  0  0  0  0
    7.4903    5.8142    1.1998 C   0  0  0  0  0  0  0  0  0  0  0  0
    8.1659    6.2536    0.4645 H   0  0  0  0  0  0  0  0  0  0  0  0
    7.2969    6.5726    1.9603 H   0  0  0  0  0  0  0  0  0  0  0  0
    8.1823    4.6049    1.8344 C   0  0  0  0  0  0  0  0  0  0  0  0
    9.2584    4.7778    1.8769 H   0  0  0  0  0  0  0  0  0  0  0  0
    8.0245    3.7291    1.2029 H   0  0  0  0  0  0  0  0  0  0  0  0
    7.7281    4.3248    3.2678 C   0  0  0  0  0  0  0  0  0  0  0  0
    8.0264    3.3129    3.5643 H   0  0  0  0  0  0  0  0  0  0  0  0
    8.2089    5.0303    3.9499 H   0  0  0  0  0  0  0  0  0  0  0  0
  1  2  1  0  0  0  0
  1  3  1  0  0  0  0
  4  1  1  0  0  0  0
  5  1  1  0  0  0  0
  6  7  1  0  0  0  0
  7  4  1  0  0  0  0
  7  5  1  0  0  0  0
  8  9  1  0  0  0  0
  8  6  1  0  0  0  0
 10  8  1  0  0  0  0
 11 13  1  0  0  0  0
 11  8  1  0  0  0  0
 12 11  1  0  0  0  0
 14 17  1  0  0  0  0
 14 11  1  0  0  0  0
 15 14  1  0  0  0  0
 16 14  1  0  0  0  0
 17 20  1  0  0  0  0
 17 19  1  0  0  0  0
 18 17  1  0  0  0  0
 20 21  1  0  0  0  0
 20 23  1  0  0  0  0
 22 20  1  0  0  0  0
 23  6  1  0  0  0  0
 23 24  1  0  0  0  0
 23 25  1  0  0  0  0
M  END
$$$$
