CSD_code = JIQHUN | q = 0 | S = 0 | Stoichiometry = C30H37HgI | MND = 2
 OpenBabel04212202053D

 69 71  0  0  0  0  0  0  0  0999 V2000
   14.3149    5.2228    2.4813 Hg  0  0  0  0  0  0  0  0  0  0  0  0
   16.2393    5.2230    0.5875 I   0  0  0  0  0  0  0  0  0  0  0  0
   12.8085    5.2227    4.0902 C   0  0  0  0  0  0  0  0  0  0  0  0
   12.3329    6.4281    4.6097 C   0  0  0  0  0  0  0  0  0  0  0  0
   11.3895    6.4202    5.6329 C   0  0  0  0  0  0  0  0  0  0  0  0
   11.0315    7.3618    6.0236 H   0  0  0  0  0  0  0  0  0  0  0  0
   10.9197    5.2228    6.1403 C   0  0  0  0  0  0  0  0  0  0  0  0
   10.1874    5.2228    6.9343 H   0  0  0  0  0  0  0  0  0  0  0  0
   12.8466    7.7142    4.0673 C   0  0  0  0  0  0  0  0  0  0  0  0
   13.9923    8.2923    4.6270 C   0  0  0  0  0  0  0  0  0  0  0  0
   14.4678    9.4850    4.0978 C   0  0  0  0  0  0  0  0  0  0  0  0
   15.3519    9.9428    4.5152 H   0  0  0  0  0  0  0  0  0  0  0  0
   13.8249   10.0951    3.0383 C   0  0  0  0  0  0  0  0  0  0  0  0
   14.2086   11.0206    2.6347 H   0  0  0  0  0  0  0  0  0  0  0  0
   12.6925    9.5211    2.4934 C   0  0  0  0  0  0  0  0  0  0  0  0
   12.1994   10.0064    1.6647 H   0  0  0  0  0  0  0  0  0  0  0  0
   12.1870    8.3299    2.9970 C   0  0  0  0  0  0  0  0  0  0  0  0
   10.9485    7.7144    2.3851 C   0  0  0  0  0  0  0  0  0  0  0  0
   10.6865    6.8154    2.9531 H   0  0  0  0  0  0  0  0  0  0  0  0
    9.7615    8.6768    2.4562 C   0  0  0  0  0  0  0  0  0  0  0  0
    8.8634    8.1908    2.0808 H   0  0  0  0  0  0  0  0  0  0  0  0
    9.9416    9.5675    1.8598 H   0  0  0  0  0  0  0  0  0  0  0  0
    9.5846    8.9820    3.4851 H   0  0  0  0  0  0  0  0  0  0  0  0
   11.2225    7.2963    0.9390 C   0  0  0  0  0  0  0  0  0  0  0  0
   12.0677    6.6025    0.8970 H   0  0  0  0  0  0  0  0  0  0  0  0
   11.4649    8.1576    0.3216 H   0  0  0  0  0  0  0  0  0  0  0  0
   10.3526    6.7993    0.5153 H   0  0  0  0  0  0  0  0  0  0  0  0
   14.7088    7.6446    5.7910 C   0  0  0  0  0  0  0  0  0  0  0  0
   14.1718    6.7319    6.0705 H   0  0  0  0  0  0  0  0  0  0  0  0
   14.7214    8.5723    7.0077 C   0  0  0  0  0  0  0  0  0  0  0  0
   13.7054    8.8465    7.2832 H   0  0  0  0  0  0  0  0  0  0  0  0
   15.2780    9.4825    6.8005 H   0  0  0  0  0  0  0  0  0  0  0  0
   15.1857    8.0721    7.8548 H   0  0  0  0  0  0  0  0  0  0  0  0
   16.1331    7.2508    5.3944 C   0  0  0  0  0  0  0  0  0  0  0  0
   16.1183    6.5997    4.5150 H   0  0  0  0  0  0  0  0  0  0  0  0
   16.6187    6.7150    6.2070 H   0  0  0  0  0  0  0  0  0  0  0  0
   16.7300    8.1265    5.1524 H   0  0  0  0  0  0  0  0  0  0  0  0
   12.3329    4.0174    4.6097 C   0  0  0  0  0  0  0  0  0  0  0  0
   11.3895    4.0253    5.6329 C   0  0  0  0  0  0  0  0  0  0  0  0
   11.0315    3.0837    6.0237 H   0  0  0  0  0  0  0  0  0  0  0  0
   12.8466    2.7313    4.0673 C   0  0  0  0  0  0  0  0  0  0  0  0
   13.9923    2.1532    4.6270 C   0  0  0  0  0  0  0  0  0  0  0  0
   14.4678    0.9605    4.0978 C   0  0  0  0  0  0  0  0  0  0  0  0
   15.3519    0.5027    4.5152 H   0  0  0  0  0  0  0  0  0  0  0  0
   13.8248    0.3504    3.0383 C   0  0  0  0  0  0  0  0  0  0  0  0
   14.2086   -0.5751    2.6347 H   0  0  0  0  0  0  0  0  0  0  0  0
   12.6925    0.9244    2.4934 C   0  0  0  0  0  0  0  0  0  0  0  0
   12.1994    0.4391    1.6647 H   0  0  0  0  0  0  0  0  0  0  0  0
   12.1869    2.1156    2.9971 C   0  0  0  0  0  0  0  0  0  0  0  0
   10.9485    2.7311    2.3851 C   0  0  0  0  0  0  0  0  0  0  0  0
   10.6865    3.6301    2.9531 H   0  0  0  0  0  0  0  0  0  0  0  0
    9.7615    1.7687    2.4562 C   0  0  0  0  0  0  0  0  0  0  0  0
    8.8634    2.2547    2.0808 H   0  0  0  0  0  0  0  0  0  0  0  0
    9.9416    0.8780    1.8598 H   0  0  0  0  0  0  0  0  0  0  0  0
    9.5845    1.4635    3.4851 H   0  0  0  0  0  0  0  0  0  0  0  0
   11.2225    3.1492    0.9391 C   0  0  0  0  0  0  0  0  0  0  0  0
   12.0676    3.8430    0.8970 H   0  0  0  0  0  0  0  0  0  0  0  0
   11.4649    2.2879    0.3217 H   0  0  0  0  0  0  0  0  0  0  0  0
   10.3525    3.6462    0.5153 H   0  0  0  0  0  0  0  0  0  0  0  0
   14.7088    2.8009    5.7910 C   0  0  0  0  0  0  0  0  0  0  0  0
   14.1718    3.7136    6.0705 H   0  0  0  0  0  0  0  0  0  0  0  0
   14.7214    1.8732    7.0077 C   0  0  0  0  0  0  0  0  0  0  0  0
   13.7054    1.5990    7.2832 H   0  0  0  0  0  0  0  0  0  0  0  0
   15.2780    0.9630    6.8005 H   0  0  0  0  0  0  0  0  0  0  0  0
   15.1857    2.3734    7.8548 H   0  0  0  0  0  0  0  0  0  0  0  0
   16.1331    3.1947    5.3944 C   0  0  0  0  0  0  0  0  0  0  0  0
   16.1183    3.8458    4.5150 H   0  0  0  0  0  0  0  0  0  0  0  0
   16.6187    3.7305    6.2070 H   0  0  0  0  0  0  0  0  0  0  0  0
   16.7299    2.3190    5.1523 H   0  0  0  0  0  0  0  0  0  0  0  0
  1  3  1  0  0  0  0
  2  1  1  0  0  0  0
  3  4  2  0  0  0  0
  3 38  1  0  0  0  0
  4  5  1  0  0  0  0
  5  6  1  0  0  0  0
  5  7  2  0  0  0  0
  7  8  1  0  0  0  0
  9  4  1  0  0  0  0
  9 10  1  0  0  0  0
 10 28  1  0  0  0  0
 11 12  1  0  0  0  0
 11 10  2  0  0  0  0
 13 11  1  0  0  0  0
 14 13  1  0  0  0  0
 15 17  1  0  0  0  0
 15 13  2  0  0  0  0
 16 15  1  0  0  0  0
 17  9  2  0  0  0  0
 18 20  1  0  0  0  0
 18 19  1  0  0  0  0
 18 17  1  0  0  0  0
 20 23  1  0  0  0  0
 21 20  1  0  0  0  0
 22 20  1  0  0  0  0
 24 18  1  0  0  0  0
 25 24  1  0  0  0  0
 26 24  1  0  0  0  0
 27 24  1  0  0  0  0
 28 29  1  0  0  0  0
 28 30  1  0  0  0  0
 30 31  1  0  0  0  0
 30 33  1  0  0  0  0
 32 30  1  0  0  0  0
 34 28  1  0  0  0  0
 34 36  1  0  0  0  0
 35 34  1  0  0  0  0
 37 34  1  0  0  0  0
 38 39  2  0  0  0  0
 39 40  1  0  0  0  0
 39  7  1  0  0  0  0
 41 38  1  0  0  0  0
 41 42  1  0  0  0  0
 42 60  1  0  0  0  0
 43 44  1  0  0  0  0
 43 42  2  0  0  0  0
 45 43  1  0  0  0  0
 46 45  1  0  0  0  0
 47 49  1  0  0  0  0
 47 45  2  0  0  0  0
 48 47  1  0  0  0  0
 49 41  2  0  0  0  0
 50 52  1  0  0  0  0
 50 51  1  0  0  0  0
 50 49  1  0  0  0  0
 52 55  1  0  0  0  0
 53 52  1  0  0  0  0
 54 52  1  0  0  0  0
 56 50  1  0  0  0  0
 57 56  1  0  0  0  0
 58 56  1  0  0  0  0
 59 56  1  0  0  0  0
 60 61  1  0  0  0  0
 60 62  1  0  0  0  0
 62 63  1  0  0  0  0
 62 65  1  0  0  0  0
 64 62  1  0  0  0  0
 66 60  1  0  0  0  0
 66 68  1  0  0  0  0
 67 66  1  0  0  0  0
 69 66  1  0  0  0  0
M  END
$$$$
