CSD_code = JIQPOR | q = 0 | S = 0 | Stoichiometry = C12H19ClN2O2PtS2 | MND = 4
 OpenBabel04212202053D

 39 41  0  0  0  0  0  0  0  0999 V2000
    1.3272    2.9124    3.3506 Pt  0  0  1  0  0  0  0  0  0  0  0  0
   -0.5467    4.0522    2.6311 Cl  0  0  0  0  0  0  0  0  0  0  0  0
    5.1047    2.9592    6.4478 C   0  0  0  0  0  0  0  0  0  0  0  0
    3.9043    3.4912    5.8190 C   0  0  0  0  0  0  0  0  0  0  0  0
    3.8764    2.4776    4.8404 C   0  0  0  0  0  0  0  0  0  0  0  0
    5.1625    1.9309    5.3500 C   0  0  0  0  0  0  0  0  0  0  0  0
    2.1221    5.1907    5.3909 C   0  0  0  0  0  0  0  0  0  0  0  0
    2.2020    4.9074    4.3256 H   0  0  0  0  0  0  0  0  0  0  0  0
    2.1586    6.2827    5.4637 H   0  0  0  0  0  0  0  0  0  0  0  0
    0.7603    4.7121    5.9071 C   0  0  0  0  0  0  0  0  0  0  0  0
   -0.0403    5.2006    5.3523 H   0  0  0  0  0  0  0  0  0  0  0  0
    0.6618    4.8974    6.9766 H   0  0  0  0  0  0  0  0  0  0  0  0
   -1.2114    2.7179    5.5585 C   0  0  0  0  0  0  0  0  0  0  0  0
   -1.5905    3.4044    4.8014 H   0  0  0  0  0  0  0  0  0  0  0  0
   -1.3637    1.6928    5.2198 H   0  0  0  0  0  0  0  0  0  0  0  0
   -1.8462    2.9413    6.9166 C   0  0  0  0  0  0  0  0  0  0  0  0
   -1.4000    2.2878    7.6627 H   0  0  0  0  0  0  0  0  0  0  0  0
   -2.9099    2.7229    6.8585 H   0  0  0  0  0  0  0  0  0  0  0  0
   -1.7292    3.9728    7.2397 H   0  0  0  0  0  0  0  0  0  0  0  0
    3.4769    1.0149    3.0011 C   0  0  0  0  0  0  0  0  0  0  0  0
    2.7120    0.2286    2.9985 H   0  0  0  0  0  0  0  0  0  0  0  0
    4.4266    0.5831    3.3351 H   0  0  0  0  0  0  0  0  0  0  0  0
    3.6276    1.5783    1.5888 C   0  0  0  0  0  0  0  0  0  0  0  0
    3.7165    0.7886    0.8448 H   0  0  0  0  0  0  0  0  0  0  0  0
    4.4863    2.2443    1.5280 H   0  0  0  0  0  0  0  0  0  0  0  0
    2.8447    4.2314    0.8955 C   0  0  0  0  0  0  0  0  0  0  0  0
    1.9942    4.9126    0.9493 H   0  0  0  0  0  0  0  0  0  0  0  0
    3.5368    4.4428    1.7121 H   0  0  0  0  0  0  0  0  0  0  0  0
    3.5255    4.3210   -0.4565 C   0  0  0  0  0  0  0  0  0  0  0  0
    4.3590    3.6252   -0.5243 H   0  0  0  0  0  0  0  0  0  0  0  0
    3.9073    5.3278   -0.6099 H   0  0  0  0  0  0  0  0  0  0  0  0
    2.8195    4.0941   -1.2514 H   0  0  0  0  0  0  0  0  0  0  0  0
    3.2426    4.6436    6.0992 N   0  0  0  0  0  0  0  0  0  0  0  0
    3.4874    5.0560    6.9866 H   0  0  0  0  0  0  0  0  0  0  0  0
    3.0646    2.0807    3.8848 N   0  0  0  0  0  0  0  0  0  0  0  0
    5.7301    3.2315    7.4537 O   0  0  0  0  0  0  0  0  0  0  0  0
    5.9295    1.0869    4.9354 O   0  0  0  0  0  0  0  0  0  0  0  0
    0.6063    2.9096    5.6307 S   0  0  1  0  0  3  0  0  0  0  0  0
    2.1279    2.5635    1.1626 S   0  0  2  0  0  3  0  0  0  0  0  0
  1  2  1  1  0  0  0
  1 35  1  0  0  0  0
  1 38  1  0  0  0  0
  3 36  2  0  0  0  0
  4 33  1  0  0  0  0
  4  3  1  0  0  0  0
  5  6  1  0  0  0  0
  5  4  2  0  0  0  0
  6  3  1  0  0  0  0
  7  9  1  0  0  0  0
  7 10  1  0  0  0  0
  7 33  1  0  0  0  0
  8  7  1  0  0  0  0
 10 12  1  0  0  0  0
 11 10  1  0  0  0  0
 13 16  1  0  0  0  0
 14 13  1  0  0  0  0
 15 13  1  0  0  0  0
 16 19  1  0  0  0  0
 16 17  1  0  0  0  0
 18 16  1  0  0  0  0
 20 22  1  0  0  0  0
 20 35  1  0  0  0  0
 21 20  1  0  0  0  0
 23 20  1  0  0  0  0
 24 23  1  0  0  0  0
 25 23  1  0  0  0  0
 26 27  1  0  0  0  0
 26 28  1  0  0  0  0
 29 26  1  0  0  0  0
 30 29  1  0  0  0  0
 31 29  1  0  0  0  0
 32 29  1  0  0  0  0
 33 34  1  0  0  0  0
 35  5  1  0  0  0  0
 37  6  2  0  0  0  0
 38 13  1  6  0  0  0
 38 10  1  0  0  0  0
 39 26  1  1  0  0  0
 39 23  1  0  0  0  0
 39  1  1  0  0  0  0
M  END
$$$$
