CSD_code = JIRBAN | q = 1 | S = 0 | Stoichiometry = C10H10Cl2V(1+) | MND = 12
 OpenBabel04212202053D

 23 24  0  0  1  0  0  0  0  0999 V2000
    3.1932    4.0696    3.6373 V   0  0  0  0  0  0  0  0  0  0  0  0
    1.1394    4.5613    4.1091 Cl  0  0  0  0  0  0  0  0  0  0  0  0
    3.9638    5.8207    4.6490 Cl  0  0  0  0  0  0  0  0  0  0  0  0
    4.3468    3.6059    1.6921 C   0  0  0  0  0  0  0  0  0  0  0  0
    4.4437    4.9820    1.9302 C   0  0  1  0  0  0  0  0  0  0  0  0
    3.1394    5.5314    1.8559 C   0  0  0  0  0  0  0  0  0  0  0  0
    2.2455    4.4901    1.5296 C   0  0  0  0  0  0  0  0  0  0  0  0
    2.9726    3.2937    1.4746 C   0  0  0  0  0  0  0  0  0  0  0  0
    3.5939    1.7997    3.7775 C   0  0  0  0  0  0  0  0  0  0  0  0
    2.5457    2.1048    4.6534 C   0  0  0  0  0  0  0  0  0  0  0  0
    3.0513    2.9701    5.6556 C   0  0  1  0  0  0  0  0  0  0  0  0
    4.4283    3.1595    5.4141 C   0  0  0  0  0  0  0  0  0  0  0  0
    4.7602    2.4818    4.2337 C   0  0  0  0  0  0  0  0  0  0  0  0
    5.1758    2.9341    1.5257 H   0  0  0  0  0  0  0  0  0  0  0  0
    5.3586    5.5446    2.0528 H   0  0  0  0  0  0  0  0  0  0  0  0
    2.8931    6.5836    1.9054 H   0  0  0  0  0  0  0  0  0  0  0  0
    1.1950    4.6040    1.3020 H   0  0  0  0  0  0  0  0  0  0  0  0
    2.5812    2.3468    1.1319 H   0  0  0  0  0  0  0  0  0  0  0  0
    3.5708    1.0469    3.0036 H   0  0  0  0  0  0  0  0  0  0  0  0
    1.5509    1.6822    4.6285 H   0  0  0  0  0  0  0  0  0  0  0  0
    2.5098    3.3116    6.5276 H   0  0  0  0  0  0  0  0  0  0  0  0
    5.1189    3.6846    6.0588 H   0  0  0  0  0  0  0  0  0  0  0  0
    5.7645    2.3460    3.8594 H   0  0  0  0  0  0  0  0  0  0  0  0
  1  2  1  0  0  0  0
  1  3  1  0  0  0  0
  1 11  1  0  0  0  0
  4  5  1  0  0  0  0
  5 15  1  1  0  0  0
  5  1  1  0  0  0  0
  6 16  1  0  0  0  0
  6  5  1  0  0  0  0
  7  6  2  0  0  0  0
  8  7  1  0  0  0  0
  8  4  2  0  0  0  0
  9 13  1  0  0  0  0
  9 10  2  0  0  0  0
 10 11  1  0  0  0  0
 11 21  1  1  0  0  0
 12 11  1  0  0  0  0
 12 22  1  0  0  0  0
 13 12  2  0  0  0  0
 14  4  1  0  0  0  0
 17  7  1  0  0  0  0
 18  8  1  0  0  0  0
 19  9  1  0  0  0  0
 20 10  1  0  0  0  0
 23 13  1  0  0  0  0
M  END
$$$$
