CSD_code = JIRJOM | q = 0 | S = 0 | Stoichiometry = C15H14AuBrN2 | MND = 2
 OpenBabel04212202053D

 33 35  0  0  1  0  0  0  0  0999 V2000
    0.5411    3.9349   12.6238 Au  0  0  0  0  0  0  0  0  0  0  0  0
   -1.0800    5.5010   11.9305 Br  0  0  0  0  0  0  0  0  0  0  0  0
    3.3647    1.4560   14.5059 C   0  0  0  0  0  0  0  0  0  0  0  0
    2.6623    1.7809   12.4210 N   0  0  0  0  0  0  0  0  0  0  0  0
    2.3636    2.4005   14.4779 N   0  0  0  0  0  0  0  0  0  0  0  0
    1.8866    3.1074   15.6400 C   0  0  0  0  0  0  0  0  0  0  0  0
    1.5947    2.3820   16.4057 H   0  0  0  0  0  0  0  0  0  0  0  0
    1.0000    3.6745   15.3353 H   0  0  0  0  0  0  0  0  0  0  0  0
    2.9423    4.0441   16.1746 C   0  0  0  0  0  0  0  0  0  0  0  0
    4.4987    5.8381   15.7978 C   0  0  0  0  0  0  0  0  0  0  0  0
    4.9406    6.5645   15.1326 H   0  0  0  0  0  0  0  0  0  0  0  0
    3.5526    1.0491   13.1748 C   0  0  0  0  0  0  0  0  0  0  0  0
    3.5216    4.9805   15.3275 C   0  0  0  0  0  0  0  0  0  0  0  0
    3.1976    5.0406   14.2976 H   0  0  0  0  0  0  0  0  0  0  0  0
    1.9459    2.6021   13.2133 C   0  0  1  0  0  3  0  0  0  0  0  0
    4.3270    4.8414   17.9703 C   0  0  0  0  0  0  0  0  0  0  0  0
    4.6367    4.7865   19.0033 H   0  0  0  0  0  0  0  0  0  0  0  0
    4.9042    5.7686   17.1204 C   0  0  0  0  0  0  0  0  0  0  0  0
    5.6662    6.4389   17.4882 H   0  0  0  0  0  0  0  0  0  0  0  0
    4.4924    0.0859   12.8401 C   0  0  0  0  0  0  0  0  0  0  0  0
    4.6373   -0.2308   11.8195 H   0  0  0  0  0  0  0  0  0  0  0  0
    4.1190    0.9170   15.5371 C   0  0  0  0  0  0  0  0  0  0  0  0
    3.9879    1.2364   16.5580 H   0  0  0  0  0  0  0  0  0  0  0  0
    3.3515    3.9801   17.4985 C   0  0  0  0  0  0  0  0  0  0  0  0
    2.8993    3.2605   18.1669 H   0  0  0  0  0  0  0  0  0  0  0  0
    5.0541   -0.0403   15.1950 C   0  0  0  0  0  0  0  0  0  0  0  0
    5.6618   -0.4838   15.9683 H   0  0  0  0  0  0  0  0  0  0  0  0
    5.2358   -0.4495   13.8739 C   0  0  0  0  0  0  0  0  0  0  0  0
    5.9777   -1.2020   13.6558 H   0  0  0  0  0  0  0  0  0  0  0  0
    2.5310    1.6708   10.9963 C   0  0  0  0  0  0  0  0  0  0  0  0
    3.4739    1.9252   10.5089 H   0  0  0  0  0  0  0  0  0  0  0  0
    1.7567    2.3591   10.6605 H   0  0  0  0  0  0  0  0  0  0  0  0
    2.2520    0.6528   10.7192 H   0  0  0  0  0  0  0  0  0  0  0  0
  2  1  1  0  0  0  0
  3 22  1  0  0  0  0
  4 12  1  0  0  0  0
  4 15  1  0  0  0  0
  5  3  1  0  0  0  0
  5  6  1  0  0  0  0
  6  9  1  0  0  0  0
  6  7  1  0  0  0  0
  8  6  1  0  0  0  0
  9 24  1  0  0  0  0
 10 18  2  0  0  0  0
 11 10  1  0  0  0  0
 12  3  2  0  0  0  0
 13 10  1  0  0  0  0
 13  9  2  0  0  0  0
 14 13  1  0  0  0  0
 15  1  1  6  0  0  0
 15  5  1  0  0  0  0
 16 17  1  0  0  0  0
 18 19  1  0  0  0  0
 18 16  1  0  0  0  0
 20 12  1  0  0  0  0
 20 28  2  0  0  0  0
 21 20  1  0  0  0  0
 22 23  1  0  0  0  0
 24 16  2  0  0  0  0
 24 25  1  0  0  0  0
 26 22  2  0  0  0  0
 26 27  1  0  0  0  0
 28 26  1  0  0  0  0
 29 28  1  0  0  0  0
 30  4  1  0  0  0  0
 31 30  1  0  0  0  0
 32 30  1  0  0  0  0
 33 30  1  0  0  0  0
M  END
$$$$
