CSD_code = JIRKAX | q = 0 | S = 0 | Stoichiometry = C25H23Cl3NPZn | MND = 4
 OpenBabel04212202053D

 54 57  0  0  0  0  0  0  0  0999 V2000
    6.6990   11.5994   16.0238 Zn  0  0  0  0  0  0  0  0  0  0  0  0
    3.7080   11.0976   13.0533 P   0  0  0  0  0  4  0  0  0  0  0  0
    5.6599   12.4015   14.0116 Cl  0  0  0  0  0  0  0  0  0  0  0  0
    8.5338   12.4365   16.8845 Cl  0  0  0  0  0  0  0  0  0  0  0  0
    4.9007   10.9885   17.3002 Cl  0  0  0  0  0  0  0  0  0  0  0  0
    7.1722    9.4945   15.6758 N   0  0  0  0  0  0  0  0  0  0  0  0
    2.7710   12.4685   13.7830 C   0  0  0  0  0  0  0  0  0  0  0  0
    5.8845   11.8875    9.1008 C   0  0  0  0  0  0  0  0  0  0  0  0
    6.3973   12.0626    8.1671 H   0  0  0  0  0  0  0  0  0  0  0  0
    4.8405   12.7415   11.0874 C   0  0  0  0  0  0  0  0  0  0  0  0
    4.5516   13.5707   11.7152 H   0  0  0  0  0  0  0  0  0  0  0  0
    7.8842    7.6535   17.0082 C   0  0  0  0  0  0  0  0  0  0  0  0
    8.4555    7.3013   17.8516 H   0  0  0  0  0  0  0  0  0  0  0  0
    4.5848   11.4411   11.5032 C   0  0  0  0  0  0  0  0  0  0  0  0
    4.9664   10.3652   10.7092 C   0  0  0  0  0  0  0  0  0  0  0  0
    4.7380    9.3566   11.0247 H   0  0  0  0  0  0  0  0  0  0  0  0
    7.8588    9.0018   16.7007 C   0  0  0  0  0  3  0  0  0  0  0  0
    8.4082    9.7239   17.2887 H   0  0  0  0  0  0  0  0  0  0  0  0
    7.1535    6.7821   16.2172 C   0  0  0  0  0  0  0  0  0  0  0  0
    7.1319    5.7241   16.4320 H   0  0  0  0  0  0  0  0  0  0  0  0
    6.4540    7.2958   15.1392 C   0  0  0  0  0  0  0  0  0  0  0  0
    5.8828    6.6473   14.4925 H   0  0  0  0  0  0  0  0  0  0  0  0
    6.4882    8.6628   14.8904 C   0  0  0  0  0  0  0  0  0  0  0  0
    5.4860   12.9592    9.8841 C   0  0  0  0  0  0  0  0  0  0  0  0
    5.6861   13.9692    9.5599 H   0  0  0  0  0  0  0  0  0  0  0  0
    2.7180   12.7075   15.1486 C   0  0  0  0  0  0  0  0  0  0  0  0
    3.2869   12.1046   15.8417 H   0  0  0  0  0  0  0  0  0  0  0  0
    2.0292   13.2443   12.8972 C   0  0  0  0  0  0  0  0  0  0  0  0
    2.0562   13.0253   11.8376 H   0  0  0  0  0  0  0  0  0  0  0  0
    5.6253   10.5910    9.5139 C   0  0  0  0  0  0  0  0  0  0  0  0
    5.9325    9.7549    8.9032 H   0  0  0  0  0  0  0  0  0  0  0  0
    1.3184    9.7701   13.3806 C   0  0  0  0  0  0  0  0  0  0  0  0
    1.5692    9.9029   14.4260 H   0  0  0  0  0  0  0  0  0  0  0  0
    1.8478   10.1083   11.0683 C   0  0  0  0  0  0  0  0  0  0  0  0
    2.5013   10.4840   10.2942 H   0  0  0  0  0  0  0  0  0  0  0  0
    1.9349   13.7471   15.6199 C   0  0  0  0  0  0  0  0  0  0  0  0
    1.8933   13.9371   16.6816 H   0  0  0  0  0  0  0  0  0  0  0  0
    1.2637   14.2894   13.3791 C   0  0  0  0  0  0  0  0  0  0  0  0
    0.7003   14.9040   12.6927 H   0  0  0  0  0  0  0  0  0  0  0  0
    1.2174   14.5417   14.7412 C   0  0  0  0  0  0  0  0  0  0  0  0
    0.6179   15.3576   15.1166 H   0  0  0  0  0  0  0  0  0  0  0  0
    2.2014   10.2308   12.4049 C   0  0  0  0  0  0  0  0  0  0  0  0
    0.6529    9.5022   10.7147 C   0  0  0  0  0  0  0  0  0  0  0  0
    0.3917    9.4079    9.6710 H   0  0  0  0  0  0  0  0  0  0  0  0
    0.1276    9.1663   13.0282 C   0  0  0  0  0  0  0  0  0  0  0  0
   -0.5450    8.8112   13.7947 H   0  0  0  0  0  0  0  0  0  0  0  0
   -0.2047    9.0252   11.6897 C   0  0  0  0  0  0  0  0  0  0  0  0
   -1.1346    8.5536   11.4096 H   0  0  0  0  0  0  0  0  0  0  0  0
    5.7594    9.2528   13.7182 C   0  0  0  0  0  0  0  0  0  0  0  0
    5.6653    8.4927   12.9412 H   0  0  0  0  0  0  0  0  0  0  0  0
    6.3515   10.0814   13.3255 H   0  0  0  0  0  0  0  0  0  0  0  0
    4.3699    9.7586   14.1356 C   0  0  0  0  0  0  0  0  0  0  0  0
    4.4111   10.1694   15.1537 H   0  0  0  0  0  0  0  0  0  0  0  0
    3.6534    8.9342   14.1256 H   0  0  0  0  0  0  0  0  0  0  0  0
  1  4  1  0  0  0  0
  1  5  1  0  0  0  0
  2  7  1  0  0  0  0
  2 52  1  0  0  0  0
  3  1  1  0  0  0  0
  6  1  1  0  0  0  0
  6 17  1  0  0  0  0
  7 26  1  0  0  0  0
  8 30  2  0  0  0  0
  8 24  1  0  0  0  0
  9  8  1  0  0  0  0
 10 14  1  0  0  0  0
 10 11  1  0  0  0  0
 12 13  1  0  0  0  0
 14  2  1  0  0  0  0
 15 16  1  0  0  0  0
 15 14  2  0  0  0  0
 17 12  1  0  0  0  0
 17 18  1  0  0  0  0
 19 20  1  0  0  0  0
 19 12  2  0  0  0  0
 21 19  1  0  0  0  0
 22 21  1  0  0  0  0
 23 21  2  0  0  0  0
 23  6  1  0  0  0  0
 24 10  2  0  0  0  0
 25 24  1  0  0  0  0
 26 36  2  0  0  0  0
 26 27  1  0  0  0  0
 28 38  1  0  0  0  0
 28  7  2  0  0  0  0
 29 28  1  0  0  0  0
 30 15  1  0  0  0  0
 31 30  1  0  0  0  0
 32 33  1  0  0  0  0
 34 42  1  0  0  0  0
 35 34  1  0  0  0  0
 36 37  1  0  0  0  0
 38 40  2  0  0  0  0
 39 38  1  0  0  0  0
 40 41  1  0  0  0  0
 40 36  1  0  0  0  0
 42  2  1  0  0  0  0
 42 32  2  0  0  0  0
 43 34  2  0  0  0  0
 43 47  1  0  0  0  0
 44 43  1  0  0  0  0
 45 32  1  0  0  0  0
 45 46  1  0  0  0  0
 47 45  2  0  0  0  0
 48 47  1  0  0  0  0
 49 52  1  0  0  0  0
 49 23  1  0  0  0  0
 50 49  1  0  0  0  0
 51 49  1  0  0  0  0
 52 53  1  0  0  0  0
 54 52  1  0  0  0  0
M  END
$$$$
