CSD_code = JIRWUF | q = 0 | S = 0 | Stoichiometry = C14H10BrMnN2O3S | MND = 6
 OpenBabel04212202053D

 32 34  0  0  0  0  0  0  0  0999 V2000
    3.7909    6.6871   11.4018 Br  0  0  0  0  0  0  0  0  0  0  0  0
    2.6008    6.2312    9.2745 Mn  0  0  0  0  0  0  0  0  0  0  0  0
   -0.5650    2.0502   13.2038 S   0  0  0  0  0  0  0  0  0  0  0  0
    1.1947    5.6569    6.7747 O   0  0  0  0  0  1  0  0  0  0  0  0
    0.9976    8.6370    9.7801 O   0  0  0  0  0  1  0  0  0  0  0  0
    1.4725    4.9441   10.3554 N   0  0  0  0  0  0  0  0  0  0  0  0
    3.7449    4.5722    9.1753 N   0  0  0  0  0  0  0  0  0  0  0  0
    4.4576    8.0591    7.9253 O   0  0  0  0  0  1  0  0  0  0  0  0
    1.7460    5.8667    7.7625 C   0  0  0  0  0  2  0  0  0  0  0  0
    2.0661    3.7688   10.6402 C   0  0  0  0  0  0  0  0  0  0  0  0
    3.3527    3.5574    9.9722 C   0  0  0  0  0  0  0  0  0  0  0  0
    0.2881    5.1959   10.9203 C   0  0  0  0  0  0  0  0  0  0  0  0
   -0.1767    6.1429   10.6775 H   0  0  0  0  0  0  0  0  0  0  0  0
   -0.3420    4.3285   11.7806 C   0  0  0  0  0  0  0  0  0  0  0  0
   -1.2939    4.5839   12.2160 H   0  0  0  0  0  0  0  0  0  0  0  0
    0.2724    3.1119   12.0970 C   0  0  0  0  0  0  0  0  0  0  0  0
    4.1316    2.4124   10.1340 C   0  0  0  0  0  0  0  0  0  0  0  0
    3.8073    1.6173   10.7845 H   0  0  0  0  0  0  0  0  0  0  0  0
    1.4959    2.8368   11.5022 C   0  0  0  0  0  0  0  0  0  0  0  0
    2.0126    1.9158   11.7066 H   0  0  0  0  0  0  0  0  0  0  0  0
    4.9015    4.4506    8.5240 C   0  0  0  0  0  0  0  0  0  0  0  0
    5.1913    5.2766    7.8866 H   0  0  0  0  0  0  0  0  0  0  0  0
    5.7244    3.3459    8.6365 C   0  0  0  0  0  0  0  0  0  0  0  0
    6.6532    3.3107    8.0909 H   0  0  0  0  0  0  0  0  0  0  0  0
    1.5949    7.6761    9.5856 C   0  0  0  0  0  2  0  0  0  0  0  0
    5.3346    2.3039    9.4649 C   0  0  0  0  0  0  0  0  0  0  0  0
    5.9544    1.4294    9.5874 H   0  0  0  0  0  0  0  0  0  0  0  0
    0.5724    0.6513   13.4165 C   0  0  0  0  0  0  0  0  0  0  0  0
    0.7048    0.1291   12.4732 H   0  0  0  0  0  0  0  0  0  0  0  0
    1.5183    1.0012   13.8194 H   0  0  0  0  0  0  0  0  0  0  0  0
    0.0901   -0.0065   14.1329 H   0  0  0  0  0  0  0  0  0  0  0  0
    3.7479    7.3167    8.4394 C   0  0  0  0  0  2  0  0  0  0  0  0
  2 25  1  0  0  0  0
  2  6  1  0  0  0  0
  2  1  1  0  0  0  0
  3 28  1  0  0  0  0
  4  9  1  0  0  0  0
  6 10  1  0  0  0  0
  6 12  1  0  0  0  0
  7  2  1  0  0  0  0
  7 11  1  0  0  0  0
  8 32  1  0  0  0  0
  9  2  1  0  0  0  0
 10 19  1  0  0  0  0
 11 17  1  0  0  0  0
 11 10  2  0  0  0  0
 12 14  2  0  0  0  0
 13 12  1  0  0  0  0
 14 16  1  0  0  0  0
 14 15  1  0  0  0  0
 16  3  1  0  0  0  0
 17 18  1  0  0  0  0
 19 20  1  0  0  0  0
 19 16  2  0  0  0  0
 21 23  2  0  0  0  0
 21  7  1  0  0  0  0
 22 21  1  0  0  0  0
 23 26  1  0  0  0  0
 24 23  1  0  0  0  0
 25  5  1  0  0  0  0
 26 27  1  0  0  0  0
 26 17  2  0  0  0  0
 28 30  1  0  0  0  0
 28 31  1  0  0  0  0
 29 28  1  0  0  0  0
 32  2  1  0  0  0  0
M  END
$$$$
