CSD_code = JISCUJ | q = 0 | S = 0 | Stoichiometry = C12H20Cl4RuS | MND = 9
 OpenBabel04212202053D

 38 34  0  0  1  0  0  0  0  0999 V2000
    1.7146    3.3032   10.8450 Ru  0  0  0  0  0  0  0  0  0  0  0  0
   -0.4180    2.5186   10.1869 Cl  0  0  0  0  0 15  0  0  0  0  0  0
    1.8666    1.0647   11.6222 Cl  0  0  0  0  0 15  0  0  0  0  0  0
    2.8837    3.6490   12.8771 Cl  0  0  0  0  0 15  0  0  0  0  0  0
    6.2965    3.3910    9.3265 Cl  0  0  0  0  0  0  0  0  0  0  0  0
    0.0014    4.7120   11.9760 S   0  0  0  0  0  0  0  0  0  0  0  0
    3.6997    3.4458    9.9349 C   0  0  1  0  0  0  0  0  0  0  0  0
    2.9528    2.6637    8.9913 C   0  0  0  0  0  0  0  0  0  0  0  0
    1.9154    3.4889    8.4748 C   0  0  0  0  0  0  0  0  0  0  0  0
    1.9801    4.7593    9.1336 C   0  0  0  0  0  0  0  0  0  0  0  0
    3.1206    4.7670    9.9931 C   0  0  0  0  0  0  0  0  0  0  0  0
    5.0007    3.0421   10.5277 C   0  0  0  0  0  0  0  0  0  0  0  0
    3.3091    1.2812    8.5700 C   0  0  0  0  0  0  0  0  0  0  0  0
    0.9708    3.1535    7.3793 C   0  0  0  0  0  0  0  0  0  0  0  0
    1.0980    5.9153    8.7918 C   0  0  0  0  0  0  0  0  0  0  0  0
    3.7700    5.9438   10.6405 C   0  0  0  0  0  0  0  0  0  0  0  0
    0.7548    6.0498   12.9474 C   0  0  0  0  0  0  0  0  0  0  0  0
   -0.4500    3.6132   13.3394 C   0  0  0  0  0  0  0  0  0  0  0  0
    5.2407    3.6115   11.4252 H   0  0  0  0  0  0  0  0  0  0  0  0
    5.0376    1.9728   10.7375 H   0  0  0  0  0  0  0  0  0  0  0  0
    3.1954    0.5956    9.4137 H   0  0  0  0  0  0  0  0  0  0  0  0
    4.3480    1.2489    8.2417 H   0  0  0  0  0  0  0  0  0  0  0  0
    2.6636    0.9353    7.7676 H   0  0  0  0  0  0  0  0  0  0  0  0
    1.3688    2.3594    6.7525 H   0  0  0  0  0  0  0  0  0  0  0  0
    0.7734    4.0331    6.7699 H   0  0  0  0  0  0  0  0  0  0  0  0
    0.0191    2.8109    7.7967 H   0  0  0  0  0  0  0  0  0  0  0  0
    1.1963    6.7177    9.5186 H   0  0  0  0  0  0  0  0  0  0  0  0
    0.0562    5.5988    8.7632 H   0  0  0  0  0  0  0  0  0  0  0  0
    1.3662    6.3047    7.8081 H   0  0  0  0  0  0  0  0  0  0  0  0
    3.9196    5.7604   11.7057 H   0  0  0  0  0  0  0  0  0  0  0  0
    3.1724    6.8434   10.5182 H   0  0  0  0  0  0  0  0  0  0  0  0
    4.7473    6.1072   10.1848 H   0  0  0  0  0  0  0  0  0  0  0  0
    1.0332    6.8384   12.2570 H   0  0  0  0  0  0  0  0  0  0  0  0
    1.6300    5.6680   13.4674 H   0  0  0  0  0  0  0  0  0  0  0  0
    0.0089    6.4160   13.6462 H   0  0  0  0  0  0  0  0  0  0  0  0
   -0.8549    2.7053   12.8968 H   0  0  0  0  0  0  0  0  0  0  0  0
   -1.2016    4.1059   13.9503 H   0  0  0  0  0  0  0  0  0  0  0  0
    0.4443    3.3856   13.9171 H   0  0  0  0  0  0  0  0  0  0  0  0
  5 12  1  0  0  0  0
  6 17  1  0  0  0  0
  6 18  1  0  0  0  0
  7 11  1  0  0  0  0
  7 12  1  0  0  0  0
  7  1  1  1  0  0  0
  8  7  1  0  0  0  0
  9  8  2  0  0  0  0
  9 10  1  0  0  0  0
 10 11  2  0  0  0  0
 11 16  1  0  0  0  0
 12 20  1  0  0  0  0
 12 19  1  0  0  0  0
 13  8  1  0  0  0  0
 13 21  1  0  0  0  0
 14 26  1  0  0  0  0
 14  9  1  0  0  0  0
 15 10  1  0  0  0  0
 15 27  1  0  0  0  0
 16 30  1  0  0  0  0
 17 34  1  0  0  0  0
 17 35  1  0  0  0  0
 18 38  1  0  0  0  0
 18 37  1  0  0  0  0
 22 13  1  0  0  0  0
 23 13  1  0  0  0  0
 24 14  1  0  0  0  0
 25 14  1  0  0  0  0
 28 15  1  0  0  0  0
 29 15  1  0  0  0  0
 31 16  1  0  0  0  0
 32 16  1  0  0  0  0
 33 17  1  0  0  0  0
 36 18  1  0  0  0  0
M  END
$$$$
