CSD_code = JISPEH | q = 0 | S = 0 | Stoichiometry = C15H14ClNOPtS | MND = 4
 OpenBabel04212202053D

 34 37  0  0  0  0  0  0  0  0999 V2000
    8.0496    1.7446    7.7555 Pt  0  0  2  0  0  0  0  0  0  0  0  0
    8.0332    1.7451    5.4008 Cl  0  0  0  0  0  0  0  0  0  0  0  0
   10.2790    1.7449    7.5026 S   0  0  0  0  0  0  0  0  0  0  0  0
   11.1709    1.7448    8.6519 O   0  0  0  0  0  1  0  0  0  0  0  0
    6.0355    1.7449    7.9302 N   0  0  0  0  0  0  0  0  0  0  0  0
    5.1435    1.7449    6.9523 C   0  0  0  0  0  0  0  0  0  0  0  0
    5.5212    1.7449    5.9381 H   0  0  0  0  0  0  0  0  0  0  0  0
    3.7708    1.7448    7.2015 C   0  0  0  0  0  0  0  0  0  0  0  0
    3.0870    1.7448    6.3677 H   0  0  0  0  0  0  0  0  0  0  0  0
    3.3053    1.7449    8.4980 C   0  0  0  0  0  0  0  0  0  0  0  0
    2.2459    1.7448    8.7090 H   0  0  0  0  0  0  0  0  0  0  0  0
    4.2294    1.7449    9.5524 C   0  0  0  0  0  0  0  0  0  0  0  0
    3.8889    1.7449   10.9370 C   0  0  0  0  0  0  0  0  0  0  0  0
    2.8417    1.7449   11.2015 H   0  0  0  0  0  0  0  0  0  0  0  0
    4.8482    1.7449   11.8976 C   0  0  0  0  0  0  0  0  0  0  0  0
    4.5693    1.7449   12.9419 H   0  0  0  0  0  0  0  0  0  0  0  0
    6.2372    1.7449   11.5752 C   0  0  0  0  0  0  0  0  0  0  0  0
    7.2698    1.7449   12.5234 C   0  0  0  0  0  0  0  0  0  0  0  0
    7.0276    1.7449   13.5764 H   0  0  0  0  0  0  0  0  0  0  0  0
    8.5798    1.7449   12.1037 C   0  0  0  0  0  0  0  0  0  0  0  0
    9.3725    1.7449   12.8386 H   0  0  0  0  0  0  0  0  0  0  0  0
    8.9209    1.7449   10.7446 C   0  0  0  0  0  0  0  0  0  0  0  0
    9.9647    1.7449   10.4680 H   0  0  0  0  0  0  0  0  0  0  0  0
    7.9454    1.7449    9.7698 C   0  0  0  0  0  0  0  0  0  0  0  0
    6.6038    1.7449   10.2142 C   0  0  0  0  0  0  0  0  0  0  0  0
    5.5972    1.7449    9.2131 C   0  0  0  0  0  0  0  0  0  0  0  0
   10.8142    0.3613    6.4500 C   0  0  0  0  0  0  0  0  0  0  0  0
   11.8870    0.4361    6.3145 H   0  0  0  0  0  0  0  0  0  0  0  0
   10.2830    0.4204    5.5073 H   0  0  0  0  0  0  0  0  0  0  0  0
   10.5665   -0.5599    6.9682 H   0  0  0  0  0  0  0  0  0  0  0  0
   10.8144    3.1284    6.4500 C   0  0  0  0  0  0  0  0  0  0  0  0
   11.8872    3.0535    6.3145 H   0  0  0  0  0  0  0  0  0  0  0  0
   10.2832    3.0694    5.5073 H   0  0  0  0  0  0  0  0  0  0  0  0
   10.5668    4.0497    6.9682 H   0  0  0  0  0  0  0  0  0  0  0  0
  1  2  1  6  0  0  0
  1  5  1  0  0  0  0
  1 24  2  0  0  0  0
  3  1  1  0  0  0  0
  3  4  1  0  0  0  0
  5 26  1  0  0  0  0
  6  8  2  0  0  0  0
  6  5  1  0  0  0  0
  7  6  1  0  0  0  0
  8 10  1  0  0  0  0
  9  8  1  0  0  0  0
 10 11  1  0  0  0  0
 10 12  2  0  0  0  0
 12 13  1  0  0  0  0
 13 14  1  0  0  0  0
 13 15  2  0  0  0  0
 15 16  1  0  0  0  0
 17 15  1  0  0  0  0
 17 18  2  0  0  0  0
 18 19  1  0  0  0  0
 20 18  1  0  0  0  0
 20 21  1  0  0  0  0
 22 20  2  0  0  0  0
 23 22  1  0  0  0  0
 24 25  1  0  0  0  0
 24 22  1  0  0  0  0
 25 17  1  0  0  0  0
 26 12  1  0  0  0  0
 26 25  2  0  0  0  0
 27 30  1  0  0  0  0
 27  3  1  0  0  0  0
 28 27  1  0  0  0  0
 29 27  1  0  0  0  0
 31 34  1  0  0  0  0
 31  3  1  0  0  0  0
 32 31  1  0  0  0  0
 33 31  1  0  0  0  0
M  END
$$$$
