CSD_code = JISPOR | q = 0 | S = 0 | Stoichiometry = C17H15ClN2OPt | MND = 4
 OpenBabel04212202053D

 37 40  0  0  0  0  0  0  0  0999 V2000
    4.4883    4.8337    1.7023 Pt  0  0  2  0  0  0  0  0  0  0  0  0
    4.6138    5.9146   -0.3937 Cl  0  0  0  0  0  0  0  0  0  0  0  0
    4.6871    6.4521    2.8135 N   0  0  0  0  0  0  0  0  0  0  0  0
    4.2899    3.2165    0.6246 N   0  0  0  0  0  0  0  0  0  0  0  0
    3.9897    0.2105   -2.1942 O   0  0  0  0  0  0  0  0  0  0  0  0
    4.8568    7.6782    2.3229 C   0  0  0  0  0  0  0  0  0  0  0  0
    4.8838    7.7626    1.2434 H   0  0  0  0  0  0  0  0  0  0  0  0
    4.9913    8.7934    3.1294 C   0  0  0  0  0  0  0  0  0  0  0  0
    5.1269    9.7660    2.6851 H   0  0  0  0  0  0  0  0  0  0  0  0
    4.9473    8.6296    4.5064 C   0  0  0  0  0  0  0  0  0  0  0  0
    5.0481    9.4777    5.1669 H   0  0  0  0  0  0  0  0  0  0  0  0
    4.7721    7.3585    5.0191 C   0  0  0  0  0  0  0  0  0  0  0  0
    4.7352    7.2034    6.0851 H   0  0  0  0  0  0  0  0  0  0  0  0
    4.6431    6.2712    4.1571 C   0  0  0  0  0  0  0  0  0  0  0  0
    4.4591    4.8852    4.5692 C   0  0  0  0  0  0  0  0  0  0  0  0
    4.3798    4.4622    5.8947 C   0  0  0  0  0  0  0  0  0  0  0  0
    4.4511    5.1718    6.7060 H   0  0  0  0  0  0  0  0  0  0  0  0
    4.2075    3.1221    6.1789 C   0  0  0  0  0  0  0  0  0  0  0  0
    4.1452    2.7905    7.2052 H   0  0  0  0  0  0  0  0  0  0  0  0
    4.1151    2.2035    5.1446 C   0  0  0  0  0  0  0  0  0  0  0  0
    3.9814    1.1545    5.3700 H   0  0  0  0  0  0  0  0  0  0  0  0
    4.1924    2.6217    3.8257 C   0  0  0  0  0  0  0  0  0  0  0  0
    4.1169    1.8789    3.0409 H   0  0  0  0  0  0  0  0  0  0  0  0
    4.3649    3.9643    3.5022 C   0  0  0  0  0  0  0  0  0  0  0  0
    3.0871    2.8219    0.2094 C   0  0  0  0  0  3  0  0  0  0  0  0
    2.2356    3.3338    0.6458 H   0  0  0  0  0  0  0  0  0  0  0  0
    2.8989    1.8258   -0.7282 C   0  0  0  0  0  0  0  0  0  0  0  0
    1.8959    1.5646   -1.0225 H   0  0  0  0  0  0  0  0  0  0  0  0
    4.0157    1.1929   -1.2765 C   0  0  0  0  0  0  0  0  0  0  0  0
    5.2763    1.6105   -0.8296 C   0  0  0  0  0  0  0  0  0  0  0  0
    6.1588    1.1453   -1.2363 H   0  0  0  0  0  0  0  0  0  0  0  0
    5.3653    2.6126    0.1067 C   0  0  0  0  0  0  0  0  0  0  0  0
    6.3298    2.9621    0.4597 H   0  0  0  0  0  0  0  0  0  0  0  0
    2.7423   -0.2268   -2.6882 C   0  0  0  0  0  0  0  0  0  0  0  0
    2.9709   -1.0043   -3.4146 H   0  0  0  0  0  0  0  0  0  0  0  0
    2.2029    0.5854   -3.1837 H   0  0  0  0  0  0  0  0  0  0  0  0
    2.1225   -0.6465   -1.8903 H   0  0  0  0  0  0  0  0  0  0  0  0
  1  2  1  6  0  0  0
  1  3  1  0  0  0  0
  1 24  2  0  0  0  0
  3 14  1  0  0  0  0
  4  1  1  0  0  0  0
  5 29  1  0  0  0  0
  6  3  1  0  0  0  0
  6  8  2  0  0  0  0
  7  6  1  0  0  0  0
  8 10  1  0  0  0  0
  9  8  1  0  0  0  0
 10 12  2  0  0  0  0
 10 11  1  0  0  0  0
 12 13  1  0  0  0  0
 14 15  2  0  0  0  0
 14 12  1  0  0  0  0
 15 16  1  0  0  0  0
 16 18  2  0  0  0  0
 16 17  1  0  0  0  0
 18 19  1  0  0  0  0
 20 21  1  0  0  0  0
 20 18  1  0  0  0  0
 22 20  2  0  0  0  0
 23 22  1  0  0  0  0
 24 22  1  0  0  0  0
 24 15  1  0  0  0  0
 25  4  1  0  0  0  0
 25 26  1  0  0  0  0
 27 25  1  0  0  0  0
 28 27  1  0  0  0  0
 29 30  1  0  0  0  0
 29 27  2  0  0  0  0
 30 32  2  0  0  0  0
 31 30  1  0  0  0  0
 32 33  1  0  0  0  0
 32  4  1  0  0  0  0
 34  5  1  0  0  0  0
 34 37  1  0  0  0  0
 35 34  1  0  0  0  0
 36 34  1  0  0  0  0
M  END
$$$$
