CSD_code = JISVIT | q = 0 | S = 0 | Stoichiometry = C31H22ClN2OPPd | MND = 4
 OpenBabel04212202053D

 59 66  0  0  0  0  0  0  0  0999 V2000
    0.2981    0.8968    7.7348 Pd  0  0  1  0  0  0  0  0  0  0  0  0
   -0.9028    1.7651    9.3735 P   0  0  0  0  0  4  0  0  0  0  0  0
    0.1220    2.7931    6.5209 Cl  0  0  0  0  0  0  0  0  0  0  0  0
    2.6707    0.5037    5.6922 C   0  0  0  0  0  0  0  0  0  0  0  0
    3.1406    1.7949    5.4869 C   0  0  0  0  0  0  0  0  0  0  0  0
    2.6841    2.6335    5.9909 H   0  0  0  0  0  0  0  0  0  0  0  0
    4.1913    1.9410    4.6030 C   0  0  0  0  0  0  0  0  0  0  0  0
    4.5832    2.9282    4.4114 H   0  0  0  0  0  0  0  0  0  0  0  0
    4.7637    0.8502    3.9491 C   0  0  0  0  0  0  0  0  0  0  0  0
    5.5828    1.0166    3.2662 H   0  0  0  0  0  0  0  0  0  0  0  0
    4.3127   -0.4423    4.1544 C   0  0  0  0  0  0  0  0  0  0  0  0
    4.7541   -1.2909    3.6581 H   0  0  0  0  0  0  0  0  0  0  0  0
    3.2619   -0.5909    5.0381 C   0  0  0  0  0  0  0  0  0  0  0  0
    1.6822   -1.3051    6.3293 C   0  0  0  0  0  0  0  0  0  0  0  0
    0.8369   -2.2793    6.9603 C   0  0  0  0  0  0  0  0  0  0  0  0
    0.7383   -3.5381    6.3501 C   0  0  0  0  0  3  0  0  0  0  0  0
    1.3001   -3.7080    5.4439 H   0  0  0  0  0  0  0  0  0  0  0  0
   -0.0632   -4.5259    6.8649 C   0  0  0  0  0  0  0  0  0  0  0  0
   -0.1327   -5.4855    6.3776 H   0  0  0  0  0  0  0  0  0  0  0  0
   -0.8108   -4.2593    8.0116 C   0  0  0  0  0  0  0  0  0  0  0  0
   -1.4813   -5.0110    8.4025 H   0  0  0  0  0  0  0  0  0  0  0  0
   -0.7154   -3.0467    8.6433 C   0  0  0  0  0  0  0  0  0  0  0  0
   -1.3234   -2.8490    9.5141 H   0  0  0  0  0  0  0  0  0  0  0  0
    0.1263   -2.0137    8.1687 C   0  0  0  0  0  0  0  0  0  0  0  0
   -0.0809   -0.7079   10.1573 C   0  0  0  0  0  0  0  0  0  0  0  0
    0.2346   -1.6917   11.1100 C   0  0  0  0  0  0  0  0  0  0  0  0
    0.7337   -2.5945   10.7886 H   0  0  0  0  0  0  0  0  0  0  0  0
   -0.0544   -1.5001   12.4434 C   0  0  0  0  0  0  0  0  0  0  0  0
    0.2059   -2.2700   13.1553 H   0  0  0  0  0  0  0  0  0  0  0  0
   -0.6623   -0.3315   12.8877 C   0  0  0  0  0  0  0  0  0  0  0  0
   -0.8819   -0.1965   13.9355 H   0  0  0  0  0  0  0  0  0  0  0  0
   -0.9562    0.6650   11.9773 C   0  0  0  0  0  0  0  0  0  0  0  0
   -1.4028    1.5953   12.3019 H   0  0  0  0  0  0  0  0  0  0  0  0
   -0.6709    0.4840   10.6311 C   0  0  0  0  0  0  0  0  0  0  0  0
   -2.6225    2.3241    9.4048 C   0  0  0  0  0  0  0  0  0  0  0  0
   -3.6252    1.6194   10.0613 C   0  0  0  0  0  0  0  0  0  0  0  0
   -3.3807    0.7183   10.6067 H   0  0  0  0  0  0  0  0  0  0  0  0
   -4.9292    2.0805   10.0119 C   0  0  0  0  0  0  0  0  0  0  0  0
   -5.7098    1.5391   10.5261 H   0  0  0  0  0  0  0  0  0  0  0  0
   -5.2350    3.2300    9.3016 C   0  0  0  0  0  0  0  0  0  0  0  0
   -6.2546    3.5844    9.2659 H   0  0  0  0  0  0  0  0  0  0  0  0
   -4.2386    3.9207    8.6276 C   0  0  0  0  0  0  0  0  0  0  0  0
   -4.4828    4.8084    8.0635 H   0  0  0  0  0  0  0  0  0  0  0  0
   -2.9336    3.4689    8.6720 C   0  0  0  0  0  0  0  0  0  0  0  0
   -2.1450    3.9827    8.1375 H   0  0  0  0  0  0  0  0  0  0  0  0
    0.0657    3.1499   10.0443 C   0  0  0  0  0  0  0  0  0  0  0  0
   -0.4667    4.1628   10.8320 C   0  0  0  0  0  0  0  0  0  0  0  0
   -1.5274    4.1843   11.0409 H   0  0  0  0  0  0  0  0  0  0  0  0
    0.3636    5.1511   11.3324 C   0  0  0  0  0  0  0  0  0  0  0  0
   -0.0505    5.9428   11.9393 H   0  0  0  0  0  0  0  0  0  0  0  0
    1.7198    5.1292   11.0538 C   0  0  0  0  0  0  0  0  0  0  0  0
    2.3616    5.9060   11.4421 H   0  0  0  0  0  0  0  0  0  0  0  0
    2.2556    4.1163   10.2721 C   0  0  0  0  0  0  0  0  0  0  0  0
    3.3130    4.1058   10.0532 H   0  0  0  0  0  0  0  0  0  0  0  0
    1.4329    3.1275    9.7681 C   0  0  0  0  0  0  0  0  0  0  0  0
    1.8391    2.3244    9.1350 H   0  0  0  0  0  0  0  0  0  0  0  0
    1.6691    0.0001    6.4902 N   0  0  0  0  0  0  0  0  0  0  0  0
    0.2297   -0.8308    8.8236 N   0  0  0  0  0  0  0  0  0  0  0  0
    2.6236   -1.7190    5.4512 O   0  0  0  0  0  0  0  0  0  0  0  0
  1  3  1  6  0  0  0
  1 58  1  0  0  0  0
  1  2  1  0  0  0  0
  2 35  1  0  0  0  0
  2 46  1  0  0  0  0
  2 34  1  0  0  0  0
  4 57  1  0  0  0  0
  5  4  1  0  0  0  0
  5  6  1  0  0  0  0
  7  5  2  0  0  0  0
  8  7  1  0  0  0  0
  9 11  2  0  0  0  0
  9  7  1  0  0  0  0
 10  9  1  0  0  0  0
 11 13  1  0  0  0  0
 12 11  1  0  0  0  0
 13 59  1  0  0  0  0
 13  4  2  0  0  0  0
 14 57  1  0  0  0  0
 14 15  2  0  0  0  0
 15 24  1  0  0  0  0
 16 18  1  0  0  0  0
 16 15  1  0  0  0  0
 17 16  1  0  0  0  0
 18 20  2  0  0  0  0
 19 18  1  0  0  0  0
 20 21  1  0  0  0  0
 20 22  1  0  0  0  0
 22 23  1  0  0  0  0
 24 22  2  0  0  0  0
 24 58  1  0  0  0  0
 25 34  2  0  0  0  0
 25 26  1  0  0  0  0
 26 28  2  0  0  0  0
 27 26  1  0  0  0  0
 28 30  1  0  0  0  0
 28 29  1  0  0  0  0
 30 31  1  0  0  0  0
 32 33  1  0  0  0  0
 32 30  2  0  0  0  0
 34 32  1  0  0  0  0
 35 36  1  0  0  0  0
 36 37  1  0  0  0  0
 38 36  2  0  0  0  0
 38 39  1  0  0  0  0
 40 38  1  0  0  0  0
 41 40  1  0  0  0  0
 42 44  1  0  0  0  0
 42 40  2  0  0  0  0
 43 42  1  0  0  0  0
 44 35  2  0  0  0  0
 45 44  1  0  0  0  0
 46 47  1  0  0  0  0
 47 48  1  0  0  0  0
 47 49  2  0  0  0  0
 49 50  1  0  0  0  0
 51 49  1  0  0  0  0
 51 52  1  0  0  0  0
 53 51  2  0  0  0  0
 54 53  1  0  0  0  0
 55 46  2  0  0  0  0
 55 53  1  0  0  0  0
 56 55  1  0  0  0  0
 57  1  1  0  0  0  0
 58 25  1  0  0  0  0
 59 14  1  0  0  0  0
M  END
$$$$
