CSD_code = JISVOZ | q = 0 | S = 0 | Stoichiometry = C30H28ClN2OPPd | MND = 4
 OpenBabel04212202053D

 64 70  0  0  1  0  0  0  0  0999 V2000
    7.7482    4.0319   25.7368 Pd  0  0  1  0  0  0  0  0  0  0  0  0
    6.7626    4.5488   23.8430 P   0  0  0  0  0  4  0  0  0  0  0  0
    8.6657    2.1332   24.9162 Cl  0  0  0  0  0  0  0  0  0  0  0  0
    9.9927    3.4007   27.7947 C   0  0  2  0  0  0  0  0  0  0  0  0
   10.0427    2.3057   27.7441 H   0  0  0  0  0  0  0  0  0  0  0  0
   10.2726    3.9114   29.2274 C   0  0  0  0  0  0  0  0  0  0  0  0
   10.4959    3.1033   29.9281 H   0  0  0  0  0  0  0  0  0  0  0  0
   11.0748    4.6527   29.2703 H   0  0  0  0  0  0  0  0  0  0  0  0
    8.2014    4.4731   28.6061 C   0  0  0  0  0  0  0  0  0  0  0  0
    6.9082    5.1035   28.7552 C   0  0  0  0  0  0  0  0  0  0  0  0
    6.3514    5.1659   30.0348 C   0  0  0  0  0  0  0  0  0  0  0  0
    6.9131    4.7440   30.8548 H   0  0  0  0  0  0  0  0  0  0  0  0
    5.1136    5.7255   30.2488 C   0  0  0  0  0  0  0  0  0  0  0  0
    4.6907    5.7566   31.2407 H   0  0  0  0  0  0  0  0  0  0  0  0
    4.4030    6.2313   29.1624 C   0  0  0  0  0  0  0  0  0  0  0  0
    3.4134    6.6390   29.3111 H   0  0  0  0  0  0  0  0  0  0  0  0
    4.9433    6.2130   27.9013 C   0  0  0  0  0  0  0  0  0  0  0  0
    4.3746    6.5934   27.0648 H   0  0  0  0  0  0  0  0  0  0  0  0
    6.2241    5.6750   27.6469 C   0  0  1  0  0  3  0  0  0  0  0  0
    6.4284    6.6514   25.4757 C   0  0  0  0  0  0  0  0  0  0  0  0
    6.1513    7.9896   25.7974 C   0  0  0  0  0  0  0  0  0  0  0  0
    6.1545    8.2956   26.8337 H   0  0  0  0  0  0  0  0  0  0  0  0
    5.9165    8.9153   24.8030 C   0  0  0  0  0  0  0  0  0  0  0  0
    5.7190    9.9419   25.0764 H   0  0  0  0  0  0  0  0  0  0  0  0
    5.9446    8.5580   23.4606 C   0  0  0  0  0  0  0  0  0  0  0  0
    5.7658    9.2986   22.6964 H   0  0  0  0  0  0  0  0  0  0  0  0
    6.2162    7.2470   23.1140 C   0  0  0  0  0  0  0  0  0  0  0  0
    6.2595    6.9467   22.0753 H   0  0  0  0  0  0  0  0  0  0  0  0
    6.4547    6.3098   24.1051 C   0  0  0  0  0  0  0  0  0  0  0  0
    5.0923    3.8357   23.8160 C   0  0  0  0  0  0  0  0  0  0  0  0
    4.1042    4.2294   22.9191 C   0  0  0  0  0  0  0  0  0  0  0  0
    4.3305    4.9597   22.1544 H   0  0  0  0  0  0  0  0  0  0  0  0
    2.8325    3.6958   23.0244 C   0  0  0  0  0  0  0  0  0  0  0  0
    2.0637    3.9958   22.3273 H   0  0  0  0  0  0  0  0  0  0  0  0
    2.5401    2.7849   24.0278 C   0  0  0  0  0  0  0  0  0  0  0  0
    1.5440    2.3747   24.1061 H   0  0  0  0  0  0  0  0  0  0  0  0
    3.5164    2.4074   24.9361 C   0  0  0  0  0  0  0  0  0  0  0  0
    3.2802    1.7062   25.7228 H   0  0  0  0  0  0  0  0  0  0  0  0
    4.7922    2.9326   24.8349 C   0  0  0  0  0  0  0  0  0  0  0  0
    5.5771    2.6419   25.5471 H   0  0  0  0  0  0  0  0  0  0  0  0
    7.5427    4.3863   22.2230 C   0  0  0  0  0  0  0  0  0  0  0  0
    6.9688    3.7972   21.1051 C   0  0  0  0  0  0  0  0  0  0  0  0
    5.9649    3.4004   21.1538 H   0  0  0  0  0  0  0  0  0  0  0  0
    7.7012    3.7089   19.9328 C   0  0  0  0  0  0  0  0  0  0  0  0
    7.2596    3.2528   19.0587 H   0  0  0  0  0  0  0  0  0  0  0  0
    8.9976    4.1926   19.8796 C   0  0  0  0  0  0  0  0  0  0  0  0
    9.5628    4.1156   18.9626 H   0  0  0  0  0  0  0  0  0  0  0  0
    9.5800    4.7592   21.0045 C   0  0  0  0  0  0  0  0  0  0  0  0
   10.5983    5.1166   20.9643 H   0  0  0  0  0  0  0  0  0  0  0  0
    8.8563    4.8510   22.1759 C   0  0  0  0  0  0  0  0  0  0  0  0
    9.2950    5.2653   23.0809 H   0  0  0  0  0  0  0  0  0  0  0  0
   10.9160    3.9648   26.6891 C   0  0  0  0  0  0  0  0  0  0  0  0
   10.6546    3.4219   25.7706 H   0  0  0  0  0  0  0  0  0  0  0  0
   10.6760    5.4571   26.4375 C   0  0  0  0  0  0  0  0  0  0  0  0
   10.7356    6.0347   27.3596 H   0  0  0  0  0  0  0  0  0  0  0  0
    9.6815    5.6182   25.9806 H   0  0  0  0  0  0  0  0  0  0  0  0
   11.4279    5.8366   25.7490 H   0  0  0  0  0  0  0  0  0  0  0  0
   12.3802    3.6769   27.0090 C   0  0  0  0  0  0  0  0  0  0  0  0
   12.7299    4.2606   27.8579 H   0  0  0  0  0  0  0  0  0  0  0  0
   12.9993    3.9263   26.1509 H   0  0  0  0  0  0  0  0  0  0  0  0
   12.5199    2.6223   27.2337 H   0  0  0  0  0  0  0  0  0  0  0  0
    8.6151    3.8119   27.5855 N   0  0  0  0  0  0  0  0  0  0  0  0
    6.7733    5.7035   26.4051 N   0  0  0  0  0  0  0  0  0  0  0  0
    9.0647    4.5470   29.6358 O   0  0  0  0  0  0  0  0  0  0  0  0
  1  3  1  1  0  0  0
  1 63  1  0  0  0  0
  1 62  1  0  0  0  0
  2 29  1  0  0  0  0
  2  1  1  0  0  0  0
  4  5  1  6  0  0  0
  4  6  1  0  0  0  0
  6  8  1  0  0  0  0
  6 64  1  0  0  0  0
  6  7  1  0  0  0  0
  9 10  2  0  0  0  0
  9 64  1  0  0  0  0
 10 11  1  0  0  0  0
 11 13  2  0  0  0  0
 11 12  1  0  0  0  0
 13 14  1  0  0  0  0
 15 16  1  0  0  0  0
 15 13  1  0  0  0  0
 17 15  2  0  0  0  0
 18 17  1  0  0  0  0
 19 17  1  1  0  0  0
 19 10  1  0  0  0  0
 20 21  1  0  0  0  0
 20 63  1  0  0  0  0
 21 22  1  0  0  0  0
 23 24  1  0  0  0  0
 23 21  2  0  0  0  0
 25 23  1  0  0  0  0
 26 25  1  0  0  0  0
 27 25  2  0  0  0  0
 27 29  1  0  0  0  0
 28 27  1  0  0  0  0
 29 20  2  0  0  0  0
 30  2  1  0  0  0  0
 30 39  1  0  0  0  0
 31 33  1  0  0  0  0
 31 30  2  0  0  0  0
 32 31  1  0  0  0  0
 33 35  2  0  0  0  0
 34 33  1  0  0  0  0
 35 36  1  0  0  0  0
 35 37  1  0  0  0  0
 37 38  1  0  0  0  0
 39 37  2  0  0  0  0
 39 40  1  0  0  0  0
 41  2  1  0  0  0  0
 42 43  1  0  0  0  0
 42 41  2  0  0  0  0
 44 42  1  0  0  0  0
 45 44  1  0  0  0  0
 46 44  2  0  0  0  0
 46 48  1  0  0  0  0
 47 46  1  0  0  0  0
 48 50  2  0  0  0  0
 49 48  1  0  0  0  0
 50 41  1  0  0  0  0
 50 51  1  0  0  0  0
 52 58  1  0  0  0  0
 52  4  1  0  0  0  0
 53 52  1  0  0  0  0
 54 52  1  0  0  0  0
 54 55  1  0  0  0  0
 56 54  1  0  0  0  0
 57 54  1  0  0  0  0
 58 61  1  0  0  0  0
 58 59  1  0  0  0  0
 60 58  1  0  0  0  0
 62  4  1  0  0  0  0
 62  9  1  0  0  0  0
 63 19  1  0  0  0  0
M  END
$$$$
