CSD_code = JISWUD | q = 0 | S = 0 | Stoichiometry = C14H16Cl2O2PtS2 | MND = 4
 OpenBabel04212202053D

 37 38  0  0  0  0  0  0  0  0999 V2000
   -0.2393    1.9186    1.8170 Pt  0  0  0  0  0  0  0  0  0  0  0  0
   -2.5030    1.8290    1.8468 Cl  0  0  0  0  0  0  0  0  0  0  0  0
   -0.1805    2.0223   -0.4452 Cl  0  0  0  0  0  0  0  0  0  0  0  0
    2.0400    2.0107    1.9203 S   0  0  1  0  0  0  0  0  0  0  0  0
    2.6464    1.0512    2.8274 O   0  0  0  0  0  1  0  0  0  0  0  0
    3.0158    1.9969    0.3803 C   0  0  0  0  0  0  0  0  0  0  0  0
    2.4348    3.6690    2.4694 C   0  0  0  0  0  0  0  0  0  0  0  0
    1.6201    4.6918    2.0169 C   0  0  0  0  0  0  0  0  0  0  0  0
    1.8707    5.9861    2.4368 C   0  0  0  0  0  0  0  0  0  0  0  0
    2.9218    6.2358    3.3064 C   0  0  0  0  0  0  0  0  0  0  0  0
    3.7214    5.1996    3.7617 C   0  0  0  0  0  0  0  0  0  0  0  0
    3.4775    3.9027    3.3432 C   0  0  0  0  0  0  0  0  0  0  0  0
   -0.1664    1.8090    4.0969 S   0  0  1  0  0  0  0  0  0  0  0  0
    0.7447    2.7524    4.7223 O   0  0  0  0  0  1  0  0  0  0  0  0
   -1.7180    1.8341    5.0540 C   0  0  0  0  0  0  0  0  0  0  0  0
    0.3585    0.1409    4.4837 C   0  0  0  0  0  0  0  0  0  0  0  0
    1.2190   -0.1120    5.5331 C   0  0  0  0  0  0  0  0  0  0  0  0
    1.6207   -1.4157    5.7690 C   0  0  0  0  0  0  0  0  0  0  0  0
    1.1622   -2.4395    4.9552 C   0  0  0  0  0  0  0  0  0  0  0  0
    0.3061   -2.1705    3.8979 C   0  0  0  0  0  0  0  0  0  0  0  0
   -0.0970   -0.8694    3.6550 C   0  0  0  0  0  0  0  0  0  0  0  0
    2.9312    1.0072   -0.0543 H   0  0  0  0  0  0  0  0  0  0  0  0
    4.0462    2.2208    0.6310 H   0  0  0  0  0  0  0  0  0  0  0  0
    2.5903    2.7355   -0.2884 H   0  0  0  0  0  0  0  0  0  0  0  0
    0.7970    4.4680    1.3450 H   0  0  0  0  0  0  0  0  0  0  0  0
    1.2442    6.7958    2.0953 H   0  0  0  0  0  0  0  0  0  0  0  0
    3.1118    7.2449    3.6403 H   0  0  0  0  0  0  0  0  0  0  0  0
    4.5297    5.4004    4.4485 H   0  0  0  0  0  0  0  0  0  0  0  0
    4.0641    3.0679    3.6948 H   0  0  0  0  0  0  0  0  0  0  0  0
   -2.3887    1.1036    4.6179 H   0  0  0  0  0  0  0  0  0  0  0  0
   -2.1419    2.8284    4.9678 H   0  0  0  0  0  0  0  0  0  0  0  0
   -1.4818    1.6044    6.0866 H   0  0  0  0  0  0  0  0  0  0  0  0
    1.5738    0.7134    6.1308 H   0  0  0  0  0  0  0  0  0  0  0  0
    2.2970   -1.6316    6.5823 H   0  0  0  0  0  0  0  0  0  0  0  0
    1.4832   -3.4539    5.1390 H   0  0  0  0  0  0  0  0  0  0  0  0
   -0.0380   -2.9704    3.2604 H   0  0  0  0  0  0  0  0  0  0  0  0
   -0.7581   -0.6308    2.8274 H   0  0  0  0  0  0  0  0  0  0  0  0
  1  2  1  0  0  0  0
  1  4  1  0  0  0  0
  1 13  1  0  0  0  0
  3  1  1  0  0  0  0
  4  7  1  0  0  0  0
  4  5  1  1  0  0  0
  6 23  1  0  0  0  0
  6  4  1  0  0  0  0
  7 12  1  0  0  0  0
  8  9  1  0  0  0  0
  8  7  2  0  0  0  0
  9 10  2  0  0  0  0
 10 27  1  0  0  0  0
 10 11  1  0  0  0  0
 11 28  1  0  0  0  0
 12 29  1  0  0  0  0
 12 11  2  0  0  0  0
 13 16  1  0  0  0  0
 13 14  1  1  0  0  0
 13 15  1  0  0  0  0
 15 32  1  0  0  0  0
 16 17  1  0  0  0  0
 17 18  2  0  0  0  0
 17 33  1  0  0  0  0
 18 34  1  0  0  0  0
 19 35  1  0  0  0  0
 19 18  1  0  0  0  0
 20 19  2  0  0  0  0
 21 20  1  0  0  0  0
 21 16  2  0  0  0  0
 22  6  1  0  0  0  0
 24  6  1  0  0  0  0
 25  8  1  0  0  0  0
 26  9  1  0  0  0  0
 30 15  1  0  0  0  0
 31 15  1  0  0  0  0
 36 20  1  0  0  0  0
 37 21  1  0  0  0  0
M  END
$$$$
