CSD_code = JITKEC | q = 0 | S = 0 | Stoichiometry = C22H21Cl2NO2PRe | MND = 6
 OpenBabel04212202053D

 50 54  0  0  1  0  0  0  0  0999 V2000
   -0.7272   -7.8701  -10.4433 Re  0  0  0  0  0  0  0  0  0  0  0  0
   -0.7398   -6.9838   -8.1628 P   0  0  0  0  0  4  0  0  0  0  0  0
   -0.9946   -8.5306  -12.6715 Cl  0  0  0  0  0  0  0  0  0  0  0  0
    1.5249   -7.4750  -10.7372 Cl  0  0  0  0  0  0  0  0  0  0  0  0
   -1.0852   -6.1356  -11.0509 O   0  0  0  0  0  0  0  0  0  0  0  0
   -0.5472   -9.3891   -9.7955 O   0  0  0  0  0  1  0  0  0  0  0  0
   -2.8931   -7.8907  -10.2478 N   0  0  2  0  0  0  0  0  0  0  0  0
   -1.9896   -5.5866  -11.8008 C   0  0  0  0  0  0  0  0  0  0  0  0
   -1.6976   -4.4508  -12.5736 C   0  0  0  0  0  0  0  0  0  0  0  0
   -2.6533   -3.8969  -13.3924 C   0  0  0  0  0  0  0  0  0  0  0  0
   -3.9400   -4.4301  -13.4478 C   0  0  0  0  0  0  0  0  0  0  0  0
   -4.2620   -5.5181  -12.6714 C   0  0  0  0  0  0  0  0  0  0  0  0
   -3.3094   -6.1206  -11.8405 C   0  0  0  0  0  0  0  0  0  0  0  0
   -3.6910   -7.1883  -10.9656 C   0  0  0  0  0  3  0  0  0  0  0  0
   -3.4323   -8.7354   -9.2128 C   0  0  0  0  0  0  0  0  0  0  0  0
   -3.4068   -8.0028   -7.8590 C   0  0  0  0  0  0  0  0  0  0  0  0
   -2.0224   -7.9092   -7.2103 C   0  0  0  0  0  0  0  0  0  0  0  0
    0.7489   -7.2635   -7.1741 C   0  0  0  0  0  0  0  0  0  0  0  0
    1.4755   -8.4250   -7.4221 C   0  0  0  0  0  0  0  0  0  0  0  0
    2.6185   -8.6864   -6.6904 C   0  0  0  0  0  0  0  0  0  0  0  0
    3.0394   -7.7911   -5.7190 C   0  0  0  0  0  0  0  0  0  0  0  0
    2.3186   -6.6330   -5.4769 C   0  0  0  0  0  0  0  0  0  0  0  0
    1.1723   -6.3630   -6.2028 C   0  0  0  0  0  0  0  0  0  0  0  0
   -1.0706   -5.2124   -8.0662 C   0  0  0  0  0  0  0  0  0  0  0  0
   -2.1439   -4.6323   -7.4014 C   0  0  0  0  0  0  0  0  0  0  0  0
   -2.3277   -3.2610   -7.4639 C   0  0  0  0  0  0  0  0  0  0  0  0
   -1.4516   -2.4712   -8.1895 C   0  0  0  0  0  0  0  0  0  0  0  0
   -0.3779   -3.0479   -8.8522 C   0  0  0  0  0  0  0  0  0  0  0  0
   -0.1866   -4.4143   -8.7946 C   0  0  0  0  0  0  0  0  0  0  0  0
   -0.6941   -4.0552  -12.5309 H   0  0  0  0  0  0  0  0  0  0  0  0
   -2.4027   -3.0403  -14.0004 H   0  0  0  0  0  0  0  0  0  0  0  0
   -4.6799   -3.9874  -14.0964 H   0  0  0  0  0  0  0  0  0  0  0  0
   -5.2588   -5.9353  -12.7031 H   0  0  0  0  0  0  0  0  0  0  0  0
   -4.7680   -7.3596  -10.8709 H   0  0  0  0  0  0  0  0  0  0  0  0
   -2.8217   -9.6406   -9.1612 H   0  0  0  0  0  0  0  0  0  0  0  0
   -4.4699   -9.0070   -9.4451 H   0  0  0  0  0  0  0  0  0  0  0  0
   -3.8278   -7.0039   -8.0037 H   0  0  0  0  0  0  0  0  0  0  0  0
   -4.0617   -8.5468   -7.1736 H   0  0  0  0  0  0  0  0  0  0  0  0
   -1.6054   -8.9164   -7.1005 H   0  0  0  0  0  0  0  0  0  0  0  0
   -2.0997   -7.4647   -6.2123 H   0  0  0  0  0  0  0  0  0  0  0  0
    0.6393   -4.8863   -9.3133 H   0  0  0  0  0  0  0  0  0  0  0  0
    0.3043   -2.4301   -9.4165 H   0  0  0  0  0  0  0  0  0  0  0  0
   -1.6061   -1.4037   -8.2391 H   0  0  0  0  0  0  0  0  0  0  0  0
   -3.1605   -2.8085   -6.9456 H   0  0  0  0  0  0  0  0  0  0  0  0
   -2.8290   -5.2399   -6.8279 H   0  0  0  0  0  0  0  0  0  0  0  0
    0.6123   -5.4553   -6.0235 H   0  0  0  0  0  0  0  0  0  0  0  0
    2.6531   -5.9343   -4.7241 H   0  0  0  0  0  0  0  0  0  0  0  0
    3.9377   -7.9915   -5.1542 H   0  0  0  0  0  0  0  0  0  0  0  0
    3.1888   -9.5814   -6.8856 H   0  0  0  0  0  0  0  0  0  0  0  0
    1.1462   -9.0974   -8.2054 H   0  0  0  0  0  0  0  0  0  0  0  0
  1  7  1  0  0  0  0
  1  6  1  0  0  0  0
  1  2  1  0  0  0  0
  2 24  1  0  0  0  0
  2 17  1  0  0  0  0
  2 18  1  0  0  0  0
  3  1  1  0  0  0  0
  4  1  1  0  0  0  0
  5  1  1  0  0  0  0
  7 14  1  1  0  0  0
  7 15  1  0  0  0  0
  8  5  1  0  0  0  0
  9 30  1  0  0  0  0
  9  8  2  0  0  0  0
 10  9  1  0  0  0  0
 11 10  2  0  0  0  0
 11 12  1  0  0  0  0
 12 13  2  0  0  0  0
 13  8  1  0  0  0  0
 13 14  1  0  0  0  0
 14 34  1  0  0  0  0
 15 35  1  0  0  0  0
 15 16  1  0  0  0  0
 16 17  1  0  0  0  0
 16 38  1  0  0  0  0
 17 39  1  0  0  0  0
 17 40  1  0  0  0  0
 18 23  1  0  0  0  0
 19 18  2  0  0  0  0
 19 20  1  0  0  0  0
 20 21  2  0  0  0  0
 21 22  1  0  0  0  0
 21 48  1  0  0  0  0
 22 47  1  0  0  0  0
 23 46  1  0  0  0  0
 23 22  2  0  0  0  0
 24 25  1  0  0  0  0
 25 45  1  0  0  0  0
 26 25  2  0  0  0  0
 26 44  1  0  0  0  0
 27 26  1  0  0  0  0
 28 29  1  0  0  0  0
 28 27  2  0  0  0  0
 29 24  2  0  0  0  0
 31 10  1  0  0  0  0
 32 11  1  0  0  0  0
 33 12  1  0  0  0  0
 36 15  1  0  0  0  0
 37 16  1  0  0  0  0
 41 29  1  0  0  0  0
 42 28  1  0  0  0  0
 43 27  1  0  0  0  0
 49 20  1  0  0  0  0
 50 19  1  0  0  0  0
M  END
$$$$
