CSD_code = JITKAY | q = 0 | S = 0 | Stoichiometry = C22H23Cl2NO2PRe | MND = 6
 OpenBabel04212202053D

 52 56  0  0  1  0  0  0  0  0999 V2000
    9.4113   -0.4743    7.2109 Re  0  0  0  0  0  0  0  0  0  0  0  0
   10.9825   -0.2934    5.4787 Cl  0  0  0  0  0  0  0  0  0  0  0  0
    7.7577    0.4760    5.9383 Cl  0  0  0  0  0  0  0  0  0  0  0  0
    7.7779   -0.9665    8.9937 P   0  0  0  0  0  4  0  0  0  0  0  0
    9.0461   -2.1682    6.6509 O   0  0  0  0  0  0  0  0  0  0  0  0
    9.9120    0.8923    8.0097 O   0  0  0  0  0  1  0  0  0  0  0  0
   11.1644   -1.6421    8.3732 N   0  0  2  0  0  4  0  0  0  0  0  0
    9.2319   -3.4467    6.8714 C   0  0  0  0  0  0  0  0  0  0  0  0
    8.2493   -4.3926    6.5599 C   0  0  0  0  0  0  0  0  0  0  0  0
    8.4391   -5.7223    6.8749 C   0  0  0  0  0  0  0  0  0  0  0  0
    9.6046   -6.1351    7.4992 C   0  0  0  0  0  0  0  0  0  0  0  0
   10.5971   -5.2111    7.7838 C   0  0  0  0  0  0  0  0  0  0  0  0
   10.4359   -3.8719    7.4759 C   0  0  0  0  0  0  0  0  0  0  0  0
   11.5491   -2.8746    7.6676 C   0  0  0  0  0  0  0  0  0  0  0  0
   11.0863   -1.7677    9.8289 C   0  0  0  0  0  0  0  0  0  0  0  0
    9.8021   -2.4276   10.3463 C   0  0  0  0  0  0  0  0  0  0  0  0
    8.6430   -1.4449   10.5492 C   0  0  0  0  0  0  0  0  0  0  0  0
    6.7079    0.3926    9.5382 C   0  0  0  0  0  0  0  0  0  0  0  0
    7.1050    1.7009    9.2829 C   0  0  0  0  0  0  0  0  0  0  0  0
    6.3091    2.7529    9.6999 C   0  0  0  0  0  0  0  0  0  0  0  0
    5.1209    2.5024   10.3670 C   0  0  0  0  0  0  0  0  0  0  0  0
    4.7240    1.1985   10.6191 C   0  0  0  0  0  0  0  0  0  0  0  0
    5.5130    0.1410   10.2061 C   0  0  0  0  0  0  0  0  0  0  0  0
    6.6132   -2.2939    8.5992 C   0  0  0  0  0  0  0  0  0  0  0  0
    6.5583   -3.5200    9.2513 C   0  0  0  0  0  0  0  0  0  0  0  0
    5.6420   -4.4741    8.8430 C   0  0  0  0  0  0  0  0  0  0  0  0
    4.7854   -4.2141    7.7868 C   0  0  0  0  0  0  0  0  0  0  0  0
    4.8449   -2.9948    7.1280 C   0  0  0  0  0  0  0  0  0  0  0  0
    5.7572   -2.0373    7.5275 C   0  0  0  0  0  0  0  0  0  0  0  0
   11.8806   -0.9479    8.1600 H   0  0  0  0  0  0  0  0  0  0  0  0
    7.3468   -4.0551    6.0734 H   0  0  0  0  0  0  0  0  0  0  0  0
    7.6705   -6.4404    6.6317 H   0  0  0  0  0  0  0  0  0  0  0  0
    9.7494   -7.1746    7.7499 H   0  0  0  0  0  0  0  0  0  0  0  0
   11.5191   -5.5365    8.2454 H   0  0  0  0  0  0  0  0  0  0  0  0
   12.3898   -3.3592    8.1843 H   0  0  0  0  0  0  0  0  0  0  0  0
   11.8874   -2.5622    6.6715 H   0  0  0  0  0  0  0  0  0  0  0  0
   11.9468   -2.3536   10.1846 H   0  0  0  0  0  0  0  0  0  0  0  0
   11.1614   -0.7606   10.2469 H   0  0  0  0  0  0  0  0  0  0  0  0
    9.5115   -3.2274    9.6620 H   0  0  0  0  0  0  0  0  0  0  0  0
   10.0303   -2.8857   11.3121 H   0  0  0  0  0  0  0  0  0  0  0  0
    7.8978   -1.8593   11.2350 H   0  0  0  0  0  0  0  0  0  0  0  0
    9.0158   -0.5135   10.9858 H   0  0  0  0  0  0  0  0  0  0  0  0
    8.0289    1.8780    8.7467 H   0  0  0  0  0  0  0  0  0  0  0  0
    6.6123    3.7686    9.4969 H   0  0  0  0  0  0  0  0  0  0  0  0
    4.4973    3.3241   10.6866 H   0  0  0  0  0  0  0  0  0  0  0  0
    3.7945    1.0056   11.1344 H   0  0  0  0  0  0  0  0  0  0  0  0
    5.2004   -0.8777   10.3909 H   0  0  0  0  0  0  0  0  0  0  0  0
    7.2225   -3.7403   10.0740 H   0  0  0  0  0  0  0  0  0  0  0  0
    5.6016   -5.4263    9.3512 H   0  0  0  0  0  0  0  0  0  0  0  0
    4.0754   -4.9644    7.4722 H   0  0  0  0  0  0  0  0  0  0  0  0
    4.1844   -2.7945    6.2977 H   0  0  0  0  0  0  0  0  0  0  0  0
    5.8327   -1.0894    7.0087 H   0  0  0  0  0  0  0  0  0  0  0  0
  1  6  1  0  0  0  0
  1  7  1  0  0  0  0
  1  4  1  0  0  0  0
  2  1  1  0  0  0  0
  3  1  1  0  0  0  0
  4 18  1  0  0  0  0
  4 17  1  0  0  0  0
  5  8  1  0  0  0  0
  5  1  1  0  0  0  0
  7 30  1  6  0  0  0
  7 15  1  0  0  0  0
  8 13  1  0  0  0  0
  9  8  2  0  0  0  0
  9 10  1  0  0  0  0
 10 11  2  0  0  0  0
 11 33  1  0  0  0  0
 11 12  1  0  0  0  0
 12 34  1  0  0  0  0
 13 14  1  0  0  0  0
 13 12  2  0  0  0  0
 14 35  1  0  0  0  0
 14  7  1  0  0  0  0
 15 37  1  0  0  0  0
 15 38  1  0  0  0  0
 15 16  1  0  0  0  0
 16 17  1  0  0  0  0
 16 40  1  0  0  0  0
 17 42  1  0  0  0  0
 17 41  1  0  0  0  0
 18 23  1  0  0  0  0
 19 18  2  0  0  0  0
 19 20  1  0  0  0  0
 20 21  2  0  0  0  0
 21 22  1  0  0  0  0
 21 45  1  0  0  0  0
 22 46  1  0  0  0  0
 23 47  1  0  0  0  0
 23 22  2  0  0  0  0
 24  4  1  0  0  0  0
 24 25  1  0  0  0  0
 25 48  1  0  0  0  0
 26 25  2  0  0  0  0
 26 49  1  0  0  0  0
 27 26  1  0  0  0  0
 28 29  1  0  0  0  0
 28 27  2  0  0  0  0
 29 24  2  0  0  0  0
 31  9  1  0  0  0  0
 32 10  1  0  0  0  0
 36 14  1  0  0  0  0
 39 16  1  0  0  0  0
 43 19  1  0  0  0  0
 44 20  1  0  0  0  0
 50 27  1  0  0  0  0
 51 28  1  0  0  0  0
 52 29  1  0  0  0  0
M  END
$$$$
