CSD_code = JITSAG | q = 0 | S = 0 | Stoichiometry = C24H22ClNOZr | MND = 12
 OpenBabel04212202053D

 50 52  0  0  1  0  0  0  0  0999 V2000
    1.1647    2.6194    3.5803 Zr  0  0  0  0  0  0  0  0  0  0  0  0
    1.6145    4.8851    4.0386 Cl  0  0  0  0  0  0  0  0  0  0  0  0
   -0.6573    2.9540    3.3046 O   0  0  0  0  0  0  0  0  0  0  0  0
   -1.9014    2.2075    1.5358 N   0  0  0  0  0  0  0  0  0  0  0  0
    1.8321    3.1565    1.2499 C   0  0  0  0  0  3  0  0  0  0  0  0
    3.0415    3.0966    1.9791 C   0  0  0  0  0  0  0  0  0  0  0  0
    3.2302    1.7688    2.4081 C   0  0  0  0  0  0  0  0  0  0  0  0
    2.1374    0.9977    1.9455 C   0  0  0  0  0  3  0  0  0  0  0  0
    1.2753    1.8543    1.2228 C   0  0  1  0  0  0  0  0  0  0  0  0
    0.1269    1.7535    5.6991 C   0  0  0  0  0  0  0  0  0  0  0  0
    1.1839    2.5999    6.0877 C   0  0  0  0  0  3  0  0  0  0  0  0
    2.3992    2.0113    5.6621 C   0  0  0  0  0  0  0  0  0  0  0  0
    2.0875    0.7895    5.0278 C   0  0  0  0  0  0  0  0  0  0  0  0
    0.6801    0.6429    5.0172 C   0  0  0  0  0  0  0  0  0  0  0  0
   -2.0549    1.0106    2.2598 C   0  0  0  0  0  0  0  0  0  0  0  0
   -2.5743    1.0283    3.5554 C   0  0  0  0  0  0  0  0  0  0  0  0
   -2.7082   -0.1503    4.2657 C   0  0  0  0  0  0  0  0  0  0  0  0
   -2.3364   -1.3588    3.6983 C   0  0  0  0  0  0  0  0  0  0  0  0
   -1.8320   -1.3827    2.4079 C   0  0  0  0  0  0  0  0  0  0  0  0
   -1.6868   -0.2098    1.6914 C   0  0  0  0  0  0  0  0  0  0  0  0
   -2.2868    2.2441    0.1895 C   0  0  0  0  0  0  0  0  0  0  0  0
   -1.5594    2.9518   -0.7668 C   0  0  0  0  0  0  0  0  0  0  0  0
   -1.9622    2.9508   -2.0889 C   0  0  0  0  0  0  0  0  0  0  0  0
   -3.0865    2.2449   -2.4834 C   0  0  0  0  0  0  0  0  0  0  0  0
   -3.8107    1.5364   -1.5390 C   0  0  0  0  0  0  0  0  0  0  0  0
   -3.4193    1.5353   -0.2145 C   0  0  0  0  0  0  0  0  0  0  0  0
   -1.3246    3.3087    2.2106 C   0  0  0  0  0  0  0  0  0  0  0  0
   -1.4508    4.5848    1.8282 C   0  0  0  0  0  0  0  0  0  0  0  0
    1.4630    4.0284    0.7209 H   0  0  0  0  0  0  0  0  0  0  0  0
    3.7444    3.9121    2.1005 H   0  0  0  0  0  0  0  0  0  0  0  0
    4.1276    1.3840    2.8778 H   0  0  0  0  0  0  0  0  0  0  0  0
    2.0475   -0.0813    1.9993 H   0  0  0  0  0  0  0  0  0  0  0  0
    0.4448    1.5318    0.6095 H   0  0  0  0  0  0  0  0  0  0  0  0
   -0.9164    1.8869    5.9550 H   0  0  0  0  0  0  0  0  0  0  0  0
    1.0917    3.4957    6.6905 H   0  0  0  0  0  0  0  0  0  0  0  0
    3.3927    2.3715    5.9069 H   0  0  0  0  0  0  0  0  0  0  0  0
    2.7991    0.0284    4.7326 H   0  0  0  0  0  0  0  0  0  0  0  0
    0.1362   -0.2379    4.6962 H   0  0  0  0  0  0  0  0  0  0  0  0
   -3.9900    0.9872    0.5205 H   0  0  0  0  0  0  0  0  0  0  0  0
   -2.8882    1.9681    3.9867 H   0  0  0  0  0  0  0  0  0  0  0  0
   -3.1177   -0.1286    5.2648 H   0  0  0  0  0  0  0  0  0  0  0  0
   -2.4462   -2.2770    4.2551 H   0  0  0  0  0  0  0  0  0  0  0  0
   -1.5458   -2.3213    1.9564 H   0  0  0  0  0  0  0  0  0  0  0  0
   -1.3071   -0.2367    0.6799 H   0  0  0  0  0  0  0  0  0  0  0  0
   -0.6773    3.4988   -0.4718 H   0  0  0  0  0  0  0  0  0  0  0  0
   -1.3863    3.5010   -2.8184 H   0  0  0  0  0  0  0  0  0  0  0  0
   -3.3957    2.2473   -3.5174 H   0  0  0  0  0  0  0  0  0  0  0  0
   -4.6919    0.9860   -1.8337 H   0  0  0  0  0  0  0  0  0  0  0  0
   -0.9570    5.3468    2.4086 H   0  0  0  0  0  0  0  0  0  0  0  0
   -2.0491    4.8814    0.9890 H   0  0  0  0  0  0  0  0  0  0  0  0
  1  2  1  0  0  0  0
  3  1  1  0  0  0  0
  4 27  1  0  0  0  0
  4 15  1  0  0  0  0
  5  6  1  0  0  0  0
  6 30  1  0  0  0  0
  6  7  2  0  0  0  0
  7 31  1  0  0  0  0
  8 32  1  0  0  0  0
  8  7  1  0  0  0  0
  9 33  1  6  0  0  0
  9  5  1  0  0  0  0
  9  8  1  0  0  0  0
  9  1  1  0  0  0  0
 10 34  1  0  0  0  0
 10 11  1  0  0  0  0
 11 35  1  0  0  0  0
 12 36  1  0  0  0  0
 12 11  1  0  0  0  0
 13 12  2  0  0  0  0
 14 13  1  0  0  0  0
 14 10  2  0  0  0  0
 15 16  1  0  0  0  0
 16 40  1  0  0  0  0
 16 17  2  0  0  0  0
 17 41  1  0  0  0  0
 18 42  1  0  0  0  0
 18 17  1  0  0  0  0
 19 18  2  0  0  0  0
 20 15  2  0  0  0  0
 20 19  1  0  0  0  0
 21  4  1  0  0  0  0
 22 45  1  0  0  0  0
 22 21  2  0  0  0  0
 23 22  1  0  0  0  0
 24 23  2  0  0  0  0
 24 25  1  0  0  0  0
 25 26  2  0  0  0  0
 26 21  1  0  0  0  0
 26 39  1  0  0  0  0
 27  3  1  0  0  0  0
 28 27  2  0  0  0  0
 28 49  1  0  0  0  0
 29  5  1  0  0  0  0
 37 13  1  0  0  0  0
 38 14  1  0  0  0  0
 43 19  1  0  0  0  0
 44 20  1  0  0  0  0
 46 23  1  0  0  0  0
 47 24  1  0  0  0  0
 48 25  1  0  0  0  0
 50 28  1  0  0  0  0
M  END
$$$$
