CSD_code = JIWBOH | q = 0 | S = 0 | Stoichiometry = C16H24Cl2FeN8 | MND = 6
 OpenBabel04212202053D

 51 54  0  0  0  0  0  0  0  0999 V2000
    4.8522    0.0002    8.5274 Fe  0  0  0  0  0  0  0  0  0  0  0  0
    6.7530    1.0819    8.9193 Cl  0  0  0  0  0  0  0  0  0  0  0  0
    4.0703    0.7054   10.2764 N   0  0  0  0  0  0  0  0  0  0  0  0
    2.6307    1.1470   11.8791 N   0  0  0  0  0  0  0  0  0  0  0  0
    4.1224    1.6319    7.5077 N   0  0  0  0  0  0  0  0  0  0  0  0
    2.7633    2.9251    6.3605 N   0  0  0  0  0  0  0  0  0  0  0  0
    2.8091    0.6461   10.6417 C   0  0  0  0  0  3  0  0  0  0  0  0
    2.0267    0.2254   10.0429 H   0  0  0  0  0  0  0  0  0  0  0  0
    3.8588    1.5543   12.3187 C   0  0  0  0  0  0  0  0  0  0  0  0
    3.9998    1.9972   13.2834 H   0  0  0  0  0  0  0  0  0  0  0  0
    4.7393    1.2734   11.3186 C   0  0  0  0  0  0  0  0  0  0  0  0
    5.7939    1.4499   11.2605 H   0  0  0  0  0  0  0  0  0  0  0  0
    1.3925    1.2435   12.5959 C   0  0  0  0  0  0  0  0  0  0  0  0
    0.6093    0.7525   12.0212 H   0  0  0  0  0  0  0  0  0  0  0  0
    1.1180    2.2898   12.7521 H   0  0  0  0  0  0  0  0  0  0  0  0
    1.4778    0.7568   13.5696 H   0  0  0  0  0  0  0  0  0  0  0  0
    2.9158    1.7502    7.0003 C   0  0  0  0  0  3  0  0  0  0  0  0
    2.1551    0.9990    7.0748 H   0  0  0  0  0  0  0  0  0  0  0  0
    3.9514    3.5911    6.4742 C   0  0  0  0  0  0  0  0  0  0  0  0
    4.1017    4.5627    6.0498 H   0  0  0  0  0  0  0  0  0  0  0  0
    4.7820    2.7794    7.1851 C   0  0  0  0  0  0  0  0  0  0  0  0
    5.7959    2.9335    7.4937 H   0  0  0  0  0  0  0  0  0  0  0  0
    1.5844    3.3914    5.6903 C   0  0  0  0  0  0  0  0  0  0  0  0
    1.7980    3.5962    4.6388 H   0  0  0  0  0  0  0  0  0  0  0  0
    1.2158    4.3086    6.1558 H   0  0  0  0  0  0  0  0  0  0  0  0
    0.8132    2.6258    5.7529 H   0  0  0  0  0  0  0  0  0  0  0  0
    2.9509   -1.0809    8.1356 Cl  0  0  0  0  0  0  0  0  0  0  0  0
    5.6339   -0.7052    6.7783 N   0  0  0  0  0  0  0  0  0  0  0  0
    7.0736   -1.1471    5.1758 N   0  0  0  0  0  0  0  0  0  0  0  0
    5.5818   -1.6316    9.5469 N   0  0  0  0  0  0  0  0  0  0  0  0
    6.9410   -2.9251   10.6935 N   0  0  0  0  0  0  0  0  0  0  0  0
    6.8951   -0.6458    6.4130 C   0  0  0  0  0  3  0  0  0  0  0  0
    7.6774   -0.2247    7.0116 H   0  0  0  0  0  0  0  0  0  0  0  0
    5.8456   -1.5548    4.7364 C   0  0  0  0  0  0  0  0  0  0  0  0
    5.7047   -1.9981    3.7718 H   0  0  0  0  0  0  0  0  0  0  0  0
    4.9651   -1.2738    5.7364 C   0  0  0  0  0  0  0  0  0  0  0  0
    3.9105   -1.4505    5.7945 H   0  0  0  0  0  0  0  0  0  0  0  0
    8.3118   -1.2436    4.4591 C   0  0  0  0  0  0  0  0  0  0  0  0
    9.0949   -0.7523    5.0337 H   0  0  0  0  0  0  0  0  0  0  0  0
    8.5865   -2.2899    4.3032 H   0  0  0  0  0  0  0  0  0  0  0  0
    8.2265   -0.7571    3.4852 H   0  0  0  0  0  0  0  0  0  0  0  0
    6.7885   -1.7501   10.0539 C   0  0  0  0  0  3  0  0  0  0  0  0
    7.5492   -0.9990    9.9794 H   0  0  0  0  0  0  0  0  0  0  0  0
    5.7528   -3.5910   10.5800 C   0  0  0  0  0  0  0  0  0  0  0  0
    5.6025   -4.5626   11.0043 H   0  0  0  0  0  0  0  0  0  0  0  0
    4.9221   -2.7791    9.8695 C   0  0  0  0  0  0  0  0  0  0  0  0
    3.9081   -2.9330    9.5611 H   0  0  0  0  0  0  0  0  0  0  0  0
    8.1200   -3.3916   11.3634 C   0  0  0  0  0  0  0  0  0  0  0  0
    7.9066   -3.5964   12.4149 H   0  0  0  0  0  0  0  0  0  0  0  0
    8.4884   -4.3088   10.8977 H   0  0  0  0  0  0  0  0  0  0  0  0
    8.8913   -2.6262   11.3006 H   0  0  0  0  0  0  0  0  0  0  0  0
  1  2  1  0  0  0  0
  1 30  1  0  0  0  0
  1  3  1  0  0  0  0
  3  7  1  0  0  0  0
  3 11  1  0  0  0  0
  4  9  1  0  0  0  0
  4 13  1  0  0  0  0
  5  1  1  0  0  0  0
  6 19  1  0  0  0  0
  6 17  1  0  0  0  0
  7  4  1  0  0  0  0
  8  7  1  0  0  0  0
  9 10  1  0  0  0  0
 11  9  2  0  0  0  0
 12 11  1  0  0  0  0
 13 15  1  0  0  0  0
 13 16  1  0  0  0  0
 14 13  1  0  0  0  0
 17 18  1  0  0  0  0
 17  5  1  0  0  0  0
 19 21  2  0  0  0  0
 20 19  1  0  0  0  0
 21 22  1  0  0  0  0
 21  5  1  0  0  0  0
 23 26  1  0  0  0  0
 23 25  1  0  0  0  0
 23  6  1  0  0  0  0
 24 23  1  0  0  0  0
 27  1  1  0  0  0  0
 28  1  1  0  0  0  0
 29 32  1  0  0  0  0
 30 46  1  0  0  0  0
 30 42  1  0  0  0  0
 31 48  1  0  0  0  0
 32 28  1  0  0  0  0
 32 33  1  0  0  0  0
 34 29  1  0  0  0  0
 34 36  2  0  0  0  0
 35 34  1  0  0  0  0
 36 37  1  0  0  0  0
 36 28  1  0  0  0  0
 38 39  1  0  0  0  0
 38 29  1  0  0  0  0
 40 38  1  0  0  0  0
 41 38  1  0  0  0  0
 42 31  1  0  0  0  0
 43 42  1  0  0  0  0
 44 31  1  0  0  0  0
 44 45  1  0  0  0  0
 46 44  2  0  0  0  0
 47 46  1  0  0  0  0
 48 49  1  0  0  0  0
 50 48  1  0  0  0  0
 51 48  1  0  0  0  0
M  END
$$$$
