CSD_code = JIWTIV | q = 1 | S = 0 | Stoichiometry = C17H27ClN7NiO3(1+) | MND = 6
 OpenBabel04212202053D

 56 61  0  0  1  0  0  0  0  0999 V2000
   10.0121    6.6185    6.5037 Ni  0  0  0  0  0  0  0  0  0  0  0  0
   11.7150    7.8111    6.7351 Cl  0  0  0  0  0  0  0  0  0  0  0  0
   11.8150    3.7544    2.6231 O   0  0  0  0  0  0  0  0  0  0  0  0
    7.7032    7.9767   10.8983 O   0  0  0  0  0  0  0  0  0  0  0  0
    9.0742    7.8677    5.3961 O   0  0  0  0  0  0  0  0  0  0  0  0
   10.7085    5.1956    4.7594 N   0  0  2  0  0  4  0  0  0  0  0  0
    8.2074    5.4204    6.2167 N   0  0  1  0  0  4  0  0  0  0  0  0
    8.8535    7.1039    8.4964 N   0  0  1  0  0  4  0  0  0  0  0  0
   10.7772    5.3366    7.5391 N   0  0  0  0  0  0  0  0  0  0  0  0
    8.7404    8.5341    8.7890 C   0  0  0  0  0  0  0  0  0  0  0  0
    8.0995    9.0026    8.0362 H   0  0  0  0  0  0  0  0  0  0  0  0
    9.7359    8.9787    8.6954 H   0  0  0  0  0  0  0  0  0  0  0  0
    8.1623    8.8348   10.1771 C   0  0  0  0  0  0  0  0  0  0  0  0
    8.2006   10.1372   10.5129 N   0  0  0  0  0  0  0  0  0  0  0  0
    7.8507   10.4167   11.4154 H   0  0  0  0  0  0  0  0  0  0  0  0
    8.6190   10.8363    9.9255 H   0  0  0  0  0  0  0  0  0  0  0  0
   11.3007    5.8947    3.6173 C   0  0  0  0  0  0  0  0  0  0  0  0
   12.0412    6.6030    4.0011 H   0  0  0  0  0  0  0  0  0  0  0  0
   10.5229    6.4739    3.1109 H   0  0  0  0  0  0  0  0  0  0  0  0
   11.9525    4.9576    2.5934 C   0  0  0  0  0  0  0  0  0  0  0  0
   12.6772    5.5940    1.6552 N   0  0  0  0  0  0  0  0  0  0  0  0
   13.1444    5.0474    0.9494 H   0  0  0  0  0  0  0  0  0  0  0  0
   12.8165    6.5886    1.6597 H   0  0  0  0  0  0  0  0  0  0  0  0
    9.5523    4.3777    4.3815 C   0  0  0  0  0  0  0  0  0  0  0  0
    9.8615    3.3967    4.0014 H   0  0  0  0  0  0  0  0  0  0  0  0
    9.0293    4.8931    3.5726 H   0  0  0  0  0  0  0  0  0  0  0  0
    8.5952    4.1607    5.5631 C   0  0  0  0  0  0  0  0  0  0  0  0
    7.7080    3.6196    5.2049 H   0  0  0  0  0  0  0  0  0  0  0  0
    9.0887    3.5298    6.3047 H   0  0  0  0  0  0  0  0  0  0  0  0
    7.6079    5.1772    7.5381 C   0  0  0  0  0  0  0  0  0  0  0  0
    8.2122    4.4288    8.0542 H   0  0  0  0  0  0  0  0  0  0  0  0
    6.5922    4.7700    7.4352 H   0  0  0  0  0  0  0  0  0  0  0  0
    7.5471    6.4456    8.4016 C   0  0  0  0  0  0  0  0  0  0  0  0
    6.8462    7.1588    7.9614 H   0  0  0  0  0  0  0  0  0  0  0  0
    7.1625    6.1728    9.3916 H   0  0  0  0  0  0  0  0  0  0  0  0
    9.7463    6.4419    9.4569 C   0  0  0  0  0  0  0  0  0  0  0  0
    9.2014    6.1055   10.3473 H   0  0  0  0  0  0  0  0  0  0  0  0
   10.4970    7.1708    9.7817 H   0  0  0  0  0  0  0  0  0  0  0  0
   10.5041    5.2954    8.8468 C   0  0  2  0  0  3  0  0  0  0  0  0
   11.4461    4.3357    6.9581 C   0  0  0  0  0  0  0  0  0  0  0  0
   11.9098    3.2566    7.6993 C   0  0  0  0  0  0  0  0  0  0  0  0
   12.4557    2.4687    7.2062 H   0  0  0  0  0  0  0  0  0  0  0  0
   11.6670    3.2138    9.0610 C   0  0  0  0  0  0  0  0  0  0  0  0
   12.0253    2.3903    9.6580 H   0  0  0  0  0  0  0  0  0  0  0  0
   10.9431    4.2420    9.6387 C   0  0  0  0  0  0  0  0  0  0  0  0
   10.7179    4.2402   10.6929 H   0  0  0  0  0  0  0  0  0  0  0  0
   11.7280    4.4251    5.4840 C   0  0  0  0  0  0  0  0  0  0  0  0
   12.6843    4.9505    5.3841 H   0  0  0  0  0  0  0  0  0  0  0  0
   11.8517    3.4214    5.0596 H   0  0  0  0  0  0  0  0  0  0  0  0
    7.3162    6.2181    5.3607 C   0  0  0  0  0  0  0  0  0  0  0  0
    6.3665    6.4177    5.8689 H   0  0  0  0  0  0  0  0  0  0  0  0
    7.0807    5.6792    4.4367 H   0  0  0  0  0  0  0  0  0  0  0  0
    7.9598    7.5473    4.9975 C   0  0  1  0  0  3  0  0  0  0  0  0
    7.2465    8.3627    4.2135 N   0  0  0  0  0  0  0  0  0  0  0  0
    7.6390    9.2544    3.9505 H   0  0  0  0  0  0  0  0  0  0  0  0
    6.3306    8.1272    3.8726 H   0  0  0  0  0  0  0  0  0  0  0  0
  1  2  1  0  0  0  0
  1  9  1  0  0  0  0
  1  8  1  0  0  0  0
  5  1  1  0  0  0  0
  6 17  1  6  0  0  0
  6 47  1  0  0  0  0
  6  1  1  0  0  0  0
  7 50  1  6  0  0  0
  7  1  1  0  0  0  0
  7 30  1  0  0  0  0
  8 10  1  1  0  0  0
  8 36  1  0  0  0  0
  9 39  1  0  0  0  0
 10 13  1  0  0  0  0
 11 10  1  0  0  0  0
 12 10  1  0  0  0  0
 13 14  1  0  0  0  0
 13  4  2  0  0  0  0
 14 15  1  0  0  0  0
 16 14  1  0  0  0  0
 17 18  1  0  0  0  0
 19 17  1  0  0  0  0
 20  3  2  0  0  0  0
 20 17  1  0  0  0  0
 21 23  1  0  0  0  0
 21 20  1  0  0  0  0
 22 21  1  0  0  0  0
 24  6  1  0  0  0  0
 24 27  1  0  0  0  0
 25 24  1  0  0  0  0
 26 24  1  0  0  0  0
 27  7  1  0  0  0  0
 27 29  1  0  0  0  0
 28 27  1  0  0  0  0
 30 31  1  0  0  0  0
 30 33  1  0  0  0  0
 32 30  1  0  0  0  0
 33  8  1  0  0  0  0
 33 35  1  0  0  0  0
 34 33  1  0  0  0  0
 36 38  1  0  0  0  0
 36 37  1  0  0  0  0
 39 36  1  0  0  0  0
 39 45  1  1  0  0  0
 40  9  1  0  0  0  0
 40 41  2  0  0  0  0
 41 43  1  0  0  0  0
 42 41  1  0  0  0  0
 43 45  2  0  0  0  0
 43 44  1  0  0  0  0
 45 46  1  0  0  0  0
 47 40  1  0  0  0  0
 48 47  1  0  0  0  0
 49 47  1  0  0  0  0
 50 51  1  0  0  0  0
 52 50  1  0  0  0  0
 53 54  1  1  0  0  0
 53 50  1  0  0  0  0
 53  5  1  0  0  0  0
 55 54  1  0  0  0  0
 56 54  1  0  0  0  0
M  END
$$$$
