CSD_code = JIWWER | q = 1 | S = 0 | Stoichiometry = C33H26Cl2N4OsP(1+) | MND = 6
 OpenBabel04212202053D

 67 74  0  0  1  0  0  0  0  0999 V2000
    6.7816    3.4239    0.5404 Os  0  0  0  0  0  0  0  0  0  0  0  0
    7.6153    4.8970    2.1891 Cl  0  0  0  0  0  0  0  0  0  0  0  0
    5.9455    1.9990   -1.0968 Cl  0  0  0  0  0  0  0  0  0  0  0  0
    6.2558    2.2670    1.8981 N   0  0  0  0  0  2  0  0  0  0  0  0
    5.1717    4.6172    0.2065 N   0  0  0  0  0  0  0  0  0  0  0  0
    3.9344    4.3996    0.6544 C   0  0  0  0  0  3  0  0  0  0  0  0
    2.8770    5.2377    0.3559 C   0  0  0  0  0  0  0  0  0  0  0  0
    3.1031    6.3485   -0.4474 C   0  0  0  0  0  0  0  0  0  0  0  0
    4.3761    6.5621   -0.9408 C   0  0  0  0  0  0  0  0  0  0  0  0
    5.3979    5.6753   -0.6085 C   0  0  0  0  0  0  0  0  0  0  0  0
    7.5167    4.7044   -0.7452 N   0  0  0  0  0  0  0  0  0  0  0  0
    6.7699    5.7668   -1.1018 C   0  0  2  0  0  3  0  0  0  0  0  0
    7.3193    6.8082   -1.8423 C   0  0  0  0  0  0  0  0  0  0  0  0
    8.6564    6.7418   -2.2053 C   0  0  0  0  0  0  0  0  0  0  0  0
    9.4212    5.6521   -1.8170 C   0  0  0  0  0  0  0  0  0  0  0  0
    8.8195    4.6397   -1.0767 C   0  0  0  0  0  0  0  0  0  0  0  0
    8.6486    2.6613    0.2020 N   0  0  0  0  0  0  0  0  0  0  0  0
    9.4543    3.4239   -0.5754 C   0  0  1  0  0  3  0  0  0  0  0  0
   10.7539    3.0257   -0.8801 C   0  0  0  0  0  0  0  0  0  0  0  0
   11.2245    1.8183   -0.3997 C   0  0  0  0  0  0  0  0  0  0  0  0
   10.3708    1.0242    0.3552 C   0  0  0  0  0  0  0  0  0  0  0  0
    9.0945    1.4790    0.6272 C   0  0  0  0  0  0  0  0  0  0  0  0
    6.3661    2.1209    3.4825 P   0  0  0  0  0  4  0  0  0  0  0  0
    7.9883    1.3834    3.8422 C   0  0  0  0  0  0  0  0  0  0  0  0
    9.1245    2.1844    3.7791 C   0  0  0  0  0  0  0  0  0  0  0  0
   10.3662    1.6153    3.9982 C   0  0  0  0  0  0  0  0  0  0  0  0
   10.4736    0.2579    4.2621 C   0  0  0  0  0  0  0  0  0  0  0  0
    9.3392   -0.5368    4.3093 C   0  0  0  0  0  0  0  0  0  0  0  0
    8.0905    0.0208    4.0924 C   0  0  0  0  0  0  0  0  0  0  0  0
    5.0809    0.9505    3.9965 C   0  0  0  0  0  0  0  0  0  0  0  0
    4.4243    0.1989    3.0301 C   0  0  0  0  0  0  0  0  0  0  0  0
    3.4526   -0.7070    3.4179 C   0  0  0  0  0  0  0  0  0  0  0  0
    3.1443   -0.8598    4.7605 C   0  0  0  0  0  0  0  0  0  0  0  0
    3.8022   -0.1066    5.7219 C   0  0  0  0  0  0  0  0  0  0  0  0
    4.7717    0.8042    5.3436 C   0  0  0  0  0  0  0  0  0  0  0  0
    6.1246    3.5742    4.5553 C   0  0  0  0  0  0  0  0  0  0  0  0
    5.0079    4.3567    4.2818 C   0  0  0  0  0  0  0  0  0  0  0  0
    4.7330    5.4620    5.0627 C   0  0  0  0  0  0  0  0  0  0  0  0
    5.5679    5.7810    6.1227 C   0  0  0  0  0  0  0  0  0  0  0  0
    6.6701    4.9911    6.4039 C   0  0  0  0  0  0  0  0  0  0  0  0
    6.9546    3.8839    5.6232 C   0  0  0  0  0  0  0  0  0  0  0  0
    3.7920    3.5103    1.2567 H   0  0  0  0  0  0  0  0  0  0  0  0
    1.8945    5.0187    0.7408 H   0  0  0  0  0  0  0  0  0  0  0  0
    2.2989    7.0228   -0.6955 H   0  0  0  0  0  0  0  0  0  0  0  0
    4.5802    7.3981   -1.5891 H   0  0  0  0  0  0  0  0  0  0  0  0
    6.7205    7.6584   -2.1227 H   0  0  0  0  0  0  0  0  0  0  0  0
    9.1017    7.5390   -2.7784 H   0  0  0  0  0  0  0  0  0  0  0  0
   10.4647    5.5970   -2.0777 H   0  0  0  0  0  0  0  0  0  0  0  0
   11.3773    3.6524   -1.4960 H   0  0  0  0  0  0  0  0  0  0  0  0
   12.2282    1.4937   -0.6236 H   0  0  0  0  0  0  0  0  0  0  0  0
   10.6843    0.0629    0.7275 H   0  0  0  0  0  0  0  0  0  0  0  0
    8.3986    0.8779    1.1976 H   0  0  0  0  0  0  0  0  0  0  0  0
    9.0279    3.2395    3.5650 H   0  0  0  0  0  0  0  0  0  0  0  0
   11.2509    2.2330    3.9652 H   0  0  0  0  0  0  0  0  0  0  0  0
   11.4447   -0.1816    4.4320 H   0  0  0  0  0  0  0  0  0  0  0  0
    9.4247   -1.5926    4.5165 H   0  0  0  0  0  0  0  0  0  0  0  0
    7.2011   -0.5923    4.1267 H   0  0  0  0  0  0  0  0  0  0  0  0
    4.6835    0.3367    1.9890 H   0  0  0  0  0  0  0  0  0  0  0  0
    2.9368   -1.2934    2.6728 H   0  0  0  0  0  0  0  0  0  0  0  0
    2.3868   -1.5674    5.0610 H   0  0  0  0  0  0  0  0  0  0  0  0
    3.5582   -0.2296    6.7661 H   0  0  0  0  0  0  0  0  0  0  0  0
    5.2894    1.4000    6.0832 H   0  0  0  0  0  0  0  0  0  0  0  0
    4.3690    4.0906    3.4491 H   0  0  0  0  0  0  0  0  0  0  0  0
    3.8709    6.0755    4.8476 H   0  0  0  0  0  0  0  0  0  0  0  0
    5.3580    6.6476    6.7307 H   0  0  0  0  0  0  0  0  0  0  0  0
    7.3149    5.2384    7.2336 H   0  0  0  0  0  0  0  0  0  0  0  0
    7.8144    3.2683    5.8442 H   0  0  0  0  0  0  0  0  0  0  0  0
  1  4  1  0  0  0  0
  1  2  1  0  0  0  0
  3  1  1  0  0  0  0
  4 23  1  0  0  0  0
  5  1  1  0  0  0  0
  5  6  1  0  0  0  0
  6 42  1  0  0  0  0
  7  6  1  0  0  0  0
  7 43  1  0  0  0  0
  8  7  2  0  0  0  0
  9 10  2  0  0  0  0
  9  8  1  0  0  0  0
 10  5  1  0  0  0  0
 11  1  1  0  0  0  0
 12 13  1  1  0  0  0
 12 11  1  0  0  0  0
 12 10  1  0  0  0  0
 14 13  2  0  0  0  0
 14 15  1  0  0  0  0
 15 16  2  0  0  0  0
 16 11  1  0  0  0  0
 17  1  1  0  0  0  0
 17 22  1  0  0  0  0
 18 16  1  6  0  0  0
 18 17  1  0  0  0  0
 19 18  1  0  0  0  0
 19 20  2  0  0  0  0
 20 21  1  0  0  0  0
 21 22  2  0  0  0  0
 21 51  1  0  0  0  0
 22 52  1  0  0  0  0
 23 24  1  0  0  0  0
 23 30  1  0  0  0  0
 23 36  1  0  0  0  0
 24 29  1  0  0  0  0
 25 24  2  0  0  0  0
 25 26  1  0  0  0  0
 26 27  2  0  0  0  0
 27 28  1  0  0  0  0
 27 55  1  0  0  0  0
 28 56  1  0  0  0  0
 29 57  1  0  0  0  0
 29 28  2  0  0  0  0
 30 35  1  0  0  0  0
 31 32  1  0  0  0  0
 31 30  2  0  0  0  0
 32 33  2  0  0  0  0
 33 60  1  0  0  0  0
 33 34  1  0  0  0  0
 34 61  1  0  0  0  0
 35 34  2  0  0  0  0
 35 62  1  0  0  0  0
 36 41  1  0  0  0  0
 37 36  2  0  0  0  0
 37 38  1  0  0  0  0
 38 39  2  0  0  0  0
 39 40  1  0  0  0  0
 39 65  1  0  0  0  0
 40 66  1  0  0  0  0
 41 67  1  0  0  0  0
 41 40  2  0  0  0  0
 44  8  1  0  0  0  0
 45  9  1  0  0  0  0
 46 13  1  0  0  0  0
 47 14  1  0  0  0  0
 48 15  1  0  0  0  0
 49 19  1  0  0  0  0
 50 20  1  0  0  0  0
 53 25  1  0  0  0  0
 54 26  1  0  0  0  0
 58 31  1  0  0  0  0
 59 32  1  0  0  0  0
 63 37  1  0  0  0  0
 64 38  1  0  0  0  0
M  END
$$$$
