CSD_code = JIXFEC | q = 0 | S = 0 | Stoichiometry = C9H6AuClN3PS3 | MND = 2
 OpenBabel04212202053D

 24 26  0  0  0  0  0  0  0  0999 V2000
    0.8681    5.0246   16.6656 Au  0  0  0  0  0  0  0  0  0  0  0  0
    1.5290    3.6484   18.3154 Cl  0  0  0  0  0  0  0  0  0  0  0  0
    3.0577    7.8012   14.8127 S   0  0  0  0  0  0  0  0  0  0  0  0
    0.1671    9.2584   16.4024 S   0  0  0  0  0  0  0  0  0  0  0  0
   -1.6181    6.7496   12.5345 S   0  0  0  0  0  0  0  0  0  0  0  0
    0.2642    6.4366   15.0410 P   0  0  0  0  0  4  0  0  0  0  0  0
    1.6567    7.0543   12.7921 N   0  0  0  0  0  0  0  0  0  0  0  0
   -1.8831    8.0020   15.4970 N   0  0  0  0  0  0  0  0  0  0  0  0
   -1.0377    4.5435   13.7146 N   0  0  0  0  0  0  0  0  0  0  0  0
    1.6225    7.1181   14.0818 C   0  0  0  0  0  0  0  0  0  0  0  0
    3.6811    8.0191   13.2300 C   0  0  0  0  0  0  0  0  0  0  0  0
    4.6438    8.4639   13.0810 H   0  0  0  0  0  0  0  0  0  0  0  0
    2.8011    7.5610   12.2969 C   0  0  0  0  0  0  0  0  0  0  0  0
    2.9466    7.5760   11.2322 H   0  0  0  0  0  0  0  0  0  0  0  0
   -0.5962    7.9202   15.5698 C   0  0  0  0  0  0  0  0  0  0  0  0
   -1.3939    9.9389   16.6049 C   0  0  0  0  0  0  0  0  0  0  0  0
   -1.5148   10.8812   17.0990 H   0  0  0  0  0  0  0  0  0  0  0  0
   -2.3470    9.1317   16.0625 C   0  0  0  0  0  0  0  0  0  0  0  0
   -3.4038    9.3257   16.0502 H   0  0  0  0  0  0  0  0  0  0  0  0
   -0.8147    5.8146   13.7709 C   0  0  0  0  0  0  0  0  0  0  0  0
   -2.2707    5.2824   11.9429 C   0  0  0  0  0  0  0  0  0  0  0  0
   -2.9189    5.2785   11.0899 H   0  0  0  0  0  0  0  0  0  0  0  0
   -1.8522    4.2243   12.6949 C   0  0  0  0  0  0  0  0  0  0  0  0
   -2.1177    3.1949   12.5383 H   0  0  0  0  0  0  0  0  0  0  0  0
  1  2  1  0  0  0  0
  4 16  1  0  0  0  0
  5 20  1  0  0  0  0
  6 15  1  0  0  0  0
  6  1  1  0  0  0  0
  7 10  2  0  0  0  0
  8 15  2  0  0  0  0
  8 18  1  0  0  0  0
  9 20  2  0  0  0  0
 10  3  1  0  0  0  0
 10  6  1  0  0  0  0
 11  3  1  0  0  0  0
 12 11  1  0  0  0  0
 13  7  1  0  0  0  0
 13 11  2  0  0  0  0
 14 13  1  0  0  0  0
 15  4  1  0  0  0  0
 16 17  1  0  0  0  0
 18 16  2  0  0  0  0
 19 18  1  0  0  0  0
 20  6  1  0  0  0  0
 21  5  1  0  0  0  0
 21 23  2  0  0  0  0
 22 21  1  0  0  0  0
 23  9  1  0  0  0  0
 24 23  1  0  0  0  0
M  END
$$$$
