CSD_code = JIYKIM | q = 0 | S = 0 | Stoichiometry = C19H26Cl3NNiP2 | MND = 5
 OpenBabel04212202053D

 52 54  0  0  0  0  0  0  0  0999 V2000
    7.7230   10.4840    1.3130 Ni  0  0  0  0  0  0  0  0  0  0  0  0
    9.8143   10.6739    1.6887 Cl  0  0  0  0  0  0  0  0  0  0  0  0
    7.5352    7.6019   -2.5396 Cl  0  0  0  0  0  0  0  0  0  0  0  0
    3.5095    9.9571   -2.1359 Cl  0  0  0  0  0  0  0  0  0  0  0  0
    7.9141    8.4002    1.8629 P   0  0  0  0  0  4  0  0  0  0  0  0
    7.5957   12.6107    1.6810 P   0  0  0  0  0  4  0  0  0  0  0  0
    7.6843   10.1791   -0.9175 N   0  0  0  0  0  0  0  0  0  0  0  0
    5.8782   10.3345    1.1100 C   0  0  0  0  0  0  0  0  0  0  0  0
    4.9196   10.3649    2.1199 C   0  0  0  0  0  0  0  0  0  0  0  0
    3.5704   10.2724    1.8260 C   0  0  0  0  0  0  0  0  0  0  0  0
    3.1379   10.1523    0.5133 C   0  0  0  0  0  0  0  0  0  0  0  0
    4.0722   10.1154   -0.5017 C   0  0  0  0  0  0  0  0  0  0  0  0
    5.4421   10.1971   -0.2284 C   0  0  0  0  0  0  0  0  0  0  0  0
    6.4500   10.1060   -1.2544 C   0  0  0  0  0  3  0  0  0  0  0  0
    8.7178    9.9519   -1.8076 C   0  0  0  0  0  0  0  0  0  0  0  0
    8.7911    8.8061   -2.6090 C   0  0  0  0  0  0  0  0  0  0  0  0
    9.8893    8.5683   -3.4155 C   0  0  0  0  0  0  0  0  0  0  0  0
   10.9302    9.4793   -3.4509 C   0  0  0  0  0  0  0  0  0  0  0  0
   10.8833   10.6116   -2.6529 C   0  0  0  0  0  0  0  0  0  0  0  0
    9.7974   10.8373   -1.8342 C   0  0  0  0  0  0  0  0  0  0  0  0
    8.3536    8.1590    3.6235 C   0  0  0  0  0  0  0  0  0  0  0  0
    9.2464    7.4753    1.0203 C   0  0  0  0  0  0  0  0  0  0  0  0
    6.5223    7.2196    1.6706 C   0  0  0  0  0  0  0  0  0  0  0  0
    6.0311   13.5491    1.4629 C   0  0  0  0  0  0  0  0  0  0  0  0
    8.0136   13.0250    3.4141 C   0  0  0  0  0  0  0  0  0  0  0  0
    8.7497   13.6953    0.7647 C   0  0  0  0  0  0  0  0  0  0  0  0
    6.1372    9.9887   -2.2916 H   0  0  0  0  0  0  0  0  0  0  0  0
    6.1807   14.5988    1.7118 H   0  0  0  0  0  0  0  0  0  0  0  0
    5.2273   10.4596    3.1545 H   0  0  0  0  0  0  0  0  0  0  0  0
    5.7027   13.4651    0.4285 H   0  0  0  0  0  0  0  0  0  0  0  0
   11.7032   11.3134   -2.6599 H   0  0  0  0  0  0  0  0  0  0  0  0
    9.7630   13.3185    0.8888 H   0  0  0  0  0  0  0  0  0  0  0  0
    9.0168   12.6584    3.6246 H   0  0  0  0  0  0  0  0  0  0  0  0
    9.7592   11.6961   -1.1832 H   0  0  0  0  0  0  0  0  0  0  0  0
    2.0861   10.0848    0.2837 H   0  0  0  0  0  0  0  0  0  0  0  0
    2.8403   10.2955    2.6229 H   0  0  0  0  0  0  0  0  0  0  0  0
    9.3437    6.4848    1.4644 H   0  0  0  0  0  0  0  0  0  0  0  0
    9.9236    7.6699   -4.0124 H   0  0  0  0  0  0  0  0  0  0  0  0
    7.9699   14.1037    3.5612 H   0  0  0  0  0  0  0  0  0  0  0  0
    5.2566   13.1303    2.1015 H   0  0  0  0  0  0  0  0  0  0  0  0
    8.4864   13.6895   -0.2920 H   0  0  0  0  0  0  0  0  0  0  0  0
   11.7806    9.2934   -4.0885 H   0  0  0  0  0  0  0  0  0  0  0  0
    8.6816   14.7122    1.1503 H   0  0  0  0  0  0  0  0  0  0  0  0
    7.3094   12.5349    4.0846 H   0  0  0  0  0  0  0  0  0  0  0  0
    6.2305    7.1837    0.6226 H   0  0  0  0  0  0  0  0  0  0  0  0
   10.1814    8.0234    1.1164 H   0  0  0  0  0  0  0  0  0  0  0  0
    9.0021    7.3796   -0.0357 H   0  0  0  0  0  0  0  0  0  0  0  0
    7.5580    8.5525    4.2544 H   0  0  0  0  0  0  0  0  0  0  0  0
    9.2723    8.7058    3.8289 H   0  0  0  0  0  0  0  0  0  0  0  0
    8.4964    7.0991    3.8316 H   0  0  0  0  0  0  0  0  0  0  0  0
    6.8216    6.2244    1.9968 H   0  0  0  0  0  0  0  0  0  0  0  0
    5.6669    7.5541    2.2539 H   0  0  0  0  0  0  0  0  0  0  0  0
  1  6  1  0  0  0  0
  1  2  1  0  0  0  0
  1  5  1  0  0  0  0
  4 12  1  0  0  0  0
  5 21  1  0  0  0  0
  6 25  1  0  0  0  0
  7  1  1  0  0  0  0
  8  1  1  0  0  0  0
  8  9  1  0  0  0  0
  9 29  1  0  0  0  0
 10  9  2  0  0  0  0
 10 36  1  0  0  0  0
 11 10  1  0  0  0  0
 12 13  1  0  0  0  0
 12 11  2  0  0  0  0
 13  8  2  0  0  0  0
 14  7  1  0  0  0  0
 14 13  1  0  0  0  0
 15  7  1  0  0  0  0
 16  3  1  0  0  0  0
 16 15  2  0  0  0  0
 17 16  1  0  0  0  0
 18 17  2  0  0  0  0
 18 19  1  0  0  0  0
 19 20  2  0  0  0  0
 20 15  1  0  0  0  0
 20 34  1  0  0  0  0
 21 49  1  0  0  0  0
 21 50  1  0  0  0  0
 21 48  1  0  0  0  0
 22 46  1  0  0  0  0
 22 37  1  0  0  0  0
 22  5  1  0  0  0  0
 23  5  1  0  0  0  0
 23 51  1  0  0  0  0
 23 52  1  0  0  0  0
 24  6  1  0  0  0  0
 24 28  1  0  0  0  0
 24 40  1  0  0  0  0
 25 39  1  0  0  0  0
 25 33  1  0  0  0  0
 25 44  1  0  0  0  0
 26 32  1  0  0  0  0
 26 43  1  0  0  0  0
 26  6  1  0  0  0  0
 27 14  1  0  0  0  0
 30 24  1  0  0  0  0
 31 19  1  0  0  0  0
 35 11  1  0  0  0  0
 38 17  1  0  0  0  0
 41 26  1  0  0  0  0
 42 18  1  0  0  0  0
 45 23  1  0  0  0  0
 47 22  1  0  0  0  0
M  END
$$$$
