CSD_code = JIYWOD | q = -1 | S = 0 | Stoichiometry = C3H9Cl3NPt(1-) | MND = 4
 OpenBabel04212202053D

 17 16  0  0  0  0  0  0  0  0999 V2000
    2.3724    4.5272   11.0522 Pt  0  0  0  0  0  0  0  0  0  0  0  0
    1.9573    2.8058   12.5375 Cl  0  0  0  0  0  0  0  0  0  0  0  0
    0.5766    4.0312    9.7757 Cl  0  0  0  0  0  0  0  0  0  0  0  0
    3.0466    6.3064    9.7111 Cl  0  0  0  0  0  0  0  0  0  0  0  0
    4.0835    5.0284   12.2158 N   0  0  0  0  0  4  0  0  0  0  0  0
    3.8263    5.4593   13.5894 C   0  0  0  0  0  0  0  0  0  0  0  0
    5.1239    5.8819   14.2825 C   0  0  0  0  0  0  0  0  0  0  0  0
    2.8158    6.5998   13.5587 C   0  0  0  0  0  0  0  0  0  0  0  0
    4.7196    4.2321   12.2046 H   0  0  0  0  0  0  0  0  0  0  0  0
    4.4850    5.7933   11.6646 H   0  0  0  0  0  0  0  0  0  0  0  0
    3.3866    4.6038   14.1155 H   0  0  0  0  0  0  0  0  0  0  0  0
    4.9242    6.1827   15.3080 H   0  0  0  0  0  0  0  0  0  0  0  0
    5.8380    5.0599   14.3009 H   0  0  0  0  0  0  0  0  0  0  0  0
    5.5751    6.7237   13.7582 H   0  0  0  0  0  0  0  0  0  0  0  0
    2.5281    6.8915   14.5658 H   0  0  0  0  0  0  0  0  0  0  0  0
    1.9263    6.2673   13.0177 H   0  0  0  0  0  0  0  0  0  0  0  0
    3.2297    7.4620   13.0389 H   0  0  0  0  0  0  0  0  0  0  0  0
  1  5  1  0  0  0  0
  1  2  1  0  0  0  0
  3  1  1  0  0  0  0
  4  1  1  0  0  0  0
  5  6  1  0  0  0  0
  6 11  1  0  0  0  0
  6  7  1  0  0  0  0
  7 13  1  0  0  0  0
  7 12  1  0  0  0  0
  8  6  1  0  0  0  0
  8 15  1  0  0  0  0
  9  5  1  0  0  0  0
 10  5  1  0  0  0  0
 14  7  1  0  0  0  0
 16  8  1  0  0  0  0
 17  8  1  0  0  0  0
M  END
$$$$
