CSD_code = JIYZEX | q = -1 | S = 0 | Stoichiometry = C26H15BrMoN4PS4(1-) | MND = 6
 OpenBabel04212202053D

 52 56  0  0  0  0  0  0  0  0999 V2000
    3.9797    1.6242    8.0191 Mo  0  0  0  0  0  0  0  0  0  0  0  0
    5.6123   -0.4408    8.1537 Br  0  0  0  0  0  0  0  0  0  0  0  0
    3.5056    3.5224    9.3716 S   0  0  0  0  0  0  0  0  0  0  0  0
    2.8645    0.4550    9.7703 S   0  0  0  0  0  0  0  0  0  0  0  0
    2.7105    0.1668    6.6221 S   0  0  0  0  0  0  0  0  0  0  0  0
    3.6249    3.1628    6.2365 S   0  0  0  0  0  0  0  0  0  0  0  0
    6.1505    2.6489    7.8829 P   0  0  0  0  0  4  0  0  0  0  0  0
    2.0845    4.7442   12.5099 N   0  0  0  0  0  0  0  0  0  0  0  0
    1.1936    0.7199   13.0132 N   0  0  0  0  0  0  0  0  0  0  0  0
    2.3311    3.6566    2.8539 N   0  0  0  0  0  0  0  0  0  0  0  0
    0.9614   -0.2271    3.4348 N   0  0  0  0  0  0  0  0  0  0  0  0
    2.6837    2.9558   10.7951 C   0  0  0  0  0  0  0  0  0  0  0  0
    2.3400    3.9262   11.7436 C   0  0  0  0  0  0  0  0  0  0  0  0
    2.4053    1.6249   10.9584 C   0  0  0  0  0  0  0  0  0  0  0  0
    1.7361    1.1402   12.0918 C   0  0  0  0  0  0  0  0  0  0  0  0
    2.7550    2.3251    4.9854 C   0  0  0  0  0  0  0  0  0  0  0  0
    2.5037    3.0438    3.8112 C   0  0  0  0  0  0  0  0  0  0  0  0
    2.3336    1.0363    5.1757 C   0  0  0  0  0  0  0  0  0  0  0  0
    1.5796    0.3516    4.2110 C   0  0  0  0  0  0  0  0  0  0  0  0
    7.2633    2.1027    9.2173 C   0  0  0  0  0  0  0  0  0  0  0  0
    6.6748    1.9016   10.4652 C   0  0  0  0  0  0  0  0  0  0  0  0
    5.6021    2.0473   10.5859 H   0  0  0  0  0  0  0  0  0  0  0  0
    7.4374    1.4905   11.5405 C   0  0  0  0  0  0  0  0  0  0  0  0
    6.9713    1.3338   12.5023 H   0  0  0  0  0  0  0  0  0  0  0  0
    8.7949    1.2652   11.3758 C   0  0  0  0  0  0  0  0  0  0  0  0
    9.3920    0.9347   12.2131 H   0  0  0  0  0  0  0  0  0  0  0  0
    9.3797    1.4440   10.1343 C   0  0  0  0  0  0  0  0  0  0  0  0
   10.4339    1.2479   10.0000 H   0  0  0  0  0  0  0  0  0  0  0  0
    8.6210    1.8620    9.0545 C   0  0  0  0  0  0  0  0  0  0  0  0
    9.0814    1.9718    8.0838 H   0  0  0  0  0  0  0  0  0  0  0  0
    6.2548    4.4608    8.0246 C   0  0  0  0  0  0  0  0  0  0  0  0
    6.4111    5.0655    9.2687 C   0  0  0  0  0  0  0  0  0  0  0  0
    6.5681    4.4568   10.1493 H   0  0  0  0  0  0  0  0  0  0  0  0
    6.3588    6.4422    9.3830 C   0  0  0  0  0  0  0  0  0  0  0  0
    6.4760    6.9029   10.3533 H   0  0  0  0  0  0  0  0  0  0  0  0
    6.1422    7.2258    8.2619 C   0  0  0  0  0  0  0  0  0  0  0  0
    6.0908    8.3010    8.3557 H   0  0  0  0  0  0  0  0  0  0  0  0
    5.9826    6.6293    7.0219 C   0  0  0  0  0  0  0  0  0  0  0  0
    5.8053    7.2363    6.1458 H   0  0  0  0  0  0  0  0  0  0  0  0
    6.0362    5.2538    6.9003 C   0  0  0  0  0  0  0  0  0  0  0  0
    5.9032    4.7906    5.9319 H   0  0  0  0  0  0  0  0  0  0  0  0
    7.0392    2.3683    6.3262 C   0  0  0  0  0  0  0  0  0  0  0  0
    8.1917    3.0995    6.0403 C   0  0  0  0  0  0  0  0  0  0  0  0
    8.5571    3.8258    6.7553 H   0  0  0  0  0  0  0  0  0  0  0  0
    8.8468    2.9163    4.8376 C   0  0  0  0  0  0  0  0  0  0  0  0
    9.7407    3.4844    4.6217 H   0  0  0  0  0  0  0  0  0  0  0  0
    8.3535    2.0154    3.9069 C   0  0  0  0  0  0  0  0  0  0  0  0
    8.8650    1.8788    2.9651 H   0  0  0  0  0  0  0  0  0  0  0  0
    7.1990    1.3012    4.1782 C   0  0  0  0  0  0  0  0  0  0  0  0
    6.8046    0.6087    3.4496 H   0  0  0  0  0  0  0  0  0  0  0  0
    6.5416    1.4764    5.3830 C   0  0  0  0  0  0  0  0  0  0  0  0
    5.6322    0.9161    5.5830 H   0  0  0  0  0  0  0  0  0  0  0  0
  1  2  1  0  0  0  0
  1  3  1  0  0  0  0
  1  4  1  0  0  0  0
  3 12  1  0  0  0  0
  4 14  1  0  0  0  0
  5  1  1  0  0  0  0
  6  1  1  0  0  0  0
  7  1  1  0  0  0  0
  7 31  1  0  0  0  0
  7 20  1  0  0  0  0
 10 17  3  0  0  0  0
 11 19  3  0  0  0  0
 12 14  2  0  0  0  0
 12 13  1  0  0  0  0
 13  8  3  0  0  0  0
 14 15  1  0  0  0  0
 15  9  3  0  0  0  0
 16 18  2  0  0  0  0
 16  6  1  0  0  0  0
 17 16  1  0  0  0  0
 18  5  1  0  0  0  0
 19 18  1  0  0  0  0
 20 21  1  0  0  0  0
 21 22  1  0  0  0  0
 21 23  2  0  0  0  0
 23 24  1  0  0  0  0
 25 23  1  0  0  0  0
 25 26  1  0  0  0  0
 27 25  2  0  0  0  0
 28 27  1  0  0  0  0
 29 20  2  0  0  0  0
 29 27  1  0  0  0  0
 30 29  1  0  0  0  0
 31 32  1  0  0  0  0
 32 34  2  0  0  0  0
 32 33  1  0  0  0  0
 34 35  1  0  0  0  0
 36 37  1  0  0  0  0
 36 34  1  0  0  0  0
 38 36  2  0  0  0  0
 39 38  1  0  0  0  0
 40 38  1  0  0  0  0
 40 31  2  0  0  0  0
 41 40  1  0  0  0  0
 42  7  1  0  0  0  0
 43 42  1  0  0  0  0
 43 44  1  0  0  0  0
 45 43  2  0  0  0  0
 46 45  1  0  0  0  0
 47 49  2  0  0  0  0
 47 45  1  0  0  0  0
 48 47  1  0  0  0  0
 49 51  1  0  0  0  0
 50 49  1  0  0  0  0
 51 52  1  0  0  0  0
 51 42  2  0  0  0  0
M  END
$$$$
