CSD_code = JIZWEV | q = 0 | S = 0 | Stoichiometry = C25H31ClNPPd | MND = 5
 OpenBabel04212202053D

 60 60  0  0  0  0  0  0  0  0999 V2000
    7.1942    7.1948    2.5659 Pd  0  0  0  0  0  0  0  0  0  0  0  0
    5.0543    7.1060    3.3260 P   0  0  0  0  0  0  0  0  0  0  0  0
    7.6023    9.0440    3.8703 Cl  0  0  0  0  0 15  0  0  0  0  0  0
    7.8727    6.5719    6.5779 N   0  0  0  0  0  0  0  0  0  0  0  0
    4.1316    8.3384    2.3507 C   0  0  0  0  0  0  0  0  0  0  0  0
    9.1831    6.0529    6.2839 C   0  0  0  0  0  0  0  0  0  0  0  0
    5.6910    7.2696    6.0130 C   0  0  0  0  0  0  0  0  0  0  0  0
    6.9147    6.5469    5.7648 C   0  0  0  0  0  0  0  0  0  0  0  0
    6.9236    6.0083    4.7851 H   0  0  0  0  0  0  0  0  0  0  0  0
    2.7429    8.4307    2.3693 C   0  0  0  0  0  0  0  0  0  0  0  0
    2.1661    7.7518    2.9820 H   0  0  0  0  0  0  0  0  0  0  0  0
    5.3333    7.9172    7.3164 C   0  0  0  0  0  0  0  0  0  0  0  0
    6.0039    8.7643    7.4711 H   0  0  0  0  0  0  0  0  0  0  0  0
    5.4546    7.2382    8.1592 H   0  0  0  0  0  0  0  0  0  0  0  0
    2.1037    9.3760    1.5891 C   0  0  0  0  0  0  0  0  0  0  0  0
    1.0259    9.4478    1.6074 H   0  0  0  0  0  0  0  0  0  0  0  0
    4.7974    7.5685    5.0518 C   0  0  0  0  0  0  0  0  0  0  0  0
    3.7002    8.4541    5.5774 C   0  0  0  0  0  0  0  0  0  0  0  0
    2.7079    8.1319    5.2592 H   0  0  0  0  0  0  0  0  0  0  0  0
    3.8546    9.4731    5.2120 H   0  0  0  0  0  0  0  0  0  0  0  0
    3.5911    5.2635    1.8595 C   0  0  0  0  0  0  0  0  0  0  0  0
    3.8937    5.8687    1.0142 H   0  0  0  0  0  0  0  0  0  0  0  0
    3.9871    5.6380    3.1409 C   0  0  0  0  0  0  0  0  0  0  0  0
    3.6168    4.8571    4.2290 C   0  0  0  0  0  0  0  0  0  0  0  0
    3.9368    5.1398    5.2226 H   0  0  0  0  0  0  0  0  0  0  0  0
    4.2222   10.1280    0.7445 C   0  0  0  0  0  0  0  0  0  0  0  0
    4.7951   10.7867    0.1085 H   0  0  0  0  0  0  0  0  0  0  0  0
    4.8674    9.1829    1.5226 C   0  0  0  0  0  0  0  0  0  0  0  0
    5.9610    9.1047    1.5041 H   0  0  0  0  0  0  0  0  0  0  0  0
    2.4354    3.3681    2.7631 C   0  0  0  0  0  0  0  0  0  0  0  0
    1.8276    2.4875    2.6171 H   0  0  0  0  0  0  0  0  0  0  0  0
    3.8798    8.3667    7.1028 C   0  0  0  0  0  0  0  0  0  0  0  0
    3.1997    7.6144    7.5066 H   0  0  0  0  0  0  0  0  0  0  0  0
    3.6646    9.3141    7.5925 H   0  0  0  0  0  0  0  0  0  0  0  0
    2.8411   10.2276    0.7812 C   0  0  0  0  0  0  0  0  0  0  0  0
    2.3365   10.9653    0.1748 H   0  0  0  0  0  0  0  0  0  0  0  0
    2.8398    3.7278    4.0377 C   0  0  0  0  0  0  0  0  0  0  0  0
    2.5488    3.1265    4.8867 H   0  0  0  0  0  0  0  0  0  0  0  0
    2.8144    4.1368    1.6729 C   0  0  0  0  0  0  0  0  0  0  0  0
    2.5036    3.8541    0.6776 H   0  0  0  0  0  0  0  0  0  0  0  0
    9.3803    5.5390    4.8518 C   0  0  0  0  0  0  0  0  0  0  0  0
    8.7764    4.6505    4.6602 H   0  0  0  0  0  0  0  0  0  0  0  0
   10.4257    5.2822    4.7004 H   0  0  0  0  0  0  0  0  0  0  0  0
    9.1111    6.3368    4.1404 H   0  0  0  0  0  0  0  0  0  0  0  0
    7.0992    5.8048    0.9784 C   0  0  0  0  0  3  0  0  0  0  0  0
    6.7028    4.7975    1.0512 H   0  0  0  0  0  0  0  0  0  0  0  0
    6.6557    6.4079    0.1825 H   0  0  0  0  0  0  0  0  0  0  0  0
   10.1250    7.2421    6.5220 C   0  0  0  0  0  0  0  0  0  0  0  0
    9.9883    7.6245    7.5292 H   0  0  0  0  0  0  0  0  0  0  0  0
    9.8866    8.0367    5.8183 H   0  0  0  0  0  0  0  0  0  0  0  0
   11.1613    6.9415    6.3888 H   0  0  0  0  0  0  0  0  0  0  0  0
    9.4705    4.9401    7.2990 C   0  0  0  0  0  0  0  0  0  0  0  0
    8.8143    4.0896    7.1242 H   0  0  0  0  0  0  0  0  0  0  0  0
    9.2965    5.3093    8.3059 H   0  0  0  0  0  0  0  0  0  0  0  0
   10.5031    4.6114    7.2144 H   0  0  0  0  0  0  0  0  0  0  0  0
    8.9371    7.3388    1.3456 C   0  0  0  0  0  3  0  0  0  0  0  0
    8.5806    8.0563    0.5997 H   0  0  0  0  0  0  0  0  0  0  0  0
    9.9463    7.5203    1.7010 H   0  0  0  0  0  0  0  0  0  0  0  0
    8.4419    6.0285    1.3295 C   0  0  0  0  0  0  0  0  0  0  0  0
    9.0165    5.2257    1.7912 H   0  0  0  0  0  0  0  0  0  0  0  0
  2 17  1  0  0  0  0
  5 10  1  0  0  0  0
  5  2  1  0  0  0  0
  6 48  1  0  0  0  0
  6  4  1  0  0  0  0
  6 52  1  0  0  0  0
  7 12  1  0  0  0  0
  8  7  1  0  0  0  0
  8  4  2  0  0  0  0
  9  8  1  0  0  0  0
 10 11  1  0  0  0  0
 12 13  1  0  0  0  0
 12 14  1  0  0  0  0
 15 16  1  0  0  0  0
 15 10  2  0  0  0  0
 17 18  1  0  0  0  0
 17  7  2  0  0  0  0
 18 32  1  0  0  0  0
 19 18  1  0  0  0  0
 20 18  1  0  0  0  0
 21 23  1  0  0  0  0
 22 21  1  0  0  0  0
 23  2  1  0  0  0  0
 23 24  2  0  0  0  0
 24 25  1  0  0  0  0
 26 35  2  0  0  0  0
 26 28  1  0  0  0  0
 27 26  1  0  0  0  0
 28  5  2  0  0  0  0
 29 28  1  0  0  0  0
 30 37  2  0  0  0  0
 31 30  1  0  0  0  0
 32 12  1  0  0  0  0
 32 33  1  0  0  0  0
 32 34  1  0  0  0  0
 35 15  1  0  0  0  0
 36 35  1  0  0  0  0
 37 24  1  0  0  0  0
 37 38  1  0  0  0  0
 39 21  2  0  0  0  0
 39 30  1  0  0  0  0
 40 39  1  0  0  0  0
 41  6  1  0  0  0  0
 42 41  1  0  0  0  0
 43 41  1  0  0  0  0
 44 41  1  0  0  0  0
 45 46  1  0  0  0  0
 45 59  1  0  0  0  0
 47 45  1  0  0  0  0
 48 49  1  0  0  0  0
 50 48  1  0  0  0  0
 51 48  1  0  0  0  0
 52 54  1  0  0  0  0
 53 52  1  0  0  0  0
 55 52  1  0  0  0  0
 56 58  1  0  0  0  0
 57 56  1  0  0  0  0
 59 56  1  0  0  0  0
 59 60  1  0  0  0  0
 59  1  1  0  0  0  0
M  END
$$$$
