CSD_code = JOBJOB | q = 0 | S = 0 | Stoichiometry = C14H17ClO4PdS2 | MND = 4
 OpenBabel04212202053D

 39 41  0  0  0  0  0  0  0  0999 V2000
    0.5904    2.9832   -0.1720 C   0  0  0  0  0  0  0  0  0  0  0  0
   -0.5532    2.6865    0.5755 C   0  0  0  0  0  0  0  0  0  0  0  0
   -1.8117    2.7580   -0.0094 C   0  0  0  0  0  0  0  0  0  0  0  0
   -2.6880    2.5238    0.5773 H   0  0  0  0  0  0  0  0  0  0  0  0
   -1.9389    3.1202   -1.3389 C   0  0  0  0  0  0  0  0  0  0  0  0
   -2.9175    3.1694   -1.7915 H   0  0  0  0  0  0  0  0  0  0  0  0
   -0.8155    3.4134   -2.0919 C   0  0  0  0  0  0  0  0  0  0  0  0
   -0.9141    3.6921   -3.1308 H   0  0  0  0  0  0  0  0  0  0  0  0
    0.4471    3.3422   -1.5157 C   0  0  0  0  0  0  0  0  0  0  0  0
   -0.4057    2.3178    2.0231 C   0  0  0  0  0  0  0  0  0  0  0  0
   -1.0472    1.4842    2.3147 H   0  0  0  0  0  0  0  0  0  0  0  0
   -0.6282    3.1732    2.6659 H   0  0  0  0  0  0  0  0  0  0  0  0
    1.6715    3.6749   -2.3178 C   0  0  0  0  0  0  0  0  0  0  0  0
    1.8031    4.7570   -2.3956 H   0  0  0  0  0  0  0  0  0  0  0  0
    1.6471    3.2515   -3.3237 H   0  0  0  0  0  0  0  0  0  0  0  0
    1.3417    0.1193    1.8177 C   0  0  0  0  0  0  0  0  0  0  0  0
    0.8864    0.0999    0.8212 H   0  0  0  0  0  0  0  0  0  0  0  0
    2.3943   -0.1785    1.8011 H   0  0  0  0  0  0  0  0  0  0  0  0
    0.5435   -0.7133    2.7906 C   0  0  0  0  0  0  0  0  0  0  0  0
    2.3962    2.5133    0.5457 Pd  0  0  2  0  0  0  0  0  0  0  0  0
    1.3205    1.8532    2.4422 S   0  0  1  0  0  3  0  0  0  0  0  0
    3.2057    3.0731   -1.5086 S   0  0  1  0  0  3  0  0  0  0  0  0
   -0.6610   -0.7583    2.8077 O   0  0  0  0  0  0  0  0  0  0  0  0
    1.3337   -1.3458    3.6486 O   0  0  0  0  0  0  0  0  0  0  0  0
    2.7687    1.4754   -4.3503 O   0  0  0  0  0  0  0  0  0  0  0  0
    4.7838    0.8424   -3.5877 O   0  0  0  0  0  0  0  0  0  0  0  0
    4.4289    1.6307    1.2427 Cl  0  0  0  0  0  0  0  0  0  0  0  0
    0.6946   -2.1076    4.6661 C   0  0  0  0  0  0  0  0  0  0  0  0
    0.2147   -1.4428    5.3868 H   0  0  0  0  0  0  0  0  0  0  0  0
    1.4769   -2.6879    5.1474 H   0  0  0  0  0  0  0  0  0  0  0  0
   -0.0619   -2.7621    4.2292 H   0  0  0  0  0  0  0  0  0  0  0  0
    3.1359    1.2942   -1.9858 C   0  0  0  0  0  0  0  0  0  0  0  0
    3.8656    0.7846   -1.3491 H   0  0  0  0  0  0  0  0  0  0  0  0
    2.1151    0.9294   -1.8263 H   0  0  0  0  0  0  0  0  0  0  0  0
    3.5167    1.2079   -3.4438 C   0  0  0  0  0  0  0  0  0  0  0  0
    5.3039    0.7901   -4.9112 C   0  0  0  0  0  0  0  0  0  0  0  0
    4.5324    0.4541   -5.6064 H   0  0  0  0  0  0  0  0  0  0  0  0
    6.1371    0.0922   -4.8888 H   0  0  0  0  0  0  0  0  0  0  0  0
    5.6507    1.7811   -5.2096 H   0  0  0  0  0  0  0  0  0  0  0  0
  1 20  1  0  0  0  0
  1  2  1  0  0  0  0
  2 10  1  0  0  0  0
  3  2  2  0  0  0  0
  3  4  1  0  0  0  0
  5  3  1  0  0  0  0
  6  5  1  0  0  0  0
  7  9  1  0  0  0  0
  7  5  2  0  0  0  0
  8  7  1  0  0  0  0
  9  1  2  0  0  0  0
 10 11  1  0  0  0  0
 10 21  1  0  0  0  0
 10 12  1  0  0  0  0
 13  9  1  0  0  0  0
 13 22  1  0  0  0  0
 14 13  1  0  0  0  0
 15 13  1  0  0  0  0
 16 19  1  0  0  0  0
 17 16  1  0  0  0  0
 18 16  1  0  0  0  0
 19 23  2  0  0  0  0
 19 24  1  0  0  0  0
 20 27  1  6  0  0  0
 20 21  1  0  0  0  0
 21 16  1  6  0  0  0
 22 32  1  6  0  0  0
 22 20  1  0  0  0  0
 24 28  1  0  0  0  0
 25 35  2  0  0  0  0
 26 35  1  0  0  0  0
 28 30  1  0  0  0  0
 28 29  1  0  0  0  0
 31 28  1  0  0  0  0
 32 34  1  0  0  0  0
 32 33  1  0  0  0  0
 35 32  1  0  0  0  0
 36 38  1  0  0  0  0
 36 26  1  0  0  0  0
 37 36  1  0  0  0  0
 39 36  1  0  0  0  0
M  END
$$$$
