CSD_code = JOBPUN | q = 0 | S = 0 | Stoichiometry = C7H14Cl2N2Pt | MND = 4
 OpenBabel04212202053D

 26 28  0  0  1  0  0  0  0  0999 V2000
   12.0777    1.2469    8.8188 C   0  0  0  0  0  0  0  0  0  0  0  0
   11.3252    0.4983    8.5536 H   0  0  0  0  0  0  0  0  0  0  0  0
   13.0730    0.7936    8.7005 H   0  0  0  0  0  0  0  0  0  0  0  0
   11.9915    2.4514    7.8710 C   0  0  1  0  0  0  0  0  0  0  0  0
   12.1998    2.0931    6.8580 H   0  0  0  0  0  0  0  0  0  0  0  0
   10.6178    3.1361    7.8509 C   0  0  0  0  0  0  0  0  0  0  0  0
   10.6473    3.9320    7.0922 H   0  0  0  0  0  0  0  0  0  0  0  0
    9.8394    2.4209    7.5688 H   0  0  0  0  0  0  0  0  0  0  0  0
   11.3026    4.5986    9.6727 C   0  0  0  0  0  0  0  0  0  0  0  0
   11.0074    4.9158   10.6773 H   0  0  0  0  0  0  0  0  0  0  0  0
   11.3779    5.4924    9.0361 H   0  0  0  0  0  0  0  0  0  0  0  0
   12.6818    3.9255    9.7077 C   0  0  1  0  0  0  0  0  0  0  0  0
   13.4044    4.6664   10.0638 H   0  0  0  0  0  0  0  0  0  0  0  0
   12.7624    2.7088   10.6404 C   0  0  0  0  0  0  0  0  0  0  0  0
   13.8031    2.3526   10.6428 H   0  0  0  0  0  0  0  0  0  0  0  0
   12.4939    2.9930   11.6622 H   0  0  0  0  0  0  0  0  0  0  0  0
   13.0416    3.4784    8.2917 C   0  0  0  0  0  0  0  0  0  0  0  0
   13.0393    4.3301    7.6092 H   0  0  0  0  0  0  0  0  0  0  0  0
   14.0393    3.0363    8.2716 H   0  0  0  0  0  0  0  0  0  0  0  0
    9.6892    0.4677   11.9734 Cl  0  0  0  0  0  0  0  0  0  0  0  0
    7.7735    2.9528   10.7081 Cl  0  0  0  0  0  0  0  0  0  0  0  0
   11.8603    1.6408   10.2104 N   0  0  1  0  0  4  0  0  0  0  0  0
   11.9612    0.8277   10.8246 H   0  0  0  0  0  0  0  0  0  0  0  0
   10.2748    3.6933    9.1591 N   0  0  2  0  0  4  0  0  0  0  0  0
    9.3750    4.1791    9.1078 H   0  0  0  0  0  0  0  0  0  0  0  0
    9.8845    2.1828   10.5223 Pt  0  0  0  0  0  0  0  0  0  0  0  0
  1 22  1  0  0  0  0
  2  1  1  0  0  0  0
  3  1  1  0  0  0  0
  4  5  1  6  0  0  0
  4 17  1  0  0  0  0
  4  1  1  0  0  0  0
  6  4  1  0  0  0  0
  6 24  1  0  0  0  0
  7  6  1  0  0  0  0
  8  6  1  0  0  0  0
  9 12  1  0  0  0  0
  9 10  1  0  0  0  0
 11  9  1  0  0  0  0
 12 13  1  1  0  0  0
 12 14  1  0  0  0  0
 14 15  1  0  0  0  0
 14 16  1  0  0  0  0
 17 12  1  0  0  0  0
 18 17  1  0  0  0  0
 19 17  1  0  0  0  0
 22 26  1  0  0  0  0
 22 14  1  0  0  0  0
 22 23  1  1  0  0  0
 24 25  1  6  0  0  0
 24  9  1  0  0  0  0
 24 26  1  0  0  0  0
 26 21  1  0  0  0  0
 26 20  1  0  0  0  0
M  END
$$$$
