CSD_code = JOCFAI | q = 0 | S = 0 | Stoichiometry = C26H34Cl2Ti | MND = 12
 OpenBabel04212202053D

 63 68  0  0  1  0  0  0  0  0999 V2000
    6.0514    6.5175   12.5682 Ti  0  0  0  0  0  0  0  0  0  0  0  0
    4.0823    7.2200   13.3172 Cl  0  0  0  0  0  0  0  0  0  0  0  0
    5.0426    5.0403   11.2778 Cl  0  0  0  0  0  0  0  0  0  0  0  0
    5.8474   10.1000   12.6444 C   0  0  2  0  0  0  0  0  0  0  0  0
    6.2693    8.8186   12.0084 C   0  0  1  0  0  3  0  0  0  0  0  0
    5.8842    8.0895   10.8629 C   0  0  0  0  0  3  0  0  0  0  0  0
    6.9517    7.2100   10.5472 C   0  0  1  0  0  0  0  0  0  0  0  0
    7.9807    7.3849   11.5004 C   0  0  0  0  0  3  0  0  0  0  0  0
    7.5576    8.3900   12.4107 C   0  0  1  0  0  3  0  0  0  0  0  0
    8.3056    9.4338   13.1919 C   0  0  1  0  0  0  0  0  0  0  0  0
    8.2752   10.6585   12.2451 C   0  0  0  0  0  0  0  0  0  0  0  0
    6.8279   11.1766   12.1055 C   0  0  1  0  0  0  0  0  0  0  0  0
    7.5711    9.8893   14.4686 C   0  0  1  0  0  0  0  0  0  0  0  0
    6.0654    9.9692   14.1619 C   0  0  0  0  0  0  0  0  0  0  0  0
    6.5057   11.5382   10.6594 C   0  0  0  0  0  0  0  0  0  0  0  0
    7.8765    9.0254   15.6860 C   0  0  0  0  0  0  0  0  0  0  0  0
    8.8796    3.5238   12.9431 C   0  0  2  0  0  0  0  0  0  0  0  0
    7.7920    4.4060   13.4524 C   0  0  0  0  0  0  0  0  0  0  0  0
    7.7085    5.6996   13.9957 C   0  0  0  0  0  0  0  0  0  0  0  0
    6.3960    5.8205   14.5837 C   0  0  2  0  0  0  0  0  0  0  0  0
    5.7202    4.5730   14.3865 C   0  0  0  0  0  0  0  0  0  0  0  0
    6.5830    3.7258   13.7027 C   0  0  0  0  0  0  0  0  0  0  0  0
    6.6212    2.2845   13.3288 C   0  0  1  0  0  0  0  0  0  0  0  0
    7.0491    2.1830   11.8558 C   0  0  0  0  0  0  0  0  0  0  0  0
    8.4341    2.8269   11.6419 C   0  0  1  0  0  0  0  0  0  0  0  0
    7.7301    1.6306   14.1876 C   0  0  1  0  0  0  0  0  0  0  0  0
    9.0410    2.4271   14.0184 C   0  0  0  0  0  0  0  0  0  0  0  0
    8.4093    3.8094   10.4769 C   0  0  0  0  0  0  0  0  0  0  0  0
    7.3100    1.5536   15.6523 C   0  0  0  0  0  0  0  0  0  0  0  0
    4.8132   10.3713   12.4216 H   0  0  0  0  0  0  0  0  0  0  0  0
    4.9848    8.2346   10.2752 H   0  0  0  0  0  0  0  0  0  0  0  0
    7.0056    6.5926    9.6590 H   0  0  0  0  0  0  0  0  0  0  0  0
    8.9695    6.9464   11.4461 H   0  0  0  0  0  0  0  0  0  0  0  0
    9.3363    9.1411   13.4128 H   0  0  0  0  0  0  0  0  0  0  0  0
    8.9236   11.4442   12.6357 H   0  0  0  0  0  0  0  0  0  0  0  0
    8.6600   10.3628   11.2671 H   0  0  0  0  0  0  0  0  0  0  0  0
    6.6994   12.0722   12.7214 H   0  0  0  0  0  0  0  0  0  0  0  0
    7.9380   10.8972   14.6943 H   0  0  0  0  0  0  0  0  0  0  0  0
    5.6221   10.8229   14.6767 H   0  0  0  0  0  0  0  0  0  0  0  0
    5.5561    9.0647   14.5102 H   0  0  0  0  0  0  0  0  0  0  0  0
    7.2038   12.2868   10.2908 H   0  0  0  0  0  0  0  0  0  0  0  0
    6.5744   10.6572   10.0246 H   0  0  0  0  0  0  0  0  0  0  0  0
    5.4986   11.9420   10.5817 H   0  0  0  0  0  0  0  0  0  0  0  0
    7.3092    9.3774   16.5450 H   0  0  0  0  0  0  0  0  0  0  0  0
    7.6176    7.9875   15.5034 H   0  0  0  0  0  0  0  0  0  0  0  0
    8.9354    9.0794   15.9335 H   0  0  0  0  0  0  0  0  0  0  0  0
    9.8265    4.0516   12.7936 H   0  0  0  0  0  0  0  0  0  0  0  0
    8.5566    6.3445   14.1986 H   0  0  0  0  0  0  0  0  0  0  0  0
    6.1125    6.5178   15.3678 H   0  0  0  0  0  0  0  0  0  0  0  0
    4.7304    4.3372   14.7539 H   0  0  0  0  0  0  0  0  0  0  0  0
    9.1716    2.0471   11.4217 H   0  0  0  0  0  0  0  0  0  0  0  0
    6.3048    2.6916   11.2423 H   0  0  0  0  0  0  0  0  0  0  0  0
    7.0681    1.1331   11.5581 H   0  0  0  0  0  0  0  0  0  0  0  0
    5.6660    1.7791   13.4865 H   0  0  0  0  0  0  0  0  0  0  0  0
    7.8749    0.6106   13.8169 H   0  0  0  0  0  0  0  0  0  0  0  0
    9.8571    1.7615   13.7324 H   0  0  0  0  0  0  0  0  0  0  0  0
    9.3121    2.8999   14.9641 H   0  0  0  0  0  0  0  0  0  0  0  0
    9.3856    4.2721   10.3379 H   0  0  0  0  0  0  0  0  0  0  0  0
    8.1384    3.2984    9.5558 H   0  0  0  0  0  0  0  0  0  0  0  0
    7.6688    4.5852   10.6749 H   0  0  0  0  0  0  0  0  0  0  0  0
    7.1046    2.5500   16.0378 H   0  0  0  0  0  0  0  0  0  0  0  0
    6.4101    0.9517   15.7595 H   0  0  0  0  0  0  0  0  0  0  0  0
    8.0972    1.1018   16.2523 H   0  0  0  0  0  0  0  0  0  0  0  0
  1  2  1  0  0  0  0
  1 20  1  0  0  0  0
  3  1  1  0  0  0  0
  4 30  1  6  0  0  0
  4 14  1  0  0  0  0
  5  6  1  6  0  0  0
  5  9  1  0  0  0  0
  5  4  1  0  0  0  0
  7 32  1  6  0  0  0
  7  6  1  0  0  0  0
  7  8  1  0  0  0  0
  7  1  1  0  0  0  0
  9  8  1  6  0  0  0
  9 10  1  0  0  0  0
 10 34  1  1  0  0  0
 10 13  1  0  0  0  0
 11 35  1  0  0  0  0
 11 10  1  0  0  0  0
 12 11  1  0  0  0  0
 12  4  1  0  0  0  0
 12 37  1  1  0  0  0
 13 38  1  1  0  0  0
 13 16  1  0  0  0  0
 14 13  1  0  0  0  0
 14 40  1  0  0  0  0
 14 39  1  0  0  0  0
 15 12  1  0  0  0  0
 16 46  1  0  0  0  0
 16 44  1  0  0  0  0
 17 47  1  6  0  0  0
 17 18  1  0  0  0  0
 17 27  1  0  0  0  0
 18 22  1  0  0  0  0
 18 19  2  0  0  0  0
 19 48  1  0  0  0  0
 19 20  1  0  0  0  0
 20 49  1  1  0  0  0
 21 20  1  0  0  0  0
 21 50  1  0  0  0  0
 22 21  2  0  0  0  0
 23 54  1  1  0  0  0
 23 22  1  0  0  0  0
 23 26  1  0  0  0  0
 24 23  1  0  0  0  0
 25 51  1  6  0  0  0
 25 24  1  0  0  0  0
 25 17  1  0  0  0  0
 26 55  1  6  0  0  0
 26 29  1  0  0  0  0
 27 26  1  0  0  0  0
 27 57  1  0  0  0  0
 28 60  1  0  0  0  0
 28 25  1  0  0  0  0
 29 62  1  0  0  0  0
 29 61  1  0  0  0  0
 29 63  1  0  0  0  0
 31  6  1  0  0  0  0
 33  8  1  0  0  0  0
 36 11  1  0  0  0  0
 41 15  1  0  0  0  0
 42 15  1  0  0  0  0
 43 15  1  0  0  0  0
 45 16  1  0  0  0  0
 52 24  1  0  0  0  0
 53 24  1  0  0  0  0
 56 27  1  0  0  0  0
 58 28  1  0  0  0  0
 59 28  1  0  0  0  0
M  END
$$$$
