CSD_code = JOCGOA | q = -1 | S = 0 | Stoichiometry = C11H12Cl3NO3Re(1-) | MND = 6
 OpenBabel04212202053D

 31 33  0  0  1  0  0  0  0  0999 V2000
    5.1915    8.0405   18.2130 Re  0  0  0  0  0  0  0  0  0  0  0  0
    5.2807    8.0732   19.8625 O   0  0  0  0  0  1  0  0  0  0  0  0
    5.5195   10.3894   17.9823 Cl  0  0  0  0  0  0  0  0  0  0  0  0
    2.9042    8.2817   18.1226 Cl  0  0  0  0  0  0  0  0  0  0  0  0
    5.0341    5.6629   18.1039 Cl  0  0  0  0  0  0  0  0  0  0  0  0
    9.3659    7.5683   16.8864 O   0  0  0  0  0  0  0  0  0  0  0  0
    8.0233    7.7114   16.7992 C   0  0  1  0  0  3  0  0  0  0  0  0
    7.4070    7.8027   17.9212 N   0  0  2  0  0  0  0  0  0  0  0  0
    8.3588    7.7255   19.0198 C   0  0  0  0  0  0  0  0  0  0  0  0
    9.7033    7.5573   18.2657 C   0  0  0  0  0  0  0  0  0  0  0  0
   10.3976    8.3807   18.4601 H   0  0  0  0  0  0  0  0  0  0  0  0
   10.1946    6.6067   18.4958 H   0  0  0  0  0  0  0  0  0  0  0  0
    8.3093    9.0171   19.8346 C   0  0  0  0  0  0  0  0  0  0  0  0
    9.0341    8.9769   20.6449 H   0  0  0  0  0  0  0  0  0  0  0  0
    8.5127    9.8774   19.2007 H   0  0  0  0  0  0  0  0  0  0  0  0
    7.3087    9.1343   20.2463 H   0  0  0  0  0  0  0  0  0  0  0  0
    8.0339    6.5190   19.8991 C   0  0  0  0  0  0  0  0  0  0  0  0
    8.7688    6.4275   20.6961 H   0  0  0  0  0  0  0  0  0  0  0  0
    7.0435    6.6539   20.3294 H   0  0  0  0  0  0  0  0  0  0  0  0
    8.0182    5.6074   19.3056 H   0  0  0  0  0  0  0  0  0  0  0  0
    5.2721    7.9834   16.3601 O   0  0  0  0  0  0  0  0  0  0  0  0
    6.0357    7.8843   15.3286 C   0  0  0  0  0  0  0  0  0  0  0  0
    7.4435    7.7449   15.4778 C   0  0  0  0  0  0  0  0  0  0  0  0
    8.2538    7.6413   14.3462 C   0  0  0  0  0  0  0  0  0  0  0  0
    9.3195    7.5371   14.4858 H   0  0  0  0  0  0  0  0  0  0  0  0
    7.7083    7.6715   13.0823 C   0  0  0  0  0  0  0  0  0  0  0  0
    8.3458    7.5908   12.2140 H   0  0  0  0  0  0  0  0  0  0  0  0
    6.3306    7.8063   12.9283 C   0  0  0  0  0  0  0  0  0  0  0  0
    5.9031    7.8297   11.9353 H   0  0  0  0  0  0  0  0  0  0  0  0
    5.5073    7.9109   14.0232 C   0  0  0  0  0  0  0  0  0  0  0  0
    4.4378    8.0158   13.9167 H   0  0  0  0  0  0  0  0  0  0  0  0
  1  2  1  0  0  0  0
  3  1  1  0  0  0  0
  4  1  1  0  0  0  0
  5  1  1  0  0  0  0
  6 10  1  0  0  0  0
  7 23  1  6  0  0  0
  7  6  1  0  0  0  0
  7  8  1  0  0  0  0
  8  1  1  0  0  0  0
  8  9  1  1  0  0  0
  9 13  1  0  0  0  0
  9 17  1  0  0  0  0
 10 11  1  0  0  0  0
 10 12  1  0  0  0  0
 10  9  1  0  0  0  0
 13 16  1  0  0  0  0
 13 14  1  0  0  0  0
 15 13  1  0  0  0  0
 17 19  1  0  0  0  0
 17 18  1  0  0  0  0
 20 17  1  0  0  0  0
 21  1  1  0  0  0  0
 22 23  1  0  0  0  0
 22 21  1  0  0  0  0
 24 25  1  0  0  0  0
 24 23  2  0  0  0  0
 26 24  1  0  0  0  0
 27 26  1  0  0  0  0
 28 26  2  0  0  0  0
 28 30  1  0  0  0  0
 29 28  1  0  0  0  0
 30 22  2  0  0  0  0
 31 30  1  0  0  0  0
M  END
$$$$
