CSD_code = JOCGOX | q = 0 | S = 0 | Stoichiometry = C14H21ClSiTi | MND = 12
 OpenBabel04212202053D

 38 39  0  0  1  0  0  0  0  0999 V2000
    0.7458    1.6218    2.5736 Ti  0  0  2  0  0  0  0  0  0  0  0  0
    1.7775   -0.2557    1.9255 Cl  0  0  0  0  0  0  0  0  0  0  0  0
   -2.7948    1.3068    2.7878 Si  0  0  0  0  0  0  0  0  0  0  0  0
   -1.0939    0.6216    2.2994 C   0  0  0  0  0  0  0  0  0  0  0  0
   -3.3298    0.6265    4.4996 C   0  0  0  0  0  0  0  0  0  0  0  0
   -4.1194    0.7298    1.5267 C   0  0  0  0  0  0  0  0  0  0  0  0
   -2.9308    3.2240    2.8449 C   0  0  0  0  0  0  0  0  0  0  0  0
    2.1015    2.5195    0.7852 C   0  0  0  0  0  0  0  0  0  0  0  0
    1.8399    3.5819    1.6645 C   0  0  0  0  0  0  0  0  0  0  0  0
    0.4472    3.8039    1.6846 C   0  0  0  0  0  3  0  0  0  0  0  0
   -0.1523    2.8817    0.8005 C   0  0  1  0  0  0  0  0  0  0  0  0
    0.8749    2.0881    0.2436 C   0  0  0  0  0  3  0  0  0  0  0  0
    2.2677    2.1822    4.3608 C   0  0  0  0  0  0  0  0  0  0  0  0
    1.1457    3.0290    4.4737 C   0  0  0  0  0  0  0  0  0  0  0  0
    0.0170    2.2279    4.7228 C   0  0  2  0  0  0  0  0  0  0  0  0
    0.4522    0.8811    4.8084 C   0  0  0  0  0  0  0  0  0  0  0  0
    1.8434    0.8640    4.6035 C   0  0  0  0  0  0  0  0  0  0  0  0
   -1.1176    0.3627    1.2323 H   0  0  0  0  0  0  0  0  0  0  0  0
   -0.9600   -0.3329    2.8264 H   0  0  0  0  0  0  0  0  0  0  0  0
   -3.2889   -0.4587    4.5141 H   0  0  0  0  0  0  0  0  0  0  0  0
   -4.3519    0.9138    4.7262 H   0  0  0  0  0  0  0  0  0  0  0  0
   -2.7037    0.9868    5.3093 H   0  0  0  0  0  0  0  0  0  0  0  0
   -3.8728    1.0464    0.5172 H   0  0  0  0  0  0  0  0  0  0  0  0
   -5.0975    1.1358    1.7671 H   0  0  0  0  0  0  0  0  0  0  0  0
   -4.2088   -0.3516    1.5156 H   0  0  0  0  0  0  0  0  0  0  0  0
   -3.7528    3.5231    3.4890 H   0  0  0  0  0  0  0  0  0  0  0  0
   -3.1322    3.6372    1.8613 H   0  0  0  0  0  0  0  0  0  0  0  0
   -2.0285    3.6972    3.2220 H   0  0  0  0  0  0  0  0  0  0  0  0
    3.0790    2.1490    0.5051 H   0  0  0  0  0  0  0  0  0  0  0  0
    2.5869    4.1993    2.1460 H   0  0  0  0  0  0  0  0  0  0  0  0
   -0.0533    4.6389    2.1573 H   0  0  0  0  0  0  0  0  0  0  0  0
   -1.1853    2.8892    0.4832 H   0  0  0  0  0  0  0  0  0  0  0  0
    0.7549    1.3403   -0.5307 H   0  0  0  0  0  0  0  0  0  0  0  0
    3.2973    2.4994    4.2530 H   0  0  0  0  0  0  0  0  0  0  0  0
    1.1670    4.1108    4.4895 H   0  0  0  0  0  0  0  0  0  0  0  0
   -0.9631    2.5894    4.9950 H   0  0  0  0  0  0  0  0  0  0  0  0
   -0.1492    0.0394    5.1253 H   0  0  0  0  0  0  0  0  0  0  0  0
    2.4847   -0.0032    4.6850 H   0  0  0  0  0  0  0  0  0  0  0  0
  1  2  1  6  0  0  0
  1 15  1  0  0  0  0
  3  7  1  0  0  0  0
  3  5  1  0  0  0  0
  4  1  1  0  0  0  0
  4  3  1  0  0  0  0
  4 19  1  0  0  0  0
  5 20  1  0  0  0  0
  5 21  1  0  0  0  0
  5 22  1  0  0  0  0
  6 24  1  0  0  0  0
  6  3  1  0  0  0  0
  7 28  1  0  0  0  0
  7 26  1  0  0  0  0
  8  9  2  0  0  0  0
  9 10  1  0  0  0  0
  9 30  1  0  0  0  0
 10 31  1  0  0  0  0
 11 32  1  6  0  0  0
 11 10  1  0  0  0  0
 11  1  1  0  0  0  0
 12  8  1  0  0  0  0
 12 11  1  0  0  0  0
 13 14  2  0  0  0  0
 13 17  1  0  0  0  0
 14 35  1  0  0  0  0
 14 15  1  0  0  0  0
 15 16  1  0  0  0  0
 15 36  1  1  0  0  0
 16 37  1  0  0  0  0
 17 38  1  0  0  0  0
 17 16  2  0  0  0  0
 18  4  1  0  0  0  0
 23  6  1  0  0  0  0
 25  6  1  0  0  0  0
 27  7  1  0  0  0  0
 29  8  1  0  0  0  0
 33 12  1  0  0  0  0
 34 13  1  0  0  0  0
M  END
$$$$
