CSD_code = JODCEM | q = 0 | S = 0 | Stoichiometry = C16H10ClN4O3Re | MND = 6
 OpenBabel04212202053D

 35 38  0  0  1  0  0  0  0  0999 V2000
    2.4373    0.5607    8.9099 Re  0  0  0  0  0  0  0  0  0  0  0  0
    4.1306    1.1445    7.3035 Cl  0  0  0  0  0  0  0  0  0  0  0  0
    2.9158   -1.3016    8.5428 C   0  0  0  0  0  2  0  0  0  0  0  0
    3.2565   -2.3351    8.1989 O   0  0  0  0  0  1  0  0  0  0  0  0
    3.6233    0.5565   10.4522 C   0  0  0  0  0  2  0  0  0  0  0  0
    4.3425    0.5164   11.3463 O   0  0  0  0  0  1  0  0  0  0  0  0
    0.8993    0.1629   10.0257 C   0  0  0  0  0  2  0  0  0  0  0  0
   -0.0395   -0.0574   10.6540 O   0  0  0  0  0  1  0  0  0  0  0  0
    2.4222    3.8187    9.2112 N   0  0  0  0  0  0  0  0  0  0  0  0
    2.0713    2.6403    8.6824 C   0  0  1  0  0  3  0  0  0  0  0  0
    1.3817    2.9625    7.5457 N   0  0  0  0  0  0  0  0  0  0  0  0
    1.3040    4.3276    7.3845 C   0  0  0  0  0  0  0  0  0  0  0  0
    0.8095    4.7662    6.5439 H   0  0  0  0  0  0  0  0  0  0  0  0
    1.9535    4.8614    8.4381 C   0  0  0  0  0  0  0  0  0  0  0  0
    2.1432    5.8825    8.6987 H   0  0  0  0  0  0  0  0  0  0  0  0
    3.2314    4.0024   10.3586 C   0  0  0  0  0  0  0  0  0  0  0  0
    4.4929    3.4256   10.3988 C   0  0  0  0  0  0  0  0  0  0  0  0
    4.8405    2.8415    9.5596 H   0  0  0  0  0  0  0  0  0  0  0  0
    5.2902    3.6179   11.5127 C   0  0  0  0  0  0  0  0  0  0  0  0
    6.2685    3.1653   11.5517 H   0  0  0  0  0  0  0  0  0  0  0  0
    4.8347    4.3876   12.5697 C   0  0  0  0  0  0  0  0  0  0  0  0
    5.4589    4.5349   13.4379 H   0  0  0  0  0  0  0  0  0  0  0  0
    3.5799    4.9722   12.5162 C   0  0  0  0  0  0  0  0  0  0  0  0
    3.2258    5.5734   13.3398 H   0  0  0  0  0  0  0  0  0  0  0  0
    2.7723    4.7844   11.4091 C   0  0  0  0  0  0  0  0  0  0  0  0
    1.7880    5.2272   11.3629 H   0  0  0  0  0  0  0  0  0  0  0  0
    1.1892    0.7239    7.0629 N   0  0  0  0  0  0  0  0  0  0  0  0
    0.9510    1.9873    6.6774 C   0  0  2  0  0  3  0  0  0  0  0  0
    0.3600    2.3624    5.5587 N   0  0  0  0  0  0  0  0  0  0  0  0
   -0.0090    1.4069    4.7234 C   0  0  0  0  0  0  0  0  0  0  0  0
   -0.4813    1.7391    3.8097 H   0  0  0  0  0  0  0  0  0  0  0  0
    0.2032    0.0654    5.0093 C   0  0  0  0  0  0  0  0  0  0  0  0
   -0.0888   -0.7145    4.3275 H   0  0  0  0  0  0  0  0  0  0  0  0
    0.8115   -0.2302    6.2187 C   0  0  0  0  0  0  0  0  0  0  0  0
    1.0028   -1.2511    6.5227 H   0  0  0  0  0  0  0  0  0  0  0  0
  1  7  1  0  0  0  0
  1  5  1  0  0  0  0
  2  1  1  0  0  0  0
  3  1  1  0  0  0  0
  4  3  1  0  0  0  0
  5  6  1  0  0  0  0
  7  8  1  0  0  0  0
  9 16  1  0  0  0  0
 10 11  1  6  0  0  0
 10  1  1  0  0  0  0
 10  9  1  0  0  0  0
 12 11  1  0  0  0  0
 12 14  2  0  0  0  0
 13 12  1  0  0  0  0
 14 15  1  0  0  0  0
 14  9  1  0  0  0  0
 16 17  2  0  0  0  0
 16 25  1  0  0  0  0
 17 19  1  0  0  0  0
 18 17  1  0  0  0  0
 19 20  1  0  0  0  0
 19 21  2  0  0  0  0
 21 22  1  0  0  0  0
 23 21  1  0  0  0  0
 23 24  1  0  0  0  0
 25 23  2  0  0  0  0
 26 25  1  0  0  0  0
 27  1  1  0  0  0  0
 28 29  1  6  0  0  0
 28 27  1  0  0  0  0
 28 11  1  0  0  0  0
 30 32  1  0  0  0  0
 30 29  2  0  0  0  0
 31 30  1  0  0  0  0
 32 34  2  0  0  0  0
 33 32  1  0  0  0  0
 34 35  1  0  0  0  0
 34 27  1  0  0  0  0
M  END
$$$$
