CSD_code = JODSOL | q = 0 | S = 0 | Stoichiometry = C14H20Br2N2OZn | MND = 4
 OpenBabel04212202053D

 40 42  0  0  0  0  0  0  0  0999 V2000
    7.5634   -1.2248    1.2480 Zn  0  0  0  0  0  0  0  0  0  0  0  0
    9.6555   -0.4828    2.1285 Br  0  0  0  0  0  0  0  0  0  0  0  0
    5.7078   -0.7442    2.6887 Br  0  0  0  0  0  0  0  0  0  0  0  0
    7.3362   -2.6341    0.0686 O   0  0  0  0  0  0  0  0  0  0  0  0
    7.3753    0.2513   -0.2495 N   0  0  0  0  0  0  0  0  0  0  0  0
    6.8816    3.0476    2.0359 N   0  0  0  0  0  4  0  0  0  0  0  0
    7.0660   -1.4198   -1.9855 C   0  0  0  0  0  0  0  0  0  0  0  0
    7.1308   -2.6113   -1.1942 C   0  0  0  0  0  0  0  0  0  0  0  0
    6.9653   -3.8500   -1.8704 C   0  0  0  0  0  0  0  0  0  0  0  0
    7.0154   -4.7437   -1.2661 H   0  0  0  0  0  0  0  0  0  0  0  0
    6.7492   -3.9177   -3.2165 C   0  0  0  0  0  0  0  0  0  0  0  0
    6.6241   -4.8788   -3.6947 H   0  0  0  0  0  0  0  0  0  0  0  0
    6.6914   -2.7497   -3.9881 C   0  0  0  0  0  0  0  0  0  0  0  0
    6.5244   -2.8112   -5.0525 H   0  0  0  0  0  0  0  0  0  0  0  0
    6.8522   -1.5389   -3.3771 C   0  0  0  0  0  0  0  0  0  0  0  0
    6.8113   -0.6299   -3.9633 H   0  0  0  0  0  0  0  0  0  0  0  0
    7.2337   -0.1075   -1.4796 C   0  0  0  0  0  3  0  0  0  0  0  0
    7.2505    0.6805   -2.2455 H   0  0  0  0  0  0  0  0  0  0  0  0
    7.5968    1.6484    0.0378 C   0  0  0  0  0  0  0  0  0  0  0  0
    7.7000    2.2261   -0.8931 H   0  0  0  0  0  0  0  0  0  0  0  0
    8.5427    1.7198    0.5857 H   0  0  0  0  0  0  0  0  0  0  0  0
    6.4453    2.2087    0.8912 C   0  0  0  0  0  0  0  0  0  0  0  0
    5.8642    1.3793    1.3043 H   0  0  0  0  0  0  0  0  0  0  0  0
    5.7837    2.8090    0.2639 H   0  0  0  0  0  0  0  0  0  0  0  0
    5.7284    3.7857    2.6029 C   0  0  0  0  0  0  0  0  0  0  0  0
    5.0462    3.0436    3.0234 H   0  0  0  0  0  0  0  0  0  0  0  0
    5.2170    4.3206    1.7996 H   0  0  0  0  0  0  0  0  0  0  0  0
    6.1868    4.7617    3.6789 C   0  0  0  0  0  0  0  0  0  0  0  0
    6.8503    5.5115    3.2400 H   0  0  0  0  0  0  0  0  0  0  0  0
    5.3142    5.2825    4.0724 H   0  0  0  0  0  0  0  0  0  0  0  0
    6.9128    4.0170    4.7945 C   0  0  0  0  0  0  0  0  0  0  0  0
    7.2869    4.7242    5.5337 H   0  0  0  0  0  0  0  0  0  0  0  0
    6.2191    3.3403    5.2939 H   0  0  0  0  0  0  0  0  0  0  0  0
    8.0620    3.2145    4.1960 C   0  0  0  0  0  0  0  0  0  0  0  0
    8.5497    2.6135    4.9612 H   0  0  0  0  0  0  0  0  0  0  0  0
    8.8149    3.8875    3.7780 H   0  0  0  0  0  0  0  0  0  0  0  0
    7.5439    2.2748    3.1210 C   0  0  0  0  0  0  0  0  0  0  0  0
    8.3709    1.6902    2.7152 H   0  0  0  0  0  0  0  0  0  0  0  0
    6.8072    1.5830    3.5345 H   0  0  0  0  0  0  0  0  0  0  0  0
    7.5669    3.7336    1.6994 H   0  0  0  0  0  0  0  0  0  0  0  0
  1  2  1  0  0  0  0
  1  3  1  0  0  0  0
  4  1  1  0  0  0  0
  5 19  1  0  0  0  0
  5  1  1  0  0  0  0
  6 25  1  0  0  0  0
  6 37  1  0  0  0  0
  7 17  1  0  0  0  0
  7  8  1  0  0  0  0
  8  4  1  0  0  0  0
  9 10  1  0  0  0  0
  9  8  2  0  0  0  0
 11  9  1  0  0  0  0
 12 11  1  0  0  0  0
 13 15  1  0  0  0  0
 13 11  2  0  0  0  0
 14 13  1  0  0  0  0
 15  7  2  0  0  0  0
 16 15  1  0  0  0  0
 17  5  1  0  0  0  0
 18 17  1  0  0  0  0
 19 21  1  0  0  0  0
 19 22  1  0  0  0  0
 20 19  1  0  0  0  0
 22 23  1  0  0  0  0
 22  6  1  0  0  0  0
 24 22  1  0  0  0  0
 25 26  1  0  0  0  0
 25 28  1  0  0  0  0
 27 25  1  0  0  0  0
 28 30  1  0  0  0  0
 28 31  1  0  0  0  0
 29 28  1  0  0  0  0
 31 33  1  0  0  0  0
 31 32  1  0  0  0  0
 34 31  1  0  0  0  0
 34 35  1  0  0  0  0
 36 34  1  0  0  0  0
 37 39  1  0  0  0  0
 37 34  1  0  0  0  0
 38 37  1  0  0  0  0
 40  6  1  0  0  0  0
M  END
$$$$
