CSD_code = JODYIM | q = 1 | S = 0 | Stoichiometry = C20H20ClN8Ru(1+) | MND = 6
 OpenBabel04212202053D

 50 56  0  0  1  0  0  0  0  0999 V2000
    5.7999    8.5546    9.7887 Ru  0  0  0  0  0  0  0  0  0  0  0  0
    7.6841    7.8669    8.5679 Cl  0  0  0  0  0  0  0  0  0  0  0  0
    6.6119   10.4005    9.9400 N   0  0  1  0  0  0  0  0  0  0  0  0
    6.6910   10.9663   11.1567 N   0  0  0  0  0  0  0  0  0  0  0  0
    6.9060    8.0867   11.4172 N   0  0  2  0  0  0  0  0  0  0  0  0
    7.0024    8.9960   12.4036 N   0  0  0  0  0  0  0  0  0  0  0  0
    4.3986    9.1649   11.1407 N   0  0  2  0  0  0  0  0  0  0  0  0
    4.8424    9.8985   12.1816 N   0  0  0  0  0  0  0  0  0  0  0  0
    5.0725    6.6651    9.6873 N   0  0  0  0  0  0  0  0  0  0  0  0
    4.7801    9.1864    8.0971 N   0  0  0  0  0  0  0  0  0  0  0  0
    7.1762   11.2370    9.0923 C   0  0  0  0  0  3  0  0  0  0  0  0
    7.2502   10.9986    8.0479 H   0  0  0  0  0  0  0  0  0  0  0  0
    7.6359   12.3755    9.7732 C   0  0  0  0  0  0  0  0  0  0  0  0
    8.1356   13.2215    9.3506 H   0  0  0  0  0  0  0  0  0  0  0  0
    7.3176   12.1704   11.0893 C   0  0  0  0  0  0  0  0  0  0  0  0
    7.4827   12.7726   11.9590 H   0  0  0  0  0  0  0  0  0  0  0  0
    7.7194    7.0973   11.7286 C   0  0  0  0  0  3  0  0  0  0  0  0
    7.8292    6.2469   11.0821 H   0  0  0  0  0  0  0  0  0  0  0  0
    8.3619    7.3680   12.9470 C   0  0  0  0  0  0  0  0  0  0  0  0
    9.0780    6.7517   13.4484 H   0  0  0  0  0  0  0  0  0  0  0  0
    7.8862    8.5868   13.3515 C   0  0  0  0  0  0  0  0  0  0  0  0
    8.1036    9.1801   14.2158 H   0  0  0  0  0  0  0  0  0  0  0  0
    3.1174    8.9269   11.3740 C   0  0  0  0  0  3  0  0  0  0  0  0
    2.5290    8.3479   10.6874 H   0  0  0  0  0  0  0  0  0  0  0  0
    2.7211    9.5160   12.5835 C   0  0  0  0  0  0  0  0  0  0  0  0
    1.7467    9.4936   13.0239 H   0  0  0  0  0  0  0  0  0  0  0  0
    3.8440   10.1239   13.0782 C   0  0  0  0  0  0  0  0  0  0  0  0
    4.0040   10.6903   13.9721 H   0  0  0  0  0  0  0  0  0  0  0  0
    6.2442   10.2199   12.3055 C   0  0  2  0  0  0  0  0  0  0  0  0
    6.3982   10.8188   13.2116 H   0  0  0  0  0  0  0  0  0  0  0  0
    5.1141    5.9801    8.5401 C   0  0  0  0  0  3  0  0  0  0  0  0
    5.4558    6.5175    7.6661 H   0  0  0  0  0  0  0  0  0  0  0  0
    4.7706    4.6429    8.4439 C   0  0  0  0  0  0  0  0  0  0  0  0
    4.8331    4.1445    7.4899 H   0  0  0  0  0  0  0  0  0  0  0  0
    4.3613    3.9642    9.5802 C   0  0  0  0  0  0  0  0  0  0  0  0
    4.0939    2.9204    9.5410 H   0  0  0  0  0  0  0  0  0  0  0  0
    4.3118    4.6701   10.7730 C   0  0  0  0  0  0  0  0  0  0  0  0
    4.0027    4.1941   11.6899 H   0  0  0  0  0  0  0  0  0  0  0  0
    4.6735    6.0039   10.7809 C   0  0  0  0  0  0  0  0  0  0  0  0
    4.6388    6.5617   11.7105 H   0  0  0  0  0  0  0  0  0  0  0  0
    5.2958    8.9895    6.8781 C   0  0  0  0  0  3  0  0  0  0  0  0
    6.2339    8.4474    6.8351 H   0  0  0  0  0  0  0  0  0  0  0  0
    4.7123    9.4703    5.7187 C   0  0  0  0  0  0  0  0  0  0  0  0
    5.1823    9.2752    4.7682 H   0  0  0  0  0  0  0  0  0  0  0  0
    3.5361   10.1972    5.8014 C   0  0  0  0  0  0  0  0  0  0  0  0
    3.0529   10.5833    4.9180 H   0  0  0  0  0  0  0  0  0  0  0  0
    3.0058   10.4211    7.0623 C   0  0  0  0  0  0  0  0  0  0  0  0
    2.0986   10.9894    7.1921 H   0  0  0  0  0  0  0  0  0  0  0  0
    3.6553    9.9060    8.1696 C   0  0  0  0  0  0  0  0  0  0  0  0
    3.2461   10.0861    9.1546 H   0  0  0  0  0  0  0  0  0  0  0  0
  1  3  1  0  0  0  0
  1  7  1  0  0  0  0
  1  5  1  0  0  0  0
  2  1  1  0  0  0  0
  3 11  1  1  0  0  0
  3  4  1  0  0  0  0
  4 29  1  0  0  0  0
  5 17  1  6  0  0  0
  5  6  1  0  0  0  0
  6 21  1  0  0  0  0
  7 23  1  1  0  0  0
  7  8  1  0  0  0  0
  8 29  1  0  0  0  0
  8 27  1  0  0  0  0
  9  1  1  0  0  0  0
  9 39  1  0  0  0  0
 10 49  1  0  0  0  0
 10  1  1  0  0  0  0
 11 13  1  0  0  0  0
 12 11  1  0  0  0  0
 13 15  2  0  0  0  0
 14 13  1  0  0  0  0
 15  4  1  0  0  0  0
 15 16  1  0  0  0  0
 17 19  1  0  0  0  0
 18 17  1  0  0  0  0
 19 21  2  0  0  0  0
 19 20  1  0  0  0  0
 21 22  1  0  0  0  0
 23 25  1  0  0  0  0
 24 23  1  0  0  0  0
 25 26  1  0  0  0  0
 25 27  2  0  0  0  0
 27 28  1  0  0  0  0
 29  6  1  0  0  0  0
 29 30  1  1  0  0  0
 31  9  1  0  0  0  0
 32 31  1  0  0  0  0
 33 31  1  0  0  0  0
 33 35  2  0  0  0  0
 34 33  1  0  0  0  0
 35 37  1  0  0  0  0
 36 35  1  0  0  0  0
 37 39  2  0  0  0  0
 37 38  1  0  0  0  0
 39 40  1  0  0  0  0
 41 10  1  0  0  0  0
 42 41  1  0  0  0  0
 43 45  2  0  0  0  0
 43 41  1  0  0  0  0
 44 43  1  0  0  0  0
 45 47  1  0  0  0  0
 46 45  1  0  0  0  0
 47 48  1  0  0  0  0
 47 49  2  0  0  0  0
 49 50  1  0  0  0  0
M  END
$$$$
