CSD_code = JOFMEX | q = 0 | S = 0 | Stoichiometry = C9H17Cl2N3Zn | MND = 4
 OpenBabel04212202053D

 32 33  0  0  1  0  0  0  0  0999 V2000
   -0.5968    5.8471   -1.2546 Zn  0  0  0  0  0  0  0  0  0  0  0  0
   -0.5530    6.6797   -3.2767 Cl  0  0  0  0  0  0  0  0  0  0  0  0
   -1.4033    3.8951   -0.5106 Cl  0  0  0  0  0  0  0  0  0  0  0  0
    1.1754    6.1356   -0.2256 N   0  0  2  0  0  0  0  0  0  0  0  0
    1.1390    6.1949    1.1134 N   0  0  0  0  0  0  0  0  0  0  0  0
   -1.8033    6.9715    0.2562 N   0  0  0  0  0  4  0  0  0  0  0  0
   -2.4407    6.1953    0.4478 H   0  0  0  0  0  0  0  0  0  0  0  0
   -0.1089    6.0650    1.8148 C   0  0  0  0  0  0  0  0  0  0  0  0
    0.1031    6.0414    2.8833 H   0  0  0  0  0  0  0  0  0  0  0  0
   -0.5814    5.1221    1.5156 H   0  0  0  0  0  0  0  0  0  0  0  0
   -1.0561    7.2257    1.4865 C   0  0  0  0  0  0  0  0  0  0  0  0
   -1.7434    7.3804    2.3310 H   0  0  0  0  0  0  0  0  0  0  0  0
   -0.4742    8.1434    1.3500 H   0  0  0  0  0  0  0  0  0  0  0  0
    2.4376    6.3132   -0.6014 C   0  0  1  0  0  3  0  0  0  0  0  0
    3.2294    6.4951    0.5373 C   0  0  0  0  0  0  0  0  0  0  0  0
    4.2867    6.6590    0.5673 H   0  0  0  0  0  0  0  0  0  0  0  0
    2.3693    6.4162    1.6160 C   0  0  0  0  0  0  0  0  0  0  0  0
    2.8519    6.2872   -2.0238 C   0  0  0  0  0  0  0  0  0  0  0  0
    2.9532    5.2561   -2.3618 H   0  0  0  0  0  0  0  0  0  0  0  0
    3.8071    6.7893   -2.1483 H   0  0  0  0  0  0  0  0  0  0  0  0
    2.0994    6.7672   -2.6455 H   0  0  0  0  0  0  0  0  0  0  0  0
    2.6559    6.5322    3.0683 C   0  0  0  0  0  0  0  0  0  0  0  0
    3.7148    6.7264    3.2109 H   0  0  0  0  0  0  0  0  0  0  0  0
    2.4013    5.6092    3.5884 H   0  0  0  0  0  0  0  0  0  0  0  0
    2.0901    7.3487    3.5161 H   0  0  0  0  0  0  0  0  0  0  0  0
   -2.6228    8.1219   -0.1388 C   0  0  0  0  0  0  0  0  0  0  0  0
   -1.9509    8.9228   -0.4591 H   0  0  0  0  0  0  0  0  0  0  0  0
   -3.2060    8.4825    0.7226 H   0  0  0  0  0  0  0  0  0  0  0  0
   -3.5596    7.7492   -1.2749 C   0  0  0  0  0  0  0  0  0  0  0  0
   -2.9884    7.4294   -2.1430 H   0  0  0  0  0  0  0  0  0  0  0  0
   -4.1624    8.6080   -1.5568 H   0  0  0  0  0  0  0  0  0  0  0  0
   -4.2241    6.9413   -0.9753 H   0  0  0  0  0  0  0  0  0  0  0  0
  1  3  1  0  0  0  0
  1  4  1  0  0  0  0
  1  6  1  0  0  0  0
  2  1  1  0  0  0  0
  4  5  1  6  0  0  0
  5 17  1  0  0  0  0
  5  8  1  0  0  0  0
  6  7  1  0  0  0  0
  6 11  1  0  0  0  0
  8  9  1  0  0  0  0
 10  8  1  0  0  0  0
 11  8  1  0  0  0  0
 11 12  1  0  0  0  0
 13 11  1  0  0  0  0
 14 18  1  1  0  0  0
 14  4  1  0  0  0  0
 14 15  1  0  0  0  0
 15 16  1  0  0  0  0
 15 17  2  0  0  0  0
 17 22  1  0  0  0  0
 19 18  1  0  0  0  0
 20 18  1  0  0  0  0
 21 18  1  0  0  0  0
 22 23  1  0  0  0  0
 22 25  1  0  0  0  0
 22 24  1  0  0  0  0
 26  6  1  0  0  0  0
 26 28  1  0  0  0  0
 27 26  1  0  0  0  0
 29 32  1  0  0  0  0
 29 26  1  0  0  0  0
 30 29  1  0  0  0  0
 31 29  1  0  0  0  0
M  END
$$$$
