CSD_code = JOFREC | q = 0 | S = 0 | Stoichiometry = C29H34Cl2N2ORu | MND = 5
 OpenBabel04212202053D

 69 72  0  0  0  0  0  0  0  0999 V2000
    7.1571   10.7891    9.2299 Ru  0  0  0  0  0  0  0  0  0  0  0  0
    8.4251   12.3820    8.1315 Cl  0  0  0  0  0  0  0  0  0  0  0  0
    5.2402    9.8009   10.0354 Cl  0  0  0  0  0  0  0  0  0  0  0  0
    6.4862   10.0968    7.1572 O   0  0  0  0  0  0  0  0  0  0  0  0
    6.9395   11.8499   11.9145 N   0  0  0  0  0  0  0  0  0  0  0  0
    8.9174   10.9701   11.6921 N   0  0  0  0  0  0  0  0  0  0  0  0
    7.7780   11.2442   11.0475 C   0  0  0  0  0  3  0  0  0  0  0  0
    7.4520   11.7925   13.2923 C   0  0  0  0  0  0  0  0  0  0  0  0
    8.9734   11.6636   12.9945 C   0  0  0  0  0  0  0  0  0  0  0  0
    7.0813   13.0288   14.1021 C   0  0  0  0  0  0  0  0  0  0  0  0
    7.2577   13.9393   13.5367 H   0  0  0  0  0  0  0  0  0  0  0  0
    7.6707   13.0586   15.0152 H   0  0  0  0  0  0  0  0  0  0  0  0
    6.0310   13.0020   14.3774 H   0  0  0  0  0  0  0  0  0  0  0  0
    6.9133   10.5240   13.9667 C   0  0  0  0  0  0  0  0  0  0  0  0
    5.8308   10.5587   14.0318 H   0  0  0  0  0  0  0  0  0  0  0  0
    7.3088   10.4247   14.9735 H   0  0  0  0  0  0  0  0  0  0  0  0
    7.1776    9.6487   13.3775 H   0  0  0  0  0  0  0  0  0  0  0  0
    9.6459   13.0227   12.7565 C   0  0  0  0  0  0  0  0  0  0  0  0
   10.6530   12.8618   12.3775 H   0  0  0  0  0  0  0  0  0  0  0  0
    9.7137   13.5929   13.6783 H   0  0  0  0  0  0  0  0  0  0  0  0
    9.0940   13.5992   12.0172 H   0  0  0  0  0  0  0  0  0  0  0  0
    9.7689   10.8963   14.0417 C   0  0  0  0  0  0  0  0  0  0  0  0
    9.4213    9.8749   14.1494 H   0  0  0  0  0  0  0  0  0  0  0  0
    9.6826   11.3989   15.0022 H   0  0  0  0  0  0  0  0  0  0  0  0
   10.8191   10.8738   13.7608 H   0  0  0  0  0  0  0  0  0  0  0  0
    5.7440   12.4571   11.5066 C   0  0  0  0  0  0  0  0  0  0  0  0
    5.7649   13.2175   10.3326 C   0  0  0  0  0  0  0  0  0  0  0  0
    6.7077   13.3779    9.8133 H   0  0  0  0  0  0  0  0  0  0  0  0
    4.6137   13.8391    9.8804 C   0  0  0  0  0  0  0  0  0  0  0  0
    4.6458   14.4296    8.9761 H   0  0  0  0  0  0  0  0  0  0  0  0
    3.4313   13.7216   10.5896 C   0  0  0  0  0  0  0  0  0  0  0  0
    2.5333   14.2032   10.2337 H   0  0  0  0  0  0  0  0  0  0  0  0
    3.4103   12.9824   11.7597 C   0  0  0  0  0  0  0  0  0  0  0  0
    2.4908   12.8804   12.3169 H   0  0  0  0  0  0  0  0  0  0  0  0
    4.5527   12.3551   12.2198 C   0  0  0  0  0  0  0  0  0  0  0  0
    4.4960   11.7574   13.1138 H   0  0  0  0  0  0  0  0  0  0  0  0
   10.0977   10.4641   11.0959 C   0  0  0  0  0  0  0  0  0  0  0  0
   10.7633   11.1942   10.1190 C   0  0  0  0  0  0  0  0  0  0  0  0
   10.3702   12.1471    9.8016 H   0  0  0  0  0  0  0  0  0  0  0  0
   11.9149   10.6853    9.5439 C   0  0  0  0  0  0  0  0  0  0  0  0
   12.4199   11.2509    8.7757 H   0  0  0  0  0  0  0  0  0  0  0  0
   12.4172    9.4613    9.9497 C   0  0  0  0  0  0  0  0  0  0  0  0
   13.3162    9.0675    9.4994 H   0  0  0  0  0  0  0  0  0  0  0  0
   11.7615    8.7387   10.9327 C   0  0  0  0  0  0  0  0  0  0  0  0
   12.1468    7.7805   11.2493 H   0  0  0  0  0  0  0  0  0  0  0  0
   10.6040    9.2345   11.5044 C   0  0  0  0  0  0  0  0  0  0  0  0
   10.0761    8.6560   12.2470 H   0  0  0  0  0  0  0  0  0  0  0  0
    8.1544    9.1945    9.0189 C   0  0  0  0  0  3  0  0  0  0  0  0
    8.8105    8.7336    9.7592 H   0  0  0  0  0  0  0  0  0  0  0  0
    8.0050    8.4625    7.8167 C   0  0  0  0  0  0  0  0  0  0  0  0
    8.6984    7.2670    7.5650 C   0  0  0  0  0  0  0  0  0  0  0  0
    9.3874    6.9056    8.3146 H   0  0  0  0  0  0  0  0  0  0  0  0
    8.5086    6.5714    6.3919 C   0  0  0  0  0  0  0  0  0  0  0  0
    9.0500    5.6552    6.2106 H   0  0  0  0  0  0  0  0  0  0  0  0
    7.6139    7.0456    5.4433 C   0  0  0  0  0  0  0  0  0  0  0  0
    7.4555    6.4962    4.5275 H   0  0  0  0  0  0  0  0  0  0  0  0
    6.9145    8.2247    5.6524 C   0  0  0  0  0  0  0  0  0  0  0  0
    6.2224    8.5610    4.8963 H   0  0  0  0  0  0  0  0  0  0  0  0
    7.1073    8.9420    6.8229 C   0  0  0  0  0  0  0  0  0  0  0  0
    5.6417   10.7774    6.2321 C   0  0  0  0  0  0  0  0  0  0  0  0
    4.9352   10.0551    5.7974 H   0  0  0  0  0  0  0  0  0  0  0  0
    6.4787   11.4514    5.1456 C   0  0  0  0  0  0  0  0  0  0  0  0
    7.1951   12.1262    5.6119 H   0  0  0  0  0  0  0  0  0  0  0  0
    5.8346   12.0218    4.4817 H   0  0  0  0  0  0  0  0  0  0  0  0
    7.0311   10.7209    4.5592 H   0  0  0  0  0  0  0  0  0  0  0  0
    4.8787   11.8090    7.0529 C   0  0  0  0  0  0  0  0  0  0  0  0
    4.3478   11.3216    7.8717 H   0  0  0  0  0  0  0  0  0  0  0  0
    4.1597   12.3366    6.4322 H   0  0  0  0  0  0  0  0  0  0  0  0
    5.5873   12.5330    7.4600 H   0  0  0  0  0  0  0  0  0  0  0  0
  1  3  1  0  0  0  0
  1  7  1  0  0  0  0
  2  1  1  0  0  0  0
  5  8  1  0  0  0  0
  6  9  1  0  0  0  0
  7  6  1  0  0  0  0
  7  5  1  0  0  0  0
  8 14  1  0  0  0  0
  8 10  1  0  0  0  0
  9  8  1  0  0  0  0
  9 22  1  0  0  0  0
 10 13  1  0  0  0  0
 10 12  1  0  0  0  0
 11 10  1  0  0  0  0
 14 15  1  0  0  0  0
 14 16  1  0  0  0  0
 17 14  1  0  0  0  0
 18  9  1  0  0  0  0
 18 20  1  0  0  0  0
 19 18  1  0  0  0  0
 21 18  1  0  0  0  0
 22 23  1  0  0  0  0
 22 24  1  0  0  0  0
 25 22  1  0  0  0  0
 26  5  1  0  0  0  0
 26 35  1  0  0  0  0
 27 26  2  0  0  0  0
 28 27  1  0  0  0  0
 29 27  1  0  0  0  0
 29 31  2  0  0  0  0
 30 29  1  0  0  0  0
 31 33  1  0  0  0  0
 32 31  1  0  0  0  0
 33 35  2  0  0  0  0
 33 34  1  0  0  0  0
 35 36  1  0  0  0  0
 37 46  1  0  0  0  0
 37  6  1  0  0  0  0
 38 37  2  0  0  0  0
 39 38  1  0  0  0  0
 40 42  2  0  0  0  0
 40 38  1  0  0  0  0
 41 40  1  0  0  0  0
 42 44  1  0  0  0  0
 43 42  1  0  0  0  0
 44 45  1  0  0  0  0
 44 46  2  0  0  0  0
 46 47  1  0  0  0  0
 48  1  1  0  0  0  0
 48 49  1  0  0  0  0
 50 48  1  0  0  0  0
 51 50  1  0  0  0  0
 51 52  1  0  0  0  0
 53 51  2  0  0  0  0
 54 53  1  0  0  0  0
 55 57  2  0  0  0  0
 55 53  1  0  0  0  0
 56 55  1  0  0  0  0
 57 59  1  0  0  0  0
 58 57  1  0  0  0  0
 59  4  1  0  0  0  0
 59 50  2  0  0  0  0
 60 66  1  0  0  0  0
 60  4  1  0  0  0  0
 61 60  1  0  0  0  0
 62 63  1  0  0  0  0
 62 60  1  0  0  0  0
 64 62  1  0  0  0  0
 65 62  1  0  0  0  0
 66 69  1  0  0  0  0
 66 67  1  0  0  0  0
 68 66  1  0  0  0  0
M  END
$$$$
