CSD_code = JOGDOA | q = 0 | S = 0 | Stoichiometry = C22H30Br2N2Ni | MND = 4
 OpenBabel04212202053D

 57 59  0  0  0  0  0  0  0  0999 V2000
   10.9240    3.5051   10.7504 Br  0  0  0  0  0  0  0  0  0  0  0  0
    8.8859    4.2291   13.2940 Br  0  0  0  0  0  0  0  0  0  0  0  0
    8.8138    4.0557   11.0640 Ni  0  0  0  0  0  0  0  0  0  0  0  0
    8.3503    5.1891    9.2621 N   0  0  0  0  0  0  0  0  0  0  0  0
    7.0356    3.5813   10.9155 N   0  0  0  0  0  0  0  0  0  0  0  0
    6.2863    2.8393   11.8528 C   0  0  0  0  0  0  0  0  0  0  0  0
    6.6638    1.5280   12.1663 C   0  0  0  0  0  0  0  0  0  0  0  0
    5.8648    0.8107   13.0429 C   0  0  0  0  0  0  0  0  0  0  0  0
    6.1245   -0.2077   13.2842 H   0  0  0  0  0  0  0  0  0  0  0  0
    4.7460    1.3849   13.6161 C   0  0  0  0  0  0  0  0  0  0  0  0
    4.1341    0.8103   14.2949 H   0  0  0  0  0  0  0  0  0  0  0  0
    4.4259    2.7009   13.3439 C   0  0  0  0  0  0  0  0  0  0  0  0
    3.5707    3.1511   13.8230 H   0  0  0  0  0  0  0  0  0  0  0  0
    5.1902    3.4545   12.4657 C   0  0  0  0  0  0  0  0  0  0  0  0
    4.8726    4.9109   12.2185 C   0  0  0  0  0  0  0  0  0  0  0  0
    5.6193    5.3292   11.5343 H   0  0  0  0  0  0  0  0  0  0  0  0
    4.9695    5.6936   13.5300 C   0  0  0  0  0  0  0  0  0  0  0  0
    4.2181    5.3601   14.2404 H   0  0  0  0  0  0  0  0  0  0  0  0
    4.8189    6.7544   13.3423 H   0  0  0  0  0  0  0  0  0  0  0  0
    5.9521    5.5541   13.9749 H   0  0  0  0  0  0  0  0  0  0  0  0
    3.4945    5.0735   11.5747 C   0  0  0  0  0  0  0  0  0  0  0  0
    3.4396    4.5267   10.6343 H   0  0  0  0  0  0  0  0  0  0  0  0
    3.2974    6.1243   11.3737 H   0  0  0  0  0  0  0  0  0  0  0  0
    2.7142    4.6991   12.2323 H   0  0  0  0  0  0  0  0  0  0  0  0
    7.9142    0.9119   11.5811 C   0  0  0  0  0  0  0  0  0  0  0  0
    8.5060    1.7018   11.0774 H   0  0  0  0  0  0  0  0  0  0  0  0
    8.8093    0.3245   12.6726 C   0  0  0  0  0  0  0  0  0  0  0  0
    9.0052    1.0709   13.4391 H   0  0  0  0  0  0  0  0  0  0  0  0
    9.7595    0.0172   12.2415 H   0  0  0  0  0  0  0  0  0  0  0  0
    8.3480   -0.5419   13.1390 H   0  0  0  0  0  0  0  0  0  0  0  0
    7.5571   -0.1412   10.5314 C   0  0  0  0  0  0  0  0  0  0  0  0
    6.9890   -0.9505   10.9847 H   0  0  0  0  0  0  0  0  0  0  0  0
    8.4626   -0.5568   10.0948 H   0  0  0  0  0  0  0  0  0  0  0  0
    6.9558    0.2911    9.7320 H   0  0  0  0  0  0  0  0  0  0  0  0
    7.3881    4.4113    8.7300 C   0  0  0  0  0  0  0  0  0  0  0  0
    7.0660    4.4407    7.3767 C   0  0  0  0  0  0  0  0  0  0  0  0
    6.2919    3.7991    6.9862 H   0  0  0  0  0  0  0  0  0  0  0  0
    7.7816    5.2998    6.5619 C   0  0  0  0  0  0  0  0  0  0  0  0
    7.5975    5.3273    5.4983 H   0  0  0  0  0  0  0  0  0  0  0  0
    8.7123    6.1480    7.1340 C   0  0  0  0  0  0  0  0  0  0  0  0
    9.2487    6.8475    6.5155 H   0  0  0  0  0  0  0  0  0  0  0  0
    8.9565    6.1004    8.5104 C   0  0  0  0  0  0  0  0  0  0  0  0
    6.6823    3.5828    9.6804 C   0  0  0  0  0  0  0  0  0  0  0  0
    5.8344    2.9919    9.3355 H   0  0  0  0  0  0  0  0  0  0  0  0
    9.8743    7.1133    9.1690 C   0  0  0  0  0  0  0  0  0  0  0  0
    9.6433    7.1591   10.6817 C   0  0  0  0  0  0  0  0  0  0  0  0
    8.6344    7.5026   10.9063 H   0  0  0  0  0  0  0  0  0  0  0  0
   10.3516    7.8402   11.1455 H   0  0  0  0  0  0  0  0  0  0  0  0
    9.7894    6.1757   11.1435 H   0  0  0  0  0  0  0  0  0  0  0  0
   11.3321    6.7440    8.8647 C   0  0  0  0  0  0  0  0  0  0  0  0
   11.9941    7.4996    9.2797 H   0  0  0  0  0  0  0  0  0  0  0  0
   11.5020    6.6868    7.7916 H   0  0  0  0  0  0  0  0  0  0  0  0
   11.5898    5.7852    9.3048 H   0  0  0  0  0  0  0  0  0  0  0  0
    9.5759    8.5114    8.6042 C   0  0  0  0  0  0  0  0  0  0  0  0
    8.5104    8.7298    8.6490 H   0  0  0  0  0  0  0  0  0  0  0  0
    9.9102    8.6156    7.5755 H   0  0  0  0  0  0  0  0  0  0  0  0
   10.1012    9.2547    9.1988 H   0  0  0  0  0  0  0  0  0  0  0  0
  1  3  1  0  0  0  0
  3  2  1  0  0  0  0
  4  3  1  0  0  0  0
  5  3  1  0  0  0  0
  5  6  1  0  0  0  0
  6  7  2  0  0  0  0
  6 14  1  0  0  0  0
  7  8  1  0  0  0  0
  8  9  1  0  0  0  0
  8 10  2  0  0  0  0
 10 11  1  0  0  0  0
 12 10  1  0  0  0  0
 12 13  1  0  0  0  0
 14 12  2  0  0  0  0
 15 14  1  0  0  0  0
 15 17  1  0  0  0  0
 16 15  1  0  0  0  0
 17 20  1  0  0  0  0
 17 18  1  0  0  0  0
 19 17  1  0  0  0  0
 21 15  1  0  0  0  0
 21 24  1  0  0  0  0
 22 21  1  0  0  0  0
 23 21  1  0  0  0  0
 25  7  1  0  0  0  0
 25 27  1  0  0  0  0
 26 25  1  0  0  0  0
 27 30  1  0  0  0  0
 27 28  1  0  0  0  0
 29 27  1  0  0  0  0
 31 32  1  0  0  0  0
 31 25  1  0  0  0  0
 33 31  1  0  0  0  0
 34 31  1  0  0  0  0
 35  4  1  0  0  0  0
 35 43  2  0  0  0  0
 36 35  1  0  0  0  0
 37 36  1  0  0  0  0
 38 40  1  0  0  0  0
 38 36  2  0  0  0  0
 39 38  1  0  0  0  0
 40 42  2  0  0  0  0
 41 40  1  0  0  0  0
 42 45  1  0  0  0  0
 42  4  1  0  0  0  0
 43  5  1  0  0  0  0
 44 43  1  0  0  0  0
 45 46  1  0  0  0  0
 46 47  1  0  0  0  0
 46 49  1  0  0  0  0
 46 48  1  0  0  0  0
 50 45  1  0  0  0  0
 50 51  1  0  0  0  0
 50 53  1  0  0  0  0
 52 50  1  0  0  0  0
 54 55  1  0  0  0  0
 54 45  1  0  0  0  0
 54 57  1  0  0  0  0
 56 54  1  0  0  0  0
M  END
$$$$
