CSD_code = JOGDOZ | q = 0 | S = 0 | Stoichiometry = C27H30Cl2NOPPd | MND = 4
 OpenBabel04212202053D

 63 67  0  0  1  0  0  0  0  0999 V2000
   11.4553    6.7737   13.8899 Pd  0  0  0  0  0  0  0  0  0  0  0  0
    9.2060    6.9522   14.0617 P   0  0  0  0  0  4  0  0  0  0  0  0
   13.6980    6.5449   13.8392 Cl  0  0  0  0  0  0  0  0  0  0  0  0
   11.2422    5.4769   12.0873 Cl  0  0  0  0  0  0  0  0  0  0  0  0
   10.5374    9.3793   16.9404 O   0  0  0  0  0  0  0  0  0  0  0  0
   11.5372    7.9387   15.5827 N   0  0  2  0  0  0  0  0  0  0  0  0
   11.8583    7.4321   16.9058 C   0  0  2  0  0  0  0  0  0  0  0  0
   11.0588    8.3867   17.8230 C   0  0  0  0  0  0  0  0  0  0  0  0
   10.2202    7.8884   18.3180 H   0  0  0  0  0  0  0  0  0  0  0  0
   11.6767    8.8851   18.5712 H   0  0  0  0  0  0  0  0  0  0  0  0
   10.8601    9.0111   15.6900 C   0  0  2  0  0  3  0  0  0  0  0  0
   10.4137    9.9403   14.5881 C   0  0  0  0  0  0  0  0  0  0  0  0
    8.8964    9.7922   14.4774 C   0  0  0  0  0  0  0  0  0  0  0  0
    8.0659   10.9013   14.5880 C   0  0  0  0  0  0  0  0  0  0  0  0
    8.4887   11.8794   14.7437 H   0  0  0  0  0  0  0  0  0  0  0  0
    6.6889   10.7924   14.5024 C   0  0  0  0  0  0  0  0  0  0  0  0
    6.0774   11.6777   14.5905 H   0  0  0  0  0  0  0  0  0  0  0  0
    6.1033    9.5551   14.3078 C   0  0  0  0  0  0  0  0  0  0  0  0
    5.0302    9.4562   14.2458 H   0  0  0  0  0  0  0  0  0  0  0  0
    6.9111    8.4418   14.1891 C   0  0  0  0  0  0  0  0  0  0  0  0
    6.4636    7.4708   14.0268 H   0  0  0  0  0  0  0  0  0  0  0  0
    8.3003    8.5387   14.2695 C   0  0  0  0  0  0  0  0  0  0  0  0
   13.3840    7.4199   17.1250 C   0  0  0  0  0  0  0  0  0  0  0  0
   14.0045    8.8000   16.9284 C   0  0  0  0  0  0  0  0  0  0  0  0
   13.5868    9.5394   17.6102 H   0  0  0  0  0  0  0  0  0  0  0  0
   13.8492    9.1309   15.9040 H   0  0  0  0  0  0  0  0  0  0  0  0
   15.0755    8.7437   17.1016 H   0  0  0  0  0  0  0  0  0  0  0  0
   13.7163    6.8382   18.4950 C   0  0  0  0  0  0  0  0  0  0  0  0
   13.3544    7.4780   19.2980 H   0  0  0  0  0  0  0  0  0  0  0  0
   14.7932    6.7392   18.5989 H   0  0  0  0  0  0  0  0  0  0  0  0
   13.2701    5.8533   18.6126 H   0  0  0  0  0  0  0  0  0  0  0  0
   10.8632   11.3400   15.0445 C   0  0  0  0  0  0  0  0  0  0  0  0
   10.4156   11.6034   15.9990 H   0  0  0  0  0  0  0  0  0  0  0  0
   10.6083   12.0896   14.3003 H   0  0  0  0  0  0  0  0  0  0  0  0
   11.9450   11.3375   15.1626 H   0  0  0  0  0  0  0  0  0  0  0  0
   11.0906    9.6638   13.2307 C   0  0  0  0  0  0  0  0  0  0  0  0
   12.1507    9.4147   13.3691 H   0  0  0  0  0  0  0  0  0  0  0  0
   11.0299   10.5645   12.6222 H   0  0  0  0  0  0  0  0  0  0  0  0
   10.6013    8.8583   12.6650 H   0  0  0  0  0  0  0  0  0  0  0  0
    8.9094    6.0637   15.6245 C   0  0  0  0  0  0  0  0  0  0  0  0
    9.6970    4.9215   15.8030 C   0  0  0  0  0  0  0  0  0  0  0  0
   10.3935    4.6182   15.0115 H   0  0  0  0  0  0  0  0  0  0  0  0
    9.5961    4.1854   16.9690 C   0  0  0  0  0  0  0  0  0  0  0  0
   10.1984    3.2990   17.1019 H   0  0  0  0  0  0  0  0  0  0  0  0
    8.7305    4.5957   17.9733 C   0  0  0  0  0  0  0  0  0  0  0  0
    8.6586    4.0274   18.8886 H   0  0  0  0  0  0  0  0  0  0  0  0
    7.9642    5.7369   17.8067 C   0  0  0  0  0  0  0  0  0  0  0  0
    7.2966    6.0591   18.5926 H   0  0  0  0  0  0  0  0  0  0  0  0
    8.0480    6.4721   16.6348 C   0  0  0  0  0  0  0  0  0  0  0  0
    7.4504    7.3645   16.5111 H   0  0  0  0  0  0  0  0  0  0  0  0
    8.1531    6.0858   12.8617 C   0  0  0  0  0  0  0  0  0  0  0  0
    7.4429    4.9299   13.1608 C   0  0  0  0  0  0  0  0  0  0  0  0
    7.4582    4.5255   14.1638 H   0  0  0  0  0  0  0  0  0  0  0  0
    6.7173    4.2948   12.1677 C   0  0  0  0  0  0  0  0  0  0  0  0
    6.1669    3.3951   12.4010 H   0  0  0  0  0  0  0  0  0  0  0  0
    6.7033    4.8029   10.8803 C   0  0  0  0  0  0  0  0  0  0  0  0
    6.1425    4.2979   10.1079 H   0  0  0  0  0  0  0  0  0  0  0  0
    7.4185    5.9516   10.5780 C   0  0  0  0  0  0  0  0  0  0  0  0
    7.4188    6.3399    9.5705 H   0  0  0  0  0  0  0  0  0  0  0  0
    8.1446    6.5895   11.5632 C   0  0  0  0  0  0  0  0  0  0  0  0
    8.7255    7.4739   11.3328 H   0  0  0  0  0  0  0  0  0  0  0  0
   11.4953    6.3999   16.9931 H   0  0  0  0  0  0  0  0  0  0  0  0
   13.7928    6.7635   16.3480 H   0  0  0  0  0  0  0  0  0  0  0  0
  1  2  1  0  0  0  0
  2 22  1  0  0  0  0
  2 40  1  0  0  0  0
  3  1  1  0  0  0  0
  4  1  1  0  0  0  0
  5  8  1  0  0  0  0
  6  1  1  1  0  0  0
  6 11  1  0  0  0  0
  6  7  1  0  0  0  0
  7 62  1  1  0  0  0
  7 23  1  0  0  0  0
  7  8  1  0  0  0  0
  8  9  1  0  0  0  0
  8 10  1  0  0  0  0
 11  5  1  1  0  0  0
 12 32  1  0  0  0  0
 12 11  1  0  0  0  0
 13 14  1  0  0  0  0
 13 12  1  0  0  0  0
 14 15  1  0  0  0  0
 16 14  2  0  0  0  0
 16 17  1  0  0  0  0
 18 16  1  0  0  0  0
 19 18  1  0  0  0  0
 20 22  1  0  0  0  0
 20 18  2  0  0  0  0
 21 20  1  0  0  0  0
 22 13  2  0  0  0  0
 23 28  1  0  0  0  0
 24 27  1  0  0  0  0
 24 23  1  0  0  0  0
 24 25  1  0  0  0  0
 26 24  1  0  0  0  0
 28 30  1  0  0  0  0
 28 31  1  0  0  0  0
 28 29  1  0  0  0  0
 32 35  1  0  0  0  0
 32 33  1  0  0  0  0
 34 32  1  0  0  0  0
 36 37  1  0  0  0  0
 36 12  1  0  0  0  0
 38 36  1  0  0  0  0
 39 36  1  0  0  0  0
 40 41  2  0  0  0  0
 40 49  1  0  0  0  0
 41 43  1  0  0  0  0
 42 41  1  0  0  0  0
 43 44  1  0  0  0  0
 43 45  2  0  0  0  0
 45 46  1  0  0  0  0
 47 45  1  0  0  0  0
 47 48  1  0  0  0  0
 49 47  2  0  0  0  0
 50 49  1  0  0  0  0
 51 52  1  0  0  0  0
 51  2  1  0  0  0  0
 52 53  1  0  0  0  0
 54 55  1  0  0  0  0
 54 52  2  0  0  0  0
 56 54  1  0  0  0  0
 57 56  1  0  0  0  0
 58 56  2  0  0  0  0
 58 60  1  0  0  0  0
 59 58  1  0  0  0  0
 60 51  2  0  0  0  0
 61 60  1  0  0  0  0
 63 23  1  0  0  0  0
M  END
$$$$
