CSD_code = JOGDIT | q = 0 | S = 0 | Stoichiometry = C25H26Cl2NOPPd | MND = 4
 OpenBabel04212202053D

 57 61  0  0  1  0  0  0  0  0999 V2000
    4.6300    2.6415    6.3668 Pd  0  0  0  0  0  0  0  0  0  0  0  0
    6.8652    2.6963    6.1017 P   0  0  0  0  0  4  0  0  0  0  0  0
    2.3829    2.9234    6.5000 Cl  0  0  0  0  0  0  0  0  0  0  0  0
    4.5971    3.0494    4.1664 Cl  0  0  0  0  0  0  0  0  0  0  0  0
    5.3139    1.7293   10.4119 O   0  0  0  0  0  0  0  0  0  0  0  0
    4.6485    2.1441    8.3374 N   0  0  1  0  0  0  0  0  0  0  0  0
    3.7382    1.0992    8.7745 C   0  0  2  0  0  0  0  0  0  0  0  0
    2.7160    1.4919    8.7147 H   0  0  0  0  0  0  0  0  0  0  0  0
    4.1876    0.8633   10.2343 C   0  0  0  0  0  0  0  0  0  0  0  0
    3.4208    1.1451   10.9595 H   0  0  0  0  0  0  0  0  0  0  0  0
    4.5101   -0.1610   10.4322 H   0  0  0  0  0  0  0  0  0  0  0  0
    5.4765    2.4049    9.2667 C   0  0  2  0  0  3  0  0  0  0  0  0
    6.6460    3.3227    9.1469 C   0  0  0  0  0  0  0  0  0  0  0  0
    6.8388    3.7892   10.1132 H   0  0  0  0  0  0  0  0  0  0  0  0
    6.4262    4.0907    8.3990 H   0  0  0  0  0  0  0  0  0  0  0  0
    7.8254    2.4713    8.7329 C   0  0  0  0  0  0  0  0  0  0  0  0
    8.6903    1.9913    9.7052 C   0  0  0  0  0  0  0  0  0  0  0  0
    8.5330    2.2704   10.7369 H   0  0  0  0  0  0  0  0  0  0  0  0
    9.7448    1.1590    9.3705 C   0  0  0  0  0  0  0  0  0  0  0  0
   10.4105    0.7982   10.1397 H   0  0  0  0  0  0  0  0  0  0  0  0
    9.9353    0.7876    8.0511 C   0  0  0  0  0  0  0  0  0  0  0  0
   10.7512    0.1341    7.7810 H   0  0  0  0  0  0  0  0  0  0  0  0
    9.0753    1.2539    7.0733 C   0  0  0  0  0  0  0  0  0  0  0  0
    9.2202    0.9578    6.0441 H   0  0  0  0  0  0  0  0  0  0  0  0
    8.0196    2.1023    7.3962 C   0  0  0  0  0  0  0  0  0  0  0  0
    3.8347   -0.1098    7.8182 C   0  0  0  0  0  0  0  0  0  0  0  0
    3.5977    0.2865    6.8078 H   0  0  0  0  0  0  0  0  0  0  0  0
    5.2395   -0.7145    7.7786 C   0  0  0  0  0  0  0  0  0  0  0  0
    5.5210   -1.1407    8.7401 H   0  0  0  0  0  0  0  0  0  0  0  0
    5.9812    0.0405    7.5037 H   0  0  0  0  0  0  0  0  0  0  0  0
    5.2740   -1.5105    7.0384 H   0  0  0  0  0  0  0  0  0  0  0  0
    2.7883   -1.1569    8.1845 C   0  0  0  0  0  0  0  0  0  0  0  0
    2.8228   -1.9820    7.4780 H   0  0  0  0  0  0  0  0  0  0  0  0
    1.7927   -0.7228    8.1541 H   0  0  0  0  0  0  0  0  0  0  0  0
    2.9644   -1.5532    9.1827 H   0  0  0  0  0  0  0  0  0  0  0  0
    7.4547    1.8671    4.5985 C   0  0  0  0  0  0  0  0  0  0  0  0
    8.4188    2.3701    3.7353 C   0  0  0  0  0  0  0  0  0  0  0  0
    8.8799    3.3273    3.9300 H   0  0  0  0  0  0  0  0  0  0  0  0
    8.7687    1.6475    2.6068 C   0  0  0  0  0  0  0  0  0  0  0  0
    9.5138    2.0408    1.9305 H   0  0  0  0  0  0  0  0  0  0  0  0
    8.1624    0.4324    2.3372 C   0  0  0  0  0  0  0  0  0  0  0  0
    8.4380   -0.1220    1.4525 H   0  0  0  0  0  0  0  0  0  0  0  0
    7.1856   -0.0625    3.1884 C   0  0  0  0  0  0  0  0  0  0  0  0
    6.6956   -0.9985    2.9646 H   0  0  0  0  0  0  0  0  0  0  0  0
    6.8282    0.6551    4.3121 C   0  0  0  0  0  0  0  0  0  0  0  0
    6.0316    0.3072    4.9669 H   0  0  0  0  0  0  0  0  0  0  0  0
    7.3675    4.4432    5.9908 C   0  0  0  0  0  0  0  0  0  0  0  0
    8.7046    4.8321    6.0209 C   0  0  0  0  0  0  0  0  0  0  0  0
    9.4816    4.0856    6.1188 H   0  0  0  0  0  0  0  0  0  0  0  0
    9.0325    6.1735    5.9420 C   0  0  0  0  0  0  0  0  0  0  0  0
   10.0701    6.4738    5.9567 H   0  0  0  0  0  0  0  0  0  0  0  0
    8.0339    7.1301    5.8478 C   0  0  0  0  0  0  0  0  0  0  0  0
    8.2959    8.1757    5.7824 H   0  0  0  0  0  0  0  0  0  0  0  0
    6.7016    6.7490    5.8485 C   0  0  0  0  0  0  0  0  0  0  0  0
    5.9243    7.4959    5.7896 H   0  0  0  0  0  0  0  0  0  0  0  0
    6.3646    5.4092    5.9254 C   0  0  0  0  0  0  0  0  0  0  0  0
    5.3119    5.1025    5.9288 H   0  0  0  0  0  0  0  0  0  0  0  0
  1  3  1  0  0  0  0
  2  1  1  0  0  0  0
  2 25  1  0  0  0  0
  4  1  1  0  0  0  0
  6  1  1  6  0  0  0
  6  7  1  0  0  0  0
  6 12  1  0  0  0  0
  7  8  1  6  0  0  0
  7  9  1  0  0  0  0
  9  5  1  0  0  0  0
  9 11  1  0  0  0  0
  9 10  1  0  0  0  0
 12  5  1  6  0  0  0
 13 12  1  0  0  0  0
 13 14  1  0  0  0  0
 15 13  1  0  0  0  0
 16 13  1  0  0  0  0
 16 17  1  0  0  0  0
 17 18  1  0  0  0  0
 19 17  2  0  0  0  0
 19 20  1  0  0  0  0
 21 19  1  0  0  0  0
 22 21  1  0  0  0  0
 23 25  1  0  0  0  0
 23 21  2  0  0  0  0
 24 23  1  0  0  0  0
 25 16  2  0  0  0  0
 26 32  1  0  0  0  0
 26  7  1  0  0  0  0
 27 26  1  0  0  0  0
 28 26  1  0  0  0  0
 28 29  1  0  0  0  0
 30 28  1  0  0  0  0
 31 28  1  0  0  0  0
 32 35  1  0  0  0  0
 33 32  1  0  0  0  0
 34 32  1  0  0  0  0
 36  2  1  0  0  0  0
 37 38  1  0  0  0  0
 37 36  2  0  0  0  0
 39 37  1  0  0  0  0
 40 39  1  0  0  0  0
 41 39  2  0  0  0  0
 41 43  1  0  0  0  0
 42 41  1  0  0  0  0
 43 45  2  0  0  0  0
 44 43  1  0  0  0  0
 45 36  1  0  0  0  0
 45 46  1  0  0  0  0
 47 48  1  0  0  0  0
 47  2  1  0  0  0  0
 48 49  1  0  0  0  0
 50 51  1  0  0  0  0
 50 48  2  0  0  0  0
 52 54  2  0  0  0  0
 52 50  1  0  0  0  0
 53 52  1  0  0  0  0
 54 56  1  0  0  0  0
 55 54  1  0  0  0  0
 56 57  1  0  0  0  0
 56 47  2  0  0  0  0
M  END
$$$$
