CSD_code = JOGMEZ | q = 0 | S = 0 | Stoichiometry = C16H40ClN2OScSi4 | MND = 4
 OpenBabel04212202053D

 65 64  0  0  0  0  0  0  0  0999 V2000
   -0.1069    2.0457    3.3011 Sc  0  0  0  0  0  0  0  0  0  0  0  0
    1.3295    1.2109    1.7331 Cl  0  0  0  0  0  0  0  0  0  0  0  0
   -1.3913   -0.8957    4.0894 Si  0  0  0  0  0  0  0  0  0  0  0  0
    0.8500    0.3046    5.7221 Si  0  0  0  0  0  0  0  0  0  0  0  0
   -1.4516    4.5499    5.0010 Si  0  0  0  0  0  0  0  0  0  0  0  0
    0.4730    5.0504    2.6746 Si  0  0  0  0  0  0  0  0  0  0  0  0
   -1.7156    2.0879    1.6193 O   0  0  0  0  0  0  0  0  0  0  0  0
   -0.4020    0.4462    4.5422 N   0  0  0  0  0  0  0  0  0  0  0  0
   -0.5024    4.0195    3.6644 N   0  0  0  0  0  0  0  0  0  0  0  0
   -1.7342    1.3764    0.4607 C   0  0  0  0  0  0  0  0  0  0  0  0
   -0.9289    0.6821    0.2926 H   0  0  0  0  0  0  0  0  0  0  0  0
   -2.8101    1.7201   -0.2894 C   0  0  0  0  0  0  0  0  0  0  0  0
   -3.0809    1.3268   -1.2476 H   0  0  0  0  0  0  0  0  0  0  0  0
   -3.5098    2.7109    0.4494 C   0  0  0  0  0  0  0  0  0  0  0  0
   -4.4115    3.2082    0.1559 H   0  0  0  0  0  0  0  0  0  0  0  0
   -2.8076    2.8974    1.5942 C   0  0  0  0  0  0  0  0  0  0  0  0
   -2.9433    3.5573    2.4330 H   0  0  0  0  0  0  0  0  0  0  0  0
   -2.9903   -0.1915    3.2773 C   0  0  0  0  0  0  0  0  0  0  0  0
   -3.1379    0.8610    3.5217 H   0  0  0  0  0  0  0  0  0  0  0  0
   -3.8625   -0.7290    3.6345 H   0  0  0  0  0  0  0  0  0  0  0  0
   -2.9741   -0.2976    2.1954 H   0  0  0  0  0  0  0  0  0  0  0  0
   -0.5338   -2.0334    2.8093 C   0  0  0  0  0  0  0  0  0  0  0  0
    0.0368   -1.4475    2.0933 H   0  0  0  0  0  0  0  0  0  0  0  0
   -1.2473   -2.6366    2.2566 H   0  0  0  0  0  0  0  0  0  0  0  0
    0.1601   -2.7096    3.2968 H   0  0  0  0  0  0  0  0  0  0  0  0
   -1.9372   -1.9600    5.5764 C   0  0  0  0  0  0  0  0  0  0  0  0
   -1.0811   -2.3889    6.0845 H   0  0  0  0  0  0  0  0  0  0  0  0
   -2.5752   -2.7769    5.2560 H   0  0  0  0  0  0  0  0  0  0  0  0
   -2.4899   -1.3718    6.3010 H   0  0  0  0  0  0  0  0  0  0  0  0
    1.9508   -1.2524    5.5936 C   0  0  0  0  0  0  0  0  0  0  0  0
    1.3866   -2.1457    5.8375 H   0  0  0  0  0  0  0  0  0  0  0  0
    2.7978   -1.2029    6.2705 H   0  0  0  0  0  0  0  0  0  0  0  0
    2.3354   -1.3721    4.5855 H   0  0  0  0  0  0  0  0  0  0  0  0
    0.2084    0.4682    7.5186 C   0  0  0  0  0  0  0  0  0  0  0  0
   -0.3671    1.3786    7.6548 H   0  0  0  0  0  0  0  0  0  0  0  0
    1.0276    0.4812    8.2300 H   0  0  0  0  0  0  0  0  0  0  0  0
   -0.4339   -0.3668    7.7730 H   0  0  0  0  0  0  0  0  0  0  0  0
    1.9708    1.8396    5.3554 C   0  0  0  0  0  0  0  0  0  0  0  0
    2.5771    1.6643    4.4608 H   0  0  0  0  0  0  0  0  0  0  0  0
    2.6614    2.0364    6.1701 H   0  0  0  0  0  0  0  0  0  0  0  0
    1.3600    2.7497    5.2160 H   0  0  0  0  0  0  0  0  0  0  0  0
   -2.4868    3.0329    5.5495 C   0  0  0  0  0  0  0  0  0  0  0  0
   -3.4257    2.9606    5.0074 H   0  0  0  0  0  0  0  0  0  0  0  0
   -2.7353    3.0960    6.6035 H   0  0  0  0  0  0  0  0  0  0  0  0
   -1.9282    2.1048    5.3959 H   0  0  0  0  0  0  0  0  0  0  0  0
   -0.3995    5.1204    6.4962 C   0  0  0  0  0  0  0  0  0  0  0  0
    0.1428    4.2924    6.9442 H   0  0  0  0  0  0  0  0  0  0  0  0
   -1.0210    5.5626    7.2684 H   0  0  0  0  0  0  0  0  0  0  0  0
    0.3294    5.8660    6.1948 H   0  0  0  0  0  0  0  0  0  0  0  0
   -2.6814    5.9542    4.5766 C   0  0  0  0  0  0  0  0  0  0  0  0
   -3.0515    5.8799    3.5587 H   0  0  0  0  0  0  0  0  0  0  0  0
   -2.2086    6.9237    4.6786 H   0  0  0  0  0  0  0  0  0  0  0  0
   -3.5379    5.9369    5.2431 H   0  0  0  0  0  0  0  0  0  0  0  0
    2.3262    4.6362    2.9742 C   0  0  0  0  0  0  0  0  0  0  0  0
    2.6234    4.8291    4.0017 H   0  0  0  0  0  0  0  0  0  0  0  0
    2.9689    5.2306    2.3327 H   0  0  0  0  0  0  0  0  0  0  0  0
    2.5323    3.5871    2.7516 H   0  0  0  0  0  0  0  0  0  0  0  0
    0.2455    6.9220    2.9333 C   0  0  0  0  0  0  0  0  0  0  0  0
   -0.7419    7.2442    2.6259 H   0  0  0  0  0  0  0  0  0  0  0  0
    0.9717    7.4844    2.3566 H   0  0  0  0  0  0  0  0  0  0  0  0
    0.3706    7.1892    3.9758 H   0  0  0  0  0  0  0  0  0  0  0  0
    0.0989    4.6601    0.8304 C   0  0  0  0  0  0  0  0  0  0  0  0
    0.3523    3.6281    0.5873 H   0  0  0  0  0  0  0  0  0  0  0  0
    0.6911    5.2947    0.1793 H   0  0  0  0  0  0  0  0  0  0  0  0
   -0.9461    4.8231    0.5796 H   0  0  0  0  0  0  0  0  0  0  0  0
  1  9  1  0  0  0  0
  1  8  1  0  0  0  0
  2  1  1  0  0  0  0
  3  8  1  0  0  0  0
  3 26  1  0  0  0  0
  4 34  1  0  0  0  0
  5 42  1  0  0  0  0
  5 46  1  0  0  0  0
  6 58  1  0  0  0  0
  6 54  1  0  0  0  0
  6  9  1  0  0  0  0
  8  4  1  0  0  0  0
  9  5  1  0  0  0  0
 10  7  1  0  0  0  0
 11 10  1  0  0  0  0
 12 14  1  0  0  0  0
 12 10  2  0  0  0  0
 13 12  1  0  0  0  0
 14 16  2  0  0  0  0
 15 14  1  0  0  0  0
 16  7  1  0  0  0  0
 16 17  1  0  0  0  0
 18 19  1  0  0  0  0
 18 20  1  0  0  0  0
 18  3  1  0  0  0  0
 21 18  1  0  0  0  0
 22 25  1  0  0  0  0
 22  3  1  0  0  0  0
 23 22  1  0  0  0  0
 24 22  1  0  0  0  0
 26 27  1  0  0  0  0
 26 29  1  0  0  0  0
 28 26  1  0  0  0  0
 30  4  1  0  0  0  0
 30 31  1  0  0  0  0
 30 32  1  0  0  0  0
 33 30  1  0  0  0  0
 34 35  1  0  0  0  0
 34 37  1  0  0  0  0
 34 36  1  0  0  0  0
 38  4  1  0  0  0  0
 38 40  1  0  0  0  0
 39 38  1  0  0  0  0
 41 38  1  0  0  0  0
 42 44  1  0  0  0  0
 43 42  1  0  0  0  0
 45 42  1  0  0  0  0
 46 47  1  0  0  0  0
 46 48  1  0  0  0  0
 49 46  1  0  0  0  0
 50 52  1  0  0  0  0
 50  5  1  0  0  0  0
 50 53  1  0  0  0  0
 51 50  1  0  0  0  0
 54 55  1  0  0  0  0
 56 54  1  0  0  0  0
 57 54  1  0  0  0  0
 58 61  1  0  0  0  0
 59 58  1  0  0  0  0
 60 58  1  0  0  0  0
 62  6  1  0  0  0  0
 63 62  1  0  0  0  0
 64 62  1  0  0  0  0
 65 62  1  0  0  0  0
M  END
$$$$
