CSD_code = JOGSED | q = 0 | S = 0 | Stoichiometry = C15H25Cl3NiP2 | MND = 4
 OpenBabel04212202053D

 46 46  0  0  0  0  0  0  0  0999 V2000
    2.5833    3.3165    0.3189 Ni  0  0  0  0  0  0  0  0  0  0  0  0
    2.7764    2.5586    2.2904 Cl  0  0  0  0  0  0  0  0  0  0  0  0
    0.0762    3.6726   -0.1792 Cl  0  0  0  0  0  0  0  0  0  0  0  0
    0.0619    4.7180   -2.8882 Cl  0  0  0  0  0  0  0  0  0  0  0  0
    2.7032    1.2829   -0.3992 P   0  0  0  0  0  4  0  0  0  0  0  0
    2.9606    5.2883    1.1192 P   0  0  0  0  0  4  0  0  0  0  0  0
    2.3440    3.9940   -1.4307 C   0  0  0  0  0  0  0  0  0  0  0  0
    1.0330    4.1381   -1.5677 C   0  0  0  0  0  3  0  0  0  0  0  0
    2.5555    0.8811   -2.1836 C   0  0  0  0  0  0  0  0  0  0  0  0
    4.2513    0.4101    0.0343 C   0  0  0  0  0  0  0  0  0  0  0  0
    1.4390    0.1687    0.3101 C   0  0  0  0  0  0  0  0  0  0  0  0
    2.9641    6.7788    0.0487 C   0  0  0  0  0  0  0  0  0  0  0  0
    1.7729    5.7964    2.4132 C   0  0  0  0  0  0  0  0  0  0  0  0
    4.5577    5.4747    1.9916 C   0  0  0  0  0  0  0  0  0  0  0  0
    3.4286    4.2661   -2.3580 C   0  0  0  0  0  0  0  0  0  0  0  0
    3.2751    4.7398   -3.6623 C   0  0  0  0  0  0  0  0  0  0  0  0
    4.3810    4.9586   -4.4596 C   0  0  0  0  0  0  0  0  0  0  0  0
    5.6703    4.7181   -3.9970 C   0  0  0  0  0  0  0  0  0  0  0  0
    5.8269    4.2456   -2.6987 C   0  0  0  0  0  0  0  0  0  0  0  0
    4.7273    4.0242   -1.8972 C   0  0  0  0  0  0  0  0  0  0  0  0
    6.8553    4.9406   -4.8859 C   0  0  0  0  0  0  0  0  0  0  0  0
    2.2910    4.9371   -4.0534 H   0  0  0  0  0  0  0  0  0  0  0  0
    4.2427    5.3260   -5.4670 H   0  0  0  0  0  0  0  0  0  0  0  0
    6.8199    4.0510   -2.3173 H   0  0  0  0  0  0  0  0  0  0  0  0
    4.8521    3.6529   -0.8798 H   0  0  0  0  0  0  0  0  0  0  0  0
    1.5978    1.2368   -2.5584 H   0  0  0  0  0  0  0  0  0  0  0  0
    2.6257   -0.1954   -2.3327 H   0  0  0  0  0  0  0  0  0  0  0  0
    3.3481    1.3791   -2.7387 H   0  0  0  0  0  0  0  0  0  0  0  0
    5.0888    0.8776   -0.4808 H   0  0  0  0  0  0  0  0  0  0  0  0
    4.1798   -0.6367   -0.2592 H   0  0  0  0  0  0  0  0  0  0  0  0
    4.4068    0.4854    1.1090 H   0  0  0  0  0  0  0  0  0  0  0  0
    1.4964    0.2154    1.3961 H   0  0  0  0  0  0  0  0  0  0  0  0
    1.6131   -0.8517   -0.0302 H   0  0  0  0  0  0  0  0  0  0  0  0
    0.4494    0.4957   -0.0055 H   0  0  0  0  0  0  0  0  0  0  0  0
    2.0009    6.8714   -0.4492 H   0  0  0  0  0  0  0  0  0  0  0  0
    3.7360    6.6821   -0.7123 H   0  0  0  0  0  0  0  0  0  0  0  0
    3.1498    7.6698    0.6467 H   0  0  0  0  0  0  0  0  0  0  0  0
    1.7561    5.0382    3.1942 H   0  0  0  0  0  0  0  0  0  0  0  0
    0.7774    5.8793    1.9798 H   0  0  0  0  0  0  0  0  0  0  0  0
    2.0711    6.7574    2.8315 H   0  0  0  0  0  0  0  0  0  0  0  0
    5.3757    5.3662    1.2815 H   0  0  0  0  0  0  0  0  0  0  0  0
    4.6365    4.6956    2.7476 H   0  0  0  0  0  0  0  0  0  0  0  0
    4.6094    6.4563    2.4614 H   0  0  0  0  0  0  0  0  0  0  0  0
    7.7595    5.0891   -4.3001 H   0  0  0  0  0  0  0  0  0  0  0  0
    6.7019    5.8066   -5.5262 H   0  0  0  0  0  0  0  0  0  0  0  0
    7.0071    4.0725   -5.5288 H   0  0  0  0  0  0  0  0  0  0  0  0
  1  6  1  0  0  0  0
  1  2  1  0  0  0  0
  4  8  1  0  0  0  0
  5 10  1  0  0  0  0
  5 11  1  0  0  0  0
  5  1  1  0  0  0  0
  6 14  1  0  0  0  0
  6 13  1  0  0  0  0
  7  1  2  0  0  0  0
  8  7  1  0  0  0  0
  8  3  1  0  0  0  0
  9  5  1  0  0  0  0
 10 31  1  0  0  0  0
 11 32  1  0  0  0  0
 12 37  1  0  0  0  0
 12  6  1  0  0  0  0
 13 40  1  0  0  0  0
 13 38  1  0  0  0  0
 14 43  1  0  0  0  0
 14 42  1  0  0  0  0
 15 20  1  0  0  0  0
 15  7  1  0  0  0  0
 16 15  2  0  0  0  0
 17 18  2  0  0  0  0
 17 16  1  0  0  0  0
 18 19  1  0  0  0  0
 19 24  1  0  0  0  0
 19 20  2  0  0  0  0
 20 25  1  0  0  0  0
 21 44  1  0  0  0  0
 21 18  1  0  0  0  0
 22 16  1  0  0  0  0
 23 17  1  0  0  0  0
 26  9  1  0  0  0  0
 27  9  1  0  0  0  0
 28  9  1  0  0  0  0
 29 10  1  0  0  0  0
 30 10  1  0  0  0  0
 33 11  1  0  0  0  0
 34 11  1  0  0  0  0
 35 12  1  0  0  0  0
 36 12  1  0  0  0  0
 39 13  1  0  0  0  0
 41 14  1  0  0  0  0
 45 21  1  0  0  0  0
 46 21  1  0  0  0  0
M  END
$$$$
