CSD_code = JOGSEE | q = 0 | S = 0 | Stoichiometry = C24H37ClOP2PtSi | MND = 4
 OpenBabel04212202053D

 67 70  0  0  0  0  0  0  0  0999 V2000
    1.3677    4.4773    3.2899 Pt  0  0  2  0  0  0  0  0  0  0  0  0
    0.6232    3.5560    5.4139 Cl  0  0  0  0  0  0  0  0  0  0  0  0
    2.7219    2.7381    2.6693 P   0  0  0  0  0  4  0  0  0  0  0  0
    0.4124    6.5028    3.7251 P   0  0  0  0  0  4  0  0  0  0  0  0
    1.9495    5.3756    1.2449 Si  0  0  1  0  0  0  0  0  0  0  0  0
    1.0949    5.0198   -0.1288 O   0  0  0  0  0  0  0  0  0  0  0  0
    0.1813    5.2811   -0.2162 H   0  0  0  0  0  0  0  0  0  0  0  0
    1.7652    7.2715    1.4345 C   0  0  0  0  0  0  0  0  0  0  0  0
    2.2210    8.1862    0.4998 C   0  0  0  0  0  0  0  0  0  0  0  0
    2.8470    7.8445   -0.3107 H   0  0  0  0  0  0  0  0  0  0  0  0
    1.8774    9.5248    0.5816 C   0  0  0  0  0  0  0  0  0  0  0  0
    2.2481   10.2275   -0.1508 H   0  0  0  0  0  0  0  0  0  0  0  0
    1.0361    9.9580    1.5926 C   0  0  0  0  0  0  0  0  0  0  0  0
    0.7425   10.9965    1.6473 H   0  0  0  0  0  0  0  0  0  0  0  0
    0.5667    9.0574    2.5326 C   0  0  0  0  0  0  0  0  0  0  0  0
   -0.1064    9.4022    3.3039 H   0  0  0  0  0  0  0  0  0  0  0  0
    0.9432    7.7205    2.4713 C   0  0  0  0  0  0  0  0  0  0  0  0
    3.5923    4.5481    0.7571 C   0  0  0  0  0  0  0  0  0  0  0  0
    4.4473    5.0234   -0.2217 C   0  0  0  0  0  0  0  0  0  0  0  0
    4.2302    5.9658   -0.7007 H   0  0  0  0  0  0  0  0  0  0  0  0
    5.5731    4.3097   -0.5948 C   0  0  0  0  0  0  0  0  0  0  0  0
    6.2357    4.6960   -1.3559 H   0  0  0  0  0  0  0  0  0  0  0  0
    5.8454    3.0949    0.0102 C   0  0  0  0  0  0  0  0  0  0  0  0
    6.7191    2.5279   -0.2779 H   0  0  0  0  0  0  0  0  0  0  0  0
    4.9963    2.6029    0.9857 C   0  0  0  0  0  0  0  0  0  0  0  0
    5.2245    1.6504    1.4413 H   0  0  0  0  0  0  0  0  0  0  0  0
    3.8693    3.3222    1.3680 C   0  0  0  0  0  0  0  0  0  0  0  0
    1.1568    7.0845    5.3196 C   0  0  0  0  0  0  0  0  0  0  0  0
    0.8126    6.3395    6.0494 H   0  0  0  0  0  0  0  0  0  0  0  0
    0.7870    8.4811    5.8000 C   0  0  0  0  0  0  0  0  0  0  0  0
    1.1748    8.6312    6.8069 H   0  0  0  0  0  0  0  0  0  0  0  0
   -0.2917    8.6232    5.8309 H   0  0  0  0  0  0  0  0  0  0  0  0
    1.2269    9.2399    5.1561 H   0  0  0  0  0  0  0  0  0  0  0  0
    2.6672    6.9291    5.1430 C   0  0  0  0  0  0  0  0  0  0  0  0
    3.0492    7.6652    4.4357 H   0  0  0  0  0  0  0  0  0  0  0  0
    2.8890    5.9278    4.7514 H   0  0  0  0  0  0  0  0  0  0  0  0
    3.1852    7.0535    6.0920 H   0  0  0  0  0  0  0  0  0  0  0  0
   -1.4247    6.7261    3.8221 C   0  0  0  0  0  0  0  0  0  0  0  0
   -1.6703    7.7947    3.8465 H   0  0  0  0  0  0  0  0  0  0  0  0
   -1.9748    6.1025    2.5404 C   0  0  0  0  0  0  0  0  0  0  0  0
   -1.6590    5.0581    2.4831 H   0  0  0  0  0  0  0  0  0  0  0  0
   -1.5946    6.6293    1.6643 H   0  0  0  0  0  0  0  0  0  0  0  0
   -3.0627    6.1376    2.5237 H   0  0  0  0  0  0  0  0  0  0  0  0
   -1.9730    6.0251    5.0596 C   0  0  0  0  0  0  0  0  0  0  0  0
   -3.0595    5.9672    5.0133 H   0  0  0  0  0  0  0  0  0  0  0  0
   -1.6970    6.5548    5.9690 H   0  0  0  0  0  0  0  0  0  0  0  0
   -1.5756    5.0128    5.1231 H   0  0  0  0  0  0  0  0  0  0  0  0
    3.8521    1.9886    3.9386 C   0  0  0  0  0  0  0  0  0  0  0  0
    4.6390    1.4143    3.4357 H   0  0  0  0  0  0  0  0  0  0  0  0
    4.4737    3.1715    4.6777 C   0  0  0  0  0  0  0  0  0  0  0  0
    3.6875    3.7091    5.2087 H   0  0  0  0  0  0  0  0  0  0  0  0
    4.9596    3.8540    3.9785 H   0  0  0  0  0  0  0  0  0  0  0  0
    5.2100    2.8352    5.4058 H   0  0  0  0  0  0  0  0  0  0  0  0
    3.0935    1.0857    4.9045 C   0  0  0  0  0  0  0  0  0  0  0  0
    3.7335    0.8250    5.7462 H   0  0  0  0  0  0  0  0  0  0  0  0
    2.7738    0.1626    4.4248 H   0  0  0  0  0  0  0  0  0  0  0  0
    2.2186    1.6057    5.2924 H   0  0  0  0  0  0  0  0  0  0  0  0
    1.7628    1.3314    1.9298 C   0  0  0  0  0  0  0  0  0  0  0  0
    1.3198    0.8159    2.7913 H   0  0  0  0  0  0  0  0  0  0  0  0
    2.5941    0.3488    1.1166 C   0  0  0  0  0  0  0  0  0  0  0  0
    1.9595   -0.4578    0.7516 H   0  0  0  0  0  0  0  0  0  0  0  0
    3.3859   -0.0921    1.7193 H   0  0  0  0  0  0  0  0  0  0  0  0
    3.0416    0.8456    0.2578 H   0  0  0  0  0  0  0  0  0  0  0  0
    0.6314    1.9427    1.1076 C   0  0  0  0  0  0  0  0  0  0  0  0
    1.0286    2.4894    0.2544 H   0  0  0  0  0  0  0  0  0  0  0  0
    0.0644    2.6415    1.7332 H   0  0  0  0  0  0  0  0  0  0  0  0
   -0.0461    1.1702    0.7472 H   0  0  0  0  0  0  0  0  0  0  0  0
  1  4  1  0  0  0  0
  1  2  1  6  0  0  0
  3  1  1  0  0  0  0
  3 48  1  0  0  0  0
  4 38  1  0  0  0  0
  4 28  1  0  0  0  0
  5  6  1  6  0  0  0
  5  8  1  0  0  0  0
  5  1  1  0  0  0  0
  7  6  1  0  0  0  0
  8 17  1  0  0  0  0
  9 11  1  0  0  0  0
  9  8  2  0  0  0  0
 10  9  1  0  0  0  0
 11 13  2  0  0  0  0
 12 11  1  0  0  0  0
 13 14  1  0  0  0  0
 13 15  1  0  0  0  0
 15 16  1  0  0  0  0
 17 15  2  0  0  0  0
 17  4  1  0  0  0  0
 18  5  1  0  0  0  0
 18 27  1  0  0  0  0
 19 18  2  0  0  0  0
 20 19  1  0  0  0  0
 21 19  1  0  0  0  0
 21 23  2  0  0  0  0
 22 21  1  0  0  0  0
 23 25  1  0  0  0  0
 24 23  1  0  0  0  0
 25 27  2  0  0  0  0
 25 26  1  0  0  0  0
 27  3  1  0  0  0  0
 28 30  1  0  0  0  0
 28 29  1  0  0  0  0
 30 32  1  0  0  0  0
 30 31  1  0  0  0  0
 33 30  1  0  0  0  0
 34 28  1  0  0  0  0
 34 37  1  0  0  0  0
 35 34  1  0  0  0  0
 36 34  1  0  0  0  0
 38 39  1  0  0  0  0
 38 44  1  0  0  0  0
 40 38  1  0  0  0  0
 41 40  1  0  0  0  0
 42 40  1  0  0  0  0
 43 40  1  0  0  0  0
 44 47  1  0  0  0  0
 44 46  1  0  0  0  0
 45 44  1  0  0  0  0
 48 50  1  0  0  0  0
 48 54  1  0  0  0  0
 49 48  1  0  0  0  0
 50 51  1  0  0  0  0
 50 53  1  0  0  0  0
 52 50  1  0  0  0  0
 54 57  1  0  0  0  0
 54 55  1  0  0  0  0
 56 54  1  0  0  0  0
 58  3  1  0  0  0  0
 58 59  1  0  0  0  0
 60 62  1  0  0  0  0
 60 58  1  0  0  0  0
 61 60  1  0  0  0  0
 63 60  1  0  0  0  0
 64 66  1  0  0  0  0
 64 58  1  0  0  0  0
 65 64  1  0  0  0  0
 67 64  1  0  0  0  0
M  END
$$$$
