CSD_code = JOHLUO | q = 0 | S = 0 | Stoichiometry = C16H16Cl2N4Pd | MND = 4
 OpenBabel04212202053D

 39 42  0  0  1  0  0  0  0  0999 V2000
    6.5041    1.8595   14.2000 Pd  0  0  0  0  0  0  0  0  0  0  0  0
    4.2944    1.8804   14.1442 Cl  0  0  0  0  0  0  0  0  0  0  0  0
    6.4733    0.8303   16.1856 Cl  0  0  0  0  0  0  0  0  0  0  0  0
    8.0800    2.7801   12.0767 N   0  0  0  0  0  0  0  0  0  0  0  0
    6.1414    3.6046   11.6242 N   0  0  0  0  0  0  0  0  0  0  0  0
    8.5304    1.6737   14.0266 N   0  0  0  0  0  0  0  0  0  0  0  0
   10.2658    2.0586   12.4502 N   0  0  0  0  0  0  0  0  0  0  0  0
    6.7750    2.8149   12.4954 C   0  0  0  0  0  0  0  0  0  0  0  0
    7.0169    4.0484   10.6582 C   0  0  0  0  0  0  0  0  0  0  0  0
    6.7032    4.7021    9.8702 H   0  0  0  0  0  0  0  0  0  0  0  0
    8.2354    3.5337   10.9331 C   0  0  0  0  0  0  0  0  0  0  0  0
    9.1819    3.6303   10.4449 H   0  0  0  0  0  0  0  0  0  0  0  0
    9.0172    2.1454   12.8597 C   0  0  2  0  0  3  0  0  0  0  0  0
   11.1185    1.4377   13.2527 C   0  0  0  0  0  0  0  0  0  0  0  0
   12.1367    1.3797   12.8960 H   0  0  0  0  0  0  0  0  0  0  0  0
   10.7208    0.8980   14.4701 C   0  0  0  0  0  0  0  0  0  0  0  0
   11.4157    0.3894   15.1158 H   0  0  0  0  0  0  0  0  0  0  0  0
    9.3896    1.0433   14.8273 C   0  0  0  0  0  0  0  0  0  0  0  0
    8.9755    0.6677   15.7576 H   0  0  0  0  0  0  0  0  0  0  0  0
    4.7849    4.0135   11.7562 C   0  0  0  0  0  0  0  0  0  0  0  0
    4.4424    4.8610   12.8118 C   0  0  0  0  0  0  0  0  0  0  0  0
    3.1214    5.2607   12.9205 C   0  0  0  0  0  0  0  0  0  0  0  0
    2.8338    5.9095   13.7342 H   0  0  0  0  0  0  0  0  0  0  0  0
    2.1536    4.8275   12.0235 C   0  0  0  0  0  0  0  0  0  0  0  0
    2.5245    3.9693   10.9997 C   0  0  0  0  0  0  0  0  0  0  0  0
    1.7752    3.6057   10.3118 H   0  0  0  0  0  0  0  0  0  0  0  0
    3.8359    3.5446   10.8524 C   0  0  0  0  0  0  0  0  0  0  0  0
    5.4644    5.2927   13.8201 C   0  0  0  0  0  0  0  0  0  0  0  0
    5.0594    6.0715   14.4598 H   0  0  0  0  0  0  0  0  0  0  0  0
    6.3691    5.6667   13.3396 H   0  0  0  0  0  0  0  0  0  0  0  0
    5.7380    4.4336   14.4611 H   0  0  0  0  0  0  0  0  0  0  0  0
    0.7288    5.2534   12.1935 C   0  0  0  0  0  0  0  0  0  0  0  0
    0.1485    5.0493   11.2976 H   0  0  0  0  0  0  0  0  0  0  0  0
    0.6673    6.3153   12.4224 H   0  0  0  0  0  0  0  0  0  0  0  0
    0.2822    4.7064   13.0232 H   0  0  0  0  0  0  0  0  0  0  0  0
    4.2228    2.5666    9.7850 C   0  0  0  0  0  0  0  0  0  0  0  0
    3.3404    2.2050    9.2652 H   0  0  0  0  0  0  0  0  0  0  0  0
    4.7337    1.7147   10.2331 H   0  0  0  0  0  0  0  0  0  0  0  0
    4.8921    3.0178    9.0526 H   0  0  0  0  0  0  0  0  0  0  0  0
  1  3  1  0  0  0  0
  2  1  1  0  0  0  0
  4  8  1  0  0  0  0
  4 13  1  0  0  0  0
  5 20  1  0  0  0  0
  5  8  1  0  0  0  0
  6  1  1  0  0  0  0
  6 18  1  0  0  0  0
  7 14  2  0  0  0  0
  8  1  2  0  0  0  0
  9 11  2  0  0  0  0
  9  5  1  0  0  0  0
 10  9  1  0  0  0  0
 11  4  1  0  0  0  0
 12 11  1  0  0  0  0
 13  7  1  1  0  0  0
 13  6  1  0  0  0  0
 14 16  1  0  0  0  0
 15 14  1  0  0  0  0
 16 18  2  0  0  0  0
 16 17  1  0  0  0  0
 18 19  1  0  0  0  0
 20 21  1  0  0  0  0
 21 22  2  0  0  0  0
 21 28  1  0  0  0  0
 22 23  1  0  0  0  0
 24 32  1  0  0  0  0
 24 22  1  0  0  0  0
 25 24  2  0  0  0  0
 26 25  1  0  0  0  0
 27 25  1  0  0  0  0
 27 20  2  0  0  0  0
 28 29  1  0  0  0  0
 28 31  1  0  0  0  0
 30 28  1  0  0  0  0
 32 34  1  0  0  0  0
 32 35  1  0  0  0  0
 33 32  1  0  0  0  0
 36 38  1  0  0  0  0
 36 27  1  0  0  0  0
 37 36  1  0  0  0  0
 39 36  1  0  0  0  0
M  END
$$$$
