CSD_code = JOHMAV | q = 0 | S = 0 | Stoichiometry = C16H16I2N4Pd | MND = 4
 OpenBabel04212202053D

 39 42  0  0  1  0  0  0  0  0999 V2000
    2.5702    4.9726    4.1631 I   0  0  0  0  0  0  0  0  0  0  0  0
    4.6208    5.5948    7.3202 I   0  0  0  0  0  0  0  0  0  0  0  0
    4.3762    6.6176    4.9692 Pd  0  0  0  0  0  0  0  0  0  0  0  0
    6.0619    8.7579    4.2346 N   0  0  0  0  0  0  0  0  0  0  0  0
    5.6017    9.1336    6.3086 N   0  0  0  0  0  0  0  0  0  0  0  0
    5.0604    7.1295    2.9736 N   0  0  0  0  0  0  0  0  0  0  0  0
    6.6448    8.5980    1.9910 N   0  0  0  0  0  0  0  0  0  0  0  0
    5.4380    8.2327    5.3337 C   0  0  1  0  0  3  0  0  0  0  0  0
    6.3435   10.1993    5.8458 C   0  0  0  0  0  0  0  0  0  0  0  0
    6.5791   11.0336    6.4738 H   0  0  0  0  0  0  0  0  0  0  0  0
    6.6404    9.9698    4.5497 C   0  0  0  0  0  0  0  0  0  0  0  0
    7.1837   10.5365    3.8236 H   0  0  0  0  0  0  0  0  0  0  0  0
    5.9388    8.1467    3.0085 C   0  0  1  0  0  3  0  0  0  0  0  0
    6.5003    7.9690    0.8358 C   0  0  0  0  0  0  0  0  0  0  0  0
    7.0870    8.3576    0.0159 H   0  0  0  0  0  0  0  0  0  0  0  0
    5.6484    6.8812    0.6951 C   0  0  0  0  0  0  0  0  0  0  0  0
    5.5385    6.3631   -0.2416 H   0  0  0  0  0  0  0  0  0  0  0  0
    4.9256    6.4939    1.8121 C   0  0  0  0  0  0  0  0  0  0  0  0
    4.2148    5.6758    1.7815 H   0  0  0  0  0  0  0  0  0  0  0  0
    5.0154    9.0603    7.6038 C   0  0  0  0  0  0  0  0  0  0  0  0
    5.8401    8.9609    8.7225 C   0  0  0  0  0  0  0  0  0  0  0  0
    5.2436    8.8939    9.9720 C   0  0  0  0  0  0  0  0  0  0  0  0
    5.8717    8.8009   10.8452 H   0  0  0  0  0  0  0  0  0  0  0  0
    3.8656    8.9134   10.1201 C   0  0  0  0  0  0  0  0  0  0  0  0
    3.0710    9.0028    8.9846 C   0  0  0  0  0  0  0  0  0  0  0  0
    1.9965    8.9979    9.0903 H   0  0  0  0  0  0  0  0  0  0  0  0
    3.6217    9.0740    7.7161 C   0  0  0  0  0  0  0  0  0  0  0  0
    7.3291    8.8750    8.5784 C   0  0  0  0  0  0  0  0  0  0  0  0
    7.7666    9.8541    8.3810 H   0  0  0  0  0  0  0  0  0  0  0  0
    7.5976    8.2082    7.7606 H   0  0  0  0  0  0  0  0  0  0  0  0
    7.7684    8.4863    9.4924 H   0  0  0  0  0  0  0  0  0  0  0  0
    3.2321    8.8027   11.4703 C   0  0  0  0  0  0  0  0  0  0  0  0
    2.4491    9.5494   11.5909 H   0  0  0  0  0  0  0  0  0  0  0  0
    3.9687    8.9289   12.2593 H   0  0  0  0  0  0  0  0  0  0  0  0
    2.7768    7.8187   11.5775 H   0  0  0  0  0  0  0  0  0  0  0  0
    2.7346    9.1205    6.5066 C   0  0  0  0  0  0  0  0  0  0  0  0
    1.7095    9.3334    6.7982 H   0  0  0  0  0  0  0  0  0  0  0  0
    2.7280    8.1334    5.9916 H   0  0  0  0  0  0  0  0  0  0  0  0
    3.0595    9.8826    5.7948 H   0  0  0  0  0  0  0  0  0  0  0  0
  1  3  1  0  0  0  0
  3  8  1  0  0  0  0
  3  2  1  0  0  0  0
  4 11  1  0  0  0  0
  5 20  1  0  0  0  0
  6 13  1  0  0  0  0
  6  3  1  0  0  0  0
  8  4  1  6  0  0  0
  8  5  1  0  0  0  0
  9  5  1  0  0  0  0
  9 10  1  0  0  0  0
 11  9  2  0  0  0  0
 12 11  1  0  0  0  0
 13  7  1  6  0  0  0
 13  4  1  0  0  0  0
 14  7  2  0  0  0  0
 15 14  1  0  0  0  0
 16 14  1  0  0  0  0
 16 18  2  0  0  0  0
 17 16  1  0  0  0  0
 18  6  1  0  0  0  0
 19 18  1  0  0  0  0
 20 27  2  0  0  0  0
 20 21  1  0  0  0  0
 21 22  2  0  0  0  0
 22 24  1  0  0  0  0
 22 23  1  0  0  0  0
 24 32  1  0  0  0  0
 25 26  1  0  0  0  0
 25 24  2  0  0  0  0
 27 25  1  0  0  0  0
 28 21  1  0  0  0  0
 28 31  1  0  0  0  0
 29 28  1  0  0  0  0
 30 28  1  0  0  0  0
 32 35  1  0  0  0  0
 32 33  1  0  0  0  0
 32 34  1  0  0  0  0
 36 37  1  0  0  0  0
 36 27  1  0  0  0  0
 38 36  1  0  0  0  0
 39 36  1  0  0  0  0
M  END
$$$$
