CSD_code = JOHQUU | q = 0 | S = 0 | Stoichiometry = C33H34Cl2Zr | MND = 12
 OpenBabel04212202053D

 70 76  0  0  1  0  0  0  0  0999 V2000
   10.8206    6.4959   12.7929 Zr  0  0  0  0  0  0  0  0  0  0  0  0
   12.5377    4.9254   12.9707 Cl  0  0  0  0  0  0  0  0  0  0  0  0
   12.1387    8.1552   11.8429 Cl  0  0  0  0  0  0  0  0  0  0  0  0
    9.6431    4.5095   11.6757 C   0  0  0  0  0  0  0  0  0  0  0  0
    9.6579    3.2326   12.2679 C   0  0  0  0  0  0  0  0  0  0  0  0
    8.9431    2.9749   13.0390 H   0  0  0  0  0  0  0  0  0  0  0  0
   10.5739    2.3045   11.8291 C   0  0  0  0  0  0  0  0  0  0  0  0
   10.5912    1.3212   12.2754 H   0  0  0  0  0  0  0  0  0  0  0  0
   11.4870    2.6010   10.8100 C   0  0  0  0  0  0  0  0  0  0  0  0
   12.1874    1.8428   10.4952 H   0  0  0  0  0  0  0  0  0  0  0  0
   11.5043    3.8414   10.2106 C   0  0  0  0  0  0  0  0  0  0  0  0
   12.2124    4.0660    9.4252 H   0  0  0  0  0  0  0  0  0  0  0  0
   10.5924    4.8106   10.6340 C   0  0  0  0  0  0  0  0  0  0  0  0
   10.3435    6.1578   10.1971 C   0  0  0  0  0  0  0  0  0  0  0  0
   10.9424    6.9417    9.2068 C   0  0  0  0  0  0  0  0  0  0  0  0
   11.7767    6.5540    8.6386 H   0  0  0  0  0  0  0  0  0  0  0  0
   10.4560    8.2081    8.9695 C   0  0  0  0  0  0  0  0  0  0  0  0
   10.9144    8.8280    8.2148 H   0  0  0  0  0  0  0  0  0  0  0  0
    9.3636    8.7054    9.6916 C   0  0  0  0  0  0  0  0  0  0  0  0
    8.9988    9.6973    9.4689 H   0  0  0  0  0  0  0  0  0  0  0  0
    8.7375    7.9595   10.6631 C   0  0  0  0  0  0  0  0  0  0  0  0
    7.8649    8.3525   11.1675 H   0  0  0  0  0  0  0  0  0  0  0  0
    9.2164    6.6636   10.9517 C   0  0  0  0  0  0  0  0  0  0  0  0
    8.8019    5.6557   11.8947 C   0  0  0  0  0  0  0  0  0  0  0  0
    7.5288    5.6409   12.7069 C   0  0  0  0  0  0  0  0  0  0  0  0
    6.9312    4.7599   12.4492 H   0  0  0  0  0  0  0  0  0  0  0  0
    6.9353    6.5219   12.4528 H   0  0  0  0  0  0  0  0  0  0  0  0
    7.8284    5.6316   14.2260 C   0  0  0  0  0  0  0  0  0  0  0  0
    6.9617    6.0146   14.7745 H   0  0  0  0  0  0  0  0  0  0  0  0
    8.0106    4.6083   14.5663 H   0  0  0  0  0  0  0  0  0  0  0  0
    9.0482    6.4648   14.5045 C   0  0  1  0  0  3  0  0  0  0  0  0
   10.2601    6.0265   15.0861 C   0  0  2  0  0  0  0  0  0  0  0  0
   10.4070    5.0429   15.5201 H   0  0  0  0  0  0  0  0  0  0  0  0
   11.2018    7.0972   15.1261 C   0  0  1  0  0  3  0  0  0  0  0  0
   10.5364    8.2507   14.5742 C   0  0  0  0  0  0  0  0  0  0  0  0
    9.1957    7.8518   14.1952 C   0  0  0  0  0  0  0  0  0  0  0  0
    8.2764    8.8146   13.7316 C   0  0  0  0  0  0  0  0  0  0  0  0
    7.2476    8.5368   13.5451 H   0  0  0  0  0  0  0  0  0  0  0  0
    8.6823   10.1149   13.5853 C   0  0  0  0  0  0  0  0  0  0  0  0
    7.9855   10.8635   13.2389 H   0  0  0  0  0  0  0  0  0  0  0  0
    9.9964   10.4985   13.9006 C   0  0  0  0  0  0  0  0  0  0  0  0
   10.2823   11.5311   13.7700 H   0  0  0  0  0  0  0  0  0  0  0  0
   10.9071    9.6021   14.3966 C   0  0  0  0  0  0  0  0  0  0  0  0
   11.8948    9.9484   14.6615 H   0  0  0  0  0  0  0  0  0  0  0  0
   12.5278    7.0999   15.8719 C   0  0  0  0  0  0  0  0  0  0  0  0
   12.8807    5.6816   16.3382 C   0  0  0  0  0  0  0  0  0  0  0  0
   12.8975    5.0042   15.4868 H   0  0  0  0  0  0  0  0  0  0  0  0
   12.1689    5.3133   17.0720 H   0  0  0  0  0  0  0  0  0  0  0  0
   13.8695    5.6748   16.7875 H   0  0  0  0  0  0  0  0  0  0  0  0
   13.6397    7.5698   14.9158 C   0  0  0  0  0  0  0  0  0  0  0  0
   13.6328    6.9614   14.0087 H   0  0  0  0  0  0  0  0  0  0  0  0
   14.6150    7.4600   15.3837 H   0  0  0  0  0  0  0  0  0  0  0  0
   13.5150    8.6105   14.6285 H   0  0  0  0  0  0  0  0  0  0  0  0
   12.3950    8.0779   17.0797 C   0  0  0  0  0  0  0  0  0  0  0  0
   12.2467    9.0790   16.6641 H   0  0  0  0  0  0  0  0  0  0  0  0
   11.1766    7.7731   17.9580 C   0  0  0  0  0  0  0  0  0  0  0  0
   11.3068    6.8097   18.4540 H   0  0  0  0  0  0  0  0  0  0  0  0
   10.2748    7.7211   17.3459 H   0  0  0  0  0  0  0  0  0  0  0  0
   11.0027    8.8547   19.0209 C   0  0  0  0  0  0  0  0  0  0  0  0
   10.8241    9.8154   18.5322 H   0  0  0  0  0  0  0  0  0  0  0  0
   10.1306    8.6282   19.6384 H   0  0  0  0  0  0  0  0  0  0  0  0
   12.2478    8.9537   19.8956 C   0  0  0  0  0  0  0  0  0  0  0  0
   12.1261    9.7505   20.6324 H   0  0  0  0  0  0  0  0  0  0  0  0
   12.3848    8.0151   20.4378 H   0  0  0  0  0  0  0  0  0  0  0  0
   13.4760    9.2218   19.0330 C   0  0  0  0  0  0  0  0  0  0  0  0
   14.3699    9.2604   19.6596 H   0  0  0  0  0  0  0  0  0  0  0  0
   13.3696   10.1930   18.5439 H   0  0  0  0  0  0  0  0  0  0  0  0
   13.6365    8.1334   17.9735 C   0  0  0  0  0  0  0  0  0  0  0  0
   14.5263    8.3434   17.3796 H   0  0  0  0  0  0  0  0  0  0  0  0
   13.7780    7.1753   18.4753 H   0  0  0  0  0  0  0  0  0  0  0  0
  1  2  1  0  0  0  0
  1 32  1  0  0  0  0
  3  1  1  0  0  0  0
  4 24  1  0  0  0  0
  4  5  1  0  0  0  0
  5  6  1  0  0  0  0
  7  5  2  0  0  0  0
  7  8  1  0  0  0  0
  9  7  1  0  0  0  0
 10  9  1  0  0  0  0
 11 13  1  0  0  0  0
 11  9  2  0  0  0  0
 12 11  1  0  0  0  0
 13  4  2  0  0  0  0
 14 13  1  0  0  0  0
 14 23  1  0  0  0  0
 15 14  2  0  0  0  0
 16 15  1  0  0  0  0
 17 15  1  0  0  0  0
 17 19  2  0  0  0  0
 18 17  1  0  0  0  0
 19 21  1  0  0  0  0
 20 19  1  0  0  0  0
 21 23  2  0  0  0  0
 21 22  1  0  0  0  0
 23 24  1  0  0  0  0
 24 25  1  0  0  0  0
 24  1  1  0  0  0  0
 25 28  1  0  0  0  0
 26 25  1  0  0  0  0
 27 25  1  0  0  0  0
 28 31  1  0  0  0  0
 28 30  1  0  0  0  0
 28 29  1  0  0  0  0
 31 36  1  6  0  0  0
 31 32  1  0  0  0  0
 32 34  1  0  0  0  0
 32 33  1  1  0  0  0
 34 45  1  1  0  0  0
 35 34  1  0  0  0  0
 36 35  2  0  0  0  0
 37 36  1  0  0  0  0
 38 37  1  0  0  0  0
 39 37  2  0  0  0  0
 39 41  1  0  0  0  0
 40 39  1  0  0  0  0
 41 43  2  0  0  0  0
 42 41  1  0  0  0  0
 43 35  1  0  0  0  0
 43 44  1  0  0  0  0
 45 46  1  0  0  0  0
 45 54  1  0  0  0  0
 46 49  1  0  0  0  0
 46 48  1  0  0  0  0
 47 46  1  0  0  0  0
 50 52  1  0  0  0  0
 50 45  1  0  0  0  0
 51 50  1  0  0  0  0
 53 50  1  0  0  0  0
 54 56  1  0  0  0  0
 54 68  1  0  0  0  0
 55 54  1  0  0  0  0
 56 57  1  0  0  0  0
 56 59  1  0  0  0  0
 58 56  1  0  0  0  0
 59 61  1  0  0  0  0
 59 62  1  0  0  0  0
 60 59  1  0  0  0  0
 62 64  1  0  0  0  0
 62 63  1  0  0  0  0
 65 66  1  0  0  0  0
 65 62  1  0  0  0  0
 67 65  1  0  0  0  0
 68 70  1  0  0  0  0
 68 65  1  0  0  0  0
 69 68  1  0  0  0  0
M  END
$$$$
