CSD_code = JOHSII | q = 0 | S = 0 | Stoichiometry = C9H10ClO4ReS | MND = 6
 OpenBabel04212202053D

 26 26  0  0  0  0  0  0  0  0999 V2000
    8.6919    1.3245   14.9620 Re  0  0  0  0  0  0  0  0  0  0  0  0
    6.9678   -0.0644   14.0664 Cl  0  0  0  0  0  0  0  0  0  0  0  0
    8.3057    2.7677   12.6795 S   0  0  0  0  0  3  0  0  0  0  0  0
    8.9643   -0.4531   17.4865 O   0  0  0  0  0  1  0  0  0  0  0  0
   10.8752    3.3736   15.7486 O   0  0  0  0  0  1  0  0  0  0  0  0
   10.3142   -0.5677   13.1342 O   0  0  0  0  0  1  0  0  0  0  0  0
    6.1507    2.7831   15.9458 O   0  0  0  0  0  1  0  0  0  0  0  0
    8.0730    1.5847   11.3003 C   0  0  0  0  0  0  0  0  0  0  0  0
    6.6647    2.1255   10.9957 C   0  0  0  0  0  0  0  0  0  0  0  0
    6.5038    2.8283   12.3554 C   0  0  0  0  0  0  0  0  0  0  0  0
    5.6359    1.0319   10.7537 C   0  0  0  0  0  0  0  0  0  0  0  0
    6.6926    3.1315    9.8521 C   0  0  0  0  0  0  0  0  0  0  0  0
    8.8930    0.2250   16.5702 C   0  0  0  0  0  2  0  0  0  0  0  0
   10.0734    2.6047   15.4800 C   0  0  0  0  0  2  0  0  0  0  0  0
    9.8366    0.1545   13.8673 C   0  0  0  0  0  2  0  0  0  0  0  0
    7.1506    2.3167   15.6818 C   0  0  0  0  0  2  0  0  0  0  0  0
    8.8244    1.7049   10.5236 H   0  0  0  0  0  0  0  0  0  0  0  0
    8.0564    0.5621   11.6721 H   0  0  0  0  0  0  0  0  0  0  0  0
    5.9647    2.2196   13.0788 H   0  0  0  0  0  0  0  0  0  0  0  0
    6.1220    3.8463   12.3405 H   0  0  0  0  0  0  0  0  0  0  0  0
    4.6417    1.4634   10.6604 H   0  0  0  0  0  0  0  0  0  0  0  0
    5.8679    0.4920    9.8383 H   0  0  0  0  0  0  0  0  0  0  0  0
    5.6318    0.3262   11.5816 H   0  0  0  0  0  0  0  0  0  0  0  0
    5.7180    3.6015    9.7399 H   0  0  0  0  0  0  0  0  0  0  0  0
    7.4325    3.9073   10.0410 H   0  0  0  0  0  0  0  0  0  0  0  0
    6.9430    2.6334    8.9179 H   0  0  0  0  0  0  0  0  0  0  0  0
  1 14  1  0  0  0  0
  1 16  1  0  0  0  0
  1 13  1  0  0  0  0
  2  1  1  0  0  0  0
  3  1  1  0  0  0  0
  6 15  1  0  0  0  0
  8 18  1  0  0  0  0
  8  3  1  0  0  0  0
  9  8  1  0  0  0  0
  9 10  1  0  0  0  0
 10  3  1  0  0  0  0
 10 19  1  0  0  0  0
 11  9  1  0  0  0  0
 11 23  1  0  0  0  0
 12 25  1  0  0  0  0
 12  9  1  0  0  0  0
 13  4  1  0  0  0  0
 14  5  1  0  0  0  0
 15  1  1  0  0  0  0
 16  7  1  0  0  0  0
 17  8  1  0  0  0  0
 20 10  1  0  0  0  0
 21 11  1  0  0  0  0
 22 11  1  0  0  0  0
 24 12  1  0  0  0  0
 26 12  1  0  0  0  0
M  END
$$$$
