CSD_code = JOHXOV | q = 0 | S = 0 | Stoichiometry = C21H30BCl2N2PPt | MND = 4
 OpenBabel04212202053D

 58 60  0  0  1  0  0  0  0  0999 V2000
   -0.3031    3.7323    2.6102 Pt  0  0  0  0  0  0  0  0  0  0  0  0
   -1.6269    2.7747    4.2742 Cl  0  0  0  0  0  0  0  0  0  0  0  0
    0.8243    4.7395    0.8247 Cl  0  0  0  0  0  0  0  0  0  0  0  0
    0.6869    1.7216    2.2178 P   0  0  0  0  0  4  0  0  0  0  0  0
   -1.2474    5.4737    2.9434 N   0  0  0  0  0  0  0  0  0  0  0  0
    2.4617    4.1255    6.1859 N   0  0  0  0  0  0  0  0  0  0  0  0
    0.3668    5.5066    4.7958 B   0  0  0  0  0  0  0  0  0  0  0  0
   -2.2663    5.8899    2.1917 C   0  0  1  0  0  3  0  0  0  0  0  0
   -2.8876    7.1032    2.4549 C   0  0  0  0  0  0  0  0  0  0  0  0
   -3.7062    7.4312    1.8331 H   0  0  0  0  0  0  0  0  0  0  0  0
   -2.4459    7.8743    3.5172 C   0  0  0  0  0  0  0  0  0  0  0  0
   -2.9170    8.8213    3.7373 H   0  0  0  0  0  0  0  0  0  0  0  0
   -1.4025    7.4051    4.2950 C   0  0  0  0  0  0  0  0  0  0  0  0
   -1.0383    7.9717    5.1382 H   0  0  0  0  0  0  0  0  0  0  0  0
   -0.8056    6.1850    3.9882 C   0  0  0  0  0  0  0  0  0  0  0  0
   -2.6923    5.0029    1.0678 C   0  0  0  0  0  0  0  0  0  0  0  0
   -2.7480    3.9678    1.4172 H   0  0  0  0  0  0  0  0  0  0  0  0
   -1.9501    5.0525    0.2688 H   0  0  0  0  0  0  0  0  0  0  0  0
   -3.6586    5.3041    0.6713 H   0  0  0  0  0  0  0  0  0  0  0  0
    1.7174    5.2252    4.1789 C   0  0  0  0  0  0  0  0  0  0  0  0
    2.0295    5.5540    3.1971 H   0  0  0  0  0  0  0  0  0  0  0  0
    2.6500    4.5667    4.9177 C   0  0  0  0  0  0  0  0  0  0  0  0
    3.6340    4.3542    4.5167 H   0  0  0  0  0  0  0  0  0  0  0  0
    1.2690    4.3119    6.8579 C   0  0  0  0  0  0  0  0  0  0  0  0
    0.2009    4.9987    6.2336 C   0  0  0  0  0  0  0  0  0  0  0  0
   -0.9930    5.1517    6.9554 C   0  0  0  0  0  0  0  0  0  0  0  0
   -1.8152    5.6608    6.4745 H   0  0  0  0  0  0  0  0  0  0  0  0
   -1.1440    4.6653    8.2300 C   0  0  0  0  0  0  0  0  0  0  0  0
   -2.0751    4.7907    8.7619 H   0  0  0  0  0  0  0  0  0  0  0  0
   -0.0828    3.9956    8.8325 C   0  0  0  0  0  0  0  0  0  0  0  0
   -0.1912    3.6039    9.8336 H   0  0  0  0  0  0  0  0  0  0  0  0
    1.1042    3.8195    8.1624 C   0  0  0  0  0  0  0  0  0  0  0  0
    1.8990    3.2892    8.6612 H   0  0  0  0  0  0  0  0  0  0  0  0
    3.5460    3.4261    6.8384 C   0  0  0  0  0  0  0  0  0  0  0  0
    4.4026    3.3778    6.1691 H   0  0  0  0  0  0  0  0  0  0  0  0
    3.2512    2.4061    7.0943 H   0  0  0  0  0  0  0  0  0  0  0  0
    3.8517    3.9481    7.7479 H   0  0  0  0  0  0  0  0  0  0  0  0
    0.7802    0.5175    3.6073 C   0  0  0  0  0  0  0  0  0  0  0  0
   -0.2515    0.3078    3.8983 H   0  0  0  0  0  0  0  0  0  0  0  0
    1.2375   -0.4112    3.2558 H   0  0  0  0  0  0  0  0  0  0  0  0
    1.5318    1.0953    4.7976 C   0  0  0  0  0  0  0  0  0  0  0  0
    1.5391    0.3874    5.6249 H   0  0  0  0  0  0  0  0  0  0  0  0
    1.0304    2.0048    5.1239 H   0  0  0  0  0  0  0  0  0  0  0  0
    2.5605    1.3334    4.5327 H   0  0  0  0  0  0  0  0  0  0  0  0
    2.4057    1.8216    1.5581 C   0  0  0  0  0  0  0  0  0  0  0  0
    2.3430    2.4532    0.6688 H   0  0  0  0  0  0  0  0  0  0  0  0
    2.9848    2.3823    2.2975 H   0  0  0  0  0  0  0  0  0  0  0  0
    3.0894    0.5006    1.2337 C   0  0  0  0  0  0  0  0  0  0  0  0
    4.0738    0.6927    0.8102 H   0  0  0  0  0  0  0  0  0  0  0  0
    2.5178   -0.0695    0.5055 H   0  0  0  0  0  0  0  0  0  0  0  0
    3.2212   -0.1087    2.1250 H   0  0  0  0  0  0  0  0  0  0  0  0
   -0.2530    0.7335    0.9795 C   0  0  0  0  0  0  0  0  0  0  0  0
    0.1908   -0.2608    0.8784 H   0  0  0  0  0  0  0  0  0  0  0  0
   -1.2563    0.6143    1.4005 H   0  0  0  0  0  0  0  0  0  0  0  0
   -0.3332    1.4464   -0.3650 C   0  0  0  0  0  0  0  0  0  0  0  0
   -1.0571    0.9613   -1.0168 H   0  0  0  0  0  0  0  0  0  0  0  0
    0.6328    1.4477   -0.8643 H   0  0  0  0  0  0  0  0  0  0  0  0
   -0.6347    2.4828   -0.2164 H   0  0  0  0  0  0  0  0  0  0  0  0
  1  5  1  0  0  0  0
  1  2  1  0  0  0  0
  3  1  1  0  0  0  0
  4  1  1  0  0  0  0
  4 38  1  0  0  0  0
  5 15  1  0  0  0  0
  6 34  1  0  0  0  0
  6 24  1  0  0  0  0
  7 25  1  0  0  0  0
  8 16  1  6  0  0  0
  8  9  1  0  0  0  0
  8  5  1  0  0  0  0
  9 11  2  0  0  0  0
 10  9  1  0  0  0  0
 11 12  1  0  0  0  0
 11 13  1  0  0  0  0
 13 14  1  0  0  0  0
 15 13  2  0  0  0  0
 15  7  1  0  0  0  0
 16 17  1  0  0  0  0
 18 16  1  0  0  0  0
 19 16  1  0  0  0  0
 20  7  1  0  0  0  0
 20 22  2  0  0  0  0
 21 20  1  0  0  0  0
 22  6  1  0  0  0  0
 23 22  1  0  0  0  0
 24 32  1  0  0  0  0
 25 24  2  0  0  0  0
 25 26  1  0  0  0  0
 26 28  2  0  0  0  0
 27 26  1  0  0  0  0
 28 29  1  0  0  0  0
 28 30  1  0  0  0  0
 30 31  1  0  0  0  0
 32 33  1  0  0  0  0
 32 30  2  0  0  0  0
 34 36  1  0  0  0  0
 34 37  1  0  0  0  0
 35 34  1  0  0  0  0
 38 39  1  0  0  0  0
 38 41  1  0  0  0  0
 40 38  1  0  0  0  0
 41 43  1  0  0  0  0
 41 42  1  0  0  0  0
 44 41  1  0  0  0  0
 45  4  1  0  0  0  0
 45 47  1  0  0  0  0
 46 45  1  0  0  0  0
 48 45  1  0  0  0  0
 48 51  1  0  0  0  0
 49 48  1  0  0  0  0
 50 48  1  0  0  0  0
 52 54  1  0  0  0  0
 52  4  1  0  0  0  0
 53 52  1  0  0  0  0
 55 58  1  0  0  0  0
 55 52  1  0  0  0  0
 56 55  1  0  0  0  0
 57 55  1  0  0  0  0
M  END
$$$$
