CSD_code = JOHYUC | q = 0 | S = 0 | Stoichiometry = C33H30ClN2PPdS | MND = 4
 OpenBabel04212202053D

 69 74  0  0  0  0  0  0  0  0999 V2000
    8.7124    4.5330    6.2919 Pd  0  0  1  0  0  0  0  0  0  0  0  0
    8.1019    3.8938    8.4240 Cl  0  0  0  0  0  0  0  0  0  0  0  0
    9.7690    2.8174    5.8458 N   0  0  0  0  0  0  0  0  0  0  0  0
   11.0809    3.8802    2.7137 N   0  0  0  0  0  2  0  0  0  0  0  0
    7.5566    6.3542    6.8085 P   0  0  0  0  0  4  0  0  0  0  0  0
    9.2996    5.2302    4.1864 S   0  0  0  0  0  0  0  0  0  0  0  0
    9.8181    1.7707    6.6677 C   0  0  0  0  0  0  0  0  0  0  0  0
    9.2606    1.8619    7.5946 H   0  0  0  0  0  0  0  0  0  0  0  0
   10.5399    0.6266    6.3757 C   0  0  0  0  0  0  0  0  0  0  0  0
   10.5459   -0.1950    7.0738 H   0  0  0  0  0  0  0  0  0  0  0  0
   11.2460    0.5653    5.1826 C   0  0  0  0  0  0  0  0  0  0  0  0
   11.8224   -0.3106    4.9251 H   0  0  0  0  0  0  0  0  0  0  0  0
   11.1944    1.6497    4.3298 C   0  0  0  0  0  0  0  0  0  0  0  0
   11.7173    1.6734    3.3874 H   0  0  0  0  0  0  0  0  0  0  0  0
   10.4415    2.7686    4.6858 C   0  0  0  0  0  0  0  0  0  0  0  0
   10.3705    3.9156    3.7676 C   0  0  0  0  0  0  0  0  0  0  0  0
   11.1028    4.8935    1.7653 C   0  0  0  0  0  0  0  0  0  0  0  0
   12.0963    5.8759    1.8349 C   0  0  0  0  0  0  0  0  0  0  0  0
   12.1675    6.8285    0.8349 C   0  0  0  0  0  0  0  0  0  0  0  0
   12.9318    7.5918    0.8898 H   0  0  0  0  0  0  0  0  0  0  0  0
   11.2808    6.8292   -0.2340 C   0  0  0  0  0  0  0  0  0  0  0  0
   10.3043    5.8467   -0.2833 C   0  0  0  0  0  0  0  0  0  0  0  0
    9.6019    5.8339   -1.1056 H   0  0  0  0  0  0  0  0  0  0  0  0
   10.1986    4.8771    0.7003 C   0  0  0  0  0  0  0  0  0  0  0  0
   13.0388    5.8868    3.0013 C   0  0  0  0  0  0  0  0  0  0  0  0
   12.4952    6.1088    3.9208 H   0  0  0  0  0  0  0  0  0  0  0  0
   13.8150    6.6359    2.8669 H   0  0  0  0  0  0  0  0  0  0  0  0
   13.5018    4.9076    3.1211 H   0  0  0  0  0  0  0  0  0  0  0  0
   11.3916    7.8727   -1.3064 C   0  0  0  0  0  0  0  0  0  0  0  0
   11.3704    8.8714   -0.8720 H   0  0  0  0  0  0  0  0  0  0  0  0
   10.5748    7.7859   -2.0187 H   0  0  0  0  0  0  0  0  0  0  0  0
   12.3327    7.7644   -1.8457 H   0  0  0  0  0  0  0  0  0  0  0  0
    9.1281    3.8280    0.6527 C   0  0  0  0  0  0  0  0  0  0  0  0
    9.5612    2.8371    0.7876 H   0  0  0  0  0  0  0  0  0  0  0  0
    8.5964    3.8594   -0.2951 H   0  0  0  0  0  0  0  0  0  0  0  0
    8.4108    3.9893    1.4585 H   0  0  0  0  0  0  0  0  0  0  0  0
    5.9059    5.8191    7.3350 C   0  0  0  0  0  0  0  0  0  0  0  0
    5.4216    4.7265    6.6137 C   0  0  0  0  0  0  0  0  0  0  0  0
    6.0548    4.2838    5.8329 H   0  0  0  0  0  0  0  0  0  0  0  0
    4.1779    4.2024    6.9033 C   0  0  0  0  0  0  0  0  0  0  0  0
    3.8023    3.3546    6.3497 H   0  0  0  0  0  0  0  0  0  0  0  0
    3.4177    4.7598    7.9216 C   0  0  0  0  0  0  0  0  0  0  0  0
    2.4487    4.3454    8.1570 H   0  0  0  0  0  0  0  0  0  0  0  0
    3.9052    5.8316    8.6494 C   0  0  0  0  0  0  0  0  0  0  0  0
    3.3173    6.2498    9.4533 H   0  0  0  0  0  0  0  0  0  0  0  0
    5.1499    6.3673    8.3600 C   0  0  0  0  0  0  0  0  0  0  0  0
    5.5373    7.1891    8.9435 H   0  0  0  0  0  0  0  0  0  0  0  0
    8.4003    7.3264    8.0844 C   0  0  0  0  0  0  0  0  0  0  0  0
    9.6564    6.8833    8.4905 C   0  0  0  0  0  0  0  0  0  0  0  0
   10.0634    5.9607    8.0598 H   0  0  0  0  0  0  0  0  0  0  0  0
   10.3712    7.6031    9.4305 C   0  0  0  0  0  0  0  0  0  0  0  0
   11.3426    7.2586    9.7525 H   0  0  0  0  0  0  0  0  0  0  0  0
    9.8378    8.7678    9.9590 C   0  0  0  0  0  0  0  0  0  0  0  0
   10.3917    9.3262   10.6990 H   0  0  0  0  0  0  0  0  0  0  0  0
    8.6021    9.2281    9.5313 C   0  0  0  0  0  0  0  0  0  0  0  0
    8.2006   10.1476    9.9317 H   0  0  0  0  0  0  0  0  0  0  0  0
    7.8849    8.5173    8.5864 C   0  0  0  0  0  0  0  0  0  0  0  0
    6.9364    8.8894    8.2237 H   0  0  0  0  0  0  0  0  0  0  0  0
    7.2315    7.6192    5.5421 C   0  0  0  0  0  0  0  0  0  0  0  0
    5.9617    7.9126    5.0621 C   0  0  0  0  0  0  0  0  0  0  0  0
    5.0987    7.4004    5.4652 H   0  0  0  0  0  0  0  0  0  0  0  0
    5.8085    8.8614    4.0654 C   0  0  0  0  0  0  0  0  0  0  0  0
    4.8210    9.0906    3.6921 H   0  0  0  0  0  0  0  0  0  0  0  0
    6.9149    9.5080    3.5415 C   0  0  0  0  0  0  0  0  0  0  0  0
    6.7898   10.2395    2.7568 H   0  0  0  0  0  0  0  0  0  0  0  0
    8.1842    9.2121    4.0153 C   0  0  0  0  0  0  0  0  0  0  0  0
    9.0476    9.7093    3.5994 H   0  0  0  0  0  0  0  0  0  0  0  0
    8.3429    8.2718    5.0134 C   0  0  0  0  0  0  0  0  0  0  0  0
    9.3284    8.0206    5.3871 H   0  0  0  0  0  0  0  0  0  0  0  0
  1  5  1  0  0  0  0
  1  2  1  1  0  0  0
  3  1  1  0  0  0  0
  3  7  1  0  0  0  0
  4 16  1  0  0  0  0
  5 37  1  0  0  0  0
  5 48  1  0  0  0  0
  6  1  1  0  0  0  0
  7  8  1  0  0  0  0
  9  7  2  0  0  0  0
  9 10  1  0  0  0  0
 11  9  1  0  0  0  0
 12 11  1  0  0  0  0
 13 15  1  0  0  0  0
 13 11  2  0  0  0  0
 14 13  1  0  0  0  0
 15  3  1  0  0  0  0
 16  6  1  0  0  0  0
 16 15  2  0  0  0  0
 17 18  1  0  0  0  0
 17  4  1  0  0  0  0
 18 25  1  0  0  0  0
 19 20  1  0  0  0  0
 19 18  2  0  0  0  0
 21 19  1  0  0  0  0
 22 21  2  0  0  0  0
 22 24  1  0  0  0  0
 23 22  1  0  0  0  0
 24 17  2  0  0  0  0
 25 28  1  0  0  0  0
 25 26  1  0  0  0  0
 27 25  1  0  0  0  0
 29 30  1  0  0  0  0
 29 21  1  0  0  0  0
 31 29  1  0  0  0  0
 32 29  1  0  0  0  0
 33 24  1  0  0  0  0
 33 34  1  0  0  0  0
 33 36  1  0  0  0  0
 35 33  1  0  0  0  0
 37 46  1  0  0  0  0
 38 40  1  0  0  0  0
 38 37  2  0  0  0  0
 39 38  1  0  0  0  0
 40 42  2  0  0  0  0
 41 40  1  0  0  0  0
 42 43  1  0  0  0  0
 42 44  1  0  0  0  0
 44 45  1  0  0  0  0
 46 44  2  0  0  0  0
 46 47  1  0  0  0  0
 48 49  2  0  0  0  0
 48 57  1  0  0  0  0
 49 51  1  0  0  0  0
 50 49  1  0  0  0  0
 51 52  1  0  0  0  0
 51 53  2  0  0  0  0
 53 54  1  0  0  0  0
 55 56  1  0  0  0  0
 55 53  1  0  0  0  0
 57 55  2  0  0  0  0
 58 57  1  0  0  0  0
 59  5  1  0  0  0  0
 60 61  1  0  0  0  0
 60 59  1  0  0  0  0
 62 60  2  0  0  0  0
 63 62  1  0  0  0  0
 64 66  2  0  0  0  0
 64 62  1  0  0  0  0
 65 64  1  0  0  0  0
 66 68  1  0  0  0  0
 67 66  1  0  0  0  0
 68 69  1  0  0  0  0
 68 59  2  0  0  0  0
M  END
$$$$
