CSD_code = JOJJEZ | q = 0 | S = 0 | Stoichiometry = C31H26ClN2PPdS | MND = 4
 OpenBabel04212202053D

 63 68  0  0  0  0  0  0  0  0999 V2000
    5.4181    1.9444   14.1678 Pd  0  0  2  0  0  0  0  0  0  0  0  0
    6.4554    3.9091   13.6011 S   0  0  0  0  0  0  0  0  0  0  0  0
    4.3173   -0.0018   14.7405 Cl  0  0  0  0  0  0  0  0  0  0  0  0
    7.3163    1.2551   14.5788 N   0  0  0  0  0  0  0  0  0  0  0  0
    9.1149    4.2511   13.9162 N   0  0  0  0  0  2  0  0  0  0  0  0
    3.3554    2.6447   13.7454 P   0  0  0  0  0  4  0  0  0  0  0  0
    7.5499    0.0044   14.9731 C   0  0  0  0  0  0  0  0  0  0  0  0
    6.6829   -0.6444   15.0490 H   0  0  0  0  0  0  0  0  0  0  0  0
    8.8176   -0.4580   15.2779 C   0  0  0  0  0  0  0  0  0  0  0  0
    8.9536   -1.4803   15.5924 H   0  0  0  0  0  0  0  0  0  0  0  0
    9.8919    0.4147   15.1719 C   0  0  0  0  0  0  0  0  0  0  0  0
   10.8947    0.0886   15.4041 H   0  0  0  0  0  0  0  0  0  0  0  0
    9.6509    1.7100   14.7622 C   0  0  0  0  0  0  0  0  0  0  0  0
   10.4353    2.4415   14.6562 H   0  0  0  0  0  0  0  0  0  0  0  0
    8.3461    2.1092   14.4669 C   0  0  0  0  0  0  0  0  0  0  0  0
    8.0960    3.4881   14.0190 C   0  0  0  0  0  0  0  0  0  0  0  0
    9.1169    5.5863   13.5951 C   0  0  0  0  0  0  0  0  0  0  0  0
   10.1471    6.0437   12.7681 C   0  0  0  0  0  0  0  0  0  0  0  0
   10.8364    5.3192   12.3591 H   0  0  0  0  0  0  0  0  0  0  0  0
   10.2700    7.3842   12.4540 C   0  0  0  0  0  0  0  0  0  0  0  0
    9.3646    8.2895   13.0003 C   0  0  0  0  0  0  0  0  0  0  0  0
    9.4560    9.3409   12.7677 H   0  0  0  0  0  0  0  0  0  0  0  0
    8.3581    7.8515   13.8423 C   0  0  0  0  0  0  0  0  0  0  0  0
    7.6680    8.5645   14.2709 H   0  0  0  0  0  0  0  0  0  0  0  0
    8.2214    6.5102   14.1383 C   0  0  0  0  0  0  0  0  0  0  0  0
    7.4448    6.1729   14.8073 H   0  0  0  0  0  0  0  0  0  0  0  0
   11.3569    7.8662   11.5397 C   0  0  0  0  0  0  0  0  0  0  0  0
   10.9307    8.1986   10.5930 H   0  0  0  0  0  0  0  0  0  0  0  0
   12.0732    7.0747   11.3348 H   0  0  0  0  0  0  0  0  0  0  0  0
   11.8829    8.7105   11.9825 H   0  0  0  0  0  0  0  0  0  0  0  0
    2.4102    2.8279   15.2813 C   0  0  0  0  0  0  0  0  0  0  0  0
    3.0977    2.6215   16.4746 C   0  0  0  0  0  0  0  0  0  0  0  0
    4.1524    2.3216   16.4401 H   0  0  0  0  0  0  0  0  0  0  0  0
    2.4478    2.7908   17.6835 C   0  0  0  0  0  0  0  0  0  0  0  0
    2.9768    2.6259   18.6105 H   0  0  0  0  0  0  0  0  0  0  0  0
    1.1159    3.1729   17.7031 C   0  0  0  0  0  0  0  0  0  0  0  0
    0.6055    3.2979   18.6466 H   0  0  0  0  0  0  0  0  0  0  0  0
    0.4390    3.4100   16.5169 C   0  0  0  0  0  0  0  0  0  0  0  0
   -0.5935    3.7268   16.5388 H   0  0  0  0  0  0  0  0  0  0  0  0
    1.0847    3.2502   15.3044 C   0  0  0  0  0  0  0  0  0  0  0  0
    0.5718    3.4670   14.3772 H   0  0  0  0  0  0  0  0  0  0  0  0
    2.5919    1.4604   12.6044 C   0  0  0  0  0  0  0  0  0  0  0  0
    3.4807    0.9606   11.6511 C   0  0  0  0  0  0  0  0  0  0  0  0
    4.5260    1.2965   11.6734 H   0  0  0  0  0  0  0  0  0  0  0  0
    3.0490    0.0387   10.7188 C   0  0  0  0  0  0  0  0  0  0  0  0
    3.7352   -0.3527    9.9824 H   0  0  0  0  0  0  0  0  0  0  0  0
    1.7317   -0.3969   10.7426 C   0  0  0  0  0  0  0  0  0  0  0  0
    1.3941   -1.1261   10.0211 H   0  0  0  0  0  0  0  0  0  0  0  0
    0.8548    0.0846   11.6992 C   0  0  0  0  0  0  0  0  0  0  0  0
   -0.1645   -0.2721   11.7250 H   0  0  0  0  0  0  0  0  0  0  0  0
    1.2789    1.0157   12.6337 C   0  0  0  0  0  0  0  0  0  0  0  0
    0.5993    1.3721   13.3933 H   0  0  0  0  0  0  0  0  0  0  0  0
    3.0841    4.2630   12.9597 C   0  0  0  0  0  0  0  0  0  0  0  0
    2.5413    4.4163   11.6906 C   0  0  0  0  0  0  0  0  0  0  0  0
    2.2256    3.5481   11.1284 H   0  0  0  0  0  0  0  0  0  0  0  0
    2.4091    5.6844   11.1507 C   0  0  0  0  0  0  0  0  0  0  0  0
    1.9860    5.8046   10.1640 H   0  0  0  0  0  0  0  0  0  0  0  0
    2.8239    6.7944   11.8667 C   0  0  0  0  0  0  0  0  0  0  0  0
    2.7266    7.7801   11.4364 H   0  0  0  0  0  0  0  0  0  0  0  0
    3.3707    6.6428   13.1321 C   0  0  0  0  0  0  0  0  0  0  0  0
    3.7016    7.5085   13.6861 H   0  0  0  0  0  0  0  0  0  0  0  0
    3.5003    5.3815   13.6780 C   0  0  0  0  0  0  0  0  0  0  0  0
    3.9360    5.2435   14.6604 H   0  0  0  0  0  0  0  0  0  0  0  0
  1  4  1  0  0  0  0
  1  3  1  1  0  0  0
  2 16  1  0  0  0  0
  2  1  1  0  0  0  0
  4  7  1  0  0  0  0
  5 16  1  0  0  0  0
  6  1  1  0  0  0  0
  6 31  1  0  0  0  0
  7  8  1  0  0  0  0
  7  9  2  0  0  0  0
  9 10  1  0  0  0  0
 11  9  1  0  0  0  0
 11 12  1  0  0  0  0
 13 11  2  0  0  0  0
 14 13  1  0  0  0  0
 15  4  1  0  0  0  0
 15 13  1  0  0  0  0
 16 15  2  0  0  0  0
 17  5  1  0  0  0  0
 17 25  1  0  0  0  0
 18 17  2  0  0  0  0
 19 18  1  0  0  0  0
 20 18  1  0  0  0  0
 20 21  2  0  0  0  0
 21 23  1  0  0  0  0
 22 21  1  0  0  0  0
 23 25  2  0  0  0  0
 23 24  1  0  0  0  0
 25 26  1  0  0  0  0
 27 30  1  0  0  0  0
 27 20  1  0  0  0  0
 28 27  1  0  0  0  0
 29 27  1  0  0  0  0
 31 40  2  0  0  0  0
 31 32  1  0  0  0  0
 32 34  2  0  0  0  0
 33 32  1  0  0  0  0
 34 36  1  0  0  0  0
 34 35  1  0  0  0  0
 36 37  1  0  0  0  0
 38 39  1  0  0  0  0
 38 36  2  0  0  0  0
 40 38  1  0  0  0  0
 41 40  1  0  0  0  0
 42 51  1  0  0  0  0
 42  6  1  0  0  0  0
 43 44  1  0  0  0  0
 43 42  2  0  0  0  0
 45 47  2  0  0  0  0
 45 43  1  0  0  0  0
 46 45  1  0  0  0  0
 47 49  1  0  0  0  0
 48 47  1  0  0  0  0
 49 50  1  0  0  0  0
 49 51  2  0  0  0  0
 51 52  1  0  0  0  0
 53 62  1  0  0  0  0
 53  6  1  0  0  0  0
 54 53  2  0  0  0  0
 55 54  1  0  0  0  0
 56 54  1  0  0  0  0
 56 58  2  0  0  0  0
 57 56  1  0  0  0  0
 58 60  1  0  0  0  0
 59 58  1  0  0  0  0
 60 62  2  0  0  0  0
 60 61  1  0  0  0  0
 62 63  1  0  0  0  0
M  END
$$$$
