CSD_code = JOJJOJ | q = 0 | S = 0 | Stoichiometry = C31H26ClN2PPdS | MND = 4
 OpenBabel04212202053D

 63 68  0  0  0  0  0  0  0  0999 V2000
    7.0943    1.9734    3.5049 Pd  0  0  2  0  0  0  0  0  0  0  0  0
    7.1495    1.8376    5.7966 S   0  0  0  0  0  0  0  0  0  0  0  0
    8.6550    0.6394    3.5524 N   0  0  0  0  0  0  0  0  0  0  0  0
    9.3510    0.9017    7.0279 N   0  0  0  0  0  0  0  0  0  0  0  0
    7.0862    2.2299    1.2114 Cl  0  0  0  0  0  0  0  0  0  0  0  0
    5.4400    3.4439    3.3728 P   0  0  0  0  0  4  0  0  0  0  0  0
    9.1194    0.0352    2.4601 C   0  0  0  0  0  3  0  0  0  0  0  0
    8.6066    0.2623    1.5308 H   0  0  0  0  0  0  0  0  0  0  0  0
   10.2027   -0.8246    2.4889 C   0  0  0  0  0  0  0  0  0  0  0  0
   10.5379   -1.2943    1.5781 H   0  0  0  0  0  0  0  0  0  0  0  0
   10.8411   -1.0574    3.6993 C   0  0  0  0  0  0  0  0  0  0  0  0
   11.6963   -1.7142    3.7555 H   0  0  0  0  0  0  0  0  0  0  0  0
   10.3571   -0.4346    4.8318 C   0  0  0  0  0  0  0  0  0  0  0  0
   10.8010   -0.5670    5.8044 H   0  0  0  0  0  0  0  0  0  0  0  0
    9.2487    0.4071    4.7326 C   0  0  0  0  0  0  0  0  0  0  0  0
    8.6967    1.0290    5.9448 C   0  0  0  0  0  0  0  0  0  0  0  0
    8.8631    1.4765    8.2428 C   0  0  0  0  0  0  0  0  0  0  0  0
    8.0936    0.8088    8.6602 H   0  0  0  0  0  0  0  0  0  0  0  0
    8.3681    2.4421    8.0557 H   0  0  0  0  0  0  0  0  0  0  0  0
    9.9770    1.6286    9.2415 C   0  0  0  0  0  0  0  0  0  0  0  0
   10.9417    0.6380    9.3681 C   0  0  0  0  0  0  0  0  0  0  0  0
   10.8824   -0.2305    8.7301 H   0  0  0  0  0  0  0  0  0  0  0  0
   11.9641    0.7674   10.2900 C   0  0  0  0  0  0  0  0  0  0  0  0
   12.7115   -0.0081   10.3788 H   0  0  0  0  0  0  0  0  0  0  0  0
   12.0301    1.8876   11.1017 C   0  0  0  0  0  0  0  0  0  0  0  0
   12.8275    1.9891   11.8235 H   0  0  0  0  0  0  0  0  0  0  0  0
   11.0705    2.8779   10.9827 C   0  0  0  0  0  0  0  0  0  0  0  0
   11.1179    3.7553   11.6119 H   0  0  0  0  0  0  0  0  0  0  0  0
   10.0512    2.7502   10.0552 C   0  0  0  0  0  0  0  0  0  0  0  0
    9.3062    3.5284    9.9623 H   0  0  0  0  0  0  0  0  0  0  0  0
    6.0976    4.8865    2.4928 C   0  0  0  0  0  0  0  0  0  0  0  0
    7.4189    5.1823    2.8338 C   0  0  0  0  0  0  0  0  0  0  0  0
    7.9349    4.5454    3.5653 H   0  0  0  0  0  0  0  0  0  0  0  0
    8.0663    6.2456    2.2372 C   0  0  0  0  0  0  0  0  0  0  0  0
    9.0892    6.4749    2.4972 H   0  0  0  0  0  0  0  0  0  0  0  0
    7.4017    7.0095    1.2883 C   0  0  0  0  0  0  0  0  0  0  0  0
    7.9091    7.8356    0.8128 H   0  0  0  0  0  0  0  0  0  0  0  0
    6.0987    6.7040    0.9349 C   0  0  0  0  0  0  0  0  0  0  0  0
    5.5930    7.2897    0.1812 H   0  0  0  0  0  0  0  0  0  0  0  0
    5.4396    5.6430    1.5349 C   0  0  0  0  0  0  0  0  0  0  0  0
    4.4317    5.3916    1.2403 H   0  0  0  0  0  0  0  0  0  0  0  0
    3.9827    2.7420    2.5560 C   0  0  0  0  0  0  0  0  0  0  0  0
    4.0234    1.3840    2.2513 C   0  0  0  0  0  0  0  0  0  0  0  0
    4.9325    0.8139    2.4748 H   0  0  0  0  0  0  0  0  0  0  0  0
    2.9272    0.7751    1.6684 C   0  0  0  0  0  0  0  0  0  0  0  0
    2.9576   -0.2763    1.4243 H   0  0  0  0  0  0  0  0  0  0  0  0
    1.7888    1.5176    1.3973 C   0  0  0  0  0  0  0  0  0  0  0  0
    0.9352    1.0448    0.9345 H   0  0  0  0  0  0  0  0  0  0  0  0
    1.7348    2.8620    1.7307 C   0  0  0  0  0  0  0  0  0  0  0  0
    0.8375    3.4308    1.5352 H   0  0  0  0  0  0  0  0  0  0  0  0
    2.8246    3.4759    2.3207 C   0  0  0  0  0  0  0  0  0  0  0  0
    2.7762    4.5160    2.6134 H   0  0  0  0  0  0  0  0  0  0  0  0
    4.6960    4.1454    4.8783 C   0  0  0  0  0  0  0  0  0  0  0  0
    4.7240    5.4974    5.1936 C   0  0  0  0  0  0  0  0  0  0  0  0
    5.1989    6.2004    4.5229 H   0  0  0  0  0  0  0  0  0  0  0  0
    4.1439    5.9377    6.3714 C   0  0  0  0  0  0  0  0  0  0  0  0
    4.1650    6.9893    6.6180 H   0  0  0  0  0  0  0  0  0  0  0  0
    3.5435    5.0359    7.2332 C   0  0  0  0  0  0  0  0  0  0  0  0
    3.0973    5.3849    8.1528 H   0  0  0  0  0  0  0  0  0  0  0  0
    3.5200    3.6844    6.9223 C   0  0  0  0  0  0  0  0  0  0  0  0
    3.0588    2.9810    7.5995 H   0  0  0  0  0  0  0  0  0  0  0  0
    4.0953    3.2395    5.7490 C   0  0  0  0  0  0  0  0  0  0  0  0
    4.1015    2.1855    5.4959 H   0  0  0  0  0  0  0  0  0  0  0  0
  1  5  1  1  0  0  0
  1  3  1  0  0  0  0
  1  2  1  0  0  0  0
  2 16  1  0  0  0  0
  3 15  1  0  0  0  0
  4 17  1  0  0  0  0
  6  1  1  0  0  0  0
  6 53  1  0  0  0  0
  7  9  1  0  0  0  0
  7  3  1  0  0  0  0
  8  7  1  0  0  0  0
  9 11  2  0  0  0  0
 10  9  1  0  0  0  0
 11 12  1  0  0  0  0
 11 13  1  0  0  0  0
 13 14  1  0  0  0  0
 15 13  2  0  0  0  0
 15 16  1  0  0  0  0
 16  4  2  0  0  0  0
 17 18  1  0  0  0  0
 17 20  1  0  0  0  0
 19 17  1  0  0  0  0
 20 21  2  0  0  0  0
 20 29  1  0  0  0  0
 21 23  1  0  0  0  0
 22 21  1  0  0  0  0
 23 24  1  0  0  0  0
 23 25  2  0  0  0  0
 25 26  1  0  0  0  0
 27 25  1  0  0  0  0
 27 28  1  0  0  0  0
 29 27  2  0  0  0  0
 30 29  1  0  0  0  0
 31 32  1  0  0  0  0
 31  6  1  0  0  0  0
 32 33  1  0  0  0  0
 34 35  1  0  0  0  0
 34 32  2  0  0  0  0
 36 34  1  0  0  0  0
 37 36  1  0  0  0  0
 38 36  2  0  0  0  0
 38 40  1  0  0  0  0
 39 38  1  0  0  0  0
 40 31  2  0  0  0  0
 41 40  1  0  0  0  0
 42  6  1  0  0  0  0
 43 44  1  0  0  0  0
 43 42  2  0  0  0  0
 45 43  1  0  0  0  0
 46 45  1  0  0  0  0
 47 45  2  0  0  0  0
 47 49  1  0  0  0  0
 48 47  1  0  0  0  0
 49 51  2  0  0  0  0
 50 49  1  0  0  0  0
 51 42  1  0  0  0  0
 51 52  1  0  0  0  0
 53 54  2  0  0  0  0
 53 62  1  0  0  0  0
 54 56  1  0  0  0  0
 55 54  1  0  0  0  0
 56 57  1  0  0  0  0
 56 58  2  0  0  0  0
 58 59  1  0  0  0  0
 60 58  1  0  0  0  0
 60 61  1  0  0  0  0
 62 60  2  0  0  0  0
 63 62  1  0  0  0  0
M  END
$$$$
