CSD_code = JOMLUS | q = -1 | S = 0 | Stoichiometry = C18H15Br2CuP(1-) | MND = 3
 OpenBabel04212202053D

 37 39  0  0  0  0  0  0  0  0999 V2000
    8.6843   10.3281    1.5592 Br  0  0  0  0  0  0  0  0  0  0  0  0
    9.4242    7.1743    4.5575 Br  0  0  0  0  0  0  0  0  0  0  0  0
    9.7452    8.8769    3.0319 Cu  0  0  0  0  0  0  0  0  0  0  0  0
   11.9393    9.4611    2.8356 P   0  0  0  0  0  4  0  0  0  0  0  0
   12.0219   11.2814    2.8490 C   0  0  0  0  0  0  0  0  0  0  0  0
   11.3640   11.8988    3.9117 C   0  0  0  0  0  0  0  0  0  0  0  0
   11.3313   13.2751    4.0113 C   0  0  0  0  0  0  0  0  0  0  0  0
   11.9484   14.0504    3.0425 C   0  0  0  0  0  0  0  0  0  0  0  0
   12.5962   13.4428    1.9800 C   0  0  0  0  0  0  0  0  0  0  0  0
   12.6355   12.0640    1.8787 C   0  0  0  0  0  0  0  0  0  0  0  0
   13.2141    9.0524    4.0784 C   0  0  0  0  0  0  0  0  0  0  0  0
   14.1824    9.9501    4.5183 C   0  0  0  0  0  0  0  0  0  0  0  0
   15.0951    9.5629    5.4810 C   0  0  0  0  0  0  0  0  0  0  0  0
   15.0486    8.2848    6.0168 C   0  0  0  0  0  0  0  0  0  0  0  0
   14.0780    7.3922    5.5926 C   0  0  0  0  0  0  0  0  0  0  0  0
   13.1610    7.7745    4.6313 C   0  0  0  0  0  0  0  0  0  0  0  0
   12.7700    9.0239    1.2824 C   0  0  0  0  0  0  0  0  0  0  0  0
   13.9183    8.2383    1.2154 C   0  0  0  0  0  0  0  0  0  0  0  0
   14.4285    7.8637   -0.0133 C   0  0  0  0  0  0  0  0  0  0  0  0
   13.7985    8.2553   -1.1841 C   0  0  0  0  0  0  0  0  0  0  0  0
   12.6406    9.0170   -1.1229 C   0  0  0  0  0  0  0  0  0  0  0  0
   12.1222    9.3926    0.0996 C   0  0  0  0  0  0  0  0  0  0  0  0
   10.8697   11.2838    4.6551 H   0  0  0  0  0  0  0  0  0  0  0  0
   10.8155   13.7456    4.8365 H   0  0  0  0  0  0  0  0  0  0  0  0
   11.9163   15.1289    3.1119 H   0  0  0  0  0  0  0  0  0  0  0  0
   13.0726   14.0479    1.2205 H   0  0  0  0  0  0  0  0  0  0  0  0
   13.1407   11.5967    1.0448 H   0  0  0  0  0  0  0  0  0  0  0  0
   14.2214   10.9482    4.1027 H   0  0  0  0  0  0  0  0  0  0  0  0
   15.8497   10.2621    5.8162 H   0  0  0  0  0  0  0  0  0  0  0  0
   15.7656    7.9899    6.7707 H   0  0  0  0  0  0  0  0  0  0  0  0
   14.0267    6.4003    6.0179 H   0  0  0  0  0  0  0  0  0  0  0  0
   12.3864    7.0872    4.3188 H   0  0  0  0  0  0  0  0  0  0  0  0
   14.4125    7.9266    2.1256 H   0  0  0  0  0  0  0  0  0  0  0  0
   15.3256    7.2606   -0.0581 H   0  0  0  0  0  0  0  0  0  0  0  0
   14.2035    7.9596   -2.1421 H   0  0  0  0  0  0  0  0  0  0  0  0
   12.1366    9.3116   -2.0326 H   0  0  0  0  0  0  0  0  0  0  0  0
   11.2074    9.9693    0.1486 H   0  0  0  0  0  0  0  0  0  0  0  0
  1  3  1  0  0  0  0
  3  2  1  0  0  0  0
  4  5  1  0  0  0  0
  4  3  1  0  0  0  0
  4 11  1  0  0  0  0
  5  6  1  0  0  0  0
  6  7  2  0  0  0  0
  6 23  1  0  0  0  0
  7 24  1  0  0  0  0
  8 25  1  0  0  0  0
  8  7  1  0  0  0  0
  9  8  2  0  0  0  0
 10  9  1  0  0  0  0
 10  5  2  0  0  0  0
 11 12  2  0  0  0  0
 11 16  1  0  0  0  0
 12 13  1  0  0  0  0
 13 29  1  0  0  0  0
 13 14  2  0  0  0  0
 14 30  1  0  0  0  0
 15 14  1  0  0  0  0
 15 31  1  0  0  0  0
 16 15  2  0  0  0  0
 17  4  1  0  0  0  0
 18 17  1  0  0  0  0
 18 33  1  0  0  0  0
 19 18  2  0  0  0  0
 20 21  2  0  0  0  0
 20 19  1  0  0  0  0
 21 22  1  0  0  0  0
 22 37  1  0  0  0  0
 22 17  2  0  0  0  0
 26  9  1  0  0  0  0
 27 10  1  0  0  0  0
 28 12  1  0  0  0  0
 32 16  1  0  0  0  0
 34 19  1  0  0  0  0
 35 20  1  0  0  0  0
 36 21  1  0  0  0  0
M  END
$$$$
