CSD_code = JOMLOM | q = -1 | S = 0 | Stoichiometry = C18H15CuI2P(1-) | MND = 3
 OpenBabel04212202053D

 37 39  0  0  0  0  0  0  0  0999 V2000
   12.4574    4.0311    5.9589 I   0  0  0  0  0  0  0  0  0  0  0  0
   13.2378    1.9779   10.3106 I   0  0  0  0  0  0  0  0  0  0  0  0
   12.2115    2.6990    8.1046 Cu  0  0  0  0  0  0  0  0  0  0  0  0
   10.0202    2.0639    8.1995 P   0  0  0  0  0  4  0  0  0  0  0  0
    8.8465    1.4220    6.9614 C   0  0  0  0  0  0  0  0  0  0  0  0
    9.0563    1.8175    5.6376 C   0  0  0  0  0  0  0  0  0  0  0  0
    8.2644    1.3180    4.6237 C   0  0  0  0  0  0  0  0  0  0  0  0
    7.2672    0.3977    4.9108 C   0  0  0  0  0  0  0  0  0  0  0  0
    7.0751   -0.0235    6.2171 C   0  0  0  0  0  0  0  0  0  0  0  0
    7.8597    0.4783    7.2383 C   0  0  0  0  0  0  0  0  0  0  0  0
    9.4289    1.2394    9.7175 C   0  0  0  0  0  0  0  0  0  0  0  0
    8.4295    1.7448   10.5418 C   0  0  0  0  0  0  0  0  0  0  0  0
    8.0684    1.0590   11.6866 C   0  0  0  0  0  0  0  0  0  0  0  0
    8.6996   -0.1290   12.0193 C   0  0  0  0  0  0  0  0  0  0  0  0
    9.6957   -0.6368   11.2024 C   0  0  0  0  0  0  0  0  0  0  0  0
   10.0601    0.0463   10.0579 C   0  0  0  0  0  0  0  0  0  0  0  0
    9.4276    3.7618    8.4684 C   0  0  0  0  0  0  0  0  0  0  0  0
    9.9481    4.4254    9.5809 C   0  0  0  0  0  0  0  0  0  0  0  0
    9.6448    5.7517    9.8098 C   0  0  0  0  0  0  0  0  0  0  0  0
    8.8279    6.4377    8.9238 C   0  0  0  0  0  0  0  0  0  0  0  0
    8.3164    5.7877    7.8135 C   0  0  0  0  0  0  0  0  0  0  0  0
    8.6133    4.4568    7.5813 C   0  0  0  0  0  0  0  0  0  0  0  0
    9.8487    2.5177    5.4085 H   0  0  0  0  0  0  0  0  0  0  0  0
    8.4297    1.6400    3.6051 H   0  0  0  0  0  0  0  0  0  0  0  0
    6.6472    0.0030    4.1176 H   0  0  0  0  0  0  0  0  0  0  0  0
    6.3050   -0.7495    6.4427 H   0  0  0  0  0  0  0  0  0  0  0  0
    7.7008    0.1442    8.2549 H   0  0  0  0  0  0  0  0  0  0  0  0
    7.9357    2.6734   10.2869 H   0  0  0  0  0  0  0  0  0  0  0  0
    7.2911    1.4558   12.3259 H   0  0  0  0  0  0  0  0  0  0  0  0
    8.4180   -0.6551   12.9211 H   0  0  0  0  0  0  0  0  0  0  0  0
   10.1975   -1.5571   11.4647 H   0  0  0  0  0  0  0  0  0  0  0  0
   10.8491   -0.3355    9.4227 H   0  0  0  0  0  0  0  0  0  0  0  0
   10.5976    3.8933   10.2654 H   0  0  0  0  0  0  0  0  0  0  0  0
   10.0559    6.2559   10.6734 H   0  0  0  0  0  0  0  0  0  0  0  0
    8.5989    7.4803    9.0951 H   0  0  0  0  0  0  0  0  0  0  0  0
    7.6865    6.3228    7.1160 H   0  0  0  0  0  0  0  0  0  0  0  0
    8.2156    3.9604    6.7071 H   0  0  0  0  0  0  0  0  0  0  0  0
  1  3  1  0  0  0  0
  3  4  1  0  0  0  0
  3  2  1  0  0  0  0
  4 17  1  0  0  0  0
  4 11  1  0  0  0  0
  5 10  1  0  0  0  0
  5  4  1  0  0  0  0
  6  5  2  0  0  0  0
  7  8  2  0  0  0  0
  7  6  1  0  0  0  0
  8  9  1  0  0  0  0
  9 26  1  0  0  0  0
  9 10  2  0  0  0  0
 10 27  1  0  0  0  0
 11 16  2  0  0  0  0
 11 12  1  0  0  0  0
 12 13  2  0  0  0  0
 13 14  1  0  0  0  0
 13 29  1  0  0  0  0
 14 30  1  0  0  0  0
 15 31  1  0  0  0  0
 15 14  2  0  0  0  0
 16 15  1  0  0  0  0
 17 18  1  0  0  0  0
 18 19  2  0  0  0  0
 18 33  1  0  0  0  0
 19 34  1  0  0  0  0
 20 35  1  0  0  0  0
 20 19  1  0  0  0  0
 21 20  2  0  0  0  0
 22 21  1  0  0  0  0
 22 17  2  0  0  0  0
 23  6  1  0  0  0  0
 24  7  1  0  0  0  0
 25  8  1  0  0  0  0
 28 12  1  0  0  0  0
 32 16  1  0  0  0  0
 36 21  1  0  0  0  0
 37 22  1  0  0  0  0
M  END
$$$$
