CSD_code = JOMXEO | q = 0 | S = 0 | Stoichiometry = C17H22Cl2NNb | MND = 8
 OpenBabel04212202053D

 43 44  0  0  1  0  0  0  0  0999 V2000
    0.0001    0.2365    6.1496 Nb  0  0  0  0  0  0  0  0  0  0  0  0
    1.7053    0.6734    7.6188 Cl  0  0  0  0  0  0  0  0  0  0  0  0
    0.0002    1.6836    5.1246 N   0  0  0  0  0  2  0  0  0  0  0  0
    0.0001    2.7190    4.2703 C   0  0  0  0  0  0  0  0  0  0  0  0
    1.2271    3.2550    3.8072 C   0  0  0  0  0  0  0  0  0  0  0  0
    1.2010    4.3120    2.9154 C   0  0  0  0  0  0  0  0  0  0  0  0
   -0.0000    4.8378    2.4700 C   0  0  0  0  0  0  0  0  0  0  0  0
    2.5076    2.6827    4.3626 C   0  0  0  0  0  0  0  0  0  0  0  0
    2.7874    3.3547    5.7130 C   0  0  0  0  0  0  0  0  0  0  0  0
    3.7056    2.8332    3.4281 C   0  0  0  0  0  0  0  0  0  0  0  0
   -0.0000   -1.4842    4.4411 C   0  0  2  0  0  0  0  0  0  0  0  0
   -1.1451   -1.7487    5.2401 C   0  0  0  0  0  3  0  0  0  0  0  0
   -0.6984   -2.1987    6.5020 C   0  0  0  0  0  0  0  0  0  0  0  0
    2.1253    4.7396    2.5611 H   0  0  0  0  0  0  0  0  0  0  0  0
   -0.0001    5.6654    1.7763 H   0  0  0  0  0  0  0  0  0  0  0  0
    2.3403    1.6072    4.5476 H   0  0  0  0  0  0  0  0  0  0  0  0
    2.9600    4.4202    5.5719 H   0  0  0  0  0  0  0  0  0  0  0  0
    3.6660    2.9153    6.1795 H   0  0  0  0  0  0  0  0  0  0  0  0
    1.9332    3.2227    6.3784 H   0  0  0  0  0  0  0  0  0  0  0  0
    4.0171    3.8722    3.3544 H   0  0  0  0  0  0  0  0  0  0  0  0
    3.4660    2.4665    2.4329 H   0  0  0  0  0  0  0  0  0  0  0  0
    4.5454    2.2604    3.8146 H   0  0  0  0  0  0  0  0  0  0  0  0
    0.0000   -1.3172    3.3697 H   0  0  0  0  0  0  0  0  0  0  0  0
   -2.1680   -1.7750    4.8836 H   0  0  0  0  0  0  0  0  0  0  0  0
   -1.3362   -2.5374    7.3068 H   0  0  0  0  0  0  0  0  0  0  0  0
   -1.7045    0.6738    7.6201 Cl  0  0  0  0  0  0  0  0  0  0  0  0
    1.1449   -1.7491    5.2402 C   0  0  0  0  0  3  0  0  0  0  0  0
    0.6981   -2.1988    6.5021 C   0  0  0  0  0  0  0  0  0  0  0  0
   -1.2271    3.2549    3.8072 C   0  0  0  0  0  0  0  0  0  0  0  0
   -1.2010    4.3119    2.9154 C   0  0  0  0  0  0  0  0  0  0  0  0
    2.1678   -1.7756    4.8837 H   0  0  0  0  0  0  0  0  0  0  0  0
    1.3358   -2.5376    7.3070 H   0  0  0  0  0  0  0  0  0  0  0  0
   -2.5076    2.6826    4.3626 C   0  0  0  0  0  0  0  0  0  0  0  0
   -2.1254    4.7394    2.5611 H   0  0  0  0  0  0  0  0  0  0  0  0
   -2.7875    3.3545    5.7130 C   0  0  0  0  0  0  0  0  0  0  0  0
   -3.7056    2.8331    3.4280 C   0  0  0  0  0  0  0  0  0  0  0  0
   -2.3402    1.6071    4.5475 H   0  0  0  0  0  0  0  0  0  0  0  0
   -2.9601    4.4200    5.5719 H   0  0  0  0  0  0  0  0  0  0  0  0
   -3.6660    2.9151    6.1794 H   0  0  0  0  0  0  0  0  0  0  0  0
   -1.9333    3.2225    6.3784 H   0  0  0  0  0  0  0  0  0  0  0  0
   -4.0171    3.8720    3.3544 H   0  0  0  0  0  0  0  0  0  0  0  0
   -3.4660    2.4664    2.4329 H   0  0  0  0  0  0  0  0  0  0  0  0
   -4.5454    2.2602    3.8145 H   0  0  0  0  0  0  0  0  0  0  0  0
  1  2  1  0  0  0  0
  1 26  1  0  0  0  0
  3  1  1  0  0  0  0
  4  3  1  0  0  0  0
  5  4  1  0  0  0  0
  5  8  1  0  0  0  0
  6  5  2  0  0  0  0
  7 30  2  0  0  0  0
  7  6  1  0  0  0  0
  8 16  1  0  0  0  0
  8  9  1  0  0  0  0
  9 18  1  0  0  0  0
  9 19  1  0  0  0  0
 10 22  1  0  0  0  0
 10  8  1  0  0  0  0
 11 23  1  6  0  0  0
 11 12  1  0  0  0  0
 11 27  1  0  0  0  0
 11  1  1  0  0  0  0
 12 13  1  0  0  0  0
 13 28  2  0  0  0  0
 13 25  1  0  0  0  0
 14  6  1  0  0  0  0
 15  7  1  0  0  0  0
 17  9  1  0  0  0  0
 20 10  1  0  0  0  0
 21 10  1  0  0  0  0
 24 12  1  0  0  0  0
 27 28  1  0  0  0  0
 28 32  1  0  0  0  0
 29  4  2  0  0  0  0
 29 33  1  0  0  0  0
 30 29  1  0  0  0  0
 31 27  1  0  0  0  0
 33 37  1  0  0  0  0
 33 35  1  0  0  0  0
 34 30  1  0  0  0  0
 35 39  1  0  0  0  0
 35 40  1  0  0  0  0
 36 43  1  0  0  0  0
 36 33  1  0  0  0  0
 38 35  1  0  0  0  0
 41 36  1  0  0  0  0
 42 36  1  0  0  0  0
M  END
$$$$
