CSD_code = JOMXOY | q = 0 | S = 0 | Stoichiometry = C9H17Cl2NNbP | MND = 9
 OpenBabel04212202053D

 31 30  0  0  1  0  0  0  0  0999 V2000
    5.8765    5.2347    9.6079 Nb  0  0  0  0  0  0  0  0  0  0  0  0
    4.8002    3.7989   11.2212 Cl  0  0  0  0  0  0  0  0  0  0  0  0
    4.3115    4.2013    8.1423 Cl  0  0  0  0  0  0  0  0  0  0  0  0
    6.4792    6.0444   12.1059 P   0  0  0  0  0  0  0  0  0  0  0  0
    4.9447    6.6114   12.9187 C   0  0  0  0  0  0  0  0  0  0  0  0
    7.5403    7.5265   12.3585 C   0  0  0  0  0  0  0  0  0  0  0  0
    7.1500    4.8724   13.3394 C   0  0  0  0  0  0  0  0  0  0  0  0
    8.4439    4.9445    9.8755 C   0  0  0  0  0  0  0  0  0  0  0  0
    7.9603    3.6408    9.6587 C   0  0  0  0  0  0  0  0  0  0  0  0
    7.3780    3.5993    8.3896 C   0  0  0  0  0  0  0  0  0  0  0  0
    7.4698    4.8885    7.8118 C   0  0  2  0  0  0  0  0  0  0  0  0
    8.1336    5.7293    8.7404 C   0  0  0  0  0  0  0  0  0  0  0  0
    5.0341    6.7911    9.5023 N   0  0  0  0  0  2  0  0  0  0  0  0
    4.2480    7.9339    9.2963 C   0  0  0  0  0  0  0  0  0  0  0  0
    4.2185    5.8003   12.9038 H   0  0  0  0  0  0  0  0  0  0  0  0
    4.5492    7.4536   12.3515 H   0  0  0  0  0  0  0  0  0  0  0  0
    5.1548    6.9151   13.9450 H   0  0  0  0  0  0  0  0  0  0  0  0
    7.1642    8.3241   11.7191 H   0  0  0  0  0  0  0  0  0  0  0  0
    8.5682    7.3087   12.0759 H   0  0  0  0  0  0  0  0  0  0  0  0
    7.5119    7.8448   13.4001 H   0  0  0  0  0  0  0  0  0  0  0  0
    6.4959    4.0027   13.3719 H   0  0  0  0  0  0  0  0  0  0  0  0
    7.1824    5.3536   14.3169 H   0  0  0  0  0  0  0  0  0  0  0  0
    8.1531    4.5595   13.0540 H   0  0  0  0  0  0  0  0  0  0  0  0
    9.0541    5.2639   10.7109 H   0  0  0  0  0  0  0  0  0  0  0  0
    8.0906    2.7995   10.3262 H   0  0  0  0  0  0  0  0  0  0  0  0
    6.9744    2.7227    7.9003 H   0  0  0  0  0  0  0  0  0  0  0  0
    7.2445    5.1373    6.7815 H   0  0  0  0  0  0  0  0  0  0  0  0
    8.5078    6.7250    8.5357 H   0  0  0  0  0  0  0  0  0  0  0  0
    4.8649    8.8426    9.2932 H   0  0  0  0  0  0  0  0  0  0  0  0
    3.4840    8.0253   10.0811 H   0  0  0  0  0  0  0  0  0  0  0  0
    3.7356    7.8558    8.3263 H   0  0  0  0  0  0  0  0  0  0  0  0
  1  2  1  0  0  0  0
  3  1  1  0  0  0  0
  4  6  1  0  0  0  0
  4  5  1  0  0  0  0
  4  7  1  0  0  0  0
  5 17  1  0  0  0  0
  6 20  1  0  0  0  0
  7 21  1  0  0  0  0
  7 22  1  0  0  0  0
  8 24  1  0  0  0  0
  9  8  1  0  0  0  0
  9 25  1  0  0  0  0
 10  9  2  0  0  0  0
 11 27  1  6  0  0  0
 11 10  1  0  0  0  0
 11 12  1  0  0  0  0
 11  1  1  0  0  0  0
 12  8  2  0  0  0  0
 13  1  1  0  0  0  0
 14 13  1  0  0  0  0
 14 30  1  0  0  0  0
 15  5  1  0  0  0  0
 16  5  1  0  0  0  0
 18  6  1  0  0  0  0
 19  6  1  0  0  0  0
 23  7  1  0  0  0  0
 26 10  1  0  0  0  0
 28 12  1  0  0  0  0
 29 14  1  0  0  0  0
 31 14  1  0  0  0  0
M  END
$$$$
