CSD_code = JOMYAO | q = 1 | S = 0 | Stoichiometry = C12H8F5N2W(1+) | MND = 7
 OpenBabel04212202053D

 28 30  0  0  0  0  0  0  0  0999 V2000
    7.7835   10.4529    8.4447 W   0  0  0  0  0  0  0  0  0  0  0  0
    8.6849   12.0124    8.0140 F   0  0  0  0  0  0  0  0  0  0  0  0
    8.8012   10.6682    9.9737 F   0  0  0  0  0  0  0  0  0  0  0  0
    8.7376    9.9252    6.8954 F   0  0  0  0  0  0  0  0  0  0  0  0
    6.3494   11.5846    8.1575 F   0  0  0  0  0  0  0  0  0  0  0  0
    6.5718    9.8087    9.7542 F   0  0  0  0  0  0  0  0  0  0  0  0
    8.4812    8.3181    8.8150 N   0  0  0  0  0  0  0  0  0  0  0  0
    6.3875    9.1031    7.2580 N   0  0  0  0  0  0  0  0  0  0  0  0
    9.5236    7.9389    9.5496 C   0  0  0  0  0  0  0  0  0  0  0  0
   10.1747    8.7312    9.9126 H   0  0  0  0  0  0  0  0  0  0  0  0
    9.7875    6.6000    9.8550 C   0  0  0  0  0  0  0  0  0  0  0  0
   10.6448    6.3526   10.4610 H   0  0  0  0  0  0  0  0  0  0  0  0
    8.9467    5.6191    9.3821 C   0  0  0  0  0  0  0  0  0  0  0  0
    9.1219    4.5776    9.6081 H   0  0  0  0  0  0  0  0  0  0  0  0
    7.8432    5.9822    8.5864 C   0  0  0  0  0  0  0  0  0  0  0  0
    7.6478    7.3579    8.3262 C   0  0  0  0  0  0  0  0  0  0  0  0
    6.5426    7.7723    7.5036 C   0  0  0  0  0  0  0  0  0  0  0  0
    5.6706    6.7971    6.9681 C   0  0  0  0  0  0  0  0  0  0  0  0
    4.6125    7.2448    6.1539 C   0  0  0  0  0  0  0  0  0  0  0  0
    3.9221    6.5281    5.7342 H   0  0  0  0  0  0  0  0  0  0  0  0
    4.4793    8.5908    5.9027 C   0  0  0  0  0  0  0  0  0  0  0  0
    3.6834    8.9635    5.2775 H   0  0  0  0  0  0  0  0  0  0  0  0
    5.3867    9.4903    6.4713 C   0  0  0  0  0  0  0  0  0  0  0  0
    5.3008   10.5590    6.2870 H   0  0  0  0  0  0  0  0  0  0  0  0
    6.9336    5.0289    8.0401 C   0  0  0  0  0  0  0  0  0  0  0  0
    7.0983    3.9848    8.2575 H   0  0  0  0  0  0  0  0  0  0  0  0
    5.8923    5.4195    7.2641 C   0  0  0  0  0  3  0  0  0  0  0  0
    5.2101    4.6932    6.8500 H   0  0  0  0  0  0  0  0  0  0  0  0
  1  6  1  0  0  0  0
  1  3  1  0  0  0  0
  2  1  1  0  0  0  0
  4  1  1  0  0  0  0
  5  1  1  0  0  0  0
  7  9  2  0  0  0  0
  8 17  1  0  0  0  0
  8  1  1  0  0  0  0
  9 11  1  0  0  0  0
  9 10  1  0  0  0  0
 11 12  1  0  0  0  0
 13 14  1  0  0  0  0
 13 11  2  0  0  0  0
 15 13  1  0  0  0  0
 16 15  1  0  0  0  0
 16  7  1  0  0  0  0
 17 16  2  0  0  0  0
 18 27  1  0  0  0  0
 18 17  1  0  0  0  0
 19 18  2  0  0  0  0
 20 19  1  0  0  0  0
 21 19  1  0  0  0  0
 21 23  2  0  0  0  0
 22 21  1  0  0  0  0
 23  8  1  0  0  0  0
 24 23  1  0  0  0  0
 25 26  1  0  0  0  0
 25 15  2  0  0  0  0
 27 25  1  0  0  0  0
 28 27  1  0  0  0  0
M  END
$$$$
