CSD_code = JONCAQ | q = -1 | S = 0 | Stoichiometry = C2H2F9OW(1-) | MND = 7
 OpenBabel04212202053D

 15 13  0  0  0  0  0  0  0  0999 V2000
    1.1559    0.2683   13.0464 W   0  0  0  0  0  0  0  0  0  0  0  0
    1.1926   -1.6414   12.6352 F   0  0  0  0  0  0  0  0  0  0  0  0
   -0.1097    1.7214   13.3906 F   0  0  0  0  0 15  0  0  0  0  0  0
    1.8720    0.8185   14.7393 F   0  0  0  0  0  0  0  0  0  0  0  0
    1.9560    1.8134   12.1569 F   0  0  0  0  0  0  0  0  0  0  0  0
    3.0326   -0.1934   12.8639 F   0  0  0  0  0  0  0  0  0  0  0  0
   -0.1417   -0.5307   14.2477 F   0  0  0  0  0  0  0  0  0  0  0  0
   -0.9622    1.9473    8.5002 F   0  0  0  0  0  0  0  0  0  0  0  0
    0.7557    0.6770    8.7214 F   0  0  0  0  0  0  0  0  0  0  0  0
   -1.2208   -0.1447    8.8823 F   0  0  0  0  0  0  0  0  0  0  0  0
    0.1704    0.1770   11.3962 O   0  0  0  0  0  0  0  0  0  0  0  0
   -0.4562    1.2040   10.7189 C   0  0  0  0  0  0  0  0  0  0  0  0
    0.0742    2.1683   10.8603 H   0  0  0  0  0  0  0  0  0  0  0  0
   -1.5096    1.3067   11.0379 H   0  0  0  0  0  0  0  0  0  0  0  0
   -0.4619    0.9088    9.2134 C   0  0  0  0  0  0  0  0  0  0  0  0
  1  7  1  0  0  0  0
  1  4  1  0  0  0  0
  2  1  1  0  0  0  0
  5  1  1  0  0  0  0
  6  1  1  0  0  0  0
  8 15  1  0  0  0  0
  9 15  1  0  0  0  0
 10 15  1  0  0  0  0
 11  1  1  0  0  0  0
 12 13  1  0  0  0  0
 12 14  1  0  0  0  0
 12 11  1  0  0  0  0
 15 12  1  0  0  0  0
M  END
$$$$
