CSD_code = JONQUY | q = 0 | S = 0 | Stoichiometry = C14H12Br2N2O2Ru | MND = 6
 OpenBabel04212202053D

 33 35  0  0  1  0  0  0  0  0999 V2000
    3.6564    2.2893    0.8679 Ru  0  0  0  0  0  0  0  0  0  0  0  0
    1.2630    3.0592    0.9862 Br  0  0  0  0  0  0  0  0  0  0  0  0
    4.3455    4.3034   -0.5181 Br  0  0  0  0  0  0  0  0  0  0  0  0
    3.0283    1.1672   -0.7677 N   0  0  0  0  0  0  0  0  0  0  0  0
    2.9457    0.6084    1.7926 N   0  0  0  0  0  0  0  0  0  0  0  0
    3.9978    3.3205    2.3830 C   0  0  0  0  0  2  0  0  0  0  0  0
    4.1574    3.9824    3.2964 O   0  0  0  0  0  1  0  0  0  0  0  0
    5.3956    1.6585    0.7611 C   0  0  0  0  0  2  0  0  0  0  0  0
    6.4667    1.2640    0.7197 O   0  0  0  0  0  1  0  0  0  0  0  0
    3.1076    1.5198   -2.0463 C   0  0  0  0  0  3  0  0  0  0  0  0
    3.6967    2.3998   -2.2760 H   0  0  0  0  0  0  0  0  0  0  0  0
    2.4625    0.8301   -3.0553 C   0  0  0  0  0  0  0  0  0  0  0  0
    2.5535    1.1732   -4.0732 H   0  0  0  0  0  0  0  0  0  0  0  0
    1.6933   -0.2858   -2.7425 C   0  0  0  0  0  0  0  0  0  0  0  0
    1.6284   -0.6564   -1.4046 C   0  0  0  0  0  0  0  0  0  0  0  0
    1.0390   -1.5137   -1.1234 H   0  0  0  0  0  0  0  0  0  0  0  0
    2.2968    0.0843   -0.4358 C   0  0  0  0  0  0  0  0  0  0  0  0
    2.2661   -0.2370    0.9949 C   0  0  1  0  0  3  0  0  0  0  0  0
    1.5927   -1.3347    1.5253 C   0  0  0  0  0  0  0  0  0  0  0  0
    1.0482   -1.9989    0.8745 H   0  0  0  0  0  0  0  0  0  0  0  0
    1.6000   -1.5743    2.8910 C   0  0  0  0  0  0  0  0  0  0  0  0
    2.3219   -0.6860    3.6888 C   0  0  0  0  0  0  0  0  0  0  0  0
    2.3671   -0.8186    4.7578 H   0  0  0  0  0  0  0  0  0  0  0  0
    2.9722    0.3786    3.1031 C   0  0  0  0  0  0  0  0  0  0  0  0
    3.5317    1.0816    3.7080 H   0  0  0  0  0  0  0  0  0  0  0  0
    0.9446   -1.0415   -3.7866 C   0  0  0  0  0  0  0  0  0  0  0  0
    1.3733   -0.8735   -4.7706 H   0  0  0  0  0  0  0  0  0  0  0  0
   -0.0911   -0.7014   -3.8051 H   0  0  0  0  0  0  0  0  0  0  0  0
    0.9425   -2.1076   -3.5711 H   0  0  0  0  0  0  0  0  0  0  0  0
    0.8573   -2.7177    3.4927 C   0  0  0  0  0  0  0  0  0  0  0  0
    0.5307   -3.4210    2.7318 H   0  0  0  0  0  0  0  0  0  0  0  0
   -0.0217   -2.3448    4.0180 H   0  0  0  0  0  0  0  0  0  0  0  0
    1.4791   -3.2377    4.2185 H   0  0  0  0  0  0  0  0  0  0  0  0
  1  2  1  0  0  0  0
  1  5  1  0  0  0  0
  1  6  1  0  0  0  0
  3  1  1  0  0  0  0
  4 17  1  0  0  0  0
  4  1  1  0  0  0  0
  5 24  1  0  0  0  0
  6  7  1  0  0  0  0
  8  1  1  0  0  0  0
  9  8  1  0  0  0  0
 10  4  1  0  0  0  0
 11 10  1  0  0  0  0
 12 14  2  0  0  0  0
 12 10  1  0  0  0  0
 13 12  1  0  0  0  0
 14 15  1  0  0  0  0
 15 16  1  0  0  0  0
 15 17  2  0  0  0  0
 18 17  1  6  0  0  0
 18 19  1  0  0  0  0
 18  5  1  0  0  0  0
 19 21  2  0  0  0  0
 20 19  1  0  0  0  0
 21 30  1  0  0  0  0
 21 22  1  0  0  0  0
 22 23  1  0  0  0  0
 24 22  2  0  0  0  0
 24 25  1  0  0  0  0
 26 29  1  0  0  0  0
 26 14  1  0  0  0  0
 27 26  1  0  0  0  0
 28 26  1  0  0  0  0
 30 32  1  0  0  0  0
 30 33  1  0  0  0  0
 31 30  1  0  0  0  0
M  END
$$$$
