CSD_code = JOPMOQ | q = 0 | S = 0 | Stoichiometry = C24H36Cl2N2O3Zr | MND = 10
 OpenBabel04212202053D

 68 70  0  0  1  0  0  0  0  0999 V2000
    0.6182   -4.1191   -6.9627 Zr  0  0  0  0  0  0  0  0  0  0  0  0
   -0.1343   -2.1271   -8.0258 Cl  0  0  0  0  0  0  0  0  0  0  0  0
    2.3707   -4.2792   -8.5753 Cl  0  0  0  0  0  0  0  0  0  0  0  0
    1.8359   -5.0806   -5.7180 O   0  0  0  0  0  0  0  0  0  0  0  0
   -0.1155   -3.3691   -5.2625 O   0  0  0  0  0  0  0  0  0  0  0  0
    3.1225   -6.3181   -4.3626 N   0  0  0  0  0  0  0  0  0  0  0  0
    3.2147   -6.7852   -3.4750 H   0  0  0  0  0  0  0  0  0  0  0  0
   -1.5516   -2.9205   -3.5957 N   0  0  0  0  0  0  0  0  0  0  0  0
   -1.9092   -3.1915   -2.6944 H   0  0  0  0  0  0  0  0  0  0  0  0
    1.9653   -5.6719   -4.6035 C   0  0  2  0  0  3  0  0  0  0  0  0
   -0.6009   -3.7073   -4.1374 C   0  0  2  0  0  3  0  0  0  0  0  0
    0.9626   -5.7086   -3.5826 C   0  0  0  0  0  0  0  0  0  0  0  0
   -0.1918   -4.8560   -3.3908 C   0  0  0  0  0  0  0  0  0  0  0  0
   -0.8470   -5.3287   -2.2368 C   0  0  0  0  0  0  0  0  0  0  0  0
   -1.7577   -4.9426   -1.8129 H   0  0  0  0  0  0  0  0  0  0  0  0
   -0.1629   -6.4242   -1.7361 C   0  0  0  0  0  0  0  0  0  0  0  0
   -0.4456   -7.0038   -0.8768 H   0  0  0  0  0  0  0  0  0  0  0  0
    0.9474   -6.6483   -2.5368 C   0  0  0  0  0  3  0  0  0  0  0  0
    1.6435   -7.4570   -2.3971 H   0  0  0  0  0  0  0  0  0  0  0  0
    4.2167   -6.4995   -5.3210 C   0  0  0  0  0  0  0  0  0  0  0  0
    5.2733   -7.3522   -4.6171 C   0  0  0  0  0  0  0  0  0  0  0  0
    5.6227   -6.8611   -3.7108 H   0  0  0  0  0  0  0  0  0  0  0  0
    6.1258   -7.5039   -5.2728 H   0  0  0  0  0  0  0  0  0  0  0  0
    4.8674   -8.3273   -4.3553 H   0  0  0  0  0  0  0  0  0  0  0  0
    4.8034   -5.1368   -5.7026 C   0  0  0  0  0  0  0  0  0  0  0  0
    4.0612   -4.5473   -6.2399 H   0  0  0  0  0  0  0  0  0  0  0  0
    5.6624   -5.2789   -6.3524 H   0  0  0  0  0  0  0  0  0  0  0  0
    5.1213   -4.5998   -4.8107 H   0  0  0  0  0  0  0  0  0  0  0  0
    3.7036   -7.2170   -6.5729 C   0  0  0  0  0  0  0  0  0  0  0  0
    3.1613   -8.1199   -6.2988 H   0  0  0  0  0  0  0  0  0  0  0  0
    4.5408   -7.4903   -7.2091 H   0  0  0  0  0  0  0  0  0  0  0  0
    3.0446   -6.5596   -7.1388 H   0  0  0  0  0  0  0  0  0  0  0  0
   -2.1906   -1.7614   -4.2246 C   0  0  0  0  0  0  0  0  0  0  0  0
   -1.1444   -0.6927   -4.5557 C   0  0  0  0  0  0  0  0  0  0  0  0
   -0.5460   -0.4623   -3.6758 H   0  0  0  0  0  0  0  0  0  0  0  0
   -1.6422    0.2140   -4.8882 H   0  0  0  0  0  0  0  0  0  0  0  0
   -0.4977   -1.0414   -5.3595 H   0  0  0  0  0  0  0  0  0  0  0  0
   -3.1942   -1.2178   -3.2062 C   0  0  0  0  0  0  0  0  0  0  0  0
   -3.9440   -1.9694   -2.9671 H   0  0  0  0  0  0  0  0  0  0  0  0
   -3.7031   -0.3485   -3.6127 H   0  0  0  0  0  0  0  0  0  0  0  0
   -2.6882   -0.9203   -2.2897 H   0  0  0  0  0  0  0  0  0  0  0  0
   -2.9117   -2.1925   -5.5044 C   0  0  0  0  0  0  0  0  0  0  0  0
   -2.1847   -2.4995   -6.2562 H   0  0  0  0  0  0  0  0  0  0  0  0
   -3.4823   -1.3585   -5.9034 H   0  0  0  0  0  0  0  0  0  0  0  0
   -3.5923   -3.0170   -5.3011 H   0  0  0  0  0  0  0  0  0  0  0  0
    2.2124   -2.4973   -6.2133 O   0  0  0  0  0  0  0  0  0  0  0  0
    2.7482   -1.4662   -7.0465 C   0  0  0  0  0  0  0  0  0  0  0  0
    2.1202   -0.5671   -6.9711 H   0  0  0  0  0  0  0  0  0  0  0  0
    2.7533   -1.8304   -8.0759 H   0  0  0  0  0  0  0  0  0  0  0  0
    4.1429   -1.2226   -6.4735 C   0  0  0  0  0  0  0  0  0  0  0  0
    4.5236   -0.2359   -6.7240 H   0  0  0  0  0  0  0  0  0  0  0  0
    4.8286   -1.9760   -6.8595 H   0  0  0  0  0  0  0  0  0  0  0  0
    3.9237   -1.4115   -4.9659 C   0  0  0  0  0  0  0  0  0  0  0  0
    4.7150   -2.0111   -4.5208 H   0  0  0  0  0  0  0  0  0  0  0  0
    3.8874   -0.4556   -4.4456 H   0  0  0  0  0  0  0  0  0  0  0  0
    2.5581   -2.1234   -4.8828 C   0  0  0  0  0  0  0  0  0  0  0  0
    2.5808   -3.0297   -4.2716 H   0  0  0  0  0  0  0  0  0  0  0  0
    1.7936   -1.4414   -4.4847 H   0  0  0  0  0  0  0  0  0  0  0  0
   -0.6427   -5.3774   -8.6838 C   0  0  1  0  0  0  0  0  0  0  0  0
   -0.5202   -5.1409   -9.7356 H   0  0  0  0  0  0  0  0  0  0  0  0
    0.0771   -6.3594   -7.9650 C   0  0  0  0  0  3  0  0  0  0  0  0
    0.8381   -7.0105   -8.3786 H   0  0  0  0  0  0  0  0  0  0  0  0
   -0.4754   -6.4427   -6.6699 C   0  0  0  0  0  0  0  0  0  0  0  0
   -0.2073   -7.1634   -5.9073 H   0  0  0  0  0  0  0  0  0  0  0  0
   -1.5335   -5.5167   -6.5860 C   0  0  0  0  0  0  0  0  0  0  0  0
   -2.2156   -5.4175   -5.7511 H   0  0  0  0  0  0  0  0  0  0  0  0
   -1.6416   -4.8600   -7.8296 C   0  0  0  0  0  3  0  0  0  0  0  0
   -2.4230   -4.1698   -8.1240 H   0  0  0  0  0  0  0  0  0  0  0  0
  1  4  1  0  0  0  0
  1  5  1  0  0  0  0
  2  1  1  0  0  0  0
  3  1  1  0  0  0  0
  4 10  1  0  0  0  0
  5 11  1  0  0  0  0
  6  7  1  0  0  0  0
  8  9  1  0  0  0  0
 10  6  1  6  0  0  0
 10 12  1  0  0  0  0
 11  8  1  1  0  0  0
 11 13  1  0  0  0  0
 12 13  2  0  0  0  0
 12 18  1  0  0  0  0
 13 14  1  0  0  0  0
 14 15  1  0  0  0  0
 14 16  2  0  0  0  0
 16 17  1  0  0  0  0
 18 19  1  0  0  0  0
 18 16  1  0  0  0  0
 20 21  1  0  0  0  0
 20  6  1  0  0  0  0
 21 24  1  0  0  0  0
 21 22  1  0  0  0  0
 23 21  1  0  0  0  0
 25 20  1  0  0  0  0
 25 28  1  0  0  0  0
 26 25  1  0  0  0  0
 27 25  1  0  0  0  0
 29 30  1  0  0  0  0
 29 20  1  0  0  0  0
 31 29  1  0  0  0  0
 32 29  1  0  0  0  0
 33  8  1  0  0  0  0
 33 38  1  0  0  0  0
 34 33  1  0  0  0  0
 34 35  1  0  0  0  0
 36 34  1  0  0  0  0
 37 34  1  0  0  0  0
 38 39  1  0  0  0  0
 38 41  1  0  0  0  0
 40 38  1  0  0  0  0
 42 45  1  0  0  0  0
 42 33  1  0  0  0  0
 43 42  1  0  0  0  0
 44 42  1  0  0  0  0
 46 56  1  0  0  0  0
 47 48  1  0  0  0  0
 47 50  1  0  0  0  0
 47 46  1  0  0  0  0
 49 47  1  0  0  0  0
 50 53  1  0  0  0  0
 51 50  1  0  0  0  0
 52 50  1  0  0  0  0
 53 56  1  0  0  0  0
 53 54  1  0  0  0  0
 53 55  1  0  0  0  0
 56 58  1  0  0  0  0
 56 57  1  0  0  0  0
 59 60  1  6  0  0  0
 59 61  1  0  0  0  0
 59 67  1  0  0  0  0
 59  1  1  0  0  0  0
 61 63  1  0  0  0  0
 62 61  1  0  0  0  0
 63 65  2  0  0  0  0
 63 64  1  0  0  0  0
 65 66  1  0  0  0  0
 67 65  1  0  0  0  0
 68 67  1  0  0  0  0
M  END
$$$$
