CSD_code = JOPQAG | q = 0 | S = 0 | Stoichiometry = C19H31Cl3N2O3Zr | MND = 6
 OpenBabel04212202053D

 59 60  0  0  1  0  0  0  0  0999 V2000
    6.7802   10.8013    2.7253 Zr  0  0  0  0  0  0  0  0  0  0  0  0
    8.4929   12.2047    3.4740 Cl  0  0  0  0  0  0  0  0  0  0  0  0
    6.7637    9.5956    4.7289 Cl  0  0  0  0  0  0  0  0  0  0  0  0
    8.1587    9.3128    1.5806 Cl  0  0  0  0  0  0  0  0  0  0  0  0
    5.1460    9.9120    2.1205 O   0  0  0  0  0  0  0  0  0  0  0  0
    6.5330   11.9254    1.1430 O   0  0  0  0  0  0  0  0  0  0  0  0
    3.0637    9.1563    1.7794 N   0  0  0  0  0  0  0  0  0  0  0  0
    2.1313    9.3518    1.4510 H   0  0  0  0  0  0  0  0  0  0  0  0
    6.0744   13.4888   -0.3955 N   0  0  0  0  0  0  0  0  0  0  0  0
    5.3705   14.0066   -0.8975 H   0  0  0  0  0  0  0  0  0  0  0  0
    3.9516   10.1625    1.7639 C   0  0  1  0  0  3  0  0  0  0  0  0
    5.6579   12.6247    0.5424 C   0  0  2  0  0  3  0  0  0  0  0  0
    3.4932   11.4613    1.3704 C   0  0  0  0  0  0  0  0  0  0  0  0
    4.2555   12.5620    0.8274 C   0  0  0  0  0  0  0  0  0  0  0  0
    3.3358   13.5835    0.5323 C   0  0  0  0  0  0  0  0  0  0  0  0
    3.5781   14.5557    0.1401 H   0  0  0  0  0  0  0  0  0  0  0  0
    2.0627   13.1685    0.8989 C   0  0  0  0  0  0  0  0  0  0  0  0
    1.1648   13.7533    0.8219 H   0  0  0  0  0  0  0  0  0  0  0  0
    2.1468   11.8692    1.3782 C   0  0  0  0  0  3  0  0  0  0  0  0
    1.3154   11.2944    1.7472 H   0  0  0  0  0  0  0  0  0  0  0  0
    3.3340    7.7942    2.2555 C   0  0  0  0  0  0  0  0  0  0  0  0
    2.0495    6.9943    2.0352 C   0  0  0  0  0  0  0  0  0  0  0  0
    1.2233    7.4293    2.5944 H   0  0  0  0  0  0  0  0  0  0  0  0
    2.1875    5.9720    2.3750 H   0  0  0  0  0  0  0  0  0  0  0  0
    1.7879    6.9703    0.9794 H   0  0  0  0  0  0  0  0  0  0  0  0
    4.4825    7.1719    1.4550 C   0  0  0  0  0  0  0  0  0  0  0  0
    4.2640    7.2071    0.3897 H   0  0  0  0  0  0  0  0  0  0  0  0
    4.6117    6.1345    1.7508 H   0  0  0  0  0  0  0  0  0  0  0  0
    5.4181    7.7014    1.6381 H   0  0  0  0  0  0  0  0  0  0  0  0
    3.6809    7.8387    3.7466 C   0  0  0  0  0  0  0  0  0  0  0  0
    4.6048    8.3928    3.9149 H   0  0  0  0  0  0  0  0  0  0  0  0
    3.8189    6.8286    4.1211 H   0  0  0  0  0  0  0  0  0  0  0  0
    2.8781    8.3108    4.3103 H   0  0  0  0  0  0  0  0  0  0  0  0
    7.4752   13.7304   -0.7630 C   0  0  0  0  0  0  0  0  0  0  0  0
    8.1289   12.4257   -1.2298 C   0  0  0  0  0  0  0  0  0  0  0  0
    8.1911   11.7057   -0.4131 H   0  0  0  0  0  0  0  0  0  0  0  0
    9.1353   12.6292   -1.5846 H   0  0  0  0  0  0  0  0  0  0  0  0
    7.5546   11.9841   -2.0417 H   0  0  0  0  0  0  0  0  0  0  0  0
    7.4551   14.7448   -1.9070 C   0  0  0  0  0  0  0  0  0  0  0  0
    6.9086   14.3502   -2.7612 H   0  0  0  0  0  0  0  0  0  0  0  0
    8.4701   14.9644   -2.2246 H   0  0  0  0  0  0  0  0  0  0  0  0
    6.9896   15.6757   -1.5888 H   0  0  0  0  0  0  0  0  0  0  0  0
    8.2267   14.3064    0.4408 C   0  0  0  0  0  0  0  0  0  0  0  0
    7.7372   15.2110    0.7978 H   0  0  0  0  0  0  0  0  0  0  0  0
    9.2439   14.5552    0.1523 H   0  0  0  0  0  0  0  0  0  0  0  0
    8.2730   13.5826    1.2550 H   0  0  0  0  0  0  0  0  0  0  0  0
    5.4031   12.1904    3.7084 O   0  0  0  0  0  0  0  0  0  0  0  0
    4.4152   11.8249    4.6965 C   0  0  0  0  0  0  0  0  0  0  0  0
    4.8804   11.1618    5.4367 H   0  0  0  0  0  0  0  0  0  0  0  0
    3.6181   11.2853    4.1709 H   0  0  0  0  0  0  0  0  0  0  0  0
    3.9012   13.1322    5.3121 C   0  0  0  0  0  0  0  0  0  0  0  0
    2.8230   13.1188    5.4495 H   0  0  0  0  0  0  0  0  0  0  0  0
    4.3756   13.3108    6.2767 H   0  0  0  0  0  0  0  0  0  0  0  0
    4.3537   14.1833    4.3004 C   0  0  0  0  0  0  0  0  0  0  0  0
    4.4607   15.1736    4.7345 H   0  0  0  0  0  0  0  0  0  0  0  0
    3.6621   14.2259    3.4575 H   0  0  0  0  0  0  0  0  0  0  0  0
    5.6818   13.5910    3.8497 C   0  0  0  0  0  0  0  0  0  0  0  0
    6.4665   13.7357    4.6060 H   0  0  0  0  0  0  0  0  0  0  0  0
    6.0355   13.9637    2.8842 H   0  0  0  0  0  0  0  0  0  0  0  0
  1  2  1  0  0  0  0
  1  3  1  0  0  0  0
  4  1  1  0  0  0  0
  5  1  1  0  0  0  0
  6  1  1  0  0  0  0
  7 21  1  0  0  0  0
  8  7  1  0  0  0  0
 10  9  1  0  0  0  0
 11  7  1  1  0  0  0
 11  5  1  0  0  0  0
 12  9  1  1  0  0  0
 12 14  1  0  0  0  0
 12  6  1  0  0  0  0
 13 19  1  0  0  0  0
 13 11  1  0  0  0  0
 14 13  2  0  0  0  0
 15 14  1  0  0  0  0
 15 17  2  0  0  0  0
 16 15  1  0  0  0  0
 17 19  1  0  0  0  0
 18 17  1  0  0  0  0
 19 20  1  0  0  0  0
 21 30  1  0  0  0  0
 22 21  1  0  0  0  0
 22 24  1  0  0  0  0
 22 23  1  0  0  0  0
 25 22  1  0  0  0  0
 26 29  1  0  0  0  0
 26 28  1  0  0  0  0
 26 21  1  0  0  0  0
 27 26  1  0  0  0  0
 30 31  1  0  0  0  0
 30 32  1  0  0  0  0
 30 33  1  0  0  0  0
 34  9  1  0  0  0  0
 34 43  1  0  0  0  0
 35 34  1  0  0  0  0
 35 36  1  0  0  0  0
 37 35  1  0  0  0  0
 38 35  1  0  0  0  0
 39 42  1  0  0  0  0
 39 34  1  0  0  0  0
 40 39  1  0  0  0  0
 41 39  1  0  0  0  0
 43 44  1  0  0  0  0
 43 46  1  0  0  0  0
 45 43  1  0  0  0  0
 47 57  1  0  0  0  0
 47 48  1  0  0  0  0
 48 51  1  0  0  0  0
 48 49  1  0  0  0  0
 50 48  1  0  0  0  0
 51 52  1  0  0  0  0
 51 53  1  0  0  0  0
 54 55  1  0  0  0  0
 54 51  1  0  0  0  0
 56 54  1  0  0  0  0
 57 54  1  0  0  0  0
 57 58  1  0  0  0  0
 59 57  1  0  0  0  0
M  END
$$$$
