CSD_code = JOTPAM | q = 1 | S = 0 | Stoichiometry = C35H28ClN2P2Pd(1+) | MND = 4
 OpenBabel04212202053D

 69 76  0  0  1  0  0  0  0  0999 V2000
    1.2770    3.6607    5.6335 Pd  0  0  1  0  0  0  0  0  0  0  0  0
    0.2469    3.1472    7.6151 Cl  0  0  0  0  0  0  0  0  0  0  0  0
    1.7440    2.1757    3.4614 P   0  0  0  0  0  4  0  0  0  0  0  0
    0.1393    5.2960    5.2980 N   0  0  0  0  0  0  0  0  0  0  0  0
    1.1743    4.9519    2.8549 P   0  0  0  0  0  4  0  0  0  0  0  0
    2.5085    2.1646    5.9037 N   0  0  0  0  0  0  0  0  0  0  0  0
    0.0327    5.7656    4.0398 C   0  0  2  0  0  3  0  0  0  0  0  0
   -0.7582    6.8573    3.7154 C   0  0  0  0  0  0  0  0  0  0  0  0
   -0.8024    7.1938    2.6899 H   0  0  0  0  0  0  0  0  0  0  0  0
   -1.4699    7.4924    4.7214 C   0  0  0  0  0  0  0  0  0  0  0  0
   -2.0988    8.3406    4.4992 H   0  0  0  0  0  0  0  0  0  0  0  0
   -1.3421    7.0180    6.0175 C   0  0  0  0  0  0  0  0  0  0  0  0
   -1.8638    7.4884    6.8351 H   0  0  0  0  0  0  0  0  0  0  0  0
   -0.5301    5.9209    6.2661 C   0  0  0  0  0  0  0  0  0  0  0  0
   -0.4246    5.5130    7.2664 H   0  0  0  0  0  0  0  0  0  0  0  0
    0.2279    4.3901    1.4252 C   0  0  0  0  0  0  0  0  0  0  0  0
   -1.1392    4.1444    1.4807 C   0  0  0  0  0  0  0  0  0  0  0  0
   -1.7021    4.3860    2.3725 H   0  0  0  0  0  0  0  0  0  0  0  0
   -1.7750    3.6035    0.3775 C   0  0  0  0  0  0  0  0  0  0  0  0
   -2.8373    3.4152    0.4113 H   0  0  0  0  0  0  0  0  0  0  0  0
   -1.0523    3.3067   -0.7676 C   0  0  0  0  0  0  0  0  0  0  0  0
   -1.5557    2.8870   -1.6248 H   0  0  0  0  0  0  0  0  0  0  0  0
    0.3125    3.5484   -0.8178 C   0  0  0  0  0  0  0  0  0  0  0  0
    0.8725    3.3177   -1.7110 H   0  0  0  0  0  0  0  0  0  0  0  0
    0.9584    4.0844    0.2798 C   0  0  0  0  0  0  0  0  0  0  0  0
    2.0242    4.2736    0.2634 H   0  0  0  0  0  0  0  0  0  0  0  0
    2.1869    6.3548    2.3387 C   0  0  0  0  0  0  0  0  0  0  0  0
    1.8475    7.1703    1.2641 C   0  0  0  0  0  0  0  0  0  0  0  0
    0.9728    6.9475    0.6680 H   0  0  0  0  0  0  0  0  0  0  0  0
    2.6512    8.2524    0.9553 C   0  0  0  0  0  0  0  0  0  0  0  0
    2.4002    8.8851    0.1175 H   0  0  0  0  0  0  0  0  0  0  0  0
    3.7761    8.5249    1.7191 C   0  0  0  0  0  0  0  0  0  0  0  0
    4.3976    9.3720    1.4728 H   0  0  0  0  0  0  0  0  0  0  0  0
    4.1073    7.7152    2.7949 C   0  0  0  0  0  0  0  0  0  0  0  0
    4.9839    7.9326    3.3857 H   0  0  0  0  0  0  0  0  0  0  0  0
    3.3135    6.6276    3.1084 C   0  0  0  0  0  0  0  0  0  0  0  0
    3.5546    5.9739    3.9388 H   0  0  0  0  0  0  0  0  0  0  0  0
    2.7464    1.4431    4.7966 C   0  0  1  0  0  3  0  0  0  0  0  0
    3.6020    0.3568    4.7925 C   0  0  0  0  0  0  0  0  0  0  0  0
    3.7654   -0.2009    3.8820 H   0  0  0  0  0  0  0  0  0  0  0  0
    4.2426    0.0200    5.9777 C   0  0  0  0  0  0  0  0  0  0  0  0
    4.9191   -0.8200    6.0130 H   0  0  0  0  0  0  0  0  0  0  0  0
    4.0008    0.7804    7.1112 C   0  0  0  0  0  0  0  0  0  0  0  0
    4.4826    0.5478    8.0471 H   0  0  0  0  0  0  0  0  0  0  0  0
    3.1230    1.8527    7.0391 C   0  0  0  0  0  0  0  0  0  0  0  0
    2.8944    2.4614    7.9085 H   0  0  0  0  0  0  0  0  0  0  0  0
    2.3000    1.4952    1.8857 C   0  0  0  0  0  0  0  0  0  0  0  0
    3.6484    1.6756    1.5874 C   0  0  0  0  0  0  0  0  0  0  0  0
    4.2901    2.1464    2.3220 H   0  0  0  0  0  0  0  0  0  0  0  0
    4.1413    1.2581    0.3661 C   0  0  0  0  0  0  0  0  0  0  0  0
    5.1876    1.3842    0.1327 H   0  0  0  0  0  0  0  0  0  0  0  0
    3.2860    0.6795   -0.5606 C   0  0  0  0  0  0  0  0  0  0  0  0
    3.6711    0.3539   -1.5147 H   0  0  0  0  0  0  0  0  0  0  0  0
    1.9396    0.5228   -0.2710 C   0  0  0  0  0  0  0  0  0  0  0  0
    1.2778    0.0804   -1.0000 H   0  0  0  0  0  0  0  0  0  0  0  0
    1.4383    0.9341    0.9513 C   0  0  0  0  0  0  0  0  0  0  0  0
    0.3878    0.8228    1.1829 H   0  0  0  0  0  0  0  0  0  0  0  0
    0.1539    1.3400    3.8617 C   0  0  0  0  0  0  0  0  0  0  0  0
   -0.9381    2.0458    4.3592 C   0  0  0  0  0  0  0  0  0  0  0  0
   -0.9262    3.1380    4.3816 H   0  0  0  0  0  0  0  0  0  0  0  0
   -2.0621    1.3599    4.7885 C   0  0  0  0  0  0  0  0  0  0  0  0
   -2.9068    1.9051    5.1812 H   0  0  0  0  0  0  0  0  0  0  0  0
   -2.0943   -0.0242    4.7275 C   0  0  0  0  0  0  0  0  0  0  0  0
   -2.9658   -0.5567    5.0753 H   0  0  0  0  0  0  0  0  0  0  0  0
   -1.0097   -0.7277    4.2262 C   0  0  0  0  0  0  0  0  0  0  0  0
   -1.0380   -1.8056    4.1798 H   0  0  0  0  0  0  0  0  0  0  0  0
    0.1177   -0.0512    3.7989 C   0  0  0  0  0  0  0  0  0  0  0  0
    0.9744   -0.5916    3.4178 H   0  0  0  0  0  0  0  0  0  0  0  0
    2.1830    3.8388    3.7353 C   0  0  1  0  0  3  0  0  0  0  0  0
  1  6  1  0  0  0  0
  1  2  1  6  0  0  0
  3 69  1  0  0  0  0
  3 58  1  0  0  0  0
  3 38  1  0  0  0  0
  4  1  1  0  0  0  0
  4 14  1  0  0  0  0
  5  7  1  0  0  0  0
  6 45  1  0  0  0  0
  7  8  1  1  0  0  0
  7  4  1  0  0  0  0
  8 10  2  0  0  0  0
  9  8  1  0  0  0  0
 10 12  1  0  0  0  0
 11 10  1  0  0  0  0
 12 14  2  0  0  0  0
 12 13  1  0  0  0  0
 14 15  1  0  0  0  0
 16 17  1  0  0  0  0
 16  5  1  0  0  0  0
 17 18  1  0  0  0  0
 19 20  1  0  0  0  0
 19 17  2  0  0  0  0
 21 19  1  0  0  0  0
 22 21  1  0  0  0  0
 23 21  2  0  0  0  0
 23 25  1  0  0  0  0
 24 23  1  0  0  0  0
 25 16  2  0  0  0  0
 26 25  1  0  0  0  0
 27  5  1  0  0  0  0
 27 36  1  0  0  0  0
 28 27  2  0  0  0  0
 29 28  1  0  0  0  0
 30 28  1  0  0  0  0
 30 32  2  0  0  0  0
 31 30  1  0  0  0  0
 32 34  1  0  0  0  0
 33 32  1  0  0  0  0
 34 36  2  0  0  0  0
 34 35  1  0  0  0  0
 36 37  1  0  0  0  0
 38 39  1  1  0  0  0
 38  6  1  0  0  0  0
 39 41  2  0  0  0  0
 40 39  1  0  0  0  0
 41 42  1  0  0  0  0
 41 43  1  0  0  0  0
 43 44  1  0  0  0  0
 45 43  2  0  0  0  0
 45 46  1  0  0  0  0
 47  3  1  0  0  0  0
 48 47  1  0  0  0  0
 48 49  1  0  0  0  0
 50 48  2  0  0  0  0
 51 50  1  0  0  0  0
 52 54  2  0  0  0  0
 52 50  1  0  0  0  0
 53 52  1  0  0  0  0
 54 56  1  0  0  0  0
 55 54  1  0  0  0  0
 56 57  1  0  0  0  0
 56 47  2  0  0  0  0
 58 59  1  0  0  0  0
 59 60  1  0  0  0  0
 59 61  2  0  0  0  0
 61 62  1  0  0  0  0
 63 61  1  0  0  0  0
 63 64  1  0  0  0  0
 65 63  2  0  0  0  0
 66 65  1  0  0  0  0
 67 58  2  0  0  0  0
 67 65  1  0  0  0  0
 68 67  1  0  0  0  0
 69  5  1  6  0  0  0
 69  1  1  0  0  0  0
M  END
$$$$
