CSD_code = JOTQOA | q = 0 | S = 0 | Stoichiometry = C12H10AuBr2N | MND = 4
 OpenBabel04212202053D

 26 28  0  0  0  0  0  0  0  0999 V2000
    1.6418    3.5259    1.1037 Au  0  0  0  0  0  0  0  0  0  0  0  0
    2.0473    2.5924    3.3445 Br  0  0  0  0  0  0  0  0  0  0  0  0
    1.4390    1.3318    0.2316 Br  0  0  0  0  0  0  0  0  0  0  0  0
    1.7517    5.8789    3.0013 C   0  0  0  0  0  0  0  0  0  0  0  0
    1.9751    5.1111    3.7286 H   0  0  0  0  0  0  0  0  0  0  0  0
    1.5246    7.1816    3.3943 C   0  0  0  0  0  0  0  0  0  0  0  0
    1.5944    7.4481    4.4354 H   0  0  0  0  0  0  0  0  0  0  0  0
    1.1619    8.1021    2.4223 C   0  0  0  0  0  0  0  0  0  0  0  0
    0.9060    9.1157    2.6908 H   0  0  0  0  0  0  0  0  0  0  0  0
    1.1255    7.7055    1.0998 C   0  0  0  0  0  0  0  0  0  0  0  0
    0.8055    8.3992    0.3450 H   0  0  0  0  0  0  0  0  0  0  0  0
    1.4515    6.3929    0.7496 C   0  0  0  0  0  0  0  0  0  0  0  0
    1.4764    5.8499   -0.5985 C   0  0  0  0  0  0  0  0  0  0  0  0
    1.4024    4.4460   -0.6842 C   0  0  0  0  0  0  0  0  0  0  0  0
    1.2854    3.8261   -1.9083 C   0  0  0  0  0  0  0  0  0  0  0  0
    1.2038    2.7545   -1.9869 H   0  0  0  0  0  0  0  0  0  0  0  0
    1.2807    4.5858   -3.0697 C   0  0  0  0  0  0  0  0  0  0  0  0
    1.1744    4.0957   -4.0251 H   0  0  0  0  0  0  0  0  0  0  0  0
    1.4651    5.9505   -2.9988 C   0  0  0  0  0  0  0  0  0  0  0  0
    1.5295    6.5277   -3.9096 H   0  0  0  0  0  0  0  0  0  0  0  0
    1.5805    6.6080   -1.7801 C   0  0  0  0  0  0  0  0  0  0  0  0
    1.8760    8.0779   -1.8161 C   0  0  0  0  0  0  0  0  0  0  0  0
    0.9597    8.6668   -1.7620 H   0  0  0  0  0  0  0  0  0  0  0  0
    2.3578    8.3211   -2.7611 H   0  0  0  0  0  0  0  0  0  0  0  0
    2.5411    8.3753   -1.0086 H   0  0  0  0  0  0  0  0  0  0  0  0
    1.6977    5.4978    1.7298 N   0  0  0  0  0  0  0  0  0  0  0  0
  1 26  1  0  0  0  0
  1  2  1  0  0  0  0
  3  1  1  0  0  0  0
  4  6  2  0  0  0  0
  4  5  1  0  0  0  0
  6  7  1  0  0  0  0
  8  9  1  0  0  0  0
  8  6  1  0  0  0  0
 10  8  2  0  0  0  0
 11 10  1  0  0  0  0
 12 10  1  0  0  0  0
 12 26  1  0  0  0  0
 13 12  2  0  0  0  0
 14 13  1  0  0  0  0
 14  1  2  0  0  0  0
 15 14  1  0  0  0  0
 16 15  1  0  0  0  0
 17 19  1  0  0  0  0
 17 15  2  0  0  0  0
 18 17  1  0  0  0  0
 19 21  2  0  0  0  0
 20 19  1  0  0  0  0
 21 13  1  0  0  0  0
 22 21  1  0  0  0  0
 22 23  1  0  0  0  0
 22 25  1  0  0  0  0
 24 22  1  0  0  0  0
 26  4  1  0  0  0  0
M  END
$$$$
