CSD_code = JOTZID | q = 0 | S = 0 | Stoichiometry = C17H31Cl2FeNO2P2 | MND = 5
 OpenBabel04212202053D

 56 58  0  0  1  0  0  0  0  0999 V2000
   10.5881    4.7359   11.3912 Fe  0  0  0  0  0  0  0  0  0  0  0  0
    8.9404    4.2341   12.7150 P   0  0  0  0  0  4  0  0  0  0  0  0
   12.1477    5.6175   10.1717 P   0  0  0  0  0  4  0  0  0  0  0  0
    9.3440    4.7162    9.6109 Cl  0  0  0  0  0  0  0  0  0  0  0  0
   11.4328    2.7909   11.4245 Cl  0  0  0  0  0  0  0  0  0  0  0  0
    8.4117    5.7614   13.1157 O   0  0  0  0  0  0  0  0  0  0  0  0
   11.7457    7.2299   10.3117 O   0  0  0  0  0  0  0  0  0  0  0  0
   10.0924    6.5088   11.7361 N   0  0  0  0  0  0  0  0  0  0  0  0
    9.0385    6.7972   12.5255 C   0  0  2  0  0  3  0  0  0  0  0  0
    8.6035    8.0895   12.7548 C   0  0  0  0  0  0  0  0  0  0  0  0
    7.7571    8.2496   13.4004 H   0  0  0  0  0  0  0  0  0  0  0  0
    9.2640    9.1360   12.1281 C   0  0  0  0  0  0  0  0  0  0  0  0
    8.9439   10.1532   12.2808 H   0  0  0  0  0  0  0  0  0  0  0  0
   10.3358    8.8537   11.2943 C   0  0  0  0  0  0  0  0  0  0  0  0
   10.8755    9.6243   10.7711 H   0  0  0  0  0  0  0  0  0  0  0  0
   10.7112    7.5344   11.1184 C   0  0  0  0  0  0  0  0  0  0  0  0
    7.3415    3.3844   12.3103 C   0  0  0  0  0  0  0  0  0  0  0  0
    6.8491    3.1183   13.2542 H   0  0  0  0  0  0  0  0  0  0  0  0
    6.4229    4.2781   11.4857 C   0  0  0  0  0  0  0  0  0  0  0  0
    6.9260    4.5905   10.5731 H   0  0  0  0  0  0  0  0  0  0  0  0
    6.1332    5.1631   12.0491 H   0  0  0  0  0  0  0  0  0  0  0  0
    5.5223    3.7303   11.2140 H   0  0  0  0  0  0  0  0  0  0  0  0
    7.7201    2.1154   11.5511 C   0  0  0  0  0  0  0  0  0  0  0  0
    6.8410    1.5032   11.3610 H   0  0  0  0  0  0  0  0  0  0  0  0
    8.4424    1.5239   12.1134 H   0  0  0  0  0  0  0  0  0  0  0  0
    8.1719    2.3828   10.5980 H   0  0  0  0  0  0  0  0  0  0  0  0
    9.3296    3.5996   14.4250 C   0  0  0  0  0  0  0  0  0  0  0  0
    9.2911    2.5067   14.3562 H   0  0  0  0  0  0  0  0  0  0  0  0
    8.3500    4.0895   15.4849 C   0  0  0  0  0  0  0  0  0  0  0  0
    8.5938    3.6415   16.4470 H   0  0  0  0  0  0  0  0  0  0  0  0
    7.3243    3.8267   15.2373 H   0  0  0  0  0  0  0  0  0  0  0  0
    8.4087    5.1712   15.5848 H   0  0  0  0  0  0  0  0  0  0  0  0
   10.7583    4.0297   14.7527 C   0  0  0  0  0  0  0  0  0  0  0  0
   10.8440    5.1181   14.7175 H   0  0  0  0  0  0  0  0  0  0  0  0
   11.4528    3.5952   14.0332 H   0  0  0  0  0  0  0  0  0  0  0  0
   11.0451    3.6982   15.7492 H   0  0  0  0  0  0  0  0  0  0  0  0
   12.3264    5.5635    8.3294 C   0  0  0  0  0  0  0  0  0  0  0  0
   11.3678    5.9702    7.9794 H   0  0  0  0  0  0  0  0  0  0  0  0
   13.4600    6.4444    7.8173 C   0  0  0  0  0  0  0  0  0  0  0  0
   14.4310    6.0251    8.0710 H   0  0  0  0  0  0  0  0  0  0  0  0
   13.3861    7.4456    8.2382 H   0  0  0  0  0  0  0  0  0  0  0  0
   13.4000    6.5232    6.7331 H   0  0  0  0  0  0  0  0  0  0  0  0
   12.4286    4.1171    7.8593 C   0  0  0  0  0  0  0  0  0  0  0  0
   12.3752    4.0719    6.7733 H   0  0  0  0  0  0  0  0  0  0  0  0
   11.6026    3.5386    8.2684 H   0  0  0  0  0  0  0  0  0  0  0  0
   13.3601    3.6568    8.1785 H   0  0  0  0  0  0  0  0  0  0  0  0
   13.8436    5.7113   10.9365 C   0  0  0  0  0  0  0  0  0  0  0  0
   14.3770    6.5731   10.5194 H   0  0  0  0  0  0  0  0  0  0  0  0
   14.6165    4.4207   10.7004 C   0  0  0  0  0  0  0  0  0  0  0  0
   15.5128    4.4008   11.3191 H   0  0  0  0  0  0  0  0  0  0  0  0
   14.9228    4.3257    9.6618 H   0  0  0  0  0  0  0  0  0  0  0  0
   13.9984    3.5625   10.9611 H   0  0  0  0  0  0  0  0  0  0  0  0
   13.6047    5.9268   12.4307 C   0  0  0  0  0  0  0  0  0  0  0  0
   13.0184    5.0953   12.8315 H   0  0  0  0  0  0  0  0  0  0  0  0
   13.0653    6.8567   12.6138 H   0  0  0  0  0  0  0  0  0  0  0  0
   14.5487    5.9699   12.9716 H   0  0  0  0  0  0  0  0  0  0  0  0
  1  5  1  0  0  0  0
  1  8  1  0  0  0  0
  1  2  1  0  0  0  0
  2  6  1  0  0  0  0
  2 27  1  0  0  0  0
  3  7  1  0  0  0  0
  3 47  1  0  0  0  0
  3  1  1  0  0  0  0
  4  1  1  0  0  0  0
  7 16  1  0  0  0  0
  8  9  1  0  0  0  0
  9 10  1  1  0  0  0
  9  6  1  0  0  0  0
 10 11  1  0  0  0  0
 12 13  1  0  0  0  0
 12 10  2  0  0  0  0
 14 12  1  0  0  0  0
 15 14  1  0  0  0  0
 16 14  2  0  0  0  0
 16  8  1  0  0  0  0
 17  2  1  0  0  0  0
 17 18  1  0  0  0  0
 19 21  1  0  0  0  0
 19 17  1  0  0  0  0
 20 19  1  0  0  0  0
 22 19  1  0  0  0  0
 23 25  1  0  0  0  0
 23 17  1  0  0  0  0
 24 23  1  0  0  0  0
 26 23  1  0  0  0  0
 27 33  1  0  0  0  0
 27 29  1  0  0  0  0
 28 27  1  0  0  0  0
 29 32  1  0  0  0  0
 29 30  1  0  0  0  0
 31 29  1  0  0  0  0
 33 36  1  0  0  0  0
 34 33  1  0  0  0  0
 35 33  1  0  0  0  0
 37  3  1  0  0  0  0
 38 37  1  0  0  0  0
 39 40  1  0  0  0  0
 39 41  1  0  0  0  0
 39 37  1  0  0  0  0
 42 39  1  0  0  0  0
 43 46  1  0  0  0  0
 43 45  1  0  0  0  0
 43 37  1  0  0  0  0
 44 43  1  0  0  0  0
 47 53  1  0  0  0  0
 48 47  1  0  0  0  0
 49 47  1  0  0  0  0
 49 52  1  0  0  0  0
 49 50  1  0  0  0  0
 51 49  1  0  0  0  0
 53 55  1  0  0  0  0
 53 54  1  0  0  0  0
 53 56  1  0  0  0  0
M  END
$$$$
