CSD_code = JOTZUP | q = 0 | S = 0 | Stoichiometry = C18H31Cl2FeNO3P2 | MND = 6
 OpenBabel04212202053D

 58 60  0  0  1  0  0  0  0  0999 V2000
   28.3356    5.7101    4.7069 Fe  0  0  0  0  0  0  0  0  0  0  0  0
   27.3647    6.5384    2.9240 Cl  0  0  0  0  0  0  0  0  0  0  0  0
   29.1340    4.7381    6.5026 Cl  0  0  0  0  0  0  0  0  0  0  0  0
   29.2692    4.1416    3.5072 P   0  0  0  0  0  4  0  0  0  0  0  0
   27.0350    6.9081    5.9899 P   0  0  0  0  0  4  0  0  0  0  0  0
   28.0520    3.0002    3.4725 O   0  0  0  0  0  0  0  0  0  0  0  0
   25.6815    5.9347    6.0671 O   0  0  0  0  0  0  0  0  0  0  0  0
   30.5427    7.5712    4.6153 O   0  0  0  0  0  1  0  0  0  0  0  0
   26.8365    4.4403    4.7729 N   0  0  0  0  0  0  0  0  0  0  0  0
   26.9139    3.2765    4.1219 C   0  0  2  0  0  3  0  0  0  0  0  0
   25.8614    2.3711    4.1080 C   0  0  0  0  0  0  0  0  0  0  0  0
   25.9694    1.4447    3.5706 H   0  0  0  0  0  0  0  0  0  0  0  0
   24.7036    2.7013    4.7911 C   0  0  0  0  0  0  0  0  0  0  0  0
   23.8678    2.0201    4.7976 H   0  0  0  0  0  0  0  0  0  0  0  0
   24.6200    3.9080    5.4643 C   0  0  0  0  0  0  0  0  0  0  0  0
   23.7392    4.2057    6.0064 H   0  0  0  0  0  0  0  0  0  0  0  0
   25.7179    4.7574    5.4300 C   0  0  0  0  0  0  0  0  0  0  0  0
   29.6741    4.2669    1.6936 C   0  0  0  0  0  0  0  0  0  0  0  0
   30.3940    3.4708    1.4733 H   0  0  0  0  0  0  0  0  0  0  0  0
   30.3341    5.6226    1.4555 C   0  0  0  0  0  0  0  0  0  0  0  0
   30.7168    5.6837    0.4384 H   0  0  0  0  0  0  0  0  0  0  0  0
   31.1591    5.7859    2.1474 H   0  0  0  0  0  0  0  0  0  0  0  0
   29.6073    6.4183    1.5987 H   0  0  0  0  0  0  0  0  0  0  0  0
   28.4484    4.0834    0.8057 C   0  0  0  0  0  0  0  0  0  0  0  0
   27.7003    4.8402    1.0282 H   0  0  0  0  0  0  0  0  0  0  0  0
   28.0084    3.0980    0.9450 H   0  0  0  0  0  0  0  0  0  0  0  0
   28.7384    4.1860   -0.2385 H   0  0  0  0  0  0  0  0  0  0  0  0
   30.6078    3.0555    4.2051 C   0  0  0  0  0  0  0  0  0  0  0  0
   30.2353    2.7973    5.2037 H   0  0  0  0  0  0  0  0  0  0  0  0
   31.8894    3.8622    4.3663 C   0  0  0  0  0  0  0  0  0  0  0  0
   32.6380    3.2745    4.8935 H   0  0  0  0  0  0  0  0  0  0  0  0
   31.6923    4.7626    4.9453 H   0  0  0  0  0  0  0  0  0  0  0  0
   32.2981    4.1464    3.3985 H   0  0  0  0  0  0  0  0  0  0  0  0
   30.8260    1.7685    3.4158 C   0  0  0  0  0  0  0  0  0  0  0  0
   31.4201    1.9438    2.5210 H   0  0  0  0  0  0  0  0  0  0  0  0
   29.8756    1.3233    3.1268 H   0  0  0  0  0  0  0  0  0  0  0  0
   31.3649    1.0531    4.0342 H   0  0  0  0  0  0  0  0  0  0  0  0
   26.2634    8.5389    5.5281 C   0  0  0  0  0  0  0  0  0  0  0  0
   25.9639    9.0232    6.4644 H   0  0  0  0  0  0  0  0  0  0  0  0
   27.3348    9.3861    4.8463 C   0  0  0  0  0  0  0  0  0  0  0  0
   27.5865    8.9574    3.8795 H   0  0  0  0  0  0  0  0  0  0  0  0
   28.2426    9.4304    5.4462 H   0  0  0  0  0  0  0  0  0  0  0  0
   26.9725   10.4004    4.6899 H   0  0  0  0  0  0  0  0  0  0  0  0
   25.0345    8.3786    4.6405 C   0  0  0  0  0  0  0  0  0  0  0  0
   24.6388    9.3609    4.3883 H   0  0  0  0  0  0  0  0  0  0  0  0
   24.2556    7.8142    5.1494 H   0  0  0  0  0  0  0  0  0  0  0  0
   25.2959    7.8681    3.7170 H   0  0  0  0  0  0  0  0  0  0  0  0
   27.3454    7.0531    7.8179 C   0  0  0  0  0  0  0  0  0  0  0  0
   27.6025    6.0306    8.1199 H   0  0  0  0  0  0  0  0  0  0  0  0
   28.5577    7.9436    8.0575 C   0  0  0  0  0  0  0  0  0  0  0  0
   28.3515    8.9734    7.7701 H   0  0  0  0  0  0  0  0  0  0  0  0
   29.4069    7.5787    7.4822 H   0  0  0  0  0  0  0  0  0  0  0  0
   28.8291    7.9309    9.1112 H   0  0  0  0  0  0  0  0  0  0  0  0
   26.1247    7.5060    8.6126 C   0  0  0  0  0  0  0  0  0  0  0  0
   26.2740    7.2756    9.6659 H   0  0  0  0  0  0  0  0  0  0  0  0
   25.2273    6.9920    8.2736 H   0  0  0  0  0  0  0  0  0  0  0  0
   25.9675    8.5793    8.5291 H   0  0  0  0  0  0  0  0  0  0  0  0
   29.6626    6.8386    4.6430 C   0  0  0  0  0  2  0  0  0  0  0  0
  1  9  1  0  0  0  0
  1  5  1  0  0  0  0
  1  3  1  0  0  0  0
  2  1  1  0  0  0  0
  4 28  1  0  0  0  0
  4  1  1  0  0  0  0
  5  7  1  0  0  0  0
  5 48  1  0  0  0  0
  6  4  1  0  0  0  0
  8 58  1  0  0  0  0
  9 17  1  0  0  0  0
 10  6  1  1  0  0  0
 10  9  1  0  0  0  0
 11 10  1  0  0  0  0
 11 13  2  0  0  0  0
 12 11  1  0  0  0  0
 13 14  1  0  0  0  0
 13 15  1  0  0  0  0
 15 16  1  0  0  0  0
 17 15  2  0  0  0  0
 17  7  1  0  0  0  0
 18  4  1  0  0  0  0
 19 18  1  0  0  0  0
 20 23  1  0  0  0  0
 20 18  1  0  0  0  0
 20 22  1  0  0  0  0
 21 20  1  0  0  0  0
 24 26  1  0  0  0  0
 24 25  1  0  0  0  0
 24 18  1  0  0  0  0
 27 24  1  0  0  0  0
 28 30  1  0  0  0  0
 28 29  1  0  0  0  0
 30 31  1  0  0  0  0
 30 32  1  0  0  0  0
 33 30  1  0  0  0  0
 34 37  1  0  0  0  0
 34 28  1  0  0  0  0
 35 34  1  0  0  0  0
 36 34  1  0  0  0  0
 38  5  1  0  0  0  0
 38 39  1  0  0  0  0
 40 42  1  0  0  0  0
 40 38  1  0  0  0  0
 41 40  1  0  0  0  0
 43 40  1  0  0  0  0
 44 46  1  0  0  0  0
 44 38  1  0  0  0  0
 45 44  1  0  0  0  0
 47 44  1  0  0  0  0
 48 50  1  0  0  0  0
 48 49  1  0  0  0  0
 48 54  1  0  0  0  0
 50 53  1  0  0  0  0
 51 50  1  0  0  0  0
 52 50  1  0  0  0  0
 54 55  1  0  0  0  0
 56 54  1  0  0  0  0
 57 54  1  0  0  0  0
 58  1  1  0  0  0  0
M  END
$$$$
