CSD_code = JOVMOY | q = 0 | S = 0 | Stoichiometry = C17H16AgClN2 | MND = 2
 OpenBabel04212202053D

 37 39  0  0  1  0  0  0  0  0999 V2000
   -2.9580   -3.1229    4.0367 Ag  0  0  0  0  0  0  0  0  0  0  0  0
   -2.5324   -1.7189    2.4791 C   0  0  1  0  0  3  0  0  0  0  0  0
   -2.3083    0.1826    1.3268 C   0  0  0  0  0  0  0  0  0  0  0  0
   -2.3647    1.2354    1.1421 H   0  0  0  0  0  0  0  0  0  0  0  0
   -1.8822   -0.8298    0.5348 C   0  0  0  0  0  0  0  0  0  0  0  0
   -1.4918   -0.8177   -0.4618 H   0  0  0  0  0  0  0  0  0  0  0  0
   -3.2743    0.3522    3.6117 C   0  0  0  0  0  0  0  0  0  0  0  0
   -2.7912    1.3305    3.6762 H   0  0  0  0  0  0  0  0  0  0  0  0
   -3.0767   -0.2120    4.5304 H   0  0  0  0  0  0  0  0  0  0  0  0
   -4.7633    0.5048    3.4131 C   0  0  0  0  0  0  0  0  0  0  0  0
   -5.2930    1.6670    2.8694 C   0  0  0  0  0  0  0  0  0  0  0  0
   -4.6401    2.4915    2.6191 H   0  0  0  0  0  0  0  0  0  0  0  0
   -6.6561    1.7800    2.6555 C   0  0  0  0  0  0  0  0  0  0  0  0
   -7.0600    2.6898    2.2366 H   0  0  0  0  0  0  0  0  0  0  0  0
   -7.4980    0.7299    2.9783 C   0  0  0  0  0  0  0  0  0  0  0  0
   -8.5610    0.8186    2.8115 H   0  0  0  0  0  0  0  0  0  0  0  0
   -6.9749   -0.4336    3.5189 C   0  0  0  0  0  0  0  0  0  0  0  0
   -7.6273   -1.2541    3.7758 H   0  0  0  0  0  0  0  0  0  0  0  0
   -5.6138   -0.5446    3.7354 C   0  0  0  0  0  0  0  0  0  0  0  0
   -5.2019   -1.4554    4.1653 H   0  0  0  0  0  0  0  0  0  0  0  0
   -1.6418   -3.2919    0.7895 C   0  0  0  0  0  0  0  0  0  0  0  0
   -1.8512   -3.3621   -0.2811 H   0  0  0  0  0  0  0  0  0  0  0  0
   -2.2461   -4.0315    1.3272 H   0  0  0  0  0  0  0  0  0  0  0  0
   -0.1762   -3.5298    1.0628 C   0  0  0  0  0  0  0  0  0  0  0  0
    0.7752   -3.3124    0.0757 C   0  0  0  0  0  0  0  0  0  0  0  0
    0.4653   -3.0056   -0.9136 H   0  0  0  0  0  0  0  0  0  0  0  0
    2.1198   -3.4969    0.3488 C   0  0  0  0  0  0  0  0  0  0  0  0
    2.8527   -3.3300   -0.4266 H   0  0  0  0  0  0  0  0  0  0  0  0
    2.5225   -3.8948    1.6119 C   0  0  0  0  0  0  0  0  0  0  0  0
    3.5712   -4.0390    1.8241 H   0  0  0  0  0  0  0  0  0  0  0  0
    1.5777   -4.1110    2.6019 C   0  0  0  0  0  0  0  0  0  0  0  0
    1.8862   -4.4250    3.5874 H   0  0  0  0  0  0  0  0  0  0  0  0
    0.2346   -3.9294    2.3277 C   0  0  0  0  0  0  0  0  0  0  0  0
   -0.5091   -4.1043    3.1024 H   0  0  0  0  0  0  0  0  0  0  0  0
   -3.4000   -4.5960    5.6658 Cl  0  0  0  0  0  0  0  0  0  0  0  0
   -2.6933   -0.3807    2.5105 N   0  0  0  0  0  0  0  0  0  0  0  0
   -2.0348   -1.9814    1.2538 N   0  0  0  0  0  0  0  0  0  0  0  0
  1 35  1  0  0  0  0
  2 36  1  0  0  0  0
  2  1  1  1  0  0  0
  3 36  1  0  0  0  0
  4  3  1  0  0  0  0
  5 37  1  0  0  0  0
  5  3  2  0  0  0  0
  6  5  1  0  0  0  0
  7  8  1  0  0  0  0
  7  9  1  0  0  0  0
 10  7  1  0  0  0  0
 10 19  1  0  0  0  0
 11 10  2  0  0  0  0
 12 11  1  0  0  0  0
 13 11  1  0  0  0  0
 13 15  2  0  0  0  0
 14 13  1  0  0  0  0
 15 17  1  0  0  0  0
 16 15  1  0  0  0  0
 17 19  2  0  0  0  0
 17 18  1  0  0  0  0
 19 20  1  0  0  0  0
 21 24  1  0  0  0  0
 21 37  1  0  0  0  0
 21 23  1  0  0  0  0
 22 21  1  0  0  0  0
 24 33  1  0  0  0  0
 25 27  1  0  0  0  0
 25 24  2  0  0  0  0
 26 25  1  0  0  0  0
 27 29  2  0  0  0  0
 28 27  1  0  0  0  0
 29 30  1  0  0  0  0
 29 31  1  0  0  0  0
 31 32  1  0  0  0  0
 33 31  2  0  0  0  0
 33 34  1  0  0  0  0
 36  7  1  0  0  0  0
 37  2  1  0  0  0  0
M  END
$$$$
