CSD_code = JOWBII | q = 0 | S = 0 | Stoichiometry = C25H37ClOP2PtS | MND = 4
 OpenBabel04212202053D

 68 70  0  0  0  0  0  0  0  0999 V2000
   -0.1319    3.4845    9.7244 C   0  0  0  0  0  0  0  0  0  0  0  0
    0.2683    3.0952    8.4408 C   0  0  0  0  0  0  0  0  0  0  0  0
   -0.4760    2.8572    7.6907 H   0  0  0  0  0  0  0  0  0  0  0  0
    1.6021    3.0145    8.0987 C   0  0  0  0  0  0  0  0  0  0  0  0
    1.8997    2.7075    7.1061 H   0  0  0  0  0  0  0  0  0  0  0  0
    2.5908    3.3341    9.0258 C   0  0  0  0  0  0  0  0  0  0  0  0
    5.1842    3.5588    9.9070 C   0  0  0  0  0  0  0  0  0  0  0  0
    6.5689    3.4271    9.7854 C   0  0  0  0  0  0  0  0  0  0  0  0
    6.9784    3.1147    8.8362 H   0  0  0  0  0  0  0  0  0  0  0  0
    7.3927    3.6883   10.8567 C   0  0  0  0  0  0  0  0  0  0  0  0
    8.4616    3.5793   10.7506 H   0  0  0  0  0  0  0  0  0  0  0  0
    6.8466    4.0906   12.0719 C   0  0  0  0  0  0  0  0  0  0  0  0
    7.4900    4.2956   12.9139 H   0  0  0  0  0  0  0  0  0  0  0  0
    5.4838    4.2270   12.1914 C   0  0  0  0  0  0  0  0  0  0  0  0
    5.0297    4.5417   13.1194 H   0  0  0  0  0  0  0  0  0  0  0  0
    4.6219    3.9660   11.1186 C   0  0  0  0  0  0  0  0  0  0  0  0
    3.1784    4.1497   11.3586 C   0  0  0  0  0  0  0  0  0  0  0  0
    2.2320    3.7426   10.3103 C   0  0  0  0  0  0  0  0  0  0  0  0
    0.8680    3.7925   10.6296 C   0  0  0  0  0  0  0  0  0  0  0  0
    0.6275    4.0939   11.6428 H   0  0  0  0  0  0  0  0  0  0  0  0
   -3.5983    0.8241    9.2973 C   0  0  0  0  0  0  0  0  0  0  0  0
   -3.5906   -0.2617    9.1715 H   0  0  0  0  0  0  0  0  0  0  0  0
   -4.5653    1.1310    9.7033 H   0  0  0  0  0  0  0  0  0  0  0  0
   -3.3519    1.5334    7.9695 C   0  0  0  0  0  0  0  0  0  0  0  0
   -4.1791    1.3717    7.2809 H   0  0  0  0  0  0  0  0  0  0  0  0
   -2.4370    1.1754    7.5008 H   0  0  0  0  0  0  0  0  0  0  0  0
   -3.2546    2.6114    8.1501 H   0  0  0  0  0  0  0  0  0  0  0  0
   -0.9292    0.1970   10.1531 C   0  0  0  0  0  0  0  0  0  0  0  0
   -1.3152   -0.8227   10.0743 H   0  0  0  0  0  0  0  0  0  0  0  0
   -0.5262    0.4820    9.1780 H   0  0  0  0  0  0  0  0  0  0  0  0
    0.1710    0.2835   11.2023 C   0  0  0  0  0  0  0  0  0  0  0  0
    1.0393   -0.2951   10.8924 H   0  0  0  0  0  0  0  0  0  0  0  0
   -0.1692   -0.1009   12.1610 H   0  0  0  0  0  0  0  0  0  0  0  0
    0.4796    1.3188   11.3370 H   0  0  0  0  0  0  0  0  0  0  0  0
   -2.9748    0.7876   12.1401 C   0  0  0  0  0  0  0  0  0  0  0  0
   -2.2395    1.0758   12.8980 H   0  0  0  0  0  0  0  0  0  0  0  0
   -3.8753    1.3816   12.3174 H   0  0  0  0  0  0  0  0  0  0  0  0
   -3.2927   -0.6989   12.2412 C   0  0  0  0  0  0  0  0  0  0  0  0
   -3.7083   -0.9159   13.2236 H   0  0  0  0  0  0  0  0  0  0  0  0
   -2.4012   -1.3086   12.1127 H   0  0  0  0  0  0  0  0  0  0  0  0
   -4.0264   -0.9926   11.4943 H   0  0  0  0  0  0  0  0  0  0  0  0
   -0.4674    6.8400   10.0426 C   0  0  0  0  0  0  0  0  0  0  0  0
   -0.6509    7.8800   10.3290 H   0  0  0  0  0  0  0  0  0  0  0  0
    0.2300    6.4084   10.7639 H   0  0  0  0  0  0  0  0  0  0  0  0
    0.1459    6.7742    8.6499 C   0  0  0  0  0  0  0  0  0  0  0  0
    1.1562    7.1787    8.6656 H   0  0  0  0  0  0  0  0  0  0  0  0
   -0.4367    7.3496    7.9344 H   0  0  0  0  0  0  0  0  0  0  0  0
    0.1968    5.7428    8.3067 H   0  0  0  0  0  0  0  0  0  0  0  0
   -2.6261    6.4550   11.8584 C   0  0  0  0  0  0  0  0  0  0  0  0
   -2.4882    7.5341   11.9752 H   0  0  0  0  0  0  0  0  0  0  0  0
   -3.6919    6.2246   11.9241 H   0  0  0  0  0  0  0  0  0  0  0  0
   -1.8758    5.6698   12.9302 C   0  0  0  0  0  0  0  0  0  0  0  0
   -2.2978    5.8592   13.9153 H   0  0  0  0  0  0  0  0  0  0  0  0
   -0.8202    5.9338   12.9509 H   0  0  0  0  0  0  0  0  0  0  0  0
   -1.9649    4.5969   12.7181 H   0  0  0  0  0  0  0  0  0  0  0  0
   -3.1209    6.8467    9.0201 C   0  0  0  0  0  0  0  0  0  0  0  0
   -3.0586    7.9070    9.2898 H   0  0  0  0  0  0  0  0  0  0  0  0
   -2.6803    6.7186    8.0267 H   0  0  0  0  0  0  0  0  0  0  0  0
   -4.5690    6.3794    8.9928 C   0  0  0  0  0  0  0  0  0  0  0  0
   -5.1268    6.9228    8.2321 H   0  0  0  0  0  0  0  0  0  0  0  0
   -5.0519    6.5379    9.9534 H   0  0  0  0  0  0  0  0  0  0  0  0
   -4.6197    5.3162    8.7686 H   0  0  0  0  0  0  0  0  0  0  0  0
    2.7784    4.6273   12.4125 O   0  0  0  0  0  0  0  0  0  0  0  0
   -2.3240    1.3528   10.5141 P   0  0  0  0  0  4  0  0  0  0  0  0
   -2.0562    5.9098   10.1996 P   0  0  0  0  0  4  0  0  0  0  0  0
    4.2510    3.2081    8.4719 S   0  0  0  0  0  0  0  0  0  0  0  0
   -2.0607    3.6120   10.2810 Pt  0  0  0  0  0  0  0  0  0  0  0  0
   -4.3460    3.6595   10.9953 Cl  0  0  0  0  0  0  0  0  0  0  0  0
  1 67  1  0  0  0  0
  1 19  1  0  0  0  0
  2  1  2  0  0  0  0
  3  2  1  0  0  0  0
  4  2  1  0  0  0  0
  4  6  2  0  0  0  0
  5  4  1  0  0  0  0
  6 18  1  0  0  0  0
  7 16  1  0  0  0  0
  8  7  2  0  0  0  0
  8 10  1  0  0  0  0
  9  8  1  0  0  0  0
 10 12  2  0  0  0  0
 11 10  1  0  0  0  0
 12 14  1  0  0  0  0
 12 13  1  0  0  0  0
 14 15  1  0  0  0  0
 16 17  1  0  0  0  0
 16 14  2  0  0  0  0
 17 63  2  0  0  0  0
 18 19  2  0  0  0  0
 18 17  1  0  0  0  0
 19 20  1  0  0  0  0
 21 23  1  0  0  0  0
 21 64  1  0  0  0  0
 22 21  1  0  0  0  0
 24 27  1  0  0  0  0
 24 21  1  0  0  0  0
 25 24  1  0  0  0  0
 26 24  1  0  0  0  0
 28 64  1  0  0  0  0
 28 31  1  0  0  0  0
 29 28  1  0  0  0  0
 30 28  1  0  0  0  0
 31 34  1  0  0  0  0
 31 33  1  0  0  0  0
 32 31  1  0  0  0  0
 35 38  1  0  0  0  0
 35 37  1  0  0  0  0
 35 36  1  0  0  0  0
 38 39  1  0  0  0  0
 40 38  1  0  0  0  0
 41 38  1  0  0  0  0
 42 65  1  0  0  0  0
 42 43  1  0  0  0  0
 42 44  1  0  0  0  0
 45 46  1  0  0  0  0
 45 42  1  0  0  0  0
 47 45  1  0  0  0  0
 48 45  1  0  0  0  0
 49 51  1  0  0  0  0
 49 50  1  0  0  0  0
 49 52  1  0  0  0  0
 52 54  1  0  0  0  0
 52 53  1  0  0  0  0
 55 52  1  0  0  0  0
 56 57  1  0  0  0  0
 56 65  1  0  0  0  0
 58 56  1  0  0  0  0
 59 56  1  0  0  0  0
 59 61  1  0  0  0  0
 60 59  1  0  0  0  0
 62 59  1  0  0  0  0
 64 35  1  0  0  0  0
 65 67  1  0  0  0  0
 65 49  1  0  0  0  0
 66  6  1  0  0  0  0
 66  7  1  0  0  0  0
 67 64  1  0  0  0  0
 67 68  1  0  0  0  0
M  END
$$$$
