CSD_code = JOWBUV | q = 0 | S = 0 | Stoichiometry = C16H11ClN2OPt | MND = 4
 OpenBabel04212202053D

 32 36  0  0  1  0  0  0  0  0999 V2000
    3.3734    0.1972    5.5550 Pt  0  0  2  0  0  0  0  0  0  0  0  0
    2.8485   -1.9431    5.1497 Cl  0  0  0  0  0  0  0  0  0  0  0  0
    2.4013    0.6761    3.8790 O   0  0  0  0  0  0  0  0  0  0  0  0
    4.3484   -0.1703    7.2057 N   0  0  0  0  0  0  0  0  0  0  0  0
    3.8607    2.0870    5.9529 N   0  0  0  0  0  0  0  0  0  0  0  0
    4.5673   -1.3370    7.7842 C   0  0  0  0  0  0  0  0  0  0  0  0
    4.1553   -2.2032    7.2806 H   0  0  0  0  0  0  0  0  0  0  0  0
    5.2868   -1.4601    8.9786 C   0  0  0  0  0  0  0  0  0  0  0  0
    5.4329   -2.4411    9.4012 H   0  0  0  0  0  0  0  0  0  0  0  0
    5.7896   -0.3415    9.5895 C   0  0  0  0  0  0  0  0  0  0  0  0
    6.3471   -0.4043   10.5119 H   0  0  0  0  0  0  0  0  0  0  0  0
    6.0404    2.1322    9.5449 C   0  0  0  0  0  0  0  0  0  0  0  0
    6.5998    2.1067   10.4671 H   0  0  0  0  0  0  0  0  0  0  0  0
    5.7817    3.3175    8.9099 C   0  0  0  0  0  0  0  0  0  0  0  0
    6.1382    4.2443    9.3336 H   0  0  0  0  0  0  0  0  0  0  0  0
    5.0602    3.3628    7.7128 C   0  0  0  0  0  0  0  0  0  0  0  0
    4.8845    4.3249    7.2584 H   0  0  0  0  0  0  0  0  0  0  0  0
    4.5842    2.2009    7.1322 C   0  0  0  0  0  0  0  0  0  0  0  0
    4.8391    0.9612    7.7888 C   0  0  1  0  0  3  0  0  0  0  0  0
    5.5715    0.9208    8.9970 C   0  0  0  0  0  0  0  0  0  0  0  0
    3.5542    3.1069    5.1922 C   0  0  0  0  0  0  0  0  0  0  0  0
    3.8876    4.0998    5.4905 H   0  0  0  0  0  0  0  0  0  0  0  0
    2.8197    3.0626    3.9923 C   0  0  0  0  0  0  0  0  0  0  0  0
    2.2840    1.8594    3.4083 C   0  0  0  0  0  0  0  0  0  0  0  0
    1.5573    2.0001    2.1912 C   0  0  0  0  0  0  0  0  0  0  0  0
    1.1594    1.0914    1.7660 H   0  0  0  0  0  0  0  0  0  0  0  0
    1.3720    3.2088    1.5895 C   0  0  0  0  0  0  0  0  0  0  0  0
    0.8155    3.2722    0.6659 H   0  0  0  0  0  0  0  0  0  0  0  0
    1.9003    4.3791    2.1603 C   0  0  0  0  0  0  0  0  0  0  0  0
    1.7493    5.3308    1.6751 H   0  0  0  0  0  0  0  0  0  0  0  0
    2.6005    4.2960    3.3262 C   0  0  0  0  0  3  0  0  0  0  0  0
    3.0096    5.1916    3.7736 H   0  0  0  0  0  0  0  0  0  0  0  0
  1  2  1  1  0  0  0
  1  5  1  0  0  0  0
  1  4  1  0  0  0  0
  3  1  1  0  0  0  0
  4  6  1  0  0  0  0
  4 19  1  0  0  0  0
  5 18  1  0  0  0  0
  6  8  2  0  0  0  0
  7  6  1  0  0  0  0
  8  9  1  0  0  0  0
  8 10  1  0  0  0  0
 10 11  1  0  0  0  0
 12 13  1  0  0  0  0
 14 15  1  0  0  0  0
 14 12  2  0  0  0  0
 16 14  1  0  0  0  0
 17 16  1  0  0  0  0
 18 16  2  0  0  0  0
 19 18  1  1  0  0  0
 19 20  1  0  0  0  0
 20 12  1  0  0  0  0
 20 10  2  0  0  0  0
 21 22  1  0  0  0  0
 21  5  1  0  0  0  0
 23 21  2  0  0  0  0
 24  3  1  0  0  0  0
 24 23  1  0  0  0  0
 25 24  2  0  0  0  0
 26 25  1  0  0  0  0
 27 29  2  0  0  0  0
 27 25  1  0  0  0  0
 28 27  1  0  0  0  0
 29 31  1  0  0  0  0
 30 29  1  0  0  0  0
 31 32  1  0  0  0  0
 31 23  1  0  0  0  0
M  END
$$$$
