CSD_code = JOWCEG | q = 0 | S = 0 | Stoichiometry = C13H12ClN3OPt | MND = 4
 OpenBabel04212202053D

 31 34  0  0  1  0  0  0  0  0999 V2000
    2.6314    5.7247    1.4435 Pt  0  0  2  0  0  0  0  0  0  0  0  0
    2.1856    7.8810    1.8017 Cl  0  0  0  0  0  0  0  0  0  0  0  0
    4.2487    6.2561    0.4262 O   0  0  0  0  0  0  0  0  0  0  0  0
    1.0628    5.0351    2.4219 N   0  0  0  0  0  0  0  0  0  0  0  0
    2.0048    3.0451    1.7553 N   0  0  0  0  0  0  0  0  0  0  0  0
    2.0428    2.0342    1.6865 H   0  0  0  0  0  0  0  0  0  0  0  0
    2.9696    3.8064    1.1626 N   0  0  0  0  0  0  0  0  0  0  0  0
    0.9994    3.6822    2.4150 C   0  0  1  0  0  3  0  0  0  0  0  0
   -0.0354    2.9874    3.0494 C   0  0  0  0  0  0  0  0  0  0  0  0
   -0.0505    1.9094    3.0210 H   0  0  0  0  0  0  0  0  0  0  0  0
   -1.0140    3.7064    3.6977 C   0  0  0  0  0  0  0  0  0  0  0  0
   -1.8238    3.1964    4.1951 H   0  0  0  0  0  0  0  0  0  0  0  0
   -0.9426    5.0999    3.7015 C   0  0  0  0  0  0  0  0  0  0  0  0
   -1.6931    5.6893    4.2003 H   0  0  0  0  0  0  0  0  0  0  0  0
    0.1031    5.7206    3.0574 C   0  0  0  0  0  0  0  0  0  0  0  0
    0.2109    6.7973    3.0268 H   0  0  0  0  0  0  0  0  0  0  0  0
    3.9554    3.2688    0.5151 C   0  0  0  0  0  0  0  0  0  0  0  0
    4.0017    2.1801    0.4493 H   0  0  0  0  0  0  0  0  0  0  0  0
    4.9873    4.0008   -0.1213 C   0  0  0  0  0  0  0  0  0  0  0  0
    5.0715    5.4330   -0.1292 C   0  0  0  0  0  0  0  0  0  0  0  0
    6.1710    6.0092   -0.8170 C   0  0  0  0  0  0  0  0  0  0  0  0
    6.2178    7.0880   -0.8131 H   0  0  0  0  0  0  0  0  0  0  0  0
    7.1281    5.2673   -1.4554 C   0  0  0  0  0  0  0  0  0  0  0  0
    7.0290    3.8631   -1.4355 C   0  0  0  0  0  0  0  0  0  0  0  0
    7.7798    3.2701   -1.9357 H   0  0  0  0  0  0  0  0  0  0  0  0
    5.9907    3.2617   -0.7880 C   0  0  0  0  0  3  0  0  0  0  0  0
    5.9181    2.1825   -0.7750 H   0  0  0  0  0  0  0  0  0  0  0  0
    8.2705    5.9150   -2.1729 C   0  0  0  0  0  0  0  0  0  0  0  0
    8.2478    5.6505   -3.2299 H   0  0  0  0  0  0  0  0  0  0  0  0
    9.2184    5.5658   -1.7645 H   0  0  0  0  0  0  0  0  0  0  0  0
    8.2258    6.9967   -2.0818 H   0  0  0  0  0  0  0  0  0  0  0  0
  1  2  1  1  0  0  0
  1  4  1  0  0  0  0
  3  1  1  0  0  0  0
  4 15  1  0  0  0  0
  5  8  1  0  0  0  0
  6  5  1  0  0  0  0
  7  1  1  0  0  0  0
  7  5  1  0  0  0  0
  8  4  1  0  0  0  0
  8  9  1  1  0  0  0
  9 11  2  0  0  0  0
 10  9  1  0  0  0  0
 11 13  1  0  0  0  0
 11 12  1  0  0  0  0
 13 14  1  0  0  0  0
 15 13  2  0  0  0  0
 16 15  1  0  0  0  0
 17  7  1  0  0  0  0
 18 17  1  0  0  0  0
 19 17  2  0  0  0  0
 20 19  1  0  0  0  0
 20  3  1  0  0  0  0
 21 22  1  0  0  0  0
 21 20  2  0  0  0  0
 23 24  2  0  0  0  0
 23 21  1  0  0  0  0
 24 26  1  0  0  0  0
 25 24  1  0  0  0  0
 26 27  1  0  0  0  0
 26 19  1  0  0  0  0
 28 31  1  0  0  0  0
 28 30  1  0  0  0  0
 28 23  1  0  0  0  0
 29 28  1  0  0  0  0
M  END
$$$$
