CSD_code = JOWCUW | q = 0 | S = 0 | Stoichiometry = C13H12ClN3OPt | MND = 4
 OpenBabel04212202053D

 31 34  0  0  1  0  0  0  0  0999 V2000
   -1.0762    5.5663    8.3061 Pt  0  0  1  0  0  0  0  0  0  0  0  0
   -1.3549    4.2752   10.1075 Cl  0  0  0  0  0  0  0  0  0  0  0  0
    0.7813    5.8756    8.9107 O   0  0  0  0  0  0  0  0  0  0  0  0
   -2.8810    5.3207    7.5872 N   0  0  0  0  0  0  0  0  0  0  0  0
   -2.0684    6.7810    5.9869 N   0  0  0  0  0  0  0  0  0  0  0  0
   -0.8954    6.6908    6.6961 N   0  0  0  0  0  0  0  0  0  0  0  0
   -3.0975    5.9947    6.4291 C   0  0  1  0  0  3  0  0  0  0  0  0
   -4.3069    5.8520    5.7351 C   0  0  0  0  0  0  0  0  0  0  0  0
   -4.4595    6.3393    4.7871 H   0  0  0  0  0  0  0  0  0  0  0  0
   -5.2959    5.0522    6.2628 C   0  0  0  0  0  0  0  0  0  0  0  0
   -6.2304    4.9344    5.7371 H   0  0  0  0  0  0  0  0  0  0  0  0
   -5.0708    4.3929    7.4694 C   0  0  0  0  0  0  0  0  0  0  0  0
   -5.8258    3.7641    7.9094 H   0  0  0  0  0  0  0  0  0  0  0  0
   -3.8512    4.5446    8.0871 C   0  0  0  0  0  0  0  0  0  0  0  0
   -3.6044    4.0437    9.0148 H   0  0  0  0  0  0  0  0  0  0  0  0
   -2.2189    7.7585    4.9344 C   0  0  0  0  0  0  0  0  0  0  0  0
   -1.7019    8.6769    5.2192 H   0  0  0  0  0  0  0  0  0  0  0  0
   -3.2707    7.9997    4.8088 H   0  0  0  0  0  0  0  0  0  0  0  0
   -1.8154    7.3966    3.9846 H   0  0  0  0  0  0  0  0  0  0  0  0
    0.2038    7.2624    6.3049 C   0  0  0  0  0  0  0  0  0  0  0  0
    0.2233    7.8114    5.3670 H   0  0  0  0  0  0  0  0  0  0  0  0
    1.4375    7.2343    7.0079 C   0  0  0  0  0  0  0  0  0  0  0  0
    1.6534    6.5583    8.2531 C   0  0  0  0  0  0  0  0  0  0  0  0
    2.9535    6.6444    8.8192 C   0  0  0  0  0  0  0  0  0  0  0  0
    3.1010    6.1321    9.7575 H   0  0  0  0  0  0  0  0  0  0  0  0
    3.9676    7.3330    8.2178 C   0  0  0  0  0  0  0  0  0  0  0  0
    4.9418    7.3738    8.6821 H   0  0  0  0  0  0  0  0  0  0  0  0
    3.7525    7.9876    6.9986 C   0  0  0  0  0  0  0  0  0  0  0  0
    4.5561    8.5301    6.5249 H   0  0  0  0  0  0  0  0  0  0  0  0
    2.5166    7.9316    6.4192 C   0  0  0  0  0  3  0  0  0  0  0  0
    2.3428    8.4365    5.4782 H   0  0  0  0  0  0  0  0  0  0  0  0
  1  3  1  0  0  0  0
  1  2  1  1  0  0  0
  4 14  1  0  0  0  0
  4  1  1  0  0  0  0
  5  7  1  0  0  0  0
  5  6  1  0  0  0  0
  6  1  1  0  0  0  0
  7  8  1  6  0  0  0
  7  4  1  0  0  0  0
  8 10  2  0  0  0  0
  9  8  1  0  0  0  0
 10 12  1  0  0  0  0
 11 10  1  0  0  0  0
 12 13  1  0  0  0  0
 12 14  2  0  0  0  0
 14 15  1  0  0  0  0
 16 17  1  0  0  0  0
 16  5  1  0  0  0  0
 18 16  1  0  0  0  0
 19 16  1  0  0  0  0
 20  6  1  0  0  0  0
 20 22  2  0  0  0  0
 21 20  1  0  0  0  0
 22 23  1  0  0  0  0
 23 24  2  0  0  0  0
 23  3  1  0  0  0  0
 24 25  1  0  0  0  0
 26 27  1  0  0  0  0
 26 24  1  0  0  0  0
 28 26  2  0  0  0  0
 29 28  1  0  0  0  0
 30 28  1  0  0  0  0
 30 22  1  0  0  0  0
 31 30  1  0  0  0  0
M  END
$$$$
