CSD_code = JOWHAE | q = 0 | S = 0 | Stoichiometry = C10H28CdI2N4 | MND = 6
 OpenBabel04212202053D

 45 46  0  0  0  0  0  0  0  0999 V2000
    4.3430    0.2384    6.3188 Cd  0  0  0  0  0  0  0  0  0  0  0  0
    2.5089   -1.1122    4.8189 I   0  0  0  0  0  0  0  0  0  0  0  0
    6.2262    1.5966    7.8291 I   0  0  0  0  0  0  0  0  0  0  0  0
    3.2643    2.4544    5.7951 N   0  0  0  0  0  4  0  0  0  0  0  0
    5.6034    0.9635    4.2566 N   0  0  0  0  0  4  0  0  0  0  0  0
    3.0039    2.8325    4.4030 C   0  0  0  0  0  0  0  0  0  0  0  0
    4.2614    2.9875    3.5241 C   0  0  0  0  0  0  0  0  0  0  0  0
    4.8975    1.6311    3.1592 C   0  0  0  0  0  0  0  0  0  0  0  0
    5.2841    3.9196    4.1809 C   0  0  0  0  0  0  0  0  0  0  0  0
    3.7960    3.6203    2.2048 C   0  0  0  0  0  0  0  0  0  0  0  0
    3.1536   -0.3404    8.4645 N   0  0  0  0  0  4  0  0  0  0  0  0
    5.4776   -1.9121    6.9892 N   0  0  0  0  0  4  0  0  0  0  0  0
    2.8132   -1.7346    8.7627 C   0  0  0  0  0  0  0  0  0  0  0  0
    4.0206   -2.6810    8.9180 C   0  0  0  0  0  0  0  0  0  0  0  0
    4.6935   -3.0063    7.5694 C   0  0  0  0  0  0  0  0  0  0  0  0
    5.0345   -2.1245    9.9223 C   0  0  0  0  0  0  0  0  0  0  0  0
    3.4680   -4.0067    9.4609 C   0  0  0  0  0  0  0  0  0  0  0  0
    3.8242    3.1825    6.2378 H   0  0  0  0  0  0  0  0  0  0  0  0
    2.3665    2.4417    6.2800 H   0  0  0  0  0  0  0  0  0  0  0  0
    2.4532    3.7858    4.3626 H   0  0  0  0  0  0  0  0  0  0  0  0
    2.3634    2.0616    3.9651 H   0  0  0  0  0  0  0  0  0  0  0  0
    4.1089    0.9564    2.8140 H   0  0  0  0  0  0  0  0  0  0  0  0
    5.5818    1.8042    2.3133 H   0  0  0  0  0  0  0  0  0  0  0  0
    6.0189    0.1116    3.8784 H   0  0  0  0  0  0  0  0  0  0  0  0
    6.3768    1.5537    4.5618 H   0  0  0  0  0  0  0  0  0  0  0  0
    5.6552    3.5240    5.1228 H   0  0  0  0  0  0  0  0  0  0  0  0
    6.1331    4.0696    3.5168 H   0  0  0  0  0  0  0  0  0  0  0  0
    4.8339    4.8916    4.3736 H   0  0  0  0  0  0  0  0  0  0  0  0
    3.0663    2.9827    1.7111 H   0  0  0  0  0  0  0  0  0  0  0  0
    3.3384    4.5900    2.3853 H   0  0  0  0  0  0  0  0  0  0  0  0
    4.6372    3.7649    1.5313 H   0  0  0  0  0  0  0  0  0  0  0  0
    2.2815    0.1891    8.4470 H   0  0  0  0  0  0  0  0  0  0  0  0
    3.7080    0.0376    9.2323 H   0  0  0  0  0  0  0  0  0  0  0  0
    2.1824   -2.1026    7.9484 H   0  0  0  0  0  0  0  0  0  0  0  0
    2.2255   -1.7941    9.6926 H   0  0  0  0  0  0  0  0  0  0  0  0
    5.3292   -3.8929    7.7229 H   0  0  0  0  0  0  0  0  0  0  0  0
    3.9177   -3.2766    6.8474 H   0  0  0  0  0  0  0  0  0  0  0  0
    6.2386   -1.6752    7.6250 H   0  0  0  0  0  0  0  0  0  0  0  0
    5.9106   -2.2668    6.1358 H   0  0  0  0  0  0  0  0  0  0  0  0
    5.4644   -1.1821    9.5929 H   0  0  0  0  0  0  0  0  0  0  0  0
    4.5553   -1.9617   10.8857 H   0  0  0  0  0  0  0  0  0  0  0  0
    5.8452   -2.8359   10.0674 H   0  0  0  0  0  0  0  0  0  0  0  0
    2.7426   -4.4303    8.7704 H   0  0  0  0  0  0  0  0  0  0  0  0
    4.2700   -4.7275    9.6013 H   0  0  0  0  0  0  0  0  0  0  0  0
    2.9802   -3.8542   10.4207 H   0  0  0  0  0  0  0  0  0  0  0  0
  1 12  1  0  0  0  0
  1  3  1  0  0  0  0
  1 11  1  0  0  0  0
  2  1  1  0  0  0  0
  4 18  1  0  0  0  0
  4 19  1  0  0  0  0
  4  1  1  0  0  0  0
  5 25  1  0  0  0  0
  5  1  1  0  0  0  0
  6  4  1  0  0  0  0
  7  9  1  0  0  0  0
  7  6  1  0  0  0  0
  8  7  1  0  0  0  0
  8  5  1  0  0  0  0
  9 28  1  0  0  0  0
  9 26  1  0  0  0  0
 10 30  1  0  0  0  0
 10  7  1  0  0  0  0
 11 13  1  0  0  0  0
 11 33  1  0  0  0  0
 12 15  1  0  0  0  0
 12 38  1  0  0  0  0
 13 14  1  0  0  0  0
 13 35  1  0  0  0  0
 14 17  1  0  0  0  0
 14 16  1  0  0  0  0
 15 36  1  0  0  0  0
 15 14  1  0  0  0  0
 16 42  1  0  0  0  0
 16 41  1  0  0  0  0
 17 44  1  0  0  0  0
 17 45  1  0  0  0  0
 20  6  1  0  0  0  0
 21  6  1  0  0  0  0
 22  8  1  0  0  0  0
 23  8  1  0  0  0  0
 24  5  1  0  0  0  0
 27  9  1  0  0  0  0
 29 10  1  0  0  0  0
 31 10  1  0  0  0  0
 32 11  1  0  0  0  0
 34 13  1  0  0  0  0
 37 15  1  0  0  0  0
 39 12  1  0  0  0  0
 40 16  1  0  0  0  0
 43 17  1  0  0  0  0
M  END
$$$$
