CSD_code = JOWPOA | q = 0 | S = 0 | Stoichiometry = C14H16Cl2N2Zn | MND = 4
 OpenBabel04212202053D

 35 37  0  0  1  0  0  0  0  0999 V2000
    9.6233    5.7706    5.7015 Zn  0  0  0  0  0  0  0  0  0  0  0  0
    7.8276    4.8953    4.7190 Cl  0  0  0  0  0  0  0  0  0  0  0  0
   10.5720    4.1821    6.8314 N   0  0  0  0  0  0  0  0  0  0  0  0
   10.6747    2.8946    4.7895 C   0  0  0  0  0  0  0  0  0  0  0  0
   10.9598    3.0522    6.2386 C   0  0  1  0  0  3  0  0  0  0  0  0
   11.6217    2.0606    6.9608 C   0  0  0  0  0  0  0  0  0  0  0  0
   11.8885    2.2571    8.3014 C   0  0  0  0  0  0  0  0  0  0  0  0
   11.4950    3.4473    8.8931 C   0  0  0  0  0  0  0  0  0  0  0  0
   10.8381    4.3923    8.1205 C   0  0  0  0  0  0  0  0  0  0  0  0
   10.3925    5.7067    8.6834 C   0  0  0  0  0  0  0  0  0  0  0  0
   11.0632    1.9536    4.4110 H   0  0  0  0  0  0  0  0  0  0  0  0
    9.6002    2.9402    4.6122 H   0  0  0  0  0  0  0  0  0  0  0  0
   11.1257    3.7194    4.2369 H   0  0  0  0  0  0  0  0  0  0  0  0
   11.9233    1.1517    6.4649 H   0  0  0  0  0  0  0  0  0  0  0  0
   12.3999    1.5012    8.8782 H   0  0  0  0  0  0  0  0  0  0  0  0
   11.6968    3.6435    9.9342 H   0  0  0  0  0  0  0  0  0  0  0  0
   10.7828    5.8346    9.6930 H   0  0  0  0  0  0  0  0  0  0  0  0
   10.8206    6.4910    8.0530 H   0  0  0  0  0  0  0  0  0  0  0  0
   11.4194    6.6461    4.7199 Cl  0  0  0  0  0  0  0  0  0  0  0  0
    8.6745    7.3589    6.8314 N   0  0  0  0  0  0  0  0  0  0  0  0
    8.8540    5.8343    8.6834 C   0  0  0  0  0  0  0  0  0  0  0  0
    8.2866    8.4887    6.2386 C   0  0  1  0  0  3  0  0  0  0  0  0
    8.4084    7.1487    8.1205 C   0  0  0  0  0  0  0  0  0  0  0  0
    8.4638    5.7064    9.6930 H   0  0  0  0  0  0  0  0  0  0  0  0
    8.4259    5.0500    8.0531 H   0  0  0  0  0  0  0  0  0  0  0  0
    8.5716    8.6464    4.7895 C   0  0  0  0  0  0  0  0  0  0  0  0
    7.6247    9.4804    6.9607 C   0  0  0  0  0  0  0  0  0  0  0  0
    7.7515    8.0937    8.8931 C   0  0  0  0  0  0  0  0  0  0  0  0
    8.1831    9.5873    4.4110 H   0  0  0  0  0  0  0  0  0  0  0  0
    9.6461    8.6007    4.6122 H   0  0  0  0  0  0  0  0  0  0  0  0
    8.1207    7.8215    4.2369 H   0  0  0  0  0  0  0  0  0  0  0  0
    7.3580    9.2839    8.3014 C   0  0  0  0  0  0  0  0  0  0  0  0
    7.3230   10.3892    6.4649 H   0  0  0  0  0  0  0  0  0  0  0  0
    7.5499    7.8976    9.9342 H   0  0  0  0  0  0  0  0  0  0  0  0
    6.8466   10.0398    8.8782 H   0  0  0  0  0  0  0  0  0  0  0  0
  1  3  1  0  0  0  0
  1 20  1  0  0  0  0
  2  1  1  0  0  0  0
  3  9  1  0  0  0  0
  5  4  1  6  0  0  0
  5  3  1  0  0  0  0
  5  6  1  0  0  0  0
  6  7  2  0  0  0  0
  7 15  1  0  0  0  0
  7  8  1  0  0  0  0
  8 16  1  0  0  0  0
  9 10  1  0  0  0  0
  9  8  2  0  0  0  0
 10 21  1  0  0  0  0
 10 17  1  0  0  0  0
 11  4  1  0  0  0  0
 12  4  1  0  0  0  0
 13  4  1  0  0  0  0
 14  6  1  0  0  0  0
 18 10  1  0  0  0  0
 19  1  1  0  0  0  0
 20 23  1  0  0  0  0
 21 24  1  0  0  0  0
 22 26  1  6  0  0  0
 22 20  1  0  0  0  0
 22 27  1  0  0  0  0
 23 21  1  0  0  0  0
 23 28  2  0  0  0  0
 25 21  1  0  0  0  0
 27 32  2  0  0  0  0
 28 34  1  0  0  0  0
 29 26  1  0  0  0  0
 30 26  1  0  0  0  0
 31 26  1  0  0  0  0
 32 35  1  0  0  0  0
 32 28  1  0  0  0  0
 33 27  1  0  0  0  0
M  END
$$$$
