CSD_code = JOXREV | q = 0 | S = 0 | Stoichiometry = C27H23ClNO3PPd | MND = 4
 OpenBabel04212202053D

 57 62  0  0  1  0  0  0  0  0999 V2000
    0.5936    9.1141    6.0086 Pd  0  0  1  0  0  0  0  0  0  0  0  0
   -1.0768    7.7999    5.1406 Cl  0  0  0  0  0  0  0  0  0  0  0  0
    2.6140    8.0000    7.5127 P   0  0  0  0  0  4  0  0  0  0  0  0
    2.8768   11.1190    4.5973 O   0  0  0  0  0  0  0  0  0  0  0  0
    6.9693   11.8111   10.8392 O   0  0  0  0  0  0  0  0  0  0  0  0
    1.9005    7.4681    6.3123 O   0  0  0  0  0  0  0  0  0  0  0  0
   -0.3308   10.7475    5.5758 N   0  0  0  0  0  0  0  0  0  0  0  0
   -1.6181   11.0244    5.3992 C   0  0  0  0  0  3  0  0  0  0  0  0
   -2.3238   10.2552    5.6890 H   0  0  0  0  0  0  0  0  0  0  0  0
   -2.0224   12.2285    4.8453 C   0  0  0  0  0  0  0  0  0  0  0  0
   -3.0736   12.4315    4.7188 H   0  0  0  0  0  0  0  0  0  0  0  0
   -1.0648   13.1481    4.4412 C   0  0  0  0  0  0  0  0  0  0  0  0
   -1.3595   14.0829    3.9892 H   0  0  0  0  0  0  0  0  0  0  0  0
    0.2775   12.8439    4.6146 C   0  0  0  0  0  0  0  0  0  0  0  0
    1.0620   13.5120    4.2967 H   0  0  0  0  0  0  0  0  0  0  0  0
    0.6079   11.6353    5.2028 C   0  0  0  0  0  0  0  0  0  0  0  0
    2.0002   11.0837    5.4532 C   0  0  0  0  0  0  0  0  0  0  0  0
    2.0572   10.4267    6.7456 C   0  0  2  0  0  0  0  0  0  0  0  0
    1.5807   10.9607    7.5731 H   0  0  0  0  0  0  0  0  0  0  0  0
    3.3274    9.6703    7.0764 C   0  0  1  0  0  0  0  0  0  0  0  0
    3.8534    9.4774    6.1263 H   0  0  0  0  0  0  0  0  0  0  0  0
    4.2835   10.2595    8.0626 C   0  0  0  0  0  0  0  0  0  0  0  0
    3.8725   11.0349    9.1436 C   0  0  0  0  0  0  0  0  0  0  0  0
    2.8261   11.2546    9.2932 H   0  0  0  0  0  0  0  0  0  0  0  0
    4.7892   11.5331   10.0447 C   0  0  0  0  0  0  0  0  0  0  0  0
    4.4727   12.1343   10.8824 H   0  0  0  0  0  0  0  0  0  0  0  0
    6.1521   11.2755    9.8918 C   0  0  0  0  0  0  0  0  0  0  0  0
    6.5729   10.5077    8.8112 C   0  0  0  0  0  0  0  0  0  0  0  0
    7.6173   10.2900    8.6540 H   0  0  0  0  0  0  0  0  0  0  0  0
    5.6429   10.0131    7.9141 C   0  0  0  0  0  0  0  0  0  0  0  0
    5.9849    9.4165    7.0803 H   0  0  0  0  0  0  0  0  0  0  0  0
    8.3578   11.6216   10.7143 C   0  0  0  0  0  0  0  0  0  0  0  0
    8.7386   12.0453    9.7796 H   0  0  0  0  0  0  0  0  0  0  0  0
    8.6265   10.5615   10.7693 H   0  0  0  0  0  0  0  0  0  0  0  0
    8.8037   12.1489   11.5561 H   0  0  0  0  0  0  0  0  0  0  0  0
    3.9012    6.8279    8.0194 C   0  0  0  0  0  0  0  0  0  0  0  0
    3.9538    5.6314    7.3142 C   0  0  0  0  0  0  0  0  0  0  0  0
    3.2319    5.4588    6.5291 H   0  0  0  0  0  0  0  0  0  0  0  0
    4.9188    4.6890    7.6192 C   0  0  0  0  0  0  0  0  0  0  0  0
    4.9577    3.7595    7.0713 H   0  0  0  0  0  0  0  0  0  0  0  0
    5.8357    4.9422    8.6264 C   0  0  0  0  0  0  0  0  0  0  0  0
    6.5925    4.2096    8.8646 H   0  0  0  0  0  0  0  0  0  0  0  0
    5.7863    6.1368    9.3274 C   0  0  0  0  0  0  0  0  0  0  0  0
    6.5043    6.3342   10.1098 H   0  0  0  0  0  0  0  0  0  0  0  0
    4.8215    7.0818    9.0291 C   0  0  0  0  0  0  0  0  0  0  0  0
    4.7971    8.0140    9.5713 H   0  0  0  0  0  0  0  0  0  0  0  0
    1.4539    8.2518    8.9057 C   0  0  0  0  0  0  0  0  0  0  0  0
    1.8819    8.6974   10.1507 C   0  0  0  0  0  0  0  0  0  0  0  0
    2.9312    8.8651   10.3352 H   0  0  0  0  0  0  0  0  0  0  0  0
    0.9597    8.9388   11.1545 C   0  0  0  0  0  0  0  0  0  0  0  0
    1.2985    9.2919   12.1172 H   0  0  0  0  0  0  0  0  0  0  0  0
   -0.3907    8.7330   10.9245 C   0  0  0  0  0  0  0  0  0  0  0  0
   -1.1070    8.9318   11.7077 H   0  0  0  0  0  0  0  0  0  0  0  0
   -0.8198    8.2556    9.6961 C   0  0  0  0  0  0  0  0  0  0  0  0
   -1.8683    8.0665    9.5219 H   0  0  0  0  0  0  0  0  0  0  0  0
    0.0957    8.0087    8.6847 C   0  0  0  0  0  0  0  0  0  0  0  0
   -0.2478    7.5652    7.7459 H   0  0  0  0  0  0  0  0  0  0  0  0
  1  2  1  1  0  0  0
  1  6  1  0  0  0  0
  1 18  1  0  0  0  0
  3 36  1  0  0  0  0
  3 47  1  0  0  0  0
  4 17  2  0  0  0  0
  6  3  1  0  0  0  0
  7  1  1  0  0  0  0
  8  7  1  0  0  0  0
  8  9  1  0  0  0  0
 10  8  1  0  0  0  0
 11 10  1  0  0  0  0
 12 14  1  0  0  0  0
 12 10  2  0  0  0  0
 13 12  1  0  0  0  0
 14 16  2  0  0  0  0
 15 14  1  0  0  0  0
 16 17  1  0  0  0  0
 16  7  1  0  0  0  0
 17 18  1  0  0  0  0
 18 20  1  0  0  0  0
 18 19  1  1  0  0  0
 20 21  1  6  0  0  0
 20  3  1  0  0  0  0
 20 22  1  0  0  0  0
 22 23  1  0  0  0  0
 23 24  1  0  0  0  0
 23 25  2  0  0  0  0
 25 26  1  0  0  0  0
 27 25  1  0  0  0  0
 27  5  1  0  0  0  0
 28 27  2  0  0  0  0
 29 28  1  0  0  0  0
 30 22  2  0  0  0  0
 30 28  1  0  0  0  0
 31 30  1  0  0  0  0
 32 34  1  0  0  0  0
 32  5  1  0  0  0  0
 32 35  1  0  0  0  0
 33 32  1  0  0  0  0
 36 45  1  0  0  0  0
 37 39  1  0  0  0  0
 37 36  2  0  0  0  0
 38 37  1  0  0  0  0
 39 41  2  0  0  0  0
 40 39  1  0  0  0  0
 41 42  1  0  0  0  0
 41 43  1  0  0  0  0
 43 44  1  0  0  0  0
 45 43  2  0  0  0  0
 45 46  1  0  0  0  0
 47 48  1  0  0  0  0
 48 49  1  0  0  0  0
 48 50  2  0  0  0  0
 50 51  1  0  0  0  0
 52 50  1  0  0  0  0
 52 53  1  0  0  0  0
 54 52  2  0  0  0  0
 55 54  1  0  0  0  0
 56 47  2  0  0  0  0
 56 54  1  0  0  0  0
 57 56  1  0  0  0  0
M  END
$$$$
