CSD_code = JOZBOP | q = 1 | S = 0 | Stoichiometry = C23H26ClN2Ru(1+) | MND = 9
 OpenBabel04212202053D

 53 55  0  0  1  0  0  0  0  0999 V2000
   -0.0038    0.3905    3.7679 Ru  0  0  0  0  0  0  0  0  0  0  0  0
    0.5545    1.9841    2.1720 Cl  0  0  0  0  0 15  0  0  0  0  0  0
    5.4072   -3.6145    2.5457 C   0  0  0  0  0  0  0  0  0  0  0  0
   -1.6896   -0.7994    4.7027 C   0  0  2  0  0  0  0  0  0  0  0  0
   -0.6215   -1.6991    4.4888 C   0  0  2  0  0  3  0  0  0  0  0  0
   -0.1736   -1.8874    3.1536 C   0  0  0  0  0  0  0  0  0  0  0  0
   -0.7198   -1.1538    2.1029 C   0  0  0  0  0  0  0  0  0  0  0  0
   -1.8303   -0.2782    2.3127 C   0  0  0  0  0  0  0  0  0  0  0  0
   -2.3176   -0.1400    3.6148 C   0  0  0  0  0  0  0  0  0  0  0  0
   -0.0131    1.9445    5.0018 N   0  0  0  0  0  0  0  0  0  0  0  0
    1.8441    0.4119    4.3798 N   0  0  0  0  0  0  0  0  0  0  0  0
   -2.4568    0.4182    1.1504 C   0  0  0  0  0  0  0  0  0  0  0  0
   -0.0459   -2.5321    5.6087 C   0  0  0  0  0  0  0  0  0  0  0  0
    0.1833   -1.7065    6.8768 C   0  0  0  0  0  0  0  0  0  0  0  0
   -0.9796   -3.7156    5.8871 C   0  0  0  0  0  0  0  0  0  0  0  0
   -1.0569    2.7430    5.2063 C   0  0  0  0  0  3  0  0  0  0  0  0
   -0.9748    3.8924    5.9684 C   0  0  0  0  0  0  0  0  0  0  0  0
    0.2461    4.2453    6.5397 C   0  0  0  0  0  0  0  0  0  0  0  0
    1.3402    3.4355    6.3207 C   0  0  0  0  0  0  0  0  0  0  0  0
    1.1878    2.2862    5.5388 C   0  0  0  0  0  0  0  0  0  0  0  0
    2.2199    1.3653    5.1821 C   0  0  0  0  0  3  0  0  0  0  0  0
    2.7355   -0.5733    3.9556 C   0  0  0  0  0  0  0  0  0  0  0  0
    3.5484   -1.2617    4.8564 C   0  0  0  0  0  0  0  0  0  0  0  0
    4.4021   -2.2449    4.3966 C   0  0  0  0  0  0  0  0  0  0  0  0
    4.4864   -2.5498    3.0411 C   0  0  0  0  0  0  0  0  0  0  0  0
    3.6817   -1.8417    2.1487 C   0  0  0  0  0  0  0  0  0  0  0  0
    2.8088   -0.8714    2.5925 C   0  0  0  0  0  0  0  0  0  0  0  0
    0.5870   -2.6339    2.9520 H   0  0  0  0  0  0  0  0  0  0  0  0
   -0.3772   -1.3242    1.0881 H   0  0  0  0  0  0  0  0  0  0  0  0
   -3.2182    0.4378    3.7918 H   0  0  0  0  0  0  0  0  0  0  0  0
   -2.1271   -0.7104    5.6907 H   0  0  0  0  0  0  0  0  0  0  0  0
   -2.6422   -0.2853    0.3403 H   0  0  0  0  0  0  0  0  0  0  0  0
   -1.7759    1.1844    0.7729 H   0  0  0  0  0  0  0  0  0  0  0  0
   -3.3921    0.8963    1.4303 H   0  0  0  0  0  0  0  0  0  0  0  0
    0.9216   -2.9254    5.2745 H   0  0  0  0  0  0  0  0  0  0  0  0
   -0.5560   -4.3439    6.6654 H   0  0  0  0  0  0  0  0  0  0  0  0
   -1.1140   -4.3188    4.9924 H   0  0  0  0  0  0  0  0  0  0  0  0
   -1.9548   -3.3668    6.2183 H   0  0  0  0  0  0  0  0  0  0  0  0
    0.7937   -2.2702    7.5767 H   0  0  0  0  0  0  0  0  0  0  0  0
    0.6978   -0.7725    6.6405 H   0  0  0  0  0  0  0  0  0  0  0  0
   -0.7556   -1.4708    7.3711 H   0  0  0  0  0  0  0  0  0  0  0  0
   -1.9871    2.4607    4.7300 H   0  0  0  0  0  0  0  0  0  0  0  0
   -1.8483    4.5083    6.1043 H   0  0  0  0  0  0  0  0  0  0  0  0
    0.3343    5.1429    7.1304 H   0  0  0  0  0  0  0  0  0  0  0  0
    2.3115    3.6757    6.7215 H   0  0  0  0  0  0  0  0  0  0  0  0
    3.2421    1.4644    5.5265 H   0  0  0  0  0  0  0  0  0  0  0  0
    3.4863   -1.0386    5.9114 H   0  0  0  0  0  0  0  0  0  0  0  0
    5.0187   -2.7807    5.1022 H   0  0  0  0  0  0  0  0  0  0  0  0
    3.7509   -2.0526    1.0922 H   0  0  0  0  0  0  0  0  0  0  0  0
    2.2131   -0.2937    1.8970 H   0  0  0  0  0  0  0  0  0  0  0  0
    4.8380   -4.5035    2.2733 H   0  0  0  0  0  0  0  0  0  0  0  0
    5.9368   -3.2797    1.6566 H   0  0  0  0  0  0  0  0  0  0  0  0
    6.1314   -3.8933    3.3058 H   0  0  0  0  0  0  0  0  0  0  0  0
  1 11  1  0  0  0  0
  1  4  1  0  0  0  0
  1 10  1  0  0  0  0
  3 25  1  0  0  0  0
  3 53  1  0  0  0  0
  4 31  1  1  0  0  0
  5  4  1  0  0  0  0
  5 13  1  6  0  0  0
  6  5  1  0  0  0  0
  7  8  1  0  0  0  0
  7  6  2  0  0  0  0
  8  9  2  0  0  0  0
  9 30  1  0  0  0  0
  9  4  1  0  0  0  0
 10 16  1  0  0  0  0
 10 20  1  0  0  0  0
 11 21  1  0  0  0  0
 12 34  1  0  0  0  0
 12  8  1  0  0  0  0
 13 15  1  0  0  0  0
 13 14  1  0  0  0  0
 14 41  1  0  0  0  0
 14 39  1  0  0  0  0
 15 38  1  0  0  0  0
 15 36  1  0  0  0  0
 16 17  1  0  0  0  0
 17 43  1  0  0  0  0
 17 18  2  0  0  0  0
 18 44  1  0  0  0  0
 19 18  1  0  0  0  0
 19 45  1  0  0  0  0
 20 19  2  0  0  0  0
 21 46  1  0  0  0  0
 21 20  1  0  0  0  0
 22 11  1  0  0  0  0
 22 23  1  0  0  0  0
 23 47  1  0  0  0  0
 24 23  2  0  0  0  0
 24 48  1  0  0  0  0
 25 24  1  0  0  0  0
 26 27  1  0  0  0  0
 26 25  2  0  0  0  0
 27 22  2  0  0  0  0
 28  6  1  0  0  0  0
 29  7  1  0  0  0  0
 32 12  1  0  0  0  0
 33 12  1  0  0  0  0
 35 13  1  0  0  0  0
 37 15  1  0  0  0  0
 40 14  1  0  0  0  0
 42 16  1  0  0  0  0
 49 26  1  0  0  0  0
 50 27  1  0  0  0  0
 51  3  1  0  0  0  0
 52  3  1  0  0  0  0
M  END
$$$$
