CSD_code = JOZNIV | q = 0 | S = 0 | Stoichiometry = C3H7AuCl3NS | MND = 4
 OpenBabel04212202053D

 16 15  0  0  0  0  0  0  0  0999 V2000
    6.7822    3.2968    5.6077 Au  0  0  0  0  0  0  0  0  0  0  0  0
    7.8046    5.3262    5.8637 Cl  0  0  0  0  0  0  0  0  0  0  0  0
    5.7783    1.2785    5.3370 Cl  0  0  0  0  0  0  0  0  0  0  0  0
    8.5205    2.6022    4.3370 Cl  0  0  0  0  0  0  0  0  0  0  0  0
    4.8692    3.8986    6.9504 S   0  0  0  0  0  0  0  0  0  0  0  0
    5.1102    5.5001    7.3903 C   0  0  0  0  0  3  0  0  0  0  0  0
    6.0355    5.9713    7.0576 H   0  0  0  0  0  0  0  0  0  0  0  0
    3.0305    5.6386    8.5783 C   0  0  0  0  0  0  0  0  0  0  0  0
    2.2991    6.4310    8.7205 H   0  0  0  0  0  0  0  0  0  0  0  0
    3.1901    5.1230    9.5271 H   0  0  0  0  0  0  0  0  0  0  0  0
    2.6556    4.9122    7.8582 H   0  0  0  0  0  0  0  0  0  0  0  0
    4.5548    7.5601    8.4773 C   0  0  0  0  0  0  0  0  0  0  0  0
    3.7998    8.2298    8.0613 H   0  0  0  0  0  0  0  0  0  0  0  0
    5.5339    7.8585    8.1103 H   0  0  0  0  0  0  0  0  0  0  0  0
    4.5377    7.6509    9.5647 H   0  0  0  0  0  0  0  0  0  0  0  0
    4.2689    6.1991    8.0969 N   0  0  0  0  0  0  0  0  0  0  0  0
  1  2  1  0  0  0  0
  1  5  1  0  0  0  0
  3  1  1  0  0  0  0
  4  1  1  0  0  0  0
  5  6  1  0  0  0  0
  6 16  1  0  0  0  0
  7  6  1  0  0  0  0
  8  9  1  0  0  0  0
  8 10  1  0  0  0  0
 11  8  1  0  0  0  0
 12 15  1  0  0  0  0
 13 12  1  0  0  0  0
 14 12  1  0  0  0  0
 16 12  1  0  0  0  0
 16  8  1  0  0  0  0
M  END
$$$$
