CSD_code = JUBGIY | q = 0 | S = 0 | Stoichiometry = C22H31ClN2P2PtSi | MND = 4
 OpenBabel04212202053D

 60 62  0  0  0  0  0  0  0  0999 V2000
    3.7198    2.5156    1.7566 Pt  0  0  2  0  0  0  0  0  0  0  0  0
    4.4963    4.2599    2.8913 P   0  0  0  0  0  4  0  0  0  0  0  0
    2.7861    2.9054    4.8691 P   0  0  0  0  0  0  0  0  0  0  0  0
    4.9306    3.2965   -0.1128 Cl  0  0  0  0  0  0  0  0  0  0  0  0
    1.7768    0.3642    3.5624 Si  0  0  0  0  0  0  0  0  0  0  0  0
    3.8385    4.2720    4.4458 N   0  0  0  0  0  0  0  0  0  0  0  0
    3.0967    1.1034    0.6020 N   0  0  0  0  0  0  0  0  0  0  0  0
    3.8960    5.7358    2.0063 C   0  0  0  0  0  0  0  0  0  0  0  0
    2.5888    5.5865    1.5434 C   0  0  0  0  0  0  0  0  0  0  0  0
    2.0661    4.6515    1.7510 H   0  0  0  0  0  0  0  0  0  0  0  0
    1.9769    6.5962    0.8283 C   0  0  0  0  0  0  0  0  0  0  0  0
    0.9656    6.4718    0.4701 H   0  0  0  0  0  0  0  0  0  0  0  0
    2.6714    7.7663    0.5603 C   0  0  0  0  0  0  0  0  0  0  0  0
    2.2006    8.5574   -0.0043 H   0  0  0  0  0  0  0  0  0  0  0  0
    3.9737    7.9151    1.0048 C   0  0  0  0  0  0  0  0  0  0  0  0
    4.5190    8.8215    0.7852 H   0  0  0  0  0  0  0  0  0  0  0  0
    4.5897    6.9051    1.7257 C   0  0  0  0  0  0  0  0  0  0  0  0
    5.6121    7.0340    2.0535 H   0  0  0  0  0  0  0  0  0  0  0  0
    6.3008    4.3178    3.0508 C   0  0  0  0  0  0  0  0  0  0  0  0
    6.8864    3.7072    4.1570 C   0  0  0  0  0  0  0  0  0  0  0  0
    6.2493    3.2956    4.9288 H   0  0  0  0  0  0  0  0  0  0  0  0
    8.2618    3.6210    4.2572 C   0  0  0  0  0  0  0  0  0  0  0  0
    8.7124    3.1519    5.1201 H   0  0  0  0  0  0  0  0  0  0  0  0
    9.0616    4.1256    3.2438 C   0  0  0  0  0  0  0  0  0  0  0  0
   10.1370    4.0587    3.3212 H   0  0  0  0  0  0  0  0  0  0  0  0
    8.4818    4.6934    2.1212 C   0  0  0  0  0  0  0  0  0  0  0  0
    9.1049    5.0586    1.3179 H   0  0  0  0  0  0  0  0  0  0  0  0
    7.1052    4.7827    2.0155 C   0  0  0  0  0  0  0  0  0  0  0  0
    6.6527    5.1786    1.1189 H   0  0  0  0  0  0  0  0  0  0  0  0
    3.8407    5.4267    5.3651 C   0  0  0  0  0  0  0  0  0  0  0  0
    2.5859    6.2703    5.1168 C   0  0  0  0  0  0  0  0  0  0  0  0
    2.6183    6.7213    4.1277 H   0  0  0  0  0  0  0  0  0  0  0  0
    2.5071    7.0594    5.8606 H   0  0  0  0  0  0  0  0  0  0  0  0
    1.7028    5.6367    5.1804 H   0  0  0  0  0  0  0  0  0  0  0  0
    3.8302    4.9195    6.8113 C   0  0  0  0  0  0  0  0  0  0  0  0
    2.8764    4.4577    7.0522 H   0  0  0  0  0  0  0  0  0  0  0  0
    3.9979    5.7509    7.4919 H   0  0  0  0  0  0  0  0  0  0  0  0
    4.6187    4.1846    6.9567 H   0  0  0  0  0  0  0  0  0  0  0  0
    5.0862    6.2899    5.1751 C   0  0  0  0  0  0  0  0  0  0  0  0
    5.9813    5.7479    5.4687 H   0  0  0  0  0  0  0  0  0  0  0  0
    5.0025    7.1815    5.7931 H   0  0  0  0  0  0  0  0  0  0  0  0
    5.1864    6.6015    4.1404 H   0  0  0  0  0  0  0  0  0  0  0  0
    2.7447    1.9853    3.4697 C   0  0  0  0  0  0  0  0  0  0  0  0
    0.2966    0.4207    2.3470 C   0  0  0  0  0  0  0  0  0  0  0  0
   -0.4955    1.0514    2.7376 H   0  0  0  0  0  0  0  0  0  0  0  0
   -0.1203   -0.5683    2.1843 H   0  0  0  0  0  0  0  0  0  0  0  0
    0.5890    0.8227    1.3822 H   0  0  0  0  0  0  0  0  0  0  0  0
    1.0789    0.0632    5.3112 C   0  0  0  0  0  0  0  0  0  0  0  0
    1.8740    0.0144    6.0474 H   0  0  0  0  0  0  0  0  0  0  0  0
    0.5257   -0.8691    5.3562 H   0  0  0  0  0  0  0  0  0  0  0  0
    0.4084    0.8624    5.6078 H   0  0  0  0  0  0  0  0  0  0  0  0
    2.9425   -1.0891    3.1168 C   0  0  0  0  0  0  0  0  0  0  0  0
    3.6844   -0.7829    2.3847 H   0  0  0  0  0  0  0  0  0  0  0  0
    2.3963   -1.9332    2.7073 H   0  0  0  0  0  0  0  0  0  0  0  0
    3.4772   -1.4363    3.9950 H   0  0  0  0  0  0  0  0  0  0  0  0
    3.0694    0.5163   -0.3875 C   0  0  0  0  0  2  0  0  0  0  0  0
    3.0133   -0.2403   -1.5997 C   0  0  0  0  0  0  0  0  0  0  0  0
    2.1101    0.0185   -2.1521 H   0  0  0  0  0  0  0  0  0  0  0  0
    3.0072   -1.3064   -1.3723 H   0  0  0  0  0  0  0  0  0  0  0  0
    3.8856   -0.0023   -2.2091 H   0  0  0  0  0  0  0  0  0  0  0  0
  1  4  1  1  0  0  0
  1  2  1  0  0  0  0
  1 43  1  0  0  0  0
  2 19  1  0  0  0  0
  2  6  1  0  0  0  0
  5 48  1  0  0  0  0
  6  3  1  0  0  0  0
  6 30  1  0  0  0  0
  7  1  2  0  0  0  0
  8  2  1  0  0  0  0
  9 10  1  0  0  0  0
  9  8  2  0  0  0  0
 11  9  1  0  0  0  0
 12 11  1  0  0  0  0
 13 11  2  0  0  0  0
 13 15  1  0  0  0  0
 14 13  1  0  0  0  0
 15 17  2  0  0  0  0
 16 15  1  0  0  0  0
 17  8  1  0  0  0  0
 17 18  1  0  0  0  0
 19 20  1  0  0  0  0
 20 22  2  0  0  0  0
 20 21  1  0  0  0  0
 22 23  1  0  0  0  0
 24 25  1  0  0  0  0
 24 22  1  0  0  0  0
 26 24  2  0  0  0  0
 27 26  1  0  0  0  0
 28 26  1  0  0  0  0
 28 19  2  0  0  0  0
 29 28  1  0  0  0  0
 30 35  1  0  0  0  0
 31 34  1  0  0  0  0
 31 30  1  0  0  0  0
 31 33  1  0  0  0  0
 32 31  1  0  0  0  0
 35 38  1  0  0  0  0
 35 36  1  0  0  0  0
 35 37  1  0  0  0  0
 39 30  1  0  0  0  0
 39 40  1  0  0  0  0
 39 41  1  0  0  0  0
 42 39  1  0  0  0  0
 43  5  1  0  0  0  0
 43  3  2  0  0  0  0
 44 45  1  0  0  0  0
 44  5  1  0  0  0  0
 46 44  1  0  0  0  0
 47 44  1  0  0  0  0
 48 50  1  0  0  0  0
 48 51  1  0  0  0  0
 48 49  1  0  0  0  0
 52  5  1  0  0  0  0
 52 55  1  0  0  0  0
 53 52  1  0  0  0  0
 54 52  1  0  0  0  0
 56  7  1  0  0  0  0
 57 59  1  0  0  0  0
 57 56  1  0  0  0  0
 58 57  1  0  0  0  0
 60 57  1  0  0  0  0
M  END
$$$$
