CSD_code = JUBYAG | q = 0 | S = 0 | Stoichiometry = C9H22Cl2N2O3RuS3 | MND = 6
 OpenBabel04212202053D

 42 42  0  0  0  0  0  0  0  0999 V2000
    0.3431    3.3169    2.4188 Ru  0  0  0  0  0  0  0  0  0  0  0  0
    1.0258    4.0498    4.5393 Cl  0  0  0  0  0  0  0  0  0  0  0  0
   -0.6844    5.3496    1.8534 Cl  0  0  0  0  0  0  0  0  0  0  0  0
   -0.5266    2.4404    0.4673 S   0  0  0  0  0  0  0  0  0  0  0  0
    1.4133    1.3793    2.8513 S   0  0  0  0  0  0  0  0  0  0  0  0
   -1.5684    2.8020    3.5003 S   0  0  0  0  0  0  0  0  0  0  0  0
    0.5244    2.3245   -0.5714 O   0  0  0  0  0  1  0  0  0  0  0  0
    0.5259    0.2208    2.9065 O   0  0  0  0  0  1  0  0  0  0  0  0
   -2.6070    2.2958    2.6091 O   0  0  0  0  0  1  0  0  0  0  0  0
    2.0560    4.1328    1.5317 N   0  0  0  0  0  0  0  0  0  0  0  0
    2.2888    4.1590    0.2200 N   0  0  0  0  0  0  0  0  0  0  0  0
   -1.8909    3.3361   -0.3153 C   0  0  0  0  0  0  0  0  0  0  0  0
   -1.2851    0.7936    0.4761 C   0  0  0  0  0  0  0  0  0  0  0  0
    2.6603    0.9857    1.5787 C   0  0  0  0  0  0  0  0  0  0  0  0
    2.5169    1.2475    4.2910 C   0  0  0  0  0  0  0  0  0  0  0  0
   -1.4468    1.6357    4.8878 C   0  0  0  0  0  0  0  0  0  0  0  0
   -2.3044    4.1843    4.4120 C   0  0  0  0  0  0  0  0  0  0  0  0
    3.3069    4.9792   -0.0717 C   0  0  0  0  0  3  0  0  0  0  0  0
    3.7511    5.5163    1.1169 C   0  0  0  0  0  0  0  0  0  0  0  0
    2.9281    4.9578    2.0960 C   0  0  0  0  0  0  0  0  0  0  0  0
    1.7104    3.5708   -0.3932 H   0  0  0  0  0  0  0  0  0  0  0  0
    3.6417    5.1298   -1.0777 H   0  0  0  0  0  0  0  0  0  0  0  0
    4.5458    6.2169    1.2639 H   0  0  0  0  0  0  0  0  0  0  0  0
    2.9268    5.1236    3.1572 H   0  0  0  0  0  0  0  0  0  0  0  0
   -1.5785    4.3669   -0.4502 H   0  0  0  0  0  0  0  0  0  0  0  0
   -2.1133    2.8621   -1.2640 H   0  0  0  0  0  0  0  0  0  0  0  0
   -2.7264    3.2897    0.3735 H   0  0  0  0  0  0  0  0  0  0  0  0
   -0.6520    0.1285    1.0547 H   0  0  0  0  0  0  0  0  0  0  0  0
   -2.2584    0.8740    0.9420 H   0  0  0  0  0  0  0  0  0  0  0  0
   -1.3458    0.4703   -0.5565 H   0  0  0  0  0  0  0  0  0  0  0  0
    2.1842    1.0882    0.6071 H   0  0  0  0  0  0  0  0  0  0  0  0
    3.4801    1.6881    1.6759 H   0  0  0  0  0  0  0  0  0  0  0  0
    2.9936   -0.0348    1.7283 H   0  0  0  0  0  0  0  0  0  0  0  0
    1.9161    1.3868    5.1827 H   0  0  0  0  0  0  0  0  0  0  0  0
    2.9753    0.2658    4.2835 H   0  0  0  0  0  0  0  0  0  0  0  0
    3.2478    2.0441    4.2213 H   0  0  0  0  0  0  0  0  0  0  0  0
   -1.0361    0.7086    4.5006 H   0  0  0  0  0  0  0  0  0  0  0  0
   -0.7828    2.0776    5.6225 H   0  0  0  0  0  0  0  0  0  0  0  0
   -2.4395    1.4741    5.2907 H   0  0  0  0  0  0  0  0  0  0  0  0
   -2.5080    4.9716    3.6921 H   0  0  0  0  0  0  0  0  0  0  0  0
   -3.2194    3.8366    4.8767 H   0  0  0  0  0  0  0  0  0  0  0  0
   -1.5774    4.5268    5.1402 H   0  0  0  0  0  0  0  0  0  0  0  0
  1  5  1  0  0  0  0
  1  6  1  0  0  0  0
  1  2  1  0  0  0  0
  3  1  1  0  0  0  0
  4 13  1  0  0  0  0
  4  1  1  0  0  0  0
  5  8  1  0  0  0  0
  5 15  1  0  0  0  0
  6 17  1  0  0  0  0
  6 16  1  0  0  0  0
  7  4  1  0  0  0  0
  9  6  1  0  0  0  0
 10 20  1  0  0  0  0
 10  1  1  0  0  0  0
 11 10  1  0  0  0  0
 12 27  1  0  0  0  0
 12  4  1  0  0  0  0
 13 29  1  0  0  0  0
 13 28  1  0  0  0  0
 14 32  1  0  0  0  0
 14 33  1  0  0  0  0
 14  5  1  0  0  0  0
 15 34  1  0  0  0  0
 16 39  1  0  0  0  0
 16 38  1  0  0  0  0
 17 41  1  0  0  0  0
 17 42  1  0  0  0  0
 18 11  1  0  0  0  0
 18 19  1  0  0  0  0
 19 23  1  0  0  0  0
 19 20  2  0  0  0  0
 20 24  1  0  0  0  0
 21 11  1  0  0  0  0
 22 18  1  0  0  0  0
 25 12  1  0  0  0  0
 26 12  1  0  0  0  0
 30 13  1  0  0  0  0
 31 14  1  0  0  0  0
 35 15  1  0  0  0  0
 36 15  1  0  0  0  0
 37 16  1  0  0  0  0
 40 17  1  0  0  0  0
M  END
$$$$
