CSD_code = JUCCUH | q = 0 | S = 0 | Stoichiometry = C25H32Cl2N4OPd | MND = 4
 OpenBabel04212202053D

 65 68  0  0  0  0  0  0  0  0999 V2000
   10.1109    1.3769   20.8729 C   0  0  0  0  0  0  0  0  0  0  0  0
    9.4266    0.5811   20.5838 H   0  0  0  0  0  0  0  0  0  0  0  0
   11.1189    1.1037   20.5695 H   0  0  0  0  0  0  0  0  0  0  0  0
    9.8297    2.2930   20.3261 H   0  0  0  0  0  0  0  0  0  0  0  0
   10.0589    1.5946   22.3912 C   0  0  0  0  0  0  0  0  0  0  0  0
    9.0496    1.9400   22.6492 H   0  0  0  0  0  0  0  0  0  0  0  0
   10.2857    0.2674   23.1129 C   0  0  0  0  0  0  0  0  0  0  0  0
   10.3362    0.4156   24.1894 H   0  0  0  0  0  0  0  0  0  0  0  0
   11.2040   -0.2077   22.7773 H   0  0  0  0  0  0  0  0  0  0  0  0
    9.4609   -0.4095   22.8989 H   0  0  0  0  0  0  0  0  0  0  0  0
   11.0464    2.6739   22.7891 C   0  0  0  0  0  0  0  0  0  0  0  0
   12.2703    2.3904   23.3752 C   0  0  0  0  0  0  0  0  0  0  0  0
   12.5415    1.3705   23.5945 H   0  0  0  0  0  0  0  0  0  0  0  0
   13.1620    3.4028   23.6817 C   0  0  0  0  0  0  0  0  0  0  0  0
   14.1071    3.1598   24.1446 H   0  0  0  0  0  0  0  0  0  0  0  0
   12.8624    4.7184   23.3827 C   0  0  0  0  0  0  0  0  0  0  0  0
   13.5798    5.4897   23.6122 H   0  0  0  0  0  0  0  0  0  0  0  0
   11.6595    5.0477   22.7775 C   0  0  0  0  0  0  0  0  0  0  0  0
   10.5695    7.1407   23.5782 C   0  0  0  0  0  0  0  0  0  0  0  0
   10.3095    8.1659   23.3230 H   0  0  0  0  0  0  0  0  0  0  0  0
   11.2075    7.1535   24.4602 H   0  0  0  0  0  0  0  0  0  0  0  0
    9.6537    6.6055   23.8234 H   0  0  0  0  0  0  0  0  0  0  0  0
   11.2998    6.4717   22.4100 C   0  0  0  0  0  0  0  0  0  0  0  0
   10.6080    6.4446   21.5377 H   0  0  0  0  0  0  0  0  0  0  0  0
   12.5144    7.2957   21.9871 C   0  0  0  0  0  0  0  0  0  0  0  0
   12.1862    8.2480   21.5755 H   0  0  0  0  0  0  0  0  0  0  0  0
   13.0733    6.7635   21.2213 H   0  0  0  0  0  0  0  0  0  0  0  0
   13.1703    7.5017   22.8298 H   0  0  0  0  0  0  0  0  0  0  0  0
   10.7519    4.0156   22.5084 C   0  0  0  0  0  0  0  0  0  0  0  0
    8.4185    4.3961   22.4918 C   0  0  0  0  0  3  0  0  0  0  0  0
    8.3529    4.2054   23.5624 H   0  0  0  0  0  0  0  0  0  0  0  0
    7.2620    4.7032   21.7450 C   0  0  0  0  0  0  0  0  0  0  0  0
    5.9039    4.7413   22.0793 C   0  0  0  0  0  0  0  0  0  0  0  0
    5.4849    4.5814   23.0532 H   0  0  0  0  0  0  0  0  0  0  0  0
    5.2294    5.0097   20.8997 C   0  0  0  0  0  0  0  0  0  0  0  0
    4.1694    5.1127   20.7663 H   0  0  0  0  0  0  0  0  0  0  0  0
    6.1957    5.1378   19.8959 C   0  0  0  0  0  0  0  0  0  0  0  0
    5.8993    5.4385   18.4615 C   0  0  0  0  0  0  0  0  0  0  0  0
    4.8227    5.3104   18.3081 H   0  0  0  0  0  0  0  0  0  0  0  0
    6.1684    6.4735   18.2266 H   0  0  0  0  0  0  0  0  0  0  0  0
    6.7057    3.1742   17.9175 C   0  0  0  0  0  0  0  0  0  0  0  0
    7.1273    2.5796   17.1100 H   0  0  0  0  0  0  0  0  0  0  0  0
    5.7174    2.7942   18.1775 H   0  0  0  0  0  0  0  0  0  0  0  0
    7.3691    3.0897   18.7866 H   0  0  0  0  0  0  0  0  0  0  0  0
    6.1109    4.7211   16.1316 C   0  0  0  0  0  0  0  0  0  0  0  0
    6.7715    4.1538   15.4703 H   0  0  0  0  0  0  0  0  0  0  0  0
    5.1038    4.2904   16.0831 H   0  0  0  0  0  0  0  0  0  0  0  0
    6.0773    6.1457   15.6924 C   0  0  0  0  0  0  0  0  0  0  0  0
    7.1279    7.0307   15.5135 C   0  0  0  0  0  0  0  0  0  0  0  0
    8.1616    6.8072   15.6843 H   0  0  0  0  0  0  0  0  0  0  0  0
    6.5818    8.2480   15.1045 C   0  0  0  0  0  0  0  0  0  0  0  0
    7.1191    9.1471   14.8798 H   0  0  0  0  0  0  0  0  0  0  0  0
    5.2039    8.0844   15.0377 C   0  0  0  0  0  0  0  0  0  0  0  0
    4.1439    8.9851   14.6711 C   0  0  0  0  0  0  0  0  0  0  0  0
    4.4842    9.9979   14.3923 H   0  0  0  0  0  0  0  0  0  0  0  0
    9.5466    4.3389   21.8704 N   0  0  0  0  0  0  0  0  0  0  0  0
    7.4249    4.9601   20.4057 N   0  0  0  0  0  0  0  0  0  0  0  0
    6.6353    4.5784   17.5039 N   0  0  0  0  0  4  0  0  0  0  0  0
    7.7131    4.9657   17.5181 H   0  0  0  0  0  0  0  0  0  0  0  0
    4.9278    6.7958   15.4092 N   0  0  0  0  0  0  0  0  0  0  0  0
    3.9884    6.4288   15.4220 H   0  0  0  0  0  0  0  0  0  0  0  0
    2.9696    8.6816   14.6621 O   0  0  0  0  0  0  0  0  0  0  0  0
   11.6713    4.4464   19.6209 Cl  0  0  0  0  0  0  0  0  0  0  0  0
    9.3697    5.4571   17.7729 Cl  0  0  0  0  0  0  0  0  0  0  0  0
    9.4540    4.7910   19.9470 Pd  0  0  0  0  0  0  0  0  0  0  0  0
  1  5  1  0  0  0  0
  2  1  1  0  0  0  0
  3  1  1  0  0  0  0
  4  1  1  0  0  0  0
  5  6  1  0  0  0  0
  5 11  1  0  0  0  0
  5  7  1  0  0  0  0
  7  8  1  0  0  0  0
  9  7  1  0  0  0  0
 10  7  1  0  0  0  0
 11 12  1  0  0  0  0
 12 13  1  0  0  0  0
 12 14  2  0  0  0  0
 14 15  1  0  0  0  0
 16 17  1  0  0  0  0
 16 14  1  0  0  0  0
 18 16  2  0  0  0  0
 19 22  1  0  0  0  0
 19 21  1  0  0  0  0
 20 19  1  0  0  0  0
 23 18  1  0  0  0  0
 23 19  1  0  0  0  0
 24 23  1  0  0  0  0
 25 23  1  0  0  0  0
 25 28  1  0  0  0  0
 26 25  1  0  0  0  0
 27 25  1  0  0  0  0
 29 18  1  0  0  0  0
 29 11  2  0  0  0  0
 30 31  1  0  0  0  0
 32 33  2  0  0  0  0
 32 30  1  0  0  0  0
 33 34  1  0  0  0  0
 35 33  1  0  0  0  0
 36 35  1  0  0  0  0
 37 57  1  0  0  0  0
 37 35  2  0  0  0  0
 38 37  1  0  0  0  0
 39 38  1  0  0  0  0
 40 38  1  0  0  0  0
 41 43  1  0  0  0  0
 41 44  1  0  0  0  0
 42 41  1  0  0  0  0
 45 58  1  0  0  0  0
 46 45  1  0  0  0  0
 47 45  1  0  0  0  0
 48 45  1  0  0  0  0
 49 50  1  0  0  0  0
 49 48  2  0  0  0  0
 51 49  1  0  0  0  0
 52 51  1  0  0  0  0
 53 51  2  0  0  0  0
 53 60  1  0  0  0  0
 54 53  1  0  0  0  0
 55 54  1  0  0  0  0
 56 30  1  0  0  0  0
 56 29  1  0  0  0  0
 57 32  1  0  0  0  0
 58 59  1  0  0  0  0
 58 41  1  0  0  0  0
 58 38  1  0  0  0  0
 60 61  1  0  0  0  0
 60 48  1  0  0  0  0
 62 54  2  0  0  0  0
 63 65  1  0  0  0  0
 64 65  1  0  0  0  0
 65 57  1  0  0  0  0
 65 56  1  0  0  0  0
M  END
$$$$
