CSD_code = JUCQON | q = 0 | S = 0 | Stoichiometry = C8H18Cl3O4Y | MND = 7
 OpenBabel04212202053D

 34 32  0  0  0  0  0  0  0  0999 V2000
   -0.4778    1.9507    5.8656 Y   0  0  0  0  0  0  0  0  0  0  0  0
    1.7942    2.5188    6.6059 Cl  0  0  0  0  0  0  0  0  0  0  0  0
   -2.9527    2.0426    5.5750 Cl  0  0  0  0  0  0  0  0  0  0  0  0
   -0.2066   -0.4100    5.2723 Cl  0  0  0  0  0  0  0  0  0  0  0  0
   -1.1433    4.3936    5.4516 O   0  0  0  0  0  0  0  0  0  0  0  0
   -1.0994    3.4097    7.9646 O   0  0  0  0  0  0  0  0  0  0  0  0
   -0.8630    0.6899    8.0468 O   0  0  0  0  0  0  0  0  0  0  0  0
   -0.0628    2.4631    3.5765 O   0  0  0  0  0  0  0  0  0  0  0  0
   -1.1448    5.3126    6.5372 C   0  0  0  0  0  0  0  0  0  0  0  0
   -0.5083    4.6938    7.7889 C   0  0  0  0  0  0  0  0  0  0  0  0
   -0.7120    2.7691    9.1708 C   0  0  0  0  0  0  0  0  0  0  0  0
   -1.3781    1.3960    9.1702 C   0  0  0  0  0  0  0  0  0  0  0  0
   -0.7020    1.6512    2.5790 C   0  0  0  0  0  0  0  0  0  0  0  0
    0.3564    0.6464    2.0911 C   0  0  0  0  0  0  0  0  0  0  0  0
    1.6712    1.1891    2.6758 C   0  0  0  0  0  0  0  0  0  0  0  0
    1.2864    2.5998    3.1146 C   0  0  0  0  0  0  0  0  0  0  0  0
   -2.1684    5.6249    6.7625 H   0  0  0  0  0  0  0  0  0  0  0  0
   -0.5574    6.1852    6.2337 H   0  0  0  0  0  0  0  0  0  0  0  0
    0.5765    4.5842    7.6507 H   0  0  0  0  0  0  0  0  0  0  0  0
   -0.7091    5.3261    8.6634 H   0  0  0  0  0  0  0  0  0  0  0  0
   -1.0470    3.3569   10.0361 H   0  0  0  0  0  0  0  0  0  0  0  0
    0.3808    2.6502    9.2013 H   0  0  0  0  0  0  0  0  0  0  0  0
   -1.1384    0.8662   10.0999 H   0  0  0  0  0  0  0  0  0  0  0  0
   -2.4652    1.5208    9.0757 H   0  0  0  0  0  0  0  0  0  0  0  0
   -1.0323    2.3075    1.7627 H   0  0  0  0  0  0  0  0  0  0  0  0
   -1.5733    1.1736    3.0356 H   0  0  0  0  0  0  0  0  0  0  0  0
    0.1486   -0.3507    2.4733 H   0  0  0  0  0  0  0  0  0  0  0  0
    0.3811    0.6103    1.0032 H   0  0  0  0  0  0  0  0  0  0  0  0
    1.9640    0.6036    3.5498 H   0  0  0  0  0  0  0  0  0  0  0  0
    2.4878    1.1878    1.9579 H   0  0  0  0  0  0  0  0  0  0  0  0
    1.2990    3.2984    2.2661 H   0  0  0  0  0  0  0  0  0  0  0  0
    1.8958    2.9953    3.9307 H   0  0  0  0  0  0  0  0  0  0  0  0
   -2.0480    4.0140    5.3728 H   0  0  0  0  0  0  0  0  0  0  0  0
   -1.2730   -0.1894    7.9968 H   0  0  0  0  0  0  0  0  0  0  0  0
  1  2  1  0  0  0  0
  3  1  1  0  0  0  0
  4  1  1  0  0  0  0
  5  9  1  0  0  0  0
  6 11  1  0  0  0  0
  7 12  1  0  0  0  0
  9 17  1  0  0  0  0
  9 10  1  0  0  0  0
 10  6  1  0  0  0  0
 10 20  1  0  0  0  0
 11 22  1  0  0  0  0
 11 21  1  0  0  0  0
 12 11  1  0  0  0  0
 12 23  1  0  0  0  0
 13 26  1  0  0  0  0
 13  8  1  0  0  0  0
 14 27  1  0  0  0  0
 14 13  1  0  0  0  0
 14 15  1  0  0  0  0
 15 16  1  0  0  0  0
 15 29  1  0  0  0  0
 16  8  1  0  0  0  0
 16 32  1  0  0  0  0
 18  9  1  0  0  0  0
 19 10  1  0  0  0  0
 24 12  1  0  0  0  0
 25 13  1  0  0  0  0
 28 14  1  0  0  0  0
 30 15  1  0  0  0  0
 31 16  1  0  0  0  0
 33  5  1  0  0  0  0
 34  7  1  0  0  0  0
M  END
$$$$
