CSD_code = JUDFUJ | q = 0 | S = 0 | Stoichiometry = C21H18Cl2Zr | MND = 12
 OpenBabel04212202053D

 42 46  0  0  1  0  0  0  0  0999 V2000
    2.2046    2.0575    6.9488 Zr  0  0  0  0  0  0  0  0  0  0  0  0
    2.1904    0.3519    8.5206 Cl  0  0  0  0  0  0  0  0  0  0  0  0
    1.8117    0.6478    5.1492 Cl  0  0  0  0  0  0  0  0  0  0  0  0
    1.3695    4.2804    7.2530 C   0  0  0  0  0  0  0  0  0  0  0  0
    0.6645    3.7481    6.1072 C   0  0  0  0  0  0  0  0  0  0  0  0
   -0.2269    2.6932    6.5512 C   0  0  0  0  0  0  0  0  0  0  0  0
   -0.0744    2.5611    7.9729 C   0  0  0  0  0  0  0  0  0  0  0  0
    0.9114    3.5339    8.4046 C   0  0  0  0  0  0  0  0  0  0  0  0
    1.2058    3.5635    9.7896 C   0  0  0  0  0  0  0  0  0  0  0  0
    0.5712    2.6984   10.6494 C   0  0  0  0  0  0  0  0  0  0  0  0
   -0.3839    1.7733   10.2100 C   0  0  0  0  0  0  0  0  0  0  0  0
   -0.7164    1.7073    8.8787 C   0  0  0  0  0  0  0  0  0  0  0  0
    0.6664    4.0324    4.7196 C   0  0  0  0  0  0  0  0  0  0  0  0
   -0.1489    3.3241    3.8687 C   0  0  0  0  0  0  0  0  0  0  0  0
   -1.0096    2.3168    4.3226 C   0  0  0  0  0  0  0  0  0  0  0  0
   -1.0597    2.0052    5.6596 C   0  0  0  0  0  0  0  0  0  0  0  0
    2.6820    5.0882    7.1837 C   0  0  0  0  0  0  0  0  0  0  0  0
    2.6964    6.1160    6.0411 C   0  0  0  0  0  0  0  0  0  0  0  0
    2.9774    5.8740    8.4705 C   0  0  0  0  0  0  0  0  0  0  0  0
    3.6796    3.9486    6.9585 C   0  0  1  0  0  0  0  0  0  0  0  0
    4.1522    3.0720    7.9769 C   0  0  0  0  0  3  0  0  0  0  0  0
    4.7109    1.9275    7.3569 C   0  0  0  0  0  0  0  0  0  0  0  0
    4.5524    2.0621    5.9659 C   0  0  0  0  0  0  0  0  0  0  0  0
    3.8938    3.2902    5.7138 C   0  0  0  0  0  3  0  0  0  0  0  0
    1.8842    4.2885   10.2091 H   0  0  0  0  0  0  0  0  0  0  0  0
    0.8095    2.7392   11.7020 H   0  0  0  0  0  0  0  0  0  0  0  0
   -0.8589    1.1195   10.9243 H   0  0  0  0  0  0  0  0  0  0  0  0
   -1.4634    1.0090    8.5255 H   0  0  0  0  0  0  0  0  0  0  0  0
    1.2564    4.8346    4.3069 H   0  0  0  0  0  0  0  0  0  0  0  0
   -0.1330    3.5578    2.8143 H   0  0  0  0  0  0  0  0  0  0  0  0
   -1.6343    1.7929    3.6165 H   0  0  0  0  0  0  0  0  0  0  0  0
   -1.7299    1.2402    6.0284 H   0  0  0  0  0  0  0  0  0  0  0  0
    1.7704    6.6861    6.0412 H   0  0  0  0  0  0  0  0  0  0  0  0
    3.5241    6.8076    6.1818 H   0  0  0  0  0  0  0  0  0  0  0  0
    2.8328    5.6572    5.0696 H   0  0  0  0  0  0  0  0  0  0  0  0
    2.0990    6.4400    8.7715 H   0  0  0  0  0  0  0  0  0  0  0  0
    3.2872    5.2344    9.2876 H   0  0  0  0  0  0  0  0  0  0  0  0
    3.7913    6.5733    8.2916 H   0  0  0  0  0  0  0  0  0  0  0  0
    4.2170    3.2764    9.0391 H   0  0  0  0  0  0  0  0  0  0  0  0
    5.2499    1.1368    7.8644 H   0  0  0  0  0  0  0  0  0  0  0  0
    4.9469    1.3932    5.2108 H   0  0  0  0  0  0  0  0  0  0  0  0
    3.7247    3.6929    4.7222 H   0  0  0  0  0  0  0  0  0  0  0  0
  1 20  1  0  0  0  0
  1  4  1  0  0  0  0
  1  2  1  0  0  0  0
  3  1  1  0  0  0  0
  4  8  1  0  0  0  0
  5  6  1  0  0  0  0
  5  4  1  0  0  0  0
  6  7  1  0  0  0  0
  7  8  2  0  0  0  0
  7 12  1  0  0  0  0
  8  9  1  0  0  0  0
  9 25  1  0  0  0  0
  9 10  2  0  0  0  0
 10 26  1  0  0  0  0
 11 10  1  0  0  0  0
 11 27  1  0  0  0  0
 12 11  2  0  0  0  0
 13  5  2  0  0  0  0
 14 15  2  0  0  0  0
 14 13  1  0  0  0  0
 15 16  1  0  0  0  0
 16 32  1  0  0  0  0
 16  6  2  0  0  0  0
 17  4  1  0  0  0  0
 17 19  1  0  0  0  0
 18 33  1  0  0  0  0
 18 34  1  0  0  0  0
 18 17  1  0  0  0  0
 19 36  1  0  0  0  0
 19 37  1  0  0  0  0
 20 24  1  6  0  0  0
 20 17  1  0  0  0  0
 20 21  1  0  0  0  0
 21 39  1  0  0  0  0
 22 40  1  0  0  0  0
 22 21  1  0  0  0  0
 23 22  2  0  0  0  0
 24 23  1  0  0  0  0
 28 12  1  0  0  0  0
 29 13  1  0  0  0  0
 30 14  1  0  0  0  0
 31 15  1  0  0  0  0
 35 18  1  0  0  0  0
 38 19  1  0  0  0  0
 41 23  1  0  0  0  0
 42 24  1  0  0  0  0
M  END
$$$$
