CSD_code = JUDJUN | q = 0 | S = 0 | Stoichiometry = C20H27Br2HgN3S2 | MND = 4
 OpenBabel04212202053D

 55 56  0  0  0  0  0  0  0  0999 V2000
    3.6446    2.7667    3.9957 Hg  0  0  0  0  0  0  0  0  0  0  0  0
    3.6555    1.6884    6.2179 Br  0  0  0  0  0  0  0  0  0  0  0  0
    1.9453    2.4226    2.2507 Br  0  0  0  0  0  0  0  0  0  0  0  0
    5.1677    4.6491    1.2448 S   0  0  0  0  0  0  0  0  0  0  0  0
    2.6158    6.4142    2.1294 S   0  0  0  0  0  0  0  0  0  0  0  0
    6.2147    3.0893    4.2921 N   0  0  0  0  0  0  0  0  0  0  0  0
    6.4349    2.2096    4.7574 H   0  0  0  0  0  0  0  0  0  0  0  0
    1.6540    6.3964    4.6968 N   0  0  0  0  0  0  0  0  0  0  0  0
    1.7228    7.3480    5.0479 H   0  0  0  0  0  0  0  0  0  0  0  0
    4.1628    5.1369    4.7956 N   0  0  0  0  0  0  0  0  0  0  0  0
    3.7334    5.7318    4.0860 H   0  0  0  0  0  0  0  0  0  0  0  0
    7.0608    3.1905    3.0945 C   0  0  0  0  0  0  0  0  0  0  0  0
    7.1010    4.2353    2.7817 H   0  0  0  0  0  0  0  0  0  0  0  0
    8.0847    2.8527    3.3053 H   0  0  0  0  0  0  0  0  0  0  0  0
    6.4552    2.3615    1.9940 C   0  0  0  0  0  0  0  0  0  0  0  0
    5.5316    2.9154    1.0957 C   0  0  0  0  0  0  0  0  0  0  0  0
    4.9609    2.1173    0.1133 C   0  0  0  0  0  0  0  0  0  0  0  0
    4.2561    2.5267   -0.5914 H   0  0  0  0  0  0  0  0  0  0  0  0
    5.2806    0.7734    0.0360 C   0  0  0  0  0  0  0  0  0  0  0  0
    4.8169    0.1650   -0.7254 H   0  0  0  0  0  0  0  0  0  0  0  0
    6.1813    0.2147    0.9240 C   0  0  0  0  0  0  0  0  0  0  0  0
    6.4295   -0.8337    0.8644 H   0  0  0  0  0  0  0  0  0  0  0  0
    6.7632    1.0125    1.8943 C   0  0  0  0  0  0  0  0  0  0  0  0
    7.4741    0.5853    2.5877 H   0  0  0  0  0  0  0  0  0  0  0  0
    3.7433    4.9148    0.1294 C   0  0  0  0  0  0  0  0  0  0  0  0
    3.0010    4.1483    0.3492 H   0  0  0  0  0  0  0  0  0  0  0  0
    4.0935    4.8347   -0.9014 H   0  0  0  0  0  0  0  0  0  0  0  0
    3.1593    6.2905    0.3760 C   0  0  0  0  0  0  0  0  0  0  0  0
    3.8968    7.0707    0.1819 H   0  0  0  0  0  0  0  0  0  0  0  0
    2.2837    6.4294   -0.2566 H   0  0  0  0  0  0  0  0  0  0  0  0
    1.1719    7.4261    2.0232 C   0  0  0  0  0  0  0  0  0  0  0  0
    0.1763    7.2352    2.9845 C   0  0  0  0  0  0  0  0  0  0  0  0
   -0.9630    8.0208    2.9309 C   0  0  0  0  0  0  0  0  0  0  0  0
   -1.7387    7.8728    3.6682 H   0  0  0  0  0  0  0  0  0  0  0  0
   -1.1227    8.9792    1.9440 C   0  0  0  0  0  0  0  0  0  0  0  0
   -2.0200    9.5778    1.9125 H   0  0  0  0  0  0  0  0  0  0  0  0
   -0.1225    9.1727    1.0086 C   0  0  0  0  0  0  0  0  0  0  0  0
   -0.2291    9.9286    0.2451 H   0  0  0  0  0  0  0  0  0  0  0  0
    1.0275    8.4049    1.0513 C   0  0  0  0  0  0  0  0  0  0  0  0
    1.8114    8.5802    0.3306 H   0  0  0  0  0  0  0  0  0  0  0  0
    0.3655    6.1990    4.0535 C   0  0  0  0  0  0  0  0  0  0  0  0
    0.3874    5.2044    3.5908 H   0  0  0  0  0  0  0  0  0  0  0  0
   -0.4768    6.2307    4.7631 H   0  0  0  0  0  0  0  0  0  0  0  0
    1.9560    5.4480    5.7511 C   0  0  0  0  0  0  0  0  0  0  0  0
    1.3985    5.6379    6.6815 H   0  0  0  0  0  0  0  0  0  0  0  0
    1.6705    4.4495    5.3938 H   0  0  0  0  0  0  0  0  0  0  0  0
    3.4565    5.4637    6.0347 C   0  0  0  0  0  0  0  0  0  0  0  0
    3.6964    4.7320    6.8099 H   0  0  0  0  0  0  0  0  0  0  0  0
    3.7494    6.4619    6.3927 H   0  0  0  0  0  0  0  0  0  0  0  0
    5.5983    5.4144    4.8278 C   0  0  0  0  0  0  0  0  0  0  0  0
    5.9076    5.7123    3.8246 H   0  0  0  0  0  0  0  0  0  0  0  0
    5.8255    6.2357    5.5188 H   0  0  0  0  0  0  0  0  0  0  0  0
    6.3969    4.1773    5.2531 C   0  0  0  0  0  0  0  0  0  0  0  0
    6.0312    3.8346    6.2235 H   0  0  0  0  0  0  0  0  0  0  0  0
    7.4563    4.4478    5.3534 H   0  0  0  0  0  0  0  0  0  0  0  0
  1  2  1  0  0  0  0
  3  1  1  0  0  0  0
  6  7  1  0  0  0  0
  6 53  1  0  0  0  0
  8  9  1  0  0  0  0
  8 44  1  0  0  0  0
 10 50  1  0  0  0  0
 10 47  1  0  0  0  0
 11 10  1  0  0  0  0
 12 14  1  0  0  0  0
 12  6  1  0  0  0  0
 13 12  1  0  0  0  0
 15 12  1  0  0  0  0
 16  4  1  0  0  0  0
 16 15  2  0  0  0  0
 17 16  1  0  0  0  0
 18 17  1  0  0  0  0
 19 17  2  0  0  0  0
 19 21  1  0  0  0  0
 20 19  1  0  0  0  0
 21 23  2  0  0  0  0
 22 21  1  0  0  0  0
 23 15  1  0  0  0  0
 23 24  1  0  0  0  0
 25 26  1  0  0  0  0
 25 28  1  0  0  0  0
 25  4  1  0  0  0  0
 27 25  1  0  0  0  0
 28  5  1  0  0  0  0
 29 28  1  0  0  0  0
 30 28  1  0  0  0  0
 31  5  1  0  0  0  0
 31 32  1  0  0  0  0
 32 41  1  0  0  0  0
 33 32  2  0  0  0  0
 33 34  1  0  0  0  0
 35 33  1  0  0  0  0
 36 35  1  0  0  0  0
 37 39  1  0  0  0  0
 37 35  2  0  0  0  0
 38 37  1  0  0  0  0
 39 31  2  0  0  0  0
 40 39  1  0  0  0  0
 41  8  1  0  0  0  0
 41 43  1  0  0  0  0
 42 41  1  0  0  0  0
 44 47  1  0  0  0  0
 44 45  1  0  0  0  0
 46 44  1  0  0  0  0
 47 49  1  0  0  0  0
 47 48  1  0  0  0  0
 50 53  1  0  0  0  0
 50 52  1  0  0  0  0
 51 50  1  0  0  0  0
 53 55  1  0  0  0  0
 53 54  1  0  0  0  0
M  END
$$$$
