CSD_code = JUFNUT | q = 1 | S = 0 | Stoichiometry = C21H27ClNP2Pt(1+) | MND = 4
 OpenBabel04212202053D

 53 55  0  0  0  0  0  0  0  0999 V2000
    0.6229    8.7886    3.5024 Pt  0  0  0  0  0  0  0  0  0  0  0  0
   -0.8703    9.3065    5.1937 P   0  0  0  0  0  4  0  0  0  0  0  0
    2.3985    8.1162    2.1865 P   0  0  0  0  0  4  0  0  0  0  0  0
    1.8290    7.7320    5.1560 Cl  0  0  0  0  0  0  0  0  0  0  0  0
   -0.3518    9.7017    2.0190 C   0  0  0  0  0  0  0  0  0  0  0  0
   -0.8183    8.9934    0.9669 N   0  0  0  0  0  0  0  0  0  0  0  0
   -1.3835    9.5254   -0.1328 C   0  0  0  0  0  0  0  0  0  0  0  0
   -1.5266   10.8807   -0.2419 C   0  0  0  0  0  0  0  0  0  0  0  0
   -1.0830   11.6828    0.8174 C   0  0  0  0  0  0  0  0  0  0  0  0
   -0.5143   11.0976    1.9243 C   0  0  0  0  0  0  0  0  0  0  0  0
   -2.5349    9.9697    4.8051 C   0  0  0  0  0  0  0  0  0  0  0  0
   -1.2522    8.0156    6.4194 C   0  0  0  0  0  0  0  0  0  0  0  0
   -0.0703   10.6486    6.1131 C   0  0  0  0  0  0  0  0  0  0  0  0
   -0.5843   11.1482    7.3043 C   0  0  0  0  0  0  0  0  0  0  0  0
    0.0744   12.1704    7.9635 C   0  0  0  0  0  0  0  0  0  0  0  0
    1.2431   12.6994    7.4391 C   0  0  0  0  0  0  0  0  0  0  0  0
    1.7570   12.2083    6.2494 C   0  0  0  0  0  0  0  0  0  0  0  0
    1.1013   11.1866    5.5884 C   0  0  0  0  0  0  0  0  0  0  0  0
    2.6946    6.3215    2.1714 C   0  0  0  0  0  0  0  0  0  0  0  0
    4.0104    8.7831    2.7117 C   0  0  0  0  0  0  0  0  0  0  0  0
    2.2806    8.6229    0.4410 C   0  0  0  0  0  0  0  0  0  0  0  0
    2.1359    7.7303   -0.6133 C   0  0  0  0  0  0  0  0  0  0  0  0
    1.9804    8.2035   -1.9062 C   0  0  0  0  0  0  0  0  0  0  0  0
    1.9591    9.5653   -2.1537 C   0  0  0  0  0  0  0  0  0  0  0  0
    2.0941   10.4620   -1.1043 C   0  0  0  0  0  0  0  0  0  0  0  0
    2.2480    9.9924    0.1851 C   0  0  0  0  0  0  0  0  0  0  0  0
   -0.7178    7.9826    1.0089 H   0  0  0  0  0  0  0  0  0  0  0  0
   -1.7069    8.8440   -0.9045 H   0  0  0  0  0  0  0  0  0  0  0  0
   -1.9723   11.3156   -1.1204 H   0  0  0  0  0  0  0  0  0  0  0  0
   -1.1898   12.7552    0.7575 H   0  0  0  0  0  0  0  0  0  0  0  0
   -0.1737   11.7108    2.7477 H   0  0  0  0  0  0  0  0  0  0  0  0
   -2.4521   10.8318    4.1467 H   0  0  0  0  0  0  0  0  0  0  0  0
   -3.0374   10.2685    5.7236 H   0  0  0  0  0  0  0  0  0  0  0  0
   -3.1247    9.1995    4.3103 H   0  0  0  0  0  0  0  0  0  0  0  0
   -0.3241    7.6335    6.8404 H   0  0  0  0  0  0  0  0  0  0  0  0
   -1.7803    7.1994    5.9267 H   0  0  0  0  0  0  0  0  0  0  0  0
   -1.8772    8.4257    7.2120 H   0  0  0  0  0  0  0  0  0  0  0  0
   -1.4931   10.7390    7.7219 H   0  0  0  0  0  0  0  0  0  0  0  0
   -0.3220   12.5531    8.8916 H   0  0  0  0  0  0  0  0  0  0  0  0
    1.7561   13.4923    7.9610 H   0  0  0  0  0  0  0  0  0  0  0  0
    2.6698   12.6187    5.8447 H   0  0  0  0  0  0  0  0  0  0  0  0
    1.5056   10.7758    4.6581 H   0  0  0  0  0  0  0  0  0  0  0  0
    1.8149    5.7828    1.8222 H   0  0  0  0  0  0  0  0  0  0  0  0
    2.9039    6.0145    3.1956 H   0  0  0  0  0  0  0  0  0  0  0  0
    3.5513    6.0931    1.5372 H   0  0  0  0  0  0  0  0  0  0  0  0
    4.1928    8.4688    3.7389 H   0  0  0  0  0  0  0  0  0  0  0  0
    4.0079    9.8708    2.6668 H   0  0  0  0  0  0  0  0  0  0  0  0
    4.7916    8.3939    2.0582 H   0  0  0  0  0  0  0  0  0  0  0  0
    2.1535    6.6656   -0.4350 H   0  0  0  0  0  0  0  0  0  0  0  0
    1.8794    7.5044   -2.7224 H   0  0  0  0  0  0  0  0  0  0  0  0
    1.8413    9.9291   -3.1624 H   0  0  0  0  0  0  0  0  0  0  0  0
    2.0819   11.5244   -1.2945 H   0  0  0  0  0  0  0  0  0  0  0  0
    2.3439   10.6863    1.0109 H   0  0  0  0  0  0  0  0  0  0  0  0
  1  4  1  0  0  0  0
  1  2  1  0  0  0  0
  2 13  1  0  0  0  0
  2 12  1  0  0  0  0
  3 20  1  0  0  0  0
  3  1  1  0  0  0  0
  5  1  2  0  0  0  0
  6 27  1  0  0  0  0
  6  5  1  0  0  0  0
  7  6  1  0  0  0  0
  8  7  2  0  0  0  0
  8  9  1  0  0  0  0
  9 10  2  0  0  0  0
 10  5  1  0  0  0  0
 10 31  1  0  0  0  0
 11  2  1  0  0  0  0
 11 33  1  0  0  0  0
 12 35  1  0  0  0  0
 12 37  1  0  0  0  0
 13 14  1  0  0  0  0
 14 38  1  0  0  0  0
 14 15  2  0  0  0  0
 15 39  1  0  0  0  0
 16 40  1  0  0  0  0
 16 15  1  0  0  0  0
 17 16  2  0  0  0  0
 18 13  2  0  0  0  0
 18 17  1  0  0  0  0
 19  3  1  0  0  0  0
 19 44  1  0  0  0  0
 20 46  1  0  0  0  0
 21  3  1  0  0  0  0
 22 49  1  0  0  0  0
 22 21  2  0  0  0  0
 23 22  1  0  0  0  0
 24 23  2  0  0  0  0
 24 25  1  0  0  0  0
 25 26  2  0  0  0  0
 26 21  1  0  0  0  0
 26 53  1  0  0  0  0
 28  7  1  0  0  0  0
 29  8  1  0  0  0  0
 30  9  1  0  0  0  0
 32 11  1  0  0  0  0
 34 11  1  0  0  0  0
 36 12  1  0  0  0  0
 41 17  1  0  0  0  0
 42 18  1  0  0  0  0
 43 19  1  0  0  0  0
 45 19  1  0  0  0  0
 47 20  1  0  0  0  0
 48 20  1  0  0  0  0
 50 23  1  0  0  0  0
 51 24  1  0  0  0  0
 52 25  1  0  0  0  0
M  END
$$$$
