CSD_code = JUFSIM | q = 0 | S = 0 | Stoichiometry = C25H32Cl2Ti | MND = 12
 OpenBabel04212202053D

 60 64  0  0  1  0  0  0  0  0999 V2000
    2.3160    4.7880    7.9514 Ti  0  0  0  0  0  0  0  0  0  0  0  0
    0.5909    3.3809    7.7174 Cl  0  0  0  0  0  0  0  0  0  0  0  0
    1.0240    6.1606    9.1647 Cl  0  0  0  0  0  0  0  0  0  0  0  0
    3.2837    4.6423   10.0680 C   0  0  0  0  0  0  0  0  0  0  0  0
    2.6756    3.4028    9.7894 C   0  0  0  0  0  3  0  0  0  0  0  0
    3.3885    2.7996    8.7216 C   0  0  0  0  0  0  0  0  0  0  0  0
    3.2334    1.3988    8.2110 C   0  0  0  0  0  0  0  0  0  0  0  0
    4.2050    1.1446    7.0587 C   0  0  0  0  0  0  0  0  0  0  0  0
    5.5901    1.6836    7.4115 C   0  0  0  0  0  0  0  0  0  0  0  0
    5.5703    3.2144    7.4666 C   0  0  0  0  0  0  0  0  0  0  0  0
    4.4361    3.6679    8.3457 C   0  0  0  0  0  0  0  0  0  0  0  0
    4.3430    4.8443    9.1495 C   0  0  0  0  0  0  0  0  0  0  0  0
    5.3229    5.9792    9.2676 C   0  0  0  0  0  0  0  0  0  0  0  0
    4.6485    7.3667    9.3361 C   0  0  1  0  0  0  0  0  0  0  0  0
    5.3823    8.3351   10.2930 C   0  0  0  0  0  0  0  0  0  0  0  0
    6.0264    9.3924    9.4000 C   0  0  0  0  0  0  0  0  0  0  0  0
    4.9993    9.5500    8.2883 C   0  0  0  0  0  0  0  0  0  0  0  0
    4.5892    8.1050    7.9757 C   0  0  2  0  0  0  0  0  0  0  0  0
    3.2194    8.0501    7.2979 C   0  0  0  0  0  0  0  0  0  0  0  0
    2.8472    6.7075    6.7372 C   0  0  1  0  0  3  0  0  0  0  0  0
    1.5570    6.3707    6.2345 C   0  0  0  0  0  0  0  0  0  0  0  0
    0.3219    7.2154    6.2114 C   0  0  0  0  0  0  0  0  0  0  0  0
   -0.8703    6.3489    5.8044 C   0  0  0  0  0  0  0  0  0  0  0  0
   -0.5525    5.5931    4.5152 C   0  0  0  0  0  0  0  0  0  0  0  0
    0.5260    4.5362    4.7691 C   0  0  0  0  0  0  0  0  0  0  0  0
    1.6397    5.1254    5.5797 C   0  0  0  0  0  0  0  0  0  0  0  0
    2.9644    4.6494    5.7204 C   0  0  0  0  0  3  0  0  0  0  0  0
    3.7207    5.6540    6.3810 C   0  0  2  0  0  0  0  0  0  0  0  0
    3.0444    5.2808   10.9087 H   0  0  0  0  0  0  0  0  0  0  0  0
    1.8829    2.9390   10.3650 H   0  0  0  0  0  0  0  0  0  0  0  0
    2.2028    1.2157    7.8922 H   0  0  0  0  0  0  0  0  0  0  0  0
    3.4503    0.7055    9.0326 H   0  0  0  0  0  0  0  0  0  0  0  0
    3.8387    1.6405    6.1559 H   0  0  0  0  0  0  0  0  0  0  0  0
    4.2591    0.0741    6.8534 H   0  0  0  0  0  0  0  0  0  0  0  0
    6.3242    1.3556    6.6731 H   0  0  0  0  0  0  0  0  0  0  0  0
    5.8889    1.2873    8.3845 H   0  0  0  0  0  0  0  0  0  0  0  0
    5.4878    3.5936    6.4435 H   0  0  0  0  0  0  0  0  0  0  0  0
    6.5160    3.5835    7.8757 H   0  0  0  0  0  0  0  0  0  0  0  0
    6.0518    5.9490    8.4536 H   0  0  0  0  0  0  0  0  0  0  0  0
    5.8816    5.8184   10.1974 H   0  0  0  0  0  0  0  0  0  0  0  0
    3.6236    7.2246    9.6955 H   0  0  0  0  0  0  0  0  0  0  0  0
    6.1161    7.8265   10.9169 H   0  0  0  0  0  0  0  0  0  0  0  0
    4.6603    8.8152   10.9545 H   0  0  0  0  0  0  0  0  0  0  0  0
    6.9675    9.0216    8.9900 H   0  0  0  0  0  0  0  0  0  0  0  0
    6.2246   10.3224    9.9304 H   0  0  0  0  0  0  0  0  0  0  0  0
    5.3930   10.0645    7.4123 H   0  0  0  0  0  0  0  0  0  0  0  0
    4.1377   10.1079    8.6590 H   0  0  0  0  0  0  0  0  0  0  0  0
    5.3403    7.6878    7.2975 H   0  0  0  0  0  0  0  0  0  0  0  0
    3.2158    8.7704    6.4691 H   0  0  0  0  0  0  0  0  0  0  0  0
    2.4500    8.3723    8.0070 H   0  0  0  0  0  0  0  0  0  0  0  0
    0.4597    8.0268    5.4853 H   0  0  0  0  0  0  0  0  0  0  0  0
    0.1442    7.6733    7.1880 H   0  0  0  0  0  0  0  0  0  0  0  0
   -1.7543    6.9744    5.6685 H   0  0  0  0  0  0  0  0  0  0  0  0
   -1.0763    5.6308    6.6033 H   0  0  0  0  0  0  0  0  0  0  0  0
   -0.2012    6.3039    3.7623 H   0  0  0  0  0  0  0  0  0  0  0  0
   -1.4513    5.1100    4.1289 H   0  0  0  0  0  0  0  0  0  0  0  0
    0.9245    4.1583    3.8220 H   0  0  0  0  0  0  0  0  0  0  0  0
    0.0816    3.6875    5.2993 H   0  0  0  0  0  0  0  0  0  0  0  0
    3.3658    3.7819    5.2106 H   0  0  0  0  0  0  0  0  0  0  0  0
    4.7979    5.6902    6.4343 H   0  0  0  0  0  0  0  0  0  0  0  0
  1  3  1  0  0  0  0
  2  1  1  0  0  0  0
  4 29  1  0  0  0  0
  5  4  1  0  0  0  0
  5 30  1  0  0  0  0
  6  5  1  0  0  0  0
  7  6  1  0  0  0  0
  7 32  1  0  0  0  0
  8  9  1  0  0  0  0
  8  7  1  0  0  0  0
  9 10  1  0  0  0  0
  9 36  1  0  0  0  0
 10 38  1  0  0  0  0
 10 11  1  0  0  0  0
 11  6  2  0  0  0  0
 11 12  1  0  0  0  0
 12 13  1  0  0  0  0
 12  4  2  0  0  0  0
 13 14  1  0  0  0  0
 13 40  1  0  0  0  0
 14 41  1  1  0  0  0
 14 15  1  0  0  0  0
 15 42  1  0  0  0  0
 15 43  1  0  0  0  0
 16 45  1  0  0  0  0
 16 15  1  0  0  0  0
 17 47  1  0  0  0  0
 17 16  1  0  0  0  0
 18 48  1  6  0  0  0
 18 17  1  0  0  0  0
 18 14  1  0  0  0  0
 19 18  1  0  0  0  0
 19 50  1  0  0  0  0
 20 19  1  6  0  0  0
 21 20  1  0  0  0  0
 22 21  1  0  0  0  0
 22 52  1  0  0  0  0
 23 22  1  0  0  0  0
 23 54  1  0  0  0  0
 24 25  1  0  0  0  0
 24 23  1  0  0  0  0
 25 58  1  0  0  0  0
 25 26  1  0  0  0  0
 26 27  1  0  0  0  0
 26 21  2  0  0  0  0
 27 28  1  0  0  0  0
 28 60  1  1  0  0  0
 28 20  1  0  0  0  0
 28  1  1  0  0  0  0
 31  7  1  0  0  0  0
 33  8  1  0  0  0  0
 34  8  1  0  0  0  0
 35  9  1  0  0  0  0
 37 10  1  0  0  0  0
 39 13  1  0  0  0  0
 44 16  1  0  0  0  0
 46 17  1  0  0  0  0
 49 19  1  0  0  0  0
 51 22  1  0  0  0  0
 53 23  1  0  0  0  0
 55 24  1  0  0  0  0
 56 24  1  0  0  0  0
 57 25  1  0  0  0  0
 59 27  1  0  0  0  0
M  END
$$$$
