CSD_code = JUHNAB | q = 0 | S = 0 | Stoichiometry = C36H18Cl3N2NbP2 | MND = 5
 OpenBabel04212202053D

 62 66  0  0  0  0  0  0  0  0999 V2000
    4.1651    7.1248    9.6536 Nb  0  0  0  0  0  0  0  0  0  0  0  0
    5.2921    5.0879    9.6574 Cl  0  0  0  0  0  0  0  0  0  0  0  0
    3.0381    9.1695   10.6133 Cl  0  0  0  0  0 15  0  0  0  0  0  0
    6.0334    8.3883    9.2186 Cl  0  0  0  0  0  0  0  0  0  0  0  0
    2.2976    6.7633    7.0029 P   0  0  0  0  0  4  0  0  0  0  0  0
    2.2028    7.5224   11.9562 P   0  0  0  0  0  2  0  0  0  0  0  0
    3.5505    7.1182    7.8952 N   0  0  0  0  0  2  0  0  0  0  0  0
    2.6215    6.4451   10.6420 N   0  0  0  0  0  0  0  0  0  0  0  0
    1.4311    5.3195    7.6805 C   0  0  0  0  0  0  0  0  0  0  0  0
    2.2534    4.2347    7.9746 C   0  0  0  0  0  0  0  0  0  0  0  0
    1.7083    3.0995    8.5452 C   0  0  0  0  0  0  0  0  0  0  0  0
    0.3453    3.0448    8.8044 C   0  0  0  0  0  0  0  0  0  0  0  0
   -0.4691    4.1233    8.5041 C   0  0  0  0  0  0  0  0  0  0  0  0
    0.0679    5.2681    7.9395 C   0  0  0  0  0  0  0  0  0  0  0  0
    2.8251    6.3409    5.3259 C   0  0  0  0  0  0  0  0  0  0  0  0
    4.1787    6.4442    5.0320 C   0  0  0  0  0  0  0  0  0  0  0  0
    4.6250    6.1180    3.7637 C   0  0  0  0  0  0  0  0  0  0  0  0
    3.7221    5.6906    2.8026 C   0  0  0  0  0  0  0  0  0  0  0  0
    2.3723    5.5809    3.1034 C   0  0  0  0  0  0  0  0  0  0  0  0
    1.9176    5.9029    4.3688 C   0  0  0  0  0  0  0  0  0  0  0  0
    1.1673    8.1739    6.9757 C   0  0  0  0  0  0  0  0  0  0  0  0
    0.9454    8.9474    5.8441 C   0  0  0  0  0  0  0  0  0  0  0  0
    0.1412   10.0703    5.9417 C   0  0  0  0  0  0  0  0  0  0  0  0
   -0.4227   10.4216    7.1581 C   0  0  0  0  0  0  0  0  0  0  0  0
   -0.1885    9.6531    8.2888 C   0  0  0  0  0  0  0  0  0  0  0  0
    0.6099    8.5290    8.2010 C   0  0  0  0  0  0  0  0  0  0  0  0
    3.8885    7.5160   12.7243 C   0  0  0  0  0  3  0  0  0  0  0  0
    4.1527    7.7033   14.0775 C   0  0  0  0  0  0  0  0  0  0  0  0
    5.4335    7.6122   14.6002 C   0  0  0  0  0  0  0  0  0  0  0  0
    6.5515    7.3183   13.7973 C   0  0  0  0  0  0  0  0  0  0  0  0
    6.1224    7.1607   12.5294 C   0  0  0  0  0  3  0  0  0  0  0  0
    4.9959    7.2182   11.9157 C   0  0  0  0  0  0  0  0  0  0  0  0
    1.7480    5.8715   12.6479 C   0  0  0  0  0  3  0  0  0  0  0  0
    1.3152    5.0398   13.6094 C   0  0  0  0  0  3  0  0  0  0  0  0
    1.3424    3.7693   13.2552 C   0  0  0  0  0  3  0  0  0  0  0  0
    1.7187    3.2553   12.1332 C   0  0  0  0  0  3  0  0  0  0  0  0
    2.1698    3.9934   11.1335 C   0  0  0  0  0  3  0  0  0  0  0  0
    2.2070    5.3315   11.3384 C   0  0  0  0  0  0  0  0  0  0  0  0
    1.2050    8.7210   12.9331 C   0  0  0  0  0  3  0  0  0  0  0  0
    0.5069    8.2007   11.7117 C   0  0  0  0  0  0  0  0  0  0  0  0
   -0.7305    8.6155   11.4223 C   0  0  0  0  0  3  0  0  0  0  0  0
   -1.2510    9.4757   12.2905 C   0  0  0  0  0  3  0  0  0  0  0  0
   -0.6560    9.9251   13.3439 C   0  0  0  0  0  3  0  0  0  0  0  0
    0.5694    9.5860   13.7222 C   0  0  0  0  0  3  0  0  0  0  0  0
    3.3164    4.3036    7.7646 H   0  0  0  0  0  0  0  0  0  0  0  0
    2.3398    2.2554    8.7770 H   0  0  0  0  0  0  0  0  0  0  0  0
   -0.0808    2.1600    9.2533 H   0  0  0  0  0  0  0  0  0  0  0  0
   -1.5272    4.0774    8.7158 H   0  0  0  0  0  0  0  0  0  0  0  0
   -0.5650    6.1129    7.7062 H   0  0  0  0  0  0  0  0  0  0  0  0
    4.8557    6.7783    5.8108 H   0  0  0  0  0  0  0  0  0  0  0  0
    5.6748    6.1955    3.5232 H   0  0  0  0  0  0  0  0  0  0  0  0
    4.0712    5.4375    1.8125 H   0  0  0  0  0  0  0  0  0  0  0  0
    1.6770    5.2422    2.3496 H   0  0  0  0  0  0  0  0  0  0  0  0
    0.8697    5.8183    4.6241 H   0  0  0  0  0  0  0  0  0  0  0  0
    1.3971    8.6699    4.9017 H   0  0  0  0  0  0  0  0  0  0  0  0
   -0.0403   10.6770    5.0667 H   0  0  0  0  0  0  0  0  0  0  0  0
   -1.0440   11.3022    7.2265 H   0  0  0  0  0  0  0  0  0  0  0  0
   -0.6219    9.9246    9.2403 H   0  0  0  0  0  0  0  0  0  0  0  0
    0.8042    7.9139    9.0740 H   0  0  0  0  0  0  0  0  0  0  0  0
    3.3101    7.9297   14.7174 H   0  0  0  0  0  0  0  0  0  0  0  0
    5.6011    7.7684   15.6556 H   0  0  0  0  0  0  0  0  0  0  0  0
    7.5529    7.2466   14.1808 H   0  0  0  0  0  0  0  0  0  0  0  0
  1  2  1  0  0  0  0
  1  8  1  0  0  0  0
  1 32  1  0  0  0  0
  4  1  1  0  0  0  0
  5  9  1  0  0  0  0
  5  7  1  0  0  0  0
  7  1  1  0  0  0  0
  8 38  1  0  0  0  0
  8  6  1  0  0  0  0
  9 14  2  0  0  0  0
  9 10  1  0  0  0  0
 10 11  2  0  0  0  0
 11 46  1  0  0  0  0
 11 12  1  0  0  0  0
 12 47  1  0  0  0  0
 13 48  1  0  0  0  0
 13 12  2  0  0  0  0
 14 13  1  0  0  0  0
 15  5  1  0  0  0  0
 16 15  1  0  0  0  0
 16 50  1  0  0  0  0
 17 16  2  0  0  0  0
 18 19  2  0  0  0  0
 18 17  1  0  0  0  0
 19 20  1  0  0  0  0
 20 54  1  0  0  0  0
 20 15  2  0  0  0  0
 21  5  1  0  0  0  0
 21 26  1  0  0  0  0
 22 23  1  0  0  0  0
 22 21  2  0  0  0  0
 23 24  2  0  0  0  0
 24 57  1  0  0  0  0
 24 25  1  0  0  0  0
 25 58  1  0  0  0  0
 26 25  2  0  0  0  0
 26 59  1  0  0  0  0
 27 28  1  0  0  0  0
 28 29  2  0  0  0  0
 28 60  1  0  0  0  0
 29 61  1  0  0  0  0
 30 62  1  0  0  0  0
 30 29  1  0  0  0  0
 31 30  2  0  0  0  0
 32 31  1  0  0  0  0
 32 27  2  0  0  0  0
 33 34  1  0  0  0  0
 35 34  2  0  0  0  0
 36 35  1  0  0  0  0
 37 38  1  0  0  0  0
 37 36  2  0  0  0  0
 38 33  2  0  0  0  0
 39 44  1  0  0  0  0
 40  6  1  0  0  0  0
 40 39  2  0  0  0  0
 41 40  1  0  0  0  0
 41 42  2  0  0  0  0
 42 43  1  0  0  0  0
 43 44  2  0  0  0  0
 45 10  1  0  0  0  0
 49 14  1  0  0  0  0
 51 17  1  0  0  0  0
 52 18  1  0  0  0  0
 53 19  1  0  0  0  0
 55 22  1  0  0  0  0
 56 23  1  0  0  0  0
M  END
$$$$
