CSD_code = JUKHOO | q = 0 | S = 0 | Stoichiometry = C12H24ClN2PZr | MND = 8
 OpenBabel04212202053D

 41 41  0  0  1  0  0  0  0  0999 V2000
    0.5063    5.3658   10.0528 Zr  0  0  0  0  0  0  0  0  0  0  0  0
    1.1714    3.5797    8.6648 Cl  0  0  0  0  0  0  0  0  0  0  0  0
    0.8848    7.9987   10.5723 P   0  0  0  0  0  0  0  0  0  0  0  0
    2.3341    6.9796   10.7776 C   0  0  0  0  0  0  0  0  0  0  0  0
    2.7598    6.3912    9.5784 C   0  0  1  0  0  3  0  0  0  0  0  0
    1.9148    6.7230    8.4772 C   0  0  2  0  0  0  0  0  0  0  0  0
    0.8424    7.5481    8.8462 C   0  0  2  0  0  3  0  0  0  0  0  0
    3.0323    6.8249   12.1038 C   0  0  0  0  0  0  0  0  0  0  0  0
    3.0056    5.7823   12.4374 H   0  0  0  0  0  0  0  0  0  0  0  0
    2.5384    7.4395   12.8564 H   0  0  0  0  0  0  0  0  0  0  0  0
    4.0736    7.1460   12.0377 H   0  0  0  0  0  0  0  0  0  0  0  0
    3.9785    5.5130    9.4524 C   0  0  0  0  0  0  0  0  0  0  0  0
    4.7013    5.9599    8.7666 H   0  0  0  0  0  0  0  0  0  0  0  0
    3.7064    4.5263    9.0656 H   0  0  0  0  0  0  0  0  0  0  0  0
    4.4620    5.3822   10.4188 H   0  0  0  0  0  0  0  0  0  0  0  0
    2.1353    6.2751    7.0567 C   0  0  0  0  0  0  0  0  0  0  0  0
    1.2184    5.8480    6.6391 H   0  0  0  0  0  0  0  0  0  0  0  0
    2.9183    5.5218    6.9996 H   0  0  0  0  0  0  0  0  0  0  0  0
    2.4267    7.1239    6.4325 H   0  0  0  0  0  0  0  0  0  0  0  0
   -0.1997    8.0323    7.8721 C   0  0  0  0  0  0  0  0  0  0  0  0
    0.2701    8.5139    7.0120 H   0  0  0  0  0  0  0  0  0  0  0  0
   -0.8592    8.7581    8.3476 H   0  0  0  0  0  0  0  0  0  0  0  0
   -0.8072    7.1952    7.5064 H   0  0  0  0  0  0  0  0  0  0  0  0
    0.7094    4.5875   11.8987 N   0  0  0  0  0  0  0  0  0  0  0  0
    0.7441    3.1377   11.9840 C   0  0  0  0  0  0  0  0  0  0  0  0
    1.0495    2.8185   12.9949 H   0  0  0  0  0  0  0  0  0  0  0  0
    1.4735    2.7403   11.2691 H   0  0  0  0  0  0  0  0  0  0  0  0
   -0.2458    2.6768   11.7803 H   0  0  0  0  0  0  0  0  0  0  0  0
   -0.1873    5.1272   12.9052 C   0  0  0  0  0  0  0  0  0  0  0  0
   -1.2172    4.7234   12.8148 H   0  0  0  0  0  0  0  0  0  0  0  0
   -0.2229    6.2222   12.8212 H   0  0  0  0  0  0  0  0  0  0  0  0
    0.1683    4.8720   13.9181 H   0  0  0  0  0  0  0  0  0  0  0  0
   -1.4667    5.3983    9.6573 N   0  0  0  0  0  0  0  0  0  0  0  0
   -2.3636    6.3577   10.2761 C   0  0  0  0  0  0  0  0  0  0  0  0
   -3.2849    6.4649    9.6790 H   0  0  0  0  0  0  0  0  0  0  0  0
   -1.8838    7.3411   10.3416 H   0  0  0  0  0  0  0  0  0  0  0  0
   -2.6723    6.0485   11.2944 H   0  0  0  0  0  0  0  0  0  0  0  0
   -2.1142    4.0979    9.5977 C   0  0  0  0  0  0  0  0  0  0  0  0
   -3.0503    4.1592    9.0168 H   0  0  0  0  0  0  0  0  0  0  0  0
   -2.3853    3.7177   10.6051 H   0  0  0  0  0  0  0  0  0  0  0  0
   -1.4601    3.3683    9.1066 H   0  0  0  0  0  0  0  0  0  0  0  0
  1 24  1  0  0  0  0
  2  1  1  0  0  0  0
  3  4  2  0  0  0  0
  4  8  1  0  0  0  0
  5 12  1  6  0  0  0
  5  4  1  0  0  0  0
  6 16  1  6  0  0  0
  6  7  1  0  0  0  0
  6  5  1  0  0  0  0
  6  1  1  0  0  0  0
  7 20  1  6  0  0  0
  7  3  1  0  0  0  0
  8  9  1  0  0  0  0
  8 10  1  0  0  0  0
 11  8  1  0  0  0  0
 12 15  1  0  0  0  0
 13 12  1  0  0  0  0
 14 12  1  0  0  0  0
 17 16  1  0  0  0  0
 18 16  1  0  0  0  0
 19 16  1  0  0  0  0
 20 22  1  0  0  0  0
 21 20  1  0  0  0  0
 23 20  1  0  0  0  0
 24 25  1  0  0  0  0
 24 29  1  0  0  0  0
 25 26  1  0  0  0  0
 27 25  1  0  0  0  0
 28 25  1  0  0  0  0
 29 32  1  0  0  0  0
 30 29  1  0  0  0  0
 31 29  1  0  0  0  0
 33  1  1  0  0  0  0
 33 34  1  0  0  0  0
 34 36  1  0  0  0  0
 34 37  1  0  0  0  0
 35 34  1  0  0  0  0
 38 33  1  0  0  0  0
 38 40  1  0  0  0  0
 39 38  1  0  0  0  0
 41 38  1  0  0  0  0
M  END
$$$$
