CSD_code = JULFOL | q = 0 | S = 0 | Stoichiometry = C24H24Cl3RhS3 | MND = 6
 OpenBabel04212202053D

 55 60  0  0  0  0  0  0  0  0999 V2000
    4.4047    4.7330    4.2090 Rh  0  0  0  0  0  0  0  0  0  0  0  0
    2.2269    5.3572    4.7512 Cl  0  0  0  0  0  0  0  0  0  0  0  0
    3.7176    4.0172    2.1369 Cl  0  0  0  0  0  0  0  0  0  0  0  0
    6.6113    4.1648    3.7482 Cl  0  0  0  0  0  0  0  0  0  0  0  0
    4.9966    5.6777    6.3791 S   0  0  1  0  0  3  0  0  0  0  0  0
    4.8754    6.7089    3.0253 S   0  0  2  0  0  3  0  0  0  0  0  0
    4.1482    2.5591    5.1511 S   0  0  2  0  0  3  0  0  0  0  0  0
    4.3069    4.5343    7.5374 C   0  0  0  0  0  0  0  0  0  0  0  0
    5.2461    3.6213    8.0120 C   0  0  0  0  0  0  0  0  0  0  0  0
    4.8462    2.6635    8.9240 C   0  0  0  0  0  0  0  0  0  0  0  0
    3.5268    2.6327    9.3529 C   0  0  0  0  0  0  0  0  0  0  0  0
    2.6071    3.5506    8.8728 C   0  0  0  0  0  0  0  0  0  0  0  0
    2.9907    4.5187    7.9576 C   0  0  0  0  0  0  0  0  0  0  0  0
    6.6059    3.7731    7.4030 C   0  0  0  0  0  0  0  0  0  0  0  0
    6.6923    5.1870    6.8426 C   0  0  0  0  0  0  0  0  0  0  0  0
    5.8390    7.6787    4.1445 C   0  0  0  0  0  0  0  0  0  0  0  0
    5.0756    8.6120    4.8431 C   0  0  0  0  0  0  0  0  0  0  0  0
    5.7029    9.4425    5.7522 C   0  0  0  0  0  0  0  0  0  0  0  0
    7.0733    9.3366    5.9450 C   0  0  0  0  0  0  0  0  0  0  0  0
    7.8178    8.4053    5.2392 C   0  0  0  0  0  0  0  0  0  0  0  0
    7.2045    7.5633    4.3244 C   0  0  0  0  0  0  0  0  0  0  0  0
    3.6128    8.5503    4.5312 C   0  0  0  0  0  0  0  0  0  0  0  0
    3.4821    7.8762    3.1718 C   0  0  0  0  0  0  0  0  0  0  0  0
    4.3061    1.4427    3.7872 C   0  0  0  0  0  0  0  0  0  0  0  0
    3.0720    1.0315    3.2919 C   0  0  0  0  0  0  0  0  0  0  0  0
    3.0410    0.1434    2.2342 C   0  0  0  0  0  0  0  0  0  0  0  0
    4.2319   -0.3199    1.6941 C   0  0  0  0  0  0  0  0  0  0  0  0
    5.4500    0.1028    2.1999 C   0  0  0  0  0  0  0  0  0  0  0  0
    5.5003    0.9924    3.2615 C   0  0  0  0  0  0  0  0  0  0  0  0
    1.9021    1.6848    3.9589 C   0  0  0  0  0  0  0  0  0  0  0  0
    2.3801    2.1440    5.3296 C   0  0  0  0  0  0  0  0  0  0  0  0
    5.5599    1.9439    9.2963 H   0  0  0  0  0  0  0  0  0  0  0  0
    3.2164    1.8856   10.0677 H   0  0  0  0  0  0  0  0  0  0  0  0
    1.5836    3.5178    9.2137 H   0  0  0  0  0  0  0  0  0  0  0  0
    2.2837    5.2307    7.5629 H   0  0  0  0  0  0  0  0  0  0  0  0
    7.4030    3.5867    8.1230 H   0  0  0  0  0  0  0  0  0  0  0  0
    6.7080    3.0552    6.5821 H   0  0  0  0  0  0  0  0  0  0  0  0
    7.3173    5.2479    5.9547 H   0  0  0  0  0  0  0  0  0  0  0  0
    7.0215    5.9103    7.5897 H   0  0  0  0  0  0  0  0  0  0  0  0
    5.1269   10.1681    6.3064 H   0  0  0  0  0  0  0  0  0  0  0  0
    7.5629    9.9894    6.6518 H   0  0  0  0  0  0  0  0  0  0  0  0
    8.8833    8.3354    5.3960 H   0  0  0  0  0  0  0  0  0  0  0  0
    7.7648    6.8265    3.7707 H   0  0  0  0  0  0  0  0  0  0  0  0
    3.1150    7.9345    5.2888 H   0  0  0  0  0  0  0  0  0  0  0  0
    3.1468    9.5358    4.5296 H   0  0  0  0  0  0  0  0  0  0  0  0
    3.6040    8.5840    2.3508 H   0  0  0  0  0  0  0  0  0  0  0  0
    2.5527    7.3249    3.0519 H   0  0  0  0  0  0  0  0  0  0  0  0
    2.0932   -0.1757    1.8274 H   0  0  0  0  0  0  0  0  0  0  0  0
    4.2068   -1.0107    0.8646 H   0  0  0  0  0  0  0  0  0  0  0  0
    6.3699   -0.2566    1.7647 H   0  0  0  0  0  0  0  0  0  0  0  0
    6.4415    1.3475    3.6497 H   0  0  0  0  0  0  0  0  0  0  0  0
    1.6152    2.5582    3.3632 H   0  0  0  0  0  0  0  0  0  0  0  0
    1.0413    1.0210    4.0414 H   0  0  0  0  0  0  0  0  0  0  0  0
    2.3406    1.3428    6.0701 H   0  0  0  0  0  0  0  0  0  0  0  0
    1.8514    3.0186    5.7014 H   0  0  0  0  0  0  0  0  0  0  0  0
  1  2  1  0  0  0  0
  3  1  1  0  0  0  0
  4  1  1  0  0  0  0
  5  1  1  6  0  0  0
  5 15  1  0  0  0  0
  5  8  1  0  0  0  0
  6 23  1  0  0  0  0
  6 16  1  0  0  0  0
  6  1  1  1  0  0  0
  7  1  1  6  0  0  0
  7 31  1  0  0  0  0
  8 13  2  0  0  0  0
  8  9  1  0  0  0  0
  9 10  2  0  0  0  0
 10 32  1  0  0  0  0
 10 11  1  0  0  0  0
 11 33  1  0  0  0  0
 12 34  1  0  0  0  0
 12 11  2  0  0  0  0
 13 12  1  0  0  0  0
 14  9  1  0  0  0  0
 14 36  1  0  0  0  0
 15 14  1  0  0  0  0
 15 39  1  0  0  0  0
 16 21  2  0  0  0  0
 16 17  1  0  0  0  0
 17 18  2  0  0  0  0
 18 19  1  0  0  0  0
 18 40  1  0  0  0  0
 19 41  1  0  0  0  0
 20 42  1  0  0  0  0
 20 19  2  0  0  0  0
 21 20  1  0  0  0  0
 22 17  1  0  0  0  0
 22 44  1  0  0  0  0
 23 22  1  0  0  0  0
 24  7  1  0  0  0  0
 25 24  1  0  0  0  0
 25 30  1  0  0  0  0
 26 25  2  0  0  0  0
 27 28  2  0  0  0  0
 27 26  1  0  0  0  0
 28 29  1  0  0  0  0
 29 51  1  0  0  0  0
 29 24  2  0  0  0  0
 30 53  1  0  0  0  0
 30 31  1  0  0  0  0
 31 55  1  0  0  0  0
 31 54  1  0  0  0  0
 35 13  1  0  0  0  0
 37 14  1  0  0  0  0
 38 15  1  0  0  0  0
 43 21  1  0  0  0  0
 45 22  1  0  0  0  0
 46 23  1  0  0  0  0
 47 23  1  0  0  0  0
 48 26  1  0  0  0  0
 49 27  1  0  0  0  0
 50 28  1  0  0  0  0
 52 30  1  0  0  0  0
M  END
$$$$
