CSD_code = JULGII | q = 0 | S = 0 | Stoichiometry = C18H32Cl2N4Pt | MND = 4
 OpenBabel04212202053D

 57 58  0  0  1  0  0  0  0  0999 V2000
    3.1105  -12.9720  -12.4456 Pt  0  0  0  0  0  0  0  0  0  0  0  0
    1.8262  -14.8907  -12.1944 Cl  0  0  0  0  0  0  0  0  0  0  0  0
    2.5263  -12.7604  -14.6836 Cl  0  0  0  0  0  0  0  0  0  0  0  0
    4.4262  -14.4183  -10.1970 N   0  0  0  0  0  0  0  0  0  0  0  0
    3.0447  -12.9686   -9.4101 N   0  0  0  0  0  0  0  0  0  0  0  0
    5.3112  -11.0285  -13.2190 N   0  0  0  0  0  0  0  0  0  0  0  0
    3.4060  -10.0562  -12.9861 N   0  0  0  0  0  0  0  0  0  0  0  0
    4.0420  -11.2309  -12.8186 C   0  0  1  0  0  3  0  0  0  0  0  0
    4.2719   -9.1239  -13.4890 C   0  0  0  0  0  0  0  0  0  0  0  0
    3.9835   -8.1156  -13.7000 H   0  0  0  0  0  0  0  0  0  0  0  0
    5.4684   -9.7351  -13.6403 C   0  0  0  0  0  0  0  0  0  0  0  0
    6.3952   -9.3502  -14.0103 H   0  0  0  0  0  0  0  0  0  0  0  0
    1.9855   -9.8478  -12.7811 C   0  0  0  0  0  0  0  0  0  0  0  0
    1.5878  -10.8187  -12.4458 H   0  0  0  0  0  0  0  0  0  0  0  0
    1.3138   -9.4967  -14.1049 C   0  0  0  0  0  0  0  0  0  0  0  0
    0.2405   -9.4122  -13.9606 H   0  0  0  0  0  0  0  0  0  0  0  0
    1.5075  -10.2915  -14.8219 H   0  0  0  0  0  0  0  0  0  0  0  0
    1.6885   -8.5564  -14.5025 H   0  0  0  0  0  0  0  0  0  0  0  0
    1.7521   -8.7827  -11.7123 C   0  0  0  0  0  0  0  0  0  0  0  0
    2.3080   -9.0172  -10.8069 H   0  0  0  0  0  0  0  0  0  0  0  0
    0.6946   -8.7320  -11.4691 H   0  0  0  0  0  0  0  0  0  0  0  0
    2.0678   -7.8046  -12.0688 H   0  0  0  0  0  0  0  0  0  0  0  0
    6.2976  -12.0819  -13.3380 C   0  0  0  0  0  0  0  0  0  0  0  0
    5.9065  -12.9141  -12.7388 H   0  0  0  0  0  0  0  0  0  0  0  0
    6.3847  -12.5288  -14.7956 C   0  0  0  0  0  0  0  0  0  0  0  0
    6.7504  -11.7213  -15.4259 H   0  0  0  0  0  0  0  0  0  0  0  0
    5.3941  -12.8199  -15.1400 H   0  0  0  0  0  0  0  0  0  0  0  0
    7.0537  -13.3795  -14.8890 H   0  0  0  0  0  0  0  0  0  0  0  0
    7.6479  -11.6416  -12.7817 C   0  0  0  0  0  0  0  0  0  0  0  0
    7.5348  -11.2441  -11.7750 H   0  0  0  0  0  0  0  0  0  0  0  0
    8.1010  -10.8788  -13.4099 H   0  0  0  0  0  0  0  0  0  0  0  0
    8.3224  -12.4929  -12.7462 H   0  0  0  0  0  0  0  0  0  0  0  0
    3.6159  -13.4025  -10.5492 C   0  0  0  0  0  0  0  0  0  0  0  0
    4.3627  -14.6192   -8.8452 C   0  0  0  0  0  0  0  0  0  0  0  0
    4.9275  -15.3759   -8.3423 H   0  0  0  0  0  0  0  0  0  0  0  0
    3.4911  -13.7120   -8.3501 C   0  0  0  0  0  0  0  0  0  0  0  0
    3.1646  -13.5489   -7.3447 H   0  0  0  0  0  0  0  0  0  0  0  0
    5.1607  -15.2524  -11.1288 C   0  0  0  0  0  0  0  0  0  0  0  0
    4.9305  -14.8542  -12.1296 H   0  0  0  0  0  0  0  0  0  0  0  0
    4.6450  -16.6865  -11.0637 C   0  0  0  0  0  0  0  0  0  0  0  0
    4.8131  -17.1240  -10.0823 H   0  0  0  0  0  0  0  0  0  0  0  0
    5.1525  -17.2930  -11.8084 H   0  0  0  0  0  0  0  0  0  0  0  0
    3.5788  -16.6894  -11.2792 H   0  0  0  0  0  0  0  0  0  0  0  0
    6.6601  -15.1629  -10.8558 C   0  0  0  0  0  0  0  0  0  0  0  0
    6.9850  -14.1249  -10.8264 H   0  0  0  0  0  0  0  0  0  0  0  0
    7.2076  -15.6775  -11.6403 H   0  0  0  0  0  0  0  0  0  0  0  0
    6.9065  -15.6298   -9.9046 H   0  0  0  0  0  0  0  0  0  0  0  0
    1.9910  -11.9766   -9.3630 C   0  0  0  0  0  0  0  0  0  0  0  0
    2.0347  -11.4616  -10.3311 H   0  0  0  0  0  0  0  0  0  0  0  0
    0.6409  -12.6806   -9.2451 C   0  0  0  0  0  0  0  0  0  0  0  0
    0.5687  -13.2226   -8.3048 H   0  0  0  0  0  0  0  0  0  0  0  0
    0.5329  -13.3879  -10.0652 H   0  0  0  0  0  0  0  0  0  0  0  0
   -0.1666  -11.9559   -9.2966 H   0  0  0  0  0  0  0  0  0  0  0  0
    2.2254  -10.9726   -8.2388 C   0  0  0  0  0  0  0  0  0  0  0  0
    1.5069  -10.1615   -8.3195 H   0  0  0  0  0  0  0  0  0  0  0  0
    3.2290  -10.5567   -8.3009 H   0  0  0  0  0  0  0  0  0  0  0  0
    2.0996  -11.4379   -7.2644 H   0  0  0  0  0  0  0  0  0  0  0  0
  1  2  1  0  0  0  0
  1 33  2  0  0  0  0
  3  1  1  0  0  0  0
  4 34  1  0  0  0  0
  5 48  1  0  0  0  0
  5 36  1  0  0  0  0
  6  8  1  0  0  0  0
  7  8  1  0  0  0  0
  7 13  1  0  0  0  0
  8  1  1  6  0  0  0
  9  7  1  0  0  0  0
 10  9  1  0  0  0  0
 11  9  2  0  0  0  0
 11  6  1  0  0  0  0
 12 11  1  0  0  0  0
 13 14  1  0  0  0  0
 13 19  1  0  0  0  0
 15 16  1  0  0  0  0
 15 13  1  0  0  0  0
 17 15  1  0  0  0  0
 18 15  1  0  0  0  0
 19 21  1  0  0  0  0
 19 20  1  0  0  0  0
 22 19  1  0  0  0  0
 23  6  1  0  0  0  0
 23 29  1  0  0  0  0
 23 24  1  0  0  0  0
 25 23  1  0  0  0  0
 26 25  1  0  0  0  0
 27 25  1  0  0  0  0
 28 25  1  0  0  0  0
 29 32  1  0  0  0  0
 29 30  1  0  0  0  0
 31 29  1  0  0  0  0
 33  4  1  0  0  0  0
 33  5  1  0  0  0  0
 34 36  2  0  0  0  0
 34 35  1  0  0  0  0
 36 37  1  0  0  0  0
 38 40  1  0  0  0  0
 38 44  1  0  0  0  0
 38  4  1  0  0  0  0
 39 38  1  0  0  0  0
 40 41  1  0  0  0  0
 42 40  1  0  0  0  0
 43 40  1  0  0  0  0
 44 45  1  0  0  0  0
 44 47  1  0  0  0  0
 46 44  1  0  0  0  0
 48 50  1  0  0  0  0
 48 54  1  0  0  0  0
 49 48  1  0  0  0  0
 50 51  1  0  0  0  0
 52 50  1  0  0  0  0
 53 50  1  0  0  0  0
 54 57  1  0  0  0  0
 55 54  1  0  0  0  0
 56 54  1  0  0  0  0
M  END
$$$$
