CSD_code = JULNUZ | q = 0 | S = 0 | Stoichiometry = C14H32ClNbO2P4 | MND = 7
 OpenBabel04212202053D

 54 50  0  0  0  0  0  0  0  0999 V2000
   11.5257    4.1919   25.2742 Nb  0  0  0  0  0  0  0  0  0  0  0  0
   13.1250    2.3605   25.3701 Cl  0  0  0  0  0 15  0  0  0  0  0  0
   10.3246    2.6851   23.6399 P   0  0  0  0  0  0  0  0  0  0  0  0
   10.2885    2.5801   26.7309 P   0  0  0  0  0  0  0  0  0  0  0  0
   13.0134    5.3335   26.9557 P   0  0  0  0  0  0  0  0  0  0  0  0
   13.2603    5.3355   23.8593 P   0  0  0  0  0  0  0  0  0  0  0  0
    9.5287    6.2403   26.6522 O   0  0  0  0  0  0  0  0  0  0  0  0
    9.7271    6.2839   23.6987 O   0  0  0  0  0  0  0  0  0  0  0  0
   10.2307    5.5411   25.9676 C   0  0  0  0  0  0  0  0  0  0  0  0
   10.3402    5.5712   24.4504 C   0  0  0  0  0  3  0  0  0  0  0  0
   11.3617    1.5901   22.6001 C   0  0  0  0  0  0  0  0  0  0  0  0
    9.1747    3.3545   22.3854 C   0  0  0  0  0  0  0  0  0  0  0  0
    9.2206    1.4468   24.4777 C   0  0  0  0  0  0  0  0  0  0  0  0
    9.8517    1.0410   25.8022 C   0  0  0  0  0  0  0  0  0  0  0  0
    8.6780    3.0610   27.4523 C   0  0  0  0  0  0  0  0  0  0  0  0
   11.1372    1.8713   28.1875 C   0  0  0  0  0  0  0  0  0  0  0  0
   14.2949    4.3460   27.8178 C   0  0  0  0  0  0  0  0  0  0  0  0
   12.3167    6.2767   28.3602 C   0  0  0  0  0  0  0  0  0  0  0  0
   14.0469    6.6381   26.1441 C   0  0  0  0  0  0  0  0  0  0  0  0
   14.6414    6.0515   24.8715 C   0  0  0  0  0  0  0  0  0  0  0  0
   12.7938    6.7739   22.8302 C   0  0  0  0  0  0  0  0  0  0  0  0
   14.2150    4.3380   22.6573 C   0  0  0  0  0  0  0  0  0  0  0  0
   10.7440    0.8868   22.0400 H   0  0  0  0  0  0  0  0  0  0  0  0
   11.9323    2.2139   21.9120 H   0  0  0  0  0  0  0  0  0  0  0  0
   12.0601    1.0568   23.2434 H   0  0  0  0  0  0  0  0  0  0  0  0
    8.4433    3.9901   22.8822 H   0  0  0  0  0  0  0  0  0  0  0  0
    9.7424    3.9717   21.6893 H   0  0  0  0  0  0  0  0  0  0  0  0
    8.6733    2.5476   21.8493 H   0  0  0  0  0  0  0  0  0  0  0  0
    8.2610    1.9449   24.6558 H   0  0  0  0  0  0  0  0  0  0  0  0
    9.0541    0.5850   23.8222 H   0  0  0  0  0  0  0  0  0  0  0  0
   10.7924    0.5084   25.6270 H   0  0  0  0  0  0  0  0  0  0  0  0
    9.1869    0.4071   26.3999 H   0  0  0  0  0  0  0  0  0  0  0  0
    8.8500    3.9025   28.1231 H   0  0  0  0  0  0  0  0  0  0  0  0
    8.0164    3.4009   26.6564 H   0  0  0  0  0  0  0  0  0  0  0  0
    8.2242    2.2313   27.9960 H   0  0  0  0  0  0  0  0  0  0  0  0
   10.5499    1.0607   28.6218 H   0  0  0  0  0  0  0  0  0  0  0  0
   12.1089    1.4994   27.8632 H   0  0  0  0  0  0  0  0  0  0  0  0
   11.2802    2.6626   28.9247 H   0  0  0  0  0  0  0  0  0  0  0  0
   13.7941    3.6737   28.5143 H   0  0  0  0  0  0  0  0  0  0  0  0
   14.8273    3.7392   27.0871 H   0  0  0  0  0  0  0  0  0  0  0  0
   14.9879    4.9930   28.3572 H   0  0  0  0  0  0  0  0  0  0  0  0
   13.1025    6.8069   28.8997 H   0  0  0  0  0  0  0  0  0  0  0  0
   11.5799    6.9805   27.9767 H   0  0  0  0  0  0  0  0  0  0  0  0
   11.8096    5.5818   29.0300 H   0  0  0  0  0  0  0  0  0  0  0  0
   13.3729    7.4676   25.9014 H   0  0  0  0  0  0  0  0  0  0  0  0
   14.8190    6.9967   26.8342 H   0  0  0  0  0  0  0  0  0  0  0  0
   15.3191    5.2277   25.1185 H   0  0  0  0  0  0  0  0  0  0  0  0
   15.1894    6.8002   24.2888 H   0  0  0  0  0  0  0  0  0  0  0  0
   13.6564    7.1588   22.2847 H   0  0  0  0  0  0  0  0  0  0  0  0
   12.0166    6.4593   22.1345 H   0  0  0  0  0  0  0  0  0  0  0  0
   12.3738    7.5482   23.4710 H   0  0  0  0  0  0  0  0  0  0  0  0
   14.5137    3.4115   23.1473 H   0  0  0  0  0  0  0  0  0  0  0  0
   13.5701    4.1028   21.8102 H   0  0  0  0  0  0  0  0  0  0  0  0
   15.0941    4.8844   22.3132 H   0  0  0  0  0  0  0  0  0  0  0  0
  1  9  1  0  0  0  0
  3 13  1  0  0  0  0
  4 15  1  0  0  0  0
  4 16  1  0  0  0  0
  5 17  1  0  0  0  0
  5 18  1  0  0  0  0
  6 20  1  0  0  0  0
  8 10  2  0  0  0  0
  9  7  2  0  0  0  0
 10  9  1  0  0  0  0
 11 25  1  0  0  0  0
 11  3  1  0  0  0  0
 12 26  1  0  0  0  0
 12  3  1  0  0  0  0
 13 29  1  0  0  0  0
 13 14  1  0  0  0  0
 14 32  1  0  0  0  0
 14  4  1  0  0  0  0
 15 35  1  0  0  0  0
 15 33  1  0  0  0  0
 16 36  1  0  0  0  0
 16 38  1  0  0  0  0
 17 41  1  0  0  0  0
 17 39  1  0  0  0  0
 18 42  1  0  0  0  0
 18 44  1  0  0  0  0
 19 46  1  0  0  0  0
 19  5  1  0  0  0  0
 20 47  1  0  0  0  0
 20 19  1  0  0  0  0
 21 51  1  0  0  0  0
 21  6  1  0  0  0  0
 22 52  1  0  0  0  0
 22  6  1  0  0  0  0
 23 11  1  0  0  0  0
 24 11  1  0  0  0  0
 27 12  1  0  0  0  0
 28 12  1  0  0  0  0
 30 13  1  0  0  0  0
 31 14  1  0  0  0  0
 34 15  1  0  0  0  0
 37 16  1  0  0  0  0
 40 17  1  0  0  0  0
 43 18  1  0  0  0  0
 45 19  1  0  0  0  0
 48 20  1  0  0  0  0
 49 21  1  0  0  0  0
 50 21  1  0  0  0  0
 53 22  1  0  0  0  0
 54 22  1  0  0  0  0
M  END
$$$$
