CSD_code = JUNCEC | q = 0 | S = 0 | Stoichiometry = C16H11ClN4OPd | MND = 4
 OpenBabel04212202053D

 34 38  0  0  1  0  0  0  0  0999 V2000
   -0.6741    1.9918    7.3384 Pd  0  0  1  0  0  0  0  0  0  0  0  0
    0.1931    0.5948    5.7397 Cl  0  0  0  0  0  0  0  0  0  0  0  0
   -0.7098    5.3936    9.5417 O   0  0  0  0  0  0  0  0  0  0  0  0
   -1.7792    0.5643    8.2332 N   0  0  0  0  0  0  0  0  0  0  0  0
   -1.2165    2.7845   10.1180 N   0  0  0  0  0  0  0  0  0  0  0  0
   -0.9796    3.1922    8.8968 N   0  0  0  0  0  0  0  0  0  0  0  0
    0.1880    3.6366    6.5856 N   0  0  0  0  0  0  0  0  0  0  0  0
   -2.3646   -0.3925    7.4695 C   0  0  0  0  0  0  0  0  0  0  0  0
   -2.7022   -0.0999    6.1318 C   0  0  0  0  0  0  0  0  0  0  0  0
   -3.2561   -1.0690    5.3392 C   0  0  0  0  0  0  0  0  0  0  0  0
   -3.5030   -2.3526    5.8489 C   0  0  0  0  0  0  0  0  0  0  0  0
   -3.2465   -2.6404    7.1626 C   0  0  0  0  0  3  0  0  0  0  0  0
   -2.6963   -1.6624    8.0113 C   0  0  0  0  0  0  0  0  0  0  0  0
   -2.4758   -1.8587    9.3936 C   0  0  0  0  0  0  0  0  0  0  0  0
   -2.0595   -0.8128   10.1625 C   0  0  0  0  0  0  0  0  0  0  0  0
   -1.7168    0.4235    9.5557 C   0  0  0  0  0  0  0  0  0  0  0  0
   -1.4438    1.5600   10.4242 C   0  0  0  0  0  0  0  0  0  0  0  0
   -0.6226    4.5010    8.7227 C   0  0  0  0  0  0  0  0  0  0  0  0
   -0.0264    4.7182    7.3540 C   0  0  1  0  0  3  0  0  0  0  0  0
    0.3515    5.9907    6.9491 C   0  0  0  0  0  0  0  0  0  0  0  0
    0.9620    6.1511    5.7156 C   0  0  0  0  0  0  0  0  0  0  0  0
    1.1802    5.0276    4.9332 C   0  0  0  0  0  0  0  0  0  0  0  0
    0.7773    3.7860    5.4035 C   0  0  0  0  0  0  0  0  0  0  0  0
   -2.5308    0.9145    5.7628 H   0  0  0  0  0  0  0  0  0  0  0  0
   -3.5118   -0.8478    4.3146 H   0  0  0  0  0  0  0  0  0  0  0  0
   -3.9229   -3.1073    5.2014 H   0  0  0  0  0  0  0  0  0  0  0  0
   -3.4746   -3.6131    7.5725 H   0  0  0  0  0  0  0  0  0  0  0  0
   -2.6803   -2.8253    9.8301 H   0  0  0  0  0  0  0  0  0  0  0  0
   -1.9549   -0.9100   11.2318 H   0  0  0  0  0  0  0  0  0  0  0  0
   -1.5309    1.3734   11.4859 H   0  0  0  0  0  0  0  0  0  0  0  0
    0.1580    6.8183    7.6137 H   0  0  0  0  0  0  0  0  0  0  0  0
    1.2636    7.1294    5.3743 H   0  0  0  0  0  0  0  0  0  0  0  0
    1.6570    5.1032    3.9692 H   0  0  0  0  0  0  0  0  0  0  0  0
    0.9332    2.8791    4.8283 H   0  0  0  0  0  0  0  0  0  0  0  0
  1  2  1  1  0  0  0
  1  4  1  0  0  0  0
  1  6  1  0  0  0  0
  4 16  1  0  0  0  0
  5 17  2  0  0  0  0
  6  5  1  0  0  0  0
  7  1  1  0  0  0  0
  7 19  1  0  0  0  0
  8 13  1  0  0  0  0
  8  4  1  0  0  0  0
  9  8  2  0  0  0  0
 10 11  2  0  0  0  0
 10  9  1  0  0  0  0
 11 12  1  0  0  0  0
 12 27  1  0  0  0  0
 12 13  1  0  0  0  0
 13 14  2  0  0  0  0
 14 28  1  0  0  0  0
 14 15  1  0  0  0  0
 15 29  1  0  0  0  0
 16 15  2  0  0  0  0
 16 17  1  0  0  0  0
 17 30  1  0  0  0  0
 18  6  1  0  0  0  0
 18  3  2  0  0  0  0
 19 20  1  1  0  0  0
 19 18  1  0  0  0  0
 20 31  1  0  0  0  0
 21 20  2  0  0  0  0
 22 23  2  0  0  0  0
 22 21  1  0  0  0  0
 23  7  1  0  0  0  0
 24  9  1  0  0  0  0
 25 10  1  0  0  0  0
 26 11  1  0  0  0  0
 32 21  1  0  0  0  0
 33 22  1  0  0  0  0
 34 23  1  0  0  0  0
M  END
$$$$
