CSD_code = JUNXAT | q = 0 | S = 0 | Stoichiometry = C22H25ClNORh | MND = 8
 OpenBabel04212202053D

 51 54  0  0  1  0  0  0  0  0999 V2000
   11.5208   12.2587    5.4869 Rh  0  0  1  0  0  0  0  0  0  0  0  0
   10.9014   13.3909    7.3945 Cl  0  0  0  0  0 15  0  0  0  0  0  0
    9.7855   11.2512    5.6492 N   0  0  0  0  0  0  0  0  0  0  0  0
   12.0700   10.7711    6.6989 C   0  0  0  0  0  0  0  0  0  0  0  0
   13.3083   10.6262    7.2917 C   0  0  0  0  0  0  0  0  0  0  0  0
   14.0898   11.3601    7.1602 H   0  0  0  0  0  0  0  0  0  0  0  0
   13.5901    9.5319    8.1127 C   0  0  0  0  0  0  0  0  0  0  0  0
   12.6051    8.5736    8.3514 C   0  0  0  0  0  0  0  0  0  0  0  0
   12.8003    7.7202    8.9815 H   0  0  0  0  0  0  0  0  0  0  0  0
   11.3527    8.7274    7.7949 C   0  0  0  0  0  0  0  0  0  0  0  0
   10.5911    7.9917    8.0083 H   0  0  0  0  0  0  0  0  0  0  0  0
   11.0672    9.8175    6.9764 C   0  0  0  0  0  0  0  0  0  0  0  0
    9.7775   10.1309    6.4066 C   0  0  1  0  0  3  0  0  0  0  0  0
    8.5911    9.4239    6.6159 C   0  0  0  0  0  0  0  0  0  0  0  0
    8.6032    8.5330    7.2225 H   0  0  0  0  0  0  0  0  0  0  0  0
    7.4156    9.8780    6.0584 C   0  0  0  0  0  0  0  0  0  0  0  0
    6.4908    9.3423    6.2108 H   0  0  0  0  0  0  0  0  0  0  0  0
    7.4384   11.0504    5.3105 C   0  0  0  0  0  0  0  0  0  0  0  0
    6.5377   11.4522    4.8750 H   0  0  0  0  0  0  0  0  0  0  0  0
    8.6421   11.7034    5.1395 C   0  0  0  0  0  0  0  0  0  0  0  0
    8.6903   12.6310    4.5821 H   0  0  0  0  0  0  0  0  0  0  0  0
   14.8502    9.4925    8.6233 O   0  0  0  0  0  0  0  0  0  0  0  0
   15.1948    8.4473    9.4994 C   0  0  0  0  0  0  0  0  0  0  0  0
   16.2248    8.6391    9.7968 H   0  0  0  0  0  0  0  0  0  0  0  0
   15.1382    7.4717    9.0051 H   0  0  0  0  0  0  0  0  0  0  0  0
   14.5574    8.4420   10.3892 H   0  0  0  0  0  0  0  0  0  0  0  0
   12.1264   12.0658    3.3816 C   0  0  1  0  0  0  0  0  0  0  0  0
   11.3927   13.3179    3.4156 C   0  0  0  0  0  0  0  0  0  0  0  0
   12.0460   14.1713    4.3112 C   0  0  0  0  0  0  0  0  0  0  0  0
   13.2067   13.4722    4.8442 C   0  0  2  0  0  0  0  0  0  0  0  0
   13.3106   12.2222    4.1674 C   0  0  2  0  0  3  0  0  0  0  0  0
   11.8866   10.9615    2.3979 C   0  0  0  0  0  0  0  0  0  0  0  0
   12.3239   11.2274    1.4329 H   0  0  0  0  0  0  0  0  0  0  0  0
   10.8228   10.7848    2.2489 H   0  0  0  0  0  0  0  0  0  0  0  0
   12.3449   10.0351    2.7365 H   0  0  0  0  0  0  0  0  0  0  0  0
   10.2548   13.6658    2.5041 C   0  0  0  0  0  0  0  0  0  0  0  0
   10.6496   14.0721    1.5701 H   0  0  0  0  0  0  0  0  0  0  0  0
    9.6032   14.4164    2.9478 H   0  0  0  0  0  0  0  0  0  0  0  0
    9.6600   12.7877    2.2585 H   0  0  0  0  0  0  0  0  0  0  0  0
   11.7228   15.5958    4.6301 C   0  0  0  0  0  0  0  0  0  0  0  0
   12.5545   16.2364    4.3336 H   0  0  0  0  0  0  0  0  0  0  0  0
   11.5653   15.7191    5.7014 H   0  0  0  0  0  0  0  0  0  0  0  0
   10.8269   15.9234    4.1088 H   0  0  0  0  0  0  0  0  0  0  0  0
   14.2635   14.1524    5.6616 C   0  0  0  0  0  0  0  0  0  0  0  0
   14.7911   14.8853    5.0474 H   0  0  0  0  0  0  0  0  0  0  0  0
   14.9895   13.4393    6.0442 H   0  0  0  0  0  0  0  0  0  0  0  0
   13.8150   14.6727    6.5056 H   0  0  0  0  0  0  0  0  0  0  0  0
   14.4778   11.2838    4.1543 C   0  0  0  0  0  0  0  0  0  0  0  0
   14.9805   11.3558    3.1878 H   0  0  0  0  0  0  0  0  0  0  0  0
   14.1651   10.2513    4.2991 H   0  0  0  0  0  0  0  0  0  0  0  0
   15.1948   11.5349    4.9305 H   0  0  0  0  0  0  0  0  0  0  0  0
  1  3  1  0  0  0  0
  1  4  1  1  0  0  0
  3 13  1  0  0  0  0
  4 12  2  0  0  0  0
  4  5  1  0  0  0  0
  5  7  2  0  0  0  0
  6  5  1  0  0  0  0
  7  8  1  0  0  0  0
  7 22  1  0  0  0  0
  8  9  1  0  0  0  0
 10 11  1  0  0  0  0
 10  8  2  0  0  0  0
 12 10  1  0  0  0  0
 13 14  1  1  0  0  0
 13 12  1  0  0  0  0
 14 15  1  0  0  0  0
 16 17  1  0  0  0  0
 16 14  2  0  0  0  0
 18 16  1  0  0  0  0
 19 18  1  0  0  0  0
 20 18  2  0  0  0  0
 20  3  1  0  0  0  0
 21 20  1  0  0  0  0
 22 23  1  0  0  0  0
 23 24  1  0  0  0  0
 23 26  1  0  0  0  0
 25 23  1  0  0  0  0
 27 32  1  6  0  0  0
 27 28  1  0  0  0  0
 27 31  1  0  0  0  0
 27  1  1  0  0  0  0
 28 29  2  0  0  0  0
 29 40  1  0  0  0  0
 29 30  1  0  0  0  0
 30  1  1  0  0  0  0
 30 44  1  1  0  0  0
 31 48  1  6  0  0  0
 31 30  1  0  0  0  0
 32 35  1  0  0  0  0
 33 32  1  0  0  0  0
 34 32  1  0  0  0  0
 36 38  1  0  0  0  0
 36 28  1  0  0  0  0
 37 36  1  0  0  0  0
 39 36  1  0  0  0  0
 40 42  1  0  0  0  0
 41 40  1  0  0  0  0
 43 40  1  0  0  0  0
 44 46  1  0  0  0  0
 44 47  1  0  0  0  0
 45 44  1  0  0  0  0
 48 50  1  0  0  0  0
 48 51  1  0  0  0  0
 49 48  1  0  0  0  0
M  END
$$$$
