CSD_code = JUQZUQ | q = 0 | S = 0 | Stoichiometry = C7H19Cl4Si2Ta | MND = 5
 OpenBabel04212202053D

 33 32  0  0  0  0  0  0  0  0999 V2000
    5.0297    7.5603    4.5602 Ta  0  0  0  0  0  0  0  0  0  0  0  0
    4.5907    6.4506    6.4883 Cl  0  0  0  0  0  0  0  0  0  0  0  0
    5.9290    5.6489    3.6567 Cl  0  0  0  0  0  0  0  0  0  0  0  0
    7.0890    8.5154    4.6564 Cl  0  0  0  0  0  0  0  0  0  0  0  0
    4.0723    9.4621    5.3776 Cl  0  0  0  0  0  0  0  0  0  0  0  0
    4.6042    8.9515    1.5831 Si  0  0  0  0  0  0  0  0  0  0  0  0
    1.8989    7.9311    3.1571 Si  0  0  0  0  0  0  0  0  0  0  0  0
    3.7532    7.6981    2.7558 C   0  0  0  0  0  0  0  0  0  0  0  0
    3.7994    6.7520    2.2133 H   0  0  0  0  0  0  0  0  0  0  0  0
    6.2755    8.1922    1.0486 C   0  0  0  0  0  0  0  0  0  0  0  0
    6.9700    8.1380    1.8826 H   0  0  0  0  0  0  0  0  0  0  0  0
    6.7454    8.7769    0.2645 H   0  0  0  0  0  0  0  0  0  0  0  0
    6.1460    7.1836    0.6685 H   0  0  0  0  0  0  0  0  0  0  0  0
    3.5386    9.1908    0.0168 C   0  0  0  0  0  0  0  0  0  0  0  0
    2.5807    9.6430    0.2449 H   0  0  0  0  0  0  0  0  0  0  0  0
    3.3483    8.2469   -0.4815 H   0  0  0  0  0  0  0  0  0  0  0  0
    4.0461    9.8363   -0.6915 H   0  0  0  0  0  0  0  0  0  0  0  0
    4.9200   10.6537    2.3842 C   0  0  0  0  0  0  0  0  0  0  0  0
    4.0239   11.0551    2.8441 H   0  0  0  0  0  0  0  0  0  0  0  0
    5.2572   11.3713    1.6420 H   0  0  0  0  0  0  0  0  0  0  0  0
    5.6848   10.5907    3.1535 H   0  0  0  0  0  0  0  0  0  0  0  0
    1.3199    9.7413    3.3046 C   0  0  0  0  0  0  0  0  0  0  0  0
    1.8451   10.2662    4.0939 H   0  0  0  0  0  0  0  0  0  0  0  0
    0.2597    9.7790    3.5344 H   0  0  0  0  0  0  0  0  0  0  0  0
    1.4738   10.2855    2.3794 H   0  0  0  0  0  0  0  0  0  0  0  0
    0.8902    7.0872    1.7701 C   0  0  0  0  0  0  0  0  0  0  0  0
    1.1202    6.0294    1.6967 H   0  0  0  0  0  0  0  0  0  0  0  0
    1.0891    7.5340    0.8035 H   0  0  0  0  0  0  0  0  0  0  0  0
   -0.1740    7.1770    1.9595 H   0  0  0  0  0  0  0  0  0  0  0  0
    1.5491    6.9858    4.7833 C   0  0  0  0  0  0  0  0  0  0  0  0
    1.8781    7.5572    5.6467 H   0  0  0  0  0  0  0  0  0  0  0  0
    2.0683    6.0289    4.7969 H   0  0  0  0  0  0  0  0  0  0  0  0
    0.4901    6.7852    4.9099 H   0  0  0  0  0  0  0  0  0  0  0  0
  1  4  1  0  0  0  0
  1  5  1  0  0  0  0
  1  2  1  0  0  0  0
  3  1  1  0  0  0  0
  6 18  1  0  0  0  0
  6  8  1  0  0  0  0
  7 22  1  0  0  0  0
  7 30  1  0  0  0  0
  8  7  1  0  0  0  0
  8  1  1  0  0  0  0
  9  8  1  0  0  0  0
 10  6  1  0  0  0  0
 10 11  1  0  0  0  0
 12 10  1  0  0  0  0
 13 10  1  0  0  0  0
 14 15  1  0  0  0  0
 14  6  1  0  0  0  0
 16 14  1  0  0  0  0
 17 14  1  0  0  0  0
 18 19  1  0  0  0  0
 18 21  1  0  0  0  0
 20 18  1  0  0  0  0
 22 24  1  0  0  0  0
 22 23  1  0  0  0  0
 25 22  1  0  0  0  0
 26 29  1  0  0  0  0
 26  7  1  0  0  0  0
 27 26  1  0  0  0  0
 28 26  1  0  0  0  0
 30 32  1  0  0  0  0
 30 33  1  0  0  0  0
 30 31  1  0  0  0  0
M  END
$$$$
