CSD_code = JUQZIE | q = 0 | S = 0 | Stoichiometry = C24H27F2Ta | MND = 5
 OpenBabel04212202053D

 54 56  0  0  0  0  0  0  0  0999 V2000
    5.0189   10.6769    2.0147 Ta  0  0  0  0  0  0  0  0  0  0  0  0
    6.7073   10.3099    1.5012 F   0  0  0  0  0  0  0  0  0  0  0  0
    3.3294   11.0423    2.5280 F   0  0  0  0  0  0  0  0  0  0  0  0
    4.9080   12.3679    0.4476 C   0  0  0  0  0  0  0  0  0  0  0  0
    5.6114   12.1561   -0.3591 H   0  0  0  0  0  0  0  0  0  0  0  0
    3.8964   12.4416    0.0457 H   0  0  0  0  0  0  0  0  0  0  0  0
    5.2871   13.5675    1.2093 C   0  0  0  0  0  0  0  0  0  0  0  0
    4.3238   14.3691    1.8280 C   0  0  0  0  0  0  0  0  0  0  0  0
    3.2770   14.1293    1.7000 H   0  0  0  0  0  0  0  0  0  0  0  0
    4.6918   15.4595    2.5927 C   0  0  0  0  0  0  0  0  0  0  0  0
    3.9273   16.0659    3.0580 H   0  0  0  0  0  0  0  0  0  0  0  0
    6.0291   15.7906    2.7705 C   0  0  0  0  0  0  0  0  0  0  0  0
    6.9929   14.9952    2.1572 C   0  0  0  0  0  0  0  0  0  0  0  0
    8.0382   15.2404    2.2844 H   0  0  0  0  0  0  0  0  0  0  0  0
    6.6337   13.9047    1.3924 C   0  0  0  0  0  0  0  0  0  0  0  0
    7.3967   13.2992    0.9205 H   0  0  0  0  0  0  0  0  0  0  0  0
    6.4369   16.9774    3.5897 C   0  0  0  0  0  0  0  0  0  0  0  0
    7.1730   16.6899    4.3391 H   0  0  0  0  0  0  0  0  0  0  0  0
    5.5794   17.4171    4.0927 H   0  0  0  0  0  0  0  0  0  0  0  0
    6.8907   17.7377    2.9539 H   0  0  0  0  0  0  0  0  0  0  0  0
    4.3807    8.5365    1.4328 C   0  0  0  0  0  0  0  0  0  0  0  0
    5.1994    7.8397    1.6182 H   0  0  0  0  0  0  0  0  0  0  0  0
    3.5064    8.2443    2.0163 H   0  0  0  0  0  0  0  0  0  0  0  0
    4.0709    8.6576    0.0001 C   0  0  0  0  0  0  0  0  0  0  0  0
    5.0480    8.4319   -0.9746 C   0  0  0  0  0  0  0  0  0  0  0  0
    6.0344    8.1113   -0.6676 H   0  0  0  0  0  0  0  0  0  0  0  0
    4.7675    8.6111   -2.3145 C   0  0  0  0  0  0  0  0  0  0  0  0
    5.5378    8.4287   -3.0507 H   0  0  0  0  0  0  0  0  0  0  0  0
    3.5074    9.0228   -2.7347 C   0  0  0  0  0  0  0  0  0  0  0  0
    2.5323    9.2491   -1.7697 C   0  0  0  0  0  0  0  0  0  0  0  0
    1.5460    9.5678   -2.0772 H   0  0  0  0  0  0  0  0  0  0  0  0
    2.8048    9.0722   -0.4278 C   0  0  0  0  0  0  0  0  0  0  0  0
    2.0325    9.2516    0.3087 H   0  0  0  0  0  0  0  0  0  0  0  0
    3.2023    9.1927   -4.1920 C   0  0  0  0  0  0  0  0  0  0  0  0
    4.0866    9.5129   -4.7385 H   0  0  0  0  0  0  0  0  0  0  0  0
    2.4108    9.9236   -4.3406 H   0  0  0  0  0  0  0  0  0  0  0  0
    2.8699    8.2448   -4.6175 H   0  0  0  0  0  0  0  0  0  0  0  0
    5.7698   11.1204    4.1514 C   0  0  0  0  0  0  0  0  0  0  0  0
    6.7442   11.6100    4.1189 H   0  0  0  0  0  0  0  0  0  0  0  0
    5.0493   11.7651    4.6572 H   0  0  0  0  0  0  0  0  0  0  0  0
    5.8439    9.7871    4.7687 C   0  0  0  0  0  0  0  0  0  0  0  0
    7.0322    9.0523    4.7754 C   0  0  0  0  0  0  0  0  0  0  0  0
    7.9284    9.4945    4.3623 H   0  0  0  0  0  0  0  0  0  0  0  0
    7.0751    7.7761    5.3037 C   0  0  0  0  0  0  0  0  0  0  0  0
    8.0076    7.2293    5.2997 H   0  0  0  0  0  0  0  0  0  0  0  0
    5.9392    7.1854    5.8421 C   0  0  0  0  0  0  0  0  0  0  0  0
    4.7520    7.9122    5.8367 C   0  0  0  0  0  0  0  0  0  0  0  0
    3.8591    7.4676    6.2538 H   0  0  0  0  0  0  0  0  0  0  0  0
    4.7007    9.1865    5.3108 C   0  0  0  0  0  0  0  0  0  0  0  0
    3.7698    9.7389    5.3189 H   0  0  0  0  0  0  0  0  0  0  0  0
    5.9788    5.8059    6.4262 C   0  0  0  0  0  0  0  0  0  0  0  0
    5.7917    5.8439    7.4994 H   0  0  0  0  0  0  0  0  0  0  0  0
    6.9475    5.3407    6.2621 H   0  0  0  0  0  0  0  0  0  0  0  0
    5.2093    5.1789    5.9780 H   0  0  0  0  0  0  0  0  0  0  0  0
  1  3  1  0  0  0  0
  1 38  1  0  0  0  0
  2  1  1  0  0  0  0
  4  7  1  0  0  0  0
  4  1  1  0  0  0  0
  5  4  1  0  0  0  0
  6  4  1  0  0  0  0
  7 15  2  0  0  0  0
  7  8  1  0  0  0  0
  8 10  2  0  0  0  0
  9  8  1  0  0  0  0
 10 12  1  0  0  0  0
 10 11  1  0  0  0  0
 12 17  1  0  0  0  0
 13 14  1  0  0  0  0
 13 12  2  0  0  0  0
 15 13  1  0  0  0  0
 16 15  1  0  0  0  0
 17 19  1  0  0  0  0
 17 18  1  0  0  0  0
 20 17  1  0  0  0  0
 21 22  1  0  0  0  0
 21  1  1  0  0  0  0
 21 23  1  0  0  0  0
 24 21  1  0  0  0  0
 25 26  1  0  0  0  0
 25 24  2  0  0  0  0
 27 25  1  0  0  0  0
 28 27  1  0  0  0  0
 29 27  2  0  0  0  0
 29 30  1  0  0  0  0
 30 32  2  0  0  0  0
 31 30  1  0  0  0  0
 32 24  1  0  0  0  0
 32 33  1  0  0  0  0
 34 29  1  0  0  0  0
 35 34  1  0  0  0  0
 36 34  1  0  0  0  0
 37 34  1  0  0  0  0
 38 40  1  0  0  0  0
 38 41  1  0  0  0  0
 39 38  1  0  0  0  0
 41 42  2  0  0  0  0
 41 49  1  0  0  0  0
 42 44  1  0  0  0  0
 43 42  1  0  0  0  0
 44 46  2  0  0  0  0
 45 44  1  0  0  0  0
 46 51  1  0  0  0  0
 47 46  1  0  0  0  0
 47 48  1  0  0  0  0
 49 50  1  0  0  0  0
 49 47  2  0  0  0  0
 51 52  1  0  0  0  0
 53 51  1  0  0  0  0
 54 51  1  0  0  0  0
M  END
$$$$
