CSD_code = JURCEG | q = 0 | S = 0 | Stoichiometry = C26H31ClNiO2P2 | MND = 4
 OpenBabel04212202053D

 63 67  0  0  0  0  0  0  0  0999 V2000
    2.9388    4.7640    6.6323 Ni  0  0  2  0  0  0  0  0  0  0  0  0
    3.3631    3.5566    8.2972 Cl  0  0  0  0  0  0  0  0  0  0  0  0
    3.3921    3.3119    5.1203 P   0  0  2  0  0  4  0  0  0  0  0  0
    2.4078    6.5392    7.7105 P   0  0  1  0  0  4  0  0  0  0  0  0
    3.0084    4.0116    3.6902 O   0  0  0  0  0  0  0  0  0  0  0  0
    2.1039    7.6830    6.5785 O   0  0  0  0  0  0  0  0  0  0  0  0
    2.5518    5.8449    5.1361 C   0  0  0  0  0  0  0  0  0  0  0  0
    2.6341    5.3354    3.8410 C   0  0  0  0  0  0  0  0  0  0  0  0
    2.3546    6.1221    2.7348 C   0  0  0  0  0  0  0  0  0  0  0  0
    2.4303    5.7004    1.7448 H   0  0  0  0  0  0  0  0  0  0  0  0
    1.9831    7.4430    2.9266 C   0  0  0  0  0  0  0  0  0  0  0  0
    1.7624    8.0619    2.0707 H   0  0  0  0  0  0  0  0  0  0  0  0
    1.8914    7.9823    4.1995 C   0  0  0  0  0  0  0  0  0  0  0  0
    1.6018    9.0102    4.3518 H   0  0  0  0  0  0  0  0  0  0  0  0
    2.1789    7.1791    5.2917 C   0  0  0  0  0  0  0  0  0  0  0  0
    2.7145    1.6502    4.8916 C   0  0  0  0  0  0  0  0  0  0  0  0
    2.3594    1.1800    3.6326 C   0  0  0  0  0  0  0  0  0  0  0  0
    2.4653    1.8243    2.7729 H   0  0  0  0  0  0  0  0  0  0  0  0
    1.8690   -0.1058    3.4938 C   0  0  0  0  0  0  0  0  0  0  0  0
    1.5967   -0.4742    2.5153 H   0  0  0  0  0  0  0  0  0  0  0  0
    1.7269   -0.9206    4.6057 C   0  0  0  0  0  0  0  0  0  0  0  0
    1.3444   -1.9244    4.4918 H   0  0  0  0  0  0  0  0  0  0  0  0
    2.0666   -0.4470    5.8631 C   0  0  0  0  0  0  0  0  0  0  0  0
    1.9451   -1.0789    6.7304 H   0  0  0  0  0  0  0  0  0  0  0  0
    2.5568    0.8378    6.0101 C   0  0  0  0  0  0  0  0  0  0  0  0
    2.8102    1.2229    6.9878 H   0  0  0  0  0  0  0  0  0  0  0  0
    5.2468    3.0743    4.9630 C   0  0  0  0  0  0  0  0  0  0  0  0
    5.8426    4.4618    5.2084 C   0  0  0  0  0  0  0  0  0  0  0  0
    6.9302    4.4185    5.2434 H   0  0  0  0  0  0  0  0  0  0  0  0
    5.4836    4.8578    6.1690 H   0  0  0  0  0  0  0  0  0  0  0  0
    5.5499    5.1550    4.4189 H   0  0  0  0  0  0  0  0  0  0  0  0
    5.6013    2.5578    3.5736 C   0  0  0  0  0  0  0  0  0  0  0  0
    5.1651    1.5742    3.4067 H   0  0  0  0  0  0  0  0  0  0  0  0
    6.6829    2.4755    3.4755 H   0  0  0  0  0  0  0  0  0  0  0  0
    5.2372    3.2342    2.8028 H   0  0  0  0  0  0  0  0  0  0  0  0
    5.7123    2.1002    6.0398 C   0  0  0  0  0  0  0  0  0  0  0  0
    5.3192    1.1019    5.8548 H   0  0  0  0  0  0  0  0  0  0  0  0
    5.3781    2.4270    7.0232 H   0  0  0  0  0  0  0  0  0  0  0  0
    6.8000    2.0457    6.0467 H   0  0  0  0  0  0  0  0  0  0  0  0
    0.7447    6.3757    8.5600 C   0  0  0  0  0  0  0  0  0  0  0  0
   -0.1057    5.5479    7.5947 C   0  0  0  0  0  0  0  0  0  0  0  0
    0.4114    4.6092    7.3533 H   0  0  0  0  0  0  0  0  0  0  0  0
   -0.2800    6.0935    6.6667 H   0  0  0  0  0  0  0  0  0  0  0  0
   -1.0702    5.3020    8.0366 H   0  0  0  0  0  0  0  0  0  0  0  0
    0.9330    5.6294    9.8761 C   0  0  0  0  0  0  0  0  0  0  0  0
    1.4478    4.6843    9.7115 H   0  0  0  0  0  0  0  0  0  0  0  0
   -0.0362    5.4195   10.3264 H   0  0  0  0  0  0  0  0  0  0  0  0
    1.5165    6.2235   10.5776 H   0  0  0  0  0  0  0  0  0  0  0  0
    0.1327    7.7510    8.7990 C   0  0  0  0  0  0  0  0  0  0  0  0
   -0.8558    7.6428    9.2433 H   0  0  0  0  0  0  0  0  0  0  0  0
    0.0310    8.2990    7.8644 H   0  0  0  0  0  0  0  0  0  0  0  0
    0.7528    8.3344    9.4778 H   0  0  0  0  0  0  0  0  0  0  0  0
    3.4210    7.4655    8.8897 C   0  0  0  0  0  0  0  0  0  0  0  0
    3.4848    8.8536    8.8564 C   0  0  0  0  0  0  0  0  0  0  0  0
    2.9365    9.3950    8.1003 H   0  0  0  0  0  0  0  0  0  0  0  0
    4.2539    9.5275    9.7878 C   0  0  0  0  0  0  0  0  0  0  0  0
    4.3016   10.6067    9.7654 H   0  0  0  0  0  0  0  0  0  0  0  0
    4.9624    8.8219   10.7472 C   0  0  0  0  0  0  0  0  0  0  0  0
    5.5616    9.3529   11.4725 H   0  0  0  0  0  0  0  0  0  0  0  0
    4.9108    7.4372   10.7716 C   0  0  0  0  0  0  0  0  0  0  0  0
    5.4720    6.8877   11.5128 H   0  0  0  0  0  0  0  0  0  0  0  0
    4.1452    6.7562    9.8429 C   0  0  0  0  0  0  0  0  0  0  0  0
    4.1098    5.6757    9.8427 H   0  0  0  0  0  0  0  0  0  0  0  0
  1  4  1  0  0  0  0
  1  2  1  1  0  0  0
  3 27  1  1  0  0  0
  3  1  1  0  0  0  0
  4 40  1  1  0  0  0
  4 53  1  0  0  0  0
  5  8  1  0  0  0  0
  5  3  1  0  0  0  0
  6  4  1  0  0  0  0
  7 15  1  0  0  0  0
  7  1  1  0  0  0  0
  8  7  2  0  0  0  0
  9 11  2  0  0  0  0
  9  8  1  0  0  0  0
 10  9  1  0  0  0  0
 11 13  1  0  0  0  0
 12 11  1  0  0  0  0
 13 14  1  0  0  0  0
 13 15  2  0  0  0  0
 15  6  1  0  0  0  0
 16  3  1  0  0  0  0
 16 25  1  0  0  0  0
 17 16  2  0  0  0  0
 18 17  1  0  0  0  0
 19 17  1  0  0  0  0
 19 21  2  0  0  0  0
 20 19  1  0  0  0  0
 21 23  1  0  0  0  0
 22 21  1  0  0  0  0
 23 25  2  0  0  0  0
 23 24  1  0  0  0  0
 25 26  1  0  0  0  0
 27 28  1  0  0  0  0
 27 36  1  0  0  0  0
 28 29  1  0  0  0  0
 28 30  1  0  0  0  0
 31 28  1  0  0  0  0
 32 27  1  0  0  0  0
 33 32  1  0  0  0  0
 34 32  1  0  0  0  0
 35 32  1  0  0  0  0
 36 39  1  0  0  0  0
 36 38  1  0  0  0  0
 37 36  1  0  0  0  0
 40 49  1  0  0  0  0
 40 45  1  0  0  0  0
 41 44  1  0  0  0  0
 41 40  1  0  0  0  0
 42 41  1  0  0  0  0
 43 41  1  0  0  0  0
 45 47  1  0  0  0  0
 45 48  1  0  0  0  0
 46 45  1  0  0  0  0
 49 50  1  0  0  0  0
 49 52  1  0  0  0  0
 51 49  1  0  0  0  0
 53 62  1  0  0  0  0
 54 53  2  0  0  0  0
 54 56  1  0  0  0  0
 55 54  1  0  0  0  0
 56 58  2  0  0  0  0
 57 56  1  0  0  0  0
 58 60  1  0  0  0  0
 58 59  1  0  0  0  0
 60 61  1  0  0  0  0
 62 60  2  0  0  0  0
 63 62  1  0  0  0  0
M  END
$$$$
