CSD_code = JURGUY | q = 0 | S = 0 | Stoichiometry = C22H22ClN4O2PPdS | MND = 4
 OpenBabel04212202053D

 54 59  0  0  1  0  0  0  0  0999 V2000
    5.8899    4.0672    1.6658 Pd  0  0  0  0  0  0  0  0  0  0  0  0
    4.5370    5.4311    2.7922 Cl  0  0  0  0  0  0  0  0  0  0  0  0
    7.6722    5.6965    1.7821 S   0  0  0  0  0  0  0  0  0  0  0  0
    8.4210    3.9045    2.1329 P   0  0  0  0  0  0  0  0  0  0  0  0
    4.3591    2.7694    1.5061 O   0  0  0  0  0  0  0  0  0  0  0  0
    4.1064    2.1707    0.3917 C   0  0  0  0  0  0  0  0  0  0  0  0
    2.7565    1.8346    0.1166 C   0  0  0  0  0  0  0  0  0  0  0  0
    2.3965    1.1321   -1.0018 C   0  0  0  0  0  0  0  0  0  0  0  0
    3.3619    0.7071   -1.9175 C   0  0  0  0  0  0  0  0  0  0  0  0
    4.6806    0.9969   -1.6816 C   0  0  0  0  0  0  0  0  0  0  0  0
    5.0870    1.7302   -0.5541 C   0  0  0  0  0  0  0  0  0  0  0  0
    6.4888    1.9457   -0.3635 C   0  0  0  0  0  3  0  0  0  0  0  0
    6.9783    2.7956    0.4665 N   0  0  2  0  0  0  0  0  0  0  0  0
    8.3278    2.9284    0.7255 N   0  0  0  0  0  0  0  0  0  0  0  0
    9.2644    1.9111    0.2984 C   0  0  0  0  0  0  0  0  0  0  0  0
   10.1099    3.9590    2.3406 N   0  0  0  0  0  0  0  0  0  0  0  0
   10.8783    4.7349    1.3836 C   0  0  0  0  0  0  0  0  0  0  0  0
   10.4171    3.9378    3.6687 N   0  0  0  0  0  0  0  0  0  0  0  0
   11.4954    4.4350    4.1405 C   0  0  0  0  0  0  0  0  0  0  0  0
   11.8359    4.3504    5.5431 C   0  0  0  0  0  0  0  0  0  0  0  0
   13.0368    4.9254    5.9738 C   0  0  0  0  0  0  0  0  0  0  0  0
   13.4213    4.8780    7.2951 C   0  0  0  0  0  0  0  0  0  0  0  0
   12.6046    4.2467    8.2246 C   0  0  0  0  0  0  0  0  0  0  0  0
   11.4157    3.6720    7.8276 C   0  0  0  0  0  0  0  0  0  0  0  0
   11.0130    3.7142    6.4937 C   0  0  0  0  0  0  0  0  0  0  0  0
    9.8458    3.1338    6.1683 O   0  0  0  0  0  0  0  0  0  0  0  0
    7.8263    2.8986    3.5388 C   0  0  0  0  0  0  0  0  0  0  0  0
    8.3024    1.6017    3.7046 C   0  0  0  0  0  0  0  0  0  0  0  0
    7.7723    0.8076    4.7057 C   0  0  0  0  0  0  0  0  0  0  0  0
    6.7760    1.3028    5.5310 C   0  0  0  0  0  0  0  0  0  0  0  0
    6.3183    2.6026    5.3778 C   0  0  0  0  0  0  0  0  0  0  0  0
    6.8367    3.4116    4.3803 C   0  0  0  0  0  0  0  0  0  0  0  0
    9.6908    3.2620    5.2128 H   0  0  0  0  0  0  0  0  0  0  0  0
    2.0217    2.1618    0.8360 H   0  0  0  0  0  0  0  0  0  0  0  0
    1.3553    0.9055   -1.1789 H   0  0  0  0  0  0  0  0  0  0  0  0
    3.0713    0.1551   -2.7978 H   0  0  0  0  0  0  0  0  0  0  0  0
    5.4385    0.6702   -2.3812 H   0  0  0  0  0  0  0  0  0  0  0  0
    7.1525    1.3276   -0.9670 H   0  0  0  0  0  0  0  0  0  0  0  0
    9.4530    1.9962   -0.7751 H   0  0  0  0  0  0  0  0  0  0  0  0
    8.8862    0.9073    0.5186 H   0  0  0  0  0  0  0  0  0  0  0  0
   10.1989    2.0670    0.8325 H   0  0  0  0  0  0  0  0  0  0  0  0
   11.8664    4.2902    1.2488 H   0  0  0  0  0  0  0  0  0  0  0  0
   10.9836    5.7766    1.6984 H   0  0  0  0  0  0  0  0  0  0  0  0
   10.3351    4.7104    0.4392 H   0  0  0  0  0  0  0  0  0  0  0  0
   12.2276    4.9479    3.5163 H   0  0  0  0  0  0  0  0  0  0  0  0
   13.6680    5.4159    5.2462 H   0  0  0  0  0  0  0  0  0  0  0  0
   14.3510    5.3291    7.6056 H   0  0  0  0  0  0  0  0  0  0  0  0
   12.8989    4.2053    9.2622 H   0  0  0  0  0  0  0  0  0  0  0  0
   10.7672    3.1791    8.5344 H   0  0  0  0  0  0  0  0  0  0  0  0
    9.0867    1.2265    3.0629 H   0  0  0  0  0  0  0  0  0  0  0  0
    8.1347   -0.2009    4.8364 H   0  0  0  0  0  0  0  0  0  0  0  0
    6.3585    0.6732    6.3018 H   0  0  0  0  0  0  0  0  0  0  0  0
    5.5521    2.9914    6.0299 H   0  0  0  0  0  0  0  0  0  0  0  0
    6.5059    4.4472    4.2868 H   0  0  0  0  0  0  0  0  0  0  0  0
  1  3  1  0  0  0  0
  1  4  1  0  0  0  0
  1  2  1  0  0  0  0
  3  4  1  0  0  0  0
  4 16  1  0  0  0  0
  4 27  1  0  0  0  0
  5  1  1  0  0  0  0
  6  5  1  0  0  0  0
  7  6  1  0  0  0  0
  7 34  1  0  0  0  0
  8  7  2  0  0  0  0
  9 10  2  0  0  0  0
  9  8  1  0  0  0  0
 10 11  1  0  0  0  0
 11 12  1  0  0  0  0
 11  6  2  0  0  0  0
 13 12  1  1  0  0  0
 13 14  1  0  0  0  0
 13  1  1  0  0  0  0
 14  4  1  0  0  0  0
 15 40  1  0  0  0  0
 15 14  1  0  0  0  0
 15 41  1  0  0  0  0
 16 18  1  0  0  0  0
 17 43  1  0  0  0  0
 17 16  1  0  0  0  0
 18 19  2  0  0  0  0
 19 20  1  0  0  0  0
 20 21  2  0  0  0  0
 20 25  1  0  0  0  0
 21 22  1  0  0  0  0
 22 47  1  0  0  0  0
 22 23  2  0  0  0  0
 23 48  1  0  0  0  0
 24 23  1  0  0  0  0
 24 49  1  0  0  0  0
 25 24  2  0  0  0  0
 26 25  1  0  0  0  0
 27 28  2  0  0  0  0
 27 32  1  0  0  0  0
 28 29  1  0  0  0  0
 29 51  1  0  0  0  0
 29 30  2  0  0  0  0
 30 52  1  0  0  0  0
 31 30  1  0  0  0  0
 31 53  1  0  0  0  0
 32 31  2  0  0  0  0
 33 26  1  0  0  0  0
 35  8  1  0  0  0  0
 36  9  1  0  0  0  0
 37 10  1  0  0  0  0
 38 12  1  0  0  0  0
 39 15  1  0  0  0  0
 42 17  1  0  0  0  0
 44 17  1  0  0  0  0
 45 19  1  0  0  0  0
 46 21  1  0  0  0  0
 50 28  1  0  0  0  0
 54 32  1  0  0  0  0
M  END
$$$$
