CSD_code = JURMOA | q = 0 | S = 0 | Stoichiometry = C27H33Cl2N2O2PRuS | MND = 6
 OpenBabel04212202053D

 69 74  0  0  1  0  0  0  0  0999 V2000
    9.1413   22.9901   19.9774 Ru  0  0  0  0  0  0  0  0  0  0  0  0
    7.6961   23.8947   21.6289 Cl  0  0  0  0  0  0  0  0  0  0  0  0
   10.2436   21.7888   18.2620 Cl  0  0  0  0  0  0  0  0  0  0  0  0
   10.7194   22.6489   21.4925 S   0  0  0  0  0  0  0  0  0  0  0  0
    9.9356   25.0227   19.4006 P   0  0  0  0  0  4  0  0  0  0  0  0
   11.4532   23.8080   21.9773 O   0  0  0  0  0  1  0  0  0  0  0  0
    8.1461   21.1189   20.3956 O   0  0  0  0  0  0  0  0  0  0  0  0
    7.5433   23.0768   18.5933 N   0  0  2  0  0  4  0  0  0  0  0  0
    6.1557   20.1349   20.2439 N   0  0  0  0  0  0  0  0  0  0  0  0
    9.4518   25.3642   17.6709 C   0  0  0  0  0  0  0  0  0  0  0  0
    8.1688   25.0162   17.2280 C   0  0  0  0  0  0  0  0  0  0  0  0
    7.8331   25.2222   15.8976 C   0  0  0  0  0  0  0  0  0  0  0  0
    8.7414   25.7703   15.0078 C   0  0  0  0  0  0  0  0  0  0  0  0
   10.0050   26.1200   15.4475 C   0  0  0  0  0  0  0  0  0  0  0  0
   10.3561   25.9151   16.7701 C   0  0  0  0  0  0  0  0  0  0  0  0
    9.2908   26.4601   20.3030 C   0  0  0  0  0  0  0  0  0  0  0  0
    9.5444   26.4920   21.6735 C   0  0  0  0  0  0  0  0  0  0  0  0
    9.0491   27.5274   22.4416 C   0  0  0  0  0  0  0  0  0  0  0  0
    8.2973   28.5320   21.8510 C   0  0  0  0  0  0  0  0  0  0  0  0
    8.0459   28.5022   20.4901 C   0  0  0  0  0  0  0  0  0  0  0  0
    8.5376   27.4672   19.7126 C   0  0  0  0  0  0  0  0  0  0  0  0
   11.7319   25.2976   19.3963 C   0  0  0  0  0  0  0  0  0  0  0  0
   12.5187   24.3160   18.7964 C   0  0  0  0  0  0  0  0  0  0  0  0
   13.8947   24.4402   18.7848 C   0  0  0  0  0  0  0  0  0  0  0  0
   14.4970   25.5408   19.3741 C   0  0  0  0  0  0  0  0  0  0  0  0
   13.7175   26.5200   19.9656 C   0  0  0  0  0  0  0  0  0  0  0  0
   12.3383   26.4046   19.9782 C   0  0  0  0  0  0  0  0  0  0  0  0
    7.1450   24.4233   18.1627 C   0  0  0  0  0  0  0  0  0  0  0  0
    6.4379   22.3339   19.2013 C   0  0  0  0  0  0  0  0  0  0  0  0
    6.9842   21.1491   19.9862 C   0  0  1  0  0  3  0  0  0  0  0  0
    4.7466   20.0469   19.9141 C   0  0  0  0  0  0  0  0  0  0  0  0
    4.2498   18.8709   20.7556 C   0  0  0  0  0  0  0  0  0  0  0  0
    5.4826   17.9744   20.8541 C   0  0  0  0  0  0  0  0  0  0  0  0
    6.6128   18.9840   21.0103 C   0  0  0  0  0  0  0  0  0  0  0  0
   11.9648   21.3939   21.0685 C   0  0  0  0  0  0  0  0  0  0  0  0
   10.0356   21.8094   22.9570 C   0  0  0  0  0  0  0  0  0  0  0  0
    7.8992   22.5584   17.7758 H   0  0  0  0  0  0  0  0  0  0  0  0
    6.8441   24.9544   15.5505 H   0  0  0  0  0  0  0  0  0  0  0  0
    8.4607   25.9205   13.9760 H   0  0  0  0  0  0  0  0  0  0  0  0
   10.7197   26.5494   14.7615 H   0  0  0  0  0  0  0  0  0  0  0  0
   11.3444   26.1843   17.1121 H   0  0  0  0  0  0  0  0  0  0  0  0
   10.1302   25.6957   22.1146 H   0  0  0  0  0  0  0  0  0  0  0  0
    9.2408   27.5498   23.5043 H   0  0  0  0  0  0  0  0  0  0  0  0
    7.9042   29.3381   22.4536 H   0  0  0  0  0  0  0  0  0  0  0  0
    7.4603   29.2857   20.0301 H   0  0  0  0  0  0  0  0  0  0  0  0
    8.3394   27.4454   18.6492 H   0  0  0  0  0  0  0  0  0  0  0  0
   12.0381   23.4617   18.3381 H   0  0  0  0  0  0  0  0  0  0  0  0
   14.5006   23.6755   18.3197 H   0  0  0  0  0  0  0  0  0  0  0  0
   15.5736   25.6333   19.3741 H   0  0  0  0  0  0  0  0  0  0  0  0
   14.1860   27.3786   20.4249 H   0  0  0  0  0  0  0  0  0  0  0  0
   11.7365   27.1708   20.4445 H   0  0  0  0  0  0  0  0  0  0  0  0
    7.0439   25.0389   19.0676 H   0  0  0  0  0  0  0  0  0  0  0  0
    6.1724   24.3835   17.6498 H   0  0  0  0  0  0  0  0  0  0  0  0
    5.7008   22.0162   18.4514 H   0  0  0  0  0  0  0  0  0  0  0  0
    5.9633   22.9990   19.9368 H   0  0  0  0  0  0  0  0  0  0  0  0
    4.6216   19.8387   18.8441 H   0  0  0  0  0  0  0  0  0  0  0  0
    4.2282   20.9768   20.1569 H   0  0  0  0  0  0  0  0  0  0  0  0
    3.9634   19.2198   21.7477 H   0  0  0  0  0  0  0  0  0  0  0  0
    3.3977   18.3713   20.3007 H   0  0  0  0  0  0  0  0  0  0  0  0
    5.6096   17.4064   19.9320 H   0  0  0  0  0  0  0  0  0  0  0  0
    5.4319   17.2799   21.6888 H   0  0  0  0  0  0  0  0  0  0  0  0
    7.5700   18.6359   20.6173 H   0  0  0  0  0  0  0  0  0  0  0  0
    6.7538   19.2754   22.0569 H   0  0  0  0  0  0  0  0  0  0  0  0
   12.5695   21.1876   21.9436 H   0  0  0  0  0  0  0  0  0  0  0  0
   12.5750   21.8066   20.2724 H   0  0  0  0  0  0  0  0  0  0  0  0
   11.4408   20.5117   20.7179 H   0  0  0  0  0  0  0  0  0  0  0  0
    9.2513   22.4492   23.3514 H   0  0  0  0  0  0  0  0  0  0  0  0
   10.8234   21.6759   23.6889 H   0  0  0  0  0  0  0  0  0  0  0  0
    9.6199   20.8636   22.6267 H   0  0  0  0  0  0  0  0  0  0  0  0
  1  7  1  0  0  0  0
  1  4  1  0  0  0  0
  1  2  1  0  0  0  0
  3  1  1  0  0  0  0
  4  6  1  0  0  0  0
  4 36  1  0  0  0  0
  5  1  1  0  0  0  0
  5 16  1  0  0  0  0
  8 37  1  6  0  0  0
  8 29  1  0  0  0  0
  8  1  1  0  0  0  0
  9 34  1  0  0  0  0
 10  5  1  0  0  0  0
 11 10  1  0  0  0  0
 11 28  1  0  0  0  0
 12 11  2  0  0  0  0
 13 14  2  0  0  0  0
 13 12  1  0  0  0  0
 14 15  1  0  0  0  0
 15 41  1  0  0  0  0
 15 10  2  0  0  0  0
 16 17  1  0  0  0  0
 17 42  1  0  0  0  0
 17 18  2  0  0  0  0
 18 43  1  0  0  0  0
 19 18  1  0  0  0  0
 19 44  1  0  0  0  0
 20 19  2  0  0  0  0
 21 16  2  0  0  0  0
 21 20  1  0  0  0  0
 22  5  1  0  0  0  0
 22 27  1  0  0  0  0
 23 22  2  0  0  0  0
 24 23  1  0  0  0  0
 24 25  2  0  0  0  0
 25 26  1  0  0  0  0
 26 27  2  0  0  0  0
 26 50  1  0  0  0  0
 27 51  1  0  0  0  0
 28  8  1  0  0  0  0
 28 52  1  0  0  0  0
 29 55  1  0  0  0  0
 29 30  1  0  0  0  0
 30  9  1  1  0  0  0
 30  7  1  0  0  0  0
 31 57  1  0  0  0  0
 31  9  1  0  0  0  0
 31 32  1  0  0  0  0
 32 33  1  0  0  0  0
 32 58  1  0  0  0  0
 33 34  1  0  0  0  0
 33 61  1  0  0  0  0
 34 63  1  0  0  0  0
 35  4  1  0  0  0  0
 35 64  1  0  0  0  0
 36 67  1  0  0  0  0
 36 68  1  0  0  0  0
 38 12  1  0  0  0  0
 39 13  1  0  0  0  0
 40 14  1  0  0  0  0
 45 20  1  0  0  0  0
 46 21  1  0  0  0  0
 47 23  1  0  0  0  0
 48 24  1  0  0  0  0
 49 25  1  0  0  0  0
 53 28  1  0  0  0  0
 54 29  1  0  0  0  0
 56 31  1  0  0  0  0
 59 32  1  0  0  0  0
 60 33  1  0  0  0  0
 62 34  1  0  0  0  0
 65 35  1  0  0  0  0
 66 35  1  0  0  0  0
 69 36  1  0  0  0  0
M  END
$$$$
