CSD_code = JURMAM | q = 0 | S = 0 | Stoichiometry = C27H34Cl2NO2PRuS | MND = 6
 OpenBabel04212202053D

 69 73  0  0  1  0  0  0  0  0999 V2000
   -0.0877    2.5741    5.0767 Ru  0  0  0  0  0  0  0  0  0  0  0  0
   -2.4228    2.2593    5.5108 Cl  0  0  0  0  0  0  0  0  0  0  0  0
    2.1593    3.2831    4.9736 Cl  0  0  0  0  0  0  0  0  0  0  0  0
    0.4095    0.7434    6.2388 S   0  0  0  0  0  0  0  0  0  0  0  0
   -0.1315    1.4469    3.1170 P   0  0  0  0  0  4  0  0  0  0  0  0
    0.1329   -0.5384    5.6095 O   0  0  0  0  0  1  0  0  0  0  0  0
   -0.4036    3.8367    6.9134 O   0  0  0  0  0  0  0  0  0  0  0  0
   -0.4844    4.4505    4.1320 N   0  0  1  0  0  4  0  0  0  0  0  0
    0.2380    2.5936    1.7448 C   0  0  0  0  0  0  0  0  0  0  0  0
   -0.3187    3.8788    1.7633 C   0  0  0  0  0  0  0  0  0  0  0  0
    0.0027    4.7701    0.7498 C   0  0  0  0  0  0  0  0  0  0  0  0
    0.8553    4.4031   -0.2778 C   0  0  0  0  0  0  0  0  0  0  0  0
    1.3985    3.1313   -0.2983 C   0  0  0  0  0  0  0  0  0  0  0  0
    1.0924    2.2334    0.7093 C   0  0  0  0  0  0  0  0  0  0  0  0
    1.0386    0.0840    2.8527 C   0  0  0  0  0  0  0  0  0  0  0  0
    2.3713    0.3264    3.1805 C   0  0  0  0  0  0  0  0  0  0  0  0
    3.3145   -0.6725    3.0332 C   0  0  0  0  0  0  0  0  0  0  0  0
    2.9355   -1.9198    2.5620 C   0  0  0  0  0  0  0  0  0  0  0  0
    1.6134   -2.1607    2.2296 C   0  0  0  0  0  0  0  0  0  0  0  0
    0.6633   -1.1642    2.3709 C   0  0  0  0  0  0  0  0  0  0  0  0
   -1.7373    0.7413    2.6401 C   0  0  0  0  0  0  0  0  0  0  0  0
   -2.2741   -0.2278    3.4866 C   0  0  0  0  0  0  0  0  0  0  0  0
   -3.5175   -0.7669    3.2188 C   0  0  0  0  0  0  0  0  0  0  0  0
   -4.2345   -0.3425    2.1104 C   0  0  0  0  0  0  0  0  0  0  0  0
   -3.7022    0.6173    1.2667 C   0  0  0  0  0  0  0  0  0  0  0  0
   -2.4571    1.1635    1.5284 C   0  0  0  0  0  0  0  0  0  0  0  0
   -1.2385    4.3150    2.8738 C   0  0  0  0  0  0  0  0  0  0  0  0
   -1.0996    5.3558    5.1149 C   0  0  1  0  0  0  0  0  0  0  0  0
   -0.3893    5.1852    6.4751 C   0  0  1  0  0  0  0  0  0  0  0  0
   -1.0425    6.0853    7.5260 C   0  0  0  0  0  0  0  0  0  0  0  0
   -0.9767    7.5473    7.1006 C   0  0  0  0  0  0  0  0  0  0  0  0
   -1.6553    7.7301    5.7480 C   0  0  0  0  0  0  0  0  0  0  0  0
   -1.0114    6.8287    4.6979 C   0  0  0  0  0  0  0  0  0  0  0  0
    2.1071    0.6388    6.8781 C   0  0  0  0  0  0  0  0  0  0  0  0
   -0.4386    0.7235    7.8546 C   0  0  0  0  0  0  0  0  0  0  0  0
   -1.3470    3.5529    6.9644 H   0  0  0  0  0  0  0  0  0  0  0  0
    0.4546    4.8135    3.9105 H   0  0  0  0  0  0  0  0  0  0  0  0
   -0.4214    5.7649    0.7608 H   0  0  0  0  0  0  0  0  0  0  0  0
    1.0944    5.1110   -1.0573 H   0  0  0  0  0  0  0  0  0  0  0  0
    2.0632    2.8373   -1.0967 H   0  0  0  0  0  0  0  0  0  0  0  0
    1.5194    1.2415    0.6954 H   0  0  0  0  0  0  0  0  0  0  0  0
    2.6550    1.3039    3.5481 H   0  0  0  0  0  0  0  0  0  0  0  0
    4.3465   -0.4814    3.2906 H   0  0  0  0  0  0  0  0  0  0  0  0
    3.6707   -2.7044    2.4564 H   0  0  0  0  0  0  0  0  0  0  0  0
    1.3174   -3.1324    1.8615 H   0  0  0  0  0  0  0  0  0  0  0  0
   -0.3673   -1.3589    2.1128 H   0  0  0  0  0  0  0  0  0  0  0  0
   -1.7022   -0.5438    4.3492 H   0  0  0  0  0  0  0  0  0  0  0  0
   -3.9341   -1.5130    3.8794 H   0  0  0  0  0  0  0  0  0  0  0  0
   -5.2106   -0.7582    1.9064 H   0  0  0  0  0  0  0  0  0  0  0  0
   -4.2602    0.9483    0.4025 H   0  0  0  0  0  0  0  0  0  0  0  0
   -2.0457    1.9144    0.8675 H   0  0  0  0  0  0  0  0  0  0  0  0
   -1.7035    5.2670    2.5920 H   0  0  0  0  0  0  0  0  0  0  0  0
   -2.0352    3.5769    3.0384 H   0  0  0  0  0  0  0  0  0  0  0  0
   -2.1497    5.0483    5.2239 H   0  0  0  0  0  0  0  0  0  0  0  0
    0.6742    5.4404    6.3632 H   0  0  0  0  0  0  0  0  0  0  0  0
   -0.5336    5.9423    8.4809 H   0  0  0  0  0  0  0  0  0  0  0  0
   -2.0859    5.7816    7.6489 H   0  0  0  0  0  0  0  0  0  0  0  0
   -1.4640    8.1713    7.8508 H   0  0  0  0  0  0  0  0  0  0  0  0
    0.0675    7.8588    7.0308 H   0  0  0  0  0  0  0  0  0  0  0  0
   -1.5792    8.7714    5.4308 H   0  0  0  0  0  0  0  0  0  0  0  0
   -2.7155    7.4828    5.8354 H   0  0  0  0  0  0  0  0  0  0  0  0
   -1.5105    6.9853    3.7404 H   0  0  0  0  0  0  0  0  0  0  0  0
    0.0413    7.0997    4.5784 H   0  0  0  0  0  0  0  0  0  0  0  0
    2.7651    0.5232    6.0237 H   0  0  0  0  0  0  0  0  0  0  0  0
    2.1782   -0.2227    7.5311 H   0  0  0  0  0  0  0  0  0  0  0  0
    2.3301    1.5639    7.3979 H   0  0  0  0  0  0  0  0  0  0  0  0
   -0.1930   -0.2003    8.3647 H   0  0  0  0  0  0  0  0  0  0  0  0
   -1.5060    0.7736    7.6590 H   0  0  0  0  0  0  0  0  0  0  0  0
   -0.1111    1.5923    8.4159 H   0  0  0  0  0  0  0  0  0  0  0  0
  1  2  1  0  0  0  0
  1  4  1  0  0  0  0
  3  1  1  0  0  0  0
  4 34  1  0  0  0  0
  4 35  1  0  0  0  0
  5  1  1  0  0  0  0
  6  4  1  0  0  0  0
  7 36  1  0  0  0  0
  8 37  1  6  0  0  0
  8  1  1  0  0  0  0
  8 28  1  0  0  0  0
  9 10  1  0  0  0  0
  9  5  1  0  0  0  0
 10 27  1  0  0  0  0
 11 38  1  0  0  0  0
 11 10  2  0  0  0  0
 12 11  1  0  0  0  0
 13 12  2  0  0  0  0
 13 14  1  0  0  0  0
 14  9  2  0  0  0  0
 15  5  1  0  0  0  0
 15 16  1  0  0  0  0
 16 42  1  0  0  0  0
 17 16  2  0  0  0  0
 17 43  1  0  0  0  0
 18 17  1  0  0  0  0
 19 20  1  0  0  0  0
 19 18  2  0  0  0  0
 20 15  2  0  0  0  0
 21  5  1  0  0  0  0
 21 22  1  0  0  0  0
 22 47  1  0  0  0  0
 23 22  2  0  0  0  0
 23 48  1  0  0  0  0
 24 23  1  0  0  0  0
 25 26  1  0  0  0  0
 25 24  2  0  0  0  0
 26 21  2  0  0  0  0
 27 53  1  0  0  0  0
 27  8  1  0  0  0  0
 28 54  1  1  0  0  0
 28 29  1  0  0  0  0
 29 55  1  6  0  0  0
 29  7  1  0  0  0  0
 29 30  1  0  0  0  0
 30 57  1  0  0  0  0
 30 56  1  0  0  0  0
 31 30  1  0  0  0  0
 31 58  1  0  0  0  0
 32 61  1  0  0  0  0
 32 31  1  0  0  0  0
 33 28  1  0  0  0  0
 33 32  1  0  0  0  0
 34 66  1  0  0  0  0
 34 65  1  0  0  0  0
 35 67  1  0  0  0  0
 35 69  1  0  0  0  0
 39 12  1  0  0  0  0
 40 13  1  0  0  0  0
 41 14  1  0  0  0  0
 44 18  1  0  0  0  0
 45 19  1  0  0  0  0
 46 20  1  0  0  0  0
 49 24  1  0  0  0  0
 50 25  1  0  0  0  0
 51 26  1  0  0  0  0
 52 27  1  0  0  0  0
 59 31  1  0  0  0  0
 60 32  1  0  0  0  0
 62 33  1  0  0  0  0
 63 33  1  0  0  0  0
 64 34  1  0  0  0  0
 68 35  1  0  0  0  0
M  END
$$$$
