CSD_code = JURPUH | q = 0 | S = 0 | Stoichiometry = C15H23ClP2Zr | MND = 13
 OpenBabel04212202053D

 42 43  0  0  1  0  0  0  0  0999 V2000
   -0.8672    4.2325   11.9489 Zr  0  0  1  0  0  0  0  0  0  0  0  0
   -1.4142    2.4671   13.4270 Cl  0  0  0  0  0  0  0  0  0  0  0  0
   -1.7833    5.1133    9.2339 P   0  0  0  0  0  0  0  0  0  0  0  0
   -4.1777    4.1349   10.9248 P   0  0  0  0  0  0  0  0  0  0  0  0
   -2.4373    3.8335   10.4241 C   0  0  0  0  0  0  0  0  0  0  0  0
   -2.0391    4.2756    7.5924 C   0  0  0  0  0  0  0  0  0  0  0  0
   -3.1628    6.3370    9.0508 C   0  0  0  0  0  0  0  0  0  0  0  0
   -5.1052    3.0882    9.6923 C   0  0  0  0  0  0  0  0  0  0  0  0
   -4.3334    2.9323   12.3227 C   0  0  0  0  0  0  0  0  0  0  0  0
   -0.3889    5.7098   13.9413 C   0  0  0  0  0  0  0  0  0  0  0  0
   -1.7819    5.4949   13.9268 C   0  0  0  0  0  3  0  0  0  0  0  0
   -2.3097    6.1048   12.7682 C   0  0  1  0  0  0  0  0  0  0  0  0
   -1.2354    6.7156   12.0724 C   0  0  0  0  0  3  0  0  0  0  0  0
   -0.0564    6.4819   12.8064 C   0  0  0  0  0  0  0  0  0  0  0  0
    1.6967    4.1930   11.9751 C   0  0  0  0  0  0  0  0  0  0  0  0
    1.3241    2.8621   12.2314 C   0  0  0  0  0  0  0  0  0  0  0  0
    0.6643    2.3611   11.0930 C   0  0  0  0  0  0  0  0  0  0  0  0
    0.6420    3.3832   10.1201 C   0  0  0  0  0  0  0  0  0  0  0  0
    1.2715    4.5247   10.6696 C   0  0  1  0  0  0  0  0  0  0  0  0
   -2.3157    2.8237    9.9868 H   0  0  0  0  0  0  0  0  0  0  0  0
   -3.0766    3.9631    7.4794 H   0  0  0  0  0  0  0  0  0  0  0  0
   -1.7817    4.9725    6.7962 H   0  0  0  0  0  0  0  0  0  0  0  0
   -1.3922    3.4034    7.5119 H   0  0  0  0  0  0  0  0  0  0  0  0
   -4.0792    5.8591    8.7072 H   0  0  0  0  0  0  0  0  0  0  0  0
   -2.8483    7.0814    8.3187 H   0  0  0  0  0  0  0  0  0  0  0  0
   -3.3517    6.8350    9.9989 H   0  0  0  0  0  0  0  0  0  0  0  0
   -5.1083    3.5649    8.7141 H   0  0  0  0  0  0  0  0  0  0  0  0
   -4.6558    2.0978    9.6116 H   0  0  0  0  0  0  0  0  0  0  0  0
   -6.1373    2.9869   10.0235 H   0  0  0  0  0  0  0  0  0  0  0  0
   -3.8848    3.3526   13.2236 H   0  0  0  0  0  0  0  0  0  0  0  0
   -5.3933    2.7619   12.5116 H   0  0  0  0  0  0  0  0  0  0  0  0
   -3.8503    1.9817   12.0857 H   0  0  0  0  0  0  0  0  0  0  0  0
    0.2821    5.4376   14.7490 H   0  0  0  0  0  0  0  0  0  0  0  0
   -2.3566    5.0275   14.7172 H   0  0  0  0  0  0  0  0  0  0  0  0
   -3.3631    6.2358   12.5541 H   0  0  0  0  0  0  0  0  0  0  0  0
   -1.3209    7.3849   11.2261 H   0  0  0  0  0  0  0  0  0  0  0  0
    0.9055    6.9366   12.6039 H   0  0  0  0  0  0  0  0  0  0  0  0
    2.3294    4.7984   12.6128 H   0  0  0  0  0  0  0  0  0  0  0  0
    1.5666    2.2947   13.1205 H   0  0  0  0  0  0  0  0  0  0  0  0
    0.3273    1.3402   10.9543 H   0  0  0  0  0  0  0  0  0  0  0  0
    0.3590    3.2596    9.0821 H   0  0  0  0  0  0  0  0  0  0  0  0
    1.5117    5.4320   10.1278 H   0  0  0  0  0  0  0  0  0  0  0  0
  1 12  1  0  0  0  0
  1  2  1  1  0  0  0
  3  5  1  0  0  0  0
  4  9  1  0  0  0  0
  5  4  1  0  0  0  0
  5  1  1  0  0  0  0
  6  3  1  0  0  0  0
  7  3  1  0  0  0  0
  7 26  1  0  0  0  0
  8 29  1  0  0  0  0
  8  4  1  0  0  0  0
  9 31  1  0  0  0  0
  9 30  1  0  0  0  0
 10 33  1  0  0  0  0
 11 10  1  0  0  0  0
 11 34  1  0  0  0  0
 12 35  1  6  0  0  0
 12 11  1  0  0  0  0
 13 12  1  0  0  0  0
 13 14  1  0  0  0  0
 14 10  2  0  0  0  0
 15 16  2  0  0  0  0
 15 38  1  0  0  0  0
 16 39  1  0  0  0  0
 17 16  1  0  0  0  0
 18 19  1  0  0  0  0
 18 17  2  0  0  0  0
 19 42  1  6  0  0  0
 19  1  1  0  0  0  0
 19 15  1  0  0  0  0
 20  5  1  0  0  0  0
 21  6  1  0  0  0  0
 22  6  1  0  0  0  0
 23  6  1  0  0  0  0
 24  7  1  0  0  0  0
 25  7  1  0  0  0  0
 27  8  1  0  0  0  0
 28  8  1  0  0  0  0
 32  9  1  0  0  0  0
 36 13  1  0  0  0  0
 37 14  1  0  0  0  0
 40 17  1  0  0  0  0
 41 18  1  0  0  0  0
M  END
$$$$
