CSD_code = JURRAP | q = 0 | S = 0 | Stoichiometry = C16H26ClPSiZr | MND = 13
 OpenBabel04212202053D

 46 46  0  0  1  0  0  0  0  0999 V2000
    2.6535   -2.3924   -2.0865 Zr  0  0  0  0  0  0  0  0  0  0  0  0
    2.6061   -0.0411   -2.2535 Cl  0  0  0  0  0  0  0  0  0  0  0  0
    1.3486   -4.5024   -3.7688 P   0  0  0  0  0  0  0  0  0  0  0  0
    1.1064   -1.4949   -5.1887 Si  0  0  0  0  0  0  0  0  0  0  0  0
    1.1565   -2.6731   -3.7059 C   0  0  2  0  0  0  0  0  0  0  0  0
   -0.3571   -5.0643   -4.2665 C   0  0  0  0  0  0  0  0  0  0  0  0
    2.1445   -4.8080   -5.4147 C   0  0  0  0  0  0  0  0  0  0  0  0
    0.0146   -0.0339   -4.6011 C   0  0  0  0  0  0  0  0  0  0  0  0
    2.8362   -0.8439   -5.6939 C   0  0  0  0  0  0  0  0  0  0  0  0
    0.2833   -2.0732   -6.8306 C   0  0  0  0  0  0  0  0  0  0  0  0
    5.1450   -2.3265   -1.4549 C   0  0  0  0  0  0  0  0  0  0  0  0
    5.0317   -1.8322   -2.7677 C   0  0  0  0  0  3  0  0  0  0  0  0
    4.5687   -2.8797   -3.5936 C   0  0  1  0  0  0  0  0  0  0  0  0
    4.4236   -4.0370   -2.7853 C   0  0  0  0  0  3  0  0  0  0  0  0
    4.7917   -3.6921   -1.4713 C   0  0  0  0  0  0  0  0  0  0  0  0
    2.6518   -2.8204    0.4359 C   0  0  0  0  0  0  0  0  0  0  0  0
    1.8718   -1.6658    0.2427 C   0  0  0  0  0  3  0  0  0  0  0  0
    0.7197   -2.0297   -0.4837 C   0  0  0  0  0  0  0  0  0  0  0  0
    0.7834   -3.4204   -0.7280 C   0  0  0  0  0  0  0  0  0  0  0  0
    1.9849   -3.9076   -0.1722 C   0  0  0  0  0  0  0  0  0  0  0  0
   -1.0479   -4.9099   -3.4394 H   0  0  0  0  0  0  0  0  0  0  0  0
   -0.3363   -6.1260   -4.5050 H   0  0  0  0  0  0  0  0  0  0  0  0
   -0.7022   -4.5006   -5.1317 H   0  0  0  0  0  0  0  0  0  0  0  0
    1.5018   -4.4552   -6.2165 H   0  0  0  0  0  0  0  0  0  0  0  0
    3.1065   -4.3073   -5.4703 H   0  0  0  0  0  0  0  0  0  0  0  0
    2.3028   -5.8802   -5.5296 H   0  0  0  0  0  0  0  0  0  0  0  0
    0.3444    0.3358   -3.6355 H   0  0  0  0  0  0  0  0  0  0  0  0
   -1.0279   -0.3250   -4.5096 H   0  0  0  0  0  0  0  0  0  0  0  0
    0.0606    0.7932   -5.3015 H   0  0  0  0  0  0  0  0  0  0  0  0
    2.7211    0.0175   -6.3445 H   0  0  0  0  0  0  0  0  0  0  0  0
    3.4189   -1.5779   -6.2429 H   0  0  0  0  0  0  0  0  0  0  0  0
    3.4045   -0.5217   -4.8251 H   0  0  0  0  0  0  0  0  0  0  0  0
   -0.6312   -2.6310   -6.6579 H   0  0  0  0  0  0  0  0  0  0  0  0
    0.9411   -2.6888   -7.4350 H   0  0  0  0  0  0  0  0  0  0  0  0
    0.0202   -1.2063   -7.4285 H   0  0  0  0  0  0  0  0  0  0  0  0
    0.2118   -2.5161   -3.1597 H   0  0  0  0  0  0  0  0  0  0  0  0
    5.5545   -1.7819   -0.6118 H   0  0  0  0  0  0  0  0  0  0  0  0
    5.3391   -0.8484   -3.0997 H   0  0  0  0  0  0  0  0  0  0  0  0
    4.5394   -2.8515   -4.6737 H   0  0  0  0  0  0  0  0  0  0  0  0
    4.2348   -5.0418   -3.1420 H   0  0  0  0  0  0  0  0  0  0  0  0
    4.9071   -4.3877   -0.6501 H   0  0  0  0  0  0  0  0  0  0  0  0
    3.5308   -2.8844    1.0660 H   0  0  0  0  0  0  0  0  0  0  0  0
    2.0746   -0.6849    0.6546 H   0  0  0  0  0  0  0  0  0  0  0  0
   -0.1152   -1.3768   -0.7127 H   0  0  0  0  0  0  0  0  0  0  0  0
   -0.0117   -4.0333   -1.1357 H   0  0  0  0  0  0  0  0  0  0  0  0
    2.2638   -4.9519   -0.1015 H   0  0  0  0  0  0  0  0  0  0  0  0
  2  1  1  0  0  0  0
  3  5  1  0  0  0  0
  4  8  1  0  0  0  0
  4  5  1  0  0  0  0
  5 36  1  1  0  0  0
  5  1  1  0  0  0  0
  6  3  1  0  0  0  0
  6 21  1  0  0  0  0
  7  3  1  0  0  0  0
  8 28  1  0  0  0  0
  8 27  1  0  0  0  0
  9  4  1  0  0  0  0
  9 32  1  0  0  0  0
 10 33  1  0  0  0  0
 10  4  1  0  0  0  0
 11 37  1  0  0  0  0
 12 11  1  0  0  0  0
 13 39  1  6  0  0  0
 13 14  1  0  0  0  0
 13 12  1  0  0  0  0
 13  1  1  0  0  0  0
 14 15  1  0  0  0  0
 15 11  2  0  0  0  0
 15 41  1  0  0  0  0
 16 42  1  0  0  0  0
 17 16  1  0  0  0  0
 17 43  1  0  0  0  0
 18 17  1  0  0  0  0
 19 18  2  0  0  0  0
 19 20  1  0  0  0  0
 20 46  1  0  0  0  0
 20 16  2  0  0  0  0
 22  6  1  0  0  0  0
 23  6  1  0  0  0  0
 24  7  1  0  0  0  0
 25  7  1  0  0  0  0
 26  7  1  0  0  0  0
 29  8  1  0  0  0  0
 30  9  1  0  0  0  0
 31  9  1  0  0  0  0
 34 10  1  0  0  0  0
 35 10  1  0  0  0  0
 38 12  1  0  0  0  0
 40 14  1  0  0  0  0
 44 18  1  0  0  0  0
 45 19  1  0  0  0  0
M  END
$$$$
