CSD_code = JURSUM | q = 1 | S = 0 | Stoichiometry = C22H22BrN6Pd(1+) | MND = 4
 OpenBabel04212202053D

 52 56  0  0  1  0  0  0  0  0999 V2000
   -2.1479    9.5230    7.3186 Pd  0  0  1  0  0  0  0  0  0  0  0  0
   -2.9995    8.7850    5.2199 Br  0  0  0  0  0  0  0  0  0  0  0  0
   -1.4774   10.4447   10.2909 N   0  0  0  0  0  0  0  0  0  0  0  0
    0.0900   10.3634    8.8141 N   0  0  0  0  0  0  0  0  0  0  0  0
   -0.2436    9.9884    6.5686 N   0  0  0  0  0  0  0  0  0  0  0  0
   -5.1004    9.3236    7.9958 N   0  0  0  0  0  0  0  0  0  0  0  0
   -3.8607    7.8554    8.9640 N   0  0  0  0  0  0  0  0  0  0  0  0
   -2.6030    6.9631   10.6869 N   0  0  0  0  0  0  0  0  0  0  0  0
   -3.5612   12.1291    9.1941 C   0  0  0  0  0  0  0  0  0  0  0  0
   -2.6147   12.1905    8.6697 H   0  0  0  0  0  0  0  0  0  0  0  0
   -4.3402   12.7679    8.8164 H   0  0  0  0  0  0  0  0  0  0  0  0
   -3.7660   11.3649   10.2515 C   0  0  0  0  0  0  0  0  0  0  0  0
   -4.7269   11.3654   10.7479 H   0  0  0  0  0  0  0  0  0  0  0  0
   -2.7728   10.4544   10.9247 C   0  0  0  0  0  0  0  0  0  0  0  0
   -2.6397   10.7860   11.9592 H   0  0  0  0  0  0  0  0  0  0  0  0
   -3.1738    9.4339   10.9611 H   0  0  0  0  0  0  0  0  0  0  0  0
   -1.2400   10.1427    9.0091 C   0  0  0  0  0  0  0  0  0  0  0  0
   -0.3156   10.8455   10.9029 C   0  0  0  0  0  0  0  0  0  0  0  0
   -0.2808   11.1350   11.9328 H   0  0  0  0  0  0  0  0  0  0  0  0
    0.6733   10.7939    9.9836 C   0  0  0  0  0  0  0  0  0  0  0  0
    1.7109   11.0337   10.0765 H   0  0  0  0  0  0  0  0  0  0  0  0
    0.6458   10.2537    7.5371 C   0  0  1  0  0  3  0  0  0  0  0  0
    1.9989   10.4333    7.2832 C   0  0  0  0  0  0  0  0  0  0  0  0
    2.6897   10.6326    8.0853 H   0  0  0  0  0  0  0  0  0  0  0  0
    2.4399   10.3462    5.9729 C   0  0  0  0  0  0  0  0  0  0  0  0
    3.4850   10.4812    5.7437 H   0  0  0  0  0  0  0  0  0  0  0  0
    1.5181   10.0880    4.9702 C   0  0  0  0  0  0  0  0  0  0  0  0
    1.8188   10.0202    3.9382 H   0  0  0  0  0  0  0  0  0  0  0  0
    0.1878    9.9109    5.3116 C   0  0  0  0  0  0  0  0  0  0  0  0
   -0.5553    9.7009    4.5518 H   0  0  0  0  0  0  0  0  0  0  0  0
   -7.6806   10.3012    5.8613 C   0  0  0  0  0  0  0  0  0  0  0  0
   -8.1399   11.0467    6.4907 H   0  0  0  0  0  0  0  0  0  0  0  0
   -8.2835    9.9198    5.0569 H   0  0  0  0  0  0  0  0  0  0  0  0
   -6.4424    9.8888    6.0498 C   0  0  0  0  0  0  0  0  0  0  0  0
   -5.9906    9.1479    5.4062 H   0  0  0  0  0  0  0  0  0  0  0  0
   -5.5539   10.4065    7.1462 C   0  0  0  0  0  0  0  0  0  0  0  0
   -6.0912   11.1377    7.7567 H   0  0  0  0  0  0  0  0  0  0  0  0
   -4.6547   10.8787    6.7163 H   0  0  0  0  0  0  0  0  0  0  0  0
   -3.8365    8.9214    8.1327 C   0  0  1  0  0  3  0  0  0  0  0  0
   -5.9269    8.5280    8.7489 C   0  0  0  0  0  0  0  0  0  0  0  0
   -6.9871    8.6721    8.7699 H   0  0  0  0  0  0  0  0  0  0  0  0
   -5.1503    7.6126    9.3721 C   0  0  0  0  0  0  0  0  0  0  0  0
   -5.3909    6.8158   10.0439 H   0  0  0  0  0  0  0  0  0  0  0  0
   -2.6966    7.1796    9.3860 C   0  0  0  0  0  0  0  0  0  0  0  0
   -1.7101    6.8211    8.4622 C   0  0  0  0  0  0  0  0  0  0  0  0
   -1.8705    6.9124    7.3860 H   0  0  0  0  0  0  0  0  0  0  0  0
   -0.5629    6.2225    8.9661 C   0  0  0  0  0  0  0  0  0  0  0  0
    0.2251    5.9116    8.2963 H   0  0  0  0  0  0  0  0  0  0  0  0
   -0.4527    6.0067   10.3330 C   0  0  0  0  0  0  0  0  0  0  0  0
    0.4245    5.5420   10.7523 H   0  0  0  0  0  0  0  0  0  0  0  0
   -1.5103    6.3775   11.1490 C   0  0  0  0  0  0  0  0  0  0  0  0
   -1.4911    6.2114   12.2166 H   0  0  0  0  0  0  0  0  0  0  0  0
  1  2  1  6  0  0  0
  1 39  1  0  0  0  0
  1 17  2  0  0  0  0
  3 18  1  0  0  0  0
  3 14  1  0  0  0  0
  4 17  1  0  0  0  0
  4 20  1  0  0  0  0
  5  1  1  0  0  0  0
  5 22  1  0  0  0  0
  6 40  1  0  0  0  0
  7 42  1  0  0  0  0
  7 44  1  0  0  0  0
  8 51  1  0  0  0  0
  9 12  2  0  0  0  0
 10  9  1  0  0  0  0
 11  9  1  0  0  0  0
 12 13  1  0  0  0  0
 12 14  1  0  0  0  0
 14 16  1  0  0  0  0
 14 15  1  0  0  0  0
 17  3  1  0  0  0  0
 18 19  1  0  0  0  0
 20 21  1  0  0  0  0
 20 18  2  0  0  0  0
 22 23  1  6  0  0  0
 22  4  1  0  0  0  0
 23 24  1  0  0  0  0
 25 23  2  0  0  0  0
 26 25  1  0  0  0  0
 27 29  2  0  0  0  0
 27 25  1  0  0  0  0
 28 27  1  0  0  0  0
 29  5  1  0  0  0  0
 30 29  1  0  0  0  0
 31 34  2  0  0  0  0
 31 32  1  0  0  0  0
 33 31  1  0  0  0  0
 34 36  1  0  0  0  0
 35 34  1  0  0  0  0
 36 37  1  0  0  0  0
 36  6  1  0  0  0  0
 38 36  1  0  0  0  0
 39  6  1  6  0  0  0
 39  7  1  0  0  0  0
 40 41  1  0  0  0  0
 40 42  2  0  0  0  0
 42 43  1  0  0  0  0
 44  8  2  0  0  0  0
 45 47  2  0  0  0  0
 45 44  1  0  0  0  0
 46 45  1  0  0  0  0
 47 49  1  0  0  0  0
 48 47  1  0  0  0  0
 49 50  1  0  0  0  0
 49 51  2  0  0  0  0
 51 52  1  0  0  0  0
M  END
$$$$
