CSD_code = JUSROG | q = 0 | S = 0 | Stoichiometry = C32H25Cl4N2PPd | MND = 4
 OpenBabel04212202053D

 65 70  0  0  0  0  0  0  0  0999 V2000
    1.4603   11.0204    8.7878 Pd  0  0  0  0  0  0  0  0  0  0  0  0
    2.9397   12.0386    7.3600 Cl  0  0  0  0  0  0  0  0  0  0  0  0
    0.1990    9.8748   10.3514 Cl  0  0  0  0  0  0  0  0  0  0  0  0
    3.7134   13.1311   14.5537 Cl  0  0  0  0  0  0  0  0  0  0  0  0
   -1.6565   16.9340   10.9575 Cl  0  0  0  0  0  0  0  0  0  0  0  0
    0.6250    9.8298    7.0917 P   0  0  0  0  0  4  0  0  0  0  0  0
    2.2990   11.9450   10.4580 N   0  0  0  0  0  0  0  0  0  0  0  0
    0.3447   13.3433    9.1565 N   0  0  0  0  0  2  0  0  0  0  0  0
   -0.7933   13.5909    7.0644 C   0  0  0  0  0  0  0  0  0  0  0  0
   -0.1381   12.7460    6.8367 H   0  0  0  0  0  0  0  0  0  0  0  0
   -0.5807   14.4002    6.3680 H   0  0  0  0  0  0  0  0  0  0  0  0
   -1.8339   13.2970    6.9362 H   0  0  0  0  0  0  0  0  0  0  0  0
    3.2771   11.2821   11.0522 C   0  0  0  0  0  0  0  0  0  0  0  0
    3.7373   11.6399   12.3273 C   0  0  0  0  0  0  0  0  0  0  0  0
    4.5337   11.0768   12.7869 H   0  0  0  0  0  0  0  0  0  0  0  0
    3.1586   12.6974   12.9828 C   0  0  0  0  0  0  0  0  0  0  0  0
    2.1213   13.4242   12.3624 C   0  0  0  0  0  0  0  0  0  0  0  0
    1.4871   14.5397   12.9698 C   0  0  0  0  0  0  0  0  0  0  0  0
    1.8026   14.8276   13.9604 H   0  0  0  0  0  0  0  0  0  0  0  0
    0.5176   15.2328   12.3257 C   0  0  0  0  0  0  0  0  0  0  0  0
    0.0460   16.0835   12.7923 H   0  0  0  0  0  0  0  0  0  0  0  0
    0.1079   14.8606   11.0201 C   0  0  0  0  0  0  0  0  0  0  0  0
   -0.8666   15.5605   10.2759 C   0  0  0  0  0  0  0  0  0  0  0  0
   -1.1773   15.1638    9.0001 C   0  0  0  0  0  0  0  0  0  0  0  0
   -1.9032   15.7025    8.4120 H   0  0  0  0  0  0  0  0  0  0  0  0
   -0.5303   14.0369    8.4639 C   0  0  0  0  0  0  0  0  0  0  0  0
    0.6922   13.7349   10.3900 C   0  0  0  0  0  0  0  0  0  0  0  0
    1.7250   12.9962   11.0725 C   0  0  0  0  0  0  0  0  0  0  0  0
    3.8743   10.1043   10.3521 C   0  0  0  0  0  0  0  0  0  0  0  0
    3.2802    9.2171   10.5975 H   0  0  0  0  0  0  0  0  0  0  0  0
    4.8970    9.9344   10.6823 H   0  0  0  0  0  0  0  0  0  0  0  0
    3.8592   10.2562    9.2612 H   0  0  0  0  0  0  0  0  0  0  0  0
    1.4300    8.2052    6.9474 C   0  0  0  0  0  0  0  0  0  0  0  0
    1.9990    7.6720    8.1000 C   0  0  0  0  0  0  0  0  0  0  0  0
    1.9293    8.2368    9.0254 H   0  0  0  0  0  0  0  0  0  0  0  0
    2.6165    6.4351    8.0639 C   0  0  0  0  0  0  0  0  0  0  0  0
    3.0561    6.0228    8.9603 H   0  0  0  0  0  0  0  0  0  0  0  0
    2.6718    5.7253    6.8753 C   0  0  0  0  0  0  0  0  0  0  0  0
    3.1583    4.7615    6.8427 H   0  0  0  0  0  0  0  0  0  0  0  0
    2.1048    6.2514    5.7256 C   0  0  0  0  0  0  0  0  0  0  0  0
    2.1478    5.6967    4.7994 H   0  0  0  0  0  0  0  0  0  0  0  0
    1.4837    7.4872    5.7558 C   0  0  0  0  0  0  0  0  0  0  0  0
    1.0511    7.8989    4.8542 H   0  0  0  0  0  0  0  0  0  0  0  0
    0.7021   10.4567    5.3849 C   0  0  0  0  0  0  0  0  0  0  0  0
    1.9411   10.5031    4.7502 C   0  0  0  0  0  0  0  0  0  0  0  0
    2.8186   10.1519    5.2735 H   0  0  0  0  0  0  0  0  0  0  0  0
    2.0438   11.0089    3.4686 C   0  0  0  0  0  0  0  0  0  0  0  0
    3.0072   11.0462    2.9823 H   0  0  0  0  0  0  0  0  0  0  0  0
    0.9154   11.4736    2.8112 C   0  0  0  0  0  0  0  0  0  0  0  0
    0.9981   11.8710    1.8102 H   0  0  0  0  0  0  0  0  0  0  0  0
   -0.3179   11.4306    3.4391 C   0  0  0  0  0  0  0  0  0  0  0  0
   -1.1990   11.7919    2.9286 H   0  0  0  0  0  0  0  0  0  0  0  0
   -0.4272   10.9277    4.7238 C   0  0  0  0  0  0  0  0  0  0  0  0
   -1.3917   10.8954    5.2123 H   0  0  0  0  0  0  0  0  0  0  0  0
   -1.1425    9.4480    7.2971 C   0  0  0  0  0  0  0  0  0  0  0  0
   -1.7334    8.3078    6.7671 C   0  0  0  0  0  0  0  0  0  0  0  0
   -1.1330    7.5862    6.2313 H   0  0  0  0  0  0  0  0  0  0  0  0
   -3.0895    8.0936    6.9409 C   0  0  0  0  0  0  0  0  0  0  0  0
   -3.5477    7.2026    6.5367 H   0  0  0  0  0  0  0  0  0  0  0  0
   -3.8574    9.0124    7.6376 C   0  0  0  0  0  0  0  0  0  0  0  0
   -4.9143    8.8369    7.7747 H   0  0  0  0  0  0  0  0  0  0  0  0
   -3.2688   10.1485    8.1705 C   0  0  0  0  0  0  0  0  0  0  0  0
   -3.8660   10.8576    8.7253 H   0  0  0  0  0  0  0  0  0  0  0  0
   -1.9138   10.3659    8.0041 C   0  0  0  0  0  0  0  0  0  0  0  0
   -1.4293   11.2322    8.4450 H   0  0  0  0  0  0  0  0  0  0  0  0
  1  3  1  0  0  0  0
  1  7  1  0  0  0  0
  2  1  1  0  0  0  0
  6 55  1  0  0  0  0
  6  1  1  0  0  0  0
  7 13  1  0  0  0  0
  7 28  1  0  0  0  0
  8 27  1  0  0  0  0
  9 26  1  0  0  0  0
 10  9  1  0  0  0  0
 11  9  1  0  0  0  0
 12  9  1  0  0  0  0
 13 14  2  0  0  0  0
 14 15  1  0  0  0  0
 14 16  1  0  0  0  0
 16  4  1  0  0  0  0
 17 18  1  0  0  0  0
 17 16  2  0  0  0  0
 18 19  1  0  0  0  0
 20 21  1  0  0  0  0
 20 18  2  0  0  0  0
 22 20  1  0  0  0  0
 23  5  1  0  0  0  0
 23 22  2  0  0  0  0
 24 23  1  0  0  0  0
 25 24  1  0  0  0  0
 26 24  2  0  0  0  0
 26  8  1  0  0  0  0
 27 22  1  0  0  0  0
 27 28  2  0  0  0  0
 28 17  1  0  0  0  0
 29 30  1  0  0  0  0
 29 31  1  0  0  0  0
 29 13  1  0  0  0  0
 32 29  1  0  0  0  0
 33  6  1  0  0  0  0
 33 34  1  0  0  0  0
 34 35  1  0  0  0  0
 36 34  2  0  0  0  0
 36 37  1  0  0  0  0
 38 36  1  0  0  0  0
 39 38  1  0  0  0  0
 40 42  1  0  0  0  0
 40 38  2  0  0  0  0
 41 40  1  0  0  0  0
 42 33  2  0  0  0  0
 43 42  1  0  0  0  0
 44  6  1  0  0  0  0
 45 46  1  0  0  0  0
 45 44  1  0  0  0  0
 47 45  2  0  0  0  0
 48 47  1  0  0  0  0
 49 51  2  0  0  0  0
 49 47  1  0  0  0  0
 50 49  1  0  0  0  0
 51 53  1  0  0  0  0
 52 51  1  0  0  0  0
 53 54  1  0  0  0  0
 53 44  2  0  0  0  0
 55 64  1  0  0  0  0
 56 58  1  0  0  0  0
 56 55  2  0  0  0  0
 57 56  1  0  0  0  0
 58 60  2  0  0  0  0
 59 58  1  0  0  0  0
 60 61  1  0  0  0  0
 60 62  1  0  0  0  0
 62 63  1  0  0  0  0
 64 62  2  0  0  0  0
 64 65  1  0  0  0  0
M  END
$$$$
