CSD_code = JUTMUG | q = 0 | S = 0 | Stoichiometry = C12H36I2P4W | MND = 6
 OpenBabel04212202053D

 55 54  0  0  0  0  0  0  0  0999 V2000
   -0.9226    0.1892   -2.2900 W   0  0  0  0  0  0  0  0  0  0  0  0
    0.7105    0.3423    0.0085 I   0  0  0  0  0  0  0  0  0  0  0  0
    0.1531    2.5741   -3.3524 I   0  0  0  0  0  0  0  0  0  0  0  0
   -2.2355    0.2730   -4.3728 P   0  0  0  0  0  4  0  0  0  0  0  0
   -1.7044   -1.8572   -1.1625 P   0  0  0  0  0  4  0  0  0  0  0  0
   -2.5872    1.5368   -1.1141 P   0  0  0  0  0  4  0  0  0  0  0  0
    0.8710   -1.0367   -3.4081 P   0  0  0  0  0  4  0  0  0  0  0  0
   -3.4306   -1.0721   -4.7768 C   0  0  0  0  0  0  0  0  0  0  0  0
   -3.3267    1.7246   -4.7107 C   0  0  0  0  0  0  0  0  0  0  0  0
   -1.3710    0.3510   -6.0029 C   0  0  0  0  0  0  0  0  0  0  0  0
   -3.0404   -2.8849   -1.9107 C   0  0  0  0  0  0  0  0  0  0  0  0
   -2.3819   -1.7599    0.5528 C   0  0  0  0  0  0  0  0  0  0  0  0
   -0.5022   -3.2050   -0.7749 C   0  0  0  0  0  0  0  0  0  0  0  0
   -2.8093    3.3097   -1.5513 C   0  0  0  0  0  0  0  0  0  0  0  0
   -2.4438    1.8276    0.6961 C   0  0  0  0  0  0  0  0  0  0  0  0
   -4.3512    0.9784   -1.1775 C   0  0  0  0  0  0  0  0  0  0  0  0
    1.9170   -0.2103   -4.6749 C   0  0  0  0  0  0  0  0  0  0  0  0
    2.2825   -1.6964   -2.4301 C   0  0  0  0  0  0  0  0  0  0  0  0
    0.4153   -2.5590   -4.3581 C   0  0  0  0  0  0  0  0  0  0  0  0
   -4.1963   -1.1344   -4.0055 H   0  0  0  0  0  0  0  0  0  0  0  0
   -2.9046   -2.0240   -4.8329 H   0  0  0  0  0  0  0  0  0  0  0  0
   -3.9070   -0.8712   -5.7364 H   0  0  0  0  0  0  0  0  0  0  0  0
   -4.0652    1.8606   -3.9239 H   0  0  0  0  0  0  0  0  0  0  0  0
   -3.8419    1.5835   -5.6616 H   0  0  0  0  0  0  0  0  0  0  0  0
   -2.7051    2.6176   -4.7765 H   0  0  0  0  0  0  0  0  0  0  0  0
   -0.7438   -0.5237   -6.1594 H   0  0  0  0  0  0  0  0  0  0  0  0
   -0.7509    1.2465   -6.0326 H   0  0  0  0  0  0  0  0  0  0  0  0
   -2.1082    0.4061   -6.8048 H   0  0  0  0  0  0  0  0  0  0  0  0
   -3.9422   -2.2854   -2.0257 H   0  0  0  0  0  0  0  0  0  0  0  0
   -3.2589   -3.7371   -1.2671 H   0  0  0  0  0  0  0  0  0  0  0  0
   -2.7283   -3.2482   -2.8883 H   0  0  0  0  0  0  0  0  0  0  0  0
   -3.2642   -1.1252    0.5929 H   0  0  0  0  0  0  0  0  0  0  0  0
   -1.6171   -1.3528    1.2136 H   0  0  0  0  0  0  0  0  0  0  0  0
   -2.6491   -2.7597    0.8970 H   0  0  0  0  0  0  0  0  0  0  0  0
    0.2474   -2.8138   -0.0869 H   0  0  0  0  0  0  0  0  0  0  0  0
   -0.0078   -3.5689   -1.6727 H   0  0  0  0  0  0  0  0  0  0  0  0
   -1.0224   -4.0344   -0.2942 H   0  0  0  0  0  0  0  0  0  0  0  0
   -2.9812    3.4529   -2.6145 H   0  0  0  0  0  0  0  0  0  0  0  0
   -1.8952    3.8397   -1.2815 H   0  0  0  0  0  0  0  0  0  0  0  0
   -3.6446    3.7255   -0.9861 H   0  0  0  0  0  0  0  0  0  0  0  0
   -1.5598    2.4411    0.8725 H   0  0  0  0  0  0  0  0  0  0  0  0
   -2.3279    0.9006    1.2510 H   0  0  0  0  0  0  0  0  0  0  0  0
   -3.3278    2.3587    1.0520 H   0  0  0  0  0  0  0  0  0  0  0  0
   -4.6535    0.7853   -2.2059 H   0  0  0  0  0  0  0  0  0  0  0  0
   -5.0055    1.7366   -0.7472 H   0  0  0  0  0  0  0  0  0  0  0  0
   -4.4674    0.0528   -0.6159 H   0  0  0  0  0  0  0  0  0  0  0  0
    1.3215    0.2737   -5.4443 H   0  0  0  0  0  0  0  0  0  0  0  0
    2.5823   -0.9428   -5.1343 H   0  0  0  0  0  0  0  0  0  0  0  0
    2.5129    0.5547   -4.1763 H   0  0  0  0  0  0  0  0  0  0  0  0
    1.9539   -2.3156   -1.6000 H   0  0  0  0  0  0  0  0  0  0  0  0
    2.8353   -0.8491   -2.0230 H   0  0  0  0  0  0  0  0  0  0  0  0
    2.9408   -2.2745   -3.0801 H   0  0  0  0  0  0  0  0  0  0  0  0
   -0.1938   -3.2226   -3.7458 H   0  0  0  0  0  0  0  0  0  0  0  0
    1.3119   -3.0890   -4.6793 H   0  0  0  0  0  0  0  0  0  0  0  0
   -0.1674   -2.2873   -5.2369 H   0  0  0  0  0  0  0  0  0  0  0  0
  1  5  1  0  0  0  0
  1  6  1  0  0  0  0
  1  2  1  0  0  0  0
  3  1  1  0  0  0  0
  4  1  1  0  0  0  0
  5 13  1  0  0  0  0
  5 12  1  0  0  0  0
  6 15  1  0  0  0  0
  7 18  1  0  0  0  0
  7  1  1  0  0  0  0
  8  4  1  0  0  0  0
  8 20  1  0  0  0  0
  9  4  1  0  0  0  0
  9 23  1  0  0  0  0
 10  4  1  0  0  0  0
 11 30  1  0  0  0  0
 11  5  1  0  0  0  0
 12 32  1  0  0  0  0
 12 34  1  0  0  0  0
 12 33  1  0  0  0  0
 13 37  1  0  0  0  0
 13 35  1  0  0  0  0
 14 39  1  0  0  0  0
 14  6  1  0  0  0  0
 14 40  1  0  0  0  0
 15 41  1  0  0  0  0
 15 43  1  0  0  0  0
 15 42  1  0  0  0  0
 16  6  1  0  0  0  0
 16 45  1  0  0  0  0
 16 46  1  0  0  0  0
 17 49  1  0  0  0  0
 17  7  1  0  0  0  0
 18 51  1  0  0  0  0
 18 50  1  0  0  0  0
 19 53  1  0  0  0  0
 19  7  1  0  0  0  0
 21  8  1  0  0  0  0
 22  8  1  0  0  0  0
 24  9  1  0  0  0  0
 25  9  1  0  0  0  0
 26 10  1  0  0  0  0
 27 10  1  0  0  0  0
 28 10  1  0  0  0  0
 29 11  1  0  0  0  0
 31 11  1  0  0  0  0
 36 13  1  0  0  0  0
 38 14  1  0  0  0  0
 44 16  1  0  0  0  0
 47 17  1  0  0  0  0
 48 17  1  0  0  0  0
 52 18  1  0  0  0  0
 54 19  1  0  0  0  0
 55 19  1  0  0  0  0
M  END
$$$$
