CSD_code = JUXPUN | q = 1 | S = 0 | Stoichiometry = C18H24ClFeN4O(1+) | MND = 6
 OpenBabel04212202053D

 49 54  0  0  1  0  0  0  0  0999 V2000
    0.9404    8.3769    4.5897 Fe  0  0  0  0  0  0  0  0  0  0  0  0
    2.8863    9.2819    4.2530 Cl  0  0  0  0  0  0  0  0  0  0  0  0
    0.6392    9.6631    6.1479 O   0  0  0  0  0  0  0  0  0  0  0  0
   -0.6884    9.6125    6.6543 C   0  0  0  0  0  0  0  0  0  0  0  0
   -1.5732    9.0014    5.5739 C   0  0  0  0  0  0  0  0  0  0  0  0
   -0.9074    7.8384    4.9723 N   0  0  2  0  0  4  0  0  0  0  0  0
   -0.9495    6.6719    5.8556 C   0  0  0  0  0  0  0  0  0  0  0  0
    0.4453    6.0535    5.9512 C   0  0  0  0  0  0  0  0  0  0  0  0
    1.4860    7.0911    5.9823 N   0  0  2  0  0  4  0  0  0  0  0  0
    1.6232    7.7492    7.2883 C   0  0  0  0  0  0  0  0  0  0  0  0
    1.6449    9.2692    7.0710 C   0  0  0  0  0  0  0  0  0  0  0  0
   -1.4188    7.6216    3.6240 C   0  0  0  0  0  0  0  0  0  0  0  0
   -0.9859    8.8061    2.7980 C   0  0  2  0  0  3  0  0  0  0  0  0
    0.1689    9.3638    3.2032 N   0  0  0  0  0  0  0  0  0  0  0  0
    0.6123   10.4454    2.5754 C   0  0  0  0  0  0  0  0  0  0  0  0
   -0.0517   11.0054    1.4972 C   0  0  0  0  0  0  0  0  0  0  0  0
   -1.2305   10.4238    1.0592 C   0  0  0  0  0  0  0  0  0  0  0  0
   -1.7119    9.3084    1.7350 C   0  0  0  0  0  0  0  0  0  0  0  0
    2.7352    6.5314    5.4730 C   0  0  0  0  0  0  0  0  0  0  0  0
    2.5678    6.2952    4.0002 C   0  0  1  0  0  3  0  0  0  0  0  0
    1.5951    7.0074    3.4083 N   0  0  0  0  0  0  0  0  0  0  0  0
    1.4494    6.8788    2.0917 C   0  0  0  0  0  0  0  0  0  0  0  0
    2.2353    6.0482    1.3153 C   0  0  0  0  0  0  0  0  0  0  0  0
    3.2307    5.3041    1.9279 C   0  0  0  0  0  0  0  0  0  0  0  0
    3.3915    5.4329    3.2986 C   0  0  0  0  0  0  0  0  0  0  0  0
   -1.0242   10.6311    6.8808 H   0  0  0  0  0  0  0  0  0  0  0  0
   -0.7261    9.0296    7.5776 H   0  0  0  0  0  0  0  0  0  0  0  0
   -1.7136    9.7482    4.7933 H   0  0  0  0  0  0  0  0  0  0  0  0
   -2.5568    8.7352    5.9779 H   0  0  0  0  0  0  0  0  0  0  0  0
   -1.6591    5.9227    5.4928 H   0  0  0  0  0  0  0  0  0  0  0  0
   -1.2881    6.9854    6.8440 H   0  0  0  0  0  0  0  0  0  0  0  0
    0.6183    5.4492    5.0610 H   0  0  0  0  0  0  0  0  0  0  0  0
    0.5140    5.3932    6.8241 H   0  0  0  0  0  0  0  0  0  0  0  0
    2.5412    7.4430    7.7955 H   0  0  0  0  0  0  0  0  0  0  0  0
    0.7828    7.4657    7.9255 H   0  0  0  0  0  0  0  0  0  0  0  0
    1.5380    9.8090    8.0167 H   0  0  0  0  0  0  0  0  0  0  0  0
    2.5749    9.5637    6.5804 H   0  0  0  0  0  0  0  0  0  0  0  0
   -2.5102    7.5054    3.6022 H   0  0  0  0  0  0  0  0  0  0  0  0
   -0.9626    6.7106    3.2323 H   0  0  0  0  0  0  0  0  0  0  0  0
    1.5370   10.8491    2.9541 H   0  0  0  0  0  0  0  0  0  0  0  0
    0.3520   11.8788    1.0131 H   0  0  0  0  0  0  0  0  0  0  0  0
   -1.7724   10.8284    0.2197 H   0  0  0  0  0  0  0  0  0  0  0  0
   -2.6346    8.8356    1.4373 H   0  0  0  0  0  0  0  0  0  0  0  0
    3.0253    5.6129    5.9986 H   0  0  0  0  0  0  0  0  0  0  0  0
    3.5193    7.2830    5.5945 H   0  0  0  0  0  0  0  0  0  0  0  0
    0.6810    7.4806    1.6335 H   0  0  0  0  0  0  0  0  0  0  0  0
    2.0728    5.9972    0.2516 H   0  0  0  0  0  0  0  0  0  0  0  0
    3.8697    4.6510    1.3563 H   0  0  0  0  0  0  0  0  0  0  0  0
    4.1607    4.8876    3.8212 H   0  0  0  0  0  0  0  0  0  0  0  0
  1  6  1  0  0  0  0
  1  9  1  0  0  0  0
  2  1  1  0  0  0  0
  3  4  1  0  0  0  0
  3 11  1  0  0  0  0
  4 26  1  0  0  0  0
  4 27  1  0  0  0  0
  5 29  1  0  0  0  0
  5  4  1  0  0  0  0
  6 12  1  6  0  0  0
  6  5  1  0  0  0  0
  6  7  1  0  0  0  0
  7  8  1  0  0  0  0
  7 31  1  0  0  0  0
  8  9  1  0  0  0  0
  8 33  1  0  0  0  0
  9 19  1  6  0  0  0
  9 10  1  0  0  0  0
 10 34  1  0  0  0  0
 10 35  1  0  0  0  0
 11 10  1  0  0  0  0
 11 36  1  0  0  0  0
 13 18  1  1  0  0  0
 13 14  1  0  0  0  0
 13 12  1  0  0  0  0
 14  1  1  0  0  0  0
 15 40  1  0  0  0  0
 15 14  1  0  0  0  0
 16 15  2  0  0  0  0
 17 16  1  0  0  0  0
 17 18  2  0  0  0  0
 19 45  1  0  0  0  0
 19 44  1  0  0  0  0
 20 25  1  6  0  0  0
 20 19  1  0  0  0  0
 21 20  1  0  0  0  0
 21  1  1  0  0  0  0
 22 21  1  0  0  0  0
 23 24  1  0  0  0  0
 23 22  2  0  0  0  0
 24 25  2  0  0  0  0
 25 49  1  0  0  0  0
 28  5  1  0  0  0  0
 30  7  1  0  0  0  0
 32  8  1  0  0  0  0
 37 11  1  0  0  0  0
 38 12  1  0  0  0  0
 39 12  1  0  0  0  0
 41 16  1  0  0  0  0
 42 17  1  0  0  0  0
 43 18  1  0  0  0  0
 46 22  1  0  0  0  0
 47 23  1  0  0  0  0
 48 24  1  0  0  0  0
M  END
$$$$
