CSD_code = JUXRAV | q = 0 | S = 0 | Stoichiometry = C8H11ClS2Ti | MND = 8
 OpenBabel04212202053D

 23 24  0  0  1  0  0  0  0  0999 V2000
    4.2002    2.5799    2.3623 Ti  0  0  0  0  0  0  0  0  0  0  0  0
    5.3454    4.3865    2.2280 Cl  0  0  0  0  0  0  0  0  0  0  0  0
    5.8624    1.0238    2.1971 S   0  0  0  0  0  0  0  0  0  0  0  0
    3.8532    2.4808    4.6175 S   0  0  0  0  0  0  0  0  0  0  0  0
    2.1700    3.3006    1.5897 C   0  0  1  0  0  0  0  0  0  0  0  0
    3.0057    3.0923    0.4706 C   0  0  0  0  0  0  0  0  0  0  0  0
    3.3301    1.7179    0.4173 C   0  0  0  0  0  0  0  0  0  0  0  0
    2.6898    1.0749    1.5025 C   0  0  0  0  0  0  0  0  0  0  0  0
    1.9665    2.0504    2.2216 C   0  0  0  0  0  0  0  0  0  0  0  0
    7.0439    1.6491    3.4449 C   0  0  0  0  0  0  0  0  0  0  0  0
    6.5038    1.5893    4.8711 C   0  0  0  0  0  0  0  0  0  0  0  0
    5.5569    2.7294    5.2351 C   0  0  0  0  0  0  0  0  0  0  0  0
    1.6826    4.2315    1.8572 H   0  0  0  0  0  0  0  0  0  0  0  0
    3.2740    3.8363   -0.2704 H   0  0  0  0  0  0  0  0  0  0  0  0
    3.8891    1.2244   -0.3694 H   0  0  0  0  0  0  0  0  0  0  0  0
    2.6709    0.0068    1.6832 H   0  0  0  0  0  0  0  0  0  0  0  0
    1.2963    1.8612    3.0519 H   0  0  0  0  0  0  0  0  0  0  0  0
    7.9168    0.9988    3.3548 H   0  0  0  0  0  0  0  0  0  0  0  0
    7.3249    2.6692    3.1628 H   0  0  0  0  0  0  0  0  0  0  0  0
    5.9918    0.6324    5.0231 H   0  0  0  0  0  0  0  0  0  0  0  0
    7.3575    1.6306    5.5549 H   0  0  0  0  0  0  0  0  0  0  0  0
    5.9182    3.6906    4.8548 H   0  0  0  0  0  0  0  0  0  0  0  0
    5.4541    2.7893    6.3208 H   0  0  0  0  0  0  0  0  0  0  0  0
  1  4  1  0  0  0  0
  2  1  1  0  0  0  0
  3  1  1  0  0  0  0
  3 10  1  0  0  0  0
  4 12  1  0  0  0  0
  5 13  1  1  0  0  0
  5  9  1  0  0  0  0
  5  1  1  0  0  0  0
  6  5  1  0  0  0  0
  7  6  2  0  0  0  0
  7  8  1  0  0  0  0
  8 16  1  0  0  0  0
  8  9  2  0  0  0  0
  9 17  1  0  0  0  0
 10 11  1  0  0  0  0
 11 20  1  0  0  0  0
 11 12  1  0  0  0  0
 11 21  1  0  0  0  0
 12 23  1  0  0  0  0
 14  6  1  0  0  0  0
 15  7  1  0  0  0  0
 18 10  1  0  0  0  0
 19 10  1  0  0  0  0
 22 12  1  0  0  0  0
M  END
$$$$
