CSD_code = JUYCUB | q = 0 | S = 0 | Stoichiometry = C37H26ClOP2Rh | MND = 4
 OpenBabel04212202053D

 68 75  0  0  0  0  0  0  0  0999 V2000
   17.5782    2.7083   10.7292 Rh  0  0  0  0  0  0  0  0  0  0  0  0
   16.0152    2.7266   12.3381 Cl  0  0  0  0  0  0  0  0  0  0  0  0
   15.8014    2.5574    9.3336 P   0  0  0  0  0  4  0  0  0  0  0  0
   15.9018    2.4177    7.5268 C   0  0  0  0  0  0  0  0  0  0  0  0
   15.0857    1.3893    7.0305 C   0  0  0  0  0  0  0  0  0  0  0  0
   14.3463    0.6965    8.0778 C   0  0  0  0  0  0  0  0  0  0  0  0
   14.5966    1.2036    9.3666 C   0  0  0  0  0  0  0  0  0  0  0  0
   16.6716    3.1897    6.6768 C   0  0  0  0  0  0  0  0  0  0  0  0
   16.6273    2.9398    5.3146 C   0  0  0  0  0  0  0  0  0  0  0  0
   15.8252    1.9236    4.8164 C   0  0  0  0  0  0  0  0  0  0  0  0
   15.0547    1.1461    5.6645 C   0  0  0  0  0  0  0  0  0  0  0  0
   13.9748    0.6609   10.4772 C   0  0  0  0  0  0  0  0  0  0  0  0
   13.0863   -0.3890   10.3049 C   0  0  0  0  0  0  0  0  0  0  0  0
   12.8306   -0.8918    9.0381 C   0  0  0  0  0  0  0  0  0  0  0  0
   13.4562   -0.3568    7.9241 C   0  0  0  0  0  0  0  0  0  0  0  0
   14.7963    4.0691    9.4935 C   0  0  0  0  0  0  0  0  0  0  0  0
   15.4162    5.1913   10.0328 C   0  0  0  0  0  0  0  0  0  0  0  0
   14.7156    6.3765   10.1556 C   0  0  0  0  0  0  0  0  0  0  0  0
   13.3959    6.4431    9.7384 C   0  0  0  0  0  0  0  0  0  0  0  0
   12.7789    5.3269    9.1962 C   0  0  0  0  0  0  0  0  0  0  0  0
   13.4755    4.1389    9.0684 C   0  0  0  0  0  0  0  0  0  0  0  0
   19.0261    2.8887   12.4603 P   0  0  0  0  0  4  0  0  0  0  0  0
   19.0328    4.2859   13.6150 C   0  0  0  0  0  0  0  0  0  0  0  0
   20.3298    4.7974   13.8074 C   0  0  0  0  0  0  0  0  0  0  0  0
   21.3527    4.0732   13.0639 C   0  0  0  0  0  0  0  0  0  0  0  0
   20.8296    3.0161   12.3032 C   0  0  0  0  0  0  0  0  0  0  0  0
   17.9421    4.8585   14.2450 C   0  0  0  0  0  0  0  0  0  0  0  0
   18.1429    5.9429   15.0849 C   0  0  0  0  0  0  0  0  0  0  0  0
   19.4183    6.4492   15.2849 C   0  0  0  0  0  0  0  0  0  0  0  0
   20.5122    5.8843   14.6505 C   0  0  0  0  0  0  0  0  0  0  0  0
   21.6542    2.2122   11.5382 C   0  0  0  0  0  0  0  0  0  0  0  0
   23.0175    2.4596   11.5308 C   0  0  0  0  0  0  0  0  0  0  0  0
   23.5418    3.5051   12.2768 C   0  0  0  0  0  0  0  0  0  0  0  0
   22.7194    4.3140   13.0428 C   0  0  0  0  0  0  0  0  0  0  0  0
   18.8881    1.4113   13.5176 C   0  0  0  0  0  0  0  0  0  0  0  0
   19.3542    1.3795   14.8260 C   0  0  0  0  0  0  0  0  0  0  0  0
   19.2430    0.2138   15.5619 C   0  0  0  0  0  0  0  0  0  0  0  0
   18.6769   -0.9177   14.9964 C   0  0  0  0  0  0  0  0  0  0  0  0
   18.2188   -0.8889   13.6890 C   0  0  0  0  0  0  0  0  0  0  0  0
   18.3248    0.2738   12.9491 C   0  0  0  0  0  0  0  0  0  0  0  0
   19.6557    2.6648    8.5946 O   0  0  0  0  0  1  0  0  0  0  0  0
   18.8519    2.6851    9.4195 C   0  0  0  0  0  2  0  0  0  0  0  0
   17.2981    3.9748    7.0775 H   0  0  0  0  0  0  0  0  0  0  0  0
   17.2223    3.5351    4.6379 H   0  0  0  0  0  0  0  0  0  0  0  0
   15.8019    1.7353    3.7529 H   0  0  0  0  0  0  0  0  0  0  0  0
   14.4356    0.3575    5.2626 H   0  0  0  0  0  0  0  0  0  0  0  0
   14.1862    1.0549   11.4605 H   0  0  0  0  0  0  0  0  0  0  0  0
   12.5923   -0.8194   11.1635 H   0  0  0  0  0  0  0  0  0  0  0  0
   12.1373   -1.7116    8.9171 H   0  0  0  0  0  0  0  0  0  0  0  0
   13.2508   -0.7581    6.9425 H   0  0  0  0  0  0  0  0  0  0  0  0
   16.4527    5.1156   10.3705 H   0  0  0  0  0  0  0  0  0  0  0  0
   15.1943    7.2465   10.5808 H   0  0  0  0  0  0  0  0  0  0  0  0
   12.8445    7.3665    9.8397 H   0  0  0  0  0  0  0  0  0  0  0  0
   11.7491    5.3822    8.8744 H   0  0  0  0  0  0  0  0  0  0  0  0
   12.9956    3.2653    8.6490 H   0  0  0  0  0  0  0  0  0  0  0  0
   16.9518    4.4611   14.0771 H   0  0  0  0  0  0  0  0  0  0  0  0
   17.2999    6.3975   15.5840 H   0  0  0  0  0  0  0  0  0  0  0  0
   19.5616    7.2957   15.9409 H   0  0  0  0  0  0  0  0  0  0  0  0
   21.5005    6.2891   14.8119 H   0  0  0  0  0  0  0  0  0  0  0  0
   21.2327    1.4048   10.9552 H   0  0  0  0  0  0  0  0  0  0  0  0
   23.6745    1.8399   10.9388 H   0  0  0  0  0  0  0  0  0  0  0  0
   24.6057    3.6920   12.2588 H   0  0  0  0  0  0  0  0  0  0  0  0
   23.1416    5.1249   13.6179 H   0  0  0  0  0  0  0  0  0  0  0  0
   19.7924    2.2651   15.2655 H   0  0  0  0  0  0  0  0  0  0  0  0
   19.5972    0.1876   16.5823 H   0  0  0  0  0  0  0  0  0  0  0  0
   18.5894   -1.8236   15.5783 H   0  0  0  0  0  0  0  0  0  0  0  0
   17.7749   -1.7708   13.2505 H   0  0  0  0  0  0  0  0  0  0  0  0
   17.9551    0.3202   11.9222 H   0  0  0  0  0  0  0  0  0  0  0  0
  1  2  1  0  0  0  0
  1 22  1  0  0  0  0
  3  7  1  0  0  0  0
  3 16  1  0  0  0  0
  3  1  1  0  0  0  0
  4  3  1  0  0  0  0
  5  4  1  0  0  0  0
  5  6  1  0  0  0  0
  6  7  1  0  0  0  0
  7 12  2  0  0  0  0
  8 43  1  0  0  0  0
  8  4  2  0  0  0  0
  9  8  1  0  0  0  0
 10  9  2  0  0  0  0
 10 11  1  0  0  0  0
 11  5  2  0  0  0  0
 12 47  1  0  0  0  0
 13 12  1  0  0  0  0
 13 48  1  0  0  0  0
 14 13  2  0  0  0  0
 15  6  2  0  0  0  0
 15 14  1  0  0  0  0
 16 17  1  0  0  0  0
 17 18  2  0  0  0  0
 17 51  1  0  0  0  0
 18 52  1  0  0  0  0
 19 53  1  0  0  0  0
 19 18  1  0  0  0  0
 20 19  2  0  0  0  0
 21 20  1  0  0  0  0
 21 16  2  0  0  0  0
 22 35  1  0  0  0  0
 22 23  1  0  0  0  0
 23 24  2  0  0  0  0
 23 27  1  0  0  0  0
 24 30  1  0  0  0  0
 25 24  1  0  0  0  0
 26 22  1  0  0  0  0
 26 25  2  0  0  0  0
 27 28  2  0  0  0  0
 28 29  1  0  0  0  0
 28 57  1  0  0  0  0
 29 58  1  0  0  0  0
 30 59  1  0  0  0  0
 30 29  2  0  0  0  0
 31 26  1  0  0  0  0
 32 31  2  0  0  0  0
 32 33  1  0  0  0  0
 33 34  2  0  0  0  0
 34 25  1  0  0  0  0
 34 63  1  0  0  0  0
 35 36  1  0  0  0  0
 36 64  1  0  0  0  0
 36 37  2  0  0  0  0
 37 65  1  0  0  0  0
 38 37  1  0  0  0  0
 38 66  1  0  0  0  0
 39 38  2  0  0  0  0
 40 35  2  0  0  0  0
 40 39  1  0  0  0  0
 41 42  1  0  0  0  0
 42  1  1  0  0  0  0
 44  9  1  0  0  0  0
 45 10  1  0  0  0  0
 46 11  1  0  0  0  0
 49 14  1  0  0  0  0
 50 15  1  0  0  0  0
 54 20  1  0  0  0  0
 55 21  1  0  0  0  0
 56 27  1  0  0  0  0
 60 31  1  0  0  0  0
 61 32  1  0  0  0  0
 62 33  1  0  0  0  0
 67 39  1  0  0  0  0
 68 40  1  0  0  0  0
M  END
$$$$
