CSD_code = JUYMUN | q = 0 | S = 0 | Stoichiometry = C20H27ClIrN | MND = 8
 OpenBabel04212202053D

 50 52  0  0  1  0  0  0  0  0999 V2000
    0.6398    2.6022    2.8236 Ir  0  0  1  0  0  0  0  0  0  0  0  0
   -1.4038    3.6390    3.3054 Cl  0  0  0  0  0 15  0  0  0  0  0  0
    0.3038    2.9621    0.8376 N   0  0  0  0  0  0  0  0  0  0  0  0
   -0.4908    1.0074    2.3052 C   0  0  0  0  0  0  0  0  0  0  0  0
   -0.9185   -0.0318    3.1206 C   0  0  0  0  0  0  0  0  0  0  0  0
   -0.6364   -0.0579    4.1623 H   0  0  0  0  0  0  0  0  0  0  0  0
   -1.7223   -1.0421    2.6183 C   0  0  0  0  0  0  0  0  0  0  0  0
   -2.0352   -1.8467    3.2686 H   0  0  0  0  0  0  0  0  0  0  0  0
   -2.1428   -1.0304    1.2932 C   0  0  0  0  0  0  0  0  0  0  0  0
   -2.7773   -1.8219    0.9227 H   0  0  0  0  0  0  0  0  0  0  0  0
   -1.7619    0.0009    0.4637 C   0  0  0  0  0  0  0  0  0  0  0  0
   -2.0976    0.0406   -0.5628 H   0  0  0  0  0  0  0  0  0  0  0  0
   -0.9399    1.0137    0.9635 C   0  0  0  0  0  0  0  0  0  0  0  0
   -0.4838    2.1445    0.2195 C   0  0  0  0  0  3  0  0  0  0  0  0
   -0.7814    2.3141   -0.8125 H   0  0  0  0  0  0  0  0  0  0  0  0
    0.7748    4.1465    0.1608 C   0  0  0  0  0  0  0  0  0  0  0  0
    0.5481    4.0826   -0.9113 H   0  0  0  0  0  0  0  0  0  0  0  0
    1.8605    4.2076    0.2800 H   0  0  0  0  0  0  0  0  0  0  0  0
    0.1349    5.4111    0.7429 C   0  0  0  0  0  0  0  0  0  0  0  0
    0.3200    5.4416    1.8169 H   0  0  0  0  0  0  0  0  0  0  0  0
   -0.9457    5.3553    0.6051 H   0  0  0  0  0  0  0  0  0  0  0  0
    0.6866    6.6643    0.0785 C   0  0  0  0  0  0  0  0  0  0  0  0
    1.7639    6.7347    0.2181 H   0  0  0  0  0  0  0  0  0  0  0  0
    0.2260    7.5502    0.5073 H   0  0  0  0  0  0  0  0  0  0  0  0
    0.4824    6.6559   -0.9903 H   0  0  0  0  0  0  0  0  0  0  0  0
    1.8019    3.8662    4.4284 C   0  0  0  0  0  0  0  0  0  0  0  0
    2.6616    3.7399    3.3383 C   0  0  0  0  0  0  0  0  0  0  0  0
    2.8362    2.3269    3.0694 C   0  0  1  0  0  0  0  0  0  0  0  0
    2.1736    1.5936    4.1052 C   0  0  2  0  0  3  0  0  0  0  0  0
    1.4310    2.5336    4.8767 C   0  0  2  0  0  0  0  0  0  0  0  0
    1.3587    5.1208    5.1049 C   0  0  0  0  0  0  0  0  0  0  0  0
    1.6890    5.1222    6.1444 H   0  0  0  0  0  0  0  0  0  0  0  0
    0.2705    5.1896    5.0977 H   0  0  0  0  0  0  0  0  0  0  0  0
    1.7652    5.9995    4.6099 H   0  0  0  0  0  0  0  0  0  0  0  0
    3.4000    4.8465    2.6536 C   0  0  0  0  0  0  0  0  0  0  0  0
    2.7806    5.7356    2.5495 H   0  0  0  0  0  0  0  0  0  0  0  0
    3.7398    4.5429    1.6654 H   0  0  0  0  0  0  0  0  0  0  0  0
    4.2822    5.1177    3.2378 H   0  0  0  0  0  0  0  0  0  0  0  0
    3.8493    1.7508    2.1301 C   0  0  0  0  0  0  0  0  0  0  0  0
    4.8404    1.7787    2.5882 H   0  0  0  0  0  0  0  0  0  0  0  0
    3.8945    2.3114    1.1980 H   0  0  0  0  0  0  0  0  0  0  0  0
    3.6119    0.7160    1.8944 H   0  0  0  0  0  0  0  0  0  0  0  0
    2.3658    0.1351    4.3834 C   0  0  0  0  0  0  0  0  0  0  0  0
    2.2303   -0.4657    3.4861 H   0  0  0  0  0  0  0  0  0  0  0  0
    1.6665   -0.2147    5.1372 H   0  0  0  0  0  0  0  0  0  0  0  0
    3.3785   -0.0308    4.7553 H   0  0  0  0  0  0  0  0  0  0  0  0
    0.7015    2.2774    6.1592 C   0  0  0  0  0  0  0  0  0  0  0  0
    0.4018    1.2357    6.2429 H   0  0  0  0  0  0  0  0  0  0  0  0
   -0.1926    2.8951    6.2157 H   0  0  0  0  0  0  0  0  0  0  0  0
    1.3414    2.5217    7.0097 H   0  0  0  0  0  0  0  0  0  0  0  0
  1  4  1  6  0  0  0
  1 28  1  0  0  0  0
  1 30  1  0  0  0  0
  3  1  1  0  0  0  0
  4  5  1  0  0  0  0
  5  6  1  0  0  0  0
  7  5  2  0  0  0  0
  7  8  1  0  0  0  0
  9  7  1  0  0  0  0
 10  9  1  0  0  0  0
 11 13  1  0  0  0  0
 11  9  2  0  0  0  0
 12 11  1  0  0  0  0
 13  4  2  0  0  0  0
 14  3  1  0  0  0  0
 14 13  1  0  0  0  0
 15 14  1  0  0  0  0
 16 18  1  0  0  0  0
 16 19  1  0  0  0  0
 16  3  1  0  0  0  0
 17 16  1  0  0  0  0
 19 20  1  0  0  0  0
 21 19  1  0  0  0  0
 22 23  1  0  0  0  0
 22 24  1  0  0  0  0
 22 19  1  0  0  0  0
 25 22  1  0  0  0  0
 26 30  1  0  0  0  0
 26 31  1  0  0  0  0
 27 26  2  0  0  0  0
 28 39  1  6  0  0  0
 28 27  1  0  0  0  0
 28 29  1  0  0  0  0
 29 43  1  1  0  0  0
 29 30  1  0  0  0  0
 30 47  1  1  0  0  0
 31 32  1  0  0  0  0
 33 31  1  0  0  0  0
 34 31  1  0  0  0  0
 35 38  1  0  0  0  0
 35 27  1  0  0  0  0
 36 35  1  0  0  0  0
 37 35  1  0  0  0  0
 39 40  1  0  0  0  0
 41 39  1  0  0  0  0
 42 39  1  0  0  0  0
 43 46  1  0  0  0  0
 43 45  1  0  0  0  0
 44 43  1  0  0  0  0
 47 49  1  0  0  0  0
 47 48  1  0  0  0  0
 47 50  1  0  0  0  0
M  END
$$$$
