CSD_code = JUYNAU | q = 0 | S = 0 | Stoichiometry = C20H27ClNRh | MND = 8
 OpenBabel04212202053D

 50 52  0  0  1  0  0  0  0  0999 V2000
    4.6503    2.6567    3.7328 Rh  0  0  2  0  0  0  0  0  0  0  0  0
    2.6048    3.6092    3.2760 Cl  0  0  0  0  0 15  0  0  0  0  0  0
    4.3392    2.9744    5.7251 N   0  0  0  0  0  0  0  0  0  0  0  0
    3.5497    1.0536    4.1949 C   0  0  0  0  0  0  0  0  0  0  0  0
    3.0940    0.0642    3.3342 C   0  0  0  0  0  0  0  0  0  0  0  0
    3.3277    0.1018    2.2792 H   0  0  0  0  0  0  0  0  0  0  0  0
    2.3150   -0.9760    3.8144 C   0  0  0  0  0  0  0  0  0  0  0  0
    1.9772   -1.7455    3.1344 H   0  0  0  0  0  0  0  0  0  0  0  0
    1.9488   -1.0378    5.1542 C   0  0  0  0  0  0  0  0  0  0  0  0
    1.3341   -1.8528    5.5069 H   0  0  0  0  0  0  0  0  0  0  0  0
    2.3509   -0.0457    6.0209 C   0  0  0  0  0  0  0  0  0  0  0  0
    2.0499   -0.0590    7.0589 H   0  0  0  0  0  0  0  0  0  0  0  0
    3.1469    0.9987    5.5444 C   0  0  0  0  0  0  0  0  0  0  0  0
    3.5911    2.1137    6.3201 C   0  0  0  0  0  3  0  0  0  0  0  0
    3.2972    2.2391    7.3614 H   0  0  0  0  0  0  0  0  0  0  0  0
    4.7710    4.1589    6.4241 C   0  0  0  0  0  0  0  0  0  0  0  0
    5.8652    4.2098    6.3844 H   0  0  0  0  0  0  0  0  0  0  0  0
    4.4655    4.1078    7.4784 H   0  0  0  0  0  0  0  0  0  0  0  0
    4.1873    5.4194    5.7773 C   0  0  0  0  0  0  0  0  0  0  0  0
    3.1003    5.3915    5.8684 H   0  0  0  0  0  0  0  0  0  0  0  0
    4.4232    5.4080    4.7096 H   0  0  0  0  0  0  0  0  0  0  0  0
    4.7376    6.6816    6.4251 C   0  0  0  0  0  0  0  0  0  0  0  0
    4.4944    6.7077    7.4856 H   0  0  0  0  0  0  0  0  0  0  0  0
    4.3084    7.5626    5.9551 H   0  0  0  0  0  0  0  0  0  0  0  0
    5.8201    6.7296    6.3225 H   0  0  0  0  0  0  0  0  0  0  0  0
    5.7664    3.9029    2.1371 C   0  0  0  0  0  0  0  0  0  0  0  0
    6.6255    3.8044    3.2354 C   0  0  0  0  0  0  0  0  0  0  0  0
    6.8218    2.3930    3.5186 C   0  0  2  0  0  0  0  0  0  0  0  0
    6.1769    1.6375    2.4914 C   0  0  1  0  0  3  0  0  0  0  0  0
    5.4159    2.5560    1.7079 C   0  0  1  0  0  0  0  0  0  0  0  0
    5.3233    5.1386    1.4219 C   0  0  0  0  0  0  0  0  0  0  0  0
    5.6955    6.0341    1.9133 H   0  0  0  0  0  0  0  0  0  0  0  0
    4.2350    5.1874    1.3866 H   0  0  0  0  0  0  0  0  0  0  0  0
    5.6947    5.1229    0.3963 H   0  0  0  0  0  0  0  0  0  0  0  0
    7.3882    4.9212    3.8808 C   0  0  0  0  0  0  0  0  0  0  0  0
    8.3173    5.0878    3.3308 H   0  0  0  0  0  0  0  0  0  0  0  0
    7.6517    4.6817    4.9088 H   0  0  0  0  0  0  0  0  0  0  0  0
    6.8213    5.8494    3.8755 H   0  0  0  0  0  0  0  0  0  0  0  0
    7.8372    1.8461    4.4747 C   0  0  0  0  0  0  0  0  0  0  0  0
    7.6038    0.8183    4.7430 H   0  0  0  0  0  0  0  0  0  0  0  0
    7.8853    2.4366    5.3878 H   0  0  0  0  0  0  0  0  0  0  0  0
    8.8254    1.8627    4.0096 H   0  0  0  0  0  0  0  0  0  0  0  0
    6.3884    0.1762    2.2385 C   0  0  0  0  0  0  0  0  0  0  0  0
    7.3971    0.0253    1.8490 H   0  0  0  0  0  0  0  0  0  0  0  0
    5.6816   -0.2041    1.5066 H   0  0  0  0  0  0  0  0  0  0  0  0
    6.2851   -0.4091    3.1504 H   0  0  0  0  0  0  0  0  0  0  0  0
    4.6939    2.2752    0.4245 C   0  0  0  0  0  0  0  0  0  0  0  0
    5.3128    2.5820   -0.4212 H   0  0  0  0  0  0  0  0  0  0  0  0
    3.7595    2.8320    0.3841 H   0  0  0  0  0  0  0  0  0  0  0  0
    4.4688    1.2169    0.3180 H   0  0  0  0  0  0  0  0  0  0  0  0
  1  4  1  1  0  0  0
  1  3  1  0  0  0  0
  3 14  1  0  0  0  0
  3 16  1  0  0  0  0
  4 13  1  0  0  0  0
  5  7  1  0  0  0  0
  5  4  2  0  0  0  0
  6  5  1  0  0  0  0
  7  9  2  0  0  0  0
  8  7  1  0  0  0  0
  9 10  1  0  0  0  0
  9 11  1  0  0  0  0
 11 12  1  0  0  0  0
 13 11  2  0  0  0  0
 13 14  1  0  0  0  0
 14 15  1  0  0  0  0
 16 18  1  0  0  0  0
 17 16  1  0  0  0  0
 19 20  1  0  0  0  0
 19 16  1  0  0  0  0
 19 22  1  0  0  0  0
 21 19  1  0  0  0  0
 22 23  1  0  0  0  0
 24 22  1  0  0  0  0
 25 22  1  0  0  0  0
 26 27  2  0  0  0  0
 27 28  1  0  0  0  0
 27 35  1  0  0  0  0
 28  1  1  0  0  0  0
 28 39  1  1  0  0  0
 29 43  1  6  0  0  0
 29 28  1  0  0  0  0
 30 47  1  6  0  0  0
 30 26  1  0  0  0  0
 30 29  1  0  0  0  0
 30  1  1  0  0  0  0
 31 32  1  0  0  0  0
 31 26  1  0  0  0  0
 33 31  1  0  0  0  0
 34 31  1  0  0  0  0
 35 37  1  0  0  0  0
 36 35  1  0  0  0  0
 38 35  1  0  0  0  0
 39 40  1  0  0  0  0
 39 41  1  0  0  0  0
 42 39  1  0  0  0  0
 43 46  1  0  0  0  0
 44 43  1  0  0  0  0
 45 43  1  0  0  0  0
 48 47  1  0  0  0  0
 49 47  1  0  0  0  0
 50 47  1  0  0  0  0
M  END
$$$$
