CSD_code = JUZLIB | q = 0 | S = 0 | Stoichiometry = C25H39ClP2PdSi | MND = 4
 OpenBabel04212202053D

 69 72  0  0  0  0  0  0  0  0999 V2000
    3.7260    4.4134   11.7274 Pd  0  0  2  0  0  0  0  0  0  0  0  0
    5.0343    5.4005   13.4509 Cl  0  0  0  0  0  0  0  0  0  0  0  0
    2.0454    5.9236   11.7929 P   0  0  0  0  0  4  0  0  0  0  0  0
    5.0313    2.5799   11.5425 P   0  0  0  0  0  4  0  0  0  0  0  0
    2.5788    3.5164    9.9654 Si  0  0  1  0  0  0  0  0  0  0  0  0
    0.6008    5.3042   10.8598 C   0  0  0  0  0  0  0  0  0  0  0  0
   -0.6457    5.9184   10.9000 C   0  0  0  0  0  0  0  0  0  0  0  0
   -0.7932    6.8293   11.4623 H   0  0  0  0  0  0  0  0  0  0  0  0
   -1.7151    5.3691   10.2150 C   0  0  0  0  0  0  0  0  0  0  0  0
   -2.6818    5.8505   10.2513 H   0  0  0  0  0  0  0  0  0  0  0  0
   -1.5453    4.2035    9.4865 C   0  0  0  0  0  0  0  0  0  0  0  0
   -2.3815    3.7718    8.9555 H   0  0  0  0  0  0  0  0  0  0  0  0
   -0.3012    3.5992    9.4355 C   0  0  0  0  0  0  0  0  0  0  0  0
   -0.1682    2.6986    8.8551 H   0  0  0  0  0  0  0  0  0  0  0  0
    0.7780    4.1318   10.1199 C   0  0  0  0  0  0  0  0  0  0  0  0
    3.0243    4.0350    8.1434 C   0  0  0  0  0  0  0  0  0  0  0  0
    2.3310    4.7833    7.7714 H   0  0  0  0  0  0  0  0  0  0  0  0
    2.9586    3.1694    7.4913 H   0  0  0  0  0  0  0  0  0  0  0  0
    4.0302    4.4362    8.0606 H   0  0  0  0  0  0  0  0  0  0  0  0
    3.0163    1.6573    9.9108 C   0  0  0  0  0  0  0  0  0  0  0  0
    2.3404    0.7006    9.1724 C   0  0  0  0  0  0  0  0  0  0  0  0
    1.3876    0.9477    8.7280 H   0  0  0  0  0  0  0  0  0  0  0  0
    2.8719   -0.5648    8.9916 C   0  0  0  0  0  0  0  0  0  0  0  0
    2.3281   -1.3057    8.4231 H   0  0  0  0  0  0  0  0  0  0  0  0
    4.1169   -0.8725    9.5153 C   0  0  0  0  0  0  0  0  0  0  0  0
    4.5495   -1.8484    9.3473 H   0  0  0  0  0  0  0  0  0  0  0  0
    4.8073    0.0712   10.2556 C   0  0  0  0  0  0  0  0  0  0  0  0
    5.7857   -0.1696   10.6456 H   0  0  0  0  0  0  0  0  0  0  0  0
    4.2489    1.3240   10.4782 C   0  0  0  0  0  0  0  0  0  0  0  0
    2.5957    7.5259   11.0314 C   0  0  0  0  0  0  0  0  0  0  0  0
    3.1669    8.0209   11.8280 H   0  0  0  0  0  0  0  0  0  0  0  0
    3.5701    7.1658    9.9090 C   0  0  0  0  0  0  0  0  0  0  0  0
    4.3345    6.4672   10.2937 H   0  0  0  0  0  0  0  0  0  0  0  0
    4.0757    8.0559    9.5369 H   0  0  0  0  0  0  0  0  0  0  0  0
    3.0424    6.6922    9.0821 H   0  0  0  0  0  0  0  0  0  0  0  0
    1.4745    8.4381   10.5541 C   0  0  0  0  0  0  0  0  0  0  0  0
    0.8854    7.9510    9.7786 H   0  0  0  0  0  0  0  0  0  0  0  0
    1.8931    9.3549   10.1409 H   0  0  0  0  0  0  0  0  0  0  0  0
    0.8141    8.7087   11.3759 H   0  0  0  0  0  0  0  0  0  0  0  0
    1.3174    6.3133   13.4579 C   0  0  0  0  0  0  0  0  0  0  0  0
    0.2927    6.6843   13.3330 H   0  0  0  0  0  0  0  0  0  0  0  0
    2.1539    7.3224   14.2353 C   0  0  0  0  0  0  0  0  0  0  0  0
    3.2015    7.0202   14.2293 H   0  0  0  0  0  0  0  0  0  0  0  0
    1.8180    7.3585   15.2707 H   0  0  0  0  0  0  0  0  0  0  0  0
    2.0678    8.3235   13.8169 H   0  0  0  0  0  0  0  0  0  0  0  0
    1.2964    4.9629   14.1750 C   0  0  0  0  0  0  0  0  0  0  0  0
    0.7720    4.2141   13.5737 H   0  0  0  0  0  0  0  0  0  0  0  0
    0.8065    5.0370   15.1446 H   0  0  0  0  0  0  0  0  0  0  0  0
    2.3304    4.6386   14.3349 H   0  0  0  0  0  0  0  0  0  0  0  0
    6.7632    2.7501   10.9133 C   0  0  0  0  0  0  0  0  0  0  0  0
    7.1653    1.7689   10.6320 H   0  0  0  0  0  0  0  0  0  0  0  0
    6.6206    3.6331    9.6735 C   0  0  0  0  0  0  0  0  0  0  0  0
    6.0214    3.1303    8.9129 H   0  0  0  0  0  0  0  0  0  0  0  0
    7.5927    3.8789    9.2491 H   0  0  0  0  0  0  0  0  0  0  0  0
    6.1161    4.5673    9.9567 H   0  0  0  0  0  0  0  0  0  0  0  0
    7.6419    3.4173   11.9655 C   0  0  0  0  0  0  0  0  0  0  0  0
    7.1425    4.3032   12.3602 H   0  0  0  0  0  0  0  0  0  0  0  0
    8.5903    3.7245   11.5270 H   0  0  0  0  0  0  0  0  0  0  0  0
    7.8503    2.7445   12.7948 H   0  0  0  0  0  0  0  0  0  0  0  0
    5.0654    1.8156   13.2329 C   0  0  0  0  0  0  0  0  0  0  0  0
    5.5617    2.5784   13.8510 H   0  0  0  0  0  0  0  0  0  0  0  0
    5.7818    0.4806   13.3832 C   0  0  0  0  0  0  0  0  0  0  0  0
    5.2276   -0.3124   12.8851 H   0  0  0  0  0  0  0  0  0  0  0  0
    5.8562    0.2260   14.4398 H   0  0  0  0  0  0  0  0  0  0  0  0
    6.7896    0.5193   12.9736 H   0  0  0  0  0  0  0  0  0  0  0  0
    3.5978    1.7258   13.6576 C   0  0  0  0  0  0  0  0  0  0  0  0
    3.1039    2.6971   13.4832 H   0  0  0  0  0  0  0  0  0  0  0  0
    3.5126    1.4771   14.7141 H   0  0  0  0  0  0  0  0  0  0  0  0
    3.0763    0.9640   13.0757 H   0  0  0  0  0  0  0  0  0  0  0  0
  1  3  1  0  0  0  0
  1  2  1  6  0  0  0
  3 40  1  0  0  0  0
  4  1  1  0  0  0  0
  4 60  1  0  0  0  0
  5 16  1  6  0  0  0
  5 15  1  0  0  0  0
  5  1  1  0  0  0  0
  6  7  1  0  0  0  0
  6  3  1  0  0  0  0
  7  8  1  0  0  0  0
  9 10  1  0  0  0  0
  9  7  2  0  0  0  0
 11  9  1  0  0  0  0
 12 11  1  0  0  0  0
 13 11  2  0  0  0  0
 13 15  1  0  0  0  0
 14 13  1  0  0  0  0
 15  6  2  0  0  0  0
 17 16  1  0  0  0  0
 18 16  1  0  0  0  0
 19 16  1  0  0  0  0
 20  5  1  0  0  0  0
 20 29  1  0  0  0  0
 21 20  2  0  0  0  0
 22 21  1  0  0  0  0
 23 21  1  0  0  0  0
 23 25  2  0  0  0  0
 24 23  1  0  0  0  0
 25 27  1  0  0  0  0
 26 25  1  0  0  0  0
 27 29  2  0  0  0  0
 27 28  1  0  0  0  0
 29  4  1  0  0  0  0
 30  3  1  0  0  0  0
 30 31  1  0  0  0  0
 32 33  1  0  0  0  0
 32 30  1  0  0  0  0
 34 32  1  0  0  0  0
 35 32  1  0  0  0  0
 36 30  1  0  0  0  0
 36 39  1  0  0  0  0
 37 36  1  0  0  0  0
 38 36  1  0  0  0  0
 40 46  1  0  0  0  0
 40 42  1  0  0  0  0
 41 40  1  0  0  0  0
 42 44  1  0  0  0  0
 43 42  1  0  0  0  0
 45 42  1  0  0  0  0
 46 49  1  0  0  0  0
 46 48  1  0  0  0  0
 47 46  1  0  0  0  0
 50  4  1  0  0  0  0
 50 56  1  0  0  0  0
 51 50  1  0  0  0  0
 52 55  1  0  0  0  0
 52 50  1  0  0  0  0
 53 52  1  0  0  0  0
 54 52  1  0  0  0  0
 56 57  1  0  0  0  0
 56 59  1  0  0  0  0
 58 56  1  0  0  0  0
 60 62  1  0  0  0  0
 60 66  1  0  0  0  0
 60 61  1  0  0  0  0
 62 64  1  0  0  0  0
 63 62  1  0  0  0  0
 65 62  1  0  0  0  0
 66 68  1  0  0  0  0
 67 66  1  0  0  0  0
 69 66  1  0  0  0  0
M  END
$$$$
