CSD_code = KABCOG | q = 0 | S = 0 | Stoichiometry = C23H26Cl2NPPdS | MND = 4
 OpenBabel04212202053D

 55 60  0  0  1  0  0  0  0  0999 V2000
   -0.8082    1.9224    8.6866 C   0  0  0  0  0  0  0  0  0  0  0  0
   -1.2818    2.1126    7.4140 C   0  0  0  0  0  0  0  0  0  0  0  0
   -0.4968    2.6831    6.2751 C   0  0  0  0  0  0  0  0  0  0  0  0
    0.5441    2.3576    6.3468 H   0  0  0  0  0  0  0  0  0  0  0  0
   -0.5081    3.7764    6.3475 H   0  0  0  0  0  0  0  0  0  0  0  0
   -1.0950    2.2786    4.9310 C   0  0  0  0  0  0  0  0  0  0  0  0
   -0.5580    2.7822    4.1256 H   0  0  0  0  0  0  0  0  0  0  0  0
   -0.9894    1.2015    4.7883 H   0  0  0  0  0  0  0  0  0  0  0  0
   -2.5698    2.6566    4.9100 C   0  0  0  0  0  0  0  0  0  0  0  0
   -2.9894    2.5138    3.9135 H   0  0  0  0  0  0  0  0  0  0  0  0
   -2.6721    3.7133    5.1675 H   0  0  0  0  0  0  0  0  0  0  0  0
   -3.3430    1.8016    5.9110 C   0  0  0  0  0  0  0  0  0  0  0  0
   -4.3250    2.2463    6.0945 H   0  0  0  0  0  0  0  0  0  0  0  0
   -3.5236    0.8083    5.4869 H   0  0  0  0  0  0  0  0  0  0  0  0
   -2.6244    1.6336    7.2130 C   0  0  0  0  0  0  0  0  0  0  0  0
   -3.1550    0.9671    8.2902 C   0  0  0  0  0  0  0  0  0  0  0  0
   -4.4122    0.3224    8.4561 C   0  0  0  0  0  0  0  0  0  0  0  0
   -4.7313   -0.5153    9.5014 C   0  0  0  0  0  0  0  0  0  0  0  0
   -4.0136   -0.8014   10.2578 H   0  0  0  0  0  0  0  0  0  0  0  0
   -6.0445   -1.0059    9.4377 C   0  0  0  0  0  0  0  0  0  0  0  0
   -6.4652   -1.6771   10.1641 H   0  0  0  0  0  0  0  0  0  0  0  0
   -6.7271   -0.5450    8.3538 C   0  0  0  0  0  0  0  0  0  0  0  0
   -7.7374   -0.7533    8.0620 H   0  0  0  0  0  0  0  0  0  0  0  0
    0.5173    2.0898    9.2334 C   0  0  1  0  0  3  0  0  0  0  0  0
    1.3734    3.1276    8.8513 C   0  0  0  0  0  0  0  0  0  0  0  0
    1.0338    3.8583    8.1366 H   0  0  0  0  0  0  0  0  0  0  0  0
    2.6301    3.2258    9.4149 C   0  0  0  0  0  0  0  0  0  0  0  0
    3.2981    4.0228    9.1248 H   0  0  0  0  0  0  0  0  0  0  0  0
    3.0109    2.2858   10.3610 C   0  0  0  0  0  0  0  0  0  0  0  0
    3.9831    2.3176   10.8245 H   0  0  0  0  0  0  0  0  0  0  0  0
    2.1080    1.2990   10.7180 C   0  0  0  0  0  0  0  0  0  0  0  0
    2.3572    0.5529   11.4652 H   0  0  0  0  0  0  0  0  0  0  0  0
   -2.7716    2.0842   10.9049 C   0  0  0  0  0  0  0  0  0  0  0  0
   -3.6858    1.5629   11.2205 H   0  0  0  0  0  0  0  0  0  0  0  0
   -3.1389    3.4491   10.3269 C   0  0  0  0  0  0  0  0  0  0  0  0
   -2.2333    3.9558    9.9827 H   0  0  0  0  0  0  0  0  0  0  0  0
   -3.8037    3.3295    9.4688 H   0  0  0  0  0  0  0  0  0  0  0  0
   -3.8201    4.2953   11.4006 C   0  0  0  0  0  0  0  0  0  0  0  0
   -4.0722    5.2752   10.9905 H   0  0  0  0  0  0  0  0  0  0  0  0
   -4.7500    3.8105   11.7054 H   0  0  0  0  0  0  0  0  0  0  0  0
   -2.9104    4.4556   12.6153 C   0  0  0  0  0  0  0  0  0  0  0  0
   -3.4152    5.0485   13.3798 H   0  0  0  0  0  0  0  0  0  0  0  0
   -2.0043    4.9906   12.3215 H   0  0  0  0  0  0  0  0  0  0  0  0
   -2.5318    3.0909   13.1848 C   0  0  0  0  0  0  0  0  0  0  0  0
   -3.4312    2.5792   13.5329 H   0  0  0  0  0  0  0  0  0  0  0  0
   -1.8647    3.2145   14.0393 H   0  0  0  0  0  0  0  0  0  0  0  0
   -1.8483    2.2394   12.1174 C   0  0  0  0  0  0  0  0  0  0  0  0
   -1.6006    1.2443   12.5376 H   0  0  0  0  0  0  0  0  0  0  0  0
   -0.9177    2.7315   11.8076 H   0  0  0  0  0  0  0  0  0  0  0  0
    0.8972    1.1983   10.1792 N   0  0  0  0  0  0  0  0  0  0  0  0
   -1.9740    0.9546    9.6577 P   0  0  2  0  0  4  0  0  0  0  0  0
   -5.7735    0.4920    7.3748 S   0  0  0  0  0  0  0  0  0  0  0  0
   -2.0033   -1.7486   11.4739 Cl  0  0  0  0  0  0  0  0  0  0  0  0
    0.9996   -1.2487   12.2169 Cl  0  0  0  0  0  0  0  0  0  0  0  0
   -0.4727   -0.2664   10.8286 Pd  0  0  0  0  0  0  0  0  0  0  0  0
  1 51  1  0  0  0  0
  2  1  2  0  0  0  0
  3  4  1  0  0  0  0
  3  5  1  0  0  0  0
  3  2  1  0  0  0  0
  6  3  1  0  0  0  0
  7  6  1  0  0  0  0
  8  6  1  0  0  0  0
  9  6  1  0  0  0  0
  9 11  1  0  0  0  0
  9 12  1  0  0  0  0
 10  9  1  0  0  0  0
 12 13  1  0  0  0  0
 12 15  1  0  0  0  0
 14 12  1  0  0  0  0
 15  2  1  0  0  0  0
 15 16  2  0  0  0  0
 16 17  1  0  0  0  0
 16 51  1  0  0  0  0
 17 18  2  0  0  0  0
 18 19  1  0  0  0  0
 20 18  1  0  0  0  0
 20 21  1  0  0  0  0
 22 20  2  0  0  0  0
 23 22  1  0  0  0  0
 24  1  1  1  0  0  0
 24 50  1  0  0  0  0
 25 24  1  0  0  0  0
 25 27  2  0  0  0  0
 26 25  1  0  0  0  0
 27 29  1  0  0  0  0
 28 27  1  0  0  0  0
 29 31  2  0  0  0  0
 29 30  1  0  0  0  0
 31 32  1  0  0  0  0
 33 34  1  0  0  0  0
 33 47  1  0  0  0  0
 35 33  1  0  0  0  0
 35 38  1  0  0  0  0
 36 35  1  0  0  0  0
 37 35  1  0  0  0  0
 38 40  1  0  0  0  0
 38 41  1  0  0  0  0
 39 38  1  0  0  0  0
 41 44  1  0  0  0  0
 41 42  1  0  0  0  0
 43 41  1  0  0  0  0
 44 45  1  0  0  0  0
 44 46  1  0  0  0  0
 47 48  1  0  0  0  0
 47 44  1  0  0  0  0
 49 47  1  0  0  0  0
 50 31  1  0  0  0  0
 50 55  1  0  0  0  0
 51 55  1  0  0  0  0
 51 33  1  1  0  0  0
 52 22  1  0  0  0  0
 52 17  1  0  0  0  0
 55 53  1  0  0  0  0
 55 54  1  0  0  0  0
M  END
$$$$
