CSD_code = KABDEX | q = 0 | S = 0 | Stoichiometry = C25H22Cl2NPPd | MND = 4
 OpenBabel04212202053D

 52 57  0  0  1  0  0  0  0  0999 V2000
   18.8487   -0.0216    2.8134 Pd  0  0  0  0  0  0  0  0  0  0  0  0
   20.2302   -1.1139    1.4000 Cl  0  0  0  0  0  0  0  0  0  0  0  0
   18.1123   -2.0121    3.4714 Cl  0  0  0  0  0  0  0  0  0  0  0  0
   17.3227    1.1399    4.0007 P   0  0  2  0  0  4  0  0  0  0  0  0
   19.5319    1.8790    2.2125 N   0  0  0  0  0  0  0  0  0  0  0  0
   17.9676    2.8721    3.8050 C   0  0  1  0  0  0  0  0  0  0  0  0
   17.1266    3.5614    3.6365 H   0  0  0  0  0  0  0  0  0  0  0  0
   18.5374    3.1531    5.1854 C   0  0  0  0  0  0  0  0  0  0  0  0
   19.5755    3.9468    5.4583 C   0  0  0  0  0  0  0  0  0  0  0  0
   20.1344    4.4306    4.6705 H   0  0  0  0  0  0  0  0  0  0  0  0
   19.9971    4.2030    6.8702 C   0  0  0  0  0  0  0  0  0  0  0  0
   20.4662    5.1857    6.9449 H   0  0  0  0  0  0  0  0  0  0  0  0
   20.7422    3.4598    7.1728 H   0  0  0  0  0  0  0  0  0  0  0  0
   18.7825    4.1182    7.7919 C   0  0  0  0  0  0  0  0  0  0  0  0
   18.0767    4.9076    7.5225 H   0  0  0  0  0  0  0  0  0  0  0  0
   19.0840    4.2723    8.8289 H   0  0  0  0  0  0  0  0  0  0  0  0
   18.1038    2.7588    7.6503 C   0  0  0  0  0  0  0  0  0  0  0  0
   18.7771    1.9787    8.0220 H   0  0  0  0  0  0  0  0  0  0  0  0
   17.2050    2.7215    8.2633 H   0  0  0  0  0  0  0  0  0  0  0  0
   17.7997    2.4394    6.2165 C   0  0  0  0  0  0  0  0  0  0  0  0
   16.9951    1.4464    5.7573 C   0  0  0  0  0  0  0  0  0  0  0  0
   16.0801    0.5568    6.4584 C   0  0  0  0  0  0  0  0  0  0  0  0
   15.2402    0.9975    7.4812 C   0  0  0  0  0  0  0  0  0  0  0  0
   15.2624    2.0313    7.7938 H   0  0  0  0  0  0  0  0  0  0  0  0
   14.3435    0.1271    8.0710 C   0  0  0  0  0  0  0  0  0  0  0  0
   13.6951    0.4814    8.8593 H   0  0  0  0  0  0  0  0  0  0  0  0
   14.2686   -1.1913    7.6519 C   0  0  0  0  0  0  0  0  0  0  0  0
   13.5690   -1.8678    8.1198 H   0  0  0  0  0  0  0  0  0  0  0  0
   15.0831   -1.6320    6.6211 C   0  0  0  0  0  0  0  0  0  0  0  0
   15.0224   -2.6532    6.2775 H   0  0  0  0  0  0  0  0  0  0  0  0
   15.9714   -0.7629    6.0188 C   0  0  0  0  0  0  0  0  0  0  0  0
   16.6085   -1.1110    5.2119 H   0  0  0  0  0  0  0  0  0  0  0  0
   18.9547    2.9907    2.6903 C   0  0  1  0  0  3  0  0  0  0  0  0
   19.2768    4.2468    2.1858 C   0  0  0  0  0  0  0  0  0  0  0  0
   18.7710    5.1173    2.5753 H   0  0  0  0  0  0  0  0  0  0  0  0
   20.2362    4.3669    1.1961 C   0  0  0  0  0  0  0  0  0  0  0  0
   20.4974    5.3357    0.7981 H   0  0  0  0  0  0  0  0  0  0  0  0
   20.8494    3.2131    0.7357 C   0  0  0  0  0  0  0  0  0  0  0  0
   21.6096    3.2483   -0.0274 H   0  0  0  0  0  0  0  0  0  0  0  0
   20.4614    1.9945    1.2631 C   0  0  0  0  0  0  0  0  0  0  0  0
   20.8976    1.0634    0.9145 H   0  0  0  0  0  0  0  0  0  0  0  0
   15.7324    1.1119    3.1321 C   0  0  0  0  0  0  0  0  0  0  0  0
   14.5852    1.7182    3.6329 C   0  0  0  0  0  0  0  0  0  0  0  0
   14.6168    2.2214    4.5894 H   0  0  0  0  0  0  0  0  0  0  0  0
   13.4095    1.6602    2.9075 C   0  0  0  0  0  0  0  0  0  0  0  0
   12.5148    2.1249    3.2950 H   0  0  0  0  0  0  0  0  0  0  0  0
   13.3760    1.0028    1.6875 C   0  0  0  0  0  0  0  0  0  0  0  0
   12.4537    0.9575    1.1277 H   0  0  0  0  0  0  0  0  0  0  0  0
   14.5177    0.3963    1.1867 C   0  0  0  0  0  0  0  0  0  0  0  0
   14.4846   -0.1211    0.2397 H   0  0  0  0  0  0  0  0  0  0  0  0
   15.6961    0.4462    1.9082 C   0  0  0  0  0  0  0  0  0  0  0  0
   16.6045   -0.0467    1.5370 H   0  0  0  0  0  0  0  0  0  0  0  0
  1  3  1  0  0  0  0
  1  4  1  0  0  0  0
  2  1  1  0  0  0  0
  4 42  1  6  0  0  0
  4 21  1  0  0  0  0
  5 33  1  0  0  0  0
  5  1  1  0  0  0  0
  6  7  1  6  0  0  0
  6  4  1  0  0  0  0
  6  8  1  0  0  0  0
  8  9  2  0  0  0  0
  8 20  1  0  0  0  0
  9 11  1  0  0  0  0
 10  9  1  0  0  0  0
 11 12  1  0  0  0  0
 11 13  1  0  0  0  0
 11 14  1  0  0  0  0
 14 16  1  0  0  0  0
 15 14  1  0  0  0  0
 17 14  1  0  0  0  0
 17 18  1  0  0  0  0
 17 19  1  0  0  0  0
 20 17  1  0  0  0  0
 21 20  2  0  0  0  0
 21 22  1  0  0  0  0
 22 23  1  0  0  0  0
 23 24  1  0  0  0  0
 23 25  2  0  0  0  0
 25 26  1  0  0  0  0
 27 25  1  0  0  0  0
 27 28  1  0  0  0  0
 29 27  2  0  0  0  0
 30 29  1  0  0  0  0
 31 22  2  0  0  0  0
 31 29  1  0  0  0  0
 32 31  1  0  0  0  0
 33 34  1  1  0  0  0
 33  6  1  0  0  0  0
 34 35  1  0  0  0  0
 36 34  2  0  0  0  0
 37 36  1  0  0  0  0
 38 36  1  0  0  0  0
 38 40  2  0  0  0  0
 39 38  1  0  0  0  0
 40  5  1  0  0  0  0
 41 40  1  0  0  0  0
 42 43  1  0  0  0  0
 43 44  1  0  0  0  0
 45 46  1  0  0  0  0
 45 43  2  0  0  0  0
 47 45  1  0  0  0  0
 48 47  1  0  0  0  0
 49 47  2  0  0  0  0
 49 51  1  0  0  0  0
 50 49  1  0  0  0  0
 51 42  2  0  0  0  0
 52 51  1  0  0  0  0
M  END
$$$$
