CSD_code = KABROV | q = 0 | S = 0 | Stoichiometry = C18H19Cl2F3N2Pd | MND = 4
 OpenBabel04212202053D

 45 47  0  0  1  0  0  0  0  0999 V2000
    7.1915   -2.8579   -3.3115 Pd  0  0  2  0  0  0  0  0  0  0  0  0
    7.9608   -4.7544   -2.2260 Cl  0  0  0  0  0  0  0  0  0  0  0  0
    6.0343   -0.2295   -6.8082 Cl  0  0  0  0  0  0  0  0  0  0  0  0
    6.3963   -1.2854   -4.3151 C   0  0  0  0  0  0  0  0  0  0  0  0
    6.6913   -1.3354   -5.5972 C   0  0  2  0  0  3  0  0  0  0  0  0
    7.6511   -2.3622   -6.1288 C   0  0  0  0  0  0  0  0  0  0  0  0
    8.6572   -1.9276   -6.1767 H   0  0  0  0  0  0  0  0  0  0  0  0
    7.3725   -2.6777   -7.1427 H   0  0  0  0  0  0  0  0  0  0  0  0
    7.6659   -3.5144   -5.2028 N   0  0  0  0  0  4  0  0  0  0  0  0
    6.6132   -4.4686   -5.5640 C   0  0  0  0  0  0  0  0  0  0  0  0
    5.6655   -3.9422   -5.6846 H   0  0  0  0  0  0  0  0  0  0  0  0
    6.5138   -5.2145   -4.7695 H   0  0  0  0  0  0  0  0  0  0  0  0
    6.8550   -4.9758   -6.5069 H   0  0  0  0  0  0  0  0  0  0  0  0
    8.9683   -4.1816   -5.2471 C   0  0  0  0  0  0  0  0  0  0  0  0
    8.9560   -5.0419   -4.5762 H   0  0  0  0  0  0  0  0  0  0  0  0
    9.7472   -3.4930   -4.9087 H   0  0  0  0  0  0  0  0  0  0  0  0
    9.1989   -4.5185   -6.2658 H   0  0  0  0  0  0  0  0  0  0  0  0
    5.4508   -0.4227   -3.6374 C   0  0  0  0  0  0  0  0  0  0  0  0
    5.8318    0.8168   -3.1130 C   0  0  0  0  0  0  0  0  0  0  0  0
    6.8308    1.1766   -3.3110 H   0  0  0  0  0  0  0  0  0  0  0  0
    4.9545    1.5713   -2.3639 C   0  0  0  0  0  0  0  0  0  0  0  0
    5.2699    2.5280   -1.9740 H   0  0  0  0  0  0  0  0  0  0  0  0
    3.6694    1.1130   -2.1099 C   0  0  0  0  0  0  0  0  0  0  0  0
    2.9860    1.7045   -1.5215 H   0  0  0  0  0  0  0  0  0  0  0  0
    3.2623   -0.1046   -2.6216 C   0  0  0  0  0  0  0  0  0  0  0  0
    2.2621   -0.4668   -2.4390 H   0  0  0  0  0  0  0  0  0  0  0  0
    4.1414   -0.8654   -3.3790 C   0  0  0  0  0  0  0  0  0  0  0  0
    3.7042   -2.1844   -3.9367 C   0  0  0  0  0  0  0  0  0  0  0  0
    3.7285   -2.2425   -5.2783 F   0  0  0  0  0  0  0  0  0  0  0  0
    2.4662   -2.5376   -3.5693 F   0  0  0  0  0  0  0  0  0  0  0  0
    4.5026   -3.2284   -3.5329 F   0  0  0  0  0  0  0  0  0  0  0  0
    6.8415   -2.1047   -1.5181 N   0  0  0  0  0  0  0  0  0  0  0  0
    5.7487   -2.3804   -0.8142 C   0  0  0  0  0  3  0  0  0  0  0  0
    5.0424   -3.0734   -1.2553 H   0  0  0  0  0  0  0  0  0  0  0  0
    5.5197   -1.8428    0.4394 C   0  0  0  0  0  0  0  0  0  0  0  0
    4.6185   -2.0904    0.9760 H   0  0  0  0  0  0  0  0  0  0  0  0
    6.4704   -0.9937    0.9826 C   0  0  0  0  0  0  0  0  0  0  0  0
    6.3241   -0.5495    1.9550 H   0  0  0  0  0  0  0  0  0  0  0  0
    7.6249   -0.7441    0.2603 C   0  0  0  0  0  0  0  0  0  0  0  0
    8.3999   -0.1117    0.6641 H   0  0  0  0  0  0  0  0  0  0  0  0
    7.7909   -1.3208   -0.9917 C   0  0  0  0  0  0  0  0  0  0  0  0
    9.0361   -1.1310   -1.8012 C   0  0  0  0  0  0  0  0  0  0  0  0
    8.7938   -0.6509   -2.7588 H   0  0  0  0  0  0  0  0  0  0  0  0
    9.4725   -2.1189   -2.0104 H   0  0  0  0  0  0  0  0  0  0  0  0
    9.7639   -0.5244   -1.2679 H   0  0  0  0  0  0  0  0  0  0  0  0
  1  2  1  6  0  0  0
  1 32  1  0  0  0  0
  4 18  1  0  0  0  0
  4  1  2  0  0  0  0
  5  3  1  1  0  0  0
  5  4  1  0  0  0  0
  6  5  1  0  0  0  0
  6  9  1  0  0  0  0
  7  6  1  0  0  0  0
  8  6  1  0  0  0  0
  9  1  1  0  0  0  0
 10  9  1  0  0  0  0
 10 12  1  0  0  0  0
 11 10  1  0  0  0  0
 13 10  1  0  0  0  0
 14  9  1  0  0  0  0
 14 16  1  0  0  0  0
 14 15  1  0  0  0  0
 17 14  1  0  0  0  0
 18 27  2  0  0  0  0
 18 19  1  0  0  0  0
 19 21  2  0  0  0  0
 20 19  1  0  0  0  0
 21 23  1  0  0  0  0
 21 22  1  0  0  0  0
 23 24  1  0  0  0  0
 25 26  1  0  0  0  0
 25 23  2  0  0  0  0
 27 25  1  0  0  0  0
 28 30  1  0  0  0  0
 28 31  1  0  0  0  0
 28 27  1  0  0  0  0
 29 28  1  0  0  0  0
 32 41  1  0  0  0  0
 32 33  1  0  0  0  0
 33 35  1  0  0  0  0
 34 33  1  0  0  0  0
 35 36  1  0  0  0  0
 35 37  2  0  0  0  0
 37 38  1  0  0  0  0
 39 40  1  0  0  0  0
 39 37  1  0  0  0  0
 41 39  2  0  0  0  0
 42 45  1  0  0  0  0
 42 41  1  0  0  0  0
 43 42  1  0  0  0  0
 44 42  1  0  0  0  0
M  END
$$$$
