CSD_code = KACCUP | q = 0 | S = 0 | Stoichiometry = C9H21Cl2N3O5RuS3 | MND = 6
 OpenBabel04212202053D

 44 44  0  0  0  0  0  0  0  0999 V2000
   -0.1687    3.0519    5.0580 Ru  0  0  0  0  0  0  0  0  0  0  0  0
   -1.9726    3.6583    3.8407 S   0  0  0  0  0  0  0  0  0  0  0  0
    0.1209    5.0084    5.7662 N   0  0  0  0  0  0  0  0  0  0  0  0
   -0.5785    7.3127    9.0892 O   0  0  0  0  0  0  0  0  0  0  0  0
    1.2815    6.8574    6.0881 C   0  0  0  0  0  3  0  0  0  0  0  0
    1.9965    7.6294    5.8890 H   0  0  0  0  0  0  0  0  0  0  0  0
    1.7514    2.5623    6.3110 Cl  0  0  0  0  0  0  0  0  0  0  0  0
   -0.3338    0.8439    4.6580 S   0  0  0  0  0  0  0  0  0  0  0  0
    1.0632    5.8245    5.2803 N   0  0  0  0  0  0  0  0  0  0  0  0
    1.4645    5.5889    4.3506 H   0  0  0  0  0  0  0  0  0  0  0  0
    1.0318    8.5243    8.3263 O   0  0  0  0  0  0  0  0  0  0  0  0
    0.4248    6.6967    7.1711 C   0  0  0  0  0  0  0  0  0  0  0  0
   -1.6362    2.5994    6.8179 Cl  0  0  0  0  0  0  0  0  0  0  0  0
    1.2173    3.2661    3.2133 S   0  0  0  0  0  0  0  0  0  0  0  0
   -2.1743    2.8316    2.6549 O   0  0  0  0  0  1  0  0  0  0  0  0
    0.2847    7.5693    8.2806 N   0  0  0  0  0  0  0  0  0  0  0  0
   -0.2827    5.5080    6.9196 C   0  0  0  0  0  0  0  0  0  0  0  0
   -1.0225    5.0231    7.5309 H   0  0  0  0  0  0  0  0  0  0  0  0
    0.5265    0.4198    3.5597 O   0  0  0  0  0  1  0  0  0  0  0  0
   -3.5985    3.8372    4.6314 C   0  0  0  0  0  0  0  0  0  0  0  0
   -4.3029    4.1973    3.8909 H   0  0  0  0  0  0  0  0  0  0  0  0
   -3.4900    4.5228    5.4632 H   0  0  0  0  0  0  0  0  0  0  0  0
   -3.8955    2.8636    5.0045 H   0  0  0  0  0  0  0  0  0  0  0  0
    1.4526    4.7075    2.9376 O   0  0  0  0  0  1  0  0  0  0  0  0
   -1.8221    5.3725    3.2329 C   0  0  0  0  0  0  0  0  0  0  0  0
   -2.5896    5.5409    2.4863 H   0  0  0  0  0  0  0  0  0  0  0  0
   -0.8360    5.4826    2.7889 H   0  0  0  0  0  0  0  0  0  0  0  0
   -1.9384    6.0450    4.0750 H   0  0  0  0  0  0  0  0  0  0  0  0
    0.0721   -0.2024    6.0784 C   0  0  0  0  0  0  0  0  0  0  0  0
   -0.0351   -1.2392    5.7824 H   0  0  0  0  0  0  0  0  0  0  0  0
   -0.5993    0.0650    6.8874 H   0  0  0  0  0  0  0  0  0  0  0  0
    1.0977    0.0172    6.3598 H   0  0  0  0  0  0  0  0  0  0  0  0
   -1.9912    0.1845    4.3252 C   0  0  0  0  0  0  0  0  0  0  0  0
   -1.9065   -0.8783    4.1321 H   0  0  0  0  0  0  0  0  0  0  0  0
   -2.3797    0.7002    3.4526 H   0  0  0  0  0  0  0  0  0  0  0  0
   -2.6000    0.3853    5.1999 H   0  0  0  0  0  0  0  0  0  0  0  0
    2.8626    2.5182    3.2934 C   0  0  0  0  0  0  0  0  0  0  0  0
    3.4201    2.8243    2.4160 H   0  0  0  0  0  0  0  0  0  0  0  0
    2.7148    1.4455    3.3328 H   0  0  0  0  0  0  0  0  0  0  0  0
    3.3402    2.8607    4.2061 H   0  0  0  0  0  0  0  0  0  0  0  0
    0.7177    2.6056    1.6024 C   0  0  0  0  0  0  0  0  0  0  0  0
    1.3280    3.0983    0.8545 H   0  0  0  0  0  0  0  0  0  0  0  0
   -0.3347    2.8249    1.4524 H   0  0  0  0  0  0  0  0  0  0  0  0
    0.8701    1.5342    1.6196 H   0  0  0  0  0  0  0  0  0  0  0  0
  1  3  1  0  0  0  0
  1  7  1  0  0  0  0
  1 13  1  0  0  0  0
  2 20  1  0  0  0  0
  2  1  1  0  0  0  0
  3 17  1  0  0  0  0
  5 12  1  0  0  0  0
  6  5  1  0  0  0  0
  8  1  1  0  0  0  0
  8 29  1  0  0  0  0
  9  3  1  0  0  0  0
  9  5  1  0  0  0  0
 10  9  1  0  0  0  0
 12 16  1  0  0  0  0
 14 37  1  0  0  0  0
 14  1  1  0  0  0  0
 15  2  1  0  0  0  0
 16 11  2  0  0  0  0
 16  4  2  0  0  0  0
 17 12  2  0  0  0  0
 17 18  1  0  0  0  0
 19  8  1  0  0  0  0
 20 23  1  0  0  0  0
 20 22  1  0  0  0  0
 21 20  1  0  0  0  0
 24 14  1  0  0  0  0
 25  2  1  0  0  0  0
 25 28  1  0  0  0  0
 26 25  1  0  0  0  0
 27 25  1  0  0  0  0
 29 32  1  0  0  0  0
 29 31  1  0  0  0  0
 30 29  1  0  0  0  0
 33  8  1  0  0  0  0
 33 36  1  0  0  0  0
 34 33  1  0  0  0  0
 35 33  1  0  0  0  0
 37 39  1  0  0  0  0
 37 40  1  0  0  0  0
 38 37  1  0  0  0  0
 41 44  1  0  0  0  0
 41 14  1  0  0  0  0
 42 41  1  0  0  0  0
 43 41  1  0  0  0  0
M  END
$$$$
