CSD_code = KACDIC | q = 0 | S = 0 | Stoichiometry = C24H26Cl2SiZr | MND = 12
 OpenBabel04212202053D

 54 58  0  0  1  0  0  0  0  0999 V2000
    8.7586    5.7357    2.8067 Zr  0  0  0  0  0  0  0  0  0  0  0  0
    8.4694    4.2577    1.0216 Cl  0  0  0  0  0  0  0  0  0  0  0  0
   10.8779    4.9160    3.3187 Cl  0  0  0  0  0  0  0  0  0  0  0  0
    6.5307    8.0526    3.6882 Si  0  0  1  0  0  0  0  0  0  0  0  0
    8.0546    8.0543    2.5593 C   0  0  2  0  0  0  0  0  0  0  0  0
    8.0873    7.5011    1.2479 C   0  0  0  0  0  3  0  0  0  0  0  0
    9.4338    7.2694    0.8891 C   0  0  0  0  0  0  0  0  0  0  0  0
   10.2453    7.6382    1.9814 C   0  0  0  0  0  0  0  0  0  0  0  0
    9.4028    8.0879    3.0206 C   0  0  0  0  0  3  0  0  0  0  0  0
    6.8287    6.2503    4.2038 C   0  0  1  0  0  3  0  0  0  0  0  0
    6.4554    5.0867    3.4694 C   0  0  1  0  0  3  0  0  0  0  0  0
    7.2490    3.9923    3.8745 C   0  0  0  0  0  0  0  0  0  0  0  0
    8.1568    4.4441    4.8694 C   0  0  0  0  0  0  0  0  0  0  0  0
    7.9187    5.8531    5.0567 C   0  0  1  0  0  0  0  0  0  0  0  0
    8.7293    6.5767    5.9734 C   0  0  0  0  0  0  0  0  0  0  0  0
    9.7012    5.9266    6.6710 C   0  0  0  0  0  0  0  0  0  0  0  0
    9.1654    3.7614    5.6213 C   0  0  0  0  0  0  0  0  0  0  0  0
    9.4268    2.3897    5.4833 C   0  0  0  0  0  0  0  0  0  0  0  0
   10.4205    1.7908    6.2174 C   0  0  0  0  0  0  0  0  0  0  0  0
   11.1841    2.5414    7.1139 C   0  0  0  0  0  0  0  0  0  0  0  0
   10.9493    3.8848    7.2639 C   0  0  0  0  0  0  0  0  0  0  0  0
    9.9433    4.5285    6.5263 C   0  0  0  0  0  0  0  0  0  0  0  0
    5.3801    4.9892    2.4249 C   0  0  0  0  0  0  0  0  0  0  0  0
    6.6688    9.2911    5.1365 C   0  0  0  0  0  0  0  0  0  0  0  0
    4.8912    8.3287    2.7381 C   0  0  0  0  0  0  0  0  0  0  0  0
    4.5619    9.7944    2.4640 C   0  0  0  0  0  0  0  0  0  0  0  0
    5.6191   10.4869    1.6113 C   0  0  0  0  0  0  0  0  0  0  0  0
    5.2496   11.9365    1.3220 C   0  0  0  0  0  0  0  0  0  0  0  0
    7.2396    7.4102    0.5775 H   0  0  0  0  0  0  0  0  0  0  0  0
    9.7855    6.9491   -0.0845 H   0  0  0  0  0  0  0  0  0  0  0  0
   11.3284    7.6530    1.9905 H   0  0  0  0  0  0  0  0  0  0  0  0
    9.7454    8.5336    3.9479 H   0  0  0  0  0  0  0  0  0  0  0  0
    7.1102    2.9698    3.5446 H   0  0  0  0  0  0  0  0  0  0  0  0
    8.5437    7.6274    6.1472 H   0  0  0  0  0  0  0  0  0  0  0  0
   10.3188    6.4698    7.3721 H   0  0  0  0  0  0  0  0  0  0  0  0
    8.8446    1.8097    4.7816 H   0  0  0  0  0  0  0  0  0  0  0  0
   10.6197    0.7360    6.0987 H   0  0  0  0  0  0  0  0  0  0  0  0
   11.9659    2.0600    7.6828 H   0  0  0  0  0  0  0  0  0  0  0  0
   11.5454    4.4694    7.9502 H   0  0  0  0  0  0  0  0  0  0  0  0
    5.7276    5.3961    1.4695 H   0  0  0  0  0  0  0  0  0  0  0  0
    4.4861    5.5273    2.7322 H   0  0  0  0  0  0  0  0  0  0  0  0
    5.1178    3.9454    2.2612 H   0  0  0  0  0  0  0  0  0  0  0  0
    7.6927    9.6025    5.3149 H   0  0  0  0  0  0  0  0  0  0  0  0
    6.2797    8.8670    6.0564 H   0  0  0  0  0  0  0  0  0  0  0  0
    6.0980   10.1878    4.9252 H   0  0  0  0  0  0  0  0  0  0  0  0
    4.9130    7.8010    1.7850 H   0  0  0  0  0  0  0  0  0  0  0  0
    4.0725    7.9001    3.3165 H   0  0  0  0  0  0  0  0  0  0  0  0
    3.5989    9.8521    1.9490 H   0  0  0  0  0  0  0  0  0  0  0  0
    4.4520   10.3283    3.4093 H   0  0  0  0  0  0  0  0  0  0  0  0
    5.7327    9.9470    0.6694 H   0  0  0  0  0  0  0  0  0  0  0  0
    6.5800   10.4532    2.1281 H   0  0  0  0  0  0  0  0  0  0  0  0
    6.0169   12.4132    0.7175 H   0  0  0  0  0  0  0  0  0  0  0  0
    5.1459   12.4966    2.2488 H   0  0  0  0  0  0  0  0  0  0  0  0
    4.3058   11.9915    0.7839 H   0  0  0  0  0  0  0  0  0  0  0  0
  1  3  1  0  0  0  0
  1 14  1  0  0  0  0
  2  1  1  0  0  0  0
  4 25  1  6  0  0  0
  4 10  1  0  0  0  0
  4 24  1  0  0  0  0
  5  1  1  0  0  0  0
  5  9  1  0  0  0  0
  5  4  1  0  0  0  0
  6  5  1  0  0  0  0
  7  6  1  0  0  0  0
  7  8  2  0  0  0  0
  8 31  1  0  0  0  0
  8  9  1  0  0  0  0
  9 32  1  0  0  0  0
 10 14  1  0  0  0  0
 11 12  1  0  0  0  0
 11 10  1  0  0  0  0
 12 13  2  0  0  0  0
 13 14  1  0  0  0  0
 13 17  1  0  0  0  0
 14 15  1  0  0  0  0
 15 34  1  0  0  0  0
 15 16  2  0  0  0  0
 16 35  1  0  0  0  0
 17 22  1  0  0  0  0
 18 17  2  0  0  0  0
 18 19  1  0  0  0  0
 19 20  2  0  0  0  0
 20 21  1  0  0  0  0
 20 38  1  0  0  0  0
 21 39  1  0  0  0  0
 22 16  1  0  0  0  0
 22 21  2  0  0  0  0
 23 41  1  0  0  0  0
 23 11  1  0  0  0  0
 24 43  1  0  0  0  0
 24 44  1  0  0  0  0
 25 47  1  0  0  0  0
 26 25  1  0  0  0  0
 26 49  1  0  0  0  0
 27 51  1  0  0  0  0
 27 26  1  0  0  0  0
 28 27  1  0  0  0  0
 28 53  1  0  0  0  0
 29  6  1  0  0  0  0
 30  7  1  0  0  0  0
 33 12  1  0  0  0  0
 36 18  1  0  0  0  0
 37 19  1  0  0  0  0
 40 23  1  0  0  0  0
 42 23  1  0  0  0  0
 45 24  1  0  0  0  0
 46 25  1  0  0  0  0
 48 26  1  0  0  0  0
 50 27  1  0  0  0  0
 52 28  1  0  0  0  0
 54 28  1  0  0  0  0
M  END
$$$$
