CSD_code = KACDAW | q = 0 | S = 0 | Stoichiometry = C13H23BrCl2N2O3RuS3 | MND = 6
 OpenBabel04212202053D

 48 49  0  0  1  0  0  0  0  0999 V2000
    2.3824    2.2588    8.7560 Ru  0  0  0  0  0  0  0  0  0  0  0  0
    0.1349   -5.5709   10.3681 Br  0  0  0  0  0  0  0  0  0  0  0  0
    3.7816    2.0323   10.5381 S   0  0  0  0  0  0  0  0  0  0  0  0
    1.0920   -1.6400    9.6066 C   0  0  1  0  0  3  0  0  0  0  0  0
    1.4262    0.5122    9.2239 N   0  0  0  0  0  0  0  0  0  0  0  0
    5.0255    1.3486   10.2198 O   0  0  0  0  0  1  0  0  0  0  0  0
    1.0054    3.3154   10.3337 Cl  0  0  0  0  0  0  0  0  0  0  0  0
    2.0144   -0.6945    9.3072 N   0  0  0  0  0  0  0  0  0  0  0  0
    2.9458   -0.8014    8.8828 H   0  0  0  0  0  0  0  0  0  0  0  0
    1.2112   -3.0168    9.7786 C   0  0  0  0  0  0  0  0  0  0  0  0
    2.1524   -3.5255    9.6476 H   0  0  0  0  0  0  0  0  0  0  0  0
    3.1787    4.3066    8.1624 S   0  0  0  0  0  0  0  0  0  0  0  0
    0.8550    2.5039    6.9886 Cl  0  0  0  0  0  0  0  0  0  0  0  0
    4.5655    4.5260    8.5693 O   0  0  0  0  0  1  0  0  0  0  0  0
    3.8774    1.2033    7.3529 S   0  0  0  0  0  0  0  0  0  0  0  0
    0.0581   -3.6869   10.1172 C   0  0  0  0  0  0  0  0  0  0  0  0
    4.0215   -0.2208    7.6791 O   0  0  0  0  0  1  0  0  0  0  0  0
   -1.1786   -3.0467   10.2895 C   0  0  0  0  0  0  0  0  0  0  0  0
   -2.0393   -3.6399   10.5564 H   0  0  0  0  0  0  0  0  0  0  0  0
   -1.2930   -1.6896   10.1199 C   0  0  0  0  0  0  0  0  0  0  0  0
   -2.2386   -1.1890   10.2497 H   0  0  0  0  0  0  0  0  0  0  0  0
   -0.1464   -0.9680    9.7728 C   0  0  0  0  0  0  0  0  0  0  0  0
    0.1484    0.3887    9.5066 C   0  0  0  0  0  0  0  0  0  0  0  0
   -0.5087    1.2391    9.5156 H   0  0  0  0  0  0  0  0  0  0  0  0
    4.2104    3.5368   11.4570 C   0  0  0  0  0  0  0  0  0  0  0  0
    4.8842    3.2634   12.2601 H   0  0  0  0  0  0  0  0  0  0  0  0
    3.2850    3.9615   11.8297 H   0  0  0  0  0  0  0  0  0  0  0  0
    4.7003    4.2116   10.7622 H   0  0  0  0  0  0  0  0  0  0  0  0
    3.0289    1.1280   11.9318 C   0  0  0  0  0  0  0  0  0  0  0  0
    3.6856    1.1959   12.7909 H   0  0  0  0  0  0  0  0  0  0  0  0
    2.9116    0.0910   11.6362 H   0  0  0  0  0  0  0  0  0  0  0  0
    2.0652    1.5869   12.1281 H   0  0  0  0  0  0  0  0  0  0  0  0
    3.1068    4.7519    6.3948 C   0  0  0  0  0  0  0  0  0  0  0  0
    3.2434    5.8226    6.3013 H   0  0  0  0  0  0  0  0  0  0  0  0
    2.1403    4.4343    6.0164 H   0  0  0  0  0  0  0  0  0  0  0  0
    3.9101    4.2349    5.8825 H   0  0  0  0  0  0  0  0  0  0  0  0
    2.2195    5.7256    8.7608 C   0  0  0  0  0  0  0  0  0  0  0  0
    2.7205    6.6348    8.4491 H   0  0  0  0  0  0  0  0  0  0  0  0
    2.1588    5.6710    9.8426 H   0  0  0  0  0  0  0  0  0  0  0  0
    1.2261    5.6378    8.3342 H   0  0  0  0  0  0  0  0  0  0  0  0
    5.5773    1.8278    7.2873 C   0  0  0  0  0  0  0  0  0  0  0  0
    6.0962    1.3258    6.4795 H   0  0  0  0  0  0  0  0  0  0  0  0
    6.0199    1.5748    8.2460 H   0  0  0  0  0  0  0  0  0  0  0  0
    5.5660    2.9040    7.1635 H   0  0  0  0  0  0  0  0  0  0  0  0
    3.5133    1.2048    5.5664 C   0  0  0  0  0  0  0  0  0  0  0  0
    3.9960    0.3320    5.1423 H   0  0  0  0  0  0  0  0  0  0  0  0
    3.8799    2.1181    5.1167 H   0  0  0  0  0  0  0  0  0  0  0  0
    2.4345    1.1436    5.4530 H   0  0  0  0  0  0  0  0  0  0  0  0
  1  5  1  0  0  0  0
  1  7  1  0  0  0  0
  1  3  1  0  0  0  0
  3 25  1  0  0  0  0
  3 29  1  0  0  0  0
  4 22  1  1  0  0  0
  4 10  1  0  0  0  0
  5  8  1  0  0  0  0
  5 23  1  0  0  0  0
  6  3  1  0  0  0  0
  8  4  1  0  0  0  0
  9  8  1  0  0  0  0
 10 16  2  0  0  0  0
 11 10  1  0  0  0  0
 12 14  1  0  0  0  0
 12  1  1  0  0  0  0
 12 37  1  0  0  0  0
 13  1  1  0  0  0  0
 15 17  1  0  0  0  0
 15  1  1  0  0  0  0
 16 18  1  0  0  0  0
 16  2  1  0  0  0  0
 18 19  1  0  0  0  0
 20 21  1  0  0  0  0
 20 18  2  0  0  0  0
 22 20  1  0  0  0  0
 23 24  1  0  0  0  0
 23 22  2  0  0  0  0
 25 27  1  0  0  0  0
 25 26  1  0  0  0  0
 28 25  1  0  0  0  0
 29 32  1  0  0  0  0
 29 30  1  0  0  0  0
 31 29  1  0  0  0  0
 33 12  1  0  0  0  0
 34 33  1  0  0  0  0
 35 33  1  0  0  0  0
 36 33  1  0  0  0  0
 37 39  1  0  0  0  0
 38 37  1  0  0  0  0
 40 37  1  0  0  0  0
 41 15  1  0  0  0  0
 41 43  1  0  0  0  0
 42 41  1  0  0  0  0
 44 41  1  0  0  0  0
 45 15  1  0  0  0  0
 46 45  1  0  0  0  0
 47 45  1  0  0  0  0
 48 45  1  0  0  0  0
M  END
$$$$
