CSD_code = KACFOJ | q = 0 | S = 0 | Stoichiometry = C13H12BrClNORh | MND = 6
 OpenBabel04212202053D

 30 31  0  0  1  0  0  0  0  0999 V2000
    0.4096    0.4119    2.5144 Rh  0  0  0  0  0  0  0  0  0  0  0  0
    1.7352    5.0425    7.8697 Br  0  0  0  0  0  0  0  0  0  0  0  0
   -1.6344    0.1104    3.2995 Cl  0  0  0  0  0 15  0  0  0  0  0  0
    0.3221    2.9056    1.6350 O   0  0  0  0  0  1  0  0  0  0  0  0
    0.4347    2.2193    2.6688 N   0  0  0  0  0  0  0  0  0  0  0  0
    0.7541    2.8818    3.8656 C   0  0  0  0  0  0  0  0  0  0  0  0
    0.9163    2.1387    5.0403 C   0  0  0  0  0  0  0  0  0  0  0  0
    1.2118    2.7786    6.2240 C   0  0  0  0  0  0  0  0  0  0  0  0
    1.3336    4.1633    6.2365 C   0  0  0  0  0  0  0  0  0  0  0  0
    1.1630    4.9157    5.0830 C   0  0  0  0  0  0  0  0  0  0  0  0
    0.8743    4.2741    3.8977 C   0  0  0  0  0  0  0  0  0  0  0  0
    0.5856   -1.5404    1.4698 C   0  0  0  0  0  0  0  0  0  0  0  0
    1.0583   -1.6930    2.7431 C   0  0  0  0  0  0  0  0  0  0  0  0
    2.5536   -1.3696    2.6933 C   0  0  2  0  0  0  0  0  0  0  0  0
    2.5517    0.1374    2.4142 C   0  0  1  0  0  0  0  0  0  0  0  0
    2.0706    0.2879    1.1248 C   0  0  0  0  0  3  0  0  0  0  0  0
    1.7775   -1.1211    0.6078 C   0  0  1  0  0  0  0  0  0  0  0  0
    2.9036   -1.9091    1.2970 C   0  0  0  0  0  0  0  0  0  0  0  0
    0.7915    1.0564    5.0113 H   0  0  0  0  0  0  0  0  0  0  0  0
    1.3391    2.2176    7.1368 H   0  0  0  0  0  0  0  0  0  0  0  0
    1.2543    5.9902    5.1174 H   0  0  0  0  0  0  0  0  0  0  0  0
    0.7314    4.8253    2.9801 H   0  0  0  0  0  0  0  0  0  0  0  0
   -0.3592   -1.8820    1.0691 H   0  0  0  0  0  0  0  0  0  0  0  0
    0.5758   -2.1962    3.5694 H   0  0  0  0  0  0  0  0  0  0  0  0
    3.1533   -1.7073    3.5339 H   0  0  0  0  0  0  0  0  0  0  0  0
    3.1591    0.8406    2.9690 H   0  0  0  0  0  0  0  0  0  0  0  0
    2.1891    1.1451    0.4769 H   0  0  0  0  0  0  0  0  0  0  0  0
    1.6622   -1.2290   -0.4665 H   0  0  0  0  0  0  0  0  0  0  0  0
    2.7857   -2.9890    1.2122 H   0  0  0  0  0  0  0  0  0  0  0  0
    3.8984   -1.6154    0.9623 H   0  0  0  0  0  0  0  0  0  0  0  0
  1  5  1  0  0  0  0
  4  5  1  0  0  0  0
  5  6  1  0  0  0  0
  6 11  2  0  0  0  0
  6  7  1  0  0  0  0
  7  8  2  0  0  0  0
  8  9  1  0  0  0  0
  8 20  1  0  0  0  0
  9  2  1  0  0  0  0
 10 21  1  0  0  0  0
 10  9  2  0  0  0  0
 11 10  1  0  0  0  0
 12 13  2  0  0  0  0
 13 24  1  0  0  0  0
 14 13  1  0  0  0  0
 14 25  1  1  0  0  0
 15  1  1  0  0  0  0
 15 14  1  0  0  0  0
 15 26  1  1  0  0  0
 16 15  1  0  0  0  0
 17 28  1  6  0  0  0
 17 16  1  0  0  0  0
 17 18  1  0  0  0  0
 17 12  1  0  0  0  0
 18 14  1  0  0  0  0
 19  7  1  0  0  0  0
 22 11  1  0  0  0  0
 23 12  1  0  0  0  0
 27 16  1  0  0  0  0
 29 18  1  0  0  0  0
 30 18  1  0  0  0  0
M  END
$$$$
