CSD_code = KACMUZ | q = 0 | S = 0 | Stoichiometry = C32H32ClN3Pd | MND = 4
 OpenBabel04212202053D

 69 74  0  0  1  0  0  0  0  0999 V2000
    1.5727    5.2913    4.8327 C   0  0  2  0  0  3  0  0  0  0  0  0
    3.1737    3.7356    4.8773 C   0  0  0  0  0  0  0  0  0  0  0  0
    3.6967    2.8688    5.2243 H   0  0  0  0  0  0  0  0  0  0  0  0
    3.4701    4.6074    3.8879 C   0  0  0  0  0  0  0  0  0  0  0  0
    4.2770    4.6117    3.1849 H   0  0  0  0  0  0  0  0  0  0  0  0
    2.4938    6.7054    3.0328 C   0  0  0  0  0  0  0  0  0  0  0  0
    3.5913    7.5711    3.0954 C   0  0  0  0  0  0  0  0  0  0  0  0
    3.6256    8.6595    2.2400 C   0  0  0  0  0  0  0  0  0  0  0  0
    4.4659    9.3369    2.2898 H   0  0  0  0  0  0  0  0  0  0  0  0
    2.5987    8.9175    1.3434 C   0  0  0  0  0  0  0  0  0  0  0  0
    1.5067    8.0663    1.3288 C   0  0  0  0  0  0  0  0  0  0  0  0
    0.6840    8.2692    0.6578 H   0  0  0  0  0  0  0  0  0  0  0  0
    1.4301    6.9603    2.1649 C   0  0  0  0  0  0  0  0  0  0  0  0
    0.2022    6.1003    2.1371 C   0  0  0  0  0  0  0  0  0  0  0  0
   -0.3438    6.2469    1.2081 H   0  0  0  0  0  0  0  0  0  0  0  0
   -0.4617    6.3850    2.9786 H   0  0  0  0  0  0  0  0  0  0  0  0
    0.4489    5.0436    2.2391 H   0  0  0  0  0  0  0  0  0  0  0  0
    4.6754    7.3908    4.1147 C   0  0  0  0  0  0  0  0  0  0  0  0
    4.2275    7.2129    5.0910 H   0  0  0  0  0  0  0  0  0  0  0  0
    5.2768    8.2937    4.1766 H   0  0  0  0  0  0  0  0  0  0  0  0
    5.3357    6.5585    3.8746 H   0  0  0  0  0  0  0  0  0  0  0  0
    2.6541   10.1171    0.4475 C   0  0  0  0  0  0  0  0  0  0  0  0
    2.2952   10.9950    0.9852 H   0  0  0  0  0  0  0  0  0  0  0  0
    2.0275    9.9779   -0.4303 H   0  0  0  0  0  0  0  0  0  0  0  0
    3.6749   10.3147    0.1276 H   0  0  0  0  0  0  0  0  0  0  0  0
    1.2732    3.5040    6.4716 C   0  0  0  0  0  0  0  0  0  0  0  0
    0.9607    4.1749    7.6604 C   0  0  0  0  0  0  0  0  0  0  0  0
    0.1199    3.5487    8.5702 C   0  0  0  0  0  0  0  0  0  0  0  0
   -0.1423    4.0705    9.4797 H   0  0  0  0  0  0  0  0  0  0  0  0
   -0.3936    2.2822    8.3409 C   0  0  0  0  0  0  0  0  0  0  0  0
   -0.0080    1.6128    7.1906 C   0  0  0  0  0  0  0  0  0  0  0  0
   -0.3755    0.6130    7.0104 H   0  0  0  0  0  0  0  0  0  0  0  0
    0.8164    2.2026    6.2446 C   0  0  0  0  0  0  0  0  0  0  0  0
    1.1820    1.4212    5.0161 C   0  0  0  0  0  0  0  0  0  0  0  0
    2.0815    0.8318    5.1984 H   0  0  0  0  0  0  0  0  0  0  0  0
    1.3680    2.0659    4.1610 H   0  0  0  0  0  0  0  0  0  0  0  0
    0.3802    0.7319    4.7637 H   0  0  0  0  0  0  0  0  0  0  0  0
    1.5401    5.5165    8.0062 C   0  0  0  0  0  0  0  0  0  0  0  0
    0.8677    6.3350    7.6887 H   0  0  0  0  0  0  0  0  0  0  0  0
    2.5062    5.6718    7.5252 H   0  0  0  0  0  0  0  0  0  0  0  0
    1.6687    5.5968    9.0841 H   0  0  0  0  0  0  0  0  0  0  0  0
   -1.3565    1.6607    9.3041 C   0  0  0  0  0  0  0  0  0  0  0  0
   -2.3689    1.9850    9.0614 H   0  0  0  0  0  0  0  0  0  0  0  0
   -1.1403    1.9666   10.3250 H   0  0  0  0  0  0  0  0  0  0  0  0
   -1.3252    0.5756    9.2437 H   0  0  0  0  0  0  0  0  0  0  0  0
   -2.3838    2.8241    4.9862 C   0  0  0  0  0  0  0  0  0  0  0  0
   -2.3949    1.8735    4.4703 H   0  0  0  0  0  0  0  0  0  0  0  0
   -1.3702    3.7342    4.7376 C   0  0  0  0  0  0  0  0  0  0  0  0
   -0.6060    3.4713    4.0169 H   0  0  0  0  0  0  0  0  0  0  0  0
   -1.3243    4.9694    5.3759 C   0  0  0  0  0  0  0  0  0  0  0  0
   -2.3934    5.2865    6.2427 C   0  0  0  0  0  0  0  0  0  0  0  0
   -2.4252    6.6629    6.7324 C   0  0  0  0  0  0  0  0  0  0  0  0
   -1.4525    8.7544    6.5158 C   0  0  0  0  0  0  0  0  0  0  0  0
   -0.6515    9.3408    6.0793 H   0  0  0  0  0  0  0  0  0  0  0  0
   -2.3949    9.3404    7.3441 C   0  0  0  0  0  0  0  0  0  0  0  0
   -2.3528   10.3980    7.5492 H   0  0  0  0  0  0  0  0  0  0  0  0
   -3.3735    8.5338    7.9050 C   0  0  0  0  0  0  0  0  0  0  0  0
   -4.1146    8.9497    8.5721 H   0  0  0  0  0  0  0  0  0  0  0  0
   -3.3899    7.1878    7.5945 C   0  0  0  0  0  0  0  0  0  0  0  0
   -4.1421    6.5434    8.0204 H   0  0  0  0  0  0  0  0  0  0  0  0
   -3.3973    4.3566    6.5148 C   0  0  0  0  0  0  0  0  0  0  0  0
   -4.1989    4.5959    7.1994 H   0  0  0  0  0  0  0  0  0  0  0  0
   -3.3815    3.1215    5.9004 C   0  0  0  0  0  0  0  0  0  0  0  0
   -4.1569    2.3995    6.1143 H   0  0  0  0  0  0  0  0  0  0  0  0
    1.5958    8.1771    5.6455 Cl  0  0  0  0  0  0  0  0  0  0  0  0
    2.0081    4.1734    5.4569 N   0  0  0  0  0  0  0  0  0  0  0  0
    2.4801    5.5592    3.8760 N   0  0  0  0  0  0  0  0  0  0  0  0
   -1.4631    7.4612    6.2231 N   0  0  0  0  0  0  0  0  0  0  0  0
    0.0680    6.4056    5.4123 Pd  0  0  2  0  0  0  0  0  0  0  0  0
  1 67  1  1  0  0  0
  1 69  1  0  0  0  0
  1 66  1  0  0  0  0
  2  3  1  0  0  0  0
  2 66  1  0  0  0  0
  4  2  2  0  0  0  0
  5  4  1  0  0  0  0
  6  7  1  0  0  0  0
  6 67  1  0  0  0  0
  7 18  1  0  0  0  0
  8  9  1  0  0  0  0
  8  7  2  0  0  0  0
 10  8  1  0  0  0  0
 11 10  2  0  0  0  0
 11 13  1  0  0  0  0
 12 11  1  0  0  0  0
 13  6  2  0  0  0  0
 14 13  1  0  0  0  0
 14 17  1  0  0  0  0
 14 16  1  0  0  0  0
 15 14  1  0  0  0  0
 18 20  1  0  0  0  0
 18 19  1  0  0  0  0
 21 18  1  0  0  0  0
 22 23  1  0  0  0  0
 22 10  1  0  0  0  0
 24 22  1  0  0  0  0
 25 22  1  0  0  0  0
 26 27  1  0  0  0  0
 27 38  1  0  0  0  0
 27 28  2  0  0  0  0
 28 29  1  0  0  0  0
 30 28  1  0  0  0  0
 30 42  1  0  0  0  0
 31 30  2  0  0  0  0
 32 31  1  0  0  0  0
 33 26  2  0  0  0  0
 33 31  1  0  0  0  0
 34 35  1  0  0  0  0
 34 33  1  0  0  0  0
 36 34  1  0  0  0  0
 37 34  1  0  0  0  0
 38 41  1  0  0  0  0
 39 38  1  0  0  0  0
 40 38  1  0  0  0  0
 42 44  1  0  0  0  0
 43 42  1  0  0  0  0
 45 42  1  0  0  0  0
 46 63  1  0  0  0  0
 47 46  1  0  0  0  0
 48 46  2  0  0  0  0
 48 50  1  0  0  0  0
 49 48  1  0  0  0  0
 50 69  2  0  0  0  0
 50 51  1  0  0  0  0
 51 61  1  0  0  0  0
 51 52  2  0  0  0  0
 52 59  1  0  0  0  0
 53 55  2  0  0  0  0
 54 53  1  0  0  0  0
 55 56  1  0  0  0  0
 55 57  1  0  0  0  0
 57 58  1  0  0  0  0
 59 57  2  0  0  0  0
 59 60  1  0  0  0  0
 61 62  1  0  0  0  0
 63 64  1  0  0  0  0
 63 61  2  0  0  0  0
 66 26  1  0  0  0  0
 67  4  1  0  0  0  0
 68 53  1  0  0  0  0
 68 52  1  0  0  0  0
 69 65  1  6  0  0  0
 69 68  1  0  0  0  0
M  END
$$$$
