CSD_code = KACNOR | q = 0 | S = 0 | Stoichiometry = C8H24Cl2O4RuS4 | MND = 6
 OpenBabel04212202053D

 43 42  0  0  0  0  0  0  0  0999 V2000
    0.0000   -0.0000    5.5835 Ru  0  0  0  0  0  0  0  0  0  0  0  0
    0.0000   -0.0000    3.2628 Cl  0  0  0  0  0  0  0  0  0  0  0  0
    2.2478    0.4190    5.5835 S   0  0  0  0  0  0  0  0  0  0  0  0
    2.9394   -0.8712    5.5835 O   0  0  0  0  0  1  0  0  0  0  0  0
    2.9605    1.3453    4.1986 C   0  0  0  0  0  0  0  0  0  0  0  0
    4.0382    1.2505    4.2567 H   0  0  0  0  0  0  0  0  0  0  0  0
    2.5811    0.8944    3.2867 H   0  0  0  0  0  0  0  0  0  0  0  0
    2.6291    2.3722    4.2832 H   0  0  0  0  0  0  0  0  0  0  0  0
   -0.0000   -0.0000    7.9043 Cl  0  0  0  0  0  0  0  0  0  0  0  0
   -2.2478   -0.4190    5.5835 S   0  0  0  0  0  0  0  0  0  0  0  0
   -0.4190    2.2478    5.5835 S   0  0  0  0  0  0  0  0  0  0  0  0
    0.4190   -2.2478    5.5835 S   0  0  0  0  0  0  0  0  0  0  0  0
    2.9605    1.3452    6.9684 C   0  0  0  0  0  0  0  0  0  0  0  0
   -2.9394    0.8712    5.5835 O   0  0  0  0  0  1  0  0  0  0  0  0
   -2.9605   -1.3452    6.9684 C   0  0  0  0  0  0  0  0  0  0  0  0
   -2.9605   -1.3453    4.1986 C   0  0  0  0  0  0  0  0  0  0  0  0
    0.8712    2.9394    5.5835 O   0  0  0  0  0  1  0  0  0  0  0  0
   -1.3452    2.9605    4.1986 C   0  0  0  0  0  0  0  0  0  0  0  0
   -1.3453    2.9605    6.9684 C   0  0  0  0  0  0  0  0  0  0  0  0
   -0.8712   -2.9394    5.5835 O   0  0  0  0  0  1  0  0  0  0  0  0
    1.3453   -2.9605    6.9684 C   0  0  0  0  0  0  0  0  0  0  0  0
    1.3452   -2.9605    4.1986 C   0  0  0  0  0  0  0  0  0  0  0  0
    4.0382    1.2505    6.9102 H   0  0  0  0  0  0  0  0  0  0  0  0
    2.5811    0.8943    7.8803 H   0  0  0  0  0  0  0  0  0  0  0  0
    2.6291    2.3721    6.8838 H   0  0  0  0  0  0  0  0  0  0  0  0
   -4.0382   -1.2505    6.9102 H   0  0  0  0  0  0  0  0  0  0  0  0
   -2.5811   -0.8943    7.8803 H   0  0  0  0  0  0  0  0  0  0  0  0
   -2.6291   -2.3721    6.8838 H   0  0  0  0  0  0  0  0  0  0  0  0
   -4.0382   -1.2505    4.2567 H   0  0  0  0  0  0  0  0  0  0  0  0
   -2.5811   -0.8944    3.2867 H   0  0  0  0  0  0  0  0  0  0  0  0
   -2.6291   -2.3722    4.2832 H   0  0  0  0  0  0  0  0  0  0  0  0
   -1.2505    4.0382    4.2568 H   0  0  0  0  0  0  0  0  0  0  0  0
   -0.8943    2.5811    3.2867 H   0  0  0  0  0  0  0  0  0  0  0  0
   -2.3721    2.6291    4.2832 H   0  0  0  0  0  0  0  0  0  0  0  0
   -1.2505    4.0382    6.9103 H   0  0  0  0  0  0  0  0  0  0  0  0
   -0.8944    2.5811    7.8803 H   0  0  0  0  0  0  0  0  0  0  0  0
   -2.3722    2.6291    6.8838 H   0  0  0  0  0  0  0  0  0  0  0  0
    1.2505   -4.0382    6.9103 H   0  0  0  0  0  0  0  0  0  0  0  0
    0.8944   -2.5811    7.8803 H   0  0  0  0  0  0  0  0  0  0  0  0
    2.3722   -2.6291    6.8838 H   0  0  0  0  0  0  0  0  0  0  0  0
    1.2505   -4.0382    4.2568 H   0  0  0  0  0  0  0  0  0  0  0  0
    0.8943   -2.5811    3.2867 H   0  0  0  0  0  0  0  0  0  0  0  0
    2.3721   -2.6291    4.2832 H   0  0  0  0  0  0  0  0  0  0  0  0
  1  9  1  0  0  0  0
  2  1  1  0  0  0  0
  3  1  1  0  0  0  0
  3 13  1  0  0  0  0
  4  3  1  0  0  0  0
  5  6  1  0  0  0  0
  5  8  1  0  0  0  0
  5  3  1  0  0  0  0
  7  5  1  0  0  0  0
 10  1  1  0  0  0  0
 10 15  1  0  0  0  0
 11 17  1  0  0  0  0
 11  1  1  0  0  0  0
 11 19  1  0  0  0  0
 12 20  1  0  0  0  0
 12  1  1  0  0  0  0
 12 21  1  0  0  0  0
 13 24  1  0  0  0  0
 14 10  1  0  0  0  0
 15 27  1  0  0  0  0
 16 29  1  0  0  0  0
 16 31  1  0  0  0  0
 16 10  1  0  0  0  0
 18 32  1  0  0  0  0
 18 34  1  0  0  0  0
 18 11  1  0  0  0  0
 19 36  1  0  0  0  0
 21 39  1  0  0  0  0
 22 41  1  0  0  0  0
 22 43  1  0  0  0  0
 22 12  1  0  0  0  0
 23 13  1  0  0  0  0
 25 13  1  0  0  0  0
 26 15  1  0  0  0  0
 28 15  1  0  0  0  0
 30 16  1  0  0  0  0
 33 18  1  0  0  0  0
 35 19  1  0  0  0  0
 37 19  1  0  0  0  0
 38 21  1  0  0  0  0
 40 21  1  0  0  0  0
 42 22  1  0  0  0  0
M  END
$$$$
