CSD_code = KACNUX | q = 0 | S = 0 | Stoichiometry = C8H24Br2O4RuS4 | MND = 6
 OpenBabel04212202053D

 43 42  0  0  0  0  0  0  0  0999 V2000
    0.4021    3.4791    2.5847 Ru  0  0  0  0  0  0  0  0  0  0  0  0
    2.0396    3.8898    4.3737 Br  0  0  0  0  0  0  0  0  0  0  0  0
    1.8114    1.7536    1.5241 Br  0  0  0  0  0  0  0  0  0  0  0  0
    1.3689    5.0294    1.3147 S   0  0  0  0  0  0  0  0  0  0  0  0
   -1.0403    4.8232    3.6609 S   0  0  0  0  0  0  0  0  0  0  0  0
   -1.2010    3.0675    1.0142 S   0  0  0  0  0  0  0  0  0  0  0  0
    0.7340    0.9941    4.2985 S   0  0  0  0  0  3  0  0  0  0  0  0
    0.7953    5.0415   -0.0217 O   0  0  0  0  0  1  0  0  0  0  0  0
   -1.5234    5.8844    2.7811 O   0  0  0  0  0  1  0  0  0  0  0  0
   -2.2390    2.2822    1.6749 O   0  0  0  0  0  1  0  0  0  0  0  0
   -0.3973    1.8958    3.8822 O   0  0  0  0  0  0  0  0  0  0  0  0
    1.3331    6.7391    1.9299 C   0  0  0  0  0  0  0  0  0  0  0  0
    3.1714    4.9009    1.1033 C   0  0  0  0  0  0  0  0  0  0  0  0
   -0.6124    5.6690    5.2220 C   0  0  0  0  0  0  0  0  0  0  0  0
   -2.5071    3.9544    4.2781 C   0  0  0  0  0  0  0  0  0  0  0  0
   -0.7599    2.1690   -0.5062 C   0  0  0  0  0  0  0  0  0  0  0  0
   -2.0776    4.4296    0.1930 C   0  0  0  0  0  0  0  0  0  0  0  0
    0.1582   -0.6453    3.7495 C   0  0  0  0  0  0  0  0  0  0  0  0
    0.3612    0.7474    6.0730 C   0  0  0  0  0  0  0  0  0  0  0  0
    0.2958    6.9970    2.1219 H   0  0  0  0  0  0  0  0  0  0  0  0
    1.9217    6.7804    2.8402 H   0  0  0  0  0  0  0  0  0  0  0  0
    1.7453    7.3830    1.1622 H   0  0  0  0  0  0  0  0  0  0  0  0
    3.3865    3.9678    0.5920 H   0  0  0  0  0  0  0  0  0  0  0  0
    3.4949    5.7427    0.5033 H   0  0  0  0  0  0  0  0  0  0  0  0
    3.6360    4.9032    2.0836 H   0  0  0  0  0  0  0  0  0  0  0  0
    0.2361    6.3212    5.0445 H   0  0  0  0  0  0  0  0  0  0  0  0
   -1.4785    6.2491    5.5179 H   0  0  0  0  0  0  0  0  0  0  0  0
   -0.3520    4.9272    5.9675 H   0  0  0  0  0  0  0  0  0  0  0  0
   -2.8362    3.2697    3.4999 H   0  0  0  0  0  0  0  0  0  0  0  0
   -2.2249    3.3963    5.1630 H   0  0  0  0  0  0  0  0  0  0  0  0
   -3.2678    4.6957    4.4924 H   0  0  0  0  0  0  0  0  0  0  0  0
   -0.3992    1.1807   -0.2426 H   0  0  0  0  0  0  0  0  0  0  0  0
   -1.6512    2.0946   -1.1176 H   0  0  0  0  0  0  0  0  0  0  0  0
    0.0195    2.7375   -1.0017 H   0  0  0  0  0  0  0  0  0  0  0  0
   -2.3320    5.1769    0.9370 H   0  0  0  0  0  0  0  0  0  0  0  0
   -1.4175    4.8555   -0.5514 H   0  0  0  0  0  0  0  0  0  0  0  0
   -2.9733    4.0057   -0.2458 H   0  0  0  0  0  0  0  0  0  0  0  0
    0.3828   -0.7226    2.6911 H   0  0  0  0  0  0  0  0  0  0  0  0
    0.6911   -1.4138    4.2951 H   0  0  0  0  0  0  0  0  0  0  0  0
   -0.9115   -0.7057    3.9113 H   0  0  0  0  0  0  0  0  0  0  0  0
    0.6190    1.6709    6.5810 H   0  0  0  0  0  0  0  0  0  0  0  0
   -0.6927    0.5265    6.1932 H   0  0  0  0  0  0  0  0  0  0  0  0
    0.9779   -0.0578    6.4515 H   0  0  0  0  0  0  0  0  0  0  0  0
  1  5  1  0  0  0  0
  1 11  1  0  0  0  0
  1  2  1  0  0  0  0
  3  1  1  0  0  0  0
  4 12  1  0  0  0  0
  4  1  1  0  0  0  0
  5 15  1  0  0  0  0
  5 14  1  0  0  0  0
  6 10  1  0  0  0  0
  6  1  1  0  0  0  0
  7 19  1  0  0  0  0
  8  4  1  0  0  0  0
  9  5  1  0  0  0  0
 11  7  1  0  0  0  0
 12 20  1  0  0  0  0
 12 21  1  0  0  0  0
 13  4  1  0  0  0  0
 13 25  1  0  0  0  0
 14 27  1  0  0  0  0
 14 28  1  0  0  0  0
 15 31  1  0  0  0  0
 15 30  1  0  0  0  0
 16 32  1  0  0  0  0
 16  6  1  0  0  0  0
 17 35  1  0  0  0  0
 17  6  1  0  0  0  0
 18 40  1  0  0  0  0
 18 39  1  0  0  0  0
 18  7  1  0  0  0  0
 19 42  1  0  0  0  0
 19 43  1  0  0  0  0
 19 41  1  0  0  0  0
 22 12  1  0  0  0  0
 23 13  1  0  0  0  0
 24 13  1  0  0  0  0
 26 14  1  0  0  0  0
 29 15  1  0  0  0  0
 33 16  1  0  0  0  0
 34 16  1  0  0  0  0
 36 17  1  0  0  0  0
 37 17  1  0  0  0  0
 38 18  1  0  0  0  0
M  END
$$$$
