CSD_code = KADDEY | q = 0 | S = 0 | Stoichiometry = C26H29ClTi | MND = 10
 OpenBabel04212202053D

 57 60  0  0  1  0  0  0  0  0999 V2000
    2.0592    4.0987    1.3323 Ti  0  0  1  0  0  0  0  0  0  0  0  0
    0.0722    4.0987    0.3760 Cl  0  0  0  0  0  0  0  0  0  0  0  0
    1.4882    2.6118    2.7669 C   0  0  2  0  0  0  0  0  0  0  0  0
    2.4619    3.4023    3.4562 C   0  0  0  0  0  0  0  0  0  0  0  0
    2.8280    4.0988   -0.7639 C   0  0  1  0  0  0  0  0  0  0  0  0
    3.3613    2.9444   -0.1155 C   0  0  2  0  0  3  0  0  0  0  0  0
    4.2451    3.3872    0.9073 C   0  0  0  0  0  0  0  0  0  0  0  0
    2.0517    4.0988   -2.0468 C   0  0  0  0  0  0  0  0  0  0  0  0
    3.1369    1.5309   -0.5661 C   0  0  0  0  0  0  0  0  0  0  0  0
    5.1973    2.5147    1.6698 C   0  0  0  0  0  0  0  0  0  0  0  0
    1.6203    1.1811    2.5438 C   0  0  0  0  0  0  0  0  0  0  0  0
    0.6689    0.5507    1.7253 C   0  0  0  0  0  0  0  0  0  0  0  0
    0.7586   -0.7921    1.4264 C   0  0  0  0  0  0  0  0  0  0  0  0
    1.7957   -1.5563    1.9415 C   0  0  0  0  0  0  0  0  0  0  0  0
    2.7308   -0.9590    2.7696 C   0  0  0  0  0  0  0  0  0  0  0  0
    2.6471    0.3874    3.0709 C   0  0  0  0  0  0  0  0  0  0  0  0
    0.4443    2.9509    2.8151 H   0  0  0  0  0  0  0  0  0  0  0  0
    3.3210    2.9077    3.9021 H   0  0  0  0  0  0  0  0  0  0  0  0
   -0.1390    1.1443    1.3135 H   0  0  0  0  0  0  0  0  0  0  0  0
    0.0169   -1.2518    0.7891 H   0  0  0  0  0  0  0  0  0  0  0  0
    1.8677   -2.6079    1.7076 H   0  0  0  0  0  0  0  0  0  0  0  0
    3.5322   -1.5497    3.1913 H   0  0  0  0  0  0  0  0  0  0  0  0
    3.3740    0.8142    3.7470 H   0  0  0  0  0  0  0  0  0  0  0  0
    2.7437    4.0988   -2.8935 H   0  0  0  0  0  0  0  0  0  0  0  0
    1.4188    3.2151   -2.1223 H   0  0  0  0  0  0  0  0  0  0  0  0
    3.7117    1.3333   -1.4743 H   0  0  0  0  0  0  0  0  0  0  0  0
    2.0821    1.3584   -0.7884 H   0  0  0  0  0  0  0  0  0  0  0  0
    3.4454    0.8168    0.1953 H   0  0  0  0  0  0  0  0  0  0  0  0
    5.4825    2.9669    2.6184 H   0  0  0  0  0  0  0  0  0  0  0  0
    6.1084    2.3723    1.0828 H   0  0  0  0  0  0  0  0  0  0  0  0
    4.7669    1.5337    1.8625 H   0  0  0  0  0  0  0  0  0  0  0  0
    1.4883    5.5857    2.7669 C   0  0  1  0  0  0  0  0  0  0  0  0
    2.4619    4.7952    3.4562 C   0  0  0  0  0  0  0  0  0  0  0  0
    3.3613    5.2531   -0.1155 C   0  0  1  0  0  3  0  0  0  0  0  0
    4.2451    4.8103    0.9073 C   0  0  0  0  0  0  0  0  0  0  0  0
    1.4189    4.9825   -2.1223 H   0  0  0  0  0  0  0  0  0  0  0  0
    1.6203    7.0164    2.5437 C   0  0  0  0  0  0  0  0  0  0  0  0
    0.4443    5.2466    2.8151 H   0  0  0  0  0  0  0  0  0  0  0  0
    3.3210    5.2898    3.9020 H   0  0  0  0  0  0  0  0  0  0  0  0
    3.1369    6.6666   -0.5660 C   0  0  0  0  0  0  0  0  0  0  0  0
    5.1974    5.6828    1.6698 C   0  0  0  0  0  0  0  0  0  0  0  0
    0.6689    7.6468    1.7253 C   0  0  0  0  0  0  0  0  0  0  0  0
    2.6471    7.8102    3.0708 C   0  0  0  0  0  0  0  0  0  0  0  0
    3.7117    6.8642   -1.4743 H   0  0  0  0  0  0  0  0  0  0  0  0
    2.0822    6.8391   -0.7884 H   0  0  0  0  0  0  0  0  0  0  0  0
    3.4455    7.3806    0.1954 H   0  0  0  0  0  0  0  0  0  0  0  0
    5.4825    5.2304    2.6184 H   0  0  0  0  0  0  0  0  0  0  0  0
    6.1084    5.8251    1.0828 H   0  0  0  0  0  0  0  0  0  0  0  0
    4.7669    6.6638    1.8625 H   0  0  0  0  0  0  0  0  0  0  0  0
    0.7585    8.9896    1.4264 C   0  0  0  0  0  0  0  0  0  0  0  0
   -0.1391    7.0532    1.3135 H   0  0  0  0  0  0  0  0  0  0  0  0
    2.7308    9.1565    2.7696 C   0  0  0  0  0  0  0  0  0  0  0  0
    3.3740    7.3833    3.7470 H   0  0  0  0  0  0  0  0  0  0  0  0
    1.7956    9.7539    1.9414 C   0  0  0  0  0  0  0  0  0  0  0  0
    0.0168    9.4493    0.7891 H   0  0  0  0  0  0  0  0  0  0  0  0
    3.5321    9.7473    3.1913 H   0  0  0  0  0  0  0  0  0  0  0  0
    1.8676   10.8054    1.7076 H   0  0  0  0  0  0  0  0  0  0  0  0
  1  2  1  6  0  0  0
  1 32  1  0  0  0  0
  1  3  1  0  0  0  0
  3 17  1  1  0  0  0
  3  4  1  0  0  0  0
  4 18  1  0  0  0  0
  5  8  1  6  0  0  0
  5  6  1  0  0  0  0
  5 34  1  0  0  0  0
  5  1  1  0  0  0  0
  6  9  1  6  0  0  0
  6  7  1  0  0  0  0
  7 35  2  0  0  0  0
  7 10  1  0  0  0  0
  9 28  1  0  0  0  0
 10 31  1  0  0  0  0
 10 29  1  0  0  0  0
 11  3  1  0  0  0  0
 11 16  1  0  0  0  0
 12 11  2  0  0  0  0
 13 12  1  0  0  0  0
 13 14  2  0  0  0  0
 14 15  1  0  0  0  0
 15 16  2  0  0  0  0
 15 22  1  0  0  0  0
 16 23  1  0  0  0  0
 19 12  1  0  0  0  0
 20 13  1  0  0  0  0
 21 14  1  0  0  0  0
 24  8  1  0  0  0  0
 25  8  1  0  0  0  0
 26  9  1  0  0  0  0
 27  9  1  0  0  0  0
 30 10  1  0  0  0  0
 32 38  1  1  0  0  0
 32 33  1  0  0  0  0
 33  4  2  0  0  0  0
 33 39  1  0  0  0  0
 34 40  1  6  0  0  0
 34 35  1  0  0  0  0
 35 41  1  0  0  0  0
 36  8  1  0  0  0  0
 37 32  1  0  0  0  0
 37 43  1  0  0  0  0
 40 46  1  0  0  0  0
 41 49  1  0  0  0  0
 41 47  1  0  0  0  0
 42 37  2  0  0  0  0
 43 53  1  0  0  0  0
 44 40  1  0  0  0  0
 45 40  1  0  0  0  0
 48 41  1  0  0  0  0
 50 42  1  0  0  0  0
 50 54  2  0  0  0  0
 51 42  1  0  0  0  0
 52 43  2  0  0  0  0
 52 56  1  0  0  0  0
 54 52  1  0  0  0  0
 55 50  1  0  0  0  0
 57 54  1  0  0  0  0
M  END
$$$$
