CSD_code = KADKOQ | q = 0 | S = 0 | Stoichiometry = C26H24Cl2N4Ti | MND = 6
 OpenBabel04212202053D

 57 63  0  0  1  0  0  0  0  0999 V2000
   14.5123    4.0115   17.3580 Ti  0  0  0  0  0  0  0  0  0  0  0  0
   13.5457    5.9473   16.7704 Cl  0  0  0  0  0  0  0  0  0  0  0  0
   15.4922    2.1060   16.6974 Cl  0  0  0  0  0  0  0  0  0  0  0  0
   15.5608    4.7858   18.8023 N   0  0  0  0  0  0  0  0  0  0  0  0
   16.2897    4.8791   16.7248 N   0  0  0  0  0  0  0  0  0  0  0  0
   13.4339    3.1684   18.7399 N   0  0  0  0  0  0  0  0  0  0  0  0
   12.7490    3.1760   16.6452 N   0  0  0  0  0  0  0  0  0  0  0  0
   12.9505    4.5432   22.9795 C   0  0  0  0  0  0  0  0  0  0  0  0
   11.9499    4.9600   23.0828 H   0  0  0  0  0  0  0  0  0  0  0  0
   13.4431    4.6239   23.9480 H   0  0  0  0  0  0  0  0  0  0  0  0
   12.8680    3.4924   22.7175 H   0  0  0  0  0  0  0  0  0  0  0  0
   13.7116    5.3090   21.9367 C   0  0  0  0  0  0  0  0  0  0  0  0
   13.6880    6.6992   21.9818 C   0  0  0  0  0  0  0  0  0  0  0  0
   13.1459    7.1901   22.7769 H   0  0  0  0  0  0  0  0  0  0  0  0
   14.3365    7.4526   21.0215 C   0  0  0  0  0  0  0  0  0  0  0  0
   14.3094    8.5312   21.0688 H   0  0  0  0  0  0  0  0  0  0  0  0
   14.9903    6.8288   19.9774 C   0  0  0  0  0  0  0  0  0  0  0  0
   15.4429    7.4114   19.1865 H   0  0  0  0  0  0  0  0  0  0  0  0
   15.0271    5.4338   19.9071 C   0  0  0  0  0  0  0  0  0  0  0  0
   14.4157    4.6659   20.9180 C   0  0  0  0  0  0  0  0  0  0  0  0
   14.5315    3.1858   20.8838 C   0  0  0  0  0  0  0  0  0  0  0  0
   13.9439    2.4676   19.8235 C   0  0  0  0  0  0  0  0  0  0  0  0
   13.9810    1.0709   19.8269 C   0  0  0  0  0  0  0  0  0  0  0  0
   13.5474    0.5272   18.9986 H   0  0  0  0  0  0  0  0  0  0  0  0
   14.6116    0.3974   20.8543 C   0  0  0  0  0  0  0  0  0  0  0  0
   14.6390   -0.6822   20.8499 H   0  0  0  0  0  0  0  0  0  0  0  0
   15.2367    1.1035   21.8647 C   0  0  0  0  0  0  0  0  0  0  0  0
   15.7607    0.5747   22.6475 H   0  0  0  0  0  0  0  0  0  0  0  0
   15.2125    2.4943   21.8863 C   0  0  0  0  0  0  0  0  0  0  0  0
   15.9481    3.2087   22.9825 C   0  0  0  0  0  0  0  0  0  0  0  0
   16.9460    2.7867   23.0899 H   0  0  0  0  0  0  0  0  0  0  0  0
   15.4322    3.0821   23.9339 H   0  0  0  0  0  0  0  0  0  0  0  0
   16.0363    4.2708   22.7732 H   0  0  0  0  0  0  0  0  0  0  0  0
   16.5124    5.2968   17.9930 C   0  0  2  0  0  3  0  0  0  0  0  0
   17.6382    6.0805   18.3027 C   0  0  0  0  0  0  0  0  0  0  0  0
   17.8117    6.4011   19.3180 H   0  0  0  0  0  0  0  0  0  0  0  0
   18.5040    6.3910   17.2779 C   0  0  0  0  0  0  0  0  0  0  0  0
   19.3842    6.9843   17.4798 H   0  0  0  0  0  0  0  0  0  0  0  0
   18.2552    5.9460   15.9797 C   0  0  0  0  0  0  0  0  0  0  0  0
   18.9302    6.1931   15.1765 H   0  0  0  0  0  0  0  0  0  0  0  0
   17.1237    5.1827   15.7340 C   0  0  0  0  0  0  0  0  0  0  0  0
   16.7366    4.6664   14.3848 C   0  0  0  0  0  0  0  0  0  0  0  0
   15.7695    5.0919   14.1053 H   0  0  0  0  0  0  0  0  0  0  0  0
   16.6252    3.5807   14.4370 H   0  0  0  0  0  0  0  0  0  0  0  0
   17.4771    4.9229   13.6327 H   0  0  0  0  0  0  0  0  0  0  0  0
   12.5005    2.6969   17.8866 C   0  0  2  0  0  3  0  0  0  0  0  0
   11.3699    1.8981   18.1343 C   0  0  0  0  0  0  0  0  0  0  0  0
   11.1757    1.5289   19.1290 H   0  0  0  0  0  0  0  0  0  0  0  0
   10.5266    1.6365   17.0775 C   0  0  0  0  0  0  0  0  0  0  0  0
    9.6436    1.0334   17.2318 H   0  0  0  0  0  0  0  0  0  0  0  0
   10.8021    2.1439   15.8079 C   0  0  0  0  0  0  0  0  0  0  0  0
   10.1449    1.9351   14.9795 H   0  0  0  0  0  0  0  0  0  0  0  0
   11.9369    2.9196   15.6234 C   0  0  0  0  0  0  0  0  0  0  0  0
   12.3517    3.4995   14.3087 C   0  0  0  0  0  0  0  0  0  0  0  0
   12.4811    4.5787   14.4200 H   0  0  0  0  0  0  0  0  0  0  0  0
   11.6175    3.2961   13.5345 H   0  0  0  0  0  0  0  0  0  0  0  0
   13.3147    3.0717   14.0195 H   0  0  0  0  0  0  0  0  0  0  0  0
  1  6  1  0  0  0  0
  1  4  1  0  0  0  0
  2  1  1  0  0  0  0
  3  1  1  0  0  0  0
  4 19  1  0  0  0  0
  5  1  1  0  0  0  0
  5 34  1  0  0  0  0
  6 22  1  0  0  0  0
  7  1  1  0  0  0  0
  7 46  1  0  0  0  0
  8  9  1  0  0  0  0
  8 10  1  0  0  0  0
 11  8  1  0  0  0  0
 12 13  1  0  0  0  0
 12  8  1  0  0  0  0
 13 14  1  0  0  0  0
 15 16  1  0  0  0  0
 15 13  2  0  0  0  0
 17 15  1  0  0  0  0
 18 17  1  0  0  0  0
 19 17  2  0  0  0  0
 19 20  1  0  0  0  0
 20 12  2  0  0  0  0
 21 20  1  0  0  0  0
 21 29  1  0  0  0  0
 22 23  1  0  0  0  0
 22 21  2  0  0  0  0
 23 25  2  0  0  0  0
 24 23  1  0  0  0  0
 25 27  1  0  0  0  0
 26 25  1  0  0  0  0
 27 29  2  0  0  0  0
 27 28  1  0  0  0  0
 29 30  1  0  0  0  0
 30 31  1  0  0  0  0
 30 32  1  0  0  0  0
 33 30  1  0  0  0  0
 34 35  1  1  0  0  0
 34  4  1  0  0  0  0
 35 36  1  0  0  0  0
 37 38  1  0  0  0  0
 37 35  2  0  0  0  0
 39 37  1  0  0  0  0
 40 39  1  0  0  0  0
 41 39  2  0  0  0  0
 41  5  1  0  0  0  0
 42 44  1  0  0  0  0
 42 41  1  0  0  0  0
 43 42  1  0  0  0  0
 45 42  1  0  0  0  0
 46 47  1  1  0  0  0
 46  6  1  0  0  0  0
 47 48  1  0  0  0  0
 49 50  1  0  0  0  0
 49 47  2  0  0  0  0
 51 49  1  0  0  0  0
 52 51  1  0  0  0  0
 53 51  2  0  0  0  0
 53  7  1  0  0  0  0
 54 55  1  0  0  0  0
 54 53  1  0  0  0  0
 56 54  1  0  0  0  0
 57 54  1  0  0  0  0
M  END
$$$$
