CSD_code = KADQOX | q = 0 | S = 0 | Stoichiometry = C32H26Br2HgN4P2 | MND = 4
 OpenBabel04212202053D

 67 70  0  0  0  0  0  0  0  0999 V2000
    1.0263    8.1232    7.3755 Hg  0  0  0  0  0  0  0  0  0  0  0  0
    1.5073    8.7244    9.7002 Br  0  0  0  0  0  0  0  0  0  0  0  0
   -1.0567    7.1772    6.4378 Br  0  0  0  0  0  0  0  0  0  0  0  0
    2.1489    6.7560    4.6933 P   0  0  0  0  0  0  0  0  0  0  0  0
    1.4198    9.7778    5.0704 P   0  0  0  0  0  0  0  0  0  0  0  0
    3.3063    9.4595    6.7654 N   0  0  0  0  0  0  0  0  0  0  0  0
    2.0048    4.1562    5.2786 N   0  0  0  0  0  0  0  0  0  0  0  0
    2.0845   12.3977    5.1128 N   0  0  0  0  0  0  0  0  0  0  0  0
    3.0172    6.5271    7.1531 N   0  0  0  0  0  0  0  0  0  0  0  0
    3.1906    9.8285    5.4931 C   0  0  0  0  0  0  0  0  0  0  0  0
    1.0893   11.5569    5.3615 C   0  0  0  0  0  0  0  0  0  0  0  0
    3.4286    6.2826    5.9091 C   0  0  0  0  0  0  0  0  0  0  0  0
    1.3027    9.7328    3.2530 C   0  0  0  0  0  0  0  0  0  0  0  0
    1.3163    5.1228    4.6885 C   0  0  0  0  0  0  0  0  0  0  0  0
    0.0521    4.9342    4.1415 C   0  0  0  0  0  0  0  0  0  0  0  0
   -0.4883    5.7585    3.7017 H   0  0  0  0  0  0  0  0  0  0  0  0
    0.5766    8.6894    2.6897 C   0  0  0  0  0  0  0  0  0  0  0  0
    0.0834    7.9789    3.3428 H   0  0  0  0  0  0  0  0  0  0  0  0
    0.4720    8.5814    1.3154 C   0  0  0  0  0  0  0  0  0  0  0  0
   -0.0939    7.7726    0.8772 H   0  0  0  0  0  0  0  0  0  0  0  0
    5.0469    5.6140    7.9861 C   0  0  0  0  0  0  0  0  0  0  0  0
    5.6570    5.3632    8.8394 H   0  0  0  0  0  0  0  0  0  0  0  0
    1.8790   10.7004    2.4372 C   0  0  0  0  0  0  0  0  0  0  0  0
    2.3770   11.5521    2.8795 H   0  0  0  0  0  0  0  0  0  0  0  0
   -0.1514   11.9568    5.8440 C   0  0  0  0  0  0  0  0  0  0  0  0
   -0.9196   11.2175    6.0288 H   0  0  0  0  0  0  0  0  0  0  0  0
    4.2774   10.2331    4.7325 C   0  0  0  0  0  0  0  0  0  0  0  0
    4.1539   10.5108    3.6985 H   0  0  0  0  0  0  0  0  0  0  0  0
    3.0297    6.6739    3.0993 C   0  0  0  0  0  0  0  0  0  0  0  0
    4.6598    5.7034    5.6329 C   0  0  0  0  0  0  0  0  0  0  0  0
    4.9504    5.5095    4.6118 H   0  0  0  0  0  0  0  0  0  0  0  0
    5.6339    9.8915    6.6755 C   0  0  0  0  0  0  0  0  0  0  0  0
    6.5866    9.9107    7.1810 H   0  0  0  0  0  0  0  0  0  0  0  0
   -0.3560   13.3057    6.0780 C   0  0  0  0  0  0  0  0  0  0  0  0
   -1.3024   13.6611    6.4589 H   0  0  0  0  0  0  0  0  0  0  0  0
    0.2082    2.6572    4.8388 C   0  0  0  0  0  0  0  0  0  0  0  0
   -0.1991    1.6623    4.9308 H   0  0  0  0  0  0  0  0  0  0  0  0
   -0.5082    3.6710    4.2209 C   0  0  0  0  0  0  0  0  0  0  0  0
   -1.4939    3.4862    3.8204 H   0  0  0  0  0  0  0  0  0  0  0  0
    1.0926    9.5143    0.5019 C   0  0  0  0  0  0  0  0  0  0  0  0
    1.0238    9.4253   -0.5723 H   0  0  0  0  0  0  0  0  0  0  0  0
    0.6824   14.1892    5.8230 C   0  0  0  0  0  0  0  0  0  0  0  0
    0.5692   15.2473    6.0009 H   0  0  0  0  0  0  0  0  0  0  0  0
    1.7828   10.5771    1.0632 C   0  0  0  0  0  0  0  0  0  0  0  0
    2.2412   11.3195    0.4256 H   0  0  0  0  0  0  0  0  0  0  0  0
    5.5218   10.2557    5.3421 C   0  0  0  0  0  0  0  0  0  0  0  0
    6.3953   10.5597    4.7825 H   0  0  0  0  0  0  0  0  0  0  0  0
    1.4611    2.9550    5.3522 C   0  0  0  0  0  0  0  0  0  0  0  0
    2.0616    2.2032    5.8488 H   0  0  0  0  0  0  0  0  0  0  0  0
    4.4898    9.4992    7.3518 C   0  0  0  0  0  0  0  0  0  0  0  0
    4.5126    9.2109    8.3946 H   0  0  0  0  0  0  0  0  0  0  0  0
    3.8014    6.1900    8.1675 C   0  0  0  0  0  0  0  0  0  0  0  0
    3.4195    6.3980    9.1590 H   0  0  0  0  0  0  0  0  0  0  0  0
    2.4872    6.0273    1.9942 C   0  0  0  0  0  0  0  0  0  0  0  0
    1.5774    5.4534    2.0984 H   0  0  0  0  0  0  0  0  0  0  0  0
    4.2760    6.8479    0.6195 C   0  0  0  0  0  0  0  0  0  0  0  0
    4.7602    6.9144   -0.3434 H   0  0  0  0  0  0  0  0  0  0  0  0
    5.4834    5.3697    6.6929 C   0  0  0  0  0  0  0  0  0  0  0  0
    6.4479    4.9167    6.5131 H   0  0  0  0  0  0  0  0  0  0  0  0
    3.1137    6.1099    0.7640 C   0  0  0  0  0  0  0  0  0  0  0  0
    2.6901    5.5974   -0.0874 H   0  0  0  0  0  0  0  0  0  0  0  0
    4.8171    7.5017    1.7147 C   0  0  0  0  0  0  0  0  0  0  0  0
    5.7243    8.0789    1.6076 H   0  0  0  0  0  0  0  0  0  0  0  0
    1.8798   13.6830    5.3388 C   0  0  0  0  0  0  0  0  0  0  0  0
    2.7191   14.3334    5.1253 H   0  0  0  0  0  0  0  0  0  0  0  0
    4.1953    7.4203    2.9455 C   0  0  0  0  0  0  0  0  0  0  0  0
    4.6137    7.9335    3.8013 H   0  0  0  0  0  0  0  0  0  0  0  0
  1  2  1  0  0  0  0
  3  1  1  0  0  0  0
  4 12  1  0  0  0  0
  5 11  1  0  0  0  0
  5 10  1  0  0  0  0
  6 50  1  0  0  0  0
  7 48  1  0  0  0  0
  8 64  2  0  0  0  0
  8 11  1  0  0  0  0
  9 52  1  0  0  0  0
 10  6  2  0  0  0  0
 11 25  2  0  0  0  0
 12  9  2  0  0  0  0
 13  5  1  0  0  0  0
 14  4  1  0  0  0  0
 14  7  2  0  0  0  0
 15 38  2  0  0  0  0
 15 14  1  0  0  0  0
 16 15  1  0  0  0  0
 17 13  1  0  0  0  0
 17 18  1  0  0  0  0
 19 17  2  0  0  0  0
 20 19  1  0  0  0  0
 21 52  2  0  0  0  0
 21 22  1  0  0  0  0
 23 24  1  0  0  0  0
 23 13  2  0  0  0  0
 25 26  1  0  0  0  0
 25 34  1  0  0  0  0
 27 46  2  0  0  0  0
 27 10  1  0  0  0  0
 28 27  1  0  0  0  0
 29  4  1  0  0  0  0
 30 12  1  0  0  0  0
 30 58  2  0  0  0  0
 31 30  1  0  0  0  0
 32 33  1  0  0  0  0
 32 50  2  0  0  0  0
 34 35  1  0  0  0  0
 36 37  1  0  0  0  0
 36 48  2  0  0  0  0
 38 36  1  0  0  0  0
 39 38  1  0  0  0  0
 40 44  2  0  0  0  0
 40 19  1  0  0  0  0
 41 40  1  0  0  0  0
 42 43  1  0  0  0  0
 42 34  2  0  0  0  0
 44 23  1  0  0  0  0
 45 44  1  0  0  0  0
 46 32  1  0  0  0  0
 47 46  1  0  0  0  0
 48 49  1  0  0  0  0
 50 51  1  0  0  0  0
 52 53  1  0  0  0  0
 54 55  1  0  0  0  0
 54 29  2  0  0  0  0
 56 60  2  0  0  0  0
 56 62  1  0  0  0  0
 57 56  1  0  0  0  0
 58 21  1  0  0  0  0
 59 58  1  0  0  0  0
 60 54  1  0  0  0  0
 61 60  1  0  0  0  0
 62 66  2  0  0  0  0
 63 62  1  0  0  0  0
 64 42  1  0  0  0  0
 65 64  1  0  0  0  0
 66 29  1  0  0  0  0
 66 67  1  0  0  0  0
M  END
$$$$
