CSD_code = KAFKAF | q = 0 | S = 0 | Stoichiometry = C27H35Br2N3Ni | MND = 4
 OpenBabel04212202053D

 68 71  0  0  1  0  0  0  0  0999 V2000
    6.0678    2.3822    2.9002 Br  0  0  0  0  0  0  0  0  0  0  0  0
    6.4271    6.4336    1.3766 Br  0  0  0  0  0  0  0  0  0  0  0  0
    5.8146    4.2922    1.7801 Ni  0  0  0  0  0  0  0  0  0  0  0  0
    3.6831    3.8139    0.8409 N   0  0  0  0  0  0  0  0  0  0  0  0
    0.5232    2.5096    2.3021 C   0  0  0  0  0  0  0  0  0  0  0  0
   -0.0118    1.5840    2.4445 H   0  0  0  0  0  0  0  0  0  0  0  0
    7.3565    3.8239   -0.5639 C   0  0  1  0  0  3  0  0  0  0  0  0
    4.9393    3.7864   -3.3423 C   0  0  0  0  0  0  0  0  0  0  0  0
    5.5794    4.1789   -4.1287 H   0  0  0  0  0  0  0  0  0  0  0  0
    4.0819    4.4450   -3.2232 H   0  0  0  0  0  0  0  0  0  0  0  0
    4.5703    2.8111   -3.6553 H   0  0  0  0  0  0  0  0  0  0  0  0
    4.5647    0.8046   -1.4406 C   0  0  0  0  0  0  0  0  0  0  0  0
    4.3521   -0.2594   -1.3621 H   0  0  0  0  0  0  0  0  0  0  0  0
    4.9772    1.1346   -0.4907 H   0  0  0  0  0  0  0  0  0  0  0  0
    5.3369    0.9283   -2.2016 H   0  0  0  0  0  0  0  0  0  0  0  0
    2.4465    3.6934    1.4982 C   0  0  0  0  0  0  0  0  0  0  0  0
    1.8155    3.4544   -1.7384 C   0  0  0  0  0  0  0  0  0  0  0  0
    1.9283    4.8836    2.0482 C   0  0  0  0  0  0  0  0  0  0  0  0
    0.9763    2.8116   -2.6376 C   0  0  0  0  0  0  0  0  0  0  0  0
    0.0715    3.3108   -2.9524 H   0  0  0  0  0  0  0  0  0  0  0  0
    5.7285    3.7143   -2.0875 C   0  0  0  0  0  0  0  0  0  0  0  0
   -0.0396    3.6874    2.7440 C   0  0  0  0  0  0  0  0  0  0  0  0
   -1.0181    3.6867    3.2005 H   0  0  0  0  0  0  0  0  0  0  0  0
    6.2046    3.7596    0.0804 N   0  0  2  0  0  0  0  0  0  0  0  0
    2.9867    2.8110   -1.3278 C   0  0  0  0  0  0  0  0  0  0  0  0
    5.2088    3.6691   -0.8255 N   0  0  0  0  0  0  0  0  0  0  0  0
    2.7293    0.4368    2.7085 C   0  0  0  0  0  0  0  0  0  0  0  0
    3.4368    1.0305    3.2801 H   0  0  0  0  0  0  0  0  0  0  0  0
    3.1849   -0.5294    2.5055 H   0  0  0  0  0  0  0  0  0  0  0  0
    1.8384    0.2826    3.3121 H   0  0  0  0  0  0  0  0  0  0  0  0
    3.9017    3.4583   -0.3679 C   0  0  2  0  0  3  0  0  0  0  0  0
    3.3160    1.5437   -1.8325 C   0  0  0  0  0  0  0  0  0  0  0  0
    1.4644    4.8323   -1.2684 C   0  0  0  0  0  0  0  0  0  0  0  0
    0.9092    5.3627   -2.0391 H   0  0  0  0  0  0  0  0  0  0  0  0
    2.3501    5.4106   -1.0152 H   0  0  0  0  0  0  0  0  0  0  0  0
    0.8353    4.7761   -0.3798 H   0  0  0  0  0  0  0  0  0  0  0  0
    2.4511    0.9412   -2.7319 C   0  0  0  0  0  0  0  0  0  0  0  0
    2.6969   -0.0375   -3.1184 H   0  0  0  0  0  0  0  0  0  0  0  0
    1.7689    2.4809    1.6854 C   0  0  0  0  0  0  0  0  0  0  0  0
    1.2751    1.5561   -3.1420 C   0  0  0  0  0  0  0  0  0  0  0  0
    7.0938    3.7949   -1.9437 C   0  0  0  0  0  0  0  0  0  0  0  0
    7.8197    3.8544   -2.7282 H   0  0  0  0  0  0  0  0  0  0  0  0
    8.6468    3.9404    0.1552 C   0  0  0  0  0  0  0  0  0  0  0  0
    8.4910    3.7508    1.2213 H   0  0  0  0  0  0  0  0  0  0  0  0
    9.0447    4.9486    0.0395 H   0  0  0  0  0  0  0  0  0  0  0  0
    9.3731    3.2325   -0.2376 H   0  0  0  0  0  0  0  0  0  0  0  0
    1.9923    7.4377    2.1116 C   0  0  0  0  0  0  0  0  0  0  0  0
    1.2437    7.4580    1.3220 H   0  0  0  0  0  0  0  0  0  0  0  0
    2.6750    8.2707    1.9601 H   0  0  0  0  0  0  0  0  0  0  0  0
    1.4992    7.5810    3.0700 H   0  0  0  0  0  0  0  0  0  0  0  0
    0.6823    4.8636    2.6490 C   0  0  0  0  0  0  0  0  0  0  0  0
    0.2695    5.7720    3.0565 H   0  0  0  0  0  0  0  0  0  0  0  0
    0.3597    0.8646   -4.1027 C   0  0  0  0  0  0  0  0  0  0  0  0
   -0.4558    1.5164   -4.4039 H   0  0  0  0  0  0  0  0  0  0  0  0
   -0.0624   -0.0270   -3.6401 H   0  0  0  0  0  0  0  0  0  0  0  0
    0.9053    0.5500   -4.9909 H   0  0  0  0  0  0  0  0  0  0  0  0
    2.7799    6.1309    2.0780 C   0  0  0  0  0  0  0  0  0  0  0  0
    3.4199    6.1556    1.1897 H   0  0  0  0  0  0  0  0  0  0  0  0
    2.3853    1.1366    1.3894 C   0  0  0  0  0  0  0  0  0  0  0  0
    3.3211    1.2804    0.8513 H   0  0  0  0  0  0  0  0  0  0  0  0
    3.6746    6.0126    3.3185 C   0  0  0  0  0  0  0  0  0  0  0  0
    4.3482    5.1406    3.2185 H   0  0  0  0  0  0  0  0  0  0  0  0
    3.0730    5.8602    4.2131 H   0  0  0  0  0  0  0  0  0  0  0  0
    4.2783    6.9087    3.4431 H   0  0  0  0  0  0  0  0  0  0  0  0
    1.4595    0.2556    0.5479 C   0  0  0  0  0  0  0  0  0  0  0  0
    1.0710    0.8021   -0.3083 H   0  0  0  0  0  0  0  0  0  0  0  0
    0.6189   -0.0967    1.1399 H   0  0  0  0  0  0  0  0  0  0  0  0
    2.0020   -0.6154    0.1879 H   0  0  0  0  0  0  0  0  0  0  0  0
  2  3  1  0  0  0  0
  3  1  1  0  0  0  0
  4 16  1  0  0  0  0
  4  3  1  0  0  0  0
  5  6  1  0  0  0  0
  5 22  1  0  0  0  0
  7 24  1  0  0  0  0
  7 43  1  6  0  0  0
  8 10  1  0  0  0  0
  8 21  1  0  0  0  0
  9  8  1  0  0  0  0
 11  8  1  0  0  0  0
 12 13  1  0  0  0  0
 12 14  1  0  0  0  0
 15 12  1  0  0  0  0
 16 39  1  0  0  0  0
 16 18  2  0  0  0  0
 17 25  1  0  0  0  0
 17 33  1  0  0  0  0
 18 57  1  0  0  0  0
 18 51  1  0  0  0  0
 19 17  2  0  0  0  0
 20 19  1  0  0  0  0
 21 41  2  0  0  0  0
 21 26  1  0  0  0  0
 22 23  1  0  0  0  0
 24 26  1  6  0  0  0
 24  3  1  0  0  0  0
 26 31  1  0  0  0  0
 27 28  1  0  0  0  0
 27 30  1  0  0  0  0
 29 27  1  0  0  0  0
 31 25  1  1  0  0  0
 31  4  1  0  0  0  0
 32 12  1  0  0  0  0
 32 25  2  0  0  0  0
 33 35  1  0  0  0  0
 33 36  1  0  0  0  0
 34 33  1  0  0  0  0
 37 32  1  0  0  0  0
 38 37  1  0  0  0  0
 39  5  2  0  0  0  0
 40 37  2  0  0  0  0
 40 19  1  0  0  0  0
 41  7  1  0  0  0  0
 42 41  1  0  0  0  0
 43 44  1  0  0  0  0
 45 43  1  0  0  0  0
 46 43  1  0  0  0  0
 47 50  1  0  0  0  0
 48 47  1  0  0  0  0
 49 47  1  0  0  0  0
 51 22  2  0  0  0  0
 51 52  1  0  0  0  0
 53 55  1  0  0  0  0
 53 40  1  0  0  0  0
 54 53  1  0  0  0  0
 56 53  1  0  0  0  0
 57 47  1  0  0  0  0
 57 61  1  0  0  0  0
 58 57  1  0  0  0  0
 59 39  1  0  0  0  0
 59 27  1  0  0  0  0
 60 59  1  0  0  0  0
 61 64  1  0  0  0  0
 61 63  1  0  0  0  0
 62 61  1  0  0  0  0
 65 67  1  0  0  0  0
 65 59  1  0  0  0  0
 66 65  1  0  0  0  0
 68 65  1  0  0  0  0
M  END
$$$$
