CSD_code = KAFLAG | q = 1 | S = 0 | Stoichiometry = C28H34ClN4NiO(1+) | MND = 6
 OpenBabel04212202053D

 69 72  0  0  1  0  0  0  0  0999 V2000
    2.3081    7.1009    9.9506 Ni  0  0  1  0  0  0  0  0  0  0  0  0
    1.0348    5.4472    9.7941 Cl  0  0  0  0  0  0  0  0  0  0  0  0
    3.2020    6.4954    8.3303 N   0  0  0  0  0  4  0  0  0  0  0  0
    4.0915    6.9991    8.3009 H   0  0  0  0  0  0  0  0  0  0  0  0
    3.4129    5.4977    8.3853 H   0  0  0  0  0  0  0  0  0  0  0  0
    1.1489    8.4056    8.3080 N   0  0  0  0  0  4  0  0  0  0  0  0
    0.2833    7.8699    8.2244 H   0  0  0  0  0  0  0  0  0  0  0  0
    0.8751    9.3831    8.3685 H   0  0  0  0  0  0  0  0  0  0  0  0
    3.7010    6.1460   11.6564 N   0  0  0  0  0  0  0  0  0  0  0  0
    3.4387    5.1639   11.5594 H   0  0  0  0  0  0  0  0  0  0  0  0
    4.7168    6.1697   11.6875 H   0  0  0  0  0  0  0  0  0  0  0  0
    1.3305    7.6309   11.5917 N   0  0  0  0  0  4  0  0  0  0  0  0
    1.5130    8.6083   11.8286 H   0  0  0  0  0  0  0  0  0  0  0  0
    0.3305    7.5537   11.3960 H   0  0  0  0  0  0  0  0  0  0  0  0
    3.7253    8.7584   10.0171 O   0  0  0  0  0  0  0  0  0  0  0  0
    3.3616    9.6240    9.8120 H   0  0  0  0  0  0  0  0  0  0  0  0
    4.2263    8.8250   10.8345 H   0  0  0  0  0  0  0  0  0  0  0  0
    2.4676    6.7507    7.0800 C   0  0  1  0  0  0  0  0  0  0  0  0
    1.6092    6.0712    7.0615 H   0  0  0  0  0  0  0  0  0  0  0  0
    1.9346    8.2019    7.0807 C   0  0  1  0  0  0  0  0  0  0  0  0
    2.7918    8.8845    7.1205 H   0  0  0  0  0  0  0  0  0  0  0  0
    3.3187    6.5194    5.8519 C   0  0  0  0  0  0  0  0  0  0  0  0
    4.5570    7.1354    5.7141 C   0  0  0  0  0  0  0  0  0  0  0  0
    4.9449    7.7741    6.4970 H   0  0  0  0  0  0  0  0  0  0  0  0
    5.3070    6.9516    4.5664 C   0  0  0  0  0  0  0  0  0  0  0  0
    6.2675    7.4347    4.4704 H   0  0  0  0  0  0  0  0  0  0  0  0
    4.8245    6.1550    3.5421 C   0  0  0  0  0  0  0  0  0  0  0  0
    5.4088    6.0149    2.6462 H   0  0  0  0  0  0  0  0  0  0  0  0
    3.5905    5.5414    3.6710 C   0  0  0  0  0  0  0  0  0  0  0  0
    3.2080    4.9211    2.8755 H   0  0  0  0  0  0  0  0  0  0  0  0
    2.8427    5.7208    4.8211 C   0  0  0  0  0  0  0  0  0  0  0  0
    1.8789    5.2433    4.9165 H   0  0  0  0  0  0  0  0  0  0  0  0
    1.1664    8.4473    5.8010 C   0  0  0  0  0  0  0  0  0  0  0  0
    1.7010    9.2598    4.8106 C   0  0  0  0  0  0  0  0  0  0  0  0
    2.6602    9.7328    4.9654 H   0  0  0  0  0  0  0  0  0  0  0  0
    1.0193    9.4607    3.6237 C   0  0  0  0  0  0  0  0  0  0  0  0
    1.4467   10.0928    2.8607 H   0  0  0  0  0  0  0  0  0  0  0  0
   -0.2065    8.8521    3.4163 C   0  0  0  0  0  0  0  0  0  0  0  0
   -0.7391    9.0084    2.4912 H   0  0  0  0  0  0  0  0  0  0  0  0
   -0.7463    8.0400    4.3989 C   0  0  0  0  0  0  0  0  0  0  0  0
   -1.7003    7.5602    4.2417 H   0  0  0  0  0  0  0  0  0  0  0  0
   -0.0625    7.8356    5.5837 C   0  0  0  0  0  0  0  0  0  0  0  0
   -0.4929    7.1875    6.3352 H   0  0  0  0  0  0  0  0  0  0  0  0
    3.1583    6.6416   12.9297 C   0  0  1  0  0  0  0  0  0  0  0  0
    3.5917    7.6323   13.1168 H   0  0  0  0  0  0  0  0  0  0  0  0
    1.6275    6.7956   12.7725 C   0  0  1  0  0  0  0  0  0  0  0  0
    1.2080    5.8039   12.5766 H   0  0  0  0  0  0  0  0  0  0  0  0
    3.4474    5.7514   14.1183 C   0  0  0  0  0  0  0  0  0  0  0  0
    3.1490    4.3947   14.0738 C   0  0  0  0  0  0  0  0  0  0  0  0
    2.7161    3.9576   13.1841 H   0  0  0  0  0  0  0  0  0  0  0  0
    3.3931    3.5883   15.1705 C   0  0  0  0  0  0  0  0  0  0  0  0
    3.1583    2.5360   15.1241 H   0  0  0  0  0  0  0  0  0  0  0  0
    3.9321    4.1300   16.3250 C   0  0  0  0  0  0  0  0  0  0  0  0
    4.1203    3.5007   17.1808 H   0  0  0  0  0  0  0  0  0  0  0  0
    4.2265    5.4813   16.3784 C   0  0  0  0  0  0  0  0  0  0  0  0
    4.6445    5.9102   17.2760 H   0  0  0  0  0  0  0  0  0  0  0  0
    3.9860    6.2871   15.2798 C   0  0  0  0  0  0  0  0  0  0  0  0
    4.2137    7.3426   15.3290 H   0  0  0  0  0  0  0  0  0  0  0  0
    1.0320    7.3520   14.0450 C   0  0  0  0  0  0  0  0  0  0  0  0
    1.2699    8.6647   14.4349 C   0  0  0  0  0  0  0  0  0  0  0  0
    1.8716    9.3231   13.8206 H   0  0  0  0  0  0  0  0  0  0  0  0
    0.7529    9.1494   15.6229 C   0  0  0  0  0  0  0  0  0  0  0  0
    0.9444   10.1710   15.9140 H   0  0  0  0  0  0  0  0  0  0  0  0
   -0.0026    8.3242   16.4379 C   0  0  0  0  0  0  0  0  0  0  0  0
   -0.4026    8.7018   17.3657 H   0  0  0  0  0  0  0  0  0  0  0  0
   -0.2401    7.0141   16.0591 C   0  0  0  0  0  0  0  0  0  0  0  0
   -0.8260    6.3654   16.6912 H   0  0  0  0  0  0  0  0  0  0  0  0
    0.2724    6.5317   14.8681 C   0  0  0  0  0  0  0  0  0  0  0  0
    0.0876    5.5085   14.5774 H   0  0  0  0  0  0  0  0  0  0  0  0
  1  2  1  6  0  0  0
  1 12  1  0  0  0  0
  3  5  1  0  0  0  0
  3  1  1  0  0  0  0
  4  3  1  0  0  0  0
  6  8  1  0  0  0  0
  6  1  1  0  0  0  0
  7  6  1  0  0  0  0
  9 11  1  0  0  0  0
  9 44  1  0  0  0  0
 10  9  1  0  0  0  0
 12 13  1  0  0  0  0
 12 46  1  0  0  0  0
 14 12  1  0  0  0  0
 15 17  1  0  0  0  0
 16 15  1  0  0  0  0
 18 19  1  6  0  0  0
 18 20  1  0  0  0  0
 18  3  1  0  0  0  0
 20 21  1  1  0  0  0
 20  6  1  0  0  0  0
 22 18  1  0  0  0  0
 23 22  1  0  0  0  0
 23 24  1  0  0  0  0
 25 23  2  0  0  0  0
 26 25  1  0  0  0  0
 27 29  2  0  0  0  0
 27 25  1  0  0  0  0
 28 27  1  0  0  0  0
 29 31  1  0  0  0  0
 30 29  1  0  0  0  0
 31 32  1  0  0  0  0
 31 22  2  0  0  0  0
 33 20  1  0  0  0  0
 34 35  1  0  0  0  0
 34 33  2  0  0  0  0
 36 34  1  0  0  0  0
 37 36  1  0  0  0  0
 38 36  2  0  0  0  0
 38 40  1  0  0  0  0
 39 38  1  0  0  0  0
 40 42  2  0  0  0  0
 41 40  1  0  0  0  0
 42 33  1  0  0  0  0
 42 43  1  0  0  0  0
 44 45  1  1  0  0  0
 44 48  1  0  0  0  0
 46 47  1  6  0  0  0
 46 44  1  0  0  0  0
 46 59  1  0  0  0  0
 48 57  1  0  0  0  0
 49 48  2  0  0  0  0
 49 51  1  0  0  0  0
 50 49  1  0  0  0  0
 51 53  2  0  0  0  0
 52 51  1  0  0  0  0
 53 55  1  0  0  0  0
 53 54  1  0  0  0  0
 55 56  1  0  0  0  0
 57 58  1  0  0  0  0
 57 55  2  0  0  0  0
 59 60  2  0  0  0  0
 59 68  1  0  0  0  0
 60 62  1  0  0  0  0
 61 60  1  0  0  0  0
 62 63  1  0  0  0  0
 62 64  2  0  0  0  0
 64 65  1  0  0  0  0
 66 64  1  0  0  0  0
 66 67  1  0  0  0  0
 68 66  2  0  0  0  0
 69 68  1  0  0  0  0
M  END
$$$$
