CSD_code = KAFRUE | q = 0 | S = 0 | Stoichiometry = C14H21Cl4NO3STi | MND = 6
 OpenBabel04212202053D

 45 48  0  0  1  0  0  0  0  0999 V2000
    0.2613    5.8453   -3.0643 Ti  0  0  0  0  0  0  0  0  0  0  0  0
    0.7431    6.9585   -4.8633 Cl  0  0  0  0  0  0  0  0  0  0  0  0
    2.2590    5.7877   -2.2501 Cl  0  0  0  0  0  0  0  0  0  0  0  0
    0.3019    3.8605   -4.0007 Cl  0  0  0  0  0  0  0  0  0  0  0  0
   -0.2235    7.8436   -1.9084 Cl  0  0  0  0  0  0  0  0  0  0  0  0
   -1.8425    4.5290   -1.2928 S   0  0  2  0  0  0  0  0  0  0  0  0
   -0.4366    4.8700   -1.3053 O   0  0  0  0  0  0  0  0  0  0  0  0
   -2.3118    3.5537   -2.2080 O   0  0  0  0  0  1  0  0  0  0  0  0
   -1.6945    5.9377   -3.3994 O   0  0  0  0  0  0  0  0  0  0  0  0
   -2.7256    5.9927   -1.4631 N   0  0  0  0  0  0  0  0  0  0  0  0
   -3.1475    5.3984    0.8569 C   0  0  2  0  0  0  0  0  0  0  0  0
   -3.5706    6.3051   -0.3447 C   0  0  1  0  0  0  0  0  0  0  0  0
   -3.4914    7.7280    0.2410 C   0  0  0  0  0  0  0  0  0  0  0  0
   -3.3579    7.4439    1.7411 C   0  0  1  0  0  0  0  0  0  0  0  0
   -4.6365    6.7092    2.1923 C   0  0  0  0  0  0  0  0  0  0  0  0
   -4.4385    5.2634    1.6810 C   0  0  0  0  0  0  0  0  0  0  0  0
   -2.2990    6.3280    1.7685 C   0  0  0  0  0  0  0  0  0  0  0  0
   -0.9384    6.7098    1.1996 C   0  0  0  0  0  0  0  0  0  0  0  0
   -2.0381    5.7670    3.1696 C   0  0  0  0  0  0  0  0  0  0  0  0
   -2.4729    4.1402    0.3695 C   0  0  0  0  0  0  0  0  0  0  0  0
   -2.4758    6.5787   -2.6518 C   0  0  0  0  0  0  0  0  0  0  0  0
   -3.1422    7.7901   -3.0802 C   0  0  0  0  0  0  0  0  0  0  0  0
   -2.7252    8.4125   -4.1917 C   0  0  0  0  0  3  0  0  0  0  0  0
   -3.2787    9.6764   -4.7109 C   0  0  0  0  0  0  0  0  0  0  0  0
   -4.6002    6.0649   -0.6405 H   0  0  0  0  0  0  0  0  0  0  0  0
   -2.6249    8.2616   -0.1449 H   0  0  0  0  0  0  0  0  0  0  0  0
   -4.3861    8.3077    0.0173 H   0  0  0  0  0  0  0  0  0  0  0  0
   -3.1317    8.3294    2.3294 H   0  0  0  0  0  0  0  0  0  0  0  0
   -4.7504    6.7409    3.2740 H   0  0  0  0  0  0  0  0  0  0  0  0
   -5.5223    7.1715    1.7594 H   0  0  0  0  0  0  0  0  0  0  0  0
   -4.3064    4.5560    2.4969 H   0  0  0  0  0  0  0  0  0  0  0  0
   -5.2758    4.9159    1.0772 H   0  0  0  0  0  0  0  0  0  0  0  0
   -0.5337    7.5504    1.7589 H   0  0  0  0  0  0  0  0  0  0  0  0
   -0.2391    5.8811    1.2958 H   0  0  0  0  0  0  0  0  0  0  0  0
   -0.9639    6.9949    0.1556 H   0  0  0  0  0  0  0  0  0  0  0  0
   -1.5276    4.8087    3.1067 H   0  0  0  0  0  0  0  0  0  0  0  0
   -1.3864    6.4536    3.7040 H   0  0  0  0  0  0  0  0  0  0  0  0
   -2.9342    5.6373    3.7643 H   0  0  0  0  0  0  0  0  0  0  0  0
   -1.6315    3.8444    0.9885 H   0  0  0  0  0  0  0  0  0  0  0  0
   -3.1579    3.3064    0.2350 H   0  0  0  0  0  0  0  0  0  0  0  0
   -3.9322    8.1802   -2.4590 H   0  0  0  0  0  0  0  0  0  0  0  0
   -1.8912    7.9815   -4.7409 H   0  0  0  0  0  0  0  0  0  0  0  0
   -2.4941   10.4328   -4.6914 H   0  0  0  0  0  0  0  0  0  0  0  0
   -3.5708    9.5543   -5.7530 H   0  0  0  0  0  0  0  0  0  0  0  0
   -4.1279   10.0217   -4.1274 H   0  0  0  0  0  0  0  0  0  0  0  0
  1  3  1  0  0  0  0
  1  5  1  0  0  0  0
  1  7  1  0  0  0  0
  2  1  1  0  0  0  0
  4  1  1  0  0  0  0
  6  8  1  6  0  0  0
  6 20  1  0  0  0  0
  7  6  1  0  0  0  0
  9  1  1  0  0  0  0
  9 21  1  0  0  0  0
 10  6  1  0  0  0  0
 10 12  1  0  0  0  0
 11 20  1  6  0  0  0
 11 16  1  0  0  0  0
 11 17  1  0  0  0  0
 12 25  1  6  0  0  0
 12 13  1  0  0  0  0
 12 11  1  0  0  0  0
 13 14  1  0  0  0  0
 14 17  1  0  0  0  0
 14 15  1  0  0  0  0
 14 28  1  1  0  0  0
 15 29  1  0  0  0  0
 16 15  1  0  0  0  0
 16 31  1  0  0  0  0
 17 19  1  0  0  0  0
 18 34  1  0  0  0  0
 18 33  1  0  0  0  0
 18 17  1  0  0  0  0
 19 37  1  0  0  0  0
 19 38  1  0  0  0  0
 20 39  1  0  0  0  0
 21 10  1  0  0  0  0
 22 21  2  0  0  0  0
 22 41  1  0  0  0  0
 23 22  1  0  0  0  0
 24 43  1  0  0  0  0
 24 23  1  0  0  0  0
 24 45  1  0  0  0  0
 26 13  1  0  0  0  0
 27 13  1  0  0  0  0
 30 15  1  0  0  0  0
 32 16  1  0  0  0  0
 35 18  1  0  0  0  0
 36 19  1  0  0  0  0
 40 20  1  0  0  0  0
 42 23  1  0  0  0  0
 44 24  1  0  0  0  0
M  END
$$$$
