CSD_code = KAFWIY | q = 0 | S = 0 | Stoichiometry = C16H13Cl2N3SZn | MND = 5
 OpenBabel04212202053D

 36 40  0  0  1  0  0  0  0  0999 V2000
    1.9050    1.3041    9.6664 Zn  0  0  0  0  0  0  0  0  0  0  0  0
    1.9161   -0.4870    8.3626 Cl  0  0  0  0  0  0  0  0  0  0  0  0
    3.4093    2.9800    9.6672 Cl  0  0  0  0  0  0  0  0  0  0  0  0
    2.5831    0.3283   11.5259 N   0  0  0  0  0  0  0  0  0  0  0  0
    0.8693    2.2649   11.2579 N   0  0  0  0  0  0  0  0  0  0  0  0
    0.2042    2.3564    8.7412 N   0  0  0  0  0  0  0  0  0  0  0  0
    3.3411   -0.7495   11.5882 C   0  0  0  0  0  3  0  0  0  0  0  0
    3.4939   -1.2690   10.6521 H   0  0  0  0  0  0  0  0  0  0  0  0
    3.9031   -1.1963   12.7759 C   0  0  0  0  0  0  0  0  0  0  0  0
    4.5228   -2.0782   12.7887 H   0  0  0  0  0  0  0  0  0  0  0  0
    3.6439   -0.4832   13.9347 C   0  0  0  0  0  0  0  0  0  0  0  0
    4.0559   -0.8001   14.8814 H   0  0  0  0  0  0  0  0  0  0  0  0
    2.8434    0.6456   13.8661 C   0  0  0  0  0  0  0  0  0  0  0  0
    2.6153    1.2034   14.7603 H   0  0  0  0  0  0  0  0  0  0  0  0
    2.3302    1.0318   12.6309 C   0  0  0  0  0  0  0  0  0  0  0  0
    1.4939    2.2259   12.4259 C   0  0  1  0  0  3  0  0  0  0  0  0
    1.4009    3.2702   13.3393 C   0  0  0  0  0  0  0  0  0  0  0  0
    1.9405    3.2278   14.2692 H   0  0  0  0  0  0  0  0  0  0  0  0
    0.6371    4.3821   12.9965 C   0  0  0  0  0  0  0  0  0  0  0  0
    0.0093    4.4134   11.7489 C   0  0  0  0  0  0  0  0  0  0  0  0
   -0.5434    5.2920   11.4600 H   0  0  0  0  0  0  0  0  0  0  0  0
    0.1636    3.3313   10.8969 C   0  0  0  0  0  0  0  0  0  0  0  0
   -0.3556    3.2830    9.5211 C   0  0  1  0  0  3  0  0  0  0  0  0
   -1.3431    4.1368    9.0378 C   0  0  0  0  0  0  0  0  0  0  0  0
   -1.8040    4.8676    9.6827 H   0  0  0  0  0  0  0  0  0  0  0  0
   -1.7352    4.0220    7.7140 C   0  0  0  0  0  0  0  0  0  0  0  0
   -2.4969    4.6751    7.3144 H   0  0  0  0  0  0  0  0  0  0  0  0
   -1.1391    3.0590    6.9161 C   0  0  0  0  0  0  0  0  0  0  0  0
   -1.4162    2.9404    5.8810 H   0  0  0  0  0  0  0  0  0  0  0  0
   -0.1707    2.2415    7.4812 C   0  0  0  0  0  0  0  0  0  0  0  0
    0.3220    1.4632    6.9148 H   0  0  0  0  0  0  0  0  0  0  0  0
    0.4142    5.7830   14.0214 S   0  0  0  0  0  0  0  0  0  0  0  0
    1.4772    5.4553   15.4556 C   0  0  0  0  0  0  0  0  0  0  0  0
    1.3936    6.3356   16.0855 H   0  0  0  0  0  0  0  0  0  0  0  0
    1.1195    4.5837   15.9958 H   0  0  0  0  0  0  0  0  0  0  0  0
    2.5059    5.3328   15.1302 H   0  0  0  0  0  0  0  0  0  0  0  0
  1  3  1  0  0  0  0
  1  5  1  0  0  0  0
  1  4  1  0  0  0  0
  2  1  1  0  0  0  0
  4  7  1  0  0  0  0
  4 15  1  0  0  0  0
  5 16  1  0  0  0  0
  6 23  1  0  0  0  0
  6  1  1  0  0  0  0
  7  9  1  0  0  0  0
  8  7  1  0  0  0  0
  9 10  1  0  0  0  0
  9 11  2  0  0  0  0
 11 12  1  0  0  0  0
 13 11  1  0  0  0  0
 13 14  1  0  0  0  0
 15 13  2  0  0  0  0
 16 15  1  6  0  0  0
 16 17  1  0  0  0  0
 17 18  1  0  0  0  0
 19 17  2  0  0  0  0
 19 32  1  0  0  0  0
 20 19  1  0  0  0  0
 21 20  1  0  0  0  0
 22  5  1  0  0  0  0
 22 20  2  0  0  0  0
 23 24  1  6  0  0  0
 23 22  1  0  0  0  0
 24 25  1  0  0  0  0
 26 24  2  0  0  0  0
 27 26  1  0  0  0  0
 28 30  2  0  0  0  0
 28 26  1  0  0  0  0
 29 28  1  0  0  0  0
 30  6  1  0  0  0  0
 31 30  1  0  0  0  0
 32 33  1  0  0  0  0
 33 35  1  0  0  0  0
 33 34  1  0  0  0  0
 36 33  1  0  0  0  0
M  END
$$$$
