CSD_code = KAFZAU | q = 0 | S = 0 | Stoichiometry = C21H21AuBrP | MND = 2
 OpenBabel04212202053D

 45 47  0  0  0  0  0  0  0  0999 V2000
   13.9381    8.0496    7.6917 Au  0  0  0  0  0  0  0  0  0  0  0  0
   13.9442    8.0537    5.3275 Br  0  0  0  0  0  0  0  0  0  0  0  0
   13.9415    8.0494    9.9357 P   0  0  0  0  0  4  0  0  0  0  0  0
   15.2950    7.0823   10.7228 C   0  0  0  0  0  0  0  0  0  0  0  0
   15.2759    7.2365   11.8071 H   0  0  0  0  0  0  0  0  0  0  0  0
   15.1067    6.0273   10.4986 H   0  0  0  0  0  0  0  0  0  0  0  0
   16.5814    7.5459   10.1081 C   0  0  0  0  0  0  0  0  0  0  0  0
   16.9432    7.0959    8.8431 C   0  0  0  0  0  0  0  0  0  0  0  0
   16.3272    6.3596    8.3439 H   0  0  0  0  0  0  0  0  0  0  0  0
   18.0869    7.5718    8.2281 C   0  0  0  0  0  0  0  0  0  0  0  0
   18.3504    7.2200    7.2424 H   0  0  0  0  0  0  0  0  0  0  0  0
   18.8843    8.5021    8.8738 C   0  0  0  0  0  0  0  0  0  0  0  0
   19.7744    8.8784    8.3931 H   0  0  0  0  0  0  0  0  0  0  0  0
   18.5385    8.9460   10.1385 C   0  0  0  0  0  0  0  0  0  0  0  0
   19.1601    9.6661   10.6498 H   0  0  0  0  0  0  0  0  0  0  0  0
   17.3901    8.4742   10.7508 C   0  0  0  0  0  0  0  0  0  0  0  0
   17.1248    8.8229   11.7399 H   0  0  0  0  0  0  0  0  0  0  0  0
   14.1014    9.7048   10.7238 C   0  0  0  0  0  0  0  0  0  0  0  0
   12.4275    7.3602   10.7229 C   0  0  0  0  0  0  0  0  0  0  0  0
   13.9768    9.6105   11.8079 H   0  0  0  0  0  0  0  0  0  0  0  0
   12.5708    7.2996   11.8071 H   0  0  0  0  0  0  0  0  0  0  0  0
   15.1092   10.0696   10.5004 H   0  0  0  0  0  0  0  0  0  0  0  0
   11.6077    8.0505   10.4990 H   0  0  0  0  0  0  0  0  0  0  0  0
   13.0567   10.5870   10.1089 C   0  0  0  0  0  0  0  0  0  0  0  0
   12.1860    6.0143   10.1081 C   0  0  0  0  0  0  0  0  0  0  0  0
   13.2653   11.1241    8.8433 C   0  0  0  0  0  0  0  0  0  0  0  0
   11.6159    5.9261    8.8429 C   0  0  0  0  0  0  0  0  0  0  0  0
   14.2108   10.9582    8.3441 H   0  0  0  0  0  0  0  0  0  0  0  0
   11.2868    6.8277    8.3435 H   0  0  0  0  0  0  0  0  0  0  0  0
   12.2813   11.8763    8.2279 C   0  0  0  0  0  0  0  0  0  0  0  0
   11.4558    4.6974    8.2283 C   0  0  0  0  0  0  0  0  0  0  0  0
   12.4539   12.2791    7.2417 H   0  0  0  0  0  0  0  0  0  0  0  0
   11.0195    4.6451    7.2425 H   0  0  0  0  0  0  0  0  0  0  0  0
   11.0772   12.1026    8.8739 C   0  0  0  0  0  0  0  0  0  0  0  0
   11.8624    3.5417    8.8742 C   0  0  0  0  0  0  0  0  0  0  0  0
   10.3062   12.6849    8.3927 H   0  0  0  0  0  0  0  0  0  0  0  0
   11.7433    2.5827    8.3935 H   0  0  0  0  0  0  0  0  0  0  0  0
   10.8660   11.5826   10.1392 C   0  0  0  0  0  0  0  0  0  0  0  0
   12.4197    3.6193   10.1389 C   0  0  0  0  0  0  0  0  0  0  0  0
    9.9318   11.7618   10.6507 H   0  0  0  0  0  0  0  0  0  0  0  0
   12.7324    2.7209   10.6504 H   0  0  0  0  0  0  0  0  0  0  0  0
   11.8488   10.8243   10.7519 C   0  0  0  0  0  0  0  0  0  0  0  0
   12.5852    4.8498   10.7511 C   0  0  0  0  0  0  0  0  0  0  0  0
   11.6797   10.4211   11.7415 H   0  0  0  0  0  0  0  0  0  0  0  0
   13.0197    4.9053   11.7403 H   0  0  0  0  0  0  0  0  0  0  0  0
  1  3  1  0  0  0  0
  2  1  1  0  0  0  0
  3  4  1  0  0  0  0
  3 19  1  0  0  0  0
  3 18  1  0  0  0  0
  4  5  1  0  0  0  0
  6  4  1  0  0  0  0
  7  4  1  0  0  0  0
  7 16  1  0  0  0  0
  8  7  2  0  0  0  0
  9  8  1  0  0  0  0
 10  8  1  0  0  0  0
 10 12  2  0  0  0  0
 11 10  1  0  0  0  0
 12 14  1  0  0  0  0
 13 12  1  0  0  0  0
 14 15  1  0  0  0  0
 14 16  2  0  0  0  0
 16 17  1  0  0  0  0
 18 20  1  0  0  0  0
 19 21  1  0  0  0  0
 22 18  1  0  0  0  0
 23 19  1  0  0  0  0
 24 18  1  0  0  0  0
 24 42  1  0  0  0  0
 25 19  1  0  0  0  0
 25 43  1  0  0  0  0
 26 24  2  0  0  0  0
 27 25  2  0  0  0  0
 28 26  1  0  0  0  0
 29 27  1  0  0  0  0
 30 26  1  0  0  0  0
 30 34  2  0  0  0  0
 31 27  1  0  0  0  0
 31 35  2  0  0  0  0
 32 30  1  0  0  0  0
 33 31  1  0  0  0  0
 34 38  1  0  0  0  0
 35 39  1  0  0  0  0
 36 34  1  0  0  0  0
 37 35  1  0  0  0  0
 38 40  1  0  0  0  0
 38 42  2  0  0  0  0
 39 41  1  0  0  0  0
 39 43  2  0  0  0  0
 42 44  1  0  0  0  0
 43 45  1  0  0  0  0
M  END
$$$$
