CSD_code = KAFZEY | q = 0 | S = 0 | Stoichiometry = C21H21AuClP | MND = 2
 OpenBabel04212202053D

 45 47  0  0  0  0  0  0  0  0999 V2000
   13.9263    8.0404    7.2272 Au  0  0  0  0  0  0  0  0  0  0  0  0
   13.9260    8.0438    4.9651 Cl  0  0  0  0  0  0  0  0  0  0  0  0
   13.9261    8.0395    9.4631 P   0  0  0  0  0  4  0  0  0  0  0  0
   15.2665    7.0578   10.2509 C   0  0  0  0  0  0  0  0  0  0  0  0
   15.2070    7.1652   11.3395 H   0  0  0  0  0  0  0  0  0  0  0  0
   15.0958    6.0117    9.9772 H   0  0  0  0  0  0  0  0  0  0  0  0
   16.5734    7.5545    9.7090 C   0  0  0  0  0  0  0  0  0  0  0  0
   16.9853    7.1724    8.4374 C   0  0  0  0  0  0  0  0  0  0  0  0
   16.3828    6.4771    7.8690 H   0  0  0  0  0  0  0  0  0  0  0  0
   18.1594    7.6698    7.9016 C   0  0  0  0  0  0  0  0  0  0  0  0
   18.4634    7.3698    6.9106 H   0  0  0  0  0  0  0  0  0  0  0  0
   18.9363    8.5531    8.6325 C   0  0  0  0  0  0  0  0  0  0  0  0
   19.8513    8.9440    8.2140 H   0  0  0  0  0  0  0  0  0  0  0  0
   18.5374    8.9322    9.9026 C   0  0  0  0  0  0  0  0  0  0  0  0
   19.1415    9.6171   10.4794 H   0  0  0  0  0  0  0  0  0  0  0  0
   17.3594    8.4390   10.4365 C   0  0  0  0  0  0  0  0  0  0  0  0
   17.0526    8.7374   11.4299 H   0  0  0  0  0  0  0  0  0  0  0  0
   14.1069    9.6921   10.2487 C   0  0  0  0  0  0  0  0  0  0  0  0
   12.4048    7.3701   10.2495 C   0  0  0  0  0  0  0  0  0  0  0  0
   14.0452    9.5884   11.3375 H   0  0  0  0  0  0  0  0  0  0  0  0
   12.5261    7.3683   11.3382 H   0  0  0  0  0  0  0  0  0  0  0  0
   15.0980   10.0664    9.9732 H   0  0  0  0  0  0  0  0  0  0  0  0
   11.5848    8.0411    9.9745 H   0  0  0  0  0  0  0  0  0  0  0  0
   13.0231   10.5756    9.7073 C   0  0  0  0  0  0  0  0  0  0  0  0
   12.1816    5.9897    9.7078 C   0  0  0  0  0  0  0  0  0  0  0  0
   13.1474   11.1239    8.4358 C   0  0  0  0  0  0  0  0  0  0  0  0
   11.6446    5.8236    8.4363 C   0  0  0  0  0  0  0  0  0  0  0  0
   14.0502   10.9496    7.8666 H   0  0  0  0  0  0  0  0  0  0  0  0
   11.3439    6.6928    7.8675 H   0  0  0  0  0  0  0  0  0  0  0  0
   12.1295   11.8927    7.9011 C   0  0  0  0  0  0  0  0  0  0  0  0
   11.4879    4.5579    7.9011 C   0  0  0  0  0  0  0  0  0  0  0  0
   12.2367   12.3064    6.9102 H   0  0  0  0  0  0  0  0  0  0  0  0
   11.0759    4.4443    6.9103 H   0  0  0  0  0  0  0  0  0  0  0  0
   10.9767   12.1241    8.6330 C   0  0  0  0  0  0  0  0  0  0  0  0
   11.8642    3.4437    8.6325 C   0  0  0  0  0  0  0  0  0  0  0  0
   10.1808   12.7219    8.2154 H   0  0  0  0  0  0  0  0  0  0  0  0
   11.7449    2.4556    8.2144 H   0  0  0  0  0  0  0  0  0  0  0  0
   10.8485   11.5884    9.9029 C   0  0  0  0  0  0  0  0  0  0  0  0
   12.3924    3.6000    9.9024 C   0  0  0  0  0  0  0  0  0  0  0  0
    9.9539   11.7692   10.4805 H   0  0  0  0  0  0  0  0  0  0  0  0
   12.6834    2.7347   10.4795 H   0  0  0  0  0  0  0  0  0  0  0  0
   11.8647   10.8142   10.4356 C   0  0  0  0  0  0  0  0  0  0  0  0
   12.5545    4.8670   10.4357 C   0  0  0  0  0  0  0  0  0  0  0  0
   11.7602   10.3987   11.4289 H   0  0  0  0  0  0  0  0  0  0  0  0
   12.9665    4.9838   11.4290 H   0  0  0  0  0  0  0  0  0  0  0  0
  1  3  1  0  0  0  0
  2  1  1  0  0  0  0
  3 18  1  0  0  0  0
  3 19  1  0  0  0  0
  3  4  1  0  0  0  0
  4  5  1  0  0  0  0
  6  4  1  0  0  0  0
  7  4  1  0  0  0  0
  7 16  1  0  0  0  0
  8  7  2  0  0  0  0
  9  8  1  0  0  0  0
 10  8  1  0  0  0  0
 10 12  2  0  0  0  0
 11 10  1  0  0  0  0
 12 14  1  0  0  0  0
 13 12  1  0  0  0  0
 14 16  2  0  0  0  0
 14 15  1  0  0  0  0
 16 17  1  0  0  0  0
 18 20  1  0  0  0  0
 19 21  1  0  0  0  0
 22 18  1  0  0  0  0
 23 19  1  0  0  0  0
 24 18  1  0  0  0  0
 24 42  1  0  0  0  0
 25 19  1  0  0  0  0
 25 43  1  0  0  0  0
 26 24  2  0  0  0  0
 27 25  2  0  0  0  0
 28 26  1  0  0  0  0
 29 27  1  0  0  0  0
 30 26  1  0  0  0  0
 30 34  2  0  0  0  0
 31 27  1  0  0  0  0
 31 35  2  0  0  0  0
 32 30  1  0  0  0  0
 33 31  1  0  0  0  0
 34 38  1  0  0  0  0
 35 39  1  0  0  0  0
 36 34  1  0  0  0  0
 37 35  1  0  0  0  0
 38 42  2  0  0  0  0
 38 40  1  0  0  0  0
 39 43  2  0  0  0  0
 39 41  1  0  0  0  0
 42 44  1  0  0  0  0
 43 45  1  0  0  0  0
M  END
$$$$
