CSD_code = KAGPUE | q = 0 | S = 0 | Stoichiometry = C27H34Cl2FeN4O | MND = 6
 OpenBabel04212202053D

 69 74  0  0  1  0  0  0  0  0999 V2000
    9.4849   14.1477   14.5571 Fe  0  0  0  0  0  0  0  0  0  0  0  0
    9.8733   12.5175   15.9386 Cl  0  0  0  0  0  0  0  0  0  0  0  0
    8.0563   15.1149   15.9724 Cl  0  0  0  0  0  0  0  0  0  0  0  0
   10.6785   13.1404   13.2375 O   0  0  0  0  0  0  0  0  0  0  0  0
   10.8805   15.2656   15.2270 N   0  0  0  0  0  0  0  0  0  0  0  0
    7.9886   13.3288   13.7249 N   0  0  0  0  0  0  0  0  0  0  0  0
    9.2079   15.6538   13.1915 N   0  0  2  0  0  4  0  0  0  0  0  0
   11.2955   12.2410   11.2494 N   0  0  0  0  0  0  0  0  0  0  0  0
   11.1519   12.3034   10.2514 H   0  0  0  0  0  0  0  0  0  0  0  0
   11.8697   14.9478   16.0600 C   0  0  0  0  0  3  0  0  0  0  0  0
   11.8348   13.9400   16.4458 H   0  0  0  0  0  0  0  0  0  0  0  0
   12.8554   15.8433   16.4322 C   0  0  0  0  0  0  0  0  0  0  0  0
   13.6293   15.5338   17.1161 H   0  0  0  0  0  0  0  0  0  0  0  0
   12.8240   17.1314   15.9215 C   0  0  0  0  0  0  0  0  0  0  0  0
   13.5800   17.8559   16.1825 H   0  0  0  0  0  0  0  0  0  0  0  0
   11.7758   17.4764   15.0781 C   0  0  0  0  0  0  0  0  0  0  0  0
   11.6908   18.4761   14.6794 H   0  0  0  0  0  0  0  0  0  0  0  0
   10.8191   16.5292   14.7659 C   0  0  0  0  0  0  0  0  0  0  0  0
    9.5879   16.8423   13.9632 C   0  0  0  0  0  0  0  0  0  0  0  0
    8.7945   17.0237   14.6958 H   0  0  0  0  0  0  0  0  0  0  0  0
    9.7208   17.7279   13.3283 H   0  0  0  0  0  0  0  0  0  0  0  0
    7.7786   15.5788   12.8796 C   0  0  0  0  0  0  0  0  0  0  0  0
    7.5334   16.0690   11.9279 H   0  0  0  0  0  0  0  0  0  0  0  0
    7.2417   16.0793   13.6909 H   0  0  0  0  0  0  0  0  0  0  0  0
    7.3019   14.1502   12.9086 C   0  0  2  0  0  3  0  0  0  0  0  0
    6.1897   13.7277   12.2049 C   0  0  0  0  0  0  0  0  0  0  0  0
    5.6702   14.4196   11.5587 H   0  0  0  0  0  0  0  0  0  0  0  0
    5.7409   12.4217   12.3589 C   0  0  0  0  0  0  0  0  0  0  0  0
    4.8669   12.0758   11.8292 H   0  0  0  0  0  0  0  0  0  0  0  0
    6.4363   11.5885   13.2208 C   0  0  0  0  0  0  0  0  0  0  0  0
    6.1200   10.5722   13.3902 H   0  0  0  0  0  0  0  0  0  0  0  0
    7.5527   12.0775   13.8735 C   0  0  0  0  0  0  0  0  0  0  0  0
    8.1292   11.4740   14.5601 H   0  0  0  0  0  0  0  0  0  0  0  0
   10.0446   15.5998   11.9956 C   0  0  0  0  0  0  0  0  0  0  0  0
   11.0778   15.7686   12.3146 H   0  0  0  0  0  0  0  0  0  0  0  0
    9.7601   16.4152   11.3105 H   0  0  0  0  0  0  0  0  0  0  0  0
    9.9937   14.2789   11.2298 C   0  0  0  0  0  0  0  0  0  0  0  0
    8.9586   13.9815   11.0462 H   0  0  0  0  0  0  0  0  0  0  0  0
   10.4848   14.4153   10.2640 H   0  0  0  0  0  0  0  0  0  0  0  0
   10.6784   13.1689   12.0142 C   0  0  2  0  0  3  0  0  0  0  0  0
   11.8049   10.9899   11.7083 C   0  0  0  0  0  0  0  0  0  0  0  0
   12.8937   10.9488   12.5774 C   0  0  0  0  0  0  0  0  0  0  0  0
   13.3438    9.7048   13.0046 C   0  0  0  0  0  0  0  0  0  0  0  0
   14.1731    9.6481   13.6914 H   0  0  0  0  0  0  0  0  0  0  0  0
   12.7473    8.5424   12.5654 C   0  0  0  0  0  0  0  0  0  0  0  0
   13.1064    7.5849   12.9118 H   0  0  0  0  0  0  0  0  0  0  0  0
   11.6883    8.5990   11.6777 C   0  0  0  0  0  0  0  0  0  0  0  0
   11.2361    7.6807   11.3413 H   0  0  0  0  0  0  0  0  0  0  0  0
   11.2000    9.8172   11.2328 C   0  0  0  0  0  0  0  0  0  0  0  0
   13.6012   12.1937   13.0516 C   0  0  0  0  0  0  0  0  0  0  0  0
   13.1441   13.0691   12.5831 H   0  0  0  0  0  0  0  0  0  0  0  0
   13.4515   12.3319   14.5665 C   0  0  0  0  0  0  0  0  0  0  0  0
   12.3980   12.3209   14.8353 H   0  0  0  0  0  0  0  0  0  0  0  0
   13.8931   13.2683   14.9007 H   0  0  0  0  0  0  0  0  0  0  0  0
   13.9470   11.5133   15.0812 H   0  0  0  0  0  0  0  0  0  0  0  0
   15.0762   12.1669   12.6397 C   0  0  0  0  0  0  0  0  0  0  0  0
   15.6029   11.3488   13.1229 H   0  0  0  0  0  0  0  0  0  0  0  0
   15.5577   13.0986   12.9291 H   0  0  0  0  0  0  0  0  0  0  0  0
   15.1728   12.0472   11.5620 H   0  0  0  0  0  0  0  0  0  0  0  0
   10.0050    9.8919   10.3054 C   0  0  0  0  0  0  0  0  0  0  0  0
   10.1471   10.7274    9.6073 H   0  0  0  0  0  0  0  0  0  0  0  0
    9.8068    8.6393    9.4524 C   0  0  0  0  0  0  0  0  0  0  0  0
   10.7296    8.3674    8.9451 H   0  0  0  0  0  0  0  0  0  0  0  0
    9.0435    8.8287    8.7003 H   0  0  0  0  0  0  0  0  0  0  0  0
    9.4751    7.7995   10.0566 H   0  0  0  0  0  0  0  0  0  0  0  0
    8.7494   10.1682   11.1389 C   0  0  0  0  0  0  0  0  0  0  0  0
    8.5570    9.3303   11.8040 H   0  0  0  0  0  0  0  0  0  0  0  0
    7.8827   10.3077   10.4955 H   0  0  0  0  0  0  0  0  0  0  0  0
    8.8753   11.0562   11.7536 H   0  0  0  0  0  0  0  0  0  0  0  0
  1  5  1  0  0  0  0
  1  2  1  0  0  0  0
  1  3  1  0  0  0  0
  4  1  1  0  0  0  0
  5 10  1  0  0  0  0
  6 32  1  0  0  0  0
  6  1  1  0  0  0  0
  7 34  1  6  0  0  0
  7 19  1  0  0  0  0
  7  1  1  0  0  0  0
  8 41  1  0  0  0  0
  9  8  1  0  0  0  0
 10 12  1  0  0  0  0
 10 11  1  0  0  0  0
 12 13  1  0  0  0  0
 14 15  1  0  0  0  0
 14 12  2  0  0  0  0
 16 14  1  0  0  0  0
 17 16  1  0  0  0  0
 18 16  2  0  0  0  0
 18  5  1  0  0  0  0
 19 20  1  0  0  0  0
 19 18  1  0  0  0  0
 21 19  1  0  0  0  0
 22 25  1  0  0  0  0
 22  7  1  0  0  0  0
 22 24  1  0  0  0  0
 23 22  1  0  0  0  0
 25 26  1  1  0  0  0
 25  6  1  0  0  0  0
 26 28  2  0  0  0  0
 27 26  1  0  0  0  0
 28 30  1  0  0  0  0
 29 28  1  0  0  0  0
 30 31  1  0  0  0  0
 30 32  2  0  0  0  0
 32 33  1  0  0  0  0
 34 35  1  0  0  0  0
 36 34  1  0  0  0  0
 37 34  1  0  0  0  0
 37 40  1  0  0  0  0
 38 37  1  0  0  0  0
 39 37  1  0  0  0  0
 40  8  1  1  0  0  0
 40  4  1  0  0  0  0
 41 42  1  0  0  0  0
 42 43  2  0  0  0  0
 42 50  1  0  0  0  0
 43 44  1  0  0  0  0
 45 46  1  0  0  0  0
 45 43  1  0  0  0  0
 47 45  2  0  0  0  0
 48 47  1  0  0  0  0
 49 47  1  0  0  0  0
 49 41  2  0  0  0  0
 50 52  1  0  0  0  0
 51 50  1  0  0  0  0
 52 53  1  0  0  0  0
 52 54  1  0  0  0  0
 52 55  1  0  0  0  0
 56 58  1  0  0  0  0
 56 50  1  0  0  0  0
 56 57  1  0  0  0  0
 59 56  1  0  0  0  0
 60 66  1  0  0  0  0
 60 49  1  0  0  0  0
 61 60  1  0  0  0  0
 62 65  1  0  0  0  0
 62 60  1  0  0  0  0
 63 62  1  0  0  0  0
 64 62  1  0  0  0  0
 66 69  1  0  0  0  0
 66 67  1  0  0  0  0
 68 66  1  0  0  0  0
M  END
$$$$
