CSD_code = KAGXUN | q = 0 | S = 0 | Stoichiometry = C28H26ClNPRh | MND = 6
 OpenBabel04212202053D

 58 61  0  0  1  0  0  0  0  0999 V2000
    5.0465   -0.6312    2.7406 Rh  0  0  0  0  0  0  0  0  0  0  0  0
    2.8739   -0.3158    3.3043 P   0  0  0  0  0  0  0  0  0  0  0  0
    5.5790    1.1425    4.0266 Cl  0  0  0  0  0 15  0  0  0  0  0  0
    2.9306    2.3775    3.0068 N   0  0  0  0  0  0  0  0  0  0  0  0
    3.9282    2.3096    3.2013 H   0  0  0  0  0  0  0  0  0  0  0  0
    2.0911    1.2893    3.0828 C   0  0  0  0  0  0  0  0  0  0  0  0
    0.7819    1.6997    2.9247 C   0  0  0  0  0  0  0  0  0  0  0  0
    0.8298    3.1131    2.7555 C   0  0  0  0  0  0  0  0  0  0  0  0
   -0.1493    4.0902    2.5537 C   0  0  0  0  0  0  0  0  0  0  0  0
   -1.1924    3.8166    2.4928 H   0  0  0  0  0  0  0  0  0  0  0  0
    0.2459    5.4006    2.4320 C   0  0  0  0  0  0  0  0  0  0  0  0
   -0.4945    6.1715    2.2748 H   0  0  0  0  0  0  0  0  0  0  0  0
    1.5961    5.7666    2.5075 C   0  0  0  0  0  0  0  0  0  0  0  0
    1.8616    6.8089    2.4076 H   0  0  0  0  0  0  0  0  0  0  0  0
    2.5829    4.8292    2.7049 C   0  0  0  0  0  0  0  0  0  0  0  0
    3.6246    5.1050    2.7652 H   0  0  0  0  0  0  0  0  0  0  0  0
    2.1933    3.4980    2.8274 C   0  0  0  0  0  0  0  0  0  0  0  0
   -0.4655    0.8829    2.9305 C   0  0  0  0  0  0  0  0  0  0  0  0
   -0.8317    0.7331    1.9136 H   0  0  0  0  0  0  0  0  0  0  0  0
   -1.2429    1.3993    3.4922 H   0  0  0  0  0  0  0  0  0  0  0  0
   -0.2979   -0.0939    3.3773 H   0  0  0  0  0  0  0  0  0  0  0  0
    2.6788   -0.6809    5.0795 C   0  0  0  0  0  0  0  0  0  0  0  0
    3.6265   -1.5220    5.6565 C   0  0  0  0  0  0  0  0  0  0  0  0
    4.4399   -1.9024    5.0377 H   0  0  0  0  0  0  0  0  0  0  0  0
    3.5458   -1.8473    6.9970 C   0  0  0  0  0  0  0  0  0  0  0  0
    4.2849   -2.4966    7.4433 H   0  0  0  0  0  0  0  0  0  0  0  0
    2.5203   -1.3269    7.7706 C   0  0  0  0  0  0  0  0  0  0  0  0
    2.4575   -1.5750    8.8199 H   0  0  0  0  0  0  0  0  0  0  0  0
    1.5848   -0.4764    7.2040 C   0  0  0  0  0  0  0  0  0  0  0  0
    0.7946   -0.0620    7.8130 H   0  0  0  0  0  0  0  0  0  0  0  0
    1.6609   -0.1496    5.8615 C   0  0  0  0  0  0  0  0  0  0  0  0
    0.9419    0.5259    5.4224 H   0  0  0  0  0  0  0  0  0  0  0  0
    1.6995   -1.4566    2.5058 C   0  0  0  0  0  0  0  0  0  0  0  0
    1.3534   -1.2023    1.1811 C   0  0  0  0  0  0  0  0  0  0  0  0
    1.7158   -0.2982    0.7088 H   0  0  0  0  0  0  0  0  0  0  0  0
    0.5438   -2.0830    0.4908 C   0  0  0  0  0  0  0  0  0  0  0  0
    0.2701   -1.8774   -0.5340 H   0  0  0  0  0  0  0  0  0  0  0  0
    0.0838   -3.2334    1.1133 C   0  0  0  0  0  0  0  0  0  0  0  0
   -0.5477   -3.9237    0.5739 H   0  0  0  0  0  0  0  0  0  0  0  0
    0.4378   -3.4991    2.4253 C   0  0  0  0  0  0  0  0  0  0  0  0
    0.0831   -4.3977    2.9090 H   0  0  0  0  0  0  0  0  0  0  0  0
    1.2488   -2.6185    3.1202 C   0  0  0  0  0  0  0  0  0  0  0  0
    1.5252   -2.8256    4.1452 H   0  0  0  0  0  0  0  0  0  0  0  0
    7.0051   -1.5370    2.7066 C   0  0  0  0  0  0  0  0  0  0  0  0
    7.5999   -1.3795    3.5979 H   0  0  0  0  0  0  0  0  0  0  0  0
    6.8942   -0.6951    1.6219 C   0  0  0  0  0  0  0  0  0  0  0  0
    7.3765    0.2641    1.4860 H   0  0  0  0  0  0  0  0  0  0  0  0
    6.3241   -1.5356    0.4798 C   0  0  2  0  0  0  0  0  0  0  0  0
    6.4316   -1.1325   -0.5237 H   0  0  0  0  0  0  0  0  0  0  0  0
    6.5049   -2.9064    2.2439 C   0  0  1  0  0  0  0  0  0  0  0  0
    6.7805   -3.7607    2.8574 H   0  0  0  0  0  0  0  0  0  0  0  0
    4.8976   -1.7736    0.9784 C   0  0  1  0  0  0  0  0  0  0  0  0
    4.0270   -1.6581    0.3469 H   0  0  0  0  0  0  0  0  0  0  0  0
    5.0087   -2.6293    2.0755 C   0  0  0  0  0  3  0  0  0  0  0  0
    4.2400   -3.2981    2.4415 H   0  0  0  0  0  0  0  0  0  0  0  0
    6.9686   -2.8976    0.7794 C   0  0  0  0  0  0  0  0  0  0  0  0
    8.0540   -2.8908    0.6735 H   0  0  0  0  0  0  0  0  0  0  0  0
    6.5427   -3.7109    0.1914 H   0  0  0  0  0  0  0  0  0  0  0  0
  2 22  1  0  0  0  0
  4  6  1  0  0  0  0
  4  5  1  0  0  0  0
  6  2  1  0  0  0  0
  7 18  1  0  0  0  0
  7  6  2  0  0  0  0
  8 17  1  0  0  0  0
  8  7  1  0  0  0  0
  9  8  2  0  0  0  0
 10  9  1  0  0  0  0
 11 13  2  0  0  0  0
 11  9  1  0  0  0  0
 12 11  1  0  0  0  0
 13 15  1  0  0  0  0
 14 13  1  0  0  0  0
 15 16  1  0  0  0  0
 15 17  2  0  0  0  0
 17  4  1  0  0  0  0
 18 21  1  0  0  0  0
 18 20  1  0  0  0  0
 19 18  1  0  0  0  0
 22 23  2  0  0  0  0
 22 31  1  0  0  0  0
 23 25  1  0  0  0  0
 24 23  1  0  0  0  0
 25 26  1  0  0  0  0
 25 27  2  0  0  0  0
 27 28  1  0  0  0  0
 29 27  1  0  0  0  0
 29 30  1  0  0  0  0
 31 29  2  0  0  0  0
 32 31  1  0  0  0  0
 33 42  1  0  0  0  0
 33  2  1  0  0  0  0
 34 33  2  0  0  0  0
 35 34  1  0  0  0  0
 36 38  2  0  0  0  0
 36 34  1  0  0  0  0
 37 36  1  0  0  0  0
 38 40  1  0  0  0  0
 39 38  1  0  0  0  0
 40 41  1  0  0  0  0
 40 42  2  0  0  0  0
 42 43  1  0  0  0  0
 44 45  1  0  0  0  0
 46 44  2  0  0  0  0
 47 46  1  0  0  0  0
 48 49  1  6  0  0  0
 48 56  1  0  0  0  0
 48 52  1  0  0  0  0
 48 46  1  0  0  0  0
 50 44  1  0  0  0  0
 50 51  1  1  0  0  0
 52 53  1  6  0  0  0
 52 54  1  0  0  0  0
 52  1  1  0  0  0  0
 54 50  1  0  0  0  0
 54 55  1  0  0  0  0
 56 50  1  0  0  0  0
 57 56  1  0  0  0  0
 58 56  1  0  0  0  0
M  END
$$$$
