CSD_code = KAGXOF | q = 0 | S = 0 | Stoichiometry = C16H18CoIN6S2 | MND = 5
 OpenBabel04212202053D

 44 47  0  0  0  0  0  0  0  0999 V2000
    4.6405    5.6434    2.4729 Co  0  0  0  0  0  0  0  0  0  0  0  0
    4.6854    5.7479    5.0084 I   0  0  0  0  0  0  0  0  0  0  0  0
    3.1485    6.5516    2.0601 N   0  0  0  0  0  0  0  0  0  0  0  0
    2.0799    5.8675    1.7175 N   0  0  0  0  0  0  0  0  0  0  0  0
    2.2669    4.5648    1.9004 C   0  0  0  0  0  0  0  0  0  0  0  0
    3.4660    4.1742    2.2536 N   0  0  0  0  0  0  0  0  0  0  0  0
    0.8674    3.5496    1.6337 S   0  0  0  0  0  0  0  0  0  0  0  0
    2.9985    7.9298    1.8592 C   0  0  0  0  0  0  0  0  0  0  0  0
    3.4733    8.8436    2.8026 C   0  0  0  0  0  0  0  0  0  0  0  0
    3.3331   10.2000    2.5779 C   0  0  0  0  0  0  0  0  0  0  0  0
    2.7206   10.6608    1.4232 C   0  0  0  0  0  0  0  0  0  0  0  0
    2.2250    9.7551    0.4976 C   0  0  0  0  0  0  0  0  0  0  0  0
    2.3540    8.3979    0.7124 C   0  0  0  0  0  0  0  0  0  0  0  0
    1.5248    1.9079    2.0721 C   0  0  0  0  0  0  0  0  0  0  0  0
    3.5896    3.1846    2.4474 H   0  0  0  0  0  0  0  0  0  0  0  0
    3.9093    8.4875    3.7240 H   0  0  0  0  0  0  0  0  0  0  0  0
    3.6976   10.9012    3.3141 H   0  0  0  0  0  0  0  0  0  0  0  0
    2.6199   11.7216    1.2506 H   0  0  0  0  0  0  0  0  0  0  0  0
    1.7338   10.1093   -0.3964 H   0  0  0  0  0  0  0  0  0  0  0  0
    1.9733    7.6803    0.0015 H   0  0  0  0  0  0  0  0  0  0  0  0
    0.6974    1.2185    1.9393 H   0  0  0  0  0  0  0  0  0  0  0  0
    2.3383    1.6349    1.4042 H   0  0  0  0  0  0  0  0  0  0  0  0
    1.8414    1.9000    3.1119 H   0  0  0  0  0  0  0  0  0  0  0  0
    6.1191    4.7032    2.0839 N   0  0  0  0  0  0  0  0  0  0  0  0
    7.1740    5.3569    1.6510 N   0  0  0  0  0  0  0  0  0  0  0  0
    6.9910    6.6702    1.7349 C   0  0  0  0  0  0  0  0  0  0  0  0
    5.8039    7.0887    2.0960 N   0  0  0  0  0  0  0  0  0  0  0  0
    8.3787    7.6602    1.3419 S   0  0  0  0  0  0  0  0  0  0  0  0
    6.2683    3.3133    1.9950 C   0  0  0  0  0  0  0  0  0  0  0  0
    5.8242    2.4816    3.0252 C   0  0  0  0  0  0  0  0  0  0  0  0
    5.9668    1.1115    2.9134 C   0  0  0  0  0  0  0  0  0  0  0  0
    6.5517    0.5561    1.7865 C   0  0  0  0  0  0  0  0  0  0  0  0
    7.0163    1.3812    0.7736 C   0  0  0  0  0  0  0  0  0  0  0  0
    6.8841    2.7512    0.8747 C   0  0  0  0  0  0  0  0  0  0  0  0
    7.7358    9.3306    1.6841 C   0  0  0  0  0  0  0  0  0  0  0  0
    5.6838    8.0904    2.2155 H   0  0  0  0  0  0  0  0  0  0  0  0
    5.4115    2.9133    3.9246 H   0  0  0  0  0  0  0  0  0  0  0  0
    5.6281    0.4748    3.7174 H   0  0  0  0  0  0  0  0  0  0  0  0
    6.6561   -0.5151    1.7032 H   0  0  0  0  0  0  0  0  0  0  0  0
    7.4852    0.9536   -0.1001 H   0  0  0  0  0  0  0  0  0  0  0  0
    7.2403    3.4069    0.0948 H   0  0  0  0  0  0  0  0  0  0  0  0
    8.5581   10.0072    1.4751 H   0  0  0  0  0  0  0  0  0  0  0  0
    6.9003    9.5574    1.0259 H   0  0  0  0  0  0  0  0  0  0  0  0
    7.4543    9.4127    2.7308 H   0  0  0  0  0  0  0  0  0  0  0  0
  1  2  1  0  0  0  0
  3  1  1  0  0  0  0
  4  5  2  0  0  0  0
  4  3  1  0  0  0  0
  5  6  1  0  0  0  0
  6 15  1  0  0  0  0
  6  1  1  0  0  0  0
  7  5  1  0  0  0  0
  7 14  1  0  0  0  0
  8  3  1  0  0  0  0
  8  9  1  0  0  0  0
  9 16  1  0  0  0  0
 10  9  2  0  0  0  0
 10 17  1  0  0  0  0
 11 10  1  0  0  0  0
 12 13  1  0  0  0  0
 12 11  2  0  0  0  0
 13  8  2  0  0  0  0
 14 23  1  0  0  0  0
 18 11  1  0  0  0  0
 19 12  1  0  0  0  0
 20 13  1  0  0  0  0
 21 14  1  0  0  0  0
 22 14  1  0  0  0  0
 24  1  1  0  0  0  0
 25 26  2  0  0  0  0
 25 24  1  0  0  0  0
 26 27  1  0  0  0  0
 27 36  1  0  0  0  0
 27  1  1  0  0  0  0
 28 35  1  0  0  0  0
 28 26  1  0  0  0  0
 29 24  1  0  0  0  0
 29 30  1  0  0  0  0
 30 37  1  0  0  0  0
 31 30  2  0  0  0  0
 31 38  1  0  0  0  0
 32 31  1  0  0  0  0
 33 34  1  0  0  0  0
 33 32  2  0  0  0  0
 34 29  2  0  0  0  0
 35 44  1  0  0  0  0
 39 32  1  0  0  0  0
 40 33  1  0  0  0  0
 41 34  1  0  0  0  0
 42 35  1  0  0  0  0
 43 35  1  0  0  0  0
M  END
$$$$
