CSD_code = KAHDON | q = 0 | S = 0 | Stoichiometry = C20H18Cl2N6O2Zn | MND = 4
 OpenBabel04212202053D

 49 52  0  0  0  0  0  0  0  0999 V2000
   -3.1824   -1.9726    4.1563 Zn  0  0  0  0  0  0  0  0  0  0  0  0
   -1.5916   -2.9108    2.9516 Cl  0  0  0  0  0  0  0  0  0  0  0  0
    1.1211    1.3855    5.0545 O   0  0  0  0  0  0  0  0  0  0  0  0
   -0.1610   -0.4513    6.5004 N   0  0  0  0  0  0  0  0  0  0  0  0
   -1.1242   -0.2421    7.4029 N   0  0  0  0  0  0  0  0  0  0  0  0
   -2.0180   -0.8696    5.4791 N   0  0  0  0  0  0  0  0  0  0  0  0
    3.7043    2.3558    5.4492 C   0  0  0  0  0  0  0  0  0  0  0  0
    3.0752    2.8037    4.6948 H   0  0  0  0  0  0  0  0  0  0  0  0
    4.9963    2.7968    5.6533 C   0  0  0  0  0  0  0  0  0  0  0  0
    5.3927    3.6025    5.0544 H   0  0  0  0  0  0  0  0  0  0  0  0
    5.7825    2.2014    6.6271 C   0  0  0  0  0  0  0  0  0  0  0  0
    6.7940    2.5421    6.7895 H   0  0  0  0  0  0  0  0  0  0  0  0
    5.2705    1.1658    7.3939 C   0  0  0  0  0  0  0  0  0  0  0  0
    5.8849    0.7022    8.1510 H   0  0  0  0  0  0  0  0  0  0  0  0
    3.9770    0.7208    7.1960 C   0  0  0  0  0  0  0  0  0  0  0  0
    3.6031   -0.0877    7.8041 H   0  0  0  0  0  0  0  0  0  0  0  0
    3.1773    1.3138    6.2173 C   0  0  0  0  0  0  0  0  0  0  0  0
    1.7909    0.8979    5.9319 C   0  0  0  0  0  0  0  0  0  0  0  0
    1.2167   -0.2240    6.8131 C   0  0  0  0  0  0  0  0  0  0  0  0
    1.7962   -1.1377    6.6458 H   0  0  0  0  0  0  0  0  0  0  0  0
    1.2637    0.0565    7.8676 H   0  0  0  0  0  0  0  0  0  0  0  0
   -2.2305   -0.5067    6.7636 C   0  0  0  0  0  0  0  0  0  0  0  0
   -3.2035   -0.4513    7.2062 H   0  0  0  0  0  0  0  0  0  0  0  0
   -0.7050   -0.8191    5.3415 C   0  0  0  0  0  3  0  0  0  0  0  0
   -0.1708   -1.0578    4.4443 H   0  0  0  0  0  0  0  0  0  0  0  0
   -4.7907   -2.8820    5.3575 Cl  0  0  0  0  0  0  0  0  0  0  0  0
   -4.3201   -0.8545    2.8230 N   0  0  0  0  0  0  0  0  0  0  0  0
   -4.0821   -0.4888    1.5437 C   0  0  0  0  0  0  0  0  0  0  0  0
   -5.1751   -0.2180    0.8845 N   0  0  0  0  0  0  0  0  0  0  0  0
   -6.1560   -0.4265    1.7678 N   0  0  0  0  0  0  0  0  0  0  0  0
   -7.5269   -0.1967    1.4281 C   0  0  0  0  0  0  0  0  0  0  0  0
   -8.1214    0.9160    2.3071 C   0  0  0  0  0  0  0  0  0  0  0  0
   -7.4682    1.4029    3.1974 O   0  0  0  0  0  0  0  0  0  0  0  0
   -9.5076    1.3216    2.0057 C   0  0  0  0  0  0  0  0  0  0  0  0
  -10.0622    2.3375    2.7892 C   0  0  0  0  0  0  0  0  0  0  0  0
   -9.4528    2.7749    3.5656 H   0  0  0  0  0  0  0  0  0  0  0  0
  -11.3562    2.7665    2.5724 C   0  0  0  0  0  0  0  0  0  0  0  0
  -11.7740    3.5519    3.1837 H   0  0  0  0  0  0  0  0  0  0  0  0
  -12.1166    2.1855    1.5698 C   0  0  0  0  0  0  0  0  0  0  0  0
  -13.1296    2.5167    1.3976 H   0  0  0  0  0  0  0  0  0  0  0  0
  -11.5767    1.1767    0.7867 C   0  0  0  0  0  0  0  0  0  0  0  0
  -12.1708    0.7245    0.0068 H   0  0  0  0  0  0  0  0  0  0  0  0
  -10.2812    0.7433    0.9978 C   0  0  0  0  0  0  0  0  0  0  0  0
   -9.8853   -0.0440    0.3760 H   0  0  0  0  0  0  0  0  0  0  0  0
   -8.1093   -1.1124    1.5730 H   0  0  0  0  0  0  0  0  0  0  0  0
   -7.5508    0.0945    0.3758 H   0  0  0  0  0  0  0  0  0  0  0  0
   -5.6353   -0.8000    2.9357 C   0  0  0  0  0  3  0  0  0  0  0  0
   -6.1872   -1.0386    3.8221 H   0  0  0  0  0  0  0  0  0  0  0  0
   -3.1007   -0.4356    1.1198 H   0  0  0  0  0  0  0  0  0  0  0  0
  1 26  1  0  0  0  0
  1  6  1  0  0  0  0
  2  1  1  0  0  0  0
  3 18  2  0  0  0  0
  4 19  1  0  0  0  0
  4  5  1  0  0  0  0
  6 22  1  0  0  0  0
  7  9  2  0  0  0  0
  7 17  1  0  0  0  0
  8  7  1  0  0  0  0
  9 11  1  0  0  0  0
 10  9  1  0  0  0  0
 11 12  1  0  0  0  0
 11 13  2  0  0  0  0
 13 14  1  0  0  0  0
 15 13  1  0  0  0  0
 15 16  1  0  0  0  0
 17 15  2  0  0  0  0
 18 17  1  0  0  0  0
 18 19  1  0  0  0  0
 19 21  1  0  0  0  0
 20 19  1  0  0  0  0
 22 23  1  0  0  0  0
 22  5  2  0  0  0  0
 24  6  1  0  0  0  0
 24  4  1  0  0  0  0
 25 24  1  0  0  0  0
 27 47  1  0  0  0  0
 27  1  1  0  0  0  0
 28 27  1  0  0  0  0
 29 28  2  0  0  0  0
 29 30  1  0  0  0  0
 30 47  1  0  0  0  0
 31 45  1  0  0  0  0
 31 30  1  0  0  0  0
 31 32  1  0  0  0  0
 32 33  2  0  0  0  0
 34 32  1  0  0  0  0
 34 35  1  0  0  0  0
 35 36  1  0  0  0  0
 37 35  2  0  0  0  0
 37 38  1  0  0  0  0
 39 37  1  0  0  0  0
 40 39  1  0  0  0  0
 41 43  1  0  0  0  0
 41 39  2  0  0  0  0
 42 41  1  0  0  0  0
 43 34  2  0  0  0  0
 44 43  1  0  0  0  0
 46 31  1  0  0  0  0
 47 48  1  0  0  0  0
 49 28  1  0  0  0  0
M  END
$$$$
