CSD_code = KAHSUJ | q = 0 | S = 0 | Stoichiometry = C19H35ClPRh | MND = 6
 OpenBabel04212202053D

 57 56  0  0  1  0  0  0  0  0999 V2000
    4.6233    5.3012    2.4588 Rh  0  0  0  0  0  0  0  0  0  0  0  0
    2.6702    4.3809    1.7683 Cl  0  0  0  0  0 15  0  0  0  0  0  0
    3.8247    5.9708    4.5992 P   0  0  0  0  0  0  0  0  0  0  0  0
    5.5858    4.2162    0.8662 C   0  0  0  0  0  0  0  0  0  0  0  0
    5.1952    5.4513    0.3895 C   0  0  0  0  0  0  0  0  0  0  0  0
    6.3719    6.3931    0.6199 C   0  0  1  0  0  0  0  0  0  0  0  0
    6.3466    6.5030    2.1450 C   0  0  2  0  0  0  0  0  0  0  0  0
    6.7408    5.2515    2.6261 C   0  0  0  0  0  3  0  0  0  0  0  0
    7.0060    4.3888    1.3923 C   0  0  2  0  0  0  0  0  0  0  0  0
    7.5542    5.4353    0.4108 C   0  0  0  0  0  0  0  0  0  0  0  0
    5.1468    6.3999    5.9549 C   0  0  0  0  0  0  0  0  0  0  0  0
    6.2758    7.2815    5.4011 C   0  0  0  0  0  0  0  0  0  0  0  0
    5.8344    5.0897    6.3608 C   0  0  0  0  0  0  0  0  0  0  0  0
    4.6150    7.1173    7.1988 C   0  0  0  0  0  0  0  0  0  0  0  0
    2.7347    4.5774    5.3942 C   0  0  0  0  0  0  0  0  0  0  0  0
    2.4633    4.6482    6.8996 C   0  0  0  0  0  0  0  0  0  0  0  0
    3.4628    3.2627    5.0702 C   0  0  0  0  0  0  0  0  0  0  0  0
    1.3580    4.4927    4.7242 C   0  0  0  0  0  0  0  0  0  0  0  0
    2.7408    7.5431    4.3751 C   0  0  0  0  0  0  0  0  0  0  0  0
    3.6411    8.7571    4.1259 C   0  0  0  0  0  0  0  0  0  0  0  0
    1.9581    7.3431    3.0734 C   0  0  0  0  0  0  0  0  0  0  0  0
    1.7756    7.8890    5.5081 C   0  0  0  0  0  0  0  0  0  0  0  0
    5.1390    3.2582    0.6365 H   0  0  0  0  0  0  0  0  0  0  0  0
    4.3788    5.6586   -0.2898 H   0  0  0  0  0  0  0  0  0  0  0  0
    6.3700    7.3262    0.0618 H   0  0  0  0  0  0  0  0  0  0  0  0
    6.4588    7.4558    2.6392 H   0  0  0  0  0  0  0  0  0  0  0  0
    7.2169    5.0294    3.5700 H   0  0  0  0  0  0  0  0  0  0  0  0
    7.5864    3.4822    1.5445 H   0  0  0  0  0  0  0  0  0  0  0  0
    7.6308    5.0652   -0.6122 H   0  0  0  0  0  0  0  0  0  0  0  0
    8.5094    5.8586    0.7244 H   0  0  0  0  0  0  0  0  0  0  0  0
    5.9234    8.1973    4.9465 H   0  0  0  0  0  0  0  0  0  0  0  0
    6.9288    7.5595    6.2295 H   0  0  0  0  0  0  0  0  0  0  0  0
    6.8767    6.7425    4.6810 H   0  0  0  0  0  0  0  0  0  0  0  0
    6.0322    4.4792    5.4811 H   0  0  0  0  0  0  0  0  0  0  0  0
    6.7878    5.3118    6.8406 H   0  0  0  0  0  0  0  0  0  0  0  0
    5.2485    4.5101    7.0653 H   0  0  0  0  0  0  0  0  0  0  0  0
    4.4407    8.1703    6.9932 H   0  0  0  0  0  0  0  0  0  0  0  0
    3.7031    6.6842    7.5864 H   0  0  0  0  0  0  0  0  0  0  0  0
    5.3699    7.0611    7.9839 H   0  0  0  0  0  0  0  0  0  0  0  0
    1.9081    5.5441    7.1647 H   0  0  0  0  0  0  0  0  0  0  0  0
    3.3608    4.5905    7.5051 H   0  0  0  0  0  0  0  0  0  0  0  0
    1.8441    3.7914    7.1676 H   0  0  0  0  0  0  0  0  0  0  0  0
    3.8530    3.2863    4.0467 H   0  0  0  0  0  0  0  0  0  0  0  0
    4.2815    3.0602    5.7525 H   0  0  0  0  0  0  0  0  0  0  0  0
    2.7642    2.4304    5.1355 H   0  0  0  0  0  0  0  0  0  0  0  0
    1.4525    4.3810    3.6500 H   0  0  0  0  0  0  0  0  0  0  0  0
    0.7302    5.3484    4.9494 H   0  0  0  0  0  0  0  0  0  0  0  0
    0.8434    3.6091    5.1023 H   0  0  0  0  0  0  0  0  0  0  0  0
    4.3996    8.5195    3.3813 H   0  0  0  0  0  0  0  0  0  0  0  0
    4.1103    9.1163    5.0370 H   0  0  0  0  0  0  0  0  0  0  0  0
    3.0357    9.5733    3.7310 H   0  0  0  0  0  0  0  0  0  0  0  0
    2.6545    7.1651    2.2474 H   0  0  0  0  0  0  0  0  0  0  0  0
    1.2754    6.5035    3.1188 H   0  0  0  0  0  0  0  0  0  0  0  0
    1.3817    8.2400    2.8474 H   0  0  0  0  0  0  0  0  0  0  0  0
    1.2337    8.7956    5.2365 H   0  0  0  0  0  0  0  0  0  0  0  0
    2.2939    8.0820    6.4411 H   0  0  0  0  0  0  0  0  0  0  0  0
    1.0401    7.1096    5.6733 H   0  0  0  0  0  0  0  0  0  0  0  0
  3 15  1  0  0  0  0
  3 11  1  0  0  0  0
  4  9  1  0  0  0  0
  5  6  1  0  0  0  0
  5  4  2  0  0  0  0
  6 25  1  6  0  0  0
  6  7  1  0  0  0  0
  7  1  1  0  0  0  0
  7  8  1  0  0  0  0
  7 26  1  1  0  0  0
  8 27  1  0  0  0  0
  9 28  1  1  0  0  0
  9  8  1  0  0  0  0
 10  6  1  0  0  0  0
 10 30  1  0  0  0  0
 10  9  1  0  0  0  0
 11 13  1  0  0  0  0
 11 14  1  0  0  0  0
 12 11  1  0  0  0  0
 12 32  1  0  0  0  0
 13 35  1  0  0  0  0
 13 36  1  0  0  0  0
 14 38  1  0  0  0  0
 14 39  1  0  0  0  0
 15 16  1  0  0  0  0
 16 40  1  0  0  0  0
 16 42  1  0  0  0  0
 16 41  1  0  0  0  0
 17 45  1  0  0  0  0
 17 15  1  0  0  0  0
 17 44  1  0  0  0  0
 18 47  1  0  0  0  0
 18 48  1  0  0  0  0
 18 15  1  0  0  0  0
 19  3  1  0  0  0  0
 19 22  1  0  0  0  0
 20 19  1  0  0  0  0
 20 50  1  0  0  0  0
 21 53  1  0  0  0  0
 21 19  1  0  0  0  0
 22 57  1  0  0  0  0
 22 56  1  0  0  0  0
 23  4  1  0  0  0  0
 24  5  1  0  0  0  0
 29 10  1  0  0  0  0
 31 12  1  0  0  0  0
 33 12  1  0  0  0  0
 34 13  1  0  0  0  0
 37 14  1  0  0  0  0
 43 17  1  0  0  0  0
 46 18  1  0  0  0  0
 49 20  1  0  0  0  0
 51 20  1  0  0  0  0
 52 21  1  0  0  0  0
 54 21  1  0  0  0  0
 55 22  1  0  0  0  0
M  END
$$$$
