CSD_code = KAHTAR | q = 0 | S = 0 | Stoichiometry = C30H24Cl2N8Ni | MND = 6
 OpenBabel04212202053D

 65 74  0  0  1  0  0  0  0  0999 V2000
    4.4665    5.2995   -0.0000 Ni  0  0  0  0  0  0  0  0  0  0  0  0
    3.1052    4.5795    1.5674 Cl  0  0  0  0  0  0  0  0  0  0  0  0
    5.9551    6.8471    2.2659 N   0  0  0  0  0  0  0  0  0  0  0  0
    6.1812    5.7674    1.4907 N   0  0  0  0  0  0  0  0  0  0  0  0
    3.9863    7.7744    1.3706 N   0  0  0  0  0  0  0  0  0  0  0  0
    3.8614    7.0458    0.2479 N   0  0  0  0  0  0  0  0  0  0  0  0
    7.4738    5.6787    1.2956 C   0  0  0  0  0  0  0  0  0  0  0  0
    7.8910    4.8882    0.7026 H   0  0  0  0  0  0  0  0  0  0  0  0
    8.1486    6.7470    1.9373 C   0  0  0  0  0  0  0  0  0  0  0  0
    9.4777    7.1562    2.0663 C   0  0  0  0  0  3  0  0  0  0  0  0
   10.2716    6.5897    1.6047 H   0  0  0  0  0  0  0  0  0  0  0  0
    9.7341    8.2955    2.7900 C   0  0  0  0  0  0  0  0  0  0  0  0
   10.7508    8.6399    2.9068 H   0  0  0  0  0  0  0  0  0  0  0  0
    8.7013    9.0340    3.3843 C   0  0  0  0  0  0  0  0  0  0  0  0
    8.9516    9.9259    3.9393 H   0  0  0  0  0  0  0  0  0  0  0  0
    7.3833    8.6546    3.2762 C   0  0  0  0  0  0  0  0  0  0  0  0
    6.5956    9.2331    3.7349 H   0  0  0  0  0  0  0  0  0  0  0  0
    7.1150    7.4994    2.5475 C   0  0  0  0  0  0  0  0  0  0  0  0
    3.2998    7.7891   -0.6759 C   0  0  0  0  0  0  0  0  0  0  0  0
    3.1228    7.4122   -1.6648 H   0  0  0  0  0  0  0  0  0  0  0  0
    3.0313    9.0756   -0.1581 C   0  0  0  0  0  0  0  0  0  0  0  0
    2.4601   10.2495   -0.6587 C   0  0  0  0  0  3  0  0  0  0  0  0
    2.1003   10.2913   -1.6748 H   0  0  0  0  0  0  0  0  0  0  0  0
    2.3773   11.3330    0.1803 C   0  0  0  0  0  0  0  0  0  0  0  0
    1.9425   12.2552   -0.1745 H   0  0  0  0  0  0  0  0  0  0  0  0
    2.8475   11.2741    1.5005 C   0  0  0  0  0  0  0  0  0  0  0  0
    2.7614   12.1521    2.1230 H   0  0  0  0  0  0  0  0  0  0  0  0
    3.4120   10.1330    2.0203 C   0  0  0  0  0  0  0  0  0  0  0  0
    3.7661   10.1020    3.0394 H   0  0  0  0  0  0  0  0  0  0  0  0
    3.5013    9.0273    1.1771 C   0  0  0  0  0  0  0  0  0  0  0  0
    4.6004    7.2156    2.5500 C   0  0  0  0  0  0  0  0  0  0  0  0
    4.0446    6.3023    2.8218 H   0  0  0  0  0  0  0  0  0  0  0  0
    4.5702    7.9524    3.3530 H   0  0  0  0  0  0  0  0  0  0  0  0
    5.8279    6.0195   -1.5675 Cl  0  0  0  0  0  0  0  0  0  0  0  0
    2.9779    3.7519   -2.2659 N   0  0  2  0  0  0  0  0  0  0  0  0
    2.7519    4.8317   -1.4908 N   0  0  0  0  0  0  0  0  0  0  0  0
    4.9467    2.8247   -1.3707 N   0  0  1  0  0  0  0  0  0  0  0  0
    5.0716    3.5532   -0.2480 N   0  0  0  0  0  0  0  0  0  0  0  0
    1.4592    4.9203   -1.2957 C   0  0  0  0  0  0  0  0  0  0  0  0
    1.0421    5.7109   -0.7026 H   0  0  0  0  0  0  0  0  0  0  0  0
    0.7844    3.8520   -1.9372 C   0  0  0  0  0  0  0  0  0  0  0  0
   -0.5447    3.4428   -2.0663 C   0  0  0  0  0  0  0  0  0  0  0  0
   -1.3385    4.0094   -1.6046 H   0  0  0  0  0  0  0  0  0  0  0  0
   -0.8011    2.3035   -2.7899 C   0  0  0  0  0  0  0  0  0  0  0  0
   -1.8178    1.9591   -2.9066 H   0  0  0  0  0  0  0  0  0  0  0  0
    0.2317    1.5649   -3.3841 C   0  0  0  0  0  0  0  0  0  0  0  0
   -0.0186    0.6730   -3.9391 H   0  0  0  0  0  0  0  0  0  0  0  0
    1.5497    1.9443   -3.2761 C   0  0  0  0  0  0  0  0  0  0  0  0
    2.3374    1.3659   -3.7348 H   0  0  0  0  0  0  0  0  0  0  0  0
    1.8180    3.0996   -2.5474 C   0  0  1  0  0  3  0  0  0  0  0  0
    5.6332    2.8099    0.6758 C   0  0  0  0  0  0  0  0  0  0  0  0
    5.8103    3.1868    1.6647 H   0  0  0  0  0  0  0  0  0  0  0  0
    5.9017    1.5234    0.1581 C   0  0  0  0  0  0  0  0  0  0  0  0
    6.4729    0.3495    0.6586 C   0  0  0  0  0  0  0  0  0  0  0  0
    6.8326    0.3076    1.6748 H   0  0  0  0  0  0  0  0  0  0  0  0
    6.5556   -0.7340   -0.1803 C   0  0  0  0  0  0  0  0  0  0  0  0
    6.9904   -1.6562    0.1745 H   0  0  0  0  0  0  0  0  0  0  0  0
    6.0855   -0.6751   -1.5005 C   0  0  0  0  0  0  0  0  0  0  0  0
    6.1715   -1.5531   -2.1230 H   0  0  0  0  0  0  0  0  0  0  0  0
    5.5209    0.4660   -2.0204 C   0  0  0  0  0  0  0  0  0  0  0  0
    5.1668    0.4970   -3.0394 H   0  0  0  0  0  0  0  0  0  0  0  0
    5.4317    1.5717   -1.1771 C   0  0  2  0  0  3  0  0  0  0  0  0
    4.3326    3.3834   -2.5501 C   0  0  0  0  0  0  0  0  0  0  0  0
    4.8884    4.2967   -2.8219 H   0  0  0  0  0  0  0  0  0  0  0  0
    4.3628    2.6466   -3.3530 H   0  0  0  0  0  0  0  0  0  0  0  0
  1  6  1  0  0  0  0
  1  4  1  0  0  0  0
  1  2  1  0  0  0  0
  3 18  1  0  0  0  0
  3 31  1  0  0  0  0
  4  3  1  0  0  0  0
  5 31  1  0  0  0  0
  6  5  1  0  0  0  0
  7  4  1  0  0  0  0
  7  9  2  0  0  0  0
  8  7  1  0  0  0  0
  9 10  1  0  0  0  0
  9 18  1  0  0  0  0
 10 12  1  0  0  0  0
 11 10  1  0  0  0  0
 12 13  1  0  0  0  0
 12 14  2  0  0  0  0
 14 15  1  0  0  0  0
 16 14  1  0  0  0  0
 16 17  1  0  0  0  0
 18 16  2  0  0  0  0
 19 21  2  0  0  0  0
 19  6  1  0  0  0  0
 20 19  1  0  0  0  0
 21 30  1  0  0  0  0
 22 21  1  0  0  0  0
 22 24  1  0  0  0  0
 23 22  1  0  0  0  0
 24 26  2  0  0  0  0
 25 24  1  0  0  0  0
 26 28  1  0  0  0  0
 26 27  1  0  0  0  0
 28 29  1  0  0  0  0
 30  5  1  0  0  0  0
 30 28  2  0  0  0  0
 31 32  1  0  0  0  0
 31 33  1  0  0  0  0
 34  1  1  0  0  0  0
 35 63  1  1  0  0  0
 35 36  1  0  0  0  0
 36 39  1  0  0  0  0
 36  1  1  0  0  0  0
 37 63  1  1  0  0  0
 37 62  1  0  0  0  0
 37 38  1  0  0  0  0
 38  1  1  0  0  0  0
 38 51  1  0  0  0  0
 39 40  1  0  0  0  0
 41 39  2  0  0  0  0
 42 41  1  0  0  0  0
 42 43  1  0  0  0  0
 44 42  2  0  0  0  0
 45 44  1  0  0  0  0
 46 48  2  0  0  0  0
 46 44  1  0  0  0  0
 47 46  1  0  0  0  0
 49 48  1  0  0  0  0
 50 48  1  6  0  0  0
 50 35  1  0  0  0  0
 50 41  1  0  0  0  0
 51 52  1  0  0  0  0
 53 54  1  0  0  0  0
 53 51  2  0  0  0  0
 54 55  1  0  0  0  0
 56 57  1  0  0  0  0
 56 54  2  0  0  0  0
 58 56  1  0  0  0  0
 59 58  1  0  0  0  0
 60 58  2  0  0  0  0
 61 60  1  0  0  0  0
 62 60  1  6  0  0  0
 62 53  1  0  0  0  0
 64 63  1  0  0  0  0
 65 63  1  0  0  0  0
M  END
$$$$
