CSD_code = KAHXEX | q = 0 | S = 0 | Stoichiometry = C28H26Br2NNiP | MND = 4
 OpenBabel04212202053D

 59 63  0  0  1  0  0  0  0  0999 V2000
   -0.8886   -3.5513    0.2607 Ni  0  0  0  0  0  0  0  0  0  0  0  0
    1.2895   -3.7241   -0.2183 Br  0  0  0  0  0  0  0  0  0  0  0  0
   -0.5824   -3.4120    2.4699 Br  0  0  0  0  0  0  0  0  0  0  0  0
   -2.9447   -4.1009    0.4974 P   0  0  0  0  0  4  0  0  0  0  0  0
   -1.4710   -3.2035   -1.6497 N   0  0  0  0  0  0  0  0  0  0  0  0
   -3.2546   -4.7167   -1.2296 C   0  0  0  0  0  0  0  0  0  0  0  0
   -2.5335   -3.7462   -2.1127 C   0  0  1  0  0  3  0  0  0  0  0  0
   -4.1515   -2.7774    0.7517 C   0  0  0  0  0  0  0  0  0  0  0  0
   -4.2856   -2.3147    2.0614 C   0  0  0  0  0  0  0  0  0  0  0  0
   -5.1167   -1.2464    2.3355 C   0  0  0  0  0  0  0  0  0  0  0  0
   -5.8078   -0.6239    1.3070 C   0  0  0  0  0  0  0  0  0  0  0  0
   -5.6607   -1.0678    0.0033 C   0  0  0  0  0  0  0  0  0  0  0  0
   -4.8300   -2.1379   -0.2804 C   0  0  0  0  0  0  0  0  0  0  0  0
   -3.5633   -5.4654    1.5188 C   0  0  0  0  0  0  0  0  0  0  0  0
   -4.9205   -5.6234    1.7795 C   0  0  0  0  0  0  0  0  0  0  0  0
   -5.3502   -6.7076    2.5213 C   0  0  0  0  0  0  0  0  0  0  0  0
   -4.4345   -7.6307    3.0026 C   0  0  0  0  0  0  0  0  0  0  0  0
   -3.0831   -7.4745    2.7427 C   0  0  0  0  0  0  0  0  0  0  0  0
   -2.6459   -6.3928    2.0006 C   0  0  0  0  0  0  0  0  0  0  0  0
   -3.1280   -3.4445   -3.4240 C   0  0  0  0  0  0  0  0  0  0  0  0
   -3.6377   -4.4852   -4.2013 C   0  0  0  0  0  0  0  0  0  0  0  0
   -4.1965   -4.2230   -5.4376 C   0  0  0  0  0  0  0  0  0  0  0  0
   -4.2737   -2.9207   -5.9041 C   0  0  0  0  0  0  0  0  0  0  0  0
   -3.7912   -1.8801   -5.1278 C   0  0  0  0  0  0  0  0  0  0  0  0
   -3.2170   -2.1362   -3.8969 C   0  0  0  0  0  0  0  0  0  0  0  0
   -0.6870   -2.3028   -2.3957 C   0  0  0  0  0  0  0  0  0  0  0  0
    0.0026   -2.7223   -3.5373 C   0  0  0  0  0  0  0  0  0  0  0  0
    0.7651   -1.7872   -4.2218 C   0  0  0  0  0  0  0  0  0  0  0  0
    0.8544   -0.4790   -3.7868 C   0  0  0  0  0  0  0  0  0  0  0  0
    0.2057   -0.0899   -2.6281 C   0  0  0  0  0  0  0  0  0  0  0  0
   -0.5597   -0.9929   -1.9113 C   0  0  0  0  0  0  0  0  0  0  0  0
   -0.0247   -4.1518   -3.9855 C   0  0  0  0  0  0  0  0  0  0  0  0
   -1.2316   -0.5995   -0.6305 C   0  0  0  0  0  0  0  0  0  0  0  0
   -2.7849   -5.7061   -1.2876 H   0  0  0  0  0  0  0  0  0  0  0  0
   -4.3140   -4.8200   -1.4777 H   0  0  0  0  0  0  0  0  0  0  0  0
   -3.7245   -2.7947    2.8529 H   0  0  0  0  0  0  0  0  0  0  0  0
   -5.2197   -0.8930    3.3501 H   0  0  0  0  0  0  0  0  0  0  0  0
   -6.4554    0.2134    1.5196 H   0  0  0  0  0  0  0  0  0  0  0  0
   -6.1911   -0.5774   -0.8001 H   0  0  0  0  0  0  0  0  0  0  0  0
   -4.7185   -2.4662   -1.3050 H   0  0  0  0  0  0  0  0  0  0  0  0
   -5.6310   -4.8966    1.4096 H   0  0  0  0  0  0  0  0  0  0  0  0
   -6.4031   -6.8314    2.7283 H   0  0  0  0  0  0  0  0  0  0  0  0
   -4.7774   -8.4717    3.5867 H   0  0  0  0  0  0  0  0  0  0  0  0
   -2.3696   -8.1895    3.1230 H   0  0  0  0  0  0  0  0  0  0  0  0
   -1.5886   -6.2546    1.8072 H   0  0  0  0  0  0  0  0  0  0  0  0
   -3.5683   -5.5042   -3.8482 H   0  0  0  0  0  0  0  0  0  0  0  0
   -4.5742   -5.0375   -6.0372 H   0  0  0  0  0  0  0  0  0  0  0  0
   -4.7124   -2.7178   -6.8692 H   0  0  0  0  0  0  0  0  0  0  0  0
   -3.8583   -0.8627   -5.4816 H   0  0  0  0  0  0  0  0  0  0  0  0
   -2.8561   -1.3164   -3.2949 H   0  0  0  0  0  0  0  0  0  0  0  0
    1.3050   -2.1002   -5.1029 H   0  0  0  0  0  0  0  0  0  0  0  0
    1.4515    0.2334   -4.3351 H   0  0  0  0  0  0  0  0  0  0  0  0
    0.3034    0.9223   -2.2649 H   0  0  0  0  0  0  0  0  0  0  0  0
    0.8495   -4.3638   -4.5952 H   0  0  0  0  0  0  0  0  0  0  0  0
   -0.9148   -4.3639   -4.5808 H   0  0  0  0  0  0  0  0  0  0  0  0
   -0.0115   -4.8236   -3.1285 H   0  0  0  0  0  0  0  0  0  0  0  0
   -0.9458    0.4062   -0.3350 H   0  0  0  0  0  0  0  0  0  0  0  0
   -2.3206   -0.6450   -0.7093 H   0  0  0  0  0  0  0  0  0  0  0  0
   -0.9218   -1.2847    0.1819 H   0  0  0  0  0  0  0  0  0  0  0  0
  1  4  1  0  0  0  0
  1  3  1  0  0  0  0
  2  1  1  0  0  0  0
  4  8  1  0  0  0  0
  4 14  1  0  0  0  0
  5  1  1  0  0  0  0
  6  4  1  0  0  0  0
  7 20  1  1  0  0  0
  7  5  1  0  0  0  0
  7  6  1  0  0  0  0
  8  9  1  0  0  0  0
  9 10  2  0  0  0  0
  9 36  1  0  0  0  0
 10 37  1  0  0  0  0
 11 38  1  0  0  0  0
 11 10  1  0  0  0  0
 12 11  2  0  0  0  0
 13 12  1  0  0  0  0
 13  8  2  0  0  0  0
 14 15  2  0  0  0  0
 14 19  1  0  0  0  0
 15 16  1  0  0  0  0
 16 42  1  0  0  0  0
 16 17  2  0  0  0  0
 17 43  1  0  0  0  0
 18 17  1  0  0  0  0
 18 44  1  0  0  0  0
 19 18  2  0  0  0  0
 21 46  1  0  0  0  0
 21 20  2  0  0  0  0
 22 21  1  0  0  0  0
 23 22  2  0  0  0  0
 23 24  1  0  0  0  0
 24 25  2  0  0  0  0
 25 20  1  0  0  0  0
 25 50  1  0  0  0  0
 26 31  1  0  0  0  0
 26  5  1  0  0  0  0
 27 26  2  0  0  0  0
 28 29  2  0  0  0  0
 28 27  1  0  0  0  0
 29 30  1  0  0  0  0
 30 53  1  0  0  0  0
 30 31  2  0  0  0  0
 31 33  1  0  0  0  0
 32 27  1  0  0  0  0
 32 56  1  0  0  0  0
 33 57  1  0  0  0  0
 33 59  1  0  0  0  0
 34  6  1  0  0  0  0
 35  6  1  0  0  0  0
 39 12  1  0  0  0  0
 40 13  1  0  0  0  0
 41 15  1  0  0  0  0
 45 19  1  0  0  0  0
 47 22  1  0  0  0  0
 48 23  1  0  0  0  0
 49 24  1  0  0  0  0
 51 28  1  0  0  0  0
 52 29  1  0  0  0  0
 54 32  1  0  0  0  0
 55 32  1  0  0  0  0
 58 33  1  0  0  0  0
M  END
$$$$
