CSD_code = KAJGOS | q = 0 | S = 0 | Stoichiometry = C13H14Cl2N2Pd | MND = 4
 OpenBabel04212202053D

 32 34  0  0  1  0  0  0  0  0999 V2000
    4.8418    6.9867    2.1235 Pd  0  0  1  0  0  0  0  0  0  0  0  0
    5.7767    6.4324    0.0724 Cl  0  0  0  0  0  0  0  0  0  0  0  0
    1.6048    7.0882    6.9005 Cl  0  0  0  0  0  0  0  0  0  0  0  0
    5.5343    8.8942    1.9398 N   0  0  0  0  0  4  0  0  0  0  0  0
    6.3922    8.9201    1.3812 H   0  0  0  0  0  0  0  0  0  0  0  0
    4.8039    9.3775    1.4028 H   0  0  0  0  0  0  0  0  0  0  0  0
    4.1761    5.1753    2.2815 N   0  0  0  0  0  0  0  0  0  0  0  0
    5.6277   11.0723    3.0942 C   0  0  0  0  0  0  0  0  0  0  0  0
    6.3108   11.4011    2.3124 H   0  0  0  0  0  0  0  0  0  0  0  0
    5.9089   11.5743    4.0148 H   0  0  0  0  0  0  0  0  0  0  0  0
    4.6161   11.3766    2.8309 H   0  0  0  0  0  0  0  0  0  0  0  0
    5.6994    9.5535    3.2543 C   0  0  1  0  0  0  0  0  0  0  0  0
    6.6937    9.2769    3.6350 H   0  0  0  0  0  0  0  0  0  0  0  0
    4.6510    8.9757    4.1922 C   0  0  0  0  0  0  0  0  0  0  0  0
    4.2425    9.6304    5.3438 C   0  0  0  0  0  0  0  0  0  0  0  0
    4.6529   10.5946    5.6043 H   0  0  0  0  0  0  0  0  0  0  0  0
    3.3035    9.0560    6.1838 C   0  0  0  0  0  0  0  0  0  0  0  0
    2.9827    9.5630    7.0800 H   0  0  0  0  0  0  0  0  0  0  0  0
    2.7825    7.8183    5.8551 C   0  0  0  0  0  0  0  0  0  0  0  0
    3.1849    7.1476    4.7104 C   0  0  0  0  0  0  0  0  0  0  0  0
    2.7520    6.1787    4.4946 H   0  0  0  0  0  0  0  0  0  0  0  0
    4.1316    7.7101    3.8586 C   0  0  0  0  0  0  0  0  0  0  0  0
    3.2290    4.7710    1.4330 C   0  0  0  0  0  3  0  0  0  0  0  0
    2.7365    5.5489    0.8518 H   0  0  0  0  0  0  0  0  0  0  0  0
    2.8932    3.4378    1.2814 C   0  0  0  0  0  0  0  0  0  0  0  0
    2.1250    3.1515    0.5807 H   0  0  0  0  0  0  0  0  0  0  0  0
    3.5662    2.4850    2.0321 C   0  0  0  0  0  0  0  0  0  0  0  0
    3.3327    1.4364    1.9306 H   0  0  0  0  0  0  0  0  0  0  0  0
    4.5483    2.9113    2.9137 C   0  0  0  0  0  0  0  0  0  0  0  0
    5.0988    2.2055    3.5152 H   0  0  0  0  0  0  0  0  0  0  0  0
    4.8218    4.2642    3.0110 C   0  0  0  0  0  0  0  0  0  0  0  0
    5.5812    4.6412    3.6933 H   0  0  0  0  0  0  0  0  0  0  0  0
  1  2  1  1  0  0  0
  1  7  1  0  0  0  0
  1 22  1  0  0  0  0
  4  1  1  0  0  0  0
  4 12  1  0  0  0  0
  5  4  1  0  0  0  0
  6  4  1  0  0  0  0
  7 31  1  0  0  0  0
  8 12  1  0  0  0  0
  8 10  1  0  0  0  0
  9  8  1  0  0  0  0
 11  8  1  0  0  0  0
 12 13  1  1  0  0  0
 12 14  1  0  0  0  0
 14 15  1  0  0  0  0
 15 16  1  0  0  0  0
 15 17  2  0  0  0  0
 17 18  1  0  0  0  0
 19 17  1  0  0  0  0
 19  3  1  0  0  0  0
 20 19  2  0  0  0  0
 21 20  1  0  0  0  0
 22 14  2  0  0  0  0
 22 20  1  0  0  0  0
 23  7  1  0  0  0  0
 24 23  1  0  0  0  0
 25 23  1  0  0  0  0
 25 27  2  0  0  0  0
 26 25  1  0  0  0  0
 27 29  1  0  0  0  0
 28 27  1  0  0  0  0
 29 31  2  0  0  0  0
 29 30  1  0  0  0  0
 31 32  1  0  0  0  0
M  END
$$$$
