CSD_code = KAJGEI | q = 0 | S = 0 | Stoichiometry = C13H14BrClN2Pd | MND = 4
 OpenBabel04212202053D

 32 34  0  0  1  0  0  0  0  0999 V2000
   -0.3240    4.6604   24.0814 Pd  0  0  2  0  0  0  0  0  0  0  0  0
   -1.2815    5.2676   26.1026 Cl  0  0  0  0  0  0  0  0  0  0  0  0
    3.0258    4.5445   19.1985 Br  0  0  0  0  0  0  0  0  0  0  0  0
   -1.0099    2.7552   24.3129 N   0  0  0  0  0  4  0  0  0  0  0  0
   -0.2886    2.2969   24.8833 H   0  0  0  0  0  0  0  0  0  0  0  0
   -1.8785    2.7451   24.8551 H   0  0  0  0  0  0  0  0  0  0  0  0
    0.3429    6.4676   23.8791 N   0  0  0  0  0  0  0  0  0  0  0  0
   -1.0379    0.5357   23.2361 C   0  0  0  0  0  0  0  0  0  0  0  0
   -1.7220    0.2182   24.0218 H   0  0  0  0  0  0  0  0  0  0  0  0
   -0.0223    0.2662   23.5218 H   0  0  0  0  0  0  0  0  0  0  0  0
   -1.2957   -0.0065   22.3315 H   0  0  0  0  0  0  0  0  0  0  0  0
   -1.1452    2.0457   23.0212 C   0  0  2  0  0  0  0  0  0  0  0  0
   -2.1418    2.2836   22.6206 H   0  0  0  0  0  0  0  0  0  0  0  0
   -0.1032    2.6133   22.0703 C   0  0  0  0  0  0  0  0  0  0  0  0
    0.3105    1.9334   20.9348 C   0  0  0  0  0  0  0  0  0  0  0  0
   -0.0881    0.9580   20.6989 H   0  0  0  0  0  0  0  0  0  0  0  0
    1.2399    2.4984   20.0780 C   0  0  0  0  0  0  0  0  0  0  0  0
    1.5644    1.9729   19.1933 H   0  0  0  0  0  0  0  0  0  0  0  0
    1.7419    3.7495   20.3783 C   0  0  0  0  0  0  0  0  0  0  0  0
    1.3378    4.4470   21.5040 C   0  0  0  0  0  0  0  0  0  0  0  0
    1.7588    5.4269   21.6942 H   0  0  0  0  0  0  0  0  0  0  0  0
    0.4003    3.8937   22.3721 C   0  0  0  0  0  0  0  0  0  0  0  0
    1.2985    6.8891   24.7095 C   0  0  0  0  0  3  0  0  0  0  0  0
    1.7853    6.1253   25.3142 H   0  0  0  0  0  0  0  0  0  0  0  0
    1.6514    8.2224   24.8133 C   0  0  0  0  0  0  0  0  0  0  0  0
    2.4269    8.5230   25.4997 H   0  0  0  0  0  0  0  0  0  0  0  0
    0.9869    9.1569   24.0326 C   0  0  0  0  0  0  0  0  0  0  0  0
    1.2345   10.2053   24.0958 H   0  0  0  0  0  0  0  0  0  0  0  0
   -0.0063    8.7131   23.1722 C   0  0  0  0  0  0  0  0  0  0  0  0
   -0.5516    9.4045   22.5496 H   0  0  0  0  0  0  0  0  0  0  0  0
   -0.2970    7.3612   23.1233 C   0  0  0  0  0  0  0  0  0  0  0  0
   -1.0659    6.9709   22.4592 H   0  0  0  0  0  0  0  0  0  0  0  0
  1  4  1  0  0  0  0
  1  2  1  6  0  0  0
  3 19  1  0  0  0  0
  4  6  1  0  0  0  0
  4  5  1  0  0  0  0
  7  1  1  0  0  0  0
  7 23  1  0  0  0  0
  8 10  1  0  0  0  0
  8  9  1  0  0  0  0
 11  8  1  0  0  0  0
 12 13  1  6  0  0  0
 12  8  1  0  0  0  0
 12  4  1  0  0  0  0
 14 22  1  0  0  0  0
 14 12  1  0  0  0  0
 15 14  2  0  0  0  0
 16 15  1  0  0  0  0
 17 19  2  0  0  0  0
 17 15  1  0  0  0  0
 18 17  1  0  0  0  0
 19 20  1  0  0  0  0
 20 21  1  0  0  0  0
 20 22  2  0  0  0  0
 22  1  1  0  0  0  0
 23 25  1  0  0  0  0
 23 24  1  0  0  0  0
 25 26  1  0  0  0  0
 27 28  1  0  0  0  0
 27 25  2  0  0  0  0
 29 27  1  0  0  0  0
 30 29  1  0  0  0  0
 31 29  2  0  0  0  0
 31  7  1  0  0  0  0
 32 31  1  0  0  0  0
M  END
$$$$
