CSD_code = KAJGIM | q = 0 | S = 0 | Stoichiometry = C13H14ClFN2Pd | MND = 4
 OpenBabel04212202053D

 32 34  0  0  1  0  0  0  0  0999 V2000
    2.1691    6.8907    2.1162 Pd  0  0  1  0  0  0  0  0  0  0  0  0
    3.1112    6.3904    0.0531 Cl  0  0  0  0  0  0  0  0  0  0  0  0
    2.8340    8.8107    1.9703 N   0  0  0  0  0  4  0  0  0  0  0  0
    3.6825    8.8601    1.3990 H   0  0  0  0  0  0  0  0  0  0  0  0
    2.0914    9.3049    1.4609 H   0  0  0  0  0  0  0  0  0  0  0  0
    1.5314    5.0661    2.2398 N   0  0  0  0  0  0  0  0  0  0  0  0
    2.9528   10.9533    3.1875 C   0  0  0  0  0  0  0  0  0  0  0  0
    3.6278   11.3004    2.4063 H   0  0  0  0  0  0  0  0  0  0  0  0
    3.2504   11.4261    4.1184 H   0  0  0  0  0  0  0  0  0  0  0  0
    1.9401   11.2724    2.9469 H   0  0  0  0  0  0  0  0  0  0  0  0
    3.0163    9.4300    3.3017 C   0  0  1  0  0  0  0  0  0  0  0  0
    4.0130    9.1362    3.6631 H   0  0  0  0  0  0  0  0  0  0  0  0
    1.9734    8.8288    4.2315 C   0  0  0  0  0  0  0  0  0  0  0  0
    1.5696    9.4588    5.3988 C   0  0  0  0  0  0  0  0  0  0  0  0
    1.9805   10.4178    5.6767 H   0  0  0  0  0  0  0  0  0  0  0  0
    0.6354    8.8652    6.2308 C   0  0  0  0  0  0  0  0  0  0  0  0
    0.3092    9.3406    7.1420 H   0  0  0  0  0  0  0  0  0  0  0  0
    0.1231    7.6365    5.8669 C   0  0  0  0  0  0  0  0  0  0  0  0
    0.5152    6.9852    4.7104 C   0  0  0  0  0  0  0  0  0  0  0  0
    0.0757    6.0213    4.4862 H   0  0  0  0  0  0  0  0  0  0  0  0
    1.4574    7.5692    3.8682 C   0  0  0  0  0  0  0  0  0  0  0  0
    2.1826    4.1527    2.9616 C   0  0  0  0  0  3  0  0  0  0  0  0
    2.9276    4.5295    3.6595 H   0  0  0  0  0  0  0  0  0  0  0  0
    1.9317    2.7974    2.8383 C   0  0  0  0  0  0  0  0  0  0  0  0
    2.4861    2.0902    3.4346 H   0  0  0  0  0  0  0  0  0  0  0  0
    0.9672    2.3708    1.9378 C   0  0  0  0  0  0  0  0  0  0  0  0
    0.7518    1.3204    1.8157 H   0  0  0  0  0  0  0  0  0  0  0  0
    0.2890    3.3255    1.1943 C   0  0  0  0  0  0  0  0  0  0  0  0
   -0.4653    3.0391    0.4788 H   0  0  0  0  0  0  0  0  0  0  0  0
    0.6017    4.6610    1.3724 C   0  0  0  0  0  0  0  0  0  0  0  0
    0.1043    5.4406    0.7976 H   0  0  0  0  0  0  0  0  0  0  0  0
   -0.7927    7.0438    6.6725 F   0  0  0  0  0  0  0  0  0  0  0  0
  1  2  1  1  0  0  0
  1  6  1  0  0  0  0
  1 21  1  0  0  0  0
  3  1  1  0  0  0  0
  3 11  1  0  0  0  0
  4  3  1  0  0  0  0
  5  3  1  0  0  0  0
  6 22  1  0  0  0  0
  7 11  1  0  0  0  0
  7  9  1  0  0  0  0
  8  7  1  0  0  0  0
 10  7  1  0  0  0  0
 11 12  1  1  0  0  0
 11 13  1  0  0  0  0
 13 14  1  0  0  0  0
 14 15  1  0  0  0  0
 14 16  2  0  0  0  0
 16 17  1  0  0  0  0
 18 16  1  0  0  0  0
 18 32  1  0  0  0  0
 19 18  2  0  0  0  0
 20 19  1  0  0  0  0
 21 13  2  0  0  0  0
 21 19  1  0  0  0  0
 22 23  1  0  0  0  0
 24 22  1  0  0  0  0
 24 25  1  0  0  0  0
 26 24  2  0  0  0  0
 27 26  1  0  0  0  0
 28 30  2  0  0  0  0
 28 26  1  0  0  0  0
 29 28  1  0  0  0  0
 30  6  1  0  0  0  0
 31 30  1  0  0  0  0
M  END
$$$$
