CSD_code = KAJMEP | q = 0 | S = 0 | Stoichiometry = C11H12ClN3O2PtS | MND = 4
 OpenBabel04212202053D

 31 33  0  0  0  0  0  0  0  0999 V2000
    5.9672    2.9711    2.1845 Pt  0  0  2  0  0  0  0  0  0  0  0  0
    4.7110    1.2187    1.4136 Cl  0  0  0  0  0  0  0  0  0  0  0  0
    7.5471    1.3857    2.4332 S   0  0  0  0  0  0  0  0  0  0  0  0
    7.5103    6.6900    2.3457 O   0  0  0  0  0  0  0  0  0  0  0  0
    8.8143    1.8586    2.9545 O   0  0  0  0  0  1  0  0  0  0  0  0
    4.7087    4.5472    1.9851 N   0  0  0  0  0  0  0  0  0  0  0  0
    3.4926    6.9421    1.1987 N   0  0  0  0  0  0  0  0  0  0  0  0
    7.2012    4.4414    2.6685 N   0  0  0  0  0  0  0  0  0  0  0  0
    8.1570    4.3344    2.9905 H   0  0  0  0  0  0  0  0  0  0  0  0
    5.3879    5.6869    1.8971 C   0  0  0  0  0  0  0  0  0  0  0  0
    4.7555    6.8847    1.5060 C   0  0  0  0  0  0  0  0  0  0  0  0
    5.3503    7.7840    1.4275 H   0  0  0  0  0  0  0  0  0  0  0  0
    2.7619    5.8256    1.3764 C   0  0  0  0  0  0  0  0  0  0  0  0
    1.3739    5.8717    1.1414 C   0  0  0  0  0  3  0  0  0  0  0  0
    0.9565    6.8051    0.7996 H   0  0  0  0  0  0  0  0  0  0  0  0
    0.6006    4.7673    1.3701 C   0  0  0  0  0  0  0  0  0  0  0  0
   -0.4637    4.8037    1.1938 H   0  0  0  0  0  0  0  0  0  0  0  0
    1.1785    3.5847    1.8583 C   0  0  0  0  0  0  0  0  0  0  0  0
    0.5482    2.7341    2.0673 H   0  0  0  0  0  0  0  0  0  0  0  0
    2.5271    3.4976    2.0788 C   0  0  0  0  0  0  0  0  0  0  0  0
    2.9710    2.5925    2.4646 H   0  0  0  0  0  0  0  0  0  0  0  0
    3.3586    4.5998    1.8117 C   0  0  0  0  0  0  0  0  0  0  0  0
    6.8427    5.6693    2.3098 C   0  0  0  0  0  0  0  0  0  0  0  0
    7.0063    0.0094    3.4920 C   0  0  0  0  0  0  0  0  0  0  0  0
    7.8163   -0.7075    3.5609 H   0  0  0  0  0  0  0  0  0  0  0  0
    6.1164   -0.4272    3.0543 H   0  0  0  0  0  0  0  0  0  0  0  0
    6.7860    0.4177    4.4732 H   0  0  0  0  0  0  0  0  0  0  0  0
    7.9054    0.4559    0.9116 C   0  0  0  0  0  0  0  0  0  0  0  0
    8.2871    1.1585    0.1777 H   0  0  0  0  0  0  0  0  0  0  0  0
    6.9857    0.0022    0.5616 H   0  0  0  0  0  0  0  0  0  0  0  0
    8.6593   -0.2887    1.1394 H   0  0  0  0  0  0  0  0  0  0  0  0
  1  2  1  6  0  0  0
  1  3  1  0  0  0  0
  1  8  1  0  0  0  0
  3  5  1  0  0  0  0
  3 24  1  0  0  0  0
  6  1  1  0  0  0  0
  7 13  2  0  0  0  0
  7 11  1  0  0  0  0
  8  9  1  0  0  0  0
 10  6  1  0  0  0  0
 10 23  1  0  0  0  0
 11 10  2  0  0  0  0
 12 11  1  0  0  0  0
 13 22  1  0  0  0  0
 14 16  1  0  0  0  0
 14 13  1  0  0  0  0
 15 14  1  0  0  0  0
 16 18  2  0  0  0  0
 17 16  1  0  0  0  0
 18 19  1  0  0  0  0
 18 20  1  0  0  0  0
 20 21  1  0  0  0  0
 22  6  1  0  0  0  0
 22 20  2  0  0  0  0
 23  4  2  0  0  0  0
 23  8  1  0  0  0  0
 24 25  1  0  0  0  0
 24 27  1  0  0  0  0
 26 24  1  0  0  0  0
 28 31  1  0  0  0  0
 28  3  1  0  0  0  0
 29 28  1  0  0  0  0
 30 28  1  0  0  0  0
M  END
$$$$
