CSD_code = KAJYOK | q = 0 | S = 0 | Stoichiometry = C26H26Cl2SiZr | MND = 12
 OpenBabel04212202053D

 56 60  0  0  1  0  0  0  0  0999 V2000
    3.9429    2.8626    9.0882 Zr  0  0  0  0  0  0  0  0  0  0  0  0
    2.7649    4.7860    8.4511 Cl  0  0  0  0  0  0  0  0  0  0  0  0
    2.1111    1.9682   10.2340 Cl  0  0  0  0  0  0  0  0  0  0  0  0
    7.1020    2.4852    8.1001 Si  0  0  0  0  0  0  0  0  0  0  0  0
    6.3115    3.1396    9.6933 C   0  0  1  0  0  3  0  0  0  0  0  0
    5.6814    4.4149    9.7480 C   0  0  2  0  0  0  0  0  0  0  0  0
    4.7629    4.4321   10.8282 C   0  0  2  0  0  3  0  0  0  0  0  0
    4.7983    3.1422   11.4296 C   0  0  0  0  0  0  0  0  0  0  0  0
    5.7416    2.3499   10.7401 C   0  0  0  0  0  0  0  0  0  0  0  0
    5.4429    1.9044    7.3792 C   0  0  1  0  0  3  0  0  0  0  0  0
    4.6134    0.8519    7.8857 C   0  0  2  0  0  0  0  0  0  0  0  0
    3.2773    1.0960    7.4569 C   0  0  0  0  0  0  0  0  0  0  0  0
    3.2598    2.2887    6.7033 C   0  0  0  0  0  0  0  0  0  0  0  0
    4.5762    2.8035    6.6941 C   0  0  0  0  0  3  0  0  0  0  0  0
    7.7729    3.9321    7.0514 C   0  0  0  0  0  0  0  0  0  0  0  0
    8.5181    1.2323    8.3292 C   0  0  0  0  0  0  0  0  0  0  0  0
    3.9109    5.5496   11.2395 C   0  0  0  0  0  0  0  0  0  0  0  0
    4.3486    6.8692   11.1343 C   0  0  0  0  0  0  0  0  0  0  0  0
    3.5232    7.9131   11.5081 C   0  0  0  0  0  0  0  0  0  0  0  0
    2.2509    7.6576   11.9906 C   0  0  0  0  0  0  0  0  0  0  0  0
    1.8051    6.3497   12.0976 C   0  0  0  0  0  0  0  0  0  0  0  0
    2.6249    5.3013   11.7270 C   0  0  0  0  0  0  0  0  0  0  0  0
    6.2434    1.0278   11.2456 C   0  0  0  0  0  0  0  0  0  0  0  0
    5.0192   -0.3853    8.5552 C   0  0  0  0  0  0  0  0  0  0  0  0
    6.1205   -1.1155    8.1087 C   0  0  0  0  0  0  0  0  0  0  0  0
    6.4666   -2.3061    8.7212 C   0  0  0  0  0  0  0  0  0  0  0  0
    5.7121   -2.7933    9.7756 C   0  0  0  0  0  0  0  0  0  0  0  0
    4.6033   -2.0856   10.2134 C   0  0  0  0  0  0  0  0  0  0  0  0
    4.2554   -0.8907    9.6116 C   0  0  0  0  0  0  0  0  0  0  0  0
    2.0672    2.8466    5.9851 C   0  0  0  0  0  0  0  0  0  0  0  0
    5.9162    5.2640    9.1152 H   0  0  0  0  0  0  0  0  0  0  0  0
    4.3022    2.8637   12.3528 H   0  0  0  0  0  0  0  0  0  0  0  0
    2.4493    0.4030    7.5609 H   0  0  0  0  0  0  0  0  0  0  0  0
    4.8896    3.6855    6.1471 H   0  0  0  0  0  0  0  0  0  0  0  0
    7.0465    4.7295    6.9311 H   0  0  0  0  0  0  0  0  0  0  0  0
    8.0543    3.5907    6.0609 H   0  0  0  0  0  0  0  0  0  0  0  0
    8.6576    4.3589    7.5115 H   0  0  0  0  0  0  0  0  0  0  0  0
    8.2340    0.3494    8.8885 H   0  0  0  0  0  0  0  0  0  0  0  0
    9.3408    1.7063    8.8540 H   0  0  0  0  0  0  0  0  0  0  0  0
    8.8914    0.9076    7.3639 H   0  0  0  0  0  0  0  0  0  0  0  0
    5.3436    7.0718   10.7647 H   0  0  0  0  0  0  0  0  0  0  0  0
    3.8733    8.9315   11.4201 H   0  0  0  0  0  0  0  0  0  0  0  0
    1.6055    8.4749   12.2765 H   0  0  0  0  0  0  0  0  0  0  0  0
    0.8086    6.1477   12.4623 H   0  0  0  0  0  0  0  0  0  0  0  0
    2.2596    4.2818   11.7862 H   0  0  0  0  0  0  0  0  0  0  0  0
    6.6408    0.4069   10.4474 H   0  0  0  0  0  0  0  0  0  0  0  0
    5.4480    0.4822   11.7528 H   0  0  0  0  0  0  0  0  0  0  0  0
    7.0462    1.1963   11.9674 H   0  0  0  0  0  0  0  0  0  0  0  0
    6.6855   -0.7491    7.2649 H   0  0  0  0  0  0  0  0  0  0  0  0
    7.3223   -2.8624    8.3671 H   0  0  0  0  0  0  0  0  0  0  0  0
    5.9817   -3.7251   10.2495 H   0  0  0  0  0  0  0  0  0  0  0  0
    4.0088   -2.4677   11.0302 H   0  0  0  0  0  0  0  0  0  0  0  0
    3.3962   -0.3298    9.9661 H   0  0  0  0  0  0  0  0  0  0  0  0
    1.1769    2.7815    6.6136 H   0  0  0  0  0  0  0  0  0  0  0  0
    1.8792    2.2825    5.0690 H   0  0  0  0  0  0  0  0  0  0  0  0
    2.2307    3.8902    5.7219 H   0  0  0  0  0  0  0  0  0  0  0  0
  1  6  1  0  0  0  0
  1  3  1  0  0  0  0
  2  1  1  0  0  0  0
  4 16  1  0  0  0  0
  4  5  1  0  0  0  0
  5  6  1  0  0  0  0
  5  9  1  6  0  0  0
  6 31  1  6  0  0  0
  6  7  1  0  0  0  0
  7 17  1  6  0  0  0
  7  8  1  0  0  0  0
  8 32  1  0  0  0  0
  9 23  1  0  0  0  0
  9  8  2  0  0  0  0
 10 14  1  1  0  0  0
 10 11  1  0  0  0  0
 10  4  1  0  0  0  0
 11 24  1  1  0  0  0
 11  1  1  0  0  0  0
 12 33  1  0  0  0  0
 12 11  1  0  0  0  0
 13 12  2  0  0  0  0
 14 13  1  0  0  0  0
 15 37  1  0  0  0  0
 15  4  1  0  0  0  0
 16 39  1  0  0  0  0
 16 38  1  0  0  0  0
 17 22  1  0  0  0  0
 18 17  2  0  0  0  0
 18 19  1  0  0  0  0
 19 20  2  0  0  0  0
 20 21  1  0  0  0  0
 20 43  1  0  0  0  0
 21 44  1  0  0  0  0
 22 45  1  0  0  0  0
 22 21  2  0  0  0  0
 23 47  1  0  0  0  0
 23 48  1  0  0  0  0
 24 29  1  0  0  0  0
 25 24  2  0  0  0  0
 25 26  1  0  0  0  0
 26 27  2  0  0  0  0
 27 28  1  0  0  0  0
 27 51  1  0  0  0  0
 28 52  1  0  0  0  0
 29 53  1  0  0  0  0
 29 28  2  0  0  0  0
 30 54  1  0  0  0  0
 30 13  1  0  0  0  0
 34 14  1  0  0  0  0
 35 15  1  0  0  0  0
 36 15  1  0  0  0  0
 40 16  1  0  0  0  0
 41 18  1  0  0  0  0
 42 19  1  0  0  0  0
 46 23  1  0  0  0  0
 49 25  1  0  0  0  0
 50 26  1  0  0  0  0
 55 30  1  0  0  0  0
 56 30  1  0  0  0  0
M  END
$$$$
