CSD_code = KAKCIK | q = 0 | S = 0 | Stoichiometry = C27H28AsI2PPd | MND = 4
 OpenBabel04212202053D

 60 64  0  0  1  0  0  0  0  0999 V2000
    2.6864    9.3390   18.5607 Pd  0  0  0  0  0  0  0  0  0  0  0  0
    2.7307   10.5737   16.5894 As  0  0  1  0  0  0  0  0  0  0  0  0
    2.0612   11.6571   19.5579 I   0  0  0  0  0  0  0  0  0  0  0  0
    2.7353    7.9022   20.6964 I   0  0  0  0  0  0  0  0  0  0  0  0
    2.9805    7.6168   17.1819 P   0  0  0  0  0  4  0  0  0  0  0  0
    3.2812   12.3652   16.1025 C   0  0  0  0  0  0  0  0  0  0  0  0
    4.5910   12.5748   15.6843 C   0  0  0  0  0  0  0  0  0  0  0  0
    5.2810   11.7332   15.6537 H   0  0  0  0  0  0  0  0  0  0  0  0
    5.0033   13.8443   15.3182 C   0  0  0  0  0  0  0  0  0  0  0  0
    6.0197   14.0095   14.9915 H   0  0  0  0  0  0  0  0  0  0  0  0
    4.1128   14.9037   15.3808 C   0  0  0  0  0  0  0  0  0  0  0  0
    4.4374   15.8945   15.1002 H   0  0  0  0  0  0  0  0  0  0  0  0
    2.8118   14.7005   15.8124 C   0  0  0  0  0  0  0  0  0  0  0  0
    2.1254   15.5319   15.8712 H   0  0  0  0  0  0  0  0  0  0  0  0
    2.3928   13.4331   16.1775 C   0  0  0  0  0  0  0  0  0  0  0  0
    1.3816   13.2630   16.5389 H   0  0  0  0  0  0  0  0  0  0  0  0
    1.0095   10.2901   15.6581 C   0  0  1  0  0  0  0  0  0  0  0  0
    0.1144   10.8049   16.0246 H   0  0  0  0  0  0  0  0  0  0  0  0
    1.3720   10.6034   14.2296 C   0  0  0  0  0  0  0  0  0  0  0  0
    0.4019   11.3402   13.3685 C   0  0  0  0  0  0  0  0  0  0  0  0
    0.7940   11.4945   12.3672 H   0  0  0  0  0  0  0  0  0  0  0  0
    0.1838   12.3134   13.8101 H   0  0  0  0  0  0  0  0  0  0  0  0
   -0.5372   10.7909   13.2950 H   0  0  0  0  0  0  0  0  0  0  0  0
    2.5563   10.0721   13.9048 C   0  0  0  0  0  0  0  0  0  0  0  0
    3.2468   10.0523   12.5824 C   0  0  0  0  0  0  0  0  0  0  0  0
    3.3510    9.0255   12.2275 H   0  0  0  0  0  0  0  0  0  0  0  0
    4.2482   10.4746   12.6765 H   0  0  0  0  0  0  0  0  0  0  0  0
    2.6994   10.6221   11.8370 H   0  0  0  0  0  0  0  0  0  0  0  0
    3.1955    9.3805   15.0751 C   0  0  2  0  0  0  0  0  0  0  0  0
    4.2369    9.0914   14.8996 H   0  0  0  0  0  0  0  0  0  0  0  0
    2.3255    8.1966   15.5364 C   0  0  2  0  0  0  0  0  0  0  0  0
    2.3151    7.3719   14.8121 H   0  0  0  0  0  0  0  0  0  0  0  0
    0.9029    8.7537   15.7997 C   0  0  2  0  0  0  0  0  0  0  0  0
    0.5992    8.5349   16.8461 H   0  0  0  0  0  0  0  0  0  0  0  0
   -0.1423    8.1360   14.8820 C   0  0  0  0  0  0  0  0  0  0  0  0
    0.1243    8.2926   13.8380 H   0  0  0  0  0  0  0  0  0  0  0  0
   -1.1193    8.5808   15.0637 H   0  0  0  0  0  0  0  0  0  0  0  0
   -0.2160    7.0646   15.0662 H   0  0  0  0  0  0  0  0  0  0  0  0
    2.1793    6.0160   17.4663 C   0  0  0  0  0  0  0  0  0  0  0  0
    0.9416    6.0362   18.1067 C   0  0  0  0  0  0  0  0  0  0  0  0
    0.5232    6.9770   18.4538 H   0  0  0  0  0  0  0  0  0  0  0  0
    0.2653    4.8562   18.3464 C   0  0  0  0  0  0  0  0  0  0  0  0
   -0.6897    4.8770   18.8488 H   0  0  0  0  0  0  0  0  0  0  0  0
    0.8267    3.6497   17.9608 C   0  0  0  0  0  0  0  0  0  0  0  0
    0.3039    2.7255   18.1557 H   0  0  0  0  0  0  0  0  0  0  0  0
    2.0687    3.6245   17.3481 C   0  0  0  0  0  0  0  0  0  0  0  0
    2.5159    2.6818   17.0693 H   0  0  0  0  0  0  0  0  0  0  0  0
    2.7506    4.8025   17.1013 C   0  0  0  0  0  0  0  0  0  0  0  0
    3.7310    4.7733   16.6491 H   0  0  0  0  0  0  0  0  0  0  0  0
    4.7504    7.3589   16.8948 C   0  0  0  0  0  0  0  0  0  0  0  0
    5.2662    6.6489   15.8129 C   0  0  0  0  0  0  0  0  0  0  0  0
    4.5995    6.1959   15.0907 H   0  0  0  0  0  0  0  0  0  0  0  0
    6.6355    6.5439   15.6543 C   0  0  0  0  0  0  0  0  0  0  0  0
    7.0368    5.9898   14.8182 H   0  0  0  0  0  0  0  0  0  0  0  0
    7.4925    7.1507   16.5602 C   0  0  0  0  0  0  0  0  0  0  0  0
    8.5605    7.0605   16.4303 H   0  0  0  0  0  0  0  0  0  0  0  0
    6.9845    7.8810   17.6221 C   0  0  0  0  0  0  0  0  0  0  0  0
    7.6521    8.3649   18.3189 H   0  0  0  0  0  0  0  0  0  0  0  0
    5.6155    7.9899   17.7870 C   0  0  0  0  0  0  0  0  0  0  0  0
    5.2087    8.5703   18.6247 H   0  0  0  0  0  0  0  0  0  0  0  0
  1  3  1  0  0  0  0
  1  4  1  0  0  0  0
  2  6  1  6  0  0  0
  5 39  1  0  0  0  0
  5  1  1  0  0  0  0
  6 15  1  0  0  0  0
  7  6  2  0  0  0  0
  8  7  1  0  0  0  0
  9 11  2  0  0  0  0
  9  7  1  0  0  0  0
 10  9  1  0  0  0  0
 11 13  1  0  0  0  0
 12 11  1  0  0  0  0
 13 14  1  0  0  0  0
 13 15  2  0  0  0  0
 15 16  1  0  0  0  0
 17 33  1  0  0  0  0
 17 18  1  1  0  0  0
 17  2  1  0  0  0  0
 19 17  1  0  0  0  0
 20 22  1  0  0  0  0
 20 19  1  0  0  0  0
 21 20  1  0  0  0  0
 23 20  1  0  0  0  0
 24 19  2  0  0  0  0
 24 29  1  0  0  0  0
 25 27  1  0  0  0  0
 25 24  1  0  0  0  0
 26 25  1  0  0  0  0
 28 25  1  0  0  0  0
 29 30  1  6  0  0  0
 29 31  1  0  0  0  0
 29  2  1  0  0  0  0
 31 32  1  6  0  0  0
 31 33  1  0  0  0  0
 31  5  1  0  0  0  0
 33 34  1  1  0  0  0
 35 37  1  0  0  0  0
 35 38  1  0  0  0  0
 35 33  1  0  0  0  0
 36 35  1  0  0  0  0
 39 40  1  0  0  0  0
 40 42  2  0  0  0  0
 40 41  1  0  0  0  0
 42 43  1  0  0  0  0
 44 45  1  0  0  0  0
 44 42  1  0  0  0  0
 46 44  2  0  0  0  0
 47 46  1  0  0  0  0
 48 46  1  0  0  0  0
 48 39  2  0  0  0  0
 49 48  1  0  0  0  0
 50  5  1  0  0  0  0
 50 59  1  0  0  0  0
 51 50  2  0  0  0  0
 52 51  1  0  0  0  0
 53 51  1  0  0  0  0
 53 55  2  0  0  0  0
 54 53  1  0  0  0  0
 55 57  1  0  0  0  0
 56 55  1  0  0  0  0
 57 59  2  0  0  0  0
 57 58  1  0  0  0  0
 59 60  1  0  0  0  0
M  END
$$$$
