CSD_code = KAKSUM | q = 0 | S = 0 | Stoichiometry = C20H28ClN2OPRu | MND = 6
 OpenBabel04212202053D

 54 57  0  0  1  0  0  0  0  0999 V2000
    2.1299    5.3858    3.1221 Ru  0  0  0  0  0  0  0  0  0  0  0  0
    3.5105    4.7525    2.9422 H   0  0  0  0  0  0  0  0  0  0  0  0
   -0.0938    6.2828    3.0644 Cl  0  0  0  0  0  0  0  0  0  0  0  0
    2.9806    6.7819    4.7954 P   0  0  0  0  0  4  0  0  0  0  0  0
    1.5131    4.6623    1.3814 N   0  0  0  0  0  0  0  0  0  0  0  0
    2.6641    6.8668    1.9466 N   0  0  0  0  0  0  0  0  0  0  0  0
    0.9673    3.4665    1.1544 C   0  0  0  0  0  3  0  0  0  0  0  0
    1.0603    2.7383    1.9515 H   0  0  0  0  0  0  0  0  0  0  0  0
    0.3085    3.1472   -0.0158 C   0  0  0  0  0  0  0  0  0  0  0  0
   -0.1241    2.1673   -0.1378 H   0  0  0  0  0  0  0  0  0  0  0  0
    0.2011    4.1085   -1.0146 C   0  0  0  0  0  0  0  0  0  0  0  0
   -0.3218    3.8976   -1.9343 H   0  0  0  0  0  0  0  0  0  0  0  0
    0.7799    5.3430   -0.7994 C   0  0  0  0  0  0  0  0  0  0  0  0
    0.7142    6.1139   -1.5502 H   0  0  0  0  0  0  0  0  0  0  0  0
    1.4339    5.5989    0.4048 C   0  0  0  0  0  0  0  0  0  0  0  0
    2.1046    6.8537    0.7208 C   0  0  2  0  0  3  0  0  0  0  0  0
    2.2249    7.9454   -0.1387 C   0  0  0  0  0  0  0  0  0  0  0  0
    1.7577    7.9319   -1.1094 H   0  0  0  0  0  0  0  0  0  0  0  0
    2.9431    9.0494    0.2759 C   0  0  0  0  0  0  0  0  0  0  0  0
    3.0395    9.9131   -0.3634 H   0  0  0  0  0  0  0  0  0  0  0  0
    3.5537    9.0269    1.5247 C   0  0  0  0  0  0  0  0  0  0  0  0
    4.1411    9.8663    1.8640 H   0  0  0  0  0  0  0  0  0  0  0  0
    3.3988    7.9155    2.3367 C   0  0  0  0  0  0  0  0  0  0  0  0
    4.0694    7.7878    3.6691 C   0  0  0  0  0  0  0  0  0  0  0  0
    4.3525    8.7579    4.0825 H   0  0  0  0  0  0  0  0  0  0  0  0
    4.9724    7.1819    3.5282 H   0  0  0  0  0  0  0  0  0  0  0  0
    1.8954    8.1259    5.5911 C   0  0  0  0  0  0  0  0  0  0  0  0
    0.7124    7.4188    6.2546 C   0  0  0  0  0  0  0  0  0  0  0  0
   -0.0062    8.1553    6.6118 H   0  0  0  0  0  0  0  0  0  0  0  0
    1.0216    6.8091    7.0988 H   0  0  0  0  0  0  0  0  0  0  0  0
    0.2088    6.7814    5.5297 H   0  0  0  0  0  0  0  0  0  0  0  0
    1.3588    8.9972    4.4507 C   0  0  0  0  0  0  0  0  0  0  0  0
    0.9039    8.3830    3.6757 H   0  0  0  0  0  0  0  0  0  0  0  0
    2.1344    9.6228    4.0123 H   0  0  0  0  0  0  0  0  0  0  0  0
    0.5807    9.6540    4.8379 H   0  0  0  0  0  0  0  0  0  0  0  0
    2.5947    9.0394    6.5961 C   0  0  0  0  0  0  0  0  0  0  0  0
    1.9057    9.8374    6.8729 H   0  0  0  0  0  0  0  0  0  0  0  0
    3.4815    9.5045    6.1697 H   0  0  0  0  0  0  0  0  0  0  0  0
    2.8649    8.5135    7.5072 H   0  0  0  0  0  0  0  0  0  0  0  0
    4.2254    6.1198    6.0689 C   0  0  0  0  0  0  0  0  0  0  0  0
    5.3012    7.1132    6.5090 C   0  0  0  0  0  0  0  0  0  0  0  0
    5.9678    6.6134    7.2114 H   0  0  0  0  0  0  0  0  0  0  0  0
    4.8911    7.9821    7.0092 H   0  0  0  0  0  0  0  0  0  0  0  0
    5.9018    7.4457    5.6660 H   0  0  0  0  0  0  0  0  0  0  0  0
    3.4389    5.5962    7.2710 C   0  0  0  0  0  0  0  0  0  0  0  0
    4.0796    4.9687    7.8893 H   0  0  0  0  0  0  0  0  0  0  0  0
    2.6010    4.9894    6.9251 H   0  0  0  0  0  0  0  0  0  0  0  0
    3.0626    6.4025    7.8947 H   0  0  0  0  0  0  0  0  0  0  0  0
    4.9265    4.9214    5.4255 C   0  0  0  0  0  0  0  0  0  0  0  0
    5.4612    5.2035    4.5213 H   0  0  0  0  0  0  0  0  0  0  0  0
    4.2020    4.1526    5.1643 H   0  0  0  0  0  0  0  0  0  0  0  0
    5.6460    4.5003    6.1264 H   0  0  0  0  0  0  0  0  0  0  0  0
    1.1826    3.1153    4.8390 O   0  0  0  0  0  1  0  0  0  0  0  0
    1.5512    3.9864    4.1831 C   0  0  0  0  0  2  0  0  0  0  0  0
  1 54  1  0  0  0  0
  1  4  1  0  0  0  0
  2  1  1  0  0  0  0
  3  1  1  0  0  0  0
  4 27  1  0  0  0  0
  4 40  1  0  0  0  0
  5  1  1  0  0  0  0
  6 23  1  0  0  0  0
  6  1  1  0  0  0  0
  7  5  1  0  0  0  0
  7  8  1  0  0  0  0
  9  7  1  0  0  0  0
 10  9  1  0  0  0  0
 11 13  1  0  0  0  0
 11  9  2  0  0  0  0
 12 11  1  0  0  0  0
 13 15  2  0  0  0  0
 14 13  1  0  0  0  0
 15 16  1  0  0  0  0
 15  5  1  0  0  0  0
 16 17  1  6  0  0  0
 16  6  1  0  0  0  0
 17 19  2  0  0  0  0
 18 17  1  0  0  0  0
 19 21  1  0  0  0  0
 20 19  1  0  0  0  0
 21 22  1  0  0  0  0
 21 23  2  0  0  0  0
 23 24  1  0  0  0  0
 24 25  1  0  0  0  0
 24  4  1  0  0  0  0
 26 24  1  0  0  0  0
 27 28  1  0  0  0  0
 27 36  1  0  0  0  0
 28 29  1  0  0  0  0
 28 30  1  0  0  0  0
 31 28  1  0  0  0  0
 32 35  1  0  0  0  0
 32 27  1  0  0  0  0
 33 32  1  0  0  0  0
 34 32  1  0  0  0  0
 36 37  1  0  0  0  0
 36 39  1  0  0  0  0
 38 36  1  0  0  0  0
 40 41  1  0  0  0  0
 40 45  1  0  0  0  0
 41 43  1  0  0  0  0
 41 42  1  0  0  0  0
 44 41  1  0  0  0  0
 45 46  1  0  0  0  0
 45 48  1  0  0  0  0
 47 45  1  0  0  0  0
 49 40  1  0  0  0  0
 49 52  1  0  0  0  0
 50 49  1  0  0  0  0
 51 49  1  0  0  0  0
 54 53  1  0  0  0  0
M  END
$$$$
