CSD_code = KAKVUO | q = 1 | S = 0 | Stoichiometry = C14H36Cl2CoP4(1+) | MND = 6
 OpenBabel04212202053D

 57 58  0  0  1  0  0  0  0  0999 V2000
    3.3257    9.0340    2.5029 Co  0  0  0  0  0  0  0  0  0  0  0  0
    4.4734    7.5360    1.3763 Cl  0  0  0  0  0  0  0  0  0  0  0  0
    3.8684   10.7074    1.2030 Cl  0  0  0  0  0  0  0  0  0  0  0  0
    5.2062    9.2609    3.7019 P   0  0  0  0  0  4  0  0  0  0  0  0
    2.3914   10.6187    3.7634 P   0  0  0  0  0  4  0  0  0  0  0  0
    2.6176    7.5281    3.9637 P   0  0  0  0  0  4  0  0  0  0  0  0
    1.9729    8.5636    0.7463 P   0  0  0  0  0  4  0  0  0  0  0  0
    3.6536    9.3857    7.5708 C   0  0  0  0  0  0  0  0  0  0  0  0
    4.3593    8.6553    7.9597 H   0  0  0  0  0  0  0  0  0  0  0  0
    2.6832    9.1955    8.0239 H   0  0  0  0  0  0  0  0  0  0  0  0
    3.9845   10.3746    7.8797 H   0  0  0  0  0  0  0  0  0  0  0  0
    3.5690    9.2967    6.0401 C   0  0  2  0  0  0  0  0  0  0  0  0
    4.9209    9.7398    5.4634 C   0  0  0  0  0  0  0  0  0  0  0  0
    5.7312    9.2987    6.0517 H   0  0  0  0  0  0  0  0  0  0  0  0
    5.0065   10.8264    5.5442 H   0  0  0  0  0  0  0  0  0  0  0  0
    2.4482   10.2314    5.5727 C   0  0  0  0  0  0  0  0  0  0  0  0
    2.5446   11.1922    6.0890 H   0  0  0  0  0  0  0  0  0  0  0  0
    1.4852    9.8025    5.8606 H   0  0  0  0  0  0  0  0  0  0  0  0
    3.2563    7.8395    5.6680 C   0  0  0  0  0  0  0  0  0  0  0  0
    2.4992    7.4448    6.3545 H   0  0  0  0  0  0  0  0  0  0  0  0
    4.1613    7.2392    5.7952 H   0  0  0  0  0  0  0  0  0  0  0  0
    6.3286    7.8307    3.8753 C   0  0  0  0  0  0  0  0  0  0  0  0
    5.8249    6.9611    4.2896 H   0  0  0  0  0  0  0  0  0  0  0  0
    7.1540    8.1223    4.5260 H   0  0  0  0  0  0  0  0  0  0  0  0
    6.7174    7.5738    2.8912 H   0  0  0  0  0  0  0  0  0  0  0  0
    6.4122   10.4909    3.1208 C   0  0  0  0  0  0  0  0  0  0  0  0
    6.7989   10.1383    2.1637 H   0  0  0  0  0  0  0  0  0  0  0  0
    7.2251   10.5639    3.8442 H   0  0  0  0  0  0  0  0  0  0  0  0
    5.9549   11.4641    2.9622 H   0  0  0  0  0  0  0  0  0  0  0  0
    3.0968   12.3015    3.7331 C   0  0  0  0  0  0  0  0  0  0  0  0
    4.1627   12.2900    3.9463 H   0  0  0  0  0  0  0  0  0  0  0  0
    2.5780   12.9079    4.4767 H   0  0  0  0  0  0  0  0  0  0  0  0
    2.9469   12.7293    2.7433 H   0  0  0  0  0  0  0  0  0  0  0  0
    0.6298   11.0702    3.5819 C   0  0  0  0  0  0  0  0  0  0  0  0
   -0.0126   10.1939    3.5656 H   0  0  0  0  0  0  0  0  0  0  0  0
    0.5105   11.6193    2.6497 H   0  0  0  0  0  0  0  0  0  0  0  0
    0.3493   11.7167    4.4143 H   0  0  0  0  0  0  0  0  0  0  0  0
    0.8179    7.3634    4.2789 C   0  0  0  0  0  0  0  0  0  0  0  0
    0.4239    8.2522    4.7647 H   0  0  0  0  0  0  0  0  0  0  0  0
    0.6529    6.4983    4.9220 H   0  0  0  0  0  0  0  0  0  0  0  0
    0.2857    7.2164    3.3412 H   0  0  0  0  0  0  0  0  0  0  0  0
    3.0626    5.7757    3.7394 C   0  0  0  0  0  0  0  0  0  0  0  0
    4.1138    5.6770    3.4785 H   0  0  0  0  0  0  0  0  0  0  0  0
    2.4722    5.3623    2.9235 H   0  0  0  0  0  0  0  0  0  0  0  0
    2.8482    5.2308    4.6597 H   0  0  0  0  0  0  0  0  0  0  0  0
    0.3742    9.4500    0.6005 C   0  0  0  0  0  0  0  0  0  0  0  0
   -0.2872    9.2060    1.4281 H   0  0  0  0  0  0  0  0  0  0  0  0
   -0.0998    9.1587   -0.3364 H   0  0  0  0  0  0  0  0  0  0  0  0
    0.5605   10.5217    0.5831 H   0  0  0  0  0  0  0  0  0  0  0  0
    1.4289    6.8249    0.5515 C   0  0  0  0  0  0  0  0  0  0  0  0
    0.8903    6.4699    1.4262 H   0  0  0  0  0  0  0  0  0  0  0  0
    2.2990    6.1944    0.3804 H   0  0  0  0  0  0  0  0  0  0  0  0
    0.7697    6.7709   -0.3144 H   0  0  0  0  0  0  0  0  0  0  0  0
    2.6452    8.8807   -0.9163 C   0  0  0  0  0  0  0  0  0  0  0  0
    2.6564    9.9513   -1.1096 H   0  0  0  0  0  0  0  0  0  0  0  0
    1.9972    8.3828   -1.6379 H   0  0  0  0  0  0  0  0  0  0  0  0
    3.6569    8.4922   -1.0049 H   0  0  0  0  0  0  0  0  0  0  0  0
  1  4  1  0  0  0  0
  1  5  1  0  0  0  0
  1  6  1  0  0  0  0
  2  1  1  0  0  0  0
  3  1  1  0  0  0  0
  4 22  1  0  0  0  0
  4 13  1  0  0  0  0
  5 16  1  0  0  0  0
  6 38  1  0  0  0  0
  6 19  1  0  0  0  0
  7  1  1  0  0  0  0
  8 11  1  0  0  0  0
  8  9  1  0  0  0  0
  8 10  1  0  0  0  0
 12  8  1  1  0  0  0
 13 15  1  0  0  0  0
 13 12  1  0  0  0  0
 13 14  1  0  0  0  0
 16 18  1  0  0  0  0
 16 12  1  0  0  0  0
 16 17  1  0  0  0  0
 19 21  1  0  0  0  0
 19 12  1  0  0  0  0
 19 20  1  0  0  0  0
 22 23  1  0  0  0  0
 22 24  1  0  0  0  0
 25 22  1  0  0  0  0
 26  4  1  0  0  0  0
 26 28  1  0  0  0  0
 27 26  1  0  0  0  0
 29 26  1  0  0  0  0
 30  5  1  0  0  0  0
 30 31  1  0  0  0  0
 30 32  1  0  0  0  0
 33 30  1  0  0  0  0
 34  5  1  0  0  0  0
 34 37  1  0  0  0  0
 35 34  1  0  0  0  0
 36 34  1  0  0  0  0
 38 39  1  0  0  0  0
 38 40  1  0  0  0  0
 41 38  1  0  0  0  0
 42  6  1  0  0  0  0
 42 45  1  0  0  0  0
 43 42  1  0  0  0  0
 44 42  1  0  0  0  0
 46  7  1  0  0  0  0
 46 47  1  0  0  0  0
 48 46  1  0  0  0  0
 49 46  1  0  0  0  0
 50  7  1  0  0  0  0
 50 51  1  0  0  0  0
 52 50  1  0  0  0  0
 53 50  1  0  0  0  0
 54  7  1  0  0  0  0
 55 54  1  0  0  0  0
 56 54  1  0  0  0  0
 57 54  1  0  0  0  0
M  END
$$$$
