CSD_code = KAKWEZ | q = 1 | S = 0 | Stoichiometry = C19H38Cl2P4Rh(1+) | MND = 6
 OpenBabel04212202053D

 64 66  0  0  1  0  0  0  0  0999 V2000
    0.5198    5.2060    0.1184 Rh  0  0  0  0  0  0  0  0  0  0  0  0
   -0.7261    5.2633    2.0753 Cl  0  0  0  0  0  0  0  0  0  0  0  0
    2.4509    4.6251    1.2657 Cl  0  0  0  0  0  0  0  0  0  0  0  0
    1.0803    7.4167    0.4949 P   0  0  0  0  0  4  0  0  0  0  0  0
    1.6493    5.3123   -1.8710 P   0  0  0  0  0  4  0  0  0  0  0  0
   -1.3404    5.9332   -1.0193 P   0  0  0  0  0  4  0  0  0  0  0  0
    0.2729    2.8863    0.3034 P   0  0  0  0  0  4  0  0  0  0  0  0
    0.3749    9.0420   -3.2858 C   0  0  0  0  0  0  0  0  0  0  0  0
    1.3327    9.5553   -3.3283 H   0  0  0  0  0  0  0  0  0  0  0  0
   -0.3894    9.7724   -3.0309 H   0  0  0  0  0  0  0  0  0  0  0  0
    0.1543    8.6525   -4.2771 H   0  0  0  0  0  0  0  0  0  0  0  0
    0.4119    7.9094   -2.2476 C   0  0  2  0  0  0  0  0  0  0  0  0
    0.5648    8.5541   -0.8623 C   0  0  0  0  0  0  0  0  0  0  0  0
   -0.3866    9.0100   -0.5751 H   0  0  0  0  0  0  0  0  0  0  0  0
    1.3118    9.3520   -0.9119 H   0  0  0  0  0  0  0  0  0  0  0  0
    1.6173    7.0142   -2.5863 C   0  0  0  0  0  0  0  0  0  0  0  0
    2.5308    7.5227   -2.2651 H   0  0  0  0  0  0  0  0  0  0  0  0
    1.6775    6.8868   -3.6725 H   0  0  0  0  0  0  0  0  0  0  0  0
   -0.9151    7.1444   -2.3543 C   0  0  0  0  0  0  0  0  0  0  0  0
   -0.9329    6.6060   -3.3055 H   0  0  0  0  0  0  0  0  0  0  0  0
   -1.7382    7.8666   -2.3761 H   0  0  0  0  0  0  0  0  0  0  0  0
    0.4235    8.2315    1.9811 C   0  0  0  0  0  0  0  0  0  0  0  0
    0.8667    7.7437    2.8503 H   0  0  0  0  0  0  0  0  0  0  0  0
   -0.6571    8.1277    2.0511 H   0  0  0  0  0  0  0  0  0  0  0  0
    0.7054    9.2850    1.9636 H   0  0  0  0  0  0  0  0  0  0  0  0
    2.8545    7.7867    0.7016 C   0  0  0  0  0  0  0  0  0  0  0  0
    3.2155    7.2497    1.5785 H   0  0  0  0  0  0  0  0  0  0  0  0
    2.9709    8.8596    0.8578 H   0  0  0  0  0  0  0  0  0  0  0  0
    3.4378    7.4719   -0.1605 H   0  0  0  0  0  0  0  0  0  0  0  0
    3.4267    4.9199   -1.8995 C   0  0  0  0  0  0  0  0  0  0  0  0
    3.5470    3.8396   -1.8275 H   0  0  0  0  0  0  0  0  0  0  0  0
    3.9273    5.3692   -1.0439 H   0  0  0  0  0  0  0  0  0  0  0  0
    3.8658    5.2783   -2.8312 H   0  0  0  0  0  0  0  0  0  0  0  0
    1.0501    4.3172   -3.2891 C   0  0  0  0  0  0  0  0  0  0  0  0
    0.0992    4.6988   -3.6539 H   0  0  0  0  0  0  0  0  0  0  0  0
    0.9122    3.2793   -2.9918 H   0  0  0  0  0  0  0  0  0  0  0  0
    1.7905    4.3678   -4.0886 H   0  0  0  0  0  0  0  0  0  0  0  0
   -2.4223    4.7852   -1.9401 C   0  0  0  0  0  0  0  0  0  0  0  0
   -1.8480    4.0644   -2.5177 H   0  0  0  0  0  0  0  0  0  0  0  0
   -3.0689    5.3635   -2.6007 H   0  0  0  0  0  0  0  0  0  0  0  0
   -3.0340    4.2400   -1.2228 H   0  0  0  0  0  0  0  0  0  0  0  0
   -2.5986    6.8257   -0.0512 C   0  0  0  0  0  0  0  0  0  0  0  0
   -2.1745    7.7139    0.4124 H   0  0  0  0  0  0  0  0  0  0  0  0
   -2.9597    6.1650    0.7363 H   0  0  0  0  0  0  0  0  0  0  0  0
   -3.4228    7.1045   -0.7087 H   0  0  0  0  0  0  0  0  0  0  0  0
    0.2992    2.2372    2.0064 C   0  0  0  0  0  0  0  0  0  0  0  0
    1.2597    2.4744    2.4623 H   0  0  0  0  0  0  0  0  0  0  0  0
    0.1674    1.1556    1.9507 H   0  0  0  0  0  0  0  0  0  0  0  0
   -0.4938    2.6747    2.6079 H   0  0  0  0  0  0  0  0  0  0  0  0
    1.6074    1.8618   -0.4135 C   0  0  0  0  0  0  0  0  0  0  0  0
    2.5284    2.1080    0.1144 H   0  0  0  0  0  0  0  0  0  0  0  0
    1.7512    2.0396   -1.4760 H   0  0  0  0  0  0  0  0  0  0  0  0
    1.3629    0.8128   -0.2469 H   0  0  0  0  0  0  0  0  0  0  0  0
   -1.2649    2.1433   -0.3225 C   0  0  0  0  0  0  0  0  0  0  0  0
   -2.4338    2.3819    0.3977 C   0  0  0  0  0  0  0  0  0  0  0  0
   -2.3988    3.0149    1.2739 H   0  0  0  0  0  0  0  0  0  0  0  0
   -3.6296    1.8190   -0.0085 C   0  0  0  0  0  0  0  0  0  0  0  0
   -4.5289    1.9943    0.5627 H   0  0  0  0  0  0  0  0  0  0  0  0
   -3.6721    1.0276   -1.1463 C   0  0  0  0  0  0  0  0  0  0  0  0
   -4.6034    0.5832   -1.4612 H   0  0  0  0  0  0  0  0  0  0  0  0
   -2.5173    0.8067   -1.8781 C   0  0  0  0  0  0  0  0  0  0  0  0
   -2.5488    0.1919   -2.7651 H   0  0  0  0  0  0  0  0  0  0  0  0
   -1.3165    1.3631   -1.4714 C   0  0  0  0  0  0  0  0  0  0  0  0
   -0.4215    1.1721   -2.0454 H   0  0  0  0  0  0  0  0  0  0  0  0
  1  7  1  0  0  0  0
  1  4  1  0  0  0  0
  1  3  1  0  0  0  0
  1  2  1  0  0  0  0
  4 26  1  0  0  0  0
  4 22  1  0  0  0  0
  5  1  1  0  0  0  0
  6 42  1  0  0  0  0
  6  1  1  0  0  0  0
  7 46  1  0  0  0  0
  8 10  1  0  0  0  0
  9  8  1  0  0  0  0
 11  8  1  0  0  0  0
 12  8  1  6  0  0  0
 12 13  1  0  0  0  0
 13 14  1  0  0  0  0
 13  4  1  0  0  0  0
 15 13  1  0  0  0  0
 16 17  1  0  0  0  0
 16 12  1  0  0  0  0
 16  5  1  0  0  0  0
 18 16  1  0  0  0  0
 19 12  1  0  0  0  0
 19  6  1  0  0  0  0
 20 19  1  0  0  0  0
 21 19  1  0  0  0  0
 22 24  1  0  0  0  0
 22 23  1  0  0  0  0
 25 22  1  0  0  0  0
 26 28  1  0  0  0  0
 26 27  1  0  0  0  0
 29 26  1  0  0  0  0
 30  5  1  0  0  0  0
 30 31  1  0  0  0  0
 30 32  1  0  0  0  0
 33 30  1  0  0  0  0
 34 36  1  0  0  0  0
 34  5  1  0  0  0  0
 35 34  1  0  0  0  0
 37 34  1  0  0  0  0
 38 41  1  0  0  0  0
 38  6  1  0  0  0  0
 39 38  1  0  0  0  0
 40 38  1  0  0  0  0
 42 43  1  0  0  0  0
 42 44  1  0  0  0  0
 45 42  1  0  0  0  0
 46 47  1  0  0  0  0
 46 49  1  0  0  0  0
 48 46  1  0  0  0  0
 50 53  1  0  0  0  0
 50 51  1  0  0  0  0
 50  7  1  0  0  0  0
 52 50  1  0  0  0  0
 54  7  1  0  0  0  0
 54 55  1  0  0  0  0
 55 56  1  0  0  0  0
 57 55  2  0  0  0  0
 57 58  1  0  0  0  0
 59 57  1  0  0  0  0
 60 59  1  0  0  0  0
 61 63  1  0  0  0  0
 61 59  2  0  0  0  0
 62 61  1  0  0  0  0
 63 54  2  0  0  0  0
 64 63  1  0  0  0  0
M  END
$$$$
