CSD_code = KAKWAV | q = 1 | S = 0 | Stoichiometry = C14H36Cl2P4Rh(1+) | MND = 6
 OpenBabel04212202053D

 57 58  0  0  1  0  0  0  0  0999 V2000
    2.2163    2.7955    6.2830 Rh  0  0  0  0  0  0  0  0  0  0  0  0
    0.2082    1.6631    6.0277 Cl  0  0  0  0  0  0  0  0  0  0  0  0
    2.4938    2.9436    3.9857 Cl  0  0  0  0  0  0  0  0  0  0  0  0
    0.9770    4.7395    6.1993 P   0  0  0  0  0  4  0  0  0  0  0  0
    4.0984    4.0987    6.4939 P   0  0  0  0  0  4  0  0  0  0  0  0
    2.0106    2.8359    8.5632 P   0  0  0  0  0  4  0  0  0  0  0  0
    2.9606    0.5838    6.0273 P   0  0  0  0  0  4  0  0  0  0  0  0
    2.7289    6.8947    9.3193 C   0  0  0  0  0  0  0  0  0  0  0  0
    1.7771    7.1586    9.7743 H   0  0  0  0  0  0  0  0  0  0  0  0
    3.0892    7.7574    8.7640 H   0  0  0  0  0  0  0  0  0  0  0  0
    3.4388    6.6837   10.1159 H   0  0  0  0  0  0  0  0  0  0  0  0
    2.5691    5.6794    8.3920 C   0  0  1  0  0  0  0  0  0  0  0  0
    1.6877    6.1098    7.2100 C   0  0  0  0  0  0  0  0  0  0  0  0
    2.2722    6.7525    6.5463 H   0  0  0  0  0  0  0  0  0  0  0  0
    0.8447    6.7001    7.5817 H   0  0  0  0  0  0  0  0  0  0  0  0
    3.9721    5.2760    7.9156 C   0  0  0  0  0  0  0  0  0  0  0  0
    4.5165    4.8394    8.7571 H   0  0  0  0  0  0  0  0  0  0  0  0
    4.5150    6.1767    7.6100 H   0  0  0  0  0  0  0  0  0  0  0  0
    1.9024    4.5612    9.2130 C   0  0  0  0  0  0  0  0  0  0  0  0
    0.8420    4.8008    9.3319 H   0  0  0  0  0  0  0  0  0  0  0  0
    2.3469    4.5374   10.2137 H   0  0  0  0  0  0  0  0  0  0  0  0
   -0.7462    4.6459    6.7902 C   0  0  0  0  0  0  0  0  0  0  0  0
   -0.8046    4.3075    7.8218 H   0  0  0  0  0  0  0  0  0  0  0  0
   -1.2880    3.9399    6.1615 H   0  0  0  0  0  0  0  0  0  0  0  0
   -1.1966    5.6348    6.6984 H   0  0  0  0  0  0  0  0  0  0  0  0
    0.6985    5.5121    4.5784 C   0  0  0  0  0  0  0  0  0  0  0  0
    1.6286    5.6556    4.0337 H   0  0  0  0  0  0  0  0  0  0  0  0
    0.1870    6.4648    4.7208 H   0  0  0  0  0  0  0  0  0  0  0  0
    0.0693    4.8367    3.9970 H   0  0  0  0  0  0  0  0  0  0  0  0
    4.5020    5.1927    5.0944 C   0  0  0  0  0  0  0  0  0  0  0  0
    3.6782    5.8673    4.8743 H   0  0  0  0  0  0  0  0  0  0  0  0
    4.6830    4.5746    4.2156 H   0  0  0  0  0  0  0  0  0  0  0  0
    5.3980    5.7652    5.3367 H   0  0  0  0  0  0  0  0  0  0  0  0
    5.7552    3.3887    6.7917 C   0  0  0  0  0  0  0  0  0  0  0  0
    5.7451    2.6655    7.6033 H   0  0  0  0  0  0  0  0  0  0  0  0
    6.4462    4.1978    7.0302 H   0  0  0  0  0  0  0  0  0  0  0  0
    6.0856    2.8964    5.8785 H   0  0  0  0  0  0  0  0  0  0  0  0
    3.3708    2.1469    9.5789 C   0  0  0  0  0  0  0  0  0  0  0  0
    4.2870    2.7149    9.4362 H   0  0  0  0  0  0  0  0  0  0  0  0
    3.5556    1.1115    9.2992 H   0  0  0  0  0  0  0  0  0  0  0  0
    3.0801    2.1865   10.6291 H   0  0  0  0  0  0  0  0  0  0  0  0
    0.5700    2.0392    9.3399 C   0  0  0  0  0  0  0  0  0  0  0  0
   -0.3358    2.2669    8.7817 H   0  0  0  0  0  0  0  0  0  0  0  0
    0.4774    2.3751   10.3732 H   0  0  0  0  0  0  0  0  0  0  0  0
    0.7147    0.9600    9.3159 H   0  0  0  0  0  0  0  0  0  0  0  0
    2.2427   -0.6457    7.1763 C   0  0  0  0  0  0  0  0  0  0  0  0
    2.5438   -0.4546    8.2036 H   0  0  0  0  0  0  0  0  0  0  0  0
    2.5951   -1.6335    6.8813 H   0  0  0  0  0  0  0  0  0  0  0  0
    1.1573   -0.6129    7.1046 H   0  0  0  0  0  0  0  0  0  0  0  0
    2.5372   -0.1575    4.4212 C   0  0  0  0  0  0  0  0  0  0  0  0
    1.4769   -0.0197    4.2163 H   0  0  0  0  0  0  0  0  0  0  0  0
    2.7712   -1.2215    4.4618 H   0  0  0  0  0  0  0  0  0  0  0  0
    3.1140    0.3193    3.6305 H   0  0  0  0  0  0  0  0  0  0  0  0
    4.7426    0.1698    6.1242 C   0  0  0  0  0  0  0  0  0  0  0  0
    5.1498    0.4077    7.1040 H   0  0  0  0  0  0  0  0  0  0  0  0
    5.2830    0.7248    5.3602 H   0  0  0  0  0  0  0  0  0  0  0  0
    4.8614   -0.8966    5.9368 H   0  0  0  0  0  0  0  0  0  0  0  0
  1  5  1  0  0  0  0
  1  6  1  0  0  0  0
  2  1  1  0  0  0  0
  3  1  1  0  0  0  0
  4  1  1  0  0  0  0
  4 22  1  0  0  0  0
  4 13  1  0  0  0  0
  5 34  1  0  0  0  0
  5 16  1  0  0  0  0
  6 19  1  0  0  0  0
  6 42  1  0  0  0  0
  6 38  1  0  0  0  0
  7 54  1  0  0  0  0
  7  1  1  0  0  0  0
  7 46  1  0  0  0  0
  8  9  1  0  0  0  0
  8 11  1  0  0  0  0
 10  8  1  0  0  0  0
 12 19  1  0  0  0  0
 12  8  1  1  0  0  0
 13 15  1  0  0  0  0
 13 12  1  0  0  0  0
 14 13  1  0  0  0  0
 16 12  1  0  0  0  0
 16 17  1  0  0  0  0
 18 16  1  0  0  0  0
 19 20  1  0  0  0  0
 19 21  1  0  0  0  0
 22 23  1  0  0  0  0
 24 22  1  0  0  0  0
 25 22  1  0  0  0  0
 26 28  1  0  0  0  0
 26  4  1  0  0  0  0
 27 26  1  0  0  0  0
 29 26  1  0  0  0  0
 30 33  1  0  0  0  0
 30  5  1  0  0  0  0
 31 30  1  0  0  0  0
 32 30  1  0  0  0  0
 34 36  1  0  0  0  0
 34 35  1  0  0  0  0
 37 34  1  0  0  0  0
 38 41  1  0  0  0  0
 39 38  1  0  0  0  0
 40 38  1  0  0  0  0
 42 44  1  0  0  0  0
 43 42  1  0  0  0  0
 45 42  1  0  0  0  0
 46 47  1  0  0  0  0
 48 46  1  0  0  0  0
 49 46  1  0  0  0  0
 50 52  1  0  0  0  0
 50  7  1  0  0  0  0
 51 50  1  0  0  0  0
 53 50  1  0  0  0  0
 54 55  1  0  0  0  0
 56 54  1  0  0  0  0
 57 54  1  0  0  0  0
M  END
$$$$
