CSD_code = KALDAE | q = 0 | S = 0 | Stoichiometry = C26H22Cl2FeN4 | MND = 5
 OpenBabel04212202053D

 55 61  0  0  1  0  0  0  0  0999 V2000
    3.5862    3.0300    6.6428 Fe  0  0  0  0  0  0  0  0  0  0  0  0
    4.7126    1.5665    5.5503 Cl  0  0  0  0  0  0  0  0  0  0  0  0
    1.8846    1.8308    6.5395 Cl  0  0  0  0  0  0  0  0  0  0  0  0
    4.9820    3.1341    8.1063 N   0  0  0  0  0  0  0  0  0  0  0  0
    2.6090    4.2821    7.7126 N   0  0  0  0  0  0  0  0  0  0  0  0
    3.3901    4.3241    5.4204 N   0  0  0  0  0  0  0  0  0  0  0  0
    4.5183    2.9647    9.3485 C   0  0  1  0  0  3  0  0  0  0  0  0
    4.0939    4.3433    4.2043 C   0  0  0  0  0  0  0  0  0  0  0  0
    6.3571    4.3853    0.5701 C   0  0  0  0  0  0  0  0  0  0  0  0
    5.7119    4.2646   -0.2966 H   0  0  0  0  0  0  0  0  0  0  0  0
    7.0662    3.5573    0.5813 H   0  0  0  0  0  0  0  0  0  0  0  0
    6.9211    5.3099    0.4672 H   0  0  0  0  0  0  0  0  0  0  0  0
    5.4769    2.4026   10.1456 N   0  0  0  0  0  0  0  0  0  0  0  0
    5.3704    2.1601   11.1151 H   0  0  0  0  0  0  0  0  0  0  0  0
    5.5575    4.3838    1.8370 C   0  0  0  0  0  0  0  0  0  0  0  0
    0.5694    5.8149    8.8143 C   0  0  0  0  0  0  0  0  0  0  0  0
   -0.2540    6.3547    9.2575 H   0  0  0  0  0  0  0  0  0  0  0  0
    3.5904    3.6925    3.0718 C   0  0  0  0  0  0  0  0  0  0  0  0
    1.3089    4.9115    9.6312 C   0  0  0  0  0  0  0  0  0  0  0  0
    2.4505    5.2316    5.6569 C   0  0  0  0  0  3  0  0  0  0  0  0
    2.1348    5.9375    4.9001 H   0  0  0  0  0  0  0  0  0  0  0  0
    2.2961    2.9510    3.1444 C   0  0  0  0  0  0  0  0  0  0  0  0
    2.4007    2.1116    3.8326 H   0  0  0  0  0  0  0  0  0  0  0  0
    2.0132    2.5696    2.1674 H   0  0  0  0  0  0  0  0  0  0  0  0
    1.4958    3.5838    3.5261 H   0  0  0  0  0  0  0  0  0  0  0  0
    1.7772    3.8368   11.7359 C   0  0  0  0  0  0  0  0  0  0  0  0
    1.5241    3.6569   12.7695 H   0  0  0  0  0  0  0  0  0  0  0  0
    4.3368    3.7280    1.9049 C   0  0  0  0  0  0  0  0  0  0  0  0
    3.9577    3.2230    1.0282 H   0  0  0  0  0  0  0  0  0  0  0  0
    6.0385    5.0168    2.9757 C   0  0  0  0  0  0  0  0  0  0  0  0
    6.9910    5.5264    2.9386 H   0  0  0  0  0  0  0  0  0  0  0  0
    2.8964    3.2308   11.1918 C   0  0  0  0  0  0  0  0  0  0  0  0
    3.5000    2.6028   11.8301 H   0  0  0  0  0  0  0  0  0  0  0  0
    3.2542    3.4247    9.8563 C   0  0  0  0  0  0  0  0  0  0  0  0
    6.2837    2.6850    8.1033 C   0  0  0  0  0  0  0  0  0  0  0  0
    5.3272    5.0045    4.1628 C   0  0  0  0  0  0  0  0  0  0  0  0
    6.6058    2.2136    9.3919 C   0  0  0  0  0  0  0  0  0  0  0  0
    1.9531    5.2033    6.9640 C   0  0  0  0  0  0  0  0  0  0  0  0
    0.9191    5.9997    7.5168 C   0  0  0  0  0  0  0  0  0  0  0  0
    0.4073    6.7035    6.8796 H   0  0  0  0  0  0  0  0  0  0  0  0
    2.3890    4.2022    9.0289 C   0  0  2  0  0  3  0  0  0  0  0  0
    1.0127    4.7011   10.9768 C   0  0  0  0  0  0  0  0  0  0  0  0
    0.1756    5.2218   11.4174 H   0  0  0  0  0  0  0  0  0  0  0  0
    7.8582    1.7061    9.6975 C   0  0  0  0  0  0  0  0  0  0  0  0
    8.0918    1.3410   10.6859 H   0  0  0  0  0  0  0  0  0  0  0  0
    5.8425    5.6977    5.3888 C   0  0  0  0  0  0  0  0  0  0  0  0
    6.9118    5.8751    5.3085 H   0  0  0  0  0  0  0  0  0  0  0  0
    5.6415    5.0957    6.2756 H   0  0  0  0  0  0  0  0  0  0  0  0
    5.3434    6.6595    5.5164 H   0  0  0  0  0  0  0  0  0  0  0  0
    7.2358    2.6692    7.0893 C   0  0  0  0  0  0  0  0  0  0  0  0
    6.9891    3.0095    6.0987 H   0  0  0  0  0  0  0  0  0  0  0  0
    8.7884    1.6899    8.6775 C   0  0  0  0  0  0  0  0  0  0  0  0
    9.7767    1.3010    8.8710 H   0  0  0  0  0  0  0  0  0  0  0  0
    8.4811    2.1646    7.4006 C   0  0  0  0  0  0  0  0  0  0  0  0
    9.2410    2.1289    6.6354 H   0  0  0  0  0  0  0  0  0  0  0  0
  1  5  1  0  0  0  0
  1  4  1  0  0  0  0
  2  1  1  0  0  0  0
  3  1  1  0  0  0  0
  4  7  1  0  0  0  0
  5 41  1  0  0  0  0
  6 20  1  0  0  0  0
  6  1  1  0  0  0  0
  7 34  1  1  0  0  0
  7 13  1  0  0  0  0
  8  6  1  0  0  0  0
  9 11  1  0  0  0  0
  9 15  1  0  0  0  0
 10  9  1  0  0  0  0
 12  9  1  0  0  0  0
 13 14  1  0  0  0  0
 15 28  2  0  0  0  0
 15 30  1  0  0  0  0
 16 17  1  0  0  0  0
 16 19  2  0  0  0  0
 18 22  1  0  0  0  0
 18  8  2  0  0  0  0
 19 42  1  0  0  0  0
 20 38  1  0  0  0  0
 21 20  1  0  0  0  0
 22 25  1  0  0  0  0
 22 23  1  0  0  0  0
 24 22  1  0  0  0  0
 26 27  1  0  0  0  0
 28 18  1  0  0  0  0
 29 28  1  0  0  0  0
 30 36  2  0  0  0  0
 31 30  1  0  0  0  0
 32 26  1  0  0  0  0
 32 33  1  0  0  0  0
 34 32  2  0  0  0  0
 35  4  1  0  0  0  0
 35 37  1  0  0  0  0
 36  8  1  0  0  0  0
 36 46  1  0  0  0  0
 37 44  2  0  0  0  0
 37 13  1  0  0  0  0
 38 39  2  0  0  0  0
 38  5  1  0  0  0  0
 39 16  1  0  0  0  0
 40 39  1  0  0  0  0
 41 19  1  1  0  0  0
 41 34  1  0  0  0  0
 42 43  1  0  0  0  0
 42 26  2  0  0  0  0
 44 45  1  0  0  0  0
 46 49  1  0  0  0  0
 46 48  1  0  0  0  0
 47 46  1  0  0  0  0
 50 54  1  0  0  0  0
 50 35  2  0  0  0  0
 51 50  1  0  0  0  0
 52 53  1  0  0  0  0
 52 44  1  0  0  0  0
 54 52  2  0  0  0  0
 55 54  1  0  0  0  0
M  END
$$$$
