CSD_code = KALZUV | q = 0 | S = 0 | Stoichiometry = C8H14Cl2N2OPtS | MND = 5
 OpenBabel04212202053D

 29 27  0  0  1  0  0  0  0  0999 V2000
    4.2122   13.0908    2.5837 C   0  0  0  0  0  3  0  0  0  0  0  0
    3.9193   12.3141    1.8838 H   0  0  0  0  0  0  0  0  0  0  0  0
    5.2727   13.1469    2.7942 H   0  0  0  0  0  0  0  0  0  0  0  0
    3.3084   13.5747    3.5221 C   0  0  2  0  0  0  0  0  0  0  0  0
    3.6833   14.0111    4.4454 H   0  0  0  0  0  0  0  0  0  0  0  0
    1.8772   13.0805    3.6239 C   0  0  0  0  0  0  0  0  0  0  0  0
    1.7609   12.5076    4.5484 H   0  0  0  0  0  0  0  0  0  0  0  0
    1.1956   13.9397    3.6761 H   0  0  0  0  0  0  0  0  0  0  0  0
    1.2196   12.6678    1.2833 C   0  0  0  0  0  0  0  0  0  0  0  0
    0.6385   12.1095   -1.0321 C   0  0  0  0  0  0  0  0  0  0  0  0
    1.0046   13.1177   -1.2160 H   0  0  0  0  0  0  0  0  0  0  0  0
   -0.3929   12.0289   -1.3872 H   0  0  0  0  0  0  0  0  0  0  0  0
    1.5207   11.0817   -1.7531 C   0  0  0  0  0  0  0  0  0  0  0  0
    1.4426   11.2034   -2.8334 H   0  0  0  0  0  0  0  0  0  0  0  0
    2.5679   11.2244   -1.4468 H   0  0  0  0  0  0  0  0  0  0  0  0
    1.1406    9.4933   -0.0967 C   0  0  0  0  0  0  0  0  0  0  0  0
    2.1704    9.5776    0.2870 H   0  0  0  0  0  0  0  0  0  0  0  0
    0.7929    8.4665    0.0257 H   0  0  0  0  0  0  0  0  0  0  0  0
    0.2264   10.4718    0.6558 C   0  0  0  0  0  0  0  0  0  0  0  0
   -0.7896   10.3715    0.2574 H   0  0  0  0  0  0  0  0  0  0  0  0
    0.1966   10.2478    1.7205 H   0  0  0  0  0  0  0  0  0  0  0  0
    5.3768   15.9436    2.9106 Cl  0  0  0  0  0 15  0  0  0  0  0  0
    3.2599   16.9013    0.8174 Cl  0  0  0  0  0 15  0  0  0  0  0  0
    1.4630   12.2261    2.5333 N   0  0  0  0  0  0  0  0  0  0  0  0
    1.5453   11.2348    2.6938 H   0  0  0  0  0  0  0  0  0  0  0  0
    0.6666   11.8282    0.3913 N   0  0  0  0  0  0  0  0  0  0  0  0
    1.1120    9.7606   -1.4749 O   0  0  0  0  0  0  0  0  0  0  0  0
    3.5233   15.0281    1.9770 Pt  0  0  0  0  0  0  0  0  0  0  0  0
    1.5036   14.2801    0.8449 S   0  0  0  0  0  0  0  0  0  0  0  0
  1  3  1  0  0  0  0
  1  4  1  0  0  0  0
  2  1  1  0  0  0  0
  4  6  1  0  0  0  0
  4  5  1  1  0  0  0
  6  8  1  0  0  0  0
  6  7  1  0  0  0  0
  9 24  1  0  0  0  0
 10 26  1  0  0  0  0
 11 10  1  0  0  0  0
 12 10  1  0  0  0  0
 13 27  1  0  0  0  0
 13 15  1  0  0  0  0
 13 10  1  0  0  0  0
 14 13  1  0  0  0  0
 16 18  1  0  0  0  0
 16 17  1  0  0  0  0
 16 19  1  0  0  0  0
 19 21  1  0  0  0  0
 20 19  1  0  0  0  0
 24 25  1  0  0  0  0
 24  6  1  0  0  0  0
 26 19  1  0  0  0  0
 26  9  1  0  0  0  0
 27 16  1  0  0  0  0
 28  4  1  0  0  0  0
 29  9  2  0  0  0  0
M  END
$$$$
