CSD_code = KALZEF | q = 0 | S = 0 | Stoichiometry = C15H16Cl2N2Pt | MND = 4
 OpenBabel04212202053D

 36 38  0  0  0  0  0  0  0  0999 V2000
   10.3122    6.1584    5.7555 Pt  0  0  0  0  0  0  0  0  0  0  0  0
    8.7225    7.2046    6.9369 Cl  0  0  0  0  0  0  0  0  0  0  0  0
   11.6579    7.9210    6.1099 Cl  0  0  0  0  0  0  0  0  0  0  0  0
    9.2094    4.5401    5.3418 N   0  0  0  0  0  0  0  0  0  0  0  0
   11.6223    5.1336    4.7090 N   0  0  0  0  0  0  0  0  0  0  0  0
   11.2229    3.9866    4.2491 C   0  0  0  0  0  0  0  0  0  0  0  0
   12.0899    3.0721    3.4418 C   0  0  0  0  0  0  0  0  0  0  0  0
   13.0799    3.5038    3.3165 H   0  0  0  0  0  0  0  0  0  0  0  0
   11.6514    2.9043    2.4587 H   0  0  0  0  0  0  0  0  0  0  0  0
   12.1861    2.1068    3.9374 H   0  0  0  0  0  0  0  0  0  0  0  0
    9.8615    3.6247    4.5798 C   0  0  0  0  0  0  0  0  0  0  0  0
    9.2298    2.4447    4.1795 C   0  0  0  0  0  0  0  0  0  0  0  0
    9.7614    1.7305    3.5720 H   0  0  0  0  0  0  0  0  0  0  0  0
    7.9265    2.2090    4.5676 C   0  0  0  0  0  0  0  0  0  0  0  0
    7.4213    1.3040    4.2679 H   0  0  0  0  0  0  0  0  0  0  0  0
    7.2765    3.1583    5.3513 C   0  0  0  0  0  0  0  0  0  0  0  0
    6.2596    3.0089    5.6749 H   0  0  0  0  0  0  0  0  0  0  0  0
    7.9528    4.3067    5.7141 C   0  0  0  0  0  0  0  0  0  0  0  0
    7.4938    5.0772    6.3208 H   0  0  0  0  0  0  0  0  0  0  0  0
   12.9288    5.6140    4.4878 C   0  0  0  0  0  0  0  0  0  0  0  0
   13.1947    6.3795    3.3499 C   0  0  0  0  0  0  0  0  0  0  0  0
   14.4798    6.8670    3.1709 C   0  0  0  0  0  0  0  0  0  0  0  0
   14.6997    7.4649    2.2991 H   0  0  0  0  0  0  0  0  0  0  0  0
   15.4698    6.6100    4.1022 C   0  0  0  0  0  0  0  0  0  0  0  0
   16.4650    6.9995    3.9507 H   0  0  0  0  0  0  0  0  0  0  0  0
   15.1812    5.8795    5.2410 C   0  0  0  0  0  0  0  0  0  0  0  0
   15.9475    5.7080    5.9820 H   0  0  0  0  0  0  0  0  0  0  0  0
   13.9082    5.3756    5.4554 C   0  0  0  0  0  0  0  0  0  0  0  0
   12.0851    6.6878    2.3932 C   0  0  0  0  0  0  0  0  0  0  0  0
   11.2349    7.0988    2.9453 H   0  0  0  0  0  0  0  0  0  0  0  0
   11.7479    5.7901    1.8741 H   0  0  0  0  0  0  0  0  0  0  0  0
   12.4067    7.4159    1.6544 H   0  0  0  0  0  0  0  0  0  0  0  0
   13.5454    4.6276    6.7002 C   0  0  0  0  0  0  0  0  0  0  0  0
   14.3634    4.6493    7.4142 H   0  0  0  0  0  0  0  0  0  0  0  0
   13.2997    3.5879    6.4801 H   0  0  0  0  0  0  0  0  0  0  0  0
   12.6659    5.0933    7.1588 H   0  0  0  0  0  0  0  0  0  0  0  0
  1  3  1  0  0  0  0
  1  2  1  0  0  0  0
  4 18  1  0  0  0  0
  4  1  1  0  0  0  0
  5  1  1  0  0  0  0
  6 11  2  0  0  0  0
  6  5  1  0  0  0  0
  7 10  1  0  0  0  0
  7  6  1  0  0  0  0
  8  7  1  0  0  0  0
  9  7  1  0  0  0  0
 11  4  1  0  0  0  0
 12 14  2  0  0  0  0
 12 11  1  0  0  0  0
 13 12  1  0  0  0  0
 14 16  1  0  0  0  0
 15 14  1  0  0  0  0
 16 17  1  0  0  0  0
 16 18  2  0  0  0  0
 18 19  1  0  0  0  0
 20  5  1  0  0  0  0
 20 28  1  0  0  0  0
 21 20  2  0  0  0  0
 22 21  1  0  0  0  0
 22 24  2  0  0  0  0
 23 22  1  0  0  0  0
 24 26  1  0  0  0  0
 25 24  1  0  0  0  0
 26 28  2  0  0  0  0
 26 27  1  0  0  0  0
 28 33  1  0  0  0  0
 29 30  1  0  0  0  0
 29 21  1  0  0  0  0
 31 29  1  0  0  0  0
 32 29  1  0  0  0  0
 33 36  1  0  0  0  0
 33 34  1  0  0  0  0
 35 33  1  0  0  0  0
M  END
$$$$
