CSD_code = KAMCEH | q = 0 | S = 0 | Stoichiometry = C26H24Cl2NPPd | MND = 4
 OpenBabel04212202053D

 55 59  0  0  1  0  0  0  0  0999 V2000
   -3.7047   -3.8424   -2.3395 Pd  0  0  0  0  0  0  0  0  0  0  0  0
   -2.1775   -3.7127   -3.8663 N   0  0  0  0  0  4  0  0  0  0  0  0
   -1.5391   -4.5031   -3.7433 H   0  0  0  0  0  0  0  0  0  0  0  0
   -2.7403   -2.0171   -1.4749 P   0  0  0  0  0  4  0  0  0  0  0  0
   -5.4214   -3.8238   -0.9114 Cl  0  0  0  0  0  0  0  0  0  0  0  0
   -4.1607   -5.9444   -3.0339 Cl  0  0  0  0  0  0  0  0  0  0  0  0
   -1.4206   -2.4422   -3.8318 C   0  0  1  0  0  0  0  0  0  0  0  0
   -2.0815   -1.6712   -4.2534 H   0  0  0  0  0  0  0  0  0  0  0  0
   -1.1138   -2.0674   -2.3773 C   0  0  0  0  0  0  0  0  0  0  0  0
   -0.5588   -1.1294   -2.3150 H   0  0  0  0  0  0  0  0  0  0  0  0
   -0.5142   -2.8509   -1.9017 H   0  0  0  0  0  0  0  0  0  0  0  0
   -2.9141   -3.8911   -5.0837 C   0  0  0  0  0  0  0  0  0  0  0  0
   -2.4443   -4.7214   -6.0906 C   0  0  0  0  0  0  0  0  0  0  0  0
   -1.5143   -5.2563   -5.9576 H   0  0  0  0  0  0  0  0  0  0  0  0
   -3.1845   -4.8867   -7.2490 C   0  0  0  0  0  0  0  0  0  0  0  0
   -2.8231   -5.5469   -8.0228 H   0  0  0  0  0  0  0  0  0  0  0  0
   -4.3837   -4.2165   -7.4100 C   0  0  0  0  0  0  0  0  0  0  0  0
   -4.9632   -4.3543   -8.3100 H   0  0  0  0  0  0  0  0  0  0  0  0
   -4.8512   -3.3802   -6.4079 C   0  0  0  0  0  0  0  0  0  0  0  0
   -5.7950   -2.8696   -6.5256 H   0  0  0  0  0  0  0  0  0  0  0  0
   -4.1212   -3.2113   -5.2459 C   0  0  0  0  0  0  0  0  0  0  0  0
   -4.5019   -2.5638   -4.4441 H   0  0  0  0  0  0  0  0  0  0  0  0
   -0.1817   -2.5505   -4.6901 C   0  0  0  0  0  0  0  0  0  0  0  0
    0.8364   -3.4371   -4.3559 C   0  0  0  0  0  0  0  0  0  0  0  0
    0.7667   -4.0324   -3.4558 H   0  0  0  0  0  0  0  0  0  0  0  0
    1.9471   -3.5679   -5.1692 C   0  0  0  0  0  0  0  0  0  0  0  0
    2.7306   -4.2598   -4.8988 H   0  0  0  0  0  0  0  0  0  0  0  0
    2.0520   -2.8174   -6.3284 C   0  0  0  0  0  0  0  0  0  0  0  0
    2.9178   -2.9229   -6.9642 H   0  0  0  0  0  0  0  0  0  0  0  0
    1.0415   -1.9357   -6.6701 C   0  0  0  0  0  0  0  0  0  0  0  0
    1.1150   -1.3512   -7.5748 H   0  0  0  0  0  0  0  0  0  0  0  0
   -0.0699   -1.8048   -5.8560 C   0  0  0  0  0  0  0  0  0  0  0  0
   -0.8609   -1.1213   -6.1302 H   0  0  0  0  0  0  0  0  0  0  0  0
   -2.2247   -2.3845    0.2273 C   0  0  0  0  0  0  0  0  0  0  0  0
   -1.8443   -1.4116    1.1442 C   0  0  0  0  0  0  0  0  0  0  0  0
   -1.8738   -0.3671    0.8665 H   0  0  0  0  0  0  0  0  0  0  0  0
   -1.4426   -1.7880    2.4138 C   0  0  0  0  0  0  0  0  0  0  0  0
   -1.1521   -1.0333    3.1300 H   0  0  0  0  0  0  0  0  0  0  0  0
   -1.4176   -3.1268    2.7691 C   0  0  0  0  0  0  0  0  0  0  0  0
   -1.1098   -3.4133    3.7637 H   0  0  0  0  0  0  0  0  0  0  0  0
   -1.7962   -4.0992    1.8559 C   0  0  0  0  0  0  0  0  0  0  0  0
   -1.7861   -5.1410    2.1391 H   0  0  0  0  0  0  0  0  0  0  0  0
   -2.2004   -3.7318    0.5862 C   0  0  0  0  0  0  0  0  0  0  0  0
   -2.5304   -4.4917   -0.1350 H   0  0  0  0  0  0  0  0  0  0  0  0
   -3.2939   -0.2942   -1.4165 C   0  0  0  0  0  0  0  0  0  0  0  0
   -4.4398   -0.0814   -0.6481 C   0  0  0  0  0  0  0  0  0  0  0  0
   -4.8931   -0.9265   -0.1444 H   0  0  0  0  0  0  0  0  0  0  0  0
   -4.9831    1.1843   -0.5528 C   0  0  0  0  0  0  0  0  0  0  0  0
   -5.8656    1.3490    0.0467 H   0  0  0  0  0  0  0  0  0  0  0  0
   -4.3983    2.2412   -1.2353 C   0  0  0  0  0  0  0  0  0  0  0  0
   -4.8221    3.2317   -1.1630 H   0  0  0  0  0  0  0  0  0  0  0  0
   -3.2778    2.0268   -2.0202 C   0  0  0  0  0  0  0  0  0  0  0  0
   -2.8313    2.8487   -2.5609 H   0  0  0  0  0  0  0  0  0  0  0  0
   -2.7251    0.7610   -2.1194 C   0  0  0  0  0  0  0  0  0  0  0  0
   -1.8544    0.6062   -2.7411 H   0  0  0  0  0  0  0  0  0  0  0  0
  1  4  1  0  0  0  0
  1  5  1  0  0  0  0
  2  7  1  0  0  0  0
  2  3  1  0  0  0  0
  2  1  1  0  0  0  0
  4 45  1  0  0  0  0
  4 34  1  0  0  0  0
  6  1  1  0  0  0  0
  7  8  1  6  0  0  0
  7  9  1  0  0  0  0
  9 10  1  0  0  0  0
  9 11  1  0  0  0  0
  9  4  1  0  0  0  0
 12  2  1  0  0  0  0
 13 14  1  0  0  0  0
 13 12  2  0  0  0  0
 15 13  1  0  0  0  0
 16 15  1  0  0  0  0
 17 15  2  0  0  0  0
 17 19  1  0  0  0  0
 18 17  1  0  0  0  0
 19 21  2  0  0  0  0
 20 19  1  0  0  0  0
 21 12  1  0  0  0  0
 21 22  1  0  0  0  0
 23 24  1  0  0  0  0
 23  7  1  0  0  0  0
 24 25  1  0  0  0  0
 26 27  1  0  0  0  0
 26 24  2  0  0  0  0
 28 26  1  0  0  0  0
 29 28  1  0  0  0  0
 30 28  2  0  0  0  0
 30 32  1  0  0  0  0
 31 30  1  0  0  0  0
 32 23  2  0  0  0  0
 33 32  1  0  0  0  0
 34 43  2  0  0  0  0
 34 35  1  0  0  0  0
 35 37  2  0  0  0  0
 36 35  1  0  0  0  0
 37 39  1  0  0  0  0
 37 38  1  0  0  0  0
 39 40  1  0  0  0  0
 41 42  1  0  0  0  0
 41 39  2  0  0  0  0
 43 41  1  0  0  0  0
 44 43  1  0  0  0  0
 45 46  1  0  0  0  0
 46 48  2  0  0  0  0
 46 47  1  0  0  0  0
 48 49  1  0  0  0  0
 50 51  1  0  0  0  0
 50 48  1  0  0  0  0
 52 50  2  0  0  0  0
 53 52  1  0  0  0  0
 54 52  1  0  0  0  0
 54 45  2  0  0  0  0
 55 54  1  0  0  0  0
M  END
$$$$
