CSD_code = KAMCIM | q = 0 | S = 0 | Stoichiometry = C14H14CdCl2N10S2 | MND = 6
 OpenBabel04212202053D

 43 46  0  0  0  0  0  0  0  0999 V2000
    3.9988   -0.0001   -0.0001 Cd  0  0  0  0  0  0  0  0  0  0  0  0
    2.9353    0.8423   -2.0737 Cl  0  0  0  0  0  0  0  0  0  0  0  0
    2.2013    1.0055    1.4432 N   0  0  0  0  0  0  0  0  0  0  0  0
    2.5011   -1.4299    3.1508 N   0  0  0  0  0  0  0  0  0  0  0  0
    3.4960   -1.0392    2.9680 H   0  0  0  0  0  0  0  0  0  0  0  0
    0.5361   -2.1162    2.4798 N   0  0  0  0  0  0  0  0  0  0  0  0
   -0.1502   -2.2898    1.7285 H   0  0  0  0  0  0  0  0  0  0  0  0
    0.1013    0.4508    1.0418 N   0  0  0  0  0  0  0  0  0  0  0  0
   -0.7267   -0.1173    0.9401 H   0  0  0  0  0  0  0  0  0  0  0  0
    5.3850    1.7097    0.1608 N   0  0  0  0  0  0  0  0  0  0  0  0
    8.0258    2.4883    0.4494 S   0  0  0  0  0  0  0  0  0  0  0  0
    2.2822   -2.6599    3.6914 C   0  0  0  0  0  0  0  0  0  0  0  0
    3.0072   -3.1256    4.3254 H   0  0  0  0  0  0  0  0  0  0  0  0
    1.0639   -3.0961    3.2745 C   0  0  0  0  0  0  0  0  0  0  0  0
    0.5335   -4.0027    3.4777 H   0  0  0  0  0  0  0  0  0  0  0  0
    1.4459   -1.1216    2.3930 C   0  0  0  0  0  0  0  0  0  0  0  0
    1.2674    0.0882    1.6460 C   0  0  0  0  0  0  0  0  0  0  0  0
    0.3209    1.6436    0.4302 C   0  0  0  0  0  0  0  0  0  0  0  0
   -0.4350    2.1448   -0.1381 H   0  0  0  0  0  0  0  0  0  0  0  0
    1.6238    1.9751    0.6974 C   0  0  0  0  0  0  0  0  0  0  0  0
    2.1781    2.8438    0.3974 H   0  0  0  0  0  0  0  0  0  0  0  0
    6.4870    2.0456    0.3586 C   0  0  0  0  0  0  0  0  0  0  0  0
    5.0621   -0.8427    2.0734 Cl  0  0  0  0  0  0  0  0  0  0  0  0
    5.7965   -1.0054   -1.4433 N   0  0  0  0  0  0  0  0  0  0  0  0
    5.4963    1.4304   -3.1503 N   0  0  0  0  0  0  0  0  0  0  0  0
    4.5014    1.0394   -2.9677 H   0  0  0  0  0  0  0  0  0  0  0  0
    7.4613    2.1166   -2.4793 N   0  0  0  0  0  0  0  0  0  0  0  0
    8.1477    2.2899   -1.7279 H   0  0  0  0  0  0  0  0  0  0  0  0
    7.8967   -0.4511   -1.0427 N   0  0  0  0  0  0  0  0  0  0  0  0
    8.7248    0.1166   -0.9415 H   0  0  0  0  0  0  0  0  0  0  0  0
    2.6124   -1.7100   -0.1609 N   0  0  0  0  0  0  0  0  0  0  0  0
   -0.0283   -2.4892   -0.4489 S   0  0  0  0  0  0  0  0  0  0  0  0
    5.7150    2.6607   -3.6904 C   0  0  0  0  0  0  0  0  0  0  0  0
    4.9898    3.1265   -4.3241 H   0  0  0  0  0  0  0  0  0  0  0  0
    6.9332    3.0968   -3.2734 C   0  0  0  0  0  0  0  0  0  0  0  0
    7.4635    4.0036   -3.4762 H   0  0  0  0  0  0  0  0  0  0  0  0
    6.5516    1.1219   -2.3928 C   0  0  0  0  0  0  0  0  0  0  0  0
    6.7303   -0.0882   -1.6463 C   0  0  0  0  0  0  0  0  0  0  0  0
    7.6772   -1.6441   -0.4314 C   0  0  0  0  0  0  0  0  0  0  0  0
    8.4333   -2.1456    0.1363 H   0  0  0  0  0  0  0  0  0  0  0  0
    6.3742   -1.9754   -0.6981 C   0  0  0  0  0  0  0  0  0  0  0  0
    5.8199   -2.8442   -0.3982 H   0  0  0  0  0  0  0  0  0  0  0  0
    1.5105   -2.0461   -0.3583 C   0  0  0  0  0  0  0  0  0  0  0  0
  1 10  1  0  0  0  0
  1  3  1  0  0  0  0
  1 23  1  0  0  0  0
  2  1  1  0  0  0  0
  3 17  1  0  0  0  0
  4 12  1  0  0  0  0
  5  4  1  0  0  0  0
  6 14  1  0  0  0  0
  7  6  1  0  0  0  0
  8 17  1  0  0  0  0
  9  8  1  0  0  0  0
 10 22  2  0  0  0  0
 12 13  1  0  0  0  0
 14 15  1  0  0  0  0
 14 12  2  0  0  0  0
 16  6  1  0  0  0  0
 16  4  1  0  0  0  0
 17 16  2  0  0  0  0
 18 20  2  0  0  0  0
 18  8  1  0  0  0  0
 19 18  1  0  0  0  0
 20  3  1  0  0  0  0
 21 20  1  0  0  0  0
 22 11  2  0  0  0  0
 24 41  1  0  0  0  0
 24  1  1  0  0  0  0
 25 26  1  0  0  0  0
 25 37  1  0  0  0  0
 27 37  1  0  0  0  0
 27 28  1  0  0  0  0
 29 30  1  0  0  0  0
 29 39  1  0  0  0  0
 31  1  1  0  0  0  0
 32 43  2  0  0  0  0
 33 35  2  0  0  0  0
 33 25  1  0  0  0  0
 34 33  1  0  0  0  0
 35 27  1  0  0  0  0
 36 35  1  0  0  0  0
 37 38  2  0  0  0  0
 38 24  1  0  0  0  0
 38 29  1  0  0  0  0
 39 40  1  0  0  0  0
 41 39  2  0  0  0  0
 41 42  1  0  0  0  0
 43 31  2  0  0  0  0
M  END
$$$$
