CSD_code = KAMFUA | q = 0 | S = 0 | Stoichiometry = C18H20Cl2N2NiO2 | MND = 5
 OpenBabel04212202053D

 45 47  0  0  0  0  0  0  0  0999 V2000
    2.2736   -6.6795    3.6100 Ni  0  0  0  0  0  0  0  0  0  0  0  0
    0.5240   -5.7052    3.5993 Cl  0  0  0  0  0  0  0  0  0  0  0  0
    1.4624   -8.4587    2.7394 Cl  0  0  0  0  0  0  0  0  0  0  0  0
    3.9809   -7.4534    3.7135 N   0  0  0  0  0  0  0  0  0  0  0  0
    3.4415   -5.2867    2.4933 N   0  0  0  0  0  0  0  0  0  0  0  0
    2.2653   -7.8346    5.6572 O   0  0  0  0  0  0  0  0  0  0  0  0
    3.1057   -9.8772    6.0875 O   0  0  0  0  0  0  0  0  0  0  0  0
    4.9353   -7.0189    2.8755 C   0  0  0  0  0  0  0  0  0  0  0  0
    6.1620   -7.6774    2.7965 C   0  0  0  0  0  0  0  0  0  0  0  0
    6.9201   -7.3332    2.1115 H   0  0  0  0  0  0  0  0  0  0  0  0
    6.3942   -8.7749    3.6083 C   0  0  0  0  0  0  0  0  0  0  0  0
    7.3337   -9.3030    3.5522 H   0  0  0  0  0  0  0  0  0  0  0  0
    5.4161   -9.1794    4.5089 C   0  0  0  0  0  0  0  0  0  0  0  0
    5.5646  -10.0101    5.1788 H   0  0  0  0  0  0  0  0  0  0  0  0
    4.2214   -8.4787    4.5320 C   0  0  0  0  0  0  0  0  0  0  0  0
    4.5471   -5.8274    2.1215 C   0  0  0  0  0  0  0  0  0  0  0  0
    5.4323   -5.3033    1.0356 C   0  0  0  0  0  0  0  0  0  0  0  0
    4.9974   -4.4109    0.5917 H   0  0  0  0  0  0  0  0  0  0  0  0
    5.5697   -6.0580    0.2625 H   0  0  0  0  0  0  0  0  0  0  0  0
    6.4113   -5.0528    1.4430 H   0  0  0  0  0  0  0  0  0  0  0  0
    2.8945   -4.1513    1.8831 C   0  0  0  0  0  0  0  0  0  0  0  0
    2.9413   -2.9461    2.5920 C   0  0  0  0  0  0  0  0  0  0  0  0
    2.3779   -1.8175    2.0210 C   0  0  0  0  0  0  0  0  0  0  0  0
    2.4173   -0.8797    2.5553 H   0  0  0  0  0  0  0  0  0  0  0  0
    1.7539   -1.8884    0.7880 C   0  0  0  0  0  0  0  0  0  0  0  0
    1.3137   -1.0029    0.3549 H   0  0  0  0  0  0  0  0  0  0  0  0
    1.6656   -3.0989    0.1241 C   0  0  0  0  0  0  0  0  0  0  0  0
    1.1427   -3.1593   -0.8188 H   0  0  0  0  0  0  0  0  0  0  0  0
    2.2280   -4.2489    0.6559 C   0  0  0  0  0  0  0  0  0  0  0  0
    2.0688   -5.5804   -0.0094 C   0  0  0  0  0  0  0  0  0  0  0  0
    1.7414   -6.3217    0.7245 H   0  0  0  0  0  0  0  0  0  0  0  0
    3.0059   -5.9289   -0.4439 H   0  0  0  0  0  0  0  0  0  0  0  0
    1.3246   -5.5240   -0.7986 H   0  0  0  0  0  0  0  0  0  0  0  0
    3.5854   -2.9221    3.9429 C   0  0  0  0  0  0  0  0  0  0  0  0
    3.4045   -1.9737    4.4410 H   0  0  0  0  0  0  0  0  0  0  0  0
    4.6629   -3.0781    3.8687 H   0  0  0  0  0  0  0  0  0  0  0  0
    3.1719   -3.7291    4.5518 H   0  0  0  0  0  0  0  0  0  0  0  0
    3.0913   -8.7092    5.4788 C   0  0  0  0  0  0  0  0  0  0  0  0
    1.9549  -10.1858    6.8907 C   0  0  0  0  0  0  0  0  0  0  0  0
    1.7055   -9.3118    7.5005 H   0  0  0  0  0  0  0  0  0  0  0  0
    2.2768  -11.0104    7.5295 H   0  0  0  0  0  0  0  0  0  0  0  0
    0.7758  -10.5790    6.0148 C   0  0  0  0  0  0  0  0  0  0  0  0
   -0.0780  -10.8194    6.6412 H   0  0  0  0  0  0  0  0  0  0  0  0
    1.0289  -11.4431    5.4058 H   0  0  0  0  0  0  0  0  0  0  0  0
    0.5078   -9.7578    5.3542 H   0  0  0  0  0  0  0  0  0  0  0  0
  1  4  1  0  0  0  0
  2  1  1  0  0  0  0
  3  1  1  0  0  0  0
  4 15  1  0  0  0  0
  5  1  1  0  0  0  0
  7 39  1  0  0  0  0
  8  4  1  0  0  0  0
  9  8  1  0  0  0  0
  9 11  2  0  0  0  0
 10  9  1  0  0  0  0
 11 13  1  0  0  0  0
 12 11  1  0  0  0  0
 13 15  2  0  0  0  0
 13 14  1  0  0  0  0
 15 38  1  0  0  0  0
 16  5  1  0  0  0  0
 16  8  2  0  0  0  0
 17 20  1  0  0  0  0
 17 16  1  0  0  0  0
 18 17  1  0  0  0  0
 19 17  1  0  0  0  0
 21  5  1  0  0  0  0
 21 22  1  0  0  0  0
 22 34  1  0  0  0  0
 23 24  1  0  0  0  0
 23 22  2  0  0  0  0
 25 23  1  0  0  0  0
 26 25  1  0  0  0  0
 27 29  1  0  0  0  0
 27 25  2  0  0  0  0
 28 27  1  0  0  0  0
 29 21  2  0  0  0  0
 30 29  1  0  0  0  0
 30 31  1  0  0  0  0
 32 30  1  0  0  0  0
 33 30  1  0  0  0  0
 34 35  1  0  0  0  0
 34 37  1  0  0  0  0
 36 34  1  0  0  0  0
 38  6  2  0  0  0  0
 38  7  1  0  0  0  0
 39 40  1  0  0  0  0
 39 41  1  0  0  0  0
 42 43  1  0  0  0  0
 42 39  1  0  0  0  0
 44 42  1  0  0  0  0
 45 42  1  0  0  0  0
M  END
$$$$
