CSD_code = KAMGAH | q = 0 | S = 0 | Stoichiometry = C16H14Br2F2N2NiO3 | MND = 6
 OpenBabel04212202053D

 40 41  0  0  1  0  0  0  0  0999 V2000
    7.5964    2.9971    7.5792 Ni  0  0  0  0  0  0  0  0  0  0  0  0
    6.8317    1.0020    7.8586 Br  0  0  0  0  0  0  0  0  0  0  0  0
    9.1227    2.8431    9.3136 Br  0  0  0  0  0  0  0  0  0  0  0  0
    7.9953    1.4317    4.8534 F   0  0  0  0  0  0  0  0  0  0  0  0
   12.2574    2.4483    6.5714 F   0  0  0  0  0  0  0  0  0  0  0  0
    6.3179    4.4005    9.0237 O   0  0  0  0  0  0  0  0  0  0  0  0
    6.0742    6.4882    9.7754 O   0  0  0  0  0  0  0  0  0  0  0  0
    6.8334    3.6635    6.3930 O   0  0  0  0  0  0  0  0  0  0  0  0
    8.4172    5.1540    7.5074 N   0  0  0  0  0  0  0  0  0  0  0  0
    9.5803    3.1912    6.1954 N   0  0  0  0  0  0  0  0  0  0  0  0
    7.8233    6.0725    8.2530 C   0  0  2  0  0  3  0  0  0  0  0  0
    8.2670    7.3890    8.3016 C   0  0  0  0  0  0  0  0  0  0  0  0
    7.7581    8.1089    8.9208 H   0  0  0  0  0  0  0  0  0  0  0  0
    9.3750    7.7246    7.5386 C   0  0  0  0  0  0  0  0  0  0  0  0
    9.7603    8.7330    7.5526 H   0  0  0  0  0  0  0  0  0  0  0  0
    9.9872    6.7571    6.7591 C   0  0  0  0  0  0  0  0  0  0  0  0
   10.8577    7.0043    6.1744 H   0  0  0  0  0  0  0  0  0  0  0  0
    9.4702    5.4593    6.7557 C   0  0  0  0  0  0  0  0  0  0  0  0
    6.6622    5.5626    9.0482 C   0  0  0  0  0  0  0  0  0  0  0  0
    4.9648    6.0548   10.5797 C   0  0  0  0  0  0  0  0  0  0  0  0
    5.3334    5.3334   11.3165 H   0  0  0  0  0  0  0  0  0  0  0  0
    4.2425    5.5458    9.9331 H   0  0  0  0  0  0  0  0  0  0  0  0
    4.3586    7.2725   11.2480 C   0  0  0  0  0  0  0  0  0  0  0  0
    3.5221    6.9647   11.8679 H   0  0  0  0  0  0  0  0  0  0  0  0
    4.0043    7.9765   10.4998 H   0  0  0  0  0  0  0  0  0  0  0  0
    5.0983    7.7668   11.8718 H   0  0  0  0  0  0  0  0  0  0  0  0
   10.0644    4.3517    5.9835 C   0  0  0  0  0  0  0  0  0  0  0  0
   11.1628    4.6542    5.0175 C   0  0  0  0  0  0  0  0  0  0  0  0
   11.3368    3.8025    4.3628 H   0  0  0  0  0  0  0  0  0  0  0  0
   12.0850    4.8637    5.5594 H   0  0  0  0  0  0  0  0  0  0  0  0
   10.9061    5.5197    4.4104 H   0  0  0  0  0  0  0  0  0  0  0  0
   10.0951    1.9962    5.7329 C   0  0  0  0  0  0  0  0  0  0  0  0
    9.2495    1.0519    5.1361 C   0  0  0  0  0  0  0  0  0  0  0  0
    9.6732   -0.2182    4.8067 C   0  0  0  0  0  0  0  0  0  0  0  0
    8.9754   -0.9012    4.3509 H   0  0  0  0  0  0  0  0  0  0  0  0
   10.9760   -0.5921    5.0940 C   0  0  0  0  0  0  0  0  0  0  0  0
   11.3123   -1.5889    4.8599 H   0  0  0  0  0  0  0  0  0  0  0  0
   11.8465    0.3069    5.6859 C   0  0  0  0  0  0  0  0  0  0  0  0
   12.8623    0.0363    5.9244 H   0  0  0  0  0  0  0  0  0  0  0  0
   11.4075    1.5806    5.9868 C   0  0  0  0  0  0  0  0  0  0  0  0
  1  2  1  0  0  0  0
  1  3  1  0  0  0  0
  4 33  1  0  0  0  0
  6 19  2  0  0  0  0
  7 20  1  0  0  0  0
  8  1  2  0  0  0  0
  9  1  1  0  0  0  0
  9 11  1  0  0  0  0
 11 12  1  0  0  0  0
 11 19  1  1  0  0  0
 12 13  1  0  0  0  0
 14 15  1  0  0  0  0
 14 12  2  0  0  0  0
 16 14  1  0  0  0  0
 17 16  1  0  0  0  0
 18 16  2  0  0  0  0
 18  9  1  0  0  0  0
 19  7  1  0  0  0  0
 20 23  1  0  0  0  0
 20 21  1  0  0  0  0
 22 20  1  0  0  0  0
 23 24  1  0  0  0  0
 23 26  1  0  0  0  0
 25 23  1  0  0  0  0
 27 10  2  0  0  0  0
 27 18  1  0  0  0  0
 28 30  1  0  0  0  0
 28 27  1  0  0  0  0
 29 28  1  0  0  0  0
 31 28  1  0  0  0  0
 32 40  1  0  0  0  0
 32 10  1  0  0  0  0
 33 32  2  0  0  0  0
 34 36  2  0  0  0  0
 34 33  1  0  0  0  0
 35 34  1  0  0  0  0
 36 38  1  0  0  0  0
 37 36  1  0  0  0  0
 38 39  1  0  0  0  0
 38 40  2  0  0  0  0
 40  5  1  0  0  0  0
M  END
$$$$
