CSD_code = KAMWAZ | q = 0 | S = 0 | Stoichiometry = C20H18Br2HgN10 | MND = 4
 OpenBabel04212202053D

 51 56  0  0  0  0  0  0  0  0999 V2000
    0.0284    6.4388    4.3475 Hg  0  0  0  0  0  0  0  0  0  0  0  0
   -0.3666    6.0871    1.9629 Br  0  0  0  0  0  0  0  0  0  0  0  0
    1.5650    8.3195    4.1563 N   0  0  0  0  0  0  0  0  0  0  0  0
    2.1872   10.2252    5.0551 N   0  0  0  0  0  0  0  0  0  0  0  0
    1.2939   11.4855    6.8356 N   0  0  0  0  0  0  0  0  0  0  0  0
    0.4758   12.4911    6.4685 N   0  0  0  0  0  0  0  0  0  0  0  0
   -0.5743   12.4868    7.1671 N   0  0  0  0  0  0  0  0  0  0  0  0
    1.9794    8.9099    5.2508 C   0  0  0  0  0  3  0  0  0  0  0  0
    2.1472    8.4124    6.1852 H   0  0  0  0  0  0  0  0  0  0  0  0
    1.5027    9.2965    3.2030 C   0  0  0  0  0  0  0  0  0  0  0  0
    1.2116    9.0659    2.1971 H   0  0  0  0  0  0  0  0  0  0  0  0
    1.8767   10.4859    3.7486 C   0  0  0  0  0  0  0  0  0  0  0  0
    1.9439   11.4699    3.3316 H   0  0  0  0  0  0  0  0  0  0  0  0
    2.4779   11.1922    6.0855 C   0  0  0  0  0  0  0  0  0  0  0  0
    3.2479   10.7935    6.7554 H   0  0  0  0  0  0  0  0  0  0  0  0
    2.8173   12.1206    5.6167 H   0  0  0  0  0  0  0  0  0  0  0  0
    0.7004   10.7666    7.8380 C   0  0  0  0  0  0  0  0  0  0  0  0
    1.0503    9.6415    8.5728 C   0  0  0  0  0  0  0  0  0  0  0  0
    1.9864    9.1256    8.4305 H   0  0  0  0  0  0  0  0  0  0  0  0
    0.1321    9.2036    9.5006 C   0  0  0  0  0  0  0  0  0  0  0  0
    0.3527    8.3180   10.0749 H   0  0  0  0  0  0  0  0  0  0  0  0
   -1.0858    9.8656    9.7118 C   0  0  0  0  0  0  0  0  0  0  0  0
   -1.7639    9.4721   10.4533 H   0  0  0  0  0  0  0  0  0  0  0  0
   -1.4335   10.9921    9.0047 C   0  0  0  0  0  0  0  0  0  0  0  0
   -2.3641   11.5110    9.1653 H   0  0  0  0  0  0  0  0  0  0  0  0
   -0.5249   11.4447    8.0489 C   0  0  0  0  0  0  0  0  0  0  0  0
    0.4242    6.0771    6.7306 Br  0  0  0  0  0  0  0  0  0  0  0  0
   -1.5250    8.3048    4.5520 N   0  0  0  0  0  0  0  0  0  0  0  0
   -2.1617   10.2126    3.6680 N   0  0  0  0  0  0  0  0  0  0  0  0
   -1.2868   11.4742    1.8797 N   0  0  0  0  0  0  0  0  0  0  0  0
   -0.4518   12.4672    2.2436 N   0  0  0  0  0  0  0  0  0  0  0  0
    0.5886   12.4560    1.5306 N   0  0  0  0  0  0  0  0  0  0  0  0
   -1.9421    8.9008    3.4615 C   0  0  0  0  0  3  0  0  0  0  0  0
   -2.1020    8.4102    2.5221 H   0  0  0  0  0  0  0  0  0  0  0  0
   -1.4738    9.2738    5.5138 C   0  0  0  0  0  0  0  0  0  0  0  0
   -1.1831    9.0369    6.5184 H   0  0  0  0  0  0  0  0  0  0  0  0
   -1.8567   10.4646    4.9774 C   0  0  0  0  0  0  0  0  0  0  0  0
   -1.9338   11.4446    5.4019 H   0  0  0  0  0  0  0  0  0  0  0  0
   -2.4617   11.1852    2.6454 C   0  0  0  0  0  0  0  0  0  0  0  0
   -3.2432   10.7937    1.9845 H   0  0  0  0  0  0  0  0  0  0  0  0
   -2.7895   12.1131    3.1232 H   0  0  0  0  0  0  0  0  0  0  0  0
   -0.7153   10.7564    0.8638 C   0  0  0  0  0  0  0  0  0  0  0  0
   -1.0897    9.6425    0.1241 C   0  0  0  0  0  0  0  0  0  0  0  0
   -2.0308    9.1381    0.2747 H   0  0  0  0  0  0  0  0  0  0  0  0
   -0.1899    9.2013   -0.8199 C   0  0  0  0  0  0  0  0  0  0  0  0
   -0.4295    8.3239   -1.3993 H   0  0  0  0  0  0  0  0  0  0  0  0
    1.0334    9.8495   -1.0417 C   0  0  0  0  0  0  0  0  0  0  0  0
    1.6965    9.4538   -1.7956 H   0  0  0  0  0  0  0  0  0  0  0  0
    1.4050   10.9656   -0.3300 C   0  0  0  0  0  0  0  0  0  0  0  0
    2.3399   11.4739   -0.4988 H   0  0  0  0  0  0  0  0  0  0  0  0
    0.5151   11.4215    0.6417 C   0  0  0  0  0  0  0  0  0  0  0  0
  1 28  1  0  0  0  0
  1 27  1  0  0  0  0
  2  1  1  0  0  0  0
  3  1  1  0  0  0  0
  3  8  1  0  0  0  0
  4  8  1  0  0  0  0
  4 14  1  0  0  0  0
  5 17  1  0  0  0  0
  6  5  1  0  0  0  0
  6  7  2  0  0  0  0
  7 26  1  0  0  0  0
  8  9  1  0  0  0  0
 10 12  2  0  0  0  0
 10  3  1  0  0  0  0
 11 10  1  0  0  0  0
 12  4  1  0  0  0  0
 13 12  1  0  0  0  0
 14 15  1  0  0  0  0
 14  5  1  0  0  0  0
 16 14  1  0  0  0  0
 17 26  2  0  0  0  0
 17 18  1  0  0  0  0
 18 20  2  0  0  0  0
 19 18  1  0  0  0  0
 20 22  1  0  0  0  0
 20 21  1  0  0  0  0
 22 23  1  0  0  0  0
 24 25  1  0  0  0  0
 24 22  2  0  0  0  0
 26 24  1  0  0  0  0
 28 35  1  0  0  0  0
 29 37  1  0  0  0  0
 30 31  1  0  0  0  0
 30 39  1  0  0  0  0
 32 31  2  0  0  0  0
 33 29  1  0  0  0  0
 33 28  1  0  0  0  0
 34 33  1  0  0  0  0
 35 36  1  0  0  0  0
 37 38  1  0  0  0  0
 37 35  2  0  0  0  0
 39 41  1  0  0  0  0
 39 29  1  0  0  0  0
 40 39  1  0  0  0  0
 42 30  1  0  0  0  0
 43 44  1  0  0  0  0
 43 42  2  0  0  0  0
 45 43  1  0  0  0  0
 46 45  1  0  0  0  0
 47 45  2  0  0  0  0
 47 49  1  0  0  0  0
 48 47  1  0  0  0  0
 49 51  2  0  0  0  0
 50 49  1  0  0  0  0
 51 42  1  0  0  0  0
 51 32  1  0  0  0  0
M  END
$$$$
