CSD_code = KAMZAC | q = 0 | S = 0 | Stoichiometry = C23H22ClN4PPtS | MND = 4
 OpenBabel04212202053D

 53 60  0  0  1  0  0  0  0  0999 V2000
    4.3333   14.3259    4.0475 C   0  0  0  0  0  0  0  0  0  0  0  0
    3.3543   14.3208    5.0404 C   0  0  0  0  0  0  0  0  0  0  0  0
    3.2074   13.4314    5.6365 H   0  0  0  0  0  0  0  0  0  0  0  0
    2.5599   15.4183    5.2977 C   0  0  0  0  0  0  0  0  0  0  0  0
    1.8085   15.3853    6.0730 H   0  0  0  0  0  0  0  0  0  0  0  0
    2.7246   16.5783    4.5498 C   0  0  0  0  0  0  0  0  0  0  0  0
    3.7103   16.6185    3.5471 C   0  0  0  0  0  0  0  0  0  0  0  0
    4.5205   15.5070    3.2896 C   0  0  0  0  0  0  0  0  0  0  0  0
    1.9876   17.8095    4.6681 C   0  0  0  0  0  0  0  0  0  0  0  0
    2.4240   18.7743    3.7495 C   0  0  0  0  0  0  0  0  0  0  0  0
    1.8555   20.0344    3.6835 C   0  0  0  0  0  0  0  0  0  0  0  0
    2.2102   20.7584    2.9663 H   0  0  0  0  0  0  0  0  0  0  0  0
    0.8278   20.3341    4.5574 C   0  0  0  0  0  0  0  0  0  0  0  0
    0.3681   21.3104    4.5249 H   0  0  0  0  0  0  0  0  0  0  0  0
    0.3802   19.3904    5.4768 C   0  0  0  0  0  0  0  0  0  0  0  0
   -0.4242   19.6458    6.1505 H   0  0  0  0  0  0  0  0  0  0  0  0
    0.9505   18.1353    5.5378 C   0  0  0  0  0  0  0  0  0  0  0  0
    0.5984   17.4079    6.2536 H   0  0  0  0  0  0  0  0  0  0  0  0
    5.5869   15.4250    2.3001 C   0  0  0  0  0  0  0  0  0  0  0  0
    5.9897   16.4422    1.4353 C   0  0  0  0  0  0  0  0  0  0  0  0
    5.4916   17.3952    1.4491 H   0  0  0  0  0  0  0  0  0  0  0  0
    7.0331   16.2315    0.5538 C   0  0  0  0  0  0  0  0  0  0  0  0
    7.3456   17.0190   -0.1153 H   0  0  0  0  0  0  0  0  0  0  0  0
    7.6657   14.9985    0.5462 C   0  0  0  0  0  0  0  0  0  0  0  0
    8.4852   14.7883   -0.1217 H   0  0  0  0  0  0  0  0  0  0  0  0
    7.2209   14.0256    1.4224 C   0  0  0  0  0  0  0  0  0  0  0  0
    7.6852   13.0471    1.4466 H   0  0  0  0  0  0  0  0  0  0  0  0
    5.5010    9.4537    4.8340 C   0  0  0  0  0  0  0  0  0  0  0  0
    5.3747    9.0572    3.8210 H   0  0  0  0  0  0  0  0  0  0  0  0
    6.5753    9.5013    5.0405 H   0  0  0  0  0  0  0  0  0  0  0  0
    3.0031   10.6493    4.8122 C   0  0  0  0  0  0  0  0  0  0  0  0
    2.3416   11.5041    4.9803 H   0  0  0  0  0  0  0  0  0  0  0  0
    2.8080   10.2668    3.8036 H   0  0  0  0  0  0  0  0  0  0  0  0
    4.9188   11.3604    6.7574 C   0  0  0  0  0  0  0  0  0  0  0  0
    5.9788   11.4437    7.0243 H   0  0  0  0  0  0  0  0  0  0  0  0
    4.4166   12.2744    7.0883 H   0  0  0  0  0  0  0  0  0  0  0  0
    5.0574    8.9956    7.1503 C   0  0  0  0  0  0  0  0  0  0  0  0
    4.6799    8.2124    7.8157 H   0  0  0  0  0  0  0  0  0  0  0  0
    6.1237    9.1420    7.3409 H   0  0  0  0  0  0  0  0  0  0  0  0
    3.4533    8.4007    5.5223 C   0  0  0  0  0  0  0  0  0  0  0  0
    3.3071    8.0979    4.4822 H   0  0  0  0  0  0  0  0  0  0  0  0
    3.0692    7.6147    6.1805 H   0  0  0  0  0  0  0  0  0  0  0  0
    2.9375   10.0510    7.1404 C   0  0  0  0  0  0  0  0  0  0  0  0
    2.5343    9.2900    7.8163 H   0  0  0  0  0  0  0  0  0  0  0  0
    2.4121   10.9941    7.3135 H   0  0  0  0  0  0  0  0  0  0  0  0
    6.2177   14.2267    2.2701 N   0  0  0  0  0  0  0  0  0  0  0  0
    2.6911    9.6137    5.7758 N   0  0  1  0  0  0  0  0  0  0  0  0
    4.8731    8.5545    5.7801 N   0  0  1  0  0  0  0  0  0  0  0  0
    4.3462   10.2277    7.4552 N   0  0  2  0  0  0  0  0  0  0  0  0
    4.7934   11.1771    4.9018 P   0  0  1  0  0  4  0  0  0  0  0  0
    3.7288   18.1829    2.7480 S   0  0  0  0  0  0  0  0  0  0  0  0
    5.5474   12.8194    3.5213 Pt  0  0  2  0  0  0  0  0  0  0  0  0
    7.0323   11.1622    2.7799 Cl  0  0  0  0  0  0  0  0  0  0  0  0
  1  2  1  0  0  0  0
  2  4  2  0  0  0  0
  2  3  1  0  0  0  0
  4  5  1  0  0  0  0
  6  9  1  0  0  0  0
  6  4  1  0  0  0  0
  7  6  2  0  0  0  0
  8  7  1  0  0  0  0
  8  1  1  0  0  0  0
  9 17  1  0  0  0  0
 10  9  2  0  0  0  0
 11 10  1  0  0  0  0
 11 13  2  0  0  0  0
 12 11  1  0  0  0  0
 13 15  1  0  0  0  0
 14 13  1  0  0  0  0
 15 17  2  0  0  0  0
 15 16  1  0  0  0  0
 17 18  1  0  0  0  0
 19  8  2  0  0  0  0
 20 21  1  0  0  0  0
 20 19  1  0  0  0  0
 22 20  2  0  0  0  0
 23 22  1  0  0  0  0
 24 22  1  0  0  0  0
 24 26  2  0  0  0  0
 25 24  1  0  0  0  0
 26 27  1  0  0  0  0
 26 46  1  0  0  0  0
 28 50  1  0  0  0  0
 28 30  1  0  0  0  0
 29 28  1  0  0  0  0
 31 32  1  0  0  0  0
 33 31  1  0  0  0  0
 34 35  1  0  0  0  0
 34 36  1  0  0  0  0
 37 39  1  0  0  0  0
 37 49  1  0  0  0  0
 37 38  1  0  0  0  0
 40 47  1  0  0  0  0
 40 48  1  0  0  0  0
 40 42  1  0  0  0  0
 41 40  1  0  0  0  0
 43 45  1  0  0  0  0
 43 49  1  0  0  0  0
 43 44  1  0  0  0  0
 46 19  1  0  0  0  0
 46 52  1  0  0  0  0
 47 31  1  6  0  0  0
 47 43  1  0  0  0  0
 48 28  1  6  0  0  0
 48 37  1  0  0  0  0
 49 34  1  6  0  0  0
 50 31  1  6  0  0  0
 50 34  1  0  0  0  0
 51  7  1  0  0  0  0
 51 10  1  0  0  0  0
 52 53  1  1  0  0  0
 52  1  2  0  0  0  0
 52 50  1  0  0  0  0
M  END
$$$$
