CSD_code = KANPOF | q = 0 | S = 0 | Stoichiometry = C7H11Cl3IrN3 | MND = 6
 OpenBabel04212202053D

 25 26  0  0  0  0  0  0  0  0999 V2000
    0.4398    5.8477    4.1505 Ir  0  0  0  0  0  0  0  0  0  0  0  0
    0.1167    6.0258    1.8816 Cl  0  0  0  0  0  0  0  0  0  0  0  0
    0.6003    3.4861    4.0543 Cl  0  0  0  0  0  0  0  0  0  0  0  0
    0.5375    8.2075    4.3805 Cl  0  0  0  0  0  0  0  0  0  0  0  0
   -1.5470    5.7956    4.3720 N   0  0  0  0  0  0  0  0  0  0  0  0
    0.9692    5.6986    6.0998 N   0  0  0  0  0  0  0  0  0  0  0  0
    2.5240    5.9285    3.9629 N   0  0  0  0  0  4  0  0  0  0  0  0
   -2.1795    6.6403    5.1930 C   0  0  0  0  0  3  0  0  0  0  0  0
   -3.5564    6.6844    5.3007 C   0  0  0  0  0  0  0  0  0  0  0  0
   -4.3228    5.8213    4.5331 C   0  0  0  0  0  0  0  0  0  0  0  0
   -3.6658    4.9431    3.6876 C   0  0  0  0  0  0  0  0  0  0  0  0
   -2.2838    4.9597    3.6332 C   0  0  0  0  0  0  0  0  0  0  0  0
    2.2007    5.4872    6.3213 C   0  0  0  0  0  3  0  0  0  0  0  0
    3.1246    5.3227    5.1573 C   0  0  0  0  0  0  0  0  0  0  0  0
   -1.5624    7.3258    5.7570 H   0  0  0  0  0  0  0  0  0  0  0  0
   -4.0154    7.3926    5.9720 H   0  0  0  0  0  0  0  0  0  0  0  0
   -5.4003    5.8373    4.5903 H   0  0  0  0  0  0  0  0  0  0  0  0
   -4.2115    4.2517    3.0661 H   0  0  0  0  0  0  0  0  0  0  0  0
   -1.7504    4.2861    2.9774 H   0  0  0  0  0  0  0  0  0  0  0  0
    0.3668    5.7810    6.9147 H   0  0  0  0  0  0  0  0  0  0  0  0
    2.6170    5.3801    7.3204 H   0  0  0  0  0  0  0  0  0  0  0  0
    4.1167    5.7301    5.3837 H   0  0  0  0  0  0  0  0  0  0  0  0
    3.2194    4.2424    4.9867 H   0  0  0  0  0  0  0  0  0  0  0  0
    2.7432    6.9271    3.9081 H   0  0  0  0  0  0  0  0  0  0  0  0
    2.8567    5.4841    3.1069 H   0  0  0  0  0  0  0  0  0  0  0  0
  1  5  1  0  0  0  0
  1  4  1  0  0  0  0
  1  6  1  0  0  0  0
  2  1  1  0  0  0  0
  3  1  1  0  0  0  0
  5  8  1  0  0  0  0
  6 13  1  0  0  0  0
  6 20  1  0  0  0  0
  7  1  1  0  0  0  0
  7 14  1  0  0  0  0
  8  9  1  0  0  0  0
  8 15  1  0  0  0  0
  9 16  1  0  0  0  0
 10 17  1  0  0  0  0
 10  9  2  0  0  0  0
 11 10  1  0  0  0  0
 12 11  2  0  0  0  0
 12  5  1  0  0  0  0
 13 21  1  0  0  0  0
 14 22  1  0  0  0  0
 14 13  1  0  0  0  0
 18 11  1  0  0  0  0
 19 12  1  0  0  0  0
 23 14  1  0  0  0  0
 24  7  1  0  0  0  0
 25  7  1  0  0  0  0
M  END
$$$$
