CSD_code = KANSIB | q = 1 | S = 0 | Stoichiometry = C12H16BrN4Zn(1+) | MND = 5
 OpenBabel04212202053D

 34 37  0  0  0  0  0  0  0  0999 V2000
    7.8360    0.5884    3.9339 Zn  0  0  0  0  0  0  0  0  0  0  0  0
    7.8360   -1.6872    3.9339 Br  0  0  0  0  0  0  0  0  0  0  0  0
    7.4076    1.1416    1.9203 N   0  0  0  0  0  0  0  0  0  0  0  0
    9.7904    1.3662    3.1992 N   0  0  0  0  0  4  0  0  0  0  0  0
   10.4262    1.7925    3.8684 H   0  0  0  0  0  0  0  0  0  0  0  0
   10.2829    0.5635    2.8052 H   0  0  0  0  0  0  0  0  0  0  0  0
    6.3802    0.6553    1.2286 C   0  0  0  0  0  3  0  0  0  0  0  0
    5.6564    0.0790    1.7886 H   0  0  0  0  0  0  0  0  0  0  0  0
    6.2404    0.8467   -0.1334 C   0  0  0  0  0  0  0  0  0  0  0  0
    5.3953    0.4297   -0.6554 H   0  0  0  0  0  0  0  0  0  0  0  0
    7.2127    1.5749   -0.8035 C   0  0  0  0  0  0  0  0  0  0  0  0
    7.1415    1.7440   -1.8663 H   0  0  0  0  0  0  0  0  0  0  0  0
    8.2897    2.0674   -0.0847 C   0  0  0  0  0  0  0  0  0  0  0  0
    9.0737    2.6244   -0.5726 H   0  0  0  0  0  0  0  0  0  0  0  0
    8.3552    1.8238    1.2802 C   0  0  0  0  0  0  0  0  0  0  0  0
    9.5026    2.3195    2.1213 C   0  0  0  0  0  0  0  0  0  0  0  0
   10.3738    2.5017    1.4818 H   0  0  0  0  0  0  0  0  0  0  0  0
    9.2102    3.2729    2.5754 H   0  0  0  0  0  0  0  0  0  0  0  0
    8.2645    1.1416    5.9475 N   0  0  0  0  0  0  0  0  0  0  0  0
    9.2918    0.6553    6.6392 C   0  0  0  0  0  3  0  0  0  0  0  0
   10.0157    0.0790    6.0793 H   0  0  0  0  0  0  0  0  0  0  0  0
    9.4316    0.8467    8.0012 C   0  0  0  0  0  0  0  0  0  0  0  0
   10.2768    0.4297    8.5232 H   0  0  0  0  0  0  0  0  0  0  0  0
    8.4593    1.5749    8.6713 C   0  0  0  0  0  0  0  0  0  0  0  0
    8.5305    1.7440    9.7341 H   0  0  0  0  0  0  0  0  0  0  0  0
    7.3824    2.0674    7.9525 C   0  0  0  0  0  0  0  0  0  0  0  0
    6.5984    2.6243    8.4403 H   0  0  0  0  0  0  0  0  0  0  0  0
    7.3168    1.8238    6.5876 C   0  0  0  0  0  0  0  0  0  0  0  0
    6.1694    2.3195    5.7464 C   0  0  0  0  0  0  0  0  0  0  0  0
    5.8816    1.3662    4.6686 N   0  0  0  0  0  4  0  0  0  0  0  0
    5.2459    1.7925    3.9994 H   0  0  0  0  0  0  0  0  0  0  0  0
    5.3892    0.5635    5.0626 H   0  0  0  0  0  0  0  0  0  0  0  0
    5.2982    2.5017    6.3860 H   0  0  0  0  0  0  0  0  0  0  0  0
    6.4619    3.2729    5.2923 H   0  0  0  0  0  0  0  0  0  0  0  0
  1  2  1  0  0  0  0
  1 30  1  0  0  0  0
  1 19  1  0  0  0  0
  3  1  1  0  0  0  0
  4  5  1  0  0  0  0
  4  1  1  0  0  0  0
  6  4  1  0  0  0  0
  7  8  1  0  0  0  0
  7  3  1  0  0  0  0
  9  7  1  0  0  0  0
 10  9  1  0  0  0  0
 11  9  2  0  0  0  0
 11 13  1  0  0  0  0
 12 11  1  0  0  0  0
 13 15  2  0  0  0  0
 14 13  1  0  0  0  0
 15  3  1  0  0  0  0
 15 16  1  0  0  0  0
 16 18  1  0  0  0  0
 16  4  1  0  0  0  0
 17 16  1  0  0  0  0
 19 28  1  0  0  0  0
 19 20  1  0  0  0  0
 20 22  1  0  0  0  0
 21 20  1  0  0  0  0
 22 23  1  0  0  0  0
 22 24  2  0  0  0  0
 24 25  1  0  0  0  0
 26 27  1  0  0  0  0
 26 24  1  0  0  0  0
 28 26  2  0  0  0  0
 29 33  1  0  0  0  0
 29 28  1  0  0  0  0
 30 32  1  0  0  0  0
 30 29  1  0  0  0  0
 31 30  1  0  0  0  0
 34 29  1  0  0  0  0
M  END
$$$$
