CSD_code = KANSUN | q = 0 | S = 0 | Stoichiometry = C9H12Cl2N2Zn | MND = 4
 OpenBabel04212202053D

 26 27  0  0  0  0  0  0  0  0999 V2000
    2.3149    1.9600    1.4731 Zn  0  0  0  0  0  0  0  0  0  0  0  0
    1.7354   -0.0551    2.1402 Cl  0  0  0  0  0  0  0  0  0  0  0  0
    2.3840    1.9600   -0.6380 N   0  0  0  0  0  0  0  0  0  0  0  0
    4.4305    1.9600    1.1633 N   0  0  0  0  0  0  0  0  0  0  0  0
    1.3283    1.9600   -1.4434 C   0  0  0  0  0  3  0  0  0  0  0  0
    0.3630    1.9600   -0.9571 H   0  0  0  0  0  0  0  0  0  0  0  0
    1.4439    1.9600   -2.8207 C   0  0  0  0  0  0  0  0  0  0  0  0
    0.5634    1.9600   -3.4421 H   0  0  0  0  0  0  0  0  0  0  0  0
    2.7159    1.9600   -3.3755 C   0  0  0  0  0  0  0  0  0  0  0  0
    2.8516    1.9600   -4.4465 H   0  0  0  0  0  0  0  0  0  0  0  0
    3.8100    1.9600   -2.5305 C   0  0  0  0  0  0  0  0  0  0  0  0
    4.8146    1.9600   -2.9251 H   0  0  0  0  0  0  0  0  0  0  0  0
    3.6037    1.9600   -1.1528 C   0  0  0  0  0  0  0  0  0  0  0  0
    4.7965    1.9600   -0.2296 C   0  0  0  0  0  0  0  0  0  0  0  0
    5.3978    1.0713   -0.4657 H   0  0  0  0  0  0  0  0  0  0  0  0
    5.2946    1.9600    2.0927 C   0  0  0  0  0  3  0  0  0  0  0  0
    4.8431    1.9600    3.5094 C   0  0  0  0  0  0  0  0  0  0  0  0
    3.7562    1.9600    3.5729 H   0  0  0  0  0  0  0  0  0  0  0  0
    5.2271    1.0793    4.0218 H   0  0  0  0  0  0  0  0  0  0  0  0
    6.7828    1.9600    1.9070 C   0  0  0  0  0  0  0  0  0  0  0  0
    7.0899    1.9600    0.8664 H   0  0  0  0  0  0  0  0  0  0  0  0
    7.2018    1.0824    2.3965 H   0  0  0  0  0  0  0  0  0  0  0  0
    1.7354    3.9751    2.1402 Cl  0  0  0  0  0  0  0  0  0  0  0  0
    5.2271    2.8407    4.0218 H   0  0  0  0  0  0  0  0  0  0  0  0
    7.2018    2.8376    2.3965 H   0  0  0  0  0  0  0  0  0  0  0  0
    5.3978    2.8487   -0.4657 H   0  0  0  0  0  0  0  0  0  0  0  0
  1 23  1  0  0  0  0
  1  2  1  0  0  0  0
  3  1  1  0  0  0  0
  4  1  1  0  0  0  0
  4 16  1  0  0  0  0
  5  6  1  0  0  0  0
  5  3  1  0  0  0  0
  7  5  1  0  0  0  0
  8  7  1  0  0  0  0
  9  7  2  0  0  0  0
  9 11  1  0  0  0  0
 10  9  1  0  0  0  0
 11 13  2  0  0  0  0
 12 11  1  0  0  0  0
 13  3  1  0  0  0  0
 13 14  1  0  0  0  0
 14  4  1  0  0  0  0
 15 14  1  0  0  0  0
 16 17  1  0  0  0  0
 17 18  1  0  0  0  0
 17 24  1  0  0  0  0
 17 19  1  0  0  0  0
 20 16  1  0  0  0  0
 20 25  1  0  0  0  0
 20 22  1  0  0  0  0
 21 20  1  0  0  0  0
 26 14  1  0  0  0  0
M  END
$$$$
