CSD_code = KAPNOH | q = 0 | S = 0 | Stoichiometry = C23H42ClIrOP2 | MND = 5
 OpenBabel04212202053D

 70 72  0  0  0  0  0  0  0  0999 V2000
   -1.7917   -1.4644   14.4205 Ir  0  0  0  0  0  0  0  0  0  0  0  0
   -0.3749   -1.6589   13.9148 H   0  0  0  0  0  0  0  0  0  0  0  0
   -1.7738   -3.4480   15.6184 P   0  0  0  0  0  4  0  0  0  0  0  0
   -1.8676    0.7832   13.8946 P   0  0  0  0  0  4  0  0  0  0  0  0
   -3.1552   -2.2144   12.6237 Cl  0  0  0  0  0  0  0  0  0  0  0  0
   -1.3610    1.4914   15.2688 O   0  0  0  0  0  0  0  0  0  0  0  0
   -0.9946   -0.7299   16.1234 C   0  0  0  0  0  0  0  0  0  0  0  0
   -0.6064   -1.5385   17.1926 C   0  0  0  0  0  0  0  0  0  0  0  0
   -0.2271   -0.9714   18.4025 C   0  0  0  0  0  0  0  0  0  0  0  0
    0.0650   -1.6072   19.2270 H   0  0  0  0  0  0  0  0  0  0  0  0
   -0.2182    0.4035   18.5575 C   0  0  0  0  0  0  0  0  0  0  0  0
    0.0786    0.8403   19.4989 H   0  0  0  0  0  0  0  0  0  0  0  0
   -0.5900    1.2263   17.5070 C   0  0  0  0  0  0  0  0  0  0  0  0
   -0.5897    2.3005   17.6105 H   0  0  0  0  0  0  0  0  0  0  0  0
   -0.9715    0.6529   16.3060 C   0  0  0  0  0  0  0  0  0  0  0  0
   -0.5894   -3.0290   16.9817 C   0  0  0  0  0  0  0  0  0  0  0  0
   -0.7900   -3.5788   17.9036 H   0  0  0  0  0  0  0  0  0  0  0  0
    0.4070   -3.3107   16.6283 H   0  0  0  0  0  0  0  0  0  0  0  0
   -3.4136   -3.7273   16.5252 C   0  0  0  0  0  0  0  0  0  0  0  0
   -4.5365   -3.8829   15.4960 C   0  0  0  0  0  0  0  0  0  0  0  0
   -5.5004   -3.6742   15.9604 H   0  0  0  0  0  0  0  0  0  0  0  0
   -4.5753   -4.8897   15.0907 H   0  0  0  0  0  0  0  0  0  0  0  0
   -4.4056   -3.1959   14.6610 H   0  0  0  0  0  0  0  0  0  0  0  0
   -3.4251   -4.9089   17.4912 C   0  0  0  0  0  0  0  0  0  0  0  0
   -3.3749   -5.8570   16.9621 H   0  0  0  0  0  0  0  0  0  0  0  0
   -4.3578   -4.8963   18.0553 H   0  0  0  0  0  0  0  0  0  0  0  0
   -2.6050   -4.8559   18.2045 H   0  0  0  0  0  0  0  0  0  0  0  0
   -3.6583   -2.4366   17.3138 C   0  0  0  0  0  0  0  0  0  0  0  0
   -2.9201   -2.2949   18.1003 H   0  0  0  0  0  0  0  0  0  0  0  0
   -4.6454   -2.4630   17.7754 H   0  0  0  0  0  0  0  0  0  0  0  0
   -3.6211   -1.5687   16.6556 H   0  0  0  0  0  0  0  0  0  0  0  0
   -1.0854   -5.0608   14.9182 C   0  0  0  0  0  0  0  0  0  0  0  0
   -2.1614   -5.7476   14.0791 C   0  0  0  0  0  0  0  0  0  0  0  0
   -1.7062   -6.5017   13.4384 H   0  0  0  0  0  0  0  0  0  0  0  0
   -2.6594   -5.0190   13.4419 H   0  0  0  0  0  0  0  0  0  0  0  0
   -2.9010   -6.2442   14.7022 H   0  0  0  0  0  0  0  0  0  0  0  0
   -0.5257   -6.0168   15.9714 C   0  0  0  0  0  0  0  0  0  0  0  0
    0.3212   -5.5798   16.4944 H   0  0  0  0  0  0  0  0  0  0  0  0
   -0.1784   -6.9221   15.4747 H   0  0  0  0  0  0  0  0  0  0  0  0
   -1.2726   -6.3063   16.7037 H   0  0  0  0  0  0  0  0  0  0  0  0
    0.0459   -4.6286   13.9808 C   0  0  0  0  0  0  0  0  0  0  0  0
    0.5348   -5.5039   13.5563 H   0  0  0  0  0  0  0  0  0  0  0  0
    0.7952   -4.0369   14.5044 H   0  0  0  0  0  0  0  0  0  0  0  0
   -0.3552   -4.0267   13.1673 H   0  0  0  0  0  0  0  0  0  0  0  0
   -3.6138    1.4907   13.8042 C   0  0  0  0  0  0  0  0  0  0  0  0
   -4.1994    1.2606   12.4161 C   0  0  0  0  0  0  0  0  0  0  0  0
   -5.2728    1.4495   12.4294 H   0  0  0  0  0  0  0  0  0  0  0  0
   -4.0390    0.2299   12.1033 H   0  0  0  0  0  0  0  0  0  0  0  0
   -3.7517    1.9248   11.6801 H   0  0  0  0  0  0  0  0  0  0  0  0
   -3.7123    2.9554   14.2227 C   0  0  0  0  0  0  0  0  0  0  0  0
   -4.7557    3.2034   14.4185 H   0  0  0  0  0  0  0  0  0  0  0  0
   -3.3516    3.6242   13.4477 H   0  0  0  0  0  0  0  0  0  0  0  0
   -3.1438    3.1361   15.1326 H   0  0  0  0  0  0  0  0  0  0  0  0
   -4.3758    0.6324   14.8203 C   0  0  0  0  0  0  0  0  0  0  0  0
   -4.3418   -0.4185   14.5269 H   0  0  0  0  0  0  0  0  0  0  0  0
   -5.4245    0.9262   14.8634 H   0  0  0  0  0  0  0  0  0  0  0  0
   -3.9518    0.7497   15.8198 H   0  0  0  0  0  0  0  0  0  0  0  0
   -0.6975    1.5561   12.6400 C   0  0  0  0  0  0  0  0  0  0  0  0
   -0.8758    0.8080   11.3221 C   0  0  0  0  0  0  0  0  0  0  0  0
   -0.0933    1.0909   10.6198 H   0  0  0  0  0  0  0  0  0  0  0  0
   -1.8376    1.0248   10.8657 H   0  0  0  0  0  0  0  0  0  0  0  0
   -0.8164   -0.2658   11.4948 H   0  0  0  0  0  0  0  0  0  0  0  0
   -0.8856    3.0582   12.4599 C   0  0  0  0  0  0  0  0  0  0  0  0
   -1.8057    3.2838   11.9267 H   0  0  0  0  0  0  0  0  0  0  0  0
   -0.0572    3.4601   11.8768 H   0  0  0  0  0  0  0  0  0  0  0  0
   -0.8963    3.5593   13.4256 H   0  0  0  0  0  0  0  0  0  0  0  0
    0.7055    1.2861   13.1879 C   0  0  0  0  0  0  0  0  0  0  0  0
    1.4547    1.5692   12.4506 H   0  0  0  0  0  0  0  0  0  0  0  0
    0.8259    0.2273   13.4178 H   0  0  0  0  0  0  0  0  0  0  0  0
    0.8826    1.8580   14.0961 H   0  0  0  0  0  0  0  0  0  0  0  0
  1  3  1  0  0  0  0
  1  7  1  0  0  0  0
  2  1  1  0  0  0  0
  3 19  1  0  0  0  0
  3 16  1  0  0  0  0
  4  1  1  0  0  0  0
  4  6  1  0  0  0  0
  5  1  1  0  0  0  0
  6 15  1  0  0  0  0
  7 15  2  0  0  0  0
  7  8  1  0  0  0  0
  8  9  2  0  0  0  0
  9 11  1  0  0  0  0
  9 10  1  0  0  0  0
 11 12  1  0  0  0  0
 13 14  1  0  0  0  0
 13 11  2  0  0  0  0
 15 13  1  0  0  0  0
 16  8  1  0  0  0  0
 16 17  1  0  0  0  0
 18 16  1  0  0  0  0
 19 28  1  0  0  0  0
 19 24  1  0  0  0  0
 20 21  1  0  0  0  0
 20 19  1  0  0  0  0
 22 20  1  0  0  0  0
 23 20  1  0  0  0  0
 24 26  1  0  0  0  0
 24 27  1  0  0  0  0
 25 24  1  0  0  0  0
 28 30  1  0  0  0  0
 28 29  1  0  0  0  0
 31 28  1  0  0  0  0
 32  3  1  0  0  0  0
 32 37  1  0  0  0  0
 33 36  1  0  0  0  0
 33 32  1  0  0  0  0
 34 33  1  0  0  0  0
 35 33  1  0  0  0  0
 37 38  1  0  0  0  0
 37 40  1  0  0  0  0
 39 37  1  0  0  0  0
 41 43  1  0  0  0  0
 41 32  1  0  0  0  0
 42 41  1  0  0  0  0
 44 41  1  0  0  0  0
 45  4  1  0  0  0  0
 45 50  1  0  0  0  0
 45 54  1  0  0  0  0
 46 47  1  0  0  0  0
 46 45  1  0  0  0  0
 48 46  1  0  0  0  0
 49 46  1  0  0  0  0
 50 51  1  0  0  0  0
 50 53  1  0  0  0  0
 52 50  1  0  0  0  0
 54 56  1  0  0  0  0
 54 57  1  0  0  0  0
 55 54  1  0  0  0  0
 58 67  1  0  0  0  0
 58  4  1  0  0  0  0
 59 62  1  0  0  0  0
 59 58  1  0  0  0  0
 60 59  1  0  0  0  0
 61 59  1  0  0  0  0
 63 58  1  0  0  0  0
 63 66  1  0  0  0  0
 64 63  1  0  0  0  0
 65 63  1  0  0  0  0
 67 69  1  0  0  0  0
 67 70  1  0  0  0  0
 68 67  1  0  0  0  0
M  END
$$$$
