CSD_code = KAPVED | q = 0 | S = 0 | Stoichiometry = C28H22Cl2F5N3OTi | MND = 6
 OpenBabel04212202053D

 62 67  0  0  0  0  0  0  0  0999 V2000
   17.6599    3.5025    2.1660 C   0  0  0  0  0  0  0  0  0  0  0  0
   19.0301    3.1909    2.3959 C   0  0  0  0  0  0  0  0  0  0  0  0
   19.9799    3.8980    1.6877 C   0  0  0  0  0  0  0  0  0  0  0  0
   21.0261    3.6917    1.8419 H   0  0  0  0  0  0  0  0  0  0  0  0
   19.6471    4.8820    0.7515 C   0  0  0  0  0  0  0  0  0  0  0  0
   20.4340    5.4013    0.2270 H   0  0  0  0  0  0  0  0  0  0  0  0
   18.3349    5.1634    0.4892 C   0  0  0  0  0  0  0  0  0  0  0  0
   18.0630    5.9006   -0.2517 H   0  0  0  0  0  0  0  0  0  0  0  0
   17.3160    4.4856    1.1858 C   0  0  0  0  0  0  0  0  0  0  0  0
   19.3865    2.0541    3.3445 C   0  0  0  0  0  0  0  0  0  0  0  0
   18.7665    2.2888    4.7305 C   0  0  0  0  0  0  0  0  0  0  0  0
   19.0320    3.2751    5.1074 H   0  0  0  0  0  0  0  0  0  0  0  0
   19.1389    1.5415    5.4272 H   0  0  0  0  0  0  0  0  0  0  0  0
   17.6808    2.2056    4.7002 H   0  0  0  0  0  0  0  0  0  0  0  0
   20.9013    1.9047    3.5233 C   0  0  0  0  0  0  0  0  0  0  0  0
   21.3903    1.6657    2.5821 H   0  0  0  0  0  0  0  0  0  0  0  0
   21.0986    1.0883    4.2139 H   0  0  0  0  0  0  0  0  0  0  0  0
   21.3393    2.8097    3.9387 H   0  0  0  0  0  0  0  0  0  0  0  0
   18.8407    0.7494    2.7421 C   0  0  0  0  0  0  0  0  0  0  0  0
   17.7562    0.7879    2.6240 H   0  0  0  0  0  0  0  0  0  0  0  0
   19.0796   -0.0863    3.3956 H   0  0  0  0  0  0  0  0  0  0  0  0
   19.2872    0.5677    1.7660 H   0  0  0  0  0  0  0  0  0  0  0  0
   15.9603    4.7703    0.8761 C   0  0  0  0  0  3  0  0  0  0  0  0
   15.8020    5.4940    0.0691 H   0  0  0  0  0  0  0  0  0  0  0  0
   13.6470    4.5352    1.0407 C   0  0  0  0  0  0  0  0  0  0  0  0
   13.2228    4.2351   -0.2613 C   0  0  0  0  0  0  0  0  0  0  0  0
   11.8876    4.3519   -0.6312 C   0  0  0  0  0  0  0  0  0  0  0  0
   10.9453    4.8023    0.2897 C   0  0  0  0  0  0  0  0  0  0  0  0
   11.3493    5.1457    1.5785 C   0  0  0  0  0  0  0  0  0  0  0  0
   12.6828    5.0174    1.9333 C   0  0  0  0  0  0  0  0  0  0  0  0
   12.2559    1.5395    1.5323 C   0  0  0  0  0  0  0  0  0  0  0  0
   12.5637    1.2140    0.5509 H   0  0  0  0  0  0  0  0  0  0  0  0
   10.9826    1.4608    2.1077 C   0  0  0  0  0  0  0  0  0  0  0  0
   10.1016    1.0656    1.6411 H   0  0  0  0  0  0  0  0  0  0  0  0
   11.0894    1.9783    3.3881 C   0  0  0  0  0  0  0  0  0  0  0  0
   10.3133    2.0716    4.1228 H   0  0  0  0  0  0  0  0  0  0  0  0
   12.4335    2.3597    3.5481 C   0  0  0  0  0  0  0  0  0  0  0  0
   13.1729    2.9369    4.5904 C   0  0  0  0  0  3  0  0  0  0  0  0
   12.7127    3.1517    5.5562 H   0  0  0  0  0  0  0  0  0  0  0  0
   15.2633    3.7528    5.3209 C   0  0  0  0  0  0  0  0  0  0  0  0
   15.3371    3.1785    6.5902 C   0  0  0  0  0  0  0  0  0  0  0  0
   14.7212    2.3205    6.8206 H   0  0  0  0  0  0  0  0  0  0  0  0
   16.2314    3.6757    7.5201 C   0  0  0  0  0  0  0  0  0  0  0  0
   16.2928    3.2207    8.4973 H   0  0  0  0  0  0  0  0  0  0  0  0
   17.0484    4.7478    7.2021 C   0  0  0  0  0  0  0  0  0  0  0  0
   17.7451    5.1316    7.9316 H   0  0  0  0  0  0  0  0  0  0  0  0
   16.9742    5.3239    5.9428 C   0  0  0  0  0  0  0  0  0  0  0  0
   17.6090    6.1617    5.6942 H   0  0  0  0  0  0  0  0  0  0  0  0
   16.0911    4.8311    5.0017 C   0  0  0  0  0  0  0  0  0  0  0  0
   16.0150    5.2790    4.0178 H   0  0  0  0  0  0  0  0  0  0  0  0
   14.9312    4.2759    1.4871 N   0  0  0  0  0  0  0  0  0  0  0  0
   13.1293    2.0877    2.3808 N   0  0  0  0  0  0  0  0  0  0  0  0
   14.4120    3.2491    4.3392 N   0  0  0  0  0  0  0  0  0  0  0  0
   16.7077    2.9090    2.8063 O   0  0  0  0  0  0  0  0  0  0  0  0
   14.1161    3.7881   -1.1471 F   0  0  0  0  0  0  0  0  0  0  0  0
   11.5062    4.0371   -1.8686 F   0  0  0  0  0  0  0  0  0  0  0  0
    9.6640    4.9115   -0.0610 F   0  0  0  0  0  0  0  0  0  0  0  0
   10.4576    5.5948    2.4625 F   0  0  0  0  0  0  0  0  0  0  0  0
   13.0875    5.3671    3.1651 F   0  0  0  0  0  0  0  0  0  0  0  0
   15.2486    0.4592    3.7966 Cl  0  0  0  0  0  0  0  0  0  0  0  0
   15.4813    1.4296    0.6490 Cl  0  0  0  0  0  0  0  0  0  0  0  0
   15.0796    2.3312    2.6401 Ti  0  0  0  0  0  0  0  0  0  0  0  0
  1  2  1  0  0  0  0
  1 54  1  0  0  0  0
  2 10  1  0  0  0  0
  3  4  1  0  0  0  0
  3  2  2  0  0  0  0
  5  3  1  0  0  0  0
  6  5  1  0  0  0  0
  7  5  2  0  0  0  0
  7  9  1  0  0  0  0
  8  7  1  0  0  0  0
  9  1  2  0  0  0  0
 10 15  1  0  0  0  0
 10 11  1  0  0  0  0
 11 12  1  0  0  0  0
 11 13  1  0  0  0  0
 14 11  1  0  0  0  0
 15 18  1  0  0  0  0
 15 17  1  0  0  0  0
 16 15  1  0  0  0  0
 19 10  1  0  0  0  0
 19 21  1  0  0  0  0
 20 19  1  0  0  0  0
 22 19  1  0  0  0  0
 23  9  1  0  0  0  0
 23 51  1  0  0  0  0
 24 23  1  0  0  0  0
 25 51  1  0  0  0  0
 25 30  1  0  0  0  0
 26 25  2  0  0  0  0
 27 26  1  0  0  0  0
 27 28  2  0  0  0  0
 28 29  1  0  0  0  0
 29 30  2  0  0  0  0
 29 58  1  0  0  0  0
 30 59  1  0  0  0  0
 31 33  2  0  0  0  0
 31 52  1  0  0  0  0
 32 31  1  0  0  0  0
 33 35  1  0  0  0  0
 34 33  1  0  0  0  0
 35 37  2  0  0  0  0
 35 36  1  0  0  0  0
 37 38  1  0  0  0  0
 38 39  1  0  0  0  0
 40 41  1  0  0  0  0
 41 42  1  0  0  0  0
 41 43  2  0  0  0  0
 43 44  1  0  0  0  0
 45 43  1  0  0  0  0
 45 46  1  0  0  0  0
 47 45  2  0  0  0  0
 48 47  1  0  0  0  0
 49 40  2  0  0  0  0
 49 47  1  0  0  0  0
 50 49  1  0  0  0  0
 51 62  1  0  0  0  0
 52 62  1  0  0  0  0
 52 37  1  0  0  0  0
 53 38  1  0  0  0  0
 53 40  1  0  0  0  0
 55 26  1  0  0  0  0
 56 27  1  0  0  0  0
 57 28  1  0  0  0  0
 61 62  1  0  0  0  0
 62 54  1  0  0  0  0
 62 60  1  0  0  0  0
 62 53  1  0  0  0  0
M  END
$$$$
