CSD_code = KAPWEF | q = -1 | S = 0 | Stoichiometry = C26H30B9Br2NiP2(1-) | MND = 4
 OpenBabel04212202053D

 70 78  0  0  1  0  0  0  0  0999 V2000
    1.9077    6.5736    6.1332 Ni  0  0  0  0  0  0  0  0  0  0  0  0
    0.9250    6.1148    8.1311 Br  0  0  0  0  0  0  0  0  0  0  0  0
    4.0436    6.0555    6.7441 Br  0  0  0  0  0  0  0  0  0  0  0  0
   -0.0233    6.6699    5.1688 P   0  0  0  0  0  0  0  0  0  0  0  0
    2.6112    7.2197    4.1848 P   0  0  0  0  0  0  0  0  0  0  0  0
    0.0326   10.6096    3.2277 B   0  0  1  0  0  0  0  0  0  0  0  0
   -0.0250   11.7520    3.5224 H   0  0  0  0  0  0  0  0  0  0  0  0
    0.6902    9.3997    4.3123 B   0  0  1  0  0  0  0  0  0  0  0  0
    1.1536    9.4825    5.4017 H   0  0  0  0  0  0  0  0  0  0  0  0
    1.5347    9.8439    2.8356 B   0  0  2  0  0  0  0  0  0  0  0  0
    2.6252   10.2953    2.8815 H   0  0  0  0  0  0  0  0  0  0  0  0
    0.3546   10.0014    1.5387 B   0  0  2  0  0  0  0  0  0  0  0  0
    0.5485   10.7607    0.6501 H   0  0  0  0  0  0  0  0  0  0  0  0
   -1.2462    9.7923    2.2924 B   0  0  2  0  0  0  0  0  0  0  0  0
   -2.2099   10.3424    1.8832 H   0  0  0  0  0  0  0  0  0  0  0  0
   -1.0308    9.3957    3.9736 B   0  0  1  0  0  0  0  0  0  0  0  0
   -1.7827    9.5472    4.8714 H   0  0  0  0  0  0  0  0  0  0  0  0
    1.3110    8.4693    1.6965 B   0  0  0  0  0  0  0  0  0  0  0  0
    2.2484    8.1850    1.0250 H   0  0  0  0  0  0  0  0  0  0  0  0
   -0.6061    8.4635    1.2704 B   0  0  0  0  0  0  0  0  0  0  0  0
   -1.0681    8.3036    0.1855 H   0  0  0  0  0  0  0  0  0  0  0  0
    0.3447    7.6107    1.3249 H   0  0  0  0  0  0  0  0  0  0  0  0
   -1.3164    8.0828    2.8002 B   0  0  1  0  0  0  0  0  0  0  0  0
   -2.3107    7.4532    2.9923 H   0  0  0  0  0  0  0  0  0  0  0  0
   -1.6506    6.7423    5.9845 C   0  0  0  0  0  0  0  0  0  0  0  0
   -1.8433    7.7678    6.9061 C   0  0  0  0  0  0  0  0  0  0  0  0
   -1.0295    8.4436    7.1315 H   0  0  0  0  0  0  0  0  0  0  0  0
   -3.0582    7.9121    7.5456 C   0  0  0  0  0  0  0  0  0  0  0  0
   -3.2002    8.7097    8.2601 H   0  0  0  0  0  0  0  0  0  0  0  0
   -4.0907    7.0295    7.2732 C   0  0  0  0  0  0  0  0  0  0  0  0
   -5.0434    7.1399    7.7718 H   0  0  0  0  0  0  0  0  0  0  0  0
   -3.8978    5.9975    6.3713 C   0  0  0  0  0  0  0  0  0  0  0  0
   -4.6988    5.3006    6.1664 H   0  0  0  0  0  0  0  0  0  0  0  0
   -2.6807    5.8476    5.7305 C   0  0  0  0  0  0  0  0  0  0  0  0
   -2.5363    5.0305    5.0384 H   0  0  0  0  0  0  0  0  0  0  0  0
   -0.0843    7.9025    3.8335 C   0  0  2  0  0  0  0  0  0  0  0  0
    1.3222    8.1547    3.2891 C   0  0  1  0  0  0  0  0  0  0  0  0
   -0.0339    5.0231    4.3526 C   0  0  0  0  0  0  0  0  0  0  0  0
    0.8105    4.0462    4.8736 C   0  0  0  0  0  0  0  0  0  0  0  0
    1.4191    4.2588    5.7539 H   0  0  0  0  0  0  0  0  0  0  0  0
    0.8973    2.7972    4.2885 C   0  0  0  0  0  0  0  0  0  0  0  0
    1.5660    2.0560    4.7007 H   0  0  0  0  0  0  0  0  0  0  0  0
    0.1317    2.5074    3.1725 C   0  0  0  0  0  0  0  0  0  0  0  0
    0.1975    1.5330    2.7090 H   0  0  0  0  0  0  0  0  0  0  0  0
   -0.7145    3.4704    2.6471 C   0  0  0  0  0  0  0  0  0  0  0  0
   -1.3111    3.2478    1.7729 H   0  0  0  0  0  0  0  0  0  0  0  0
   -0.7969    4.7230    3.2279 C   0  0  0  0  0  0  0  0  0  0  0  0
   -1.4399    5.4776    2.7995 H   0  0  0  0  0  0  0  0  0  0  0  0
    3.0953    5.8219    3.1086 C   0  0  0  0  0  0  0  0  0  0  0  0
    2.2386    5.2948    2.1495 C   0  0  0  0  0  0  0  0  0  0  0  0
    1.2786    5.7522    1.9652 H   0  0  0  0  0  0  0  0  0  0  0  0
    2.6037    4.1785    1.4201 C   0  0  0  0  0  0  0  0  0  0  0  0
    1.9254    3.7820    0.6776 H   0  0  0  0  0  0  0  0  0  0  0  0
    3.8259    3.5692    1.6445 C   0  0  0  0  0  0  0  0  0  0  0  0
    4.1072    2.6930    1.0771 H   0  0  0  0  0  0  0  0  0  0  0  0
    4.6850    4.0853    2.6013 C   0  0  0  0  0  0  0  0  0  0  0  0
    5.6391    3.6129    2.7857 H   0  0  0  0  0  0  0  0  0  0  0  0
    4.3242    5.2021    3.3303 C   0  0  0  0  0  0  0  0  0  0  0  0
    4.9921    5.5902    4.0864 H   0  0  0  0  0  0  0  0  0  0  0  0
    4.0936    8.2778    4.0723 C   0  0  0  0  0  0  0  0  0  0  0  0
    4.8720    8.3321    2.9218 C   0  0  0  0  0  0  0  0  0  0  0  0
    4.6426    7.6896    2.0836 H   0  0  0  0  0  0  0  0  0  0  0  0
    5.9359    9.2112    2.8501 C   0  0  0  0  0  0  0  0  0  0  0  0
    6.5386    9.2506    1.9533 H   0  0  0  0  0  0  0  0  0  0  0  0
    6.2296   10.0416    3.9195 C   0  0  0  0  0  0  0  0  0  0  0  0
    7.0636   10.7266    3.8576 H   0  0  0  0  0  0  0  0  0  0  0  0
    5.4559    9.9929    5.0665 C   0  0  0  0  0  0  0  0  0  0  0  0
    5.6834   10.6367    5.9036 H   0  0  0  0  0  0  0  0  0  0  0  0
    4.3914    9.1152    5.1409 C   0  0  0  0  0  0  0  0  0  0  0  0
    3.7939    9.0690    6.0432 H   0  0  0  0  0  0  0  0  0  0  0  0
  1  3  1  0  0  0  0
  1  2  1  0  0  0  0
  4 25  1  0  0  0  0
  4  1  1  0  0  0  0
  5  1  1  0  0  0  0
  6  7  1  1  0  0  0
  6 16  1  0  0  0  0
  6  8  1  0  0  0  0
  8  9  1  1  0  0  0
 10 11  1  1  0  0  0
 10  6  1  0  0  0  0
 10 37  1  0  0  0  0
 12 13  1  6  0  0  0
 12 18  1  0  0  0  0
 12 14  1  0  0  0  0
 12 10  1  0  0  0  0
 14 15  1  6  0  0  0
 14 23  1  0  0  0  0
 14 16  1  0  0  0  0
 16 17  1  1  0  0  0
 18 37  1  0  0  0  0
 19 18  1  0  0  0  0
 20 22  1  0  0  0  0
 20 23  1  0  0  0  0
 21 20  1  0  0  0  0
 23 24  1  1  0  0  0
 23 36  1  0  0  0  0
 25 26  1  0  0  0  0
 26 27  1  0  0  0  0
 26 28  2  0  0  0  0
 28 29  1  0  0  0  0
 30 28  1  0  0  0  0
 30 31  1  0  0  0  0
 32 30  2  0  0  0  0
 33 32  1  0  0  0  0
 34 25  2  0  0  0  0
 34 32  1  0  0  0  0
 35 34  1  0  0  0  0
 36 16  1  0  0  0  0
 36  8  1  0  0  0  0
 37 36  1  0  0  0  0
 37  8  1  0  0  0  0
 38 39  1  0  0  0  0
 38  4  1  0  0  0  0
 39 40  1  0  0  0  0
 41 42  1  0  0  0  0
 41 39  2  0  0  0  0
 43 41  1  0  0  0  0
 44 43  1  0  0  0  0
 45 43  2  0  0  0  0
 45 47  1  0  0  0  0
 46 45  1  0  0  0  0
 47 38  2  0  0  0  0
 48 47  1  0  0  0  0
 49 58  1  0  0  0  0
 49  5  1  0  0  0  0
 50 49  2  0  0  0  0
 51 50  1  0  0  0  0
 52 54  2  0  0  0  0
 52 50  1  0  0  0  0
 53 52  1  0  0  0  0
 54 56  1  0  0  0  0
 55 54  1  0  0  0  0
 56 57  1  0  0  0  0
 56 58  2  0  0  0  0
 58 59  1  0  0  0  0
 60  5  1  0  0  0  0
 60 69  1  0  0  0  0
 61 60  2  0  0  0  0
 62 61  1  0  0  0  0
 63 61  1  0  0  0  0
 63 65  2  0  0  0  0
 64 63  1  0  0  0  0
 65 67  1  0  0  0  0
 66 65  1  0  0  0  0
 67 69  2  0  0  0  0
 67 68  1  0  0  0  0
 69 70  1  0  0  0  0
M  END
$$$$
