CSD_code = KAPXEE | q = 0 | S = 0 | Stoichiometry = C15H17BCl2N8Ti | MND = 7
 OpenBabel04212202053D

 44 47  0  0  1  0  0  0  0  0999 V2000
   -0.3416    5.0377    3.9525 Ti  0  0  1  0  0  0  0  0  0  0  0  0
    1.3007    6.4707    4.4965 Cl  0  0  0  0  0 15  0  0  0  0  0  0
   -1.8931    6.4112    3.0783 Cl  0  0  0  0  0 15  0  0  0  0  0  0
    1.0737    3.5106    4.2222 N   0  0  0  0  0  0  0  0  0  0  0  0
    1.2927    2.5146    3.3606 N   0  0  2  0  0  0  0  0  0  0  0  0
    2.2299    1.6911    3.8465 C   0  0  0  0  0  3  0  0  0  0  0  0
    2.6342    2.1741    5.0753 C   0  0  0  0  0  0  0  0  0  0  0  0
    1.8728    3.3253    5.2659 C   0  0  0  0  0  0  0  0  0  0  0  0
    0.4865    4.9668    2.0541 N   0  0  0  0  0  0  0  0  0  0  0  0
    0.7897    3.8533    1.3793 N   0  0  1  0  0  0  0  0  0  0  0  0
    1.3067    4.1726    0.1858 C   0  0  0  0  0  3  0  0  0  0  0  0
    1.3397    5.5488    0.0836 C   0  0  0  0  0  0  0  0  0  0  0  0
    0.8107    6.0033    1.2905 C   0  0  0  0  0  0  0  0  0  0  0  0
   -1.4697    3.4746    3.1237 N   0  0  0  0  0  0  0  0  0  0  0  0
   -0.9661    2.4813    2.3873 N   0  0  1  0  0  0  0  0  0  0  0  0
   -1.9399    1.6266    2.0498 C   0  0  0  0  0  3  0  0  0  0  0  0
   -3.1242    2.0853    2.5913 C   0  0  0  0  0  0  0  0  0  0  0  0
   -2.7720    3.2557    3.2600 C   0  0  0  0  0  0  0  0  0  0  0  0
    0.5271    2.4897    2.0295 B   0  0  2  0  0  0  0  0  0  0  0  0
   -1.1952    5.8661    5.8114 N   0  0  0  0  0  0  0  0  0  0  0  0
   -1.0354    4.5011    5.5830 N   0  0  0  0  0  0  0  0  0  0  0  0
   -1.5506    3.5754    6.4438 C   0  0  0  0  0  0  0  0  0  0  0  0
   -2.2425    3.9292    7.6140 C   0  0  0  0  0  0  0  0  0  0  0  0
   -2.7534    2.9560    8.4496 C   0  0  0  0  0  0  0  0  0  0  0  0
   -2.5928    1.6136    8.1536 C   0  0  0  0  0  0  0  0  0  0  0  0
   -1.9045    1.2499    7.0045 C   0  0  0  0  0  0  0  0  0  0  0  0
   -1.3881    2.2079    6.1602 C   0  0  0  0  0  0  0  0  0  0  0  0
   -0.6357    6.2282    6.5957 H   0  0  0  0  0  0  0  0  0  0  0  0
   -2.1756    6.1724    5.8823 H   0  0  0  0  0  0  0  0  0  0  0  0
    2.5504    0.8266    3.3007 H   0  0  0  0  0  0  0  0  0  0  0  0
    3.3692    1.7578    5.7324 H   0  0  0  0  0  0  0  0  0  0  0  0
    1.8763    4.0169    6.0903 H   0  0  0  0  0  0  0  0  0  0  0  0
    1.6151    3.4167   -0.5083 H   0  0  0  0  0  0  0  0  0  0  0  0
    1.6927    6.1368   -0.7381 H   0  0  0  0  0  0  0  0  0  0  0  0
    0.6567    7.0149    1.6264 H   0  0  0  0  0  0  0  0  0  0  0  0
   -1.7391    0.7589    1.4542 H   0  0  0  0  0  0  0  0  0  0  0  0
   -4.0950    1.6419    2.5131 H   0  0  0  0  0  0  0  0  0  0  0  0
   -3.3955    3.9383    3.8108 H   0  0  0  0  0  0  0  0  0  0  0  0
    0.8366    1.5829    1.3420 H   0  0  0  0  0  0  0  0  0  0  0  0
   -2.3776    4.9714    7.8728 H   0  0  0  0  0  0  0  0  0  0  0  0
   -3.2827    3.2524    9.3439 H   0  0  0  0  0  0  0  0  0  0  0  0
   -2.9950    0.8583    8.8109 H   0  0  0  0  0  0  0  0  0  0  0  0
   -1.7695    0.2044    6.7677 H   0  0  0  0  0  0  0  0  0  0  0  0
   -0.8475    1.9176    5.2691 H   0  0  0  0  0  0  0  0  0  0  0  0
  1  4  1  0  0  0  0
  1 21  1  1  0  0  0
  4  8  1  0  0  0  0
  5  6  1  6  0  0  0
  5  4  1  0  0  0  0
  6  7  1  0  0  0  0
  7  8  2  0  0  0  0
  7 31  1  0  0  0  0
  8 32  1  0  0  0  0
  9  1  1  0  0  0  0
 10 11  1  1  0  0  0
 10 19  1  0  0  0  0
 10  9  1  0  0  0  0
 12 11  1  0  0  0  0
 12 13  2  0  0  0  0
 13 35  1  0  0  0  0
 13  9  1  0  0  0  0
 14 18  1  0  0  0  0
 14  1  1  0  0  0  0
 15 16  1  6  0  0  0
 15 14  1  0  0  0  0
 16 17  1  0  0  0  0
 17 18  2  0  0  0  0
 18 38  1  0  0  0  0
 19 39  1  6  0  0  0
 19 15  1  0  0  0  0
 19  5  1  0  0  0  0
 20 29  1  0  0  0  0
 20 28  1  0  0  0  0
 21 20  1  0  0  0  0
 21 22  1  0  0  0  0
 22 23  1  0  0  0  0
 23 40  1  0  0  0  0
 23 24  2  0  0  0  0
 24 41  1  0  0  0  0
 25 24  1  0  0  0  0
 25 42  1  0  0  0  0
 26 25  2  0  0  0  0
 27 22  2  0  0  0  0
 27 26  1  0  0  0  0
 30  6  1  0  0  0  0
 33 11  1  0  0  0  0
 34 12  1  0  0  0  0
 36 16  1  0  0  0  0
 37 17  1  0  0  0  0
 43 26  1  0  0  0  0
 44 27  1  0  0  0  0
M  END
$$$$
