CSD_code = KAQCIR | q = -1 | S = 0 | Stoichiometry = C4H6Cl3N2Zn(1-) | MND = 4
 OpenBabel04212202053D

 16 16  0  0  1  0  0  0  0  0999 V2000
    1.4711    3.3249   11.3359 Zn  0  0  0  0  0  0  0  0  0  0  0  0
   -0.1272    4.7599   10.4988 Cl  0  0  0  0  0  0  0  0  0  0  0  0
    3.6321    4.0507   11.0010 Cl  0  0  0  0  0  0  0  0  0  0  0  0
    0.9816    2.0287   13.1293 Cl  0  0  0  0  0  0  0  0  0  0  0  0
    1.4195    1.9348    9.7349 N   0  0  0  0  0  0  0  0  0  0  0  0
    1.5336    1.2305    7.6767 N   0  0  0  0  0  0  0  0  0  0  0  0
    1.6552    1.2356    6.6772 H   0  0  0  0  0  0  0  0  0  0  0  0
    1.9680    3.6669    8.0446 C   0  0  0  0  0  0  0  0  0  0  0  0
    1.1633    4.3402    8.3440 H   0  0  0  0  0  0  0  0  0  0  0  0
    2.1134    3.7038    6.9673 H   0  0  0  0  0  0  0  0  0  0  0  0
    2.8646    4.0100    8.5627 H   0  0  0  0  0  0  0  0  0  0  0  0
    1.1571    0.6002    9.7273 C   0  0  0  0  0  0  0  0  0  0  0  0
    0.9431    0.0850   10.6415 H   0  0  0  0  0  0  0  0  0  0  0  0
    1.6439    2.3013    8.4956 C   0  0  1  0  0  3  0  0  0  0  0  0
    1.2228    0.1394    8.4508 C   0  0  0  0  0  0  0  0  0  0  0  0
    1.0818   -0.8357    8.0320 H   0  0  0  0  0  0  0  0  0  0  0  0
  1  4  1  0  0  0  0
  2  1  1  0  0  0  0
  3  1  1  0  0  0  0
  5  1  1  0  0  0  0
  6 15  1  0  0  0  0
  6 14  1  0  0  0  0
  7  6  1  0  0  0  0
  8  9  1  0  0  0  0
  8 11  1  0  0  0  0
 10  8  1  0  0  0  0
 12  5  1  0  0  0  0
 12 13  1  0  0  0  0
 14  8  1  6  0  0  0
 14  5  1  0  0  0  0
 15 12  2  0  0  0  0
 16 15  1  0  0  0  0
M  END
$$$$
