CSD_code = KAQHUG | q = 0 | S = 0 | Stoichiometry = C13H21Cl2N3O2RuS2 | MND = 6
 OpenBabel04212202053D

 44 46  0  0  1  0  0  0  0  0999 V2000
   10.3240    6.4519    5.6155 Ru  0  0  0  0  0  0  0  0  0  0  0  0
    9.0300    5.0627    4.2389 Cl  0  0  0  0  0  0  0  0  0  0  0  0
   11.6133    7.8724    6.9643 Cl  0  0  0  0  0  0  0  0  0  0  0  0
   10.5834    7.9101    3.8611 S   0  0  0  0  0  0  0  0  0  0  0  0
    8.4579    7.5489    6.2594 S   0  0  0  0  0  0  0  0  0  0  0  0
   11.7413    7.6122    3.0262 O   0  0  0  0  0  1  0  0  0  0  0  0
    8.0907    8.7244    5.4797 O   0  0  0  0  0  1  0  0  0  0  0  0
   11.9165    5.3443    5.2551 N   0  0  0  0  0  0  0  0  0  0  0  0
   12.0926    4.3272    6.1537 N   0  0  0  0  0  0  0  0  0  0  0  0
   10.2206    5.1078    7.1104 N   0  0  0  0  0  0  0  0  0  0  0  0
    9.5287    5.0306    7.8533 H   0  0  0  0  0  0  0  0  0  0  0  0
   12.8819    5.3104    4.3782 C   0  0  0  0  0  0  0  0  0  0  0  0
   12.9216    6.0328    3.5819 H   0  0  0  0  0  0  0  0  0  0  0  0
   13.7614    4.2354    4.6730 C   0  0  0  0  0  0  0  0  0  0  0  0
   14.9262    3.7548    4.0772 C   0  0  0  0  0  3  0  0  0  0  0  0
   15.3241    4.2363    3.1986 H   0  0  0  0  0  0  0  0  0  0  0  0
   15.5388    2.6600    4.6445 C   0  0  0  0  0  0  0  0  0  0  0  0
   16.4424    2.2625    4.2086 H   0  0  0  0  0  0  0  0  0  0  0  0
   15.0088    2.0490    5.7819 C   0  0  0  0  0  0  0  0  0  0  0  0
   15.5137    1.1920    6.2010 H   0  0  0  0  0  0  0  0  0  0  0  0
   13.8552    2.5075    6.3904 C   0  0  0  0  0  0  0  0  0  0  0  0
   13.4795    2.0073    7.2660 H   0  0  0  0  0  0  0  0  0  0  0  0
   13.2292    3.6118    5.8282 C   0  0  0  0  0  0  0  0  0  0  0  0
   11.2688    3.1507    8.1781 C   0  0  0  0  0  0  0  0  0  0  0  0
   10.4473    3.2330    8.8859 H   0  0  0  0  0  0  0  0  0  0  0  0
   12.2077    3.2428    8.7216 H   0  0  0  0  0  0  0  0  0  0  0  0
   11.2263    2.1699    7.7070 H   0  0  0  0  0  0  0  0  0  0  0  0
   11.1601    4.2251    7.1479 C   0  0  2  0  0  3  0  0  0  0  0  0
    9.1816    8.0368    2.7158 C   0  0  0  0  0  0  0  0  0  0  0  0
    8.9426    7.0304    2.3860 H   0  0  0  0  0  0  0  0  0  0  0  0
    9.4934    8.6492    1.8781 H   0  0  0  0  0  0  0  0  0  0  0  0
    8.3482    8.4727    3.2534 H   0  0  0  0  0  0  0  0  0  0  0  0
   10.7386    9.6651    4.2934 C   0  0  0  0  0  0  0  0  0  0  0  0
   11.5603    9.7526    4.9972 H   0  0  0  0  0  0  0  0  0  0  0  0
    9.8083    9.9803    4.7503 H   0  0  0  0  0  0  0  0  0  0  0  0
   10.9542   10.2130    3.3838 H   0  0  0  0  0  0  0  0  0  0  0  0
    6.9552    6.5248    6.3388 C   0  0  0  0  0  0  0  0  0  0  0  0
    6.8221    6.0857    5.3546 H   0  0  0  0  0  0  0  0  0  0  0  0
    6.1180    7.1634    6.5942 H   0  0  0  0  0  0  0  0  0  0  0  0
    7.1003    5.7393    7.0710 H   0  0  0  0  0  0  0  0  0  0  0  0
    8.4689    8.0993    7.9954 C   0  0  0  0  0  0  0  0  0  0  0  0
    9.4049    8.6289    8.1496 H   0  0  0  0  0  0  0  0  0  0  0  0
    8.4198    7.2353    8.6473 H   0  0  0  0  0  0  0  0  0  0  0  0
    7.6233    8.7602    8.1445 H   0  0  0  0  0  0  0  0  0  0  0  0
  1  5  1  0  0  0  0
  1  3  1  0  0  0  0
  1 10  1  0  0  0  0
  2  1  1  0  0  0  0
  4 33  1  0  0  0  0
  4  1  1  0  0  0  0
  5 37  1  0  0  0  0
  5 41  1  0  0  0  0
  6  4  1  0  0  0  0
  7  5  1  0  0  0  0
  8  1  1  0  0  0  0
  8  9  1  0  0  0  0
  9 28  1  0  0  0  0
 10 28  1  0  0  0  0
 10 11  1  0  0  0  0
 12 14  2  0  0  0  0
 12  8  1  0  0  0  0
 13 12  1  0  0  0  0
 14 23  1  0  0  0  0
 15 17  1  0  0  0  0
 15 14  1  0  0  0  0
 16 15  1  0  0  0  0
 17 19  2  0  0  0  0
 18 17  1  0  0  0  0
 19 20  1  0  0  0  0
 19 21  1  0  0  0  0
 21 22  1  0  0  0  0
 23  9  1  0  0  0  0
 23 21  2  0  0  0  0
 24 26  1  0  0  0  0
 24 25  1  0  0  0  0
 27 24  1  0  0  0  0
 28 24  1  1  0  0  0
 29 32  1  0  0  0  0
 29  4  1  0  0  0  0
 30 29  1  0  0  0  0
 31 29  1  0  0  0  0
 33 35  1  0  0  0  0
 33 34  1  0  0  0  0
 36 33  1  0  0  0  0
 37 39  1  0  0  0  0
 37 40  1  0  0  0  0
 38 37  1  0  0  0  0
 41 44  1  0  0  0  0
 41 42  1  0  0  0  0
 41 43  1  0  0  0  0
M  END
$$$$
