CSD_code = KAQHEQ | q = 0 | S = 0 | Stoichiometry = C18H24Cl2N4O2RuS2 | MND = 6
 OpenBabel04212202053D

 53 56  0  0  1  0  0  0  0  0999 V2000
    6.7670    1.9744    0.0004 Ru  0  0  0  0  0  0  0  0  0  0  0  0
    6.6604    0.7742    1.9412 S   0  0  0  0  0  0  0  0  0  0  0  0
    5.7732    0.0968   -1.0191 Cl  0  0  0  0  0  0  0  0  0  0  0  0
    6.9168    1.4849    3.1805 O   0  0  0  0  0  1  0  0  0  0  0  0
    8.5596    1.2225   -0.5203 N   0  0  0  0  0  0  0  0  0  0  0  0
    8.6503    0.5246   -1.6625 N   0  0  0  0  0  0  0  0  0  0  0  0
    7.7906    0.2569   -2.1400 H   0  0  0  0  0  0  0  0  0  0  0  0
    9.7672    1.3666   -0.0186 C   0  0  0  0  0  0  0  0  0  0  0  0
    9.9280    1.9201    0.8880 H   0  0  0  0  0  0  0  0  0  0  0  0
   10.7092    0.7299   -0.8590 C   0  0  0  0  0  0  0  0  0  0  0  0
   12.0970    0.5541   -0.8478 C   0  0  0  0  0  0  0  0  0  0  0  0
   12.6942    0.9660   -0.0495 H   0  0  0  0  0  0  0  0  0  0  0  0
   12.6631   -0.1514   -1.8807 C   0  0  0  0  0  0  0  0  0  0  0  0
   13.7316   -0.3038   -1.9017 H   0  0  0  0  0  0  0  0  0  0  0  0
   11.8862   -0.6852   -2.9207 C   0  0  0  0  0  0  0  0  0  0  0  0
   12.3805   -1.2323   -3.7092 H   0  0  0  0  0  0  0  0  0  0  0  0
   10.5206   -0.5288   -2.9597 C   0  0  0  0  0  0  0  0  0  0  0  0
    9.9204   -0.9359   -3.7574 H   0  0  0  0  0  0  0  0  0  0  0  0
    9.9352    0.1850   -1.9164 C   0  0  2  0  0  3  0  0  0  0  0  0
    7.7144   -0.7095    1.9092 C   0  0  0  0  0  0  0  0  0  0  0  0
    8.7506   -0.3894    1.8752 H   0  0  0  0  0  0  0  0  0  0  0  0
    7.4484   -1.2573    1.0109 H   0  0  0  0  0  0  0  0  0  0  0  0
    7.5329   -1.2932    2.8040 H   0  0  0  0  0  0  0  0  0  0  0  0
    5.0735   -0.0888    2.1767 C   0  0  0  0  0  0  0  0  0  0  0  0
    4.3053    0.6553    2.3619 H   0  0  0  0  0  0  0  0  0  0  0  0
    5.1673   -0.7433    3.0348 H   0  0  0  0  0  0  0  0  0  0  0  0
    4.8615   -0.6396    1.2670 H   0  0  0  0  0  0  0  0  0  0  0  0
    6.8736    3.1745   -1.9406 S   0  0  0  0  0  0  0  0  0  0  0  0
    7.7608    3.8522    1.0198 Cl  0  0  0  0  0  0  0  0  0  0  0  0
    6.6182    2.4634   -3.1799 O   0  0  0  0  0  1  0  0  0  0  0  0
    4.9745    2.7265    0.5209 N   0  0  0  0  0  0  0  0  0  0  0  0
    4.8837    3.4249    1.6627 N   0  0  0  0  0  0  0  0  0  0  0  0
    5.7434    3.6929    2.1400 H   0  0  0  0  0  0  0  0  0  0  0  0
    3.7669    2.5824    0.0190 C   0  0  0  0  0  0  0  0  0  0  0  0
    3.6061    2.0284   -0.8873 H   0  0  0  0  0  0  0  0  0  0  0  0
    2.8249    3.2197    0.8589 C   0  0  0  0  0  0  0  0  0  0  0  0
    1.4371    3.3958    0.8474 C   0  0  0  0  0  3  0  0  0  0  0  0
    0.8400    2.9837    0.0491 H   0  0  0  0  0  0  0  0  0  0  0  0
    0.8710    4.1020    1.8798 C   0  0  0  0  0  0  0  0  0  0  0  0
   -0.1975    4.2547    1.9005 H   0  0  0  0  0  0  0  0  0  0  0  0
    1.6478    4.6362    2.9196 C   0  0  0  0  0  0  0  0  0  0  0  0
    1.1535    5.1838    3.7077 H   0  0  0  0  0  0  0  0  0  0  0  0
    3.0134    4.4795    2.9590 C   0  0  0  0  0  0  0  0  0  0  0  0
    3.6135    4.8868    3.7567 H   0  0  0  0  0  0  0  0  0  0  0  0
    3.5988    3.7649    1.9162 C   0  0  0  0  0  0  0  0  0  0  0  0
    5.8189    4.6578   -1.9095 C   0  0  0  0  0  0  0  0  0  0  0  0
    4.7829    4.3372   -1.8757 H   0  0  0  0  0  0  0  0  0  0  0  0
    6.0844    5.2060   -1.0113 H   0  0  0  0  0  0  0  0  0  0  0  0
    6.0005    5.2412   -2.8044 H   0  0  0  0  0  0  0  0  0  0  0  0
    8.4602    4.0384   -2.1757 C   0  0  0  0  0  0  0  0  0  0  0  0
    9.2289    3.2947   -2.3601 H   0  0  0  0  0  0  0  0  0  0  0  0
    8.3664    4.6925   -3.0341 H   0  0  0  0  0  0  0  0  0  0  0  0
    8.6713    4.5897   -1.2661 H   0  0  0  0  0  0  0  0  0  0  0  0
  1 31  1  0  0  0  0
  1 29  1  0  0  0  0
  1  2  1  0  0  0  0
  2 24  1  0  0  0  0
  2  4  1  0  0  0  0
  3  1  1  0  0  0  0
  5  8  1  0  0  0  0
  5  1  1  0  0  0  0
  6  5  1  0  0  0  0
  7  6  1  0  0  0  0
  8  9  1  0  0  0  0
 10 11  1  0  0  0  0
 10  8  2  0  0  0  0
 11 12  1  0  0  0  0
 13 11  2  0  0  0  0
 14 13  1  0  0  0  0
 15 13  1  0  0  0  0
 16 15  1  0  0  0  0
 17 15  2  0  0  0  0
 18 17  1  0  0  0  0
 19 17  1  6  0  0  0
 19  6  1  0  0  0  0
 19 10  1  0  0  0  0
 20  2  1  0  0  0  0
 20 23  1  0  0  0  0
 21 20  1  0  0  0  0
 22 20  1  0  0  0  0
 24 25  1  0  0  0  0
 24 26  1  0  0  0  0
 27 24  1  0  0  0  0
 28 46  1  0  0  0  0
 28  1  1  0  0  0  0
 30 28  1  0  0  0  0
 31 32  1  0  0  0  0
 32 45  1  0  0  0  0
 32 33  1  0  0  0  0
 34 31  1  0  0  0  0
 34 36  2  0  0  0  0
 35 34  1  0  0  0  0
 36 45  1  0  0  0  0
 37 36  1  0  0  0  0
 37 39  1  0  0  0  0
 38 37  1  0  0  0  0
 39 40  1  0  0  0  0
 39 41  2  0  0  0  0
 41 43  1  0  0  0  0
 41 42  1  0  0  0  0
 43 44  1  0  0  0  0
 45 43  2  0  0  0  0
 46 47  1  0  0  0  0
 46 48  1  0  0  0  0
 49 46  1  0  0  0  0
 50 28  1  0  0  0  0
 50 53  1  0  0  0  0
 51 50  1  0  0  0  0
 52 50  1  0  0  0  0
M  END
$$$$
