CSD_code = KARJEU | q = 0 | S = 0 | Stoichiometry = C22H17BrN4Ni | MND = 4
 OpenBabel04212202053D

 45 51  0  0  1  0  0  0  0  0999 V2000
    3.9366    3.5248    1.4481 Ni  0  0  1  0  0  0  0  0  0  0  0  0
    3.6645    1.3193    1.0351 Br  0  0  0  0  0  0  0  0  0  0  0  0
    6.2724    2.4974    2.9764 C   0  0  1  0  0  3  0  0  0  0  0  0
    6.9149    1.6960    2.0214 C   0  0  0  0  0  0  0  0  0  0  0  0
    6.5199    1.6068    1.0224 H   0  0  0  0  0  0  0  0  0  0  0  0
    8.0449    1.0291    2.4083 C   0  0  0  0  0  0  0  0  0  0  0  0
    8.5589    0.4004    1.6971 H   0  0  0  0  0  0  0  0  0  0  0  0
    8.5657    1.1357    3.7135 C   0  0  0  0  0  0  0  0  0  0  0  0
    9.4593    0.5823    3.9612 H   0  0  0  0  0  0  0  0  0  0  0  0
    7.9684    1.9217    4.6587 C   0  0  0  0  0  0  0  0  0  0  0  0
    8.3657    2.0131    5.6581 H   0  0  0  0  0  0  0  0  0  0  0  0
    6.8072    2.6226    4.2938 C   0  0  0  0  0  0  0  0  0  0  0  0
    5.9507    3.5157    4.9359 C   0  0  0  0  0  0  0  0  0  0  0  0
    5.9620    3.9018    5.9352 H   0  0  0  0  0  0  0  0  0  0  0  0
    5.0081    3.8568    4.0555 N   0  0  0  0  0  0  0  0  0  0  0  0
    4.1593    5.3866    1.8161 C   0  0  0  0  0  0  0  0  0  0  0  0
    4.1217    5.8692    3.1245 C   0  0  0  0  0  0  0  0  0  0  0  0
    4.2786    7.2197    3.3934 C   0  0  0  0  0  0  0  0  0  0  0  0
    4.2446    7.5742    4.4143 H   0  0  0  0  0  0  0  0  0  0  0  0
    4.4750    8.1121    2.3537 C   0  0  0  0  0  0  0  0  0  0  0  0
    4.5959    9.1645    2.5613 H   0  0  0  0  0  0  0  0  0  0  0  0
    4.5182    7.6546    1.0481 C   0  0  0  0  0  0  0  0  0  0  0  0
    4.6760    8.3487    0.2343 H   0  0  0  0  0  0  0  0  0  0  0  0
    4.3634    6.3029    0.7844 C   0  0  0  0  0  0  0  0  0  0  0  0
    3.1105    5.0353   -0.8078 N   0  0  0  0  0  0  0  0  0  0  0  0
    2.1747    5.2632   -1.7306 C   0  0  0  0  0  0  0  0  0  0  0  0
    2.3100    5.9843   -2.5114 H   0  0  0  0  0  0  0  0  0  0  0  0
    1.1081    4.4101   -1.4521 C   0  0  0  0  0  0  0  0  0  0  0  0
   -0.1492    4.1708   -2.0304 C   0  0  0  0  0  3  0  0  0  0  0  0
   -0.4516    4.7121   -2.9140 H   0  0  0  0  0  0  0  0  0  0  0  0
   -0.9600    3.2433   -1.4387 C   0  0  0  0  0  0  0  0  0  0  0  0
   -1.9325    3.0333   -1.8586 H   0  0  0  0  0  0  0  0  0  0  0  0
   -0.5595    2.5489   -0.2797 C   0  0  0  0  0  0  0  0  0  0  0  0
   -1.2406    1.8323    0.1537 H   0  0  0  0  0  0  0  0  0  0  0  0
    0.6586    2.7569    0.3070 C   0  0  0  0  0  0  0  0  0  0  0  0
    0.9583    2.2190    1.1916 H   0  0  0  0  0  0  0  0  0  0  0  0
    1.5188    3.6902   -0.2900 C   0  0  0  0  0  0  0  0  0  0  0  0
    5.1657    3.2599    2.8750 N   0  0  2  0  0  0  0  0  0  0  0  0
    3.9716    4.8457    4.2311 C   0  0  0  0  0  0  0  0  0  0  0  0
    4.0727    5.2933    5.2208 H   0  0  0  0  0  0  0  0  0  0  0  0
    2.9920    4.3532    4.1560 H   0  0  0  0  0  0  0  0  0  0  0  0
    4.3456    5.7605   -0.6294 C   0  0  0  0  0  0  0  0  0  0  0  0
    4.3999    6.5553   -1.3748 H   0  0  0  0  0  0  0  0  0  0  0  0
    5.1888    5.0708   -0.7757 H   0  0  0  0  0  0  0  0  0  0  0  0
    2.7549    4.0939    0.0659 N   0  0  0  0  0  0  0  0  0  0  0  0
  1  2  1  1  0  0  0
  1 16  1  0  0  0  0
  1 38  1  0  0  0  0
  3  4  1  6  0  0  0
  3 12  1  0  0  0  0
  4  6  2  0  0  0  0
  5  4  1  0  0  0  0
  6  8  1  0  0  0  0
  7  6  1  0  0  0  0
  8  9  1  0  0  0  0
  8 10  2  0  0  0  0
 10 11  1  0  0  0  0
 12 10  1  0  0  0  0
 12 13  2  0  0  0  0
 13 14  1  0  0  0  0
 15 39  1  0  0  0  0
 15 13  1  0  0  0  0
 16 17  1  0  0  0  0
 17 18  2  0  0  0  0
 17 39  1  0  0  0  0
 18 19  1  0  0  0  0
 20 21  1  0  0  0  0
 20 18  1  0  0  0  0
 22 20  2  0  0  0  0
 23 22  1  0  0  0  0
 24 22  1  0  0  0  0
 24 16  2  0  0  0  0
 25 42  1  0  0  0  0
 25 45  1  0  0  0  0
 26 28  2  0  0  0  0
 26 25  1  0  0  0  0
 27 26  1  0  0  0  0
 28 37  1  0  0  0  0
 29 28  1  0  0  0  0
 29 31  1  0  0  0  0
 30 29  1  0  0  0  0
 31 33  2  0  0  0  0
 32 31  1  0  0  0  0
 33 34  1  0  0  0  0
 33 35  1  0  0  0  0
 35 36  1  0  0  0  0
 37 45  1  0  0  0  0
 37 35  2  0  0  0  0
 38  3  1  0  0  0  0
 38 15  1  1  0  0  0
 39 40  1  0  0  0  0
 41 39  1  0  0  0  0
 42 24  1  0  0  0  0
 43 42  1  0  0  0  0
 44 42  1  0  0  0  0
 45  1  1  0  0  0  0
M  END
$$$$
