CSD_code = KARQOJ | q = 0 | S = 0 | Stoichiometry = C12H14Cl2N2Pt | MND = 4
 OpenBabel04212202053D

 31 32  0  0  1  0  0  0  0  0999 V2000
   -4.9257    1.3581   12.7662 Pt  0  0  0  0  0  0  0  0  0  0  0  0
   -2.7557    2.0142   12.7702 Cl  0  0  0  0  0  0  0  0  0  0  0  0
   -4.6661    0.2320   10.8160 Cl  0  0  0  0  0  0  0  0  0  0  0  0
   -5.1214    2.4393   14.4871 N   0  0  0  0  0  0  0  0  0  0  0  0
   -6.8532    0.6882   12.7476 N   0  0  0  0  0  0  0  0  0  0  0  0
   -5.0102    3.7724   14.4669 C   0  0  1  0  0  3  0  0  0  0  0  0
   -4.9245    4.4981   15.6518 C   0  0  0  0  0  0  0  0  0  0  0  0
   -4.9410    3.8427   16.8680 C   0  0  0  0  0  0  0  0  0  0  0  0
   -5.0575    2.4593   16.8707 C   0  0  0  0  0  0  0  0  0  0  0  0
   -5.1456    1.8039   15.6602 C   0  0  0  0  0  0  0  0  0  0  0  0
   -4.9653    4.4693   13.1492 C   0  0  0  0  0  0  0  0  0  0  0  0
   -7.1192   -0.6142   12.8997 C   0  0  1  0  0  3  0  0  0  0  0  0
   -8.4010   -1.1099   12.6790 C   0  0  0  0  0  0  0  0  0  0  0  0
   -9.4146   -0.2575   12.2849 C   0  0  0  0  0  0  0  0  0  0  0  0
   -9.1210    1.0906   12.1309 C   0  0  0  0  0  0  0  0  0  0  0  0
   -7.8313    1.5152   12.3739 C   0  0  0  0  0  0  0  0  0  0  0  0
   -6.0111   -1.5307   13.2944 C   0  0  0  0  0  0  0  0  0  0  0  0
   -4.8325    5.5719   15.6044 H   0  0  0  0  0  0  0  0  0  0  0  0
   -4.8625    4.3930   17.7929 H   0  0  0  0  0  0  0  0  0  0  0  0
   -5.0738    1.9005   17.7923 H   0  0  0  0  0  0  0  0  0  0  0  0
   -5.2366    0.7256   15.6238 H   0  0  0  0  0  0  0  0  0  0  0  0
   -5.2800    3.7976   12.3449 H   0  0  0  0  0  0  0  0  0  0  0  0
   -3.9355    4.7589   12.9395 H   0  0  0  0  0  0  0  0  0  0  0  0
   -5.5833    5.3651   13.1585 H   0  0  0  0  0  0  0  0  0  0  0  0
   -8.5856   -2.1651   12.8072 H   0  0  0  0  0  0  0  0  0  0  0  0
  -10.4094   -0.6317   12.0986 H   0  0  0  0  0  0  0  0  0  0  0  0
   -9.8754    1.7963   11.8231 H   0  0  0  0  0  0  0  0  0  0  0  0
   -7.5654    2.5591   12.2631 H   0  0  0  0  0  0  0  0  0  0  0  0
   -5.1585   -0.9646   13.6811 H   0  0  0  0  0  0  0  0  0  0  0  0
   -5.6647   -2.0635   12.4084 H   0  0  0  0  0  0  0  0  0  0  0  0
   -6.3473   -2.2594   14.0296 H   0  0  0  0  0  0  0  0  0  0  0  0
  1  2  1  0  0  0  0
  1  4  1  0  0  0  0
  3  1  1  0  0  0  0
  4 10  1  0  0  0  0
  5  1  1  0  0  0  0
  5 12  1  0  0  0  0
  6 11  1  6  0  0  0
  6  4  1  0  0  0  0
  6  7  1  0  0  0  0
  7  8  2  0  0  0  0
  8  9  1  0  0  0  0
  8 19  1  0  0  0  0
  9 20  1  0  0  0  0
 10  9  2  0  0  0  0
 11 24  1  0  0  0  0
 12 17  1  6  0  0  0
 13 25  1  0  0  0  0
 13 12  1  0  0  0  0
 14 13  2  0  0  0  0
 15 14  1  0  0  0  0
 15 16  2  0  0  0  0
 16  5  1  0  0  0  0
 17 29  1  0  0  0  0
 17 31  1  0  0  0  0
 18  7  1  0  0  0  0
 21 10  1  0  0  0  0
 22 11  1  0  0  0  0
 23 11  1  0  0  0  0
 26 14  1  0  0  0  0
 27 15  1  0  0  0  0
 28 16  1  0  0  0  0
 30 17  1  0  0  0  0
M  END
$$$$
