CSD_code = KARRUQ | q = 0 | S = 0 | Stoichiometry = C12H14I2N2Pt | MND = 4
 OpenBabel04212202053D

 31 32  0  0  0  0  0  0  0  0999 V2000
   -0.0048    1.9755   10.0639 Pt  0  0  0  0  0  0  0  0  0  0  0  0
    1.2487    0.9696   12.0911 I   0  0  0  0  0  0  0  0  0  0  0  0
   -0.7633   -0.2930    9.0810 I   0  0  0  0  0  0  0  0  0  0  0  0
   -0.9655    2.8789    8.5339 N   0  0  0  0  0  0  0  0  0  0  0  0
    0.5408    3.8076   10.7305 N   0  0  0  0  0  0  0  0  0  0  0  0
   -2.2944    2.9750    8.5430 C   0  0  0  0  0  3  0  0  0  0  0  0
   -3.0060    3.4984    7.4848 C   0  0  0  0  0  0  0  0  0  0  0  0
   -2.3311    3.9372    6.3471 C   0  0  0  0  0  0  0  0  0  0  0  0
   -0.9437    3.8259    6.3542 C   0  0  0  0  0  0  0  0  0  0  0  0
   -0.3047    3.2964    7.4572 C   0  0  0  0  0  0  0  0  0  0  0  0
   -3.0726    4.4726    5.1698 C   0  0  0  0  0  0  0  0  0  0  0  0
   -0.3111    4.5647   11.4187 C   0  0  0  0  0  3  0  0  0  0  0  0
    0.0617    5.7583   12.0004 C   0  0  0  0  0  0  0  0  0  0  0  0
    1.3743    6.2084   11.8752 C   0  0  0  0  0  0  0  0  0  0  0  0
    2.2487    5.4085   11.1444 C   0  0  0  0  0  0  0  0  0  0  0  0
    1.7988    4.2239   10.5988 C   0  0  0  0  0  0  0  0  0  0  0  0
    1.8256    7.4714   12.5259 C   0  0  0  0  0  0  0  0  0  0  0  0
   -2.8028    2.5993    9.4239 H   0  0  0  0  0  0  0  0  0  0  0  0
   -4.0822    3.5507    7.5379 H   0  0  0  0  0  0  0  0  0  0  0  0
   -0.3623    4.1391    5.5011 H   0  0  0  0  0  0  0  0  0  0  0  0
    0.7739    3.1865    7.4727 H   0  0  0  0  0  0  0  0  0  0  0  0
   -2.4032    4.9850    4.4840 H   0  0  0  0  0  0  0  0  0  0  0  0
   -3.8559    5.1580    5.4875 H   0  0  0  0  0  0  0  0  0  0  0  0
   -3.5491    3.6506    4.6353 H   0  0  0  0  0  0  0  0  0  0  0  0
   -1.3239    4.1914   11.5211 H   0  0  0  0  0  0  0  0  0  0  0  0
   -0.6631    6.3294   12.5595 H   0  0  0  0  0  0  0  0  0  0  0  0
    3.2797    5.6975   11.0143 H   0  0  0  0  0  0  0  0  0  0  0  0
    2.4720    3.5727   10.0530 H   0  0  0  0  0  0  0  0  0  0  0  0
    2.7171    7.8634   12.0432 H   0  0  0  0  0  0  0  0  0  0  0  0
    2.0652    7.2734   13.5711 H   0  0  0  0  0  0  0  0  0  0  0  0
    1.0403    8.2237   12.5011 H   0  0  0  0  0  0  0  0  0  0  0  0
  1  5  1  0  0  0  0
  1  2  1  0  0  0  0
  3  1  1  0  0  0  0
  4  6  1  0  0  0  0
  4  1  1  0  0  0  0
  5 12  1  0  0  0  0
  6 18  1  0  0  0  0
  7 19  1  0  0  0  0
  7  6  1  0  0  0  0
  8  9  1  0  0  0  0
  8  7  2  0  0  0  0
  9 10  2  0  0  0  0
 10 21  1  0  0  0  0
 10  4  1  0  0  0  0
 11 23  1  0  0  0  0
 11  8  1  0  0  0  0
 12 25  1  0  0  0  0
 12 13  1  0  0  0  0
 13 26  1  0  0  0  0
 14 13  2  0  0  0  0
 14 17  1  0  0  0  0
 15 14  1  0  0  0  0
 16  5  1  0  0  0  0
 16 15  2  0  0  0  0
 17 30  1  0  0  0  0
 20  9  1  0  0  0  0
 22 11  1  0  0  0  0
 24 11  1  0  0  0  0
 27 15  1  0  0  0  0
 28 16  1  0  0  0  0
 29 17  1  0  0  0  0
 31 17  1  0  0  0  0
M  END
$$$$
