CSD_code = KARROK | q = 0 | S = 0 | Stoichiometry = C12H14Cl2N2Pt | MND = 4
 OpenBabel04212202053D

 31 32  0  0  0  0  0  0  0  0999 V2000
    0.0001    0.0007    0.0002 Pt  0  0  0  0  0  0  0  0  0  0  0  0
    0.3804   -2.2754   -0.1033 Cl  0  0  0  0  0  0  0  0  0  0  0  0
   -1.1077   -0.2580    1.5857 N   0  0  0  0  0  0  0  0  0  0  0  0
   -2.2501   -0.9447    1.5151 C   0  0  0  0  0  3  0  0  0  0  0  0
   -3.0596   -1.1484    2.6130 C   0  0  0  0  0  0  0  0  0  0  0  0
   -2.6895   -0.6328    3.8536 C   0  0  0  0  0  0  0  0  0  0  0  0
   -1.4955    0.0783    3.9093 C   0  0  0  0  0  0  0  0  0  0  0  0
   -0.7409    0.2453    2.7645 C   0  0  0  0  0  0  0  0  0  0  0  0
   -3.5450   -0.8409    5.0586 C   0  0  0  0  0  0  0  0  0  0  0  0
   -2.5117   -1.3487    0.5438 H   0  0  0  0  0  0  0  0  0  0  0  0
   -3.9753   -1.7090    2.5069 H   0  0  0  0  0  0  0  0  0  0  0  0
   -1.1534    0.5036    4.8399 H   0  0  0  0  0  0  0  0  0  0  0  0
    0.1857    0.8075    2.7832 H   0  0  0  0  0  0  0  0  0  0  0  0
   -3.0993   -0.3862    5.9387 H   0  0  0  0  0  0  0  0  0  0  0  0
   -3.6814   -1.9054    5.2425 H   0  0  0  0  0  0  0  0  0  0  0  0
   -4.5301   -0.4050    4.8985 H   0  0  0  0  0  0  0  0  0  0  0  0
   -0.3807    2.2765    0.1033 Cl  0  0  0  0  0  0  0  0  0  0  0  0
    1.1080    0.2575   -1.5856 N   0  0  0  0  0  0  0  0  0  0  0  0
    2.2502    0.9445   -1.5151 C   0  0  0  0  0  3  0  0  0  0  0  0
    3.0596    1.1484   -2.6130 C   0  0  0  0  0  0  0  0  0  0  0  0
    2.6895    0.6327   -3.8536 C   0  0  0  0  0  0  0  0  0  0  0  0
    1.4955   -0.0784   -3.9093 C   0  0  0  0  0  0  0  0  0  0  0  0
    0.7410   -0.2455   -2.7644 C   0  0  0  0  0  0  0  0  0  0  0  0
    3.5450    0.8409   -5.0586 C   0  0  0  0  0  0  0  0  0  0  0  0
    2.5118    1.3485   -0.5438 H   0  0  0  0  0  0  0  0  0  0  0  0
    3.9753    1.7091   -2.5070 H   0  0  0  0  0  0  0  0  0  0  0  0
    1.1533   -0.5036   -4.8399 H   0  0  0  0  0  0  0  0  0  0  0  0
   -0.1857   -0.8078   -2.7832 H   0  0  0  0  0  0  0  0  0  0  0  0
    3.0992    0.3862   -5.9387 H   0  0  0  0  0  0  0  0  0  0  0  0
    3.6814    1.9054   -5.2426 H   0  0  0  0  0  0  0  0  0  0  0  0
    4.5300    0.4050   -4.8986 H   0  0  0  0  0  0  0  0  0  0  0  0
  1 17  1  0  0  0  0
  1  3  1  0  0  0  0
  2  1  1  0  0  0  0
  3  8  1  0  0  0  0
  4  3  1  0  0  0  0
  4  5  1  0  0  0  0
  5  6  2  0  0  0  0
  6  7  1  0  0  0  0
  6  9  1  0  0  0  0
  7 12  1  0  0  0  0
  8 13  1  0  0  0  0
  8  7  2  0  0  0  0
  9 15  1  0  0  0  0
  9 14  1  0  0  0  0
 10  4  1  0  0  0  0
 11  5  1  0  0  0  0
 16  9  1  0  0  0  0
 18 19  1  0  0  0  0
 18  1  1  0  0  0  0
 19 25  1  0  0  0  0
 20 26  1  0  0  0  0
 20 19  1  0  0  0  0
 21 20  2  0  0  0  0
 22 21  1  0  0  0  0
 22 23  2  0  0  0  0
 23 18  1  0  0  0  0
 24 31  1  0  0  0  0
 24 21  1  0  0  0  0
 27 22  1  0  0  0  0
 28 23  1  0  0  0  0
 29 24  1  0  0  0  0
 30 24  1  0  0  0  0
M  END
$$$$
