CSD_code = KARVAA | q = 0 | S = 0 | Stoichiometry = C12H14I2N2Pt | MND = 4
 OpenBabel04212202053D

 31 32  0  0  0  0  0  0  0  0999 V2000
    0.0016    0.0003   -0.0034 Pt  0  0  0  0  0  0  0  0  0  0  0  0
    2.2655    1.1583    0.5955 I   0  0  0  0  0  0  0  0  0  0  0  0
   -0.9364    1.6923    0.2703 N   0  0  0  0  0  0  0  0  0  0  0  0
   -1.0647    2.5535   -0.7363 C   0  0  0  0  0  3  0  0  0  0  0  0
   -1.7164    3.7701   -0.6104 C   0  0  0  0  0  0  0  0  0  0  0  0
   -2.2538    4.0836    0.6366 C   0  0  0  0  0  0  0  0  0  0  0  0
   -2.1182    3.1857    1.6808 C   0  0  0  0  0  0  0  0  0  0  0  0
   -1.4507    1.9959    1.4586 C   0  0  0  0  0  0  0  0  0  0  0  0
   -1.8361    4.7093   -1.7648 C   0  0  0  0  0  0  0  0  0  0  0  0
   -0.6245    2.2544   -1.6845 H   0  0  0  0  0  0  0  0  0  0  0  0
   -2.7703    5.0205    0.7810 H   0  0  0  0  0  0  0  0  0  0  0  0
   -2.5235    3.4006    2.6564 H   0  0  0  0  0  0  0  0  0  0  0  0
   -1.3214    1.2616    2.2484 H   0  0  0  0  0  0  0  0  0  0  0  0
   -1.3742    4.2950   -2.6566 H   0  0  0  0  0  0  0  0  0  0  0  0
   -1.3529    5.6561   -1.5280 H   0  0  0  0  0  0  0  0  0  0  0  0
   -2.8847    4.9138   -1.9750 H   0  0  0  0  0  0  0  0  0  0  0  0
   -2.2614   -1.1567   -0.6060 I   0  0  0  0  0  0  0  0  0  0  0  0
    0.9385   -1.6925   -0.2754 N   0  0  0  0  0  0  0  0  0  0  0  0
    1.0649   -2.5509    0.7339 C   0  0  0  0  0  3  0  0  0  0  0  0
    1.7152   -3.7687    0.6122 C   0  0  0  0  0  0  0  0  0  0  0  0
    2.2533   -4.0866   -0.6334 C   0  0  0  0  0  0  0  0  0  0  0  0
    2.1200   -3.1914   -1.6803 C   0  0  0  0  0  0  0  0  0  0  0  0
    1.4537   -2.0001   -1.4623 C   0  0  0  0  0  0  0  0  0  0  0  0
    1.3261   -1.2679   -2.2542 H   0  0  0  0  0  0  0  0  0  0  0  0
    2.5260   -3.4097   -2.6548 H   0  0  0  0  0  0  0  0  0  0  0  0
    2.7687   -5.0246   -0.7746 H   0  0  0  0  0  0  0  0  0  0  0  0
    1.8324   -4.7047    1.7695 C   0  0  0  0  0  0  0  0  0  0  0  0
    1.3713   -4.2867    2.6599 H   0  0  0  0  0  0  0  0  0  0  0  0
    1.3470   -5.6511    1.5354 H   0  0  0  0  0  0  0  0  0  0  0  0
    2.8805   -4.9111    1.9806 H   0  0  0  0  0  0  0  0  0  0  0  0
    0.6243   -2.2485    1.6809 H   0  0  0  0  0  0  0  0  0  0  0  0
  1  3  1  0  0  0  0
  1  2  1  0  0  0  0
  3  8  1  0  0  0  0
  4  5  1  0  0  0  0
  4  3  1  0  0  0  0
  5  6  2  0  0  0  0
  6 11  1  0  0  0  0
  6  7  1  0  0  0  0
  7 12  1  0  0  0  0
  8  7  2  0  0  0  0
  8 13  1  0  0  0  0
  9 15  1  0  0  0  0
  9  5  1  0  0  0  0
 10  4  1  0  0  0  0
 14  9  1  0  0  0  0
 16  9  1  0  0  0  0
 17  1  1  0  0  0  0
 18  1  1  0  0  0  0
 18 19  1  0  0  0  0
 19 31  1  0  0  0  0
 20 19  1  0  0  0  0
 20 27  1  0  0  0  0
 21 20  2  0  0  0  0
 22 23  2  0  0  0  0
 22 21  1  0  0  0  0
 23 18  1  0  0  0  0
 24 23  1  0  0  0  0
 25 22  1  0  0  0  0
 26 21  1  0  0  0  0
 27 30  1  0  0  0  0
 27 28  1  0  0  0  0
 29 27  1  0  0  0  0
M  END
$$$$
