CSD_code = KASNAU | q = 0 | S = 0 | Stoichiometry = C24H21Cl3NPPd | MND = 4
 OpenBabel04212202053D

 51 54  0  0  0  0  0  0  0  0999 V2000
    0.0403   -0.6394    2.9887 Pd  0  0  0  0  0  0  0  0  0  0  0  0
   -1.5521    0.5054    1.7673 Cl  0  0  0  0  0  0  0  0  0  0  0  0
    1.6447   -1.7853    4.1295 Cl  0  0  0  0  0  0  0  0  0  0  0  0
   -1.5770   -2.8284    2.9233 Cl  0  0  0  0  0  0  0  0  0  0  0  0
   -0.4319    0.7369    4.6558 P   0  0  0  0  0  4  0  0  0  0  0  0
    0.4678   -1.7414    1.1470 N   0  0  0  0  0  4  0  0  0  0  0  0
   -0.4352   -1.4803    0.7275 H   0  0  0  0  0  0  0  0  0  0  0  0
    1.2328   -1.3816    0.5750 H   0  0  0  0  0  0  0  0  0  0  0  0
    0.5964   -3.1303    1.3810 C   0  0  0  0  0  0  0  0  0  0  0  0
    1.6519   -3.8675    0.8577 C   0  0  0  0  0  0  0  0  0  0  0  0
    2.3940   -3.3705    0.2490 H   0  0  0  0  0  0  0  0  0  0  0  0
    1.7673   -5.2191    1.1284 C   0  0  0  0  0  0  0  0  0  0  0  0
    2.5972   -5.7746    0.7200 H   0  0  0  0  0  0  0  0  0  0  0  0
    0.8259   -5.8551    1.9192 C   0  0  0  0  0  0  0  0  0  0  0  0
    0.9158   -6.9093    2.1288 H   0  0  0  0  0  0  0  0  0  0  0  0
   -0.2253   -5.1353    2.4618 C   0  0  0  0  0  0  0  0  0  0  0  0
   -0.9522   -5.6101    3.1004 H   0  0  0  0  0  0  0  0  0  0  0  0
   -0.3328   -3.7827    2.1972 C   0  0  0  0  0  0  0  0  0  0  0  0
   -2.2079    0.6199    4.9898 C   0  0  0  0  0  0  0  0  0  0  0  0
   -3.1314    1.6247    4.7376 C   0  0  0  0  0  0  0  0  0  0  0  0
   -2.7993    2.5892    4.3817 H   0  0  0  0  0  0  0  0  0  0  0  0
   -4.4810    1.3719    4.9196 C   0  0  0  0  0  0  0  0  0  0  0  0
   -5.2020    2.1507    4.7187 H   0  0  0  0  0  0  0  0  0  0  0  0
   -4.9095    0.1245    5.3409 C   0  0  0  0  0  0  0  0  0  0  0  0
   -5.9644   -0.0671    5.4708 H   0  0  0  0  0  0  0  0  0  0  0  0
   -3.9896   -0.8861    5.5794 C   0  0  0  0  0  0  0  0  0  0  0  0
   -4.3258   -1.8636    5.8928 H   0  0  0  0  0  0  0  0  0  0  0  0
   -2.6425   -0.6421    5.3982 C   0  0  0  0  0  0  0  0  0  0  0  0
   -1.9044   -1.4225    5.5658 H   0  0  0  0  0  0  0  0  0  0  0  0
   -0.0177    2.4468    4.2181 C   0  0  0  0  0  0  0  0  0  0  0  0
    0.7344    2.6730    3.0706 C   0  0  0  0  0  0  0  0  0  0  0  0
    1.0225    1.8219    2.4485 H   0  0  0  0  0  0  0  0  0  0  0  0
    1.0985    3.9629    2.7280 C   0  0  0  0  0  0  0  0  0  0  0  0
    1.6766    4.1431    1.8337 H   0  0  0  0  0  0  0  0  0  0  0  0
    0.7183    5.0241    3.5332 C   0  0  0  0  0  0  0  0  0  0  0  0
    0.9969    6.0321    3.2633 H   0  0  0  0  0  0  0  0  0  0  0  0
   -0.0125    4.7980    4.6897 C   0  0  0  0  0  0  0  0  0  0  0  0
   -0.2966    5.6281    5.3200 H   0  0  0  0  0  0  0  0  0  0  0  0
   -0.3756    3.5108    5.0403 C   0  0  0  0  0  0  0  0  0  0  0  0
   -0.9317    3.3229    5.9493 H   0  0  0  0  0  0  0  0  0  0  0  0
    0.3775    0.6014    6.2770 C   0  0  0  0  0  0  0  0  0  0  0  0
    1.7675    0.6840    6.2739 C   0  0  0  0  0  0  0  0  0  0  0  0
    2.2868    0.7868    5.3292 H   0  0  0  0  0  0  0  0  0  0  0  0
    2.4670    0.6109    7.4620 C   0  0  0  0  0  0  0  0  0  0  0  0
    3.5453    0.6656    7.4581 H   0  0  0  0  0  0  0  0  0  0  0  0
    1.7828    0.4585    8.6585 C   0  0  0  0  0  0  0  0  0  0  0  0
    2.3292    0.3950    9.5880 H   0  0  0  0  0  0  0  0  0  0  0  0
    0.4005    0.3830    8.6638 C   0  0  0  0  0  0  0  0  0  0  0  0
   -0.1319    0.2651    9.5965 H   0  0  0  0  0  0  0  0  0  0  0  0
   -0.3072    0.4539    7.4758 C   0  0  0  0  0  0  0  0  0  0  0  0
   -1.3867    0.3937    7.4829 H   0  0  0  0  0  0  0  0  0  0  0  0
  1  3  1  0  0  0  0
  1  5  1  0  0  0  0
  2  1  1  0  0  0  0
  5 19  1  0  0  0  0
  5 41  1  0  0  0  0
  6  9  1  0  0  0  0
  6  1  1  0  0  0  0
  7  6  1  0  0  0  0
  8  6  1  0  0  0  0
  9 18  1  0  0  0  0
 10 12  1  0  0  0  0
 10  9  2  0  0  0  0
 11 10  1  0  0  0  0
 12 14  2  0  0  0  0
 13 12  1  0  0  0  0
 14 15  1  0  0  0  0
 14 16  1  0  0  0  0
 16 17  1  0  0  0  0
 18 16  2  0  0  0  0
 18  4  1  0  0  0  0
 19 28  1  0  0  0  0
 20 22  1  0  0  0  0
 20 19  2  0  0  0  0
 21 20  1  0  0  0  0
 22 24  2  0  0  0  0
 23 22  1  0  0  0  0
 24 25  1  0  0  0  0
 24 26  1  0  0  0  0
 26 27  1  0  0  0  0
 28 29  1  0  0  0  0
 28 26  2  0  0  0  0
 30  5  1  0  0  0  0
 30 39  1  0  0  0  0
 31 30  2  0  0  0  0
 32 31  1  0  0  0  0
 33 31  1  0  0  0  0
 33 35  2  0  0  0  0
 34 33  1  0  0  0  0
 35 37  1  0  0  0  0
 36 35  1  0  0  0  0
 37 39  2  0  0  0  0
 37 38  1  0  0  0  0
 39 40  1  0  0  0  0
 41 50  1  0  0  0  0
 42 41  2  0  0  0  0
 42 44  1  0  0  0  0
 43 42  1  0  0  0  0
 44 46  2  0  0  0  0
 45 44  1  0  0  0  0
 46 48  1  0  0  0  0
 46 47  1  0  0  0  0
 48 49  1  0  0  0  0
 50 51  1  0  0  0  0
 50 48  2  0  0  0  0
M  END
$$$$
