CSD_code = KASSAY | q = 0 | S = 0 | Stoichiometry = C26H16Cl2Zr | MND = 12
 OpenBabel04212202053D

 45 50  0  0  1  0  0  0  0  0999 V2000
   -3.3517  -14.4672   -6.4901 Zr  0  0  0  0  0  0  0  0  0  0  0  0
   -2.5681  -13.6478   -8.5105 Cl  0  0  0  0  0  0  0  0  0  0  0  0
   -5.3838  -15.0634   -7.4319 Cl  0  0  0  0  0  0  0  0  0  0  0  0
   -2.9059  -16.5158   -5.2045 C   0  0  2  0  0  0  0  0  0  0  0  0
   -1.7292  -15.7425   -5.0674 C   0  0  0  0  0  0  0  0  0  0  0  0
   -1.1307  -15.6333   -6.3495 C   0  0  0  0  0  0  0  0  0  0  0  0
   -1.9049  -16.3726   -7.2707 C   0  0  0  0  0  0  0  0  0  0  0  0
   -2.9967  -16.9369   -6.5650 C   0  0  0  0  0  0  0  0  0  0  0  0
   -4.0280  -17.8274   -7.0229 C   0  0  0  0  0  0  0  0  0  0  0  0
   -4.8889  -18.4938   -5.9148 C   0  0  0  0  0  0  0  0  0  0  0  0
   -5.1904  -17.4378   -4.8523 C   0  0  0  0  0  0  0  0  0  0  0  0
   -3.8798  -17.0124   -4.1557 C   0  0  1  0  0  0  0  0  0  0  0  0
   -3.2241  -18.1601   -3.5210 C   0  0  0  0  0  3  0  0  0  0  0  0
   -2.4024  -18.7666   -2.6574 C   0  0  0  0  0  2  0  0  0  0  0  0
   -3.0132  -19.6130   -3.6175 C   0  0  0  0  0  2  0  0  0  0  0  0
   -4.6693  -18.3706   -8.0082 C   0  0  0  0  0  2  0  0  0  0  0  0
   -2.6409  -12.6329   -5.0145 C   0  0  2  0  0  0  0  0  0  0  0  0
   -3.4184  -13.4783   -4.1888 C   0  0  0  0  0  0  0  0  0  0  0  0
   -4.7526  -13.4474   -4.6713 C   0  0  0  0  0  0  0  0  0  0  0  0
   -4.8147  -12.5532   -5.7626 C   0  0  0  0  0  0  0  0  0  0  0  0
   -3.5135  -12.0310   -5.9698 C   0  0  0  0  0  0  0  0  0  0  0  0
   -3.0586  -11.0362   -6.9022 C   0  0  0  0  0  0  0  0  0  0  0  0
   -1.6265  -10.4851   -6.6606 C   0  0  0  0  0  0  0  0  0  0  0  0
   -0.7279  -11.6585   -6.2720 C   0  0  0  0  0  0  0  0  0  0  0  0
   -1.1832  -12.2329   -4.9129 C   0  0  1  0  0  0  0  0  0  0  0  0
   -1.1240  -11.2109   -3.8631 C   0  0  0  0  0  3  0  0  0  0  0  0
   -1.2498   -9.7693   -3.5977 C   0  0  0  0  0  2  0  0  0  0  0  0
   -1.0511  -10.7631   -2.6052 C   0  0  0  0  0  2  0  0  0  0  0  0
   -3.2740  -10.3349   -7.9695 C   0  0  0  0  0  2  0  0  0  0  0  0
   -1.2749  -15.4407   -4.1312 H   0  0  0  0  0  0  0  0  0  0  0  0
   -0.1644  -15.1912   -6.5625 H   0  0  0  0  0  0  0  0  0  0  0  0
   -1.6598  -16.5636   -8.3082 H   0  0  0  0  0  0  0  0  0  0  0  0
   -4.2983  -19.3131   -5.4843 H   0  0  0  0  0  0  0  0  0  0  0  0
   -5.8083  -18.9175   -6.3294 H   0  0  0  0  0  0  0  0  0  0  0  0
   -5.8755  -17.8637   -4.1155 H   0  0  0  0  0  0  0  0  0  0  0  0
   -5.6642  -16.5605   -5.3123 H   0  0  0  0  0  0  0  0  0  0  0  0
   -4.0878  -16.2411   -3.3982 H   0  0  0  0  0  0  0  0  0  0  0  0
   -3.0954  -13.9254   -3.2561 H   0  0  0  0  0  0  0  0  0  0  0  0
   -5.6101  -13.9081   -4.1947 H   0  0  0  0  0  0  0  0  0  0  0  0
   -5.7094  -12.2394   -6.2861 H   0  0  0  0  0  0  0  0  0  0  0  0
   -1.6851   -9.7591   -5.8391 H   0  0  0  0  0  0  0  0  0  0  0  0
   -1.2470   -9.9677   -7.5466 H   0  0  0  0  0  0  0  0  0  0  0  0
   -0.7758  -12.4437   -7.0382 H   0  0  0  0  0  0  0  0  0  0  0  0
    0.3023  -11.3035   -6.1934 H   0  0  0  0  0  0  0  0  0  0  0  0
   -0.5479  -13.0870   -4.6317 H   0  0  0  0  0  0  0  0  0  0  0  0
  2  1  1  0  0  0  0
  3  1  1  0  0  0  0
  4  1  1  6  0  0  0
  4  5  1  0  0  0  0
  4 12  1  0  0  0  0
  5 30  1  0  0  0  0
  6  5  2  0  0  0  0
  7  8  2  0  0  0  0
  7  6  1  0  0  0  0
  8  4  1  0  0  0  0
  9  8  1  0  0  0  0
  9 10  1  0  0  0  0
 10 33  1  0  0  0  0
 10 11  1  0  0  0  0
 11 12  1  0  0  0  0
 11 35  1  0  0  0  0
 12 13  1  0  0  0  0
 12 37  1  1  0  0  0
 13 14  1  0  0  0  0
 15 13  1  0  0  0  0
 15 14  1  0  0  0  0
 16  9  2  0  0  0  0
 17  1  1  6  0  0  0
 17 25  1  0  0  0  0
 17 18  1  0  0  0  0
 18 38  1  0  0  0  0
 19 39  1  0  0  0  0
 19 18  2  0  0  0  0
 20 19  1  0  0  0  0
 21 20  2  0  0  0  0
 21 17  1  0  0  0  0
 22 23  1  0  0  0  0
 22 21  1  0  0  0  0
 23 24  1  0  0  0  0
 23 41  1  0  0  0  0
 24 44  1  0  0  0  0
 24 25  1  0  0  0  0
 25 45  1  1  0  0  0
 25 26  1  0  0  0  0
 26 27  1  0  0  0  0
 26 28  1  0  0  0  0
 27 28  1  0  0  0  0
 29 22  2  0  0  0  0
 31  6  1  0  0  0  0
 32  7  1  0  0  0  0
 34 10  1  0  0  0  0
 36 11  1  0  0  0  0
 40 20  1  0  0  0  0
 42 23  1  0  0  0  0
 43 24  1  0  0  0  0
M  END
$$$$
