CSD_code = KATJEV | q = 0 | S = 0 | Stoichiometry = C17H12Cl2N2PdS2 | MND = 4
 OpenBabel04212202053D

 36 40  0  0  1  0  0  0  0  0999 V2000
    7.7764    3.9364    7.6035 Pd  0  0  0  0  0  0  0  0  0  0  0  0
    6.6794    5.6982    8.4223 Cl  0  0  0  0  0  0  0  0  0  0  0  0
    9.6421    4.4854    8.6838 Cl  0  0  0  0  0  0  0  0  0  0  0  0
    3.4741    3.3648    6.1290 S   0  0  0  0  0  0  0  0  0  0  0  0
    4.8046    1.7874    8.2814 S   0  0  0  0  0  0  0  0  0  0  0  0
    6.0189    3.5032    6.5652 N   0  0  0  0  0  0  0  0  0  0  0  0
    8.6741    2.3174    6.7905 N   0  0  0  0  0  0  0  0  0  0  0  0
    4.9379    2.9285    6.9913 C   0  0  1  0  0  3  0  0  0  0  0  0
    4.4274    4.4443    5.1413 C   0  0  0  0  0  0  0  0  0  0  0  0
    4.0217    5.2929    4.1257 C   0  0  0  0  0  0  0  0  0  0  0  0
    2.9859    5.3396    3.8304 H   0  0  0  0  0  0  0  0  0  0  0  0
    4.9798    6.0827    3.5191 C   0  0  0  0  0  0  0  0  0  0  0  0
    4.6856    6.7567    2.7297 H   0  0  0  0  0  0  0  0  0  0  0  0
    6.3143    6.0382    3.9196 C   0  0  0  0  0  0  0  0  0  0  0  0
    7.0324    6.6839    3.4385 H   0  0  0  0  0  0  0  0  0  0  0  0
    6.7270    5.1913    4.9267 C   0  0  0  0  0  0  0  0  0  0  0  0
    7.7646    5.1673    5.2741 H   0  0  0  0  0  0  0  0  0  0  0  0
    5.7730    4.3812    5.5408 C   0  0  0  0  0  0  0  0  0  0  0  0
    9.6629    2.6704    5.9897 C   0  0  0  0  0  0  0  0  0  0  0  0
   10.0327    3.6874    6.0969 H   0  0  0  0  0  0  0  0  0  0  0  0
   10.2507    1.8057    5.0625 C   0  0  0  0  0  0  0  0  0  0  0  0
   11.0535    2.1611    4.4371 H   0  0  0  0  0  0  0  0  0  0  0  0
    9.7849    0.5221    4.9762 C   0  0  0  0  0  0  0  0  0  0  0  0
   10.1982   -0.1824    4.2701 H   0  0  0  0  0  0  0  0  0  0  0  0
    8.7539    0.0997    5.8410 C   0  0  0  0  0  0  0  0  0  0  0  0
    8.2702   -1.2215    5.7930 C   0  0  0  0  0  3  0  0  0  0  0  0
    8.6953   -1.8994    5.0683 H   0  0  0  0  0  0  0  0  0  0  0  0
    7.2876   -1.6290    6.6504 C   0  0  0  0  0  0  0  0  0  0  0  0
    6.9108   -2.6393    6.6196 H   0  0  0  0  0  0  0  0  0  0  0  0
    6.7723   -0.7291    7.5847 C   0  0  0  0  0  0  0  0  0  0  0  0
    6.0017   -1.0632    8.2644 H   0  0  0  0  0  0  0  0  0  0  0  0
    7.2056    0.5780    7.6710 C   0  0  0  0  0  0  0  0  0  0  0  0
    8.2104    1.0359    6.7727 C   0  0  0  0  0  0  0  0  0  0  0  0
    6.5563    1.4233    8.7275 C   0  0  0  0  0  0  0  0  0  0  0  0
    7.0820    2.3795    8.9516 H   0  0  0  0  0  0  0  0  0  0  0  0
    6.4503    0.8511    9.6506 H   0  0  0  0  0  0  0  0  0  0  0  0
  1  2  1  0  0  0  0
  1  3  1  0  0  0  0
  5 34  1  0  0  0  0
  6  8  1  0  0  0  0
  6  1  1  0  0  0  0
  7  1  1  0  0  0  0
  8  4  1  6  0  0  0
  8  5  1  0  0  0  0
  9 18  1  0  0  0  0
  9  4  1  0  0  0  0
 10  9  2  0  0  0  0
 11 10  1  0  0  0  0
 12 14  2  0  0  0  0
 12 10  1  0  0  0  0
 13 12  1  0  0  0  0
 14 16  1  0  0  0  0
 15 14  1  0  0  0  0
 16 17  1  0  0  0  0
 16 18  2  0  0  0  0
 18  6  1  0  0  0  0
 19 20  1  0  0  0  0
 19  7  1  0  0  0  0
 21 19  2  0  0  0  0
 22 21  1  0  0  0  0
 23 21  1  0  0  0  0
 23 25  2  0  0  0  0
 24 23  1  0  0  0  0
 25 33  1  0  0  0  0
 26 25  1  0  0  0  0
 26 28  1  0  0  0  0
 27 26  1  0  0  0  0
 28 30  2  0  0  0  0
 29 28  1  0  0  0  0
 30 32  1  0  0  0  0
 30 31  1  0  0  0  0
 32 34  1  0  0  0  0
 33  7  1  0  0  0  0
 33 32  2  0  0  0  0
 34 35  1  0  0  0  0
 34 36  1  0  0  0  0
M  END
$$$$
