CSD_code = KATJAQ | q = 0 | S = 0 | Stoichiometry = C15H23Cl3OTi | MND = 4
 OpenBabel04212202053D

 43 43  0  0  0  0  0  0  0  0999 V2000
    2.9823    4.7509    6.4898 Ti  0  0  0  0  0  0  0  0  0  0  0  0
    2.1269    6.0656    5.0114 Cl  0  0  0  0  0  0  0  0  0  0  0  0
    4.1356    3.3227    5.3437 Cl  0  0  0  0  0  0  0  0  0  0  0  0
    4.4503    6.1082    7.2948 Cl  0  0  0  0  0  0  0  0  0  0  0  0
    1.9449    4.0480    7.5592 O   0  0  0  0  0  0  0  0  0  0  0  0
    1.2258    3.1981    8.3061 C   0  0  0  0  0  0  0  0  0  0  0  0
    1.7347    2.7716    9.5520 C   0  0  0  0  0  0  0  0  0  0  0  0
    0.9980    1.8428   10.2676 C   0  0  0  0  0  0  0  0  0  0  0  0
    1.3567    1.4825   11.2170 H   0  0  0  0  0  0  0  0  0  0  0  0
   -0.2097    1.3438    9.8004 C   0  0  0  0  0  0  0  0  0  0  0  0
   -0.7045    1.8078    8.5929 C   0  0  0  0  0  0  0  0  0  0  0  0
   -1.6510    1.4237    8.2519 H   0  0  0  0  0  0  0  0  0  0  0  0
   -0.0180    2.7381    7.8268 C   0  0  0  0  0  0  0  0  0  0  0  0
   -0.9593    0.3263   10.6056 C   0  0  0  0  0  0  0  0  0  0  0  0
   -1.8935    0.0554   10.1214 H   0  0  0  0  0  0  0  0  0  0  0  0
   -1.1817    0.7151   11.5982 H   0  0  0  0  0  0  0  0  0  0  0  0
   -0.3590   -0.5739   10.7295 H   0  0  0  0  0  0  0  0  0  0  0  0
    3.0495    3.3386   10.0809 C   0  0  0  0  0  0  0  0  0  0  0  0
    4.2029    2.9527    9.1381 C   0  0  0  0  0  0  0  0  0  0  0  0
    5.1422    3.3379    9.5319 H   0  0  0  0  0  0  0  0  0  0  0  0
    4.0665    3.3578    8.1249 H   0  0  0  0  0  0  0  0  0  0  0  0
    4.2746    1.8676    9.0683 H   0  0  0  0  0  0  0  0  0  0  0  0
    3.4042    2.7948   11.4712 C   0  0  0  0  0  0  0  0  0  0  0  0
    2.6310    3.0329   12.1971 H   0  0  0  0  0  0  0  0  0  0  0  0
    4.3303    3.2561   11.8063 H   0  0  0  0  0  0  0  0  0  0  0  0
    3.5560    1.7186   11.4485 H   0  0  0  0  0  0  0  0  0  0  0  0
    2.9278    4.8668   10.2112 C   0  0  0  0  0  0  0  0  0  0  0  0
    2.1851    5.1110   10.9689 H   0  0  0  0  0  0  0  0  0  0  0  0
    2.6294    5.3451    9.2724 H   0  0  0  0  0  0  0  0  0  0  0  0
    3.8836    5.2889   10.5149 H   0  0  0  0  0  0  0  0  0  0  0  0
   -0.5812    3.2713    6.5121 C   0  0  0  0  0  0  0  0  0  0  0  0
   -1.9662    2.6940    6.1906 C   0  0  0  0  0  0  0  0  0  0  0  0
   -1.9241    1.6161    6.0559 H   0  0  0  0  0  0  0  0  0  0  0  0
   -2.3263    3.1330    5.2631 H   0  0  0  0  0  0  0  0  0  0  0  0
   -2.6836    2.9306    6.9723 H   0  0  0  0  0  0  0  0  0  0  0  0
    0.3483    2.8865    5.3477 C   0  0  0  0  0  0  0  0  0  0  0  0
    1.3573    3.3085    5.4621 H   0  0  0  0  0  0  0  0  0  0  0  0
   -0.0672    3.2548    4.4108 H   0  0  0  0  0  0  0  0  0  0  0  0
    0.4337    1.8018    5.2873 H   0  0  0  0  0  0  0  0  0  0  0  0
   -0.7409    4.7984    6.6127 C   0  0  0  0  0  0  0  0  0  0  0  0
    0.1955    5.3008    6.8777 H   0  0  0  0  0  0  0  0  0  0  0  0
   -1.4833    5.0386    7.3722 H   0  0  0  0  0  0  0  0  0  0  0  0
   -1.0795    5.1983    5.6591 H   0  0  0  0  0  0  0  0  0  0  0  0
  1  4  1  0  0  0  0
  1  5  1  0  0  0  0
  2  1  1  0  0  0  0
  3  1  1  0  0  0  0
  5  6  1  0  0  0  0
  6  7  1  0  0  0  0
  7 18  1  0  0  0  0
  7  8  2  0  0  0  0
  8  9  1  0  0  0  0
 10  8  1  0  0  0  0
 10 14  1  0  0  0  0
 11 10  2  0  0  0  0
 12 11  1  0  0  0  0
 13  6  2  0  0  0  0
 13 11  1  0  0  0  0
 14 17  1  0  0  0  0
 14 16  1  0  0  0  0
 15 14  1  0  0  0  0
 18 27  1  0  0  0  0
 18 23  1  0  0  0  0
 19 20  1  0  0  0  0
 19 18  1  0  0  0  0
 21 19  1  0  0  0  0
 22 19  1  0  0  0  0
 23 25  1  0  0  0  0
 23 24  1  0  0  0  0
 26 23  1  0  0  0  0
 27 30  1  0  0  0  0
 27 28  1  0  0  0  0
 29 27  1  0  0  0  0
 31 40  1  0  0  0  0
 31 13  1  0  0  0  0
 32 31  1  0  0  0  0
 32 35  1  0  0  0  0
 33 32  1  0  0  0  0
 34 32  1  0  0  0  0
 36 37  1  0  0  0  0
 36 31  1  0  0  0  0
 38 36  1  0  0  0  0
 39 36  1  0  0  0  0
 40 41  1  0  0  0  0
 40 42  1  0  0  0  0
 43 40  1  0  0  0  0
M  END
$$$$
