CSD_code = KATSOO | q = 0 | S = 0 | Stoichiometry = C12H9Cl2N3Pt | MND = 4
 OpenBabel04212202053D

 27 30  0  0  0  0  0  0  0  0999 V2000
    1.7168    1.6626   17.0933 Pt  0  0  0  0  0  0  0  0  0  0  0  0
    3.8581    1.8923   17.6454 Cl  0  0  0  0  0  0  0  0  0  0  0  0
    1.3262    0.8468   19.1350 Cl  0  0  0  0  0  0  0  0  0  0  0  0
   -0.1996    1.4970   16.4966 N   0  0  0  0  0  0  0  0  0  0  0  0
    1.9059    2.3814   15.2114 N   0  0  0  0  0  0  0  0  0  0  0  0
    0.8882    2.8779   13.2979 N   0  0  0  0  0  0  0  0  0  0  0  0
    0.1608    2.9818   12.6115 H   0  0  0  0  0  0  0  0  0  0  0  0
   -1.2204    1.0307   17.2149 C   0  0  0  0  0  0  0  0  0  0  0  0
   -0.9758    0.7102   18.2199 H   0  0  0  0  0  0  0  0  0  0  0  0
   -2.5068    0.9587   16.7167 C   0  0  0  0  0  0  0  0  0  0  0  0
   -3.3000    0.5736   17.3361 H   0  0  0  0  0  0  0  0  0  0  0  0
   -2.7600    1.3871   15.4166 C   0  0  0  0  0  0  0  0  0  0  0  0
   -3.7557    1.3423   15.0042 H   0  0  0  0  0  0  0  0  0  0  0  0
   -1.7095    1.8717   14.6630 C   0  0  0  0  0  0  0  0  0  0  0  0
   -1.8650    2.2133   13.6514 H   0  0  0  0  0  0  0  0  0  0  0  0
   -0.4345    1.9160   15.2269 C   0  0  0  0  0  0  0  0  0  0  0  0
    0.7464    2.3904   14.5630 C   0  0  0  0  0  0  0  0  0  0  0  0
    2.8516    2.8775   14.3524 C   0  0  0  0  0  0  0  0  0  0  0  0
    4.2193    3.0850   14.5127 C   0  0  0  0  0  0  0  0  0  0  0  0
    4.6939    2.8377   15.4490 H   0  0  0  0  0  0  0  0  0  0  0  0
    4.9066    3.6077   13.4391 C   0  0  0  0  0  0  0  0  0  0  0  0
    5.9677    3.7818   13.5259 H   0  0  0  0  0  0  0  0  0  0  0  0
    4.2690    3.9211   12.2343 C   0  0  0  0  0  0  0  0  0  0  0  0
    4.8519    4.3287   11.4225 H   0  0  0  0  0  0  0  0  0  0  0  0
    2.9150    3.7226   12.0569 C   0  0  0  0  0  0  0  0  0  0  0  0
    2.4227    3.9642   11.1276 H   0  0  0  0  0  0  0  0  0  0  0  0
    2.2131    3.1964   13.1308 C   0  0  0  0  0  0  0  0  0  0  0  0
  1  2  1  0  0  0  0
  1  3  1  0  0  0  0
  4  1  1  0  0  0  0
  4  8  1  0  0  0  0
  5  1  1  0  0  0  0
  6 17  1  0  0  0  0
  7  6  1  0  0  0  0
  8  9  1  0  0  0  0
 10  8  2  0  0  0  0
 10 11  1  0  0  0  0
 12 10  1  0  0  0  0
 13 12  1  0  0  0  0
 14 16  1  0  0  0  0
 14 12  2  0  0  0  0
 15 14  1  0  0  0  0
 16  4  1  0  0  0  0
 17  5  1  0  0  0  0
 17 16  2  0  0  0  0
 18 19  1  0  0  0  0
 18  5  1  0  0  0  0
 19 20  1  0  0  0  0
 21 22  1  0  0  0  0
 21 19  2  0  0  0  0
 23 21  1  0  0  0  0
 24 23  1  0  0  0  0
 25 23  2  0  0  0  0
 25 27  1  0  0  0  0
 26 25  1  0  0  0  0
 27  6  1  0  0  0  0
 27 18  2  0  0  0  0
M  END
$$$$
