CSD_code = KAVFAR | q = 0 | S = 0 | Stoichiometry = C14H12BrClN4Pd | MND = 4
 OpenBabel04212202053D

 33 36  0  0  1  0  0  0  0  0999 V2000
    1.2198   -0.9749    9.2115 Pd  0  0  2  0  0  0  0  0  0  0  0  0
   -3.9259    3.0379   12.7002 Br  0  0  0  0  0  0  0  0  0  0  0  0
    1.4249   -3.1138    9.7263 Cl  0  0  0  0  0  0  0  0  0  0  0  0
    2.2318   -1.2430    7.2211 N   0  0  0  0  0  0  0  0  0  0  0  0
    1.8469    1.0219    7.3319 N   0  0  0  0  0  0  0  0  0  0  0  0
    3.3333    0.2357    5.7260 N   0  0  0  0  0  0  0  0  0  0  0  0
    0.4771    2.0352    8.6566 N   0  0  0  0  0  0  0  0  0  0  0  0
    2.5117   -0.0256    6.7285 C   0  0  2  0  0  3  0  0  0  0  0  0
    3.7933   -2.0935    5.6615 C   0  0  0  0  0  0  0  0  0  0  0  0
    4.3270   -2.9248    5.2338 H   0  0  0  0  0  0  0  0  0  0  0  0
    0.8227   -0.5706   11.1843 C   0  0  0  0  0  0  0  0  0  0  0  0
    0.7544    0.4951   11.4251 H   0  0  0  0  0  0  0  0  0  0  0  0
    1.6622   -1.0094   11.7387 H   0  0  0  0  0  0  0  0  0  0  0  0
   -0.0957   -1.0776   11.4993 H   0  0  0  0  0  0  0  0  0  0  0  0
    1.0871    0.8430    8.4619 C   0  0  0  0  0  0  0  0  0  0  0  0
    2.8861   -2.2725    6.6969 C   0  0  0  0  0  0  0  0  0  0  0  0
    2.6588   -3.2444    7.1203 H   0  0  0  0  0  0  0  0  0  0  0  0
   -0.6350    3.5121   10.2304 C   0  0  0  0  0  0  0  0  0  0  0  0
    0.0763    4.2945   10.0143 H   0  0  0  0  0  0  0  0  0  0  0  0
   -0.5256    2.2719    9.6100 C   0  0  0  0  0  0  0  0  0  0  0  0
   -2.5363    2.7213   11.4419 C   0  0  0  0  0  0  0  0  0  0  0  0
    3.9665   -0.7972    5.1928 C   0  0  0  0  0  0  0  0  0  0  0  0
    4.6301   -0.5633    4.3719 H   0  0  0  0  0  0  0  0  0  0  0  0
   -1.4335    1.2566    9.9098 C   0  0  0  0  0  0  0  0  0  0  0  0
   -1.3377    0.2896    9.4208 H   0  0  0  0  0  0  0  0  0  0  0  0
   -2.4364    1.4797   10.8321 C   0  0  0  0  0  0  0  0  0  0  0  0
   -3.1400    0.6984   11.0721 H   0  0  0  0  0  0  0  0  0  0  0  0
   -1.6429    3.7385   11.1486 C   0  0  0  0  0  0  0  0  0  0  0  0
   -1.7306    4.6963   11.6370 H   0  0  0  0  0  0  0  0  0  0  0  0
    0.8835    2.9467    7.6999 C   0  0  0  0  0  0  0  0  0  0  0  0
    0.5091    3.9490    7.6722 H   0  0  0  0  0  0  0  0  0  0  0  0
    1.7378    2.3169    6.8701 C   0  0  0  0  0  0  0  0  0  0  0  0
    2.2667    2.6490    6.0019 H   0  0  0  0  0  0  0  0  0  0  0  0
  1  3  1  6  0  0  0
  1 11  1  0  0  0  0
  4  1  1  0  0  0  0
  5 15  1  0  0  0  0
  7 20  1  0  0  0  0
  8  6  1  6  0  0  0
  8  4  1  0  0  0  0
  8  5  1  0  0  0  0
  9 16  2  0  0  0  0
 10  9  1  0  0  0  0
 11 12  1  0  0  0  0
 11 14  1  0  0  0  0
 11 13  1  0  0  0  0
 15  7  1  0  0  0  0
 15  1  2  0  0  0  0
 16 17  1  0  0  0  0
 16  4  1  0  0  0  0
 18 28  1  0  0  0  0
 19 18  1  0  0  0  0
 20 24  1  0  0  0  0
 20 18  2  0  0  0  0
 21  2  1  0  0  0  0
 22  9  1  0  0  0  0
 22  6  2  0  0  0  0
 23 22  1  0  0  0  0
 24 26  2  0  0  0  0
 25 24  1  0  0  0  0
 26 27  1  0  0  0  0
 26 21  1  0  0  0  0
 28 21  2  0  0  0  0
 28 29  1  0  0  0  0
 30  7  1  0  0  0  0
 31 30  1  0  0  0  0
 32  5  1  0  0  0  0
 32 30  2  0  0  0  0
 33 32  1  0  0  0  0
M  END
$$$$
