CSD_code = KAVFEV | q = 0 | S = 0 | Stoichiometry = C12H17ClN4Pd | MND = 4
 OpenBabel04212202053D

 35 37  0  0  1  0  0  0  0  0999 V2000
    1.6314    2.3684    1.2533 Pd  0  0  2  0  0  0  0  0  0  0  0  0
    2.1390    1.7239    3.3255 Cl  0  0  0  0  0  0  0  0  0  0  0  0
   -0.4426    2.1078   -0.6562 N   0  0  0  0  0  0  0  0  0  0  0  0
   -2.2309    0.9034    0.1957 N   0  0  0  0  0  0  0  0  0  0  0  0
   -0.2635    1.2463    1.4701 N   0  0  0  0  0  0  0  0  0  0  0  0
    0.9582    3.2541   -1.8189 N   0  0  0  0  0  0  0  0  0  0  0  0
    0.7976    2.7041   -0.5953 C   0  0  0  0  0  0  0  0  0  0  0  0
   -1.0117    1.3906    0.3736 C   0  0  1  0  0  3  0  0  0  0  0  0
    3.4095    3.4106    1.3532 C   0  0  0  0  0  0  0  0  0  0  0  0
    3.7817    3.9580    0.4886 H   0  0  0  0  0  0  0  0  0  0  0  0
    4.1729    2.6821    1.6545 H   0  0  0  0  0  0  0  0  0  0  0  0
    3.2788    4.1177    2.1846 H   0  0  0  0  0  0  0  0  0  0  0  0
    2.1468    4.0051   -2.2314 C   0  0  0  0  0  0  0  0  0  0  0  0
   -1.0248    2.3013   -1.8881 C   0  0  0  0  0  0  0  0  0  0  0  0
   -1.9927    1.9100   -2.1179 H   0  0  0  0  0  0  0  0  0  0  0  0
   -0.7866    0.5624    2.4804 C   0  0  0  0  0  0  0  0  0  0  0  0
   -0.1586    0.4632    3.3593 H   0  0  0  0  0  0  0  0  0  0  0  0
    3.3553    3.0733   -2.0866 C   0  0  0  0  0  0  0  0  0  0  0  0
    3.3300    2.3125   -2.8645 H   0  0  0  0  0  0  0  0  0  0  0  0
    3.3352    2.5734   -1.1170 H   0  0  0  0  0  0  0  0  0  0  0  0
    4.2805    3.6334   -2.1824 H   0  0  0  0  0  0  0  0  0  0  0  0
   -0.1416    3.0183   -2.6090 C   0  0  0  0  0  0  0  0  0  0  0  0
   -0.2268    3.3674   -3.6150 H   0  0  0  0  0  0  0  0  0  0  0  0
   -2.0591    0.0168    2.3913 C   0  0  0  0  0  0  0  0  0  0  0  0
   -2.4891   -0.5394    3.2064 H   0  0  0  0  0  0  0  0  0  0  0  0
   -2.7486    0.2196    1.2025 C   0  0  0  0  0  0  0  0  0  0  0  0
   -3.7440   -0.1696    1.0378 H   0  0  0  0  0  0  0  0  0  0  0  0
    2.0436    4.4494   -3.6914 C   0  0  0  0  0  0  0  0  0  0  0  0
    1.2058    5.1254   -3.8476 H   0  0  0  0  0  0  0  0  0  0  0  0
    1.9520    3.5982   -4.3626 H   0  0  0  0  0  0  0  0  0  0  0  0
    2.9545    4.9828   -3.9504 H   0  0  0  0  0  0  0  0  0  0  0  0
    2.2336    5.2491   -1.3403 C   0  0  0  0  0  0  0  0  0  0  0  0
    1.4566    5.9589   -1.6182 H   0  0  0  0  0  0  0  0  0  0  0  0
    3.1989    5.7331   -1.4542 H   0  0  0  0  0  0  0  0  0  0  0  0
    2.0888    4.9735   -0.2963 H   0  0  0  0  0  0  0  0  0  0  0  0
  1  9  1  0  0  0  0
  1  5  1  0  0  0  0
  1  2  1  6  0  0  0
  3  7  1  0  0  0  0
  3  8  1  0  0  0  0
  4 26  2  0  0  0  0
  5 16  1  0  0  0  0
  6  7  1  0  0  0  0
  7  1  2  0  0  0  0
  8  4  1  6  0  0  0
  8  5  1  0  0  0  0
  9 11  1  0  0  0  0
  9 12  1  0  0  0  0
 10  9  1  0  0  0  0
 13 18  1  0  0  0  0
 13  6  1  0  0  0  0
 13 32  1  0  0  0  0
 14  3  1  0  0  0  0
 15 14  1  0  0  0  0
 16 17  1  0  0  0  0
 18 20  1  0  0  0  0
 19 18  1  0  0  0  0
 21 18  1  0  0  0  0
 22 14  2  0  0  0  0
 22  6  1  0  0  0  0
 23 22  1  0  0  0  0
 24 16  2  0  0  0  0
 24 25  1  0  0  0  0
 26 24  1  0  0  0  0
 27 26  1  0  0  0  0
 28 13  1  0  0  0  0
 29 28  1  0  0  0  0
 30 28  1  0  0  0  0
 31 28  1  0  0  0  0
 32 35  1  0  0  0  0
 33 32  1  0  0  0  0
 34 32  1  0  0  0  0
M  END
$$$$
