CSD_code = KAVGIX | q = 0 | S = 0 | Stoichiometry = C13H23AuCl2N2Si2 | MND = 4
 OpenBabel04212202053D

 43 44  0  0  0  0  0  0  0  0999 V2000
    0.4543    3.2342   13.6830 Au  0  0  0  0  0  0  0  0  0  0  0  0
    1.5877    4.7582   12.5153 Cl  0  0  0  0  0  0  0  0  0  0  0  0
    1.5387    3.8172   15.5407 Cl  0  0  0  0  0  0  0  0  0  0  0  0
   -1.0705    1.1024   15.9410 Si  0  0  0  0  0  0  0  0  0  0  0  0
   -0.9018    2.6957   10.5440 Si  0  0  0  0  0  0  0  0  0  0  0  0
   -0.7550    1.7959   14.3444 N   0  0  0  0  0  0  0  0  0  0  0  0
   -0.7101    2.4265   12.2819 N   0  0  0  0  0  0  0  0  0  0  0  0
   -1.2709    1.6070   13.1473 C   0  0  0  0  0  3  0  0  0  0  0  0
    0.5777    0.3316   16.4892 C   0  0  0  0  0  0  0  0  0  0  0  0
   -1.6121    2.5655   17.0265 C   0  0  0  0  0  0  0  0  0  0  0  0
   -2.4456   -0.2134   15.8545 C   0  0  0  0  0  0  0  0  0  0  0  0
    0.8185    2.4011    9.7931 C   0  0  0  0  0  0  0  0  0  0  0  0
   -1.4943    4.4943   10.3789 C   0  0  0  0  0  0  0  0  0  0  0  0
   -2.1711    1.4848    9.8010 C   0  0  0  0  0  0  0  0  0  0  0  0
   -2.3143    0.6282   12.8251 C   0  0  0  0  0  0  0  0  0  0  0  0
   -1.9686   -0.6849   12.5313 C   0  0  0  0  0  0  0  0  0  0  0  0
   -2.9554   -1.6053   12.2252 C   0  0  0  0  0  0  0  0  0  0  0  0
   -4.2858   -1.2209   12.2152 C   0  0  0  0  0  0  0  0  0  0  0  0
   -4.6313    0.0874   12.5101 C   0  0  0  0  0  0  0  0  0  0  0  0
   -3.6491    1.0136   12.8131 C   0  0  0  0  0  0  0  0  0  0  0  0
   -0.9284   -0.9756   12.5424 H   0  0  0  0  0  0  0  0  0  0  0  0
   -2.6854   -2.6251   11.9951 H   0  0  0  0  0  0  0  0  0  0  0  0
   -5.0539   -1.9411   11.9773 H   0  0  0  0  0  0  0  0  0  0  0  0
   -5.6685    0.3877   12.5030 H   0  0  0  0  0  0  0  0  0  0  0  0
   -3.9087    2.0364   13.0434 H   0  0  0  0  0  0  0  0  0  0  0  0
    0.9095   -0.4528   15.8137 H   0  0  0  0  0  0  0  0  0  0  0  0
    1.3534    1.0909   16.5236 H   0  0  0  0  0  0  0  0  0  0  0  0
    0.4957   -0.1001   17.4816 H   0  0  0  0  0  0  0  0  0  0  0  0
   -0.8259    3.3136   17.0681 H   0  0  0  0  0  0  0  0  0  0  0  0
   -2.5095    3.0472   16.6464 H   0  0  0  0  0  0  0  0  0  0  0  0
   -1.8148    2.2449   18.0434 H   0  0  0  0  0  0  0  0  0  0  0  0
   -2.1711   -1.0590   15.2330 H   0  0  0  0  0  0  0  0  0  0  0  0
   -2.6313   -0.5876   16.8560 H   0  0  0  0  0  0  0  0  0  0  0  0
   -3.3792    0.1870   15.4741 H   0  0  0  0  0  0  0  0  0  0  0  0
    1.1708    1.3867    9.9619 H   0  0  0  0  0  0  0  0  0  0  0  0
    0.8118    2.5741    8.7216 H   0  0  0  0  0  0  0  0  0  0  0  0
    1.5423    3.0816   10.2315 H   0  0  0  0  0  0  0  0  0  0  0  0
   -0.7605    5.1707   10.8074 H   0  0  0  0  0  0  0  0  0  0  0  0
   -1.6261    4.7690    9.3372 H   0  0  0  0  0  0  0  0  0  0  0  0
   -2.4399    4.6637   10.8878 H   0  0  0  0  0  0  0  0  0  0  0  0
   -1.9002    0.4476    9.9668 H   0  0  0  0  0  0  0  0  0  0  0  0
   -3.1685    1.6336   10.1998 H   0  0  0  0  0  0  0  0  0  0  0  0
   -2.2180    1.6454    8.7290 H   0  0  0  0  0  0  0  0  0  0  0  0
  1  6  1  0  0  0  0
  1  3  1  0  0  0  0
  2  1  1  0  0  0  0
  4  9  1  0  0  0  0
  4 10  1  0  0  0  0
  5  7  1  0  0  0  0
  6  4  1  0  0  0  0
  7  8  1  0  0  0  0
  7  1  1  0  0  0  0
  8  6  1  0  0  0  0
  9 27  1  0  0  0  0
  9 28  1  0  0  0  0
 10 29  1  0  0  0  0
 10 31  1  0  0  0  0
 11  4  1  0  0  0  0
 11 33  1  0  0  0  0
 12 35  1  0  0  0  0
 12 37  1  0  0  0  0
 12  5  1  0  0  0  0
 13  5  1  0  0  0  0
 13 38  1  0  0  0  0
 13 40  1  0  0  0  0
 14 41  1  0  0  0  0
 14 42  1  0  0  0  0
 14  5  1  0  0  0  0
 15  8  1  0  0  0  0
 16 21  1  0  0  0  0
 16 15  2  0  0  0  0
 17 16  1  0  0  0  0
 18 17  2  0  0  0  0
 18 19  1  0  0  0  0
 19 20  2  0  0  0  0
 20 15  1  0  0  0  0
 20 25  1  0  0  0  0
 22 17  1  0  0  0  0
 23 18  1  0  0  0  0
 24 19  1  0  0  0  0
 26  9  1  0  0  0  0
 30 10  1  0  0  0  0
 32 11  1  0  0  0  0
 34 11  1  0  0  0  0
 36 12  1  0  0  0  0
 39 13  1  0  0  0  0
 43 14  1  0  0  0  0
M  END
$$$$
