CSD_code = KAVHUK | q = 0 | S = 0 | Stoichiometry = C20H30Cl2F4P2Pt | MND = 4
 OpenBabel04212202053D

 59 60  0  0  1  0  0  0  0  0999 V2000
    1.4825    2.7971    3.3725 Pt  0  0  0  0  0  0  0  0  0  0  0  0
    1.2107    1.6143    1.4396 P   0  0  0  0  0  4  0  0  0  0  0  0
    3.6013    2.3193    4.0739 P   0  0  0  0  0  4  0  0  0  0  0  0
   -0.7607    3.1512    3.0755 Cl  0  0  0  0  0  0  0  0  0  0  0  0
    1.6288    4.3295    5.0683 Cl  0  0  0  0  0  0  0  0  0  0  0  0
   -0.1705    0.9232    1.0300 F   0  0  0  0  0  0  0  0  0  0  0  0
    2.0114    0.2407    1.1311 F   0  0  0  0  0  0  0  0  0  0  0  0
    4.7894    1.9028    3.0551 F   0  0  0  0  0  0  0  0  0  0  0  0
    4.5513    3.3987    4.7707 F   0  0  0  0  0  0  0  0  0  0  0  0
    1.6312    2.6105   -0.0690 C   0  0  2  0  0  0  0  0  0  0  0  0
    3.0151    3.0126    0.3640 C   0  0  0  0  0  0  0  0  0  0  0  0
    2.9104    4.1771    1.0555 C   0  0  0  0  0  0  0  0  0  0  0  0
    1.5424    4.6763    0.9728 C   0  0  0  0  0  0  0  0  0  0  0  0
    0.7895    3.8170    0.2393 C   0  0  0  0  0  0  0  0  0  0  0  0
    1.4282    1.8589   -1.3639 C   0  0  0  0  0  0  0  0  0  0  0  0
    4.2219    2.2159    0.0108 C   0  0  0  0  0  0  0  0  0  0  0  0
    3.9860    4.9328    1.7612 C   0  0  0  0  0  0  0  0  0  0  0  0
    1.1307    5.9696    1.5892 C   0  0  0  0  0  0  0  0  0  0  0  0
   -0.6250    3.9257   -0.2067 C   0  0  0  0  0  0  0  0  0  0  0  0
    3.6522    0.8997    5.2687 C   0  0  1  0  0  0  0  0  0  0  0  0
    2.6025    1.3956    6.2234 C   0  0  0  0  0  0  0  0  0  0  0  0
    1.3972    0.9437    5.7920 C   0  0  0  0  0  0  0  0  0  0  0  0
    1.5912    0.0368    4.6662 C   0  0  0  0  0  0  0  0  0  0  0  0
    2.9180   -0.0873    4.4021 C   0  0  0  0  0  0  0  0  0  0  0  0
    5.0418    0.5845    5.7710 C   0  0  0  0  0  0  0  0  0  0  0  0
    2.9405    2.2558    7.3886 C   0  0  0  0  0  0  0  0  0  0  0  0
    0.0471    1.2364    6.3518 C   0  0  0  0  0  0  0  0  0  0  0  0
    0.4482   -0.6575    4.0050 C   0  0  0  0  0  0  0  0  0  0  0  0
    3.6258   -1.0143    3.4772 C   0  0  0  0  0  0  0  0  0  0  0  0
    2.0458    0.9634   -1.3884 H   0  0  0  0  0  0  0  0  0  0  0  0
    1.7026    2.4972   -2.2020 H   0  0  0  0  0  0  0  0  0  0  0  0
    0.3863    1.5653   -1.4747 H   0  0  0  0  0  0  0  0  0  0  0  0
    5.0972    2.5823    0.5383 H   0  0  0  0  0  0  0  0  0  0  0  0
    4.0883    1.1637    0.2550 H   0  0  0  0  0  0  0  0  0  0  0  0
    4.4107    2.2890   -1.0615 H   0  0  0  0  0  0  0  0  0  0  0  0
    4.9084    4.3604    1.8064 H   0  0  0  0  0  0  0  0  0  0  0  0
    4.1853    5.8731    1.2477 H   0  0  0  0  0  0  0  0  0  0  0  0
    3.6690    5.1716    2.7771 H   0  0  0  0  0  0  0  0  0  0  0  0
    0.1064    6.2181    1.3300 H   0  0  0  0  0  0  0  0  0  0  0  0
    1.2019    5.9001    2.6757 H   0  0  0  0  0  0  0  0  0  0  0  0
    1.7865    6.7740    1.2604 H   0  0  0  0  0  0  0  0  0  0  0  0
   -1.1251    4.7499    0.2926 H   0  0  0  0  0  0  0  0  0  0  0  0
   -0.6677    4.0897   -1.2850 H   0  0  0  0  0  0  0  0  0  0  0  0
   -1.1734    3.0128    0.0206 H   0  0  0  0  0  0  0  0  0  0  0  0
    5.7008    0.3323    4.9427 H   0  0  0  0  0  0  0  0  0  0  0  0
    4.9987   -0.2614    6.4548 H   0  0  0  0  0  0  0  0  0  0  0  0
    5.4591    1.4396    6.2988 H   0  0  0  0  0  0  0  0  0  0  0  0
    2.0434    2.6834    7.8256 H   0  0  0  0  0  0  0  0  0  0  0  0
    3.4581    1.6703    8.1503 H   0  0  0  0  0  0  0  0  0  0  0  0
    3.5914    3.0754    7.0884 H   0  0  0  0  0  0  0  0  0  0  0  0
    0.1184    1.8456    7.2474 H   0  0  0  0  0  0  0  0  0  0  0  0
   -0.5485    1.7782    5.6155 H   0  0  0  0  0  0  0  0  0  0  0  0
   -0.4749    0.3114    6.5910 H   0  0  0  0  0  0  0  0  0  0  0  0
    0.7740   -1.2117    3.1290 H   0  0  0  0  0  0  0  0  0  0  0  0
   -0.0244   -1.3516    4.6995 H   0  0  0  0  0  0  0  0  0  0  0  0
   -0.3052    0.0705    3.7016 H   0  0  0  0  0  0  0  0  0  0  0  0
    2.9218   -1.5359    2.8361 H   0  0  0  0  0  0  0  0  0  0  0  0
    4.3353   -0.4813    2.8471 H   0  0  0  0  0  0  0  0  0  0  0  0
    4.1815   -1.7561    4.0532 H   0  0  0  0  0  0  0  0  0  0  0  0
  1  3  1  0  0  0  0
  1  5  1  0  0  0  0
  2  1  1  0  0  0  0
  3  9  1  0  0  0  0
  3 20  1  0  0  0  0
  4  1  1  0  0  0  0
  6  2  1  0  0  0  0
  7  2  1  0  0  0  0
  8  3  1  0  0  0  0
 10 15  1  6  0  0  0
 10 14  1  0  0  0  0
 10 11  1  0  0  0  0
 10  2  1  0  0  0  0
 11 12  2  0  0  0  0
 12 17  1  0  0  0  0
 13 12  1  0  0  0  0
 13 18  1  0  0  0  0
 14 13  2  0  0  0  0
 16 34  1  0  0  0  0
 16 11  1  0  0  0  0
 16 33  1  0  0  0  0
 17 36  1  0  0  0  0
 17 38  1  0  0  0  0
 18 40  1  0  0  0  0
 19 44  1  0  0  0  0
 19 14  1  0  0  0  0
 19 42  1  0  0  0  0
 20 25  1  1  0  0  0
 20 21  1  0  0  0  0
 21 26  1  0  0  0  0
 22 21  2  0  0  0  0
 22 27  1  0  0  0  0
 23 22  1  0  0  0  0
 24 23  2  0  0  0  0
 24 20  1  0  0  0  0
 25 47  1  0  0  0  0
 25 46  1  0  0  0  0
 26 48  1  0  0  0  0
 26 49  1  0  0  0  0
 27 53  1  0  0  0  0
 27 51  1  0  0  0  0
 28 23  1  0  0  0  0
 28 55  1  0  0  0  0
 29 59  1  0  0  0  0
 29 24  1  0  0  0  0
 30 15  1  0  0  0  0
 31 15  1  0  0  0  0
 32 15  1  0  0  0  0
 35 16  1  0  0  0  0
 37 17  1  0  0  0  0
 39 18  1  0  0  0  0
 41 18  1  0  0  0  0
 43 19  1  0  0  0  0
 45 25  1  0  0  0  0
 50 26  1  0  0  0  0
 52 27  1  0  0  0  0
 54 28  1  0  0  0  0
 56 28  1  0  0  0  0
 57 29  1  0  0  0  0
 58 29  1  0  0  0  0
M  END
$$$$
