CSD_code = KAVVEJ | q = 0 | S = 0 | Stoichiometry = C19H11Cl2F4N3Ni | MND = 5
 OpenBabel04212202053D

 40 44  0  0  0  0  0  0  0  0999 V2000
    0.8201    3.5872   -1.9320 Ni  0  0  0  0  0  0  0  0  0  0  0  0
    2.8213    3.3461   -2.3792 Cl  0  0  0  0  0  0  0  0  0  0  0  0
    2.4098    2.6682    4.5455 F   0  0  0  0  0  0  0  0  0  0  0  0
    2.1107    0.1053    3.6437 F   0  0  0  0  0  0  0  0  0  0  0  0
    0.8203    5.7548   -1.9320 N   0  0  0  0  0  0  0  0  0  0  0  0
    1.2872    4.2605    0.1454 N   0  0  0  0  0  0  0  0  0  0  0  0
    1.0523    6.3972   -0.7954 C   0  0  0  0  0  0  0  0  0  0  0  0
    1.0622    7.7935   -0.7545 C   0  0  0  0  0  0  0  0  0  0  0  0
    1.2560    8.3168    0.1687 H   0  0  0  0  0  0  0  0  0  0  0  0
    0.8204    8.4862   -1.9321 C   0  0  0  0  0  0  0  0  0  0  0  0
    0.8204    9.5659   -1.9321 H   0  0  0  0  0  0  0  0  0  0  0  0
    1.2887    5.5230    0.3472 C   0  0  0  0  0  0  0  0  0  0  0  0
    1.4508    5.9903    1.3178 H   0  0  0  0  0  0  0  0  0  0  0  0
    1.5065    3.2823    1.0945 C   0  0  0  0  0  0  0  0  0  0  0  0
    1.8634    3.5145    2.4272 C   0  0  0  0  0  0  0  0  0  0  0  0
    1.9971    4.5081    2.8234 H   0  0  0  0  0  0  0  0  0  0  0  0
    2.0639    2.4410    3.2691 C   0  0  0  0  0  0  0  0  0  0  0  0
    1.9132    1.1340    2.8109 C   0  0  0  0  0  0  0  0  0  0  0  0
    1.5637    0.8955    1.4912 C   0  0  0  0  0  0  0  0  0  0  0  0
    1.4557   -0.1223    1.1526 H   0  0  0  0  0  0  0  0  0  0  0  0
    1.3679    1.9651    0.6457 C   0  0  0  0  0  0  0  0  0  0  0  0
    1.0963    1.8143   -0.4018 H   0  0  0  0  0  0  0  0  0  0  0  0
   -1.1810    3.3458   -1.4847 Cl  0  0  0  0  0  0  0  0  0  0  0  0
   -0.7711    2.6682   -8.4090 F   0  0  0  0  0  0  0  0  0  0  0  0
   -0.4704    0.1053   -7.5077 F   0  0  0  0  0  0  0  0  0  0  0  0
    0.3533    4.2605   -4.0094 N   0  0  0  0  0  0  0  0  0  0  0  0
    0.5884    6.3972   -3.0686 C   0  0  0  0  0  0  0  0  0  0  0  0
    0.5785    7.7935   -3.1096 C   0  0  0  0  0  0  0  0  0  0  0  0
    0.3847    8.3168   -4.0329 H   0  0  0  0  0  0  0  0  0  0  0  0
    0.3520    5.5230   -4.2113 C   0  0  0  0  0  3  0  0  0  0  0  0
    0.1901    5.9902   -5.1820 H   0  0  0  0  0  0  0  0  0  0  0  0
    0.1338    3.2822   -4.9585 C   0  0  0  0  0  0  0  0  0  0  0  0
   -0.2239    3.5145   -6.2909 C   0  0  0  0  0  0  0  0  0  0  0  0
   -0.3583    4.5081   -6.6869 H   0  0  0  0  0  0  0  0  0  0  0  0
   -0.4244    2.4410   -7.1329 C   0  0  0  0  0  0  0  0  0  0  0  0
   -0.2730    1.1340   -6.6749 C   0  0  0  0  0  0  0  0  0  0  0  0
    0.0774    0.8955   -5.3554 C   0  0  0  0  0  0  0  0  0  0  0  0
    0.1859   -0.1223   -5.0170 H   0  0  0  0  0  0  0  0  0  0  0  0
    0.2731    1.9651   -4.5099 C   0  0  0  0  0  0  0  0  0  0  0  0
    0.5453    1.8143   -3.4626 H   0  0  0  0  0  0  0  0  0  0  0  0
  1 23  1  0  0  0  0
  1  6  1  0  0  0  0
  2  1  1  0  0  0  0
  5  1  1  0  0  0  0
  5  7  1  0  0  0  0
  6 12  1  0  0  0  0
  6 14  1  0  0  0  0
  7  8  1  0  0  0  0
  7 12  2  0  0  0  0
  8  9  1  0  0  0  0
 10  8  2  0  0  0  0
 11 10  1  0  0  0  0
 12 13  1  0  0  0  0
 14 15  1  0  0  0  0
 15 16  1  0  0  0  0
 15 17  2  0  0  0  0
 17  3  1  0  0  0  0
 18 17  1  0  0  0  0
 18  4  1  0  0  0  0
 19 18  2  0  0  0  0
 20 19  1  0  0  0  0
 21 14  2  0  0  0  0
 21 19  1  0  0  0  0
 22 21  1  0  0  0  0
 24 35  1  0  0  0  0
 25 36  1  0  0  0  0
 26  1  1  0  0  0  0
 27  5  1  0  0  0  0
 28 27  2  0  0  0  0
 28 10  1  0  0  0  0
 29 28  1  0  0  0  0
 30 26  1  0  0  0  0
 30 27  1  0  0  0  0
 31 30  1  0  0  0  0
 32 39  1  0  0  0  0
 32 26  1  0  0  0  0
 33 32  2  0  0  0  0
 34 33  1  0  0  0  0
 35 36  2  0  0  0  0
 35 33  1  0  0  0  0
 36 37  1  0  0  0  0
 37 38  1  0  0  0  0
 37 39  2  0  0  0  0
 39 40  1  0  0  0  0
M  END
$$$$
