CSD_code = KAVXOU | q = 1 | S = 0 | Stoichiometry = C12H24Cl2RhS4(1+) | MND = 6
 OpenBabel04212202053D

 43 46  0  0  0  0  0  0  0  0999 V2000
    5.2411    5.5529    8.0702 Rh  0  0  0  0  0  0  0  0  0  0  0  0
    6.8163    6.3431    6.5396 Cl  0  0  0  0  0  0  0  0  0  0  0  0
    5.1522    7.6857    9.1230 S   0  0  2  0  0  3  0  0  0  0  0  0
    3.4668    6.2045    6.6234 S   0  0  1  0  0  3  0  0  0  0  0  0
    5.1194    8.9688    7.8279 C   0  0  0  0  0  0  0  0  0  0  0  0
    3.8389    8.9423    7.0085 C   0  0  0  0  0  0  0  0  0  0  0  0
    3.8458    7.8546    5.9463 C   0  0  0  0  0  0  0  0  0  0  0  0
    3.8318    5.2600    5.0978 C   0  0  0  0  0  0  0  0  0  0  0  0
    3.2929    3.8383    5.1722 C   0  0  0  0  0  0  0  0  0  0  0  0
    6.8892    7.9473    9.6396 C   0  0  0  0  0  0  0  0  0  0  0  0
    5.9933    8.8168    7.1931 H   0  0  0  0  0  0  0  0  0  0  0  0
    5.2033    9.9144    8.3640 H   0  0  0  0  0  0  0  0  0  0  0  0
    3.7450    9.9056    6.5014 H   0  0  0  0  0  0  0  0  0  0  0  0
    2.9718    8.8274    7.6637 H   0  0  0  0  0  0  0  0  0  0  0  0
    3.0648    8.0440    5.2094 H   0  0  0  0  0  0  0  0  0  0  0  0
    4.8185    7.7925    5.4567 H   0  0  0  0  0  0  0  0  0  0  0  0
    4.9158    5.2697    4.9690 H   0  0  0  0  0  0  0  0  0  0  0  0
    3.3636    5.7996    4.2755 H   0  0  0  0  0  0  0  0  0  0  0  0
    3.7352    3.2691    4.3519 H   0  0  0  0  0  0  0  0  0  0  0  0
    2.2096    3.8408    5.0345 H   0  0  0  0  0  0  0  0  0  0  0  0
    7.5221    7.5582    8.8397 H   0  0  0  0  0  0  0  0  0  0  0  0
    7.0323    9.0238    9.7248 H   0  0  0  0  0  0  0  0  0  0  0  0
    3.6664    4.7615    9.6008 Cl  0  0  0  0  0  0  0  0  0  0  0  0
    5.3306    3.4200    7.0171 S   0  0  2  0  0  3  0  0  0  0  0  0
    7.0159    4.9010    9.5165 S   0  0  2  0  0  3  0  0  0  0  0  0
    3.5935    3.1583    6.5005 C   0  0  0  0  0  0  0  0  0  0  0  0
    7.1898    7.2672   10.9679 C   0  0  0  0  0  0  0  0  0  0  0  0
    5.3633    2.1368    8.3122 C   0  0  0  0  0  0  0  0  0  0  0  0
    6.6369    3.2509   10.1938 C   0  0  0  0  0  0  0  0  0  0  0  0
    6.6509    5.8455   11.0422 C   0  0  0  0  0  0  0  0  0  0  0  0
    2.9606    3.5473    7.3004 H   0  0  0  0  0  0  0  0  0  0  0  0
    3.4505    2.0817    6.4154 H   0  0  0  0  0  0  0  0  0  0  0  0
    6.7475    7.8364   11.7882 H   0  0  0  0  0  0  0  0  0  0  0  0
    8.2731    7.2647   11.1056 H   0  0  0  0  0  0  0  0  0  0  0  0
    6.6437    2.1632    9.1316 C   0  0  0  0  0  0  0  0  0  0  0  0
    4.4894    2.2887    8.9469 H   0  0  0  0  0  0  0  0  0  0  0  0
    5.2794    1.1912    7.7760 H   0  0  0  0  0  0  0  0  0  0  0  0
    7.4179    3.0615   10.9307 H   0  0  0  0  0  0  0  0  0  0  0  0
    5.6642    3.3131   10.6834 H   0  0  0  0  0  0  0  0  0  0  0  0
    5.5669    5.8358   11.1710 H   0  0  0  0  0  0  0  0  0  0  0  0
    7.1191    5.3059   11.8645 H   0  0  0  0  0  0  0  0  0  0  0  0
    6.7377    1.2000    9.6386 H   0  0  0  0  0  0  0  0  0  0  0  0
    7.5109    2.2781    8.4764 H   0  0  0  0  0  0  0  0  0  0  0  0
  1  3  1  0  0  0  0
  1 25  1  0  0  0  0
  1 23  1  0  0  0  0
  2  1  1  0  0  0  0
  3  5  1  6  0  0  0
  3 10  1  0  0  0  0
  4  8  1  6  0  0  0
  4  1  1  0  0  0  0
  5 12  1  0  0  0  0
  6 14  1  0  0  0  0
  6  5  1  0  0  0  0
  7  4  1  0  0  0  0
  7  6  1  0  0  0  0
  8  9  1  0  0  0  0
  9 26  1  0  0  0  0
 10 22  1  0  0  0  0
 10 27  1  0  0  0  0
 11  5  1  0  0  0  0
 13  6  1  0  0  0  0
 15  7  1  0  0  0  0
 16  7  1  0  0  0  0
 17  8  1  0  0  0  0
 18  8  1  0  0  0  0
 19  9  1  0  0  0  0
 20  9  1  0  0  0  0
 21 10  1  0  0  0  0
 24 26  1  6  0  0  0
 24  1  1  0  0  0  0
 24 28  1  0  0  0  0
 25 29  1  1  0  0  0
 25 30  1  0  0  0  0
 26 31  1  0  0  0  0
 27 30  1  0  0  0  0
 27 34  1  0  0  0  0
 27 33  1  0  0  0  0
 28 36  1  0  0  0  0
 28 35  1  0  0  0  0
 29 39  1  0  0  0  0
 29 38  1  0  0  0  0
 30 40  1  0  0  0  0
 30 41  1  0  0  0  0
 32 26  1  0  0  0  0
 35 42  1  0  0  0  0
 35 29  1  0  0  0  0
 37 28  1  0  0  0  0
 43 35  1  0  0  0  0
M  END
$$$$
