CSD_code = KAVZAJ | q = 0 | S = 0 | Stoichiometry = C26H21ClNO2PPt | MND = 4
 OpenBabel04212202053D

 53 58  0  0  0  0  0  0  0  0999 V2000
    0.6991    8.7110    5.9884 Pt  0  0  1  0  0  0  0  0  0  0  0  0
    1.9360    6.9284    5.4886 P   0  0  0  0  0  4  0  0  0  0  0  0
    1.4466    8.7796    8.1148 Cl  0  0  0  0  0  0  0  0  0  0  0  0
    0.0402    8.6047    4.0730 N   0  0  0  0  0  0  0  0  0  0  0  0
   -4.7850   12.3007    3.6794 O   0  0  0  0  0  0  0  0  0  0  0  0
   -0.4647   10.3258    6.3970 O   0  0  0  0  0  0  0  0  0  0  0  0
    1.5958    5.2926    6.1838 C   0  0  0  0  0  0  0  0  0  0  0  0
    1.0107    4.2579    5.4634 C   0  0  0  0  0  0  0  0  0  0  0  0
    0.7529    3.0504    6.0898 C   0  0  0  0  0  0  0  0  0  0  0  0
    1.0651    2.8784    7.4283 C   0  0  0  0  0  0  0  0  0  0  0  0
    1.6296    3.9182    8.1526 C   0  0  0  0  0  0  0  0  0  0  0  0
    1.8922    5.1264    7.5363 C   0  0  0  0  0  0  0  0  0  0  0  0
    3.7316    7.1258    5.6212 C   0  0  0  0  0  0  0  0  0  0  0  0
    4.6176    6.0580    5.7008 C   0  0  0  0  0  0  0  0  0  0  0  0
    5.9774    6.3044    5.7699 C   0  0  0  0  0  0  0  0  0  0  0  0
    6.4519    7.6062    5.7602 C   0  0  0  0  0  0  0  0  0  0  0  0
    5.5680    8.6719    5.6866 C   0  0  0  0  0  0  0  0  0  0  0  0
    4.2090    8.4330    5.6179 C   0  0  0  0  0  0  0  0  0  0  0  0
    1.6478    6.8378    3.6997 C   0  0  0  0  0  0  0  0  0  0  0  0
    2.3515    5.9873    2.8611 C   0  0  0  0  0  0  0  0  0  0  0  0
    2.1505    6.0320    1.4932 C   0  0  0  0  0  0  0  0  0  0  0  0
    1.2627    6.9590    0.9712 C   0  0  0  0  0  0  0  0  0  0  0  0
    0.5614    7.8168    1.7974 C   0  0  0  0  0  0  0  0  0  0  0  0
    0.7167    7.7610    3.1867 C   0  0  0  0  0  0  0  0  0  0  0  0
   -1.0570    9.2165    3.6982 C   0  0  0  0  0  0  0  0  0  0  0  0
   -1.7816   10.2104    4.3809 C   0  0  0  0  0  0  0  0  0  0  0  0
   -2.9290   10.7264    3.7171 C   0  0  0  0  0  3  0  0  0  0  0  0
   -3.6710   11.7451    4.2449 C   0  0  0  0  0  0  0  0  0  0  0  0
   -5.2426   11.7725    2.4614 C   0  0  0  0  0  0  0  0  0  0  0  0
   -3.2806   12.3083    5.4825 C   0  0  0  0  0  0  0  0  0  0  0  0
   -2.1991   11.8327    6.1527 C   0  0  0  0  0  0  0  0  0  0  0  0
   -1.4145   10.7459    5.6609 C   0  0  0  0  0  0  0  0  0  0  0  0
    0.7591    4.3972    4.4212 H   0  0  0  0  0  0  0  0  0  0  0  0
    0.3029    2.2425    5.5314 H   0  0  0  0  0  0  0  0  0  0  0  0
    0.8593    1.9344    7.9108 H   0  0  0  0  0  0  0  0  0  0  0  0
    1.8577    3.7865    9.1996 H   0  0  0  0  0  0  0  0  0  0  0  0
    2.3092    5.9592    8.0871 H   0  0  0  0  0  0  0  0  0  0  0  0
    4.2437    5.0435    5.7236 H   0  0  0  0  0  0  0  0  0  0  0  0
    6.6698    5.4779    5.8364 H   0  0  0  0  0  0  0  0  0  0  0  0
    7.5143    7.7906    5.8196 H   0  0  0  0  0  0  0  0  0  0  0  0
    5.9406    9.6851    5.6921 H   0  0  0  0  0  0  0  0  0  0  0  0
    3.4928    9.2499    5.5853 H   0  0  0  0  0  0  0  0  0  0  0  0
    3.0668    5.2995    3.2898 H   0  0  0  0  0  0  0  0  0  0  0  0
    2.6967    5.3707    0.8386 H   0  0  0  0  0  0  0  0  0  0  0  0
    1.1227    7.0266   -0.0974 H   0  0  0  0  0  0  0  0  0  0  0  0
   -0.0836    8.5547    1.3454 H   0  0  0  0  0  0  0  0  0  0  0  0
   -1.4793    8.9423    2.7315 H   0  0  0  0  0  0  0  0  0  0  0  0
   -3.1883   10.2854    2.7661 H   0  0  0  0  0  0  0  0  0  0  0  0
   -4.5003   11.8945    1.6649 H   0  0  0  0  0  0  0  0  0  0  0  0
   -6.1364   12.3404    2.2086 H   0  0  0  0  0  0  0  0  0  0  0  0
   -5.5021   10.7123    2.5552 H   0  0  0  0  0  0  0  0  0  0  0  0
   -3.8722   13.1204    5.8755 H   0  0  0  0  0  0  0  0  0  0  0  0
   -1.9030   12.2483    7.1036 H   0  0  0  0  0  0  0  0  0  0  0  0
  1  6  1  0  0  0  0
  1  3  1  6  0  0  0
  2 13  1  0  0  0  0
  2  1  1  0  0  0  0
  2  7  1  0  0  0  0
  4  1  1  0  0  0  0
  5 28  1  0  0  0  0
  7 12  1  0  0  0  0
  8  9  1  0  0  0  0
  8  7  2  0  0  0  0
  9 10  2  0  0  0  0
 10 35  1  0  0  0  0
 10 11  1  0  0  0  0
 11 36  1  0  0  0  0
 12 37  1  0  0  0  0
 12 11  2  0  0  0  0
 13 14  1  0  0  0  0
 14 38  1  0  0  0  0
 14 15  2  0  0  0  0
 15 39  1  0  0  0  0
 16 15  1  0  0  0  0
 16 40  1  0  0  0  0
 17 41  1  0  0  0  0
 17 16  2  0  0  0  0
 18 13  2  0  0  0  0
 18 17  1  0  0  0  0
 19  2  1  0  0  0  0
 20 43  1  0  0  0  0
 20 19  2  0  0  0  0
 21 20  1  0  0  0  0
 22 21  2  0  0  0  0
 22 23  1  0  0  0  0
 23 24  2  0  0  0  0
 24 19  1  0  0  0  0
 24  4  1  0  0  0  0
 25  4  1  0  0  0  0
 25 26  2  0  0  0  0
 26 32  1  0  0  0  0
 27 28  1  0  0  0  0
 27 26  1  0  0  0  0
 28 30  2  0  0  0  0
 29 51  1  0  0  0  0
 29  5  1  0  0  0  0
 30 52  1  0  0  0  0
 30 31  1  0  0  0  0
 31 53  1  0  0  0  0
 32 31  2  0  0  0  0
 32  6  1  0  0  0  0
 33  8  1  0  0  0  0
 34  9  1  0  0  0  0
 42 18  1  0  0  0  0
 44 21  1  0  0  0  0
 45 22  1  0  0  0  0
 46 23  1  0  0  0  0
 47 25  1  0  0  0  0
 48 27  1  0  0  0  0
 49 29  1  0  0  0  0
 50 29  1  0  0  0  0
M  END
$$$$
