CSD_code = KAWBEP | q = 0 | S = 0 | Stoichiometry = C26H26Br2NiP2 | MND = 4
 OpenBabel04212202053D

 57 62  0  0  1  0  0  0  0  0999 V2000
    2.7376    8.7662    4.1054 Ni  0  0  0  0  0  0  0  0  0  0  0  0
    4.4239    8.5449    5.5397 Br  0  0  0  0  0  0  0  0  0  0  0  0
    1.1496    9.6032    5.4796 Br  0  0  0  0  0  0  0  0  0  0  0  0
    1.0791    8.7669    2.7842 P   0  0  2  0  0  4  0  0  0  0  0  0
    3.9585    8.7549    2.3258 P   0  0  0  0  0  4  0  0  0  0  0  0
    1.5881    8.3464    1.0301 C   0  0  1  0  0  0  0  0  0  0  0  0
    0.4250    8.8750    0.2410 C   0  0  0  0  0  0  0  0  0  0  0  0
   -0.0352   10.0097    0.7801 C   0  0  0  0  0  0  0  0  0  0  0  0
    0.8106   10.4078    1.9652 C   0  0  2  0  0  0  0  0  0  0  0  0
   -0.0486    8.1389   -0.9647 C   0  0  0  0  0  0  0  0  0  0  0  0
   -1.1425   10.8956    0.3293 C   0  0  0  0  0  0  0  0  0  0  0  0
    2.7871    9.3151    0.9854 C   0  0  1  0  0  0  0  0  0  0  0  0
    2.2281   10.6860    1.4194 C   0  0  0  0  0  0  0  0  0  0  0  0
   -0.5544    8.0307    3.0022 C   0  0  0  0  0  0  0  0  0  0  0  0
   -1.6226    8.7701    3.4967 C   0  0  0  0  0  0  0  0  0  0  0  0
   -2.8566    8.1650    3.6451 C   0  0  0  0  0  0  0  0  0  0  0  0
   -3.0226    6.8292    3.3156 C   0  0  0  0  0  0  0  0  0  0  0  0
   -1.9519    6.0876    2.8431 C   0  0  0  0  0  0  0  0  0  0  0  0
   -0.7148    6.6849    2.6900 C   0  0  0  0  0  0  0  0  0  0  0  0
    4.7469    7.2352    1.7139 C   0  0  0  0  0  0  0  0  0  0  0  0
    4.5601    6.7144    0.4373 C   0  0  0  0  0  0  0  0  0  0  0  0
    5.2164    5.5549    0.0639 C   0  0  0  0  0  0  0  0  0  0  0  0
    6.0575    4.9088    0.9547 C   0  0  0  0  0  0  0  0  0  0  0  0
    6.2482    5.4260    2.2259 C   0  0  0  0  0  0  0  0  0  0  0  0
    5.5959    6.5834    2.6073 C   0  0  0  0  0  0  0  0  0  0  0  0
    5.3076    9.9680    2.1895 C   0  0  0  0  0  0  0  0  0  0  0  0
    6.1998    9.9042    1.1237 C   0  0  0  0  0  0  0  0  0  0  0  0
    7.1923   10.8579    1.0042 C   0  0  0  0  0  0  0  0  0  0  0  0
    7.2998   11.8737    1.9418 C   0  0  0  0  0  0  0  0  0  0  0  0
    6.4142   11.9374    3.0040 C   0  0  0  0  0  0  0  0  0  0  0  0
    5.4180   10.9861    3.1295 C   0  0  0  0  0  0  0  0  0  0  0  0
    1.8598    7.3135    0.8060 H   0  0  0  0  0  0  0  0  0  0  0  0
    0.4129   11.2194    2.5746 H   0  0  0  0  0  0  0  0  0  0  0  0
   -0.8964    8.6364   -1.4264 H   0  0  0  0  0  0  0  0  0  0  0  0
    0.7532    8.0623   -1.7002 H   0  0  0  0  0  0  0  0  0  0  0  0
   -0.3479    7.1267   -0.6906 H   0  0  0  0  0  0  0  0  0  0  0  0
   -1.6251   10.5089   -0.5637 H   0  0  0  0  0  0  0  0  0  0  0  0
   -1.8898   10.9848    1.1180 H   0  0  0  0  0  0  0  0  0  0  0  0
   -0.7626   11.8954    0.1173 H   0  0  0  0  0  0  0  0  0  0  0  0
    2.8563   11.1478    2.1909 H   0  0  0  0  0  0  0  0  0  0  0  0
    2.1789   11.3832    0.5801 H   0  0  0  0  0  0  0  0  0  0  0  0
    3.2788    9.3609    0.0094 H   0  0  0  0  0  0  0  0  0  0  0  0
   -1.4783    9.8031    3.7788 H   0  0  0  0  0  0  0  0  0  0  0  0
   -3.6902    8.7354    4.0264 H   0  0  0  0  0  0  0  0  0  0  0  0
   -3.9876    6.3603    3.4374 H   0  0  0  0  0  0  0  0  0  0  0  0
   -2.0797    5.0428    2.6006 H   0  0  0  0  0  0  0  0  0  0  0  0
    0.1319    6.1104    2.3351 H   0  0  0  0  0  0  0  0  0  0  0  0
    3.9146    7.2081   -0.2753 H   0  0  0  0  0  0  0  0  0  0  0  0
    5.0692    5.1557   -0.9294 H   0  0  0  0  0  0  0  0  0  0  0  0
    6.5629    4.0026    0.6560 H   0  0  0  0  0  0  0  0  0  0  0  0
    6.9028    4.9267    2.9238 H   0  0  0  0  0  0  0  0  0  0  0  0
    5.7387    6.9861    3.6014 H   0  0  0  0  0  0  0  0  0  0  0  0
    6.1212    9.1048    0.3995 H   0  0  0  0  0  0  0  0  0  0  0  0
    7.8879   10.8067    0.1794 H   0  0  0  0  0  0  0  0  0  0  0  0
    8.0813   12.6125    1.8456 H   0  0  0  0  0  0  0  0  0  0  0  0
    6.5013   12.7221    3.7398 H   0  0  0  0  0  0  0  0  0  0  0  0
    4.7377   11.0226    3.9729 H   0  0  0  0  0  0  0  0  0  0  0  0
  1  3  1  0  0  0  0
  1  2  1  0  0  0  0
  4 14  1  1  0  0  0
  4  1  1  0  0  0  0
  5  1  1  0  0  0  0
  6 32  1  6  0  0  0
  6  4  1  0  0  0  0
  7  8  2  0  0  0  0
  7  6  1  0  0  0  0
  8  9  1  0  0  0  0
  9 33  1  1  0  0  0
  9  4  1  0  0  0  0
 10 36  1  0  0  0  0
 10  7  1  0  0  0  0
 11  8  1  0  0  0  0
 11 38  1  0  0  0  0
 12 42  1  6  0  0  0
 12  6  1  0  0  0  0
 12 13  1  0  0  0  0
 12  5  1  0  0  0  0
 13  9  1  0  0  0  0
 13 40  1  0  0  0  0
 14 15  1  0  0  0  0
 15 16  2  0  0  0  0
 15 43  1  0  0  0  0
 16 44  1  0  0  0  0
 17 45  1  0  0  0  0
 17 16  1  0  0  0  0
 18 17  2  0  0  0  0
 19 18  1  0  0  0  0
 19 14  2  0  0  0  0
 20  5  1  0  0  0  0
 20 25  1  0  0  0  0
 21 20  2  0  0  0  0
 22 21  1  0  0  0  0
 22 23  2  0  0  0  0
 23 24  1  0  0  0  0
 24 25  2  0  0  0  0
 24 51  1  0  0  0  0
 25 52  1  0  0  0  0
 26  5  1  0  0  0  0
 26 31  1  0  0  0  0
 27 26  2  0  0  0  0
 28 27  1  0  0  0  0
 28 29  2  0  0  0  0
 29 30  1  0  0  0  0
 30 31  2  0  0  0  0
 30 56  1  0  0  0  0
 31 57  1  0  0  0  0
 34 10  1  0  0  0  0
 35 10  1  0  0  0  0
 37 11  1  0  0  0  0
 39 11  1  0  0  0  0
 41 13  1  0  0  0  0
 46 18  1  0  0  0  0
 47 19  1  0  0  0  0
 48 21  1  0  0  0  0
 49 22  1  0  0  0  0
 50 23  1  0  0  0  0
 53 27  1  0  0  0  0
 54 28  1  0  0  0  0
 55 29  1  0  0  0  0
M  END
$$$$
