CSD_code = KAWHIC | q = 0 | S = 0 | Stoichiometry = C33H25ClIrN5 | MND = 6
 OpenBabel04212202053D

 65 74  0  0  1  0  0  0  0  0999 V2000
    0.1589    3.0687    3.3718 Ir  0  0  0  0  0  0  0  0  0  0  0  0
    1.0126    3.2637    5.6482 Cl  0  0  0  0  0  0  0  0  0  0  0  0
    2.0927    3.0514    2.6907 N   0  0  0  0  0  0  0  0  0  0  0  0
    2.6856    1.8531    2.7914 C   0  0  1  0  0  3  0  0  0  0  0  0
    4.0010    1.9267    2.4481 N   0  0  0  0  0  0  0  0  0  0  0  0
    4.2625    3.2331    2.1118 C   0  0  0  0  0  0  0  0  0  0  0  0
    3.0448    3.9337    2.2680 C   0  0  0  0  0  0  0  0  0  0  0  0
    2.9759    5.2955    1.9920 C   0  0  0  0  0  0  0  0  0  0  0  0
    2.0494    5.8329    2.1084 H   0  0  0  0  0  0  0  0  0  0  0  0
    4.1277    5.9247    1.5716 C   0  0  0  0  0  0  0  0  0  0  0  0
    4.1068    6.9815    1.3521 H   0  0  0  0  0  0  0  0  0  0  0  0
    5.3280    5.2276    1.4220 C   0  0  0  0  0  0  0  0  0  0  0  0
    6.2073    5.7591    1.0909 H   0  0  0  0  0  0  0  0  0  0  0  0
    5.4163    3.8761    1.6872 C   0  0  0  0  0  0  0  0  0  0  0  0
    6.3518    3.3509    1.5657 H   0  0  0  0  0  0  0  0  0  0  0  0
    0.5833    1.1759    3.5417 C   0  0  0  0  0  0  0  0  0  0  0  0
    1.8863    0.7392    3.2459 C   0  0  0  0  0  0  0  0  0  0  0  0
    2.2129   -0.5986    3.4610 C   0  0  0  0  0  0  0  0  0  0  0  0
    3.1937   -0.9911    3.2425 H   0  0  0  0  0  0  0  0  0  0  0  0
    1.2528   -1.4553    3.9802 C   0  0  0  0  0  0  0  0  0  0  0  0
    1.5117   -2.4921    4.1402 H   0  0  0  0  0  0  0  0  0  0  0  0
   -0.0178   -1.0214    4.3302 C   0  0  0  0  0  0  0  0  0  0  0  0
   -0.7068   -1.7303    4.7624 H   0  0  0  0  0  0  0  0  0  0  0  0
   -0.3624    0.3129    4.1224 C   0  0  0  0  0  0  0  0  0  0  0  0
   -1.6022    2.3520    4.1369 N   0  0  0  0  0  0  0  0  0  0  0  0
   -1.5615    1.0488    4.4492 C   0  0  2  0  0  3  0  0  0  0  0  0
   -2.7092    0.6569    5.0680 N   0  0  0  0  0  0  0  0  0  0  0  0
   -3.5221    1.7613    5.1573 C   0  0  0  0  0  0  0  0  0  0  0  0
   -2.8093    2.8269    4.5622 C   0  0  0  0  0  0  0  0  0  0  0  0
   -3.3729    4.0967    4.4878 C   0  0  0  0  0  0  0  0  0  0  0  0
   -2.8322    4.9107    4.0340 H   0  0  0  0  0  0  0  0  0  0  0  0
   -4.6340    4.2712    5.0156 C   0  0  0  0  0  0  0  0  0  0  0  0
   -5.0972    5.2455    4.9764 H   0  0  0  0  0  0  0  0  0  0  0  0
   -5.3319    3.2150    5.6044 C   0  0  0  0  0  0  0  0  0  0  0  0
   -6.3174    3.3952    6.0067 H   0  0  0  0  0  0  0  0  0  0  0  0
   -4.7919    1.9474    5.6845 C   0  0  0  0  0  0  0  0  0  0  0  0
   -5.3448    1.1411    6.1423 H   0  0  0  0  0  0  0  0  0  0  0  0
    4.9596    0.8582    2.4668 C   0  0  0  0  0  0  0  0  0  0  0  0
    5.0330    0.4301    3.4683 H   0  0  0  0  0  0  0  0  0  0  0  0
    5.9329    1.2530    2.1835 H   0  0  0  0  0  0  0  0  0  0  0  0
    4.6778    0.0762    1.7584 H   0  0  0  0  0  0  0  0  0  0  0  0
   -3.0151   -0.6517    5.5728 C   0  0  0  0  0  0  0  0  0  0  0  0
   -3.9912   -0.6250    6.0524 H   0  0  0  0  0  0  0  0  0  0  0  0
   -2.2709   -0.9592    6.3098 H   0  0  0  0  0  0  0  0  0  0  0  0
   -3.0426   -1.3807    4.7600 H   0  0  0  0  0  0  0  0  0  0  0  0
   -0.2902    5.1324    3.1998 N   0  0  0  0  0  0  0  0  0  0  0  0
   -0.8091    5.5041    2.0108 C   0  0  1  0  0  3  0  0  0  0  0  0
   -1.1284    6.8415    1.7699 C   0  0  0  0  0  0  0  0  0  0  0  0
   -1.5406    7.1389    0.8192 H   0  0  0  0  0  0  0  0  0  0  0  0
   -0.9121    7.7863    2.7549 C   0  0  0  0  0  0  0  0  0  0  0  0
   -1.1544    8.8243    2.5781 H   0  0  0  0  0  0  0  0  0  0  0  0
   -0.3791    7.3811    3.9709 C   0  0  0  0  0  0  0  0  0  0  0  0
   -0.1953    8.0863    4.7655 H   0  0  0  0  0  0  0  0  0  0  0  0
   -0.0844    6.0409    4.1446 C   0  0  0  0  0  0  0  0  0  0  0  0
    0.3334    5.6674    5.0706 H   0  0  0  0  0  0  0  0  0  0  0  0
   -0.5854    3.1294    1.4932 C   0  0  0  0  0  0  0  0  0  0  0  0
   -0.9851    4.4122    1.0586 C   0  0  0  0  0  0  0  0  0  0  0  0
   -1.5165    4.5965   -0.2185 C   0  0  0  0  0  0  0  0  0  0  0  0
   -1.8228    5.5784   -0.5490 H   0  0  0  0  0  0  0  0  0  0  0  0
   -1.6580    3.5256   -1.0760 C   0  0  0  0  0  0  0  0  0  0  0  0
   -2.0699    3.6736   -2.0640 H   0  0  0  0  0  0  0  0  0  0  0  0
   -1.2694    2.2604   -0.6635 C   0  0  0  0  0  0  0  0  0  0  0  0
   -1.3792    1.4188   -1.3336 H   0  0  0  0  0  0  0  0  0  0  0  0
   -0.7423    2.0722    0.6027 C   0  0  0  0  0  0  0  0  0  0  0  0
   -0.4464    1.0762    0.9035 H   0  0  0  0  0  0  0  0  0  0  0  0
  1 16  1  0  0  0  0
  1 25  1  0  0  0  0
  1  2  1  0  0  0  0
  3  4  1  0  0  0  0
  3  1  1  0  0  0  0
  4 17  1  1  0  0  0
  5 38  1  0  0  0  0
  5  4  1  0  0  0  0
  6  7  1  0  0  0  0
  6  5  1  0  0  0  0
  7  3  1  0  0  0  0
  8  9  1  0  0  0  0
  8  7  2  0  0  0  0
 10  8  1  0  0  0  0
 11 10  1  0  0  0  0
 12 10  2  0  0  0  0
 12 14  1  0  0  0  0
 13 12  1  0  0  0  0
 14  6  2  0  0  0  0
 15 14  1  0  0  0  0
 16 24  1  0  0  0  0
 17 18  1  0  0  0  0
 17 16  2  0  0  0  0
 18 20  2  0  0  0  0
 19 18  1  0  0  0  0
 20 21  1  0  0  0  0
 20 22  1  0  0  0  0
 22 23  1  0  0  0  0
 24 22  2  0  0  0  0
 25 26  1  0  0  0  0
 25 29  1  0  0  0  0
 26 24  1  1  0  0  0
 26 27  1  0  0  0  0
 27 28  1  0  0  0  0
 27 42  1  0  0  0  0
 28 36  1  0  0  0  0
 29 28  2  0  0  0  0
 30 29  1  0  0  0  0
 30 32  2  0  0  0  0
 31 30  1  0  0  0  0
 32 34  1  0  0  0  0
 33 32  1  0  0  0  0
 34 36  2  0  0  0  0
 34 35  1  0  0  0  0
 36 37  1  0  0  0  0
 38 39  1  0  0  0  0
 40 38  1  0  0  0  0
 41 38  1  0  0  0  0
 42 43  1  0  0  0  0
 42 44  1  0  0  0  0
 45 42  1  0  0  0  0
 46  1  1  0  0  0  0
 46 54  1  0  0  0  0
 47 57  1  6  0  0  0
 47 46  1  0  0  0  0
 48 47  1  0  0  0  0
 48 50  2  0  0  0  0
 49 48  1  0  0  0  0
 50 52  1  0  0  0  0
 51 50  1  0  0  0  0
 52 54  2  0  0  0  0
 52 53  1  0  0  0  0
 54 55  1  0  0  0  0
 56  1  1  0  0  0  0
 57 56  1  0  0  0  0
 58 57  2  0  0  0  0
 59 58  1  0  0  0  0
 60 62  2  0  0  0  0
 60 58  1  0  0  0  0
 61 60  1  0  0  0  0
 62 64  1  0  0  0  0
 63 62  1  0  0  0  0
 64 65  1  0  0  0  0
 64 56  2  0  0  0  0
M  END
$$$$
