CSD_code = KAWQEH | q = 1 | S = 0 | Stoichiometry = C25H19ClN5Ru(1+) | MND = 6
 OpenBabel04212202053D

 51 58  0  0  1  0  0  0  0  0999 V2000
    0.1051    5.0742    4.0538 Ru  0  0  0  0  0  0  0  0  0  0  0  0
   -1.2599    6.9471    4.4368 Cl  0  0  0  0  0  0  0  0  0  0  0  0
    0.3880    4.9597    6.0472 N   0  0  0  0  0  0  0  0  0  0  0  0
    1.3780    5.4625    6.7798 C   0  0  0  0  0  3  0  0  0  0  0  0
    2.1770    5.9553    6.2375 H   0  0  0  0  0  0  0  0  0  0  0  0
    1.4098    5.3868    8.1600 C   0  0  0  0  0  0  0  0  0  0  0  0
    2.2325    5.8194    8.7051 H   0  0  0  0  0  0  0  0  0  0  0  0
    0.3634    4.7555    8.8196 C   0  0  0  0  0  0  0  0  0  0  0  0
    0.3533    4.6815    9.8953 H   0  0  0  0  0  0  0  0  0  0  0  0
   -0.6710    4.2296    8.0687 C   0  0  0  0  0  0  0  0  0  0  0  0
   -1.5003    3.7393    8.5512 H   0  0  0  0  0  0  0  0  0  0  0  0
   -0.6439    4.3470    6.6802 C   0  0  0  0  0  0  0  0  0  0  0  0
   -1.7088    3.8667    5.7992 C   0  0  1  0  0  3  0  0  0  0  0  0
   -2.9155    3.2845    6.1772 C   0  0  0  0  0  0  0  0  0  0  0  0
   -3.1390    3.0975    7.2141 H   0  0  0  0  0  0  0  0  0  0  0  0
   -3.8437    2.9713    5.1944 C   0  0  0  0  0  0  0  0  0  0  0  0
   -4.7843    2.5201    5.4661 H   0  0  0  0  0  0  0  0  0  0  0  0
   -3.5783    3.2752    3.8669 C   0  0  0  0  0  0  0  0  0  0  0  0
   -4.3167    3.0802    3.1075 H   0  0  0  0  0  0  0  0  0  0  0  0
   -2.3565    3.8591    3.5436 C   0  0  0  0  0  0  0  0  0  0  0  0
   -1.4453    4.0975    4.5020 N   0  0  0  0  0  0  0  0  0  0  0  0
   -1.9237    4.3364    2.2300 C   0  0  1  0  0  3  0  0  0  0  0  0
   -2.6878    4.2209    1.0702 C   0  0  0  0  0  0  0  0  0  0  0  0
   -3.6473    3.7319    1.1045 H   0  0  0  0  0  0  0  0  0  0  0  0
   -2.2140    4.7487   -0.1160 C   0  0  0  0  0  0  0  0  0  0  0  0
   -2.7974    4.6775   -1.0200 H   0  0  0  0  0  0  0  0  0  0  0  0
   -0.9769    5.3797   -0.1158 C   0  0  0  0  0  0  0  0  0  0  0  0
   -0.5727    5.8144   -1.0151 H   0  0  0  0  0  0  0  0  0  0  0  0
   -0.2666    5.4528    1.0681 C   0  0  0  0  0  0  0  0  0  0  0  0
    0.6993    5.9441    1.1012 H   0  0  0  0  0  0  0  0  0  0  0  0
   -0.7126    4.9482    2.2154 N   0  0  0  0  0  0  0  0  0  0  0  0
    1.7402    6.1340    3.5883 N   0  0  0  0  0  0  0  0  0  0  0  0
    1.8094    7.4661    3.5567 C   0  0  0  0  0  3  0  0  0  0  0  0
    0.8910    7.9897    3.7956 H   0  0  0  0  0  0  0  0  0  0  0  0
    2.9698    8.1487    3.2428 C   0  0  0  0  0  0  0  0  0  0  0  0
    2.9721    9.2261    3.2324 H   0  0  0  0  0  0  0  0  0  0  0  0
    4.1188    7.4254    2.9461 C   0  0  0  0  0  0  0  0  0  0  0  0
    5.0406    7.9273    2.6994 H   0  0  0  0  0  0  0  0  0  0  0  0
    4.0569    6.0445    2.9741 C   0  0  0  0  0  0  0  0  0  0  0  0
    4.9322    5.4586    2.7480 H   0  0  0  0  0  0  0  0  0  0  0  0
    2.8535    5.4182    3.2980 C   0  0  0  0  0  0  0  0  0  0  0  0
    2.6606    3.9724    3.3597 C   0  0  2  0  0  3  0  0  0  0  0  0
    3.6537    3.0281    3.1013 C   0  0  0  0  0  0  0  0  0  0  0  0
    4.6476    3.3468    2.8349 H   0  0  0  0  0  0  0  0  0  0  0  0
    3.3572    1.6817    3.1889 C   0  0  0  0  0  0  0  0  0  0  0  0
    4.1130    0.9384    2.9931 H   0  0  0  0  0  0  0  0  0  0  0  0
    2.0633    1.3072    3.5344 C   0  0  0  0  0  0  0  0  0  0  0  0
    1.7868    0.2688    3.6139 H   0  0  0  0  0  0  0  0  0  0  0  0
    1.1275    2.2920    3.7772 C   0  0  0  0  0  0  0  0  0  0  0  0
    0.1114    2.0303    4.0483 H   0  0  0  0  0  0  0  0  0  0  0  0
    1.4039    3.5955    3.6970 N   0  0  0  0  0  0  0  0  0  0  0  0
  1  2  1  0  0  0  0
  1 21  1  0  0  0  0
  1  3  1  0  0  0  0
  3 12  1  0  0  0  0
  3  4  1  0  0  0  0
  4  6  1  0  0  0  0
  5  4  1  0  0  0  0
  6  7  1  0  0  0  0
  6  8  2  0  0  0  0
  8  9  1  0  0  0  0
 10 11  1  0  0  0  0
 10  8  1  0  0  0  0
 12 10  2  0  0  0  0
 13 14  1  1  0  0  0
 13 12  1  0  0  0  0
 14 15  1  0  0  0  0
 16 17  1  0  0  0  0
 16 14  2  0  0  0  0
 18 16  1  0  0  0  0
 19 18  1  0  0  0  0
 20 18  2  0  0  0  0
 20 21  1  0  0  0  0
 21 13  1  0  0  0  0
 22 23  1  1  0  0  0
 22 20  1  0  0  0  0
 23 24  1  0  0  0  0
 25 27  1  0  0  0  0
 25 23  2  0  0  0  0
 26 25  1  0  0  0  0
 27 29  2  0  0  0  0
 28 27  1  0  0  0  0
 29 30  1  0  0  0  0
 29 31  1  0  0  0  0
 31 22  1  0  0  0  0
 31  1  1  0  0  0  0
 32  1  1  0  0  0  0
 33 32  1  0  0  0  0
 33 34  1  0  0  0  0
 35 33  1  0  0  0  0
 36 35  1  0  0  0  0
 37 39  1  0  0  0  0
 37 35  2  0  0  0  0
 38 37  1  0  0  0  0
 39 41  2  0  0  0  0
 40 39  1  0  0  0  0
 41 42  1  0  0  0  0
 41 32  1  0  0  0  0
 42 43  1  6  0  0  0
 42 51  1  0  0  0  0
 43 45  2  0  0  0  0
 44 43  1  0  0  0  0
 45 47  1  0  0  0  0
 46 45  1  0  0  0  0
 47 48  1  0  0  0  0
 47 49  2  0  0  0  0
 49 50  1  0  0  0  0
 51 49  1  0  0  0  0
 51  1  1  0  0  0  0
M  END
$$$$
