CSD_code = KAWQUW | q = 1 | S = 0 | Stoichiometry = C10H27ClN3O2RuS2(1+) | MND = 6
 OpenBabel04212202053D

 46 48  0  0  1  0  0  0  0  0999 V2000
    2.3375   15.4741   25.9251 Ru  0  0  0  0  0  0  0  0  0  0  0  0
    0.8185   14.2409   27.1818 Cl  0  0  0  0  0  0  0  0  0  0  0  0
    2.3018   13.6727   24.5490 S   0  0  0  0  0  0  0  0  0  0  0  0
    4.0130   14.4523   27.1195 S   0  0  0  0  0  0  0  0  0  0  0  0
    3.1075   12.6325   25.1626 O   0  0  0  0  0  1  0  0  0  0  0  0
    4.4558   15.5038   28.0412 O   0  0  0  0  0  1  0  0  0  0  0  0
    2.3023   17.0700   27.2703 N   0  0  2  0  0  4  0  0  0  0  0  0
    2.6237   16.6905   28.1656 H   0  0  0  0  0  0  0  0  0  0  0  0
    0.7562   16.5852   25.0823 N   0  0  1  0  0  4  0  0  0  0  0  0
   -0.0335   15.9454   24.9730 H   0  0  0  0  0  0  0  0  0  0  0  0
    3.5039   16.8524   24.7904 N   0  0  1  0  0  4  0  0  0  0  0  0
    4.2121   16.3887   24.2259 H   0  0  0  0  0  0  0  0  0  0  0  0
    0.6859   12.9436   24.1592 C   0  0  0  0  0  0  0  0  0  0  0  0
    0.1501   12.8343   25.0978 H   0  0  0  0  0  0  0  0  0  0  0  0
    0.8547   11.9711   23.7119 H   0  0  0  0  0  0  0  0  0  0  0  0
    0.1468   13.5996   23.4848 H   0  0  0  0  0  0  0  0  0  0  0  0
    2.9289   13.7764   22.8269 C   0  0  0  0  0  0  0  0  0  0  0  0
    3.9306   14.1919   22.8539 H   0  0  0  0  0  0  0  0  0  0  0  0
    2.2773   14.3879   22.2149 H   0  0  0  0  0  0  0  0  0  0  0  0
    2.9735   12.7652   22.4395 H   0  0  0  0  0  0  0  0  0  0  0  0
    3.6735   12.9942   28.1258 C   0  0  0  0  0  0  0  0  0  0  0  0
    2.8123   13.2132   28.7486 H   0  0  0  0  0  0  0  0  0  0  0  0
    4.5472   12.8073   28.7386 H   0  0  0  0  0  0  0  0  0  0  0  0
    3.4578   12.1718   27.4552 H   0  0  0  0  0  0  0  0  0  0  0  0
    5.5330   13.8671   26.3023 C   0  0  0  0  0  0  0  0  0  0  0  0
    5.9034   14.6493   25.6471 H   0  0  0  0  0  0  0  0  0  0  0  0
    5.2929   12.9735   25.7411 H   0  0  0  0  0  0  0  0  0  0  0  0
    6.2614   13.6653   27.0790 H   0  0  0  0  0  0  0  0  0  0  0  0
    0.8964   17.4703   27.3798 C   0  0  0  0  0  0  0  0  0  0  0  0
    0.7729   18.3756   27.9849 H   0  0  0  0  0  0  0  0  0  0  0  0
    0.3604   16.6432   27.8553 H   0  0  0  0  0  0  0  0  0  0  0  0
    0.3266   17.6886   25.9732 C   0  0  0  0  0  0  0  0  0  0  0  0
    0.6796   18.6353   25.5595 H   0  0  0  0  0  0  0  0  0  0  0  0
   -0.7634   17.7381   26.0316 H   0  0  0  0  0  0  0  0  0  0  0  0
    1.2326   17.0342   23.7720 C   0  0  0  0  0  0  0  0  0  0  0  0
    0.5523   17.7674   23.3197 H   0  0  0  0  0  0  0  0  0  0  0  0
    1.2812   16.1626   23.1135 H   0  0  0  0  0  0  0  0  0  0  0  0
    2.6353   17.6558   23.9017 C   0  0  0  0  0  0  0  0  0  0  0  0
    3.0710   17.7460   22.9031 H   0  0  0  0  0  0  0  0  0  0  0  0
    2.5523   18.6636   24.3109 H   0  0  0  0  0  0  0  0  0  0  0  0
    4.1997   17.6560   25.8098 C   0  0  0  0  0  0  0  0  0  0  0  0
    4.7286   18.5054   25.3603 H   0  0  0  0  0  0  0  0  0  0  0  0
    4.9269   17.0089   26.3068 H   0  0  0  0  0  0  0  0  0  0  0  0
    3.2132   18.1576   26.8713 C   0  0  0  0  0  0  0  0  0  0  0  0
    3.7887   18.5164   27.7279 H   0  0  0  0  0  0  0  0  0  0  0  0
    2.6275   18.9954   26.4883 H   0  0  0  0  0  0  0  0  0  0  0  0
  1  4  1  0  0  0  0
  1  2  1  0  0  0  0
  1  7  1  0  0  0  0
  3  5  1  0  0  0  0
  3  1  1  0  0  0  0
  4  6  1  0  0  0  0
  4 21  1  0  0  0  0
  7 29  1  0  0  0  0
  7  8  1  1  0  0  0
  9 10  1  6  0  0  0
  9  1  1  0  0  0  0
  9 32  1  0  0  0  0
 11 12  1  6  0  0  0
 11 41  1  0  0  0  0
 11  1  1  0  0  0  0
 13  3  1  0  0  0  0
 13 14  1  0  0  0  0
 15 13  1  0  0  0  0
 16 13  1  0  0  0  0
 17 18  1  0  0  0  0
 17  3  1  0  0  0  0
 19 17  1  0  0  0  0
 20 17  1  0  0  0  0
 21 23  1  0  0  0  0
 21 22  1  0  0  0  0
 24 21  1  0  0  0  0
 25 28  1  0  0  0  0
 25  4  1  0  0  0  0
 26 25  1  0  0  0  0
 27 25  1  0  0  0  0
 29 31  1  0  0  0  0
 29 30  1  0  0  0  0
 32 34  1  0  0  0  0
 32 29  1  0  0  0  0
 33 32  1  0  0  0  0
 35 38  1  0  0  0  0
 35  9  1  0  0  0  0
 36 35  1  0  0  0  0
 37 35  1  0  0  0  0
 38 40  1  0  0  0  0
 38 11  1  0  0  0  0
 39 38  1  0  0  0  0
 41 43  1  0  0  0  0
 41 44  1  0  0  0  0
 42 41  1  0  0  0  0
 44  7  1  0  0  0  0
 44 45  1  0  0  0  0
 46 44  1  0  0  0  0
M  END
$$$$
