CSD_code = KAWROR | q = 1 | S = 0 | Stoichiometry = C16H23ClN5Ru(1+) | MND = 6
 OpenBabel04212202053D

 46 51  0  0  1  0  0  0  0  0999 V2000
    2.2384    4.9245    6.7032 Ru  0  0  0  0  0  0  0  0  0  0  0  0
    4.0028    6.2818    7.3993 Cl  0  0  0  0  0  0  0  0  0  0  0  0
    3.4298    3.8913    5.5267 N   0  0  0  0  0  0  0  0  0  0  0  0
    2.8805    3.5831    7.9964 N   0  0  0  0  0  0  0  0  0  0  0  0
    1.5786    6.4073    5.3390 N   0  0  2  0  0  4  0  0  0  0  0  0
    2.3583    6.6643    4.7354 H   0  0  0  0  0  0  0  0  0  0  0  0
    0.8464    5.9658    7.9312 N   0  0  1  0  0  4  0  0  0  0  0  0
    1.3355    6.2088    8.7926 H   0  0  0  0  0  0  0  0  0  0  0  0
    0.4160    3.9887    6.0506 N   0  0  1  0  0  4  0  0  0  0  0  0
    0.5109    2.9739    6.0623 H   0  0  0  0  0  0  0  0  0  0  0  0
    3.7744    4.1918    4.2712 C   0  0  0  0  0  3  0  0  0  0  0  0
    3.3978    5.1230    3.8699 H   0  0  0  0  0  0  0  0  0  0  0  0
    4.5790    3.3914    3.4868 C   0  0  0  0  0  0  0  0  0  0  0  0
    4.8248    3.6956    2.4827 H   0  0  0  0  0  0  0  0  0  0  0  0
    5.0627    2.1997    4.0149 C   0  0  0  0  0  0  0  0  0  0  0  0
    5.6840    1.5445    3.4269 H   0  0  0  0  0  0  0  0  0  0  0  0
    4.7436    1.8897    5.3219 C   0  0  0  0  0  0  0  0  0  0  0  0
    5.1192    0.9852    5.7699 H   0  0  0  0  0  0  0  0  0  0  0  0
    3.9430    2.7572    6.0646 C   0  0  0  0  0  0  0  0  0  0  0  0
    3.6570    2.5992    7.4824 C   0  0  1  0  0  3  0  0  0  0  0  0
    4.2093    1.6039    8.2885 C   0  0  0  0  0  0  0  0  0  0  0  0
    4.8079    0.8233    7.8500 H   0  0  0  0  0  0  0  0  0  0  0  0
    4.0070    1.6377    9.6539 C   0  0  0  0  0  0  0  0  0  0  0  0
    4.4265    0.8787   10.2936 H   0  0  0  0  0  0  0  0  0  0  0  0
    3.2823    2.6989   10.1831 C   0  0  0  0  0  0  0  0  0  0  0  0
    3.1404    2.8015   11.2463 H   0  0  0  0  0  0  0  0  0  0  0  0
    2.7465    3.6361    9.3235 C   0  0  0  0  0  0  0  0  0  0  0  0
    2.2054    4.4808    9.7279 H   0  0  0  0  0  0  0  0  0  0  0  0
    1.2903    7.5963    6.1545 C   0  0  0  0  0  0  0  0  0  0  0  0
    0.8422    8.4012    5.5585 H   0  0  0  0  0  0  0  0  0  0  0  0
    2.2494    7.9355    6.5606 H   0  0  0  0  0  0  0  0  0  0  0  0
    0.3696    7.2210    7.3176 C   0  0  0  0  0  0  0  0  0  0  0  0
    0.3618    8.0387    8.0437 H   0  0  0  0  0  0  0  0  0  0  0  0
   -0.6569    7.0852    6.9681 H   0  0  0  0  0  0  0  0  0  0  0  0
   -0.2282    5.0118    8.2152 C   0  0  0  0  0  0  0  0  0  0  0  0
   -1.0736    5.4874    8.7308 H   0  0  0  0  0  0  0  0  0  0  0  0
    0.1657    4.2244    8.8633 H   0  0  0  0  0  0  0  0  0  0  0  0
   -0.7236    4.3720    6.9084 C   0  0  0  0  0  0  0  0  0  0  0  0
   -1.3419    3.5039    7.1542 H   0  0  0  0  0  0  0  0  0  0  0  0
   -1.3563    5.0760    6.3642 H   0  0  0  0  0  0  0  0  0  0  0  0
    0.2713    4.4170    4.6523 C   0  0  0  0  0  0  0  0  0  0  0  0
   -0.7044    4.1256    4.2404 H   0  0  0  0  0  0  0  0  0  0  0  0
    1.0493    3.9137    4.0708 H   0  0  0  0  0  0  0  0  0  0  0  0
    0.4440    5.9405    4.5238 C   0  0  0  0  0  0  0  0  0  0  0  0
    0.5795    6.1848    3.4659 H   0  0  0  0  0  0  0  0  0  0  0  0
   -0.4657    6.4472    4.8539 H   0  0  0  0  0  0  0  0  0  0  0  0
  1  2  1  0  0  0  0
  1  7  1  0  0  0  0
  1  4  1  0  0  0  0
  3 19  1  0  0  0  0
  3  1  1  0  0  0  0
  4 27  1  0  0  0  0
  5  6  1  6  0  0  0
  5 29  1  0  0  0  0
  5  1  1  0  0  0  0
  7 35  1  0  0  0  0
  7  8  1  1  0  0  0
  9 10  1  1  0  0  0
  9  1  1  0  0  0  0
  9 38  1  0  0  0  0
 11  3  1  0  0  0  0
 12 11  1  0  0  0  0
 13 15  2  0  0  0  0
 13 11  1  0  0  0  0
 14 13  1  0  0  0  0
 15 17  1  0  0  0  0
 16 15  1  0  0  0  0
 17 18  1  0  0  0  0
 17 19  2  0  0  0  0
 20 19  1  1  0  0  0
 20  4  1  0  0  0  0
 20 21  1  0  0  0  0
 21 23  2  0  0  0  0
 22 21  1  0  0  0  0
 23 25  1  0  0  0  0
 23 24  1  0  0  0  0
 25 26  1  0  0  0  0
 27 28  1  0  0  0  0
 27 25  2  0  0  0  0
 29 31  1  0  0  0  0
 29 32  1  0  0  0  0
 30 29  1  0  0  0  0
 32  7  1  0  0  0  0
 32 33  1  0  0  0  0
 34 32  1  0  0  0  0
 35 36  1  0  0  0  0
 35 37  1  0  0  0  0
 38 39  1  0  0  0  0
 38 35  1  0  0  0  0
 40 38  1  0  0  0  0
 41  9  1  0  0  0  0
 42 41  1  0  0  0  0
 43 41  1  0  0  0  0
 44 41  1  0  0  0  0
 44 46  1  0  0  0  0
 44  5  1  0  0  0  0
 45 44  1  0  0  0  0
M  END
$$$$
