CSD_code = KAWSAE | q = 0 | S = 0 | Stoichiometry = C12H15AgClN3 | MND = 2
 OpenBabel04212202053D

 32 33  0  0  1  0  0  0  0  0999 V2000
   -1.5882    9.2250    6.8966 Ag  0  0  0  0  0  0  0  0  0  0  0  0
   -0.4547    9.9108    5.0895 Cl  0  0  0  0  0  0  0  0  0  0  0  0
   -3.9170    8.7273    8.9981 N   0  0  0  0  0  0  0  0  0  0  0  0
   -2.1517    7.6385    9.5283 N   0  0  0  0  0  0  0  0  0  0  0  0
   -0.3106    4.8273    5.8929 N   0  0  0  0  0  0  0  0  0  0  0  0
   -4.8336    9.6169    8.3145 C   0  0  0  0  0  0  0  0  0  0  0  0
   -4.2625   10.0496    7.4791 H   0  0  0  0  0  0  0  0  0  0  0  0
   -6.0169    8.8305    7.7562 C   0  0  0  0  0  0  0  0  0  0  0  0
   -6.6497    9.4882    7.1676 H   0  0  0  0  0  0  0  0  0  0  0  0
   -6.6156    8.4035    8.5578 H   0  0  0  0  0  0  0  0  0  0  0  0
   -5.6644    8.0261    7.1144 H   0  0  0  0  0  0  0  0  0  0  0  0
   -5.2824   10.7377    9.2487 C   0  0  0  0  0  0  0  0  0  0  0  0
   -4.4184   11.2628    9.6492 H   0  0  0  0  0  0  0  0  0  0  0  0
   -5.8694   10.3455   10.0763 H   0  0  0  0  0  0  0  0  0  0  0  0
   -5.8937   11.4486    8.7005 H   0  0  0  0  0  0  0  0  0  0  0  0
   -2.6370    8.5244    8.6318 C   0  0  1  0  0  3  0  0  0  0  0  0
   -4.2290    7.9809   10.1003 C   0  0  0  0  0  0  0  0  0  0  0  0
   -5.1945    7.9916   10.5608 H   0  0  0  0  0  0  0  0  0  0  0  0
   -3.1133    7.2894   10.4330 C   0  0  0  0  0  0  0  0  0  0  0  0
   -2.9356    6.5972   11.2306 H   0  0  0  0  0  0  0  0  0  0  0  0
   -0.8090    7.1074    9.4916 C   0  0  0  0  0  0  0  0  0  0  0  0
   -0.6632    6.4817   10.3766 H   0  0  0  0  0  0  0  0  0  0  0  0
   -0.0944    7.9367    9.5171 H   0  0  0  0  0  0  0  0  0  0  0  0
    0.2468    6.7293    7.2219 C   0  0  0  0  0  0  0  0  0  0  0  0
    0.8482    7.6217    7.3361 H   0  0  0  0  0  0  0  0  0  0  0  0
    0.3535    5.9539    6.0722 C   0  0  0  0  0  0  0  0  0  0  0  0
    1.0012    6.2551    5.2610 H   0  0  0  0  0  0  0  0  0  0  0  0
   -1.1168    4.4172    6.8554 C   0  0  0  0  0  0  0  0  0  0  0  0
   -1.6379    3.4879    6.6666 H   0  0  0  0  0  0  0  0  0  0  0  0
   -1.3035    5.1108    8.0409 C   0  0  0  0  0  0  0  0  0  0  0  0
   -1.9791    4.7367    8.7964 H   0  0  0  0  0  0  0  0  0  0  0  0
   -0.6043    6.2969    8.2337 C   0  0  0  0  0  0  0  0  0  0  0  0
  2  1  1  0  0  0  0
  3 17  1  0  0  0  0
  4 19  1  0  0  0  0
  5 26  2  0  0  0  0
  5 28  1  0  0  0  0
  6  3  1  0  0  0  0
  6 12  1  0  0  0  0
  7  6  1  0  0  0  0
  8  6  1  0  0  0  0
  8 10  1  0  0  0  0
  9  8  1  0  0  0  0
 11  8  1  0  0  0  0
 12 13  1  0  0  0  0
 12 14  1  0  0  0  0
 15 12  1  0  0  0  0
 16  1  1  6  0  0  0
 16  3  1  0  0  0  0
 16  4  1  0  0  0  0
 17 19  2  0  0  0  0
 17 18  1  0  0  0  0
 19 20  1  0  0  0  0
 21 23  1  0  0  0  0
 21  4  1  0  0  0  0
 21 22  1  0  0  0  0
 24 25  1  0  0  0  0
 24 32  2  0  0  0  0
 26 24  1  0  0  0  0
 27 26  1  0  0  0  0
 28 30  2  0  0  0  0
 29 28  1  0  0  0  0
 30 32  1  0  0  0  0
 30 31  1  0  0  0  0
 32 21  1  0  0  0  0
M  END
$$$$
