CSD_code = KAWTEJ | q = 0 | S = 0 | Stoichiometry = C28H20Cl3F3NOPTi | MND = 6
 OpenBabel04212202053D

 58 63  0  0  1  0  0  0  0  0999 V2000
    0.6064    3.9138   16.4047 Ti  0  0  0  0  0  0  0  0  0  0  0  0
    0.5266    2.4404   14.3933 P   0  0  0  0  0  4  0  0  0  0  0  0
   -0.2290    2.0965   17.4241 Cl  0  0  0  0  0  0  0  0  0  0  0  0
    1.1124    5.5315   14.8844 Cl  0  0  0  0  0  0  0  0  0  0  0  0
    0.1989    5.0940   17.6864 O   0  0  0  0  0  0  0  0  0  0  0  0
   -1.3927    4.1820   15.6927 N   0  0  0  0  0  0  0  0  0  0  0  0
    0.8353    3.1262   12.7339 C   0  0  0  0  0  0  0  0  0  0  0  0
   -0.4017    8.5096   18.0733 F   0  0  0  0  0  0  0  0  0  0  0  0
   -1.2725    2.1455   14.3944 C   0  0  0  0  0  0  0  0  0  0  0  0
    1.2529    0.7762   14.2416 C   0  0  0  0  0  0  0  0  0  0  0  0
   -2.0412    3.1176   15.0584 C   0  0  0  0  0  0  0  0  0  0  0  0
    2.1424    3.5452   12.4913 C   0  0  0  0  0  0  0  0  0  0  0  0
    2.8818    3.4356   13.2774 H   0  0  0  0  0  0  0  0  0  0  0  0
    1.7687    0.1700   15.3835 C   0  0  0  0  0  0  0  0  0  0  0  0
    1.7291    0.6926   16.3311 H   0  0  0  0  0  0  0  0  0  0  0  0
   -0.4624    6.1741   17.5171 C   0  0  0  0  0  0  0  0  0  0  0  0
    2.4730    4.1060   11.2734 C   0  0  0  0  0  0  0  0  0  0  0  0
    3.4841    4.4344   11.0859 H   0  0  0  0  0  0  0  0  0  0  0  0
   -1.4445    6.3953   16.5955 C   0  0  0  0  0  0  0  0  0  0  0  0
   -1.8959    7.3723   16.5284 H   0  0  0  0  0  0  0  0  0  0  0  0
   -2.9485    5.7897   14.7338 C   0  0  0  0  0  0  0  0  0  0  0  0
   -0.6274    7.1152   19.6918 F   0  0  0  0  0  0  0  0  0  0  0  0
   -3.4194    2.9271   15.1699 C   0  0  0  0  0  0  0  0  0  0  0  0
   -4.0115    3.6334   15.7327 H   0  0  0  0  0  0  0  0  0  0  0  0
    1.3271    0.1226   13.0130 C   0  0  0  0  0  0  0  0  0  0  0  0
    0.9551    0.6056   12.1196 H   0  0  0  0  0  0  0  0  0  0  0  0
   -1.9106    5.3804   15.7030 C   0  0  1  0  0  3  0  0  0  0  0  0
   -3.6277    5.9548   12.4343 C   0  0  0  0  0  0  0  0  0  0  0  0
   -3.4341    5.7713   11.3884 H   0  0  0  0  0  0  0  0  0  0  0  0
    1.8912   -1.1378   12.9378 C   0  0  0  0  0  0  0  0  0  0  0  0
    1.9464   -1.6446   11.9854 H   0  0  0  0  0  0  0  0  0  0  0  0
   -4.0184    1.8166   14.6054 C   0  0  0  0  0  0  0  0  0  0  0  0
   -5.0843    1.6809   14.7076 H   0  0  0  0  0  0  0  0  0  0  0  0
   -0.1374    3.2791   11.7534 C   0  0  0  0  0  0  0  0  0  0  0  0
   -1.1522    2.9508   11.9380 H   0  0  0  0  0  0  0  0  0  0  0  0
   -4.1012    6.4678   15.1191 C   0  0  0  0  0  0  0  0  0  0  0  0
   -4.2867    6.6607   16.1657 H   0  0  0  0  0  0  0  0  0  0  0  0
    2.3313   -1.0916   15.2977 C   0  0  0  0  0  0  0  0  0  0  0  0
    2.7308   -1.5618   16.1835 H   0  0  0  0  0  0  0  0  0  0  0  0
    1.2647    7.2770   18.6711 F   0  0  0  0  0  0  0  0  0  0  0  0
    2.3896   -1.7470   14.0786 C   0  0  0  0  0  0  0  0  0  0  0  0
    2.8317   -2.7301   14.0135 H   0  0  0  0  0  0  0  0  0  0  0  0
   -2.7127    5.5401   13.3827 C   0  0  0  0  0  0  0  0  0  0  0  0
   -1.7904    5.0577   13.0891 H   0  0  0  0  0  0  0  0  0  0  0  0
   -1.8882    1.0358   13.8331 C   0  0  0  0  0  0  0  0  0  0  0  0
   -1.2843    0.2893   13.3374 H   0  0  0  0  0  0  0  0  0  0  0  0
    0.2012    3.8466   10.5360 C   0  0  0  0  0  0  0  0  0  0  0  0
   -0.5544    3.9680    9.7733 H   0  0  0  0  0  0  0  0  0  0  0  0
   -3.2603    0.8749   13.9284 C   0  0  0  0  0  0  0  0  0  0  0  0
   -3.7332    0.0071   13.4951 H   0  0  0  0  0  0  0  0  0  0  0  0
    1.5006    4.2595   10.2961 C   0  0  0  0  0  0  0  0  0  0  0  0
    1.7562    4.7068    9.3472 H   0  0  0  0  0  0  0  0  0  0  0  0
   -5.0209    6.8632   14.1648 C   0  0  0  0  0  0  0  0  0  0  0  0
   -5.9201    7.3776   14.4685 H   0  0  0  0  0  0  0  0  0  0  0  0
   -4.7867    6.6074   12.8235 C   0  0  0  0  0  0  0  0  0  0  0  0
   -5.5040    6.9238   12.0815 H   0  0  0  0  0  0  0  0  0  0  0  0
   -0.0570    7.2844   18.4874 C   0  0  0  0  0  0  0  0  0  0  0  0
    2.6803    3.4137   16.7814 Cl  0  0  0  0  0  0  0  0  0  0  0  0
  1 58  1  0  0  0  0
  1  3  1  0  0  0  0
  1  5  1  0  0  0  0
  2  9  1  0  0  0  0
  2  1  1  0  0  0  0
  4  1  1  0  0  0  0
  6 27  1  0  0  0  0
  6  1  1  0  0  0  0
  7  2  1  0  0  0  0
  8 57  1  0  0  0  0
  9 11  1  0  0  0  0
 10  2  1  0  0  0  0
 10 14  1  0  0  0  0
 11 23  2  0  0  0  0
 11  6  1  0  0  0  0
 12  7  1  0  0  0  0
 12 13  1  0  0  0  0
 14 15  1  0  0  0  0
 16  5  1  0  0  0  0
 16 57  1  0  0  0  0
 17 12  2  0  0  0  0
 18 17  1  0  0  0  0
 19 16  2  0  0  0  0
 20 19  1  0  0  0  0
 21 36  1  0  0  0  0
 23 24  1  0  0  0  0
 25 10  2  0  0  0  0
 26 25  1  0  0  0  0
 27 21  1  6  0  0  0
 27 19  1  0  0  0  0
 28 55  2  0  0  0  0
 28 43  1  0  0  0  0
 29 28  1  0  0  0  0
 30 25  1  0  0  0  0
 30 41  2  0  0  0  0
 31 30  1  0  0  0  0
 32 33  1  0  0  0  0
 32 23  1  0  0  0  0
 34 35  1  0  0  0  0
 34  7  2  0  0  0  0
 36 37  1  0  0  0  0
 38 14  2  0  0  0  0
 38 39  1  0  0  0  0
 41 38  1  0  0  0  0
 42 41  1  0  0  0  0
 43 21  2  0  0  0  0
 44 43  1  0  0  0  0
 45 49  1  0  0  0  0
 45  9  2  0  0  0  0
 46 45  1  0  0  0  0
 47 34  1  0  0  0  0
 48 47  1  0  0  0  0
 49 32  2  0  0  0  0
 50 49  1  0  0  0  0
 51 47  2  0  0  0  0
 51 17  1  0  0  0  0
 52 51  1  0  0  0  0
 53 54  1  0  0  0  0
 53 36  2  0  0  0  0
 55 53  1  0  0  0  0
 56 55  1  0  0  0  0
 57 40  1  0  0  0  0
 57 22  1  0  0  0  0
M  END
$$$$
