CSD_code = KAWZIR | q = 0 | S = 0 | Stoichiometry = C15H16Cl2Ti | MND = 12
 OpenBabel04212202053D

 34 36  0  0  1  0  0  0  0  0999 V2000
    2.0683   -0.1360    8.6161 Ti  0  0  0  0  0  0  0  0  0  0  0  0
    2.2989    1.3943   10.2200 Cl  0  0  0  0  0  0  0  0  0  0  0  0
    0.5180   -1.2544    9.7635 Cl  0  0  0  0  0  0  0  0  0  0  0  0
    0.8709    1.6843    7.7294 C   0  0  2  0  0  3  0  0  0  0  0  0
    2.0622    1.5622    6.9846 C   0  0  0  0  0  0  0  0  0  0  0  0
    1.9884    0.3195    6.3048 C   0  0  0  0  0  0  0  0  0  0  0  0
    0.7844   -0.3432    6.6557 C   0  0  0  0  0  3  0  0  0  0  0  0
    0.0902    0.5201    7.5286 C   0  0  1  0  0  0  0  0  0  0  0  0
   -1.2792    0.8242    8.0612 C   0  0  2  0  0  0  0  0  0  0  0  0
   -1.8658    1.8368    7.0467 C   0  0  0  0  0  0  0  0  0  0  0  0
   -1.0143    3.1065    7.2654 C   0  0  0  0  0  0  0  0  0  0  0  0
   -0.0248    2.6947    8.3835 C   0  0  1  0  0  0  0  0  0  0  0  0
   -0.9249    1.7704    9.2213 C   0  0  0  0  0  0  0  0  0  0  0  0
    4.2529   -0.6010    7.8436 C   0  0  0  0  0  0  0  0  0  0  0  0
    3.4717   -1.7636    7.6311 C   0  0  0  0  0  0  0  0  0  0  0  0
    3.0988   -2.2700    8.8878 C   0  0  0  0  0  0  0  0  0  0  0  0
    3.6305   -1.4178    9.8786 C   0  0  0  0  0  0  0  0  0  0  0  0
    4.3592   -0.3988    9.2304 C   0  0  0  0  0  3  0  0  0  0  0  0
    2.8233    2.3203    6.8447 H   0  0  0  0  0  0  0  0  0  0  0  0
    2.6833   -0.0151    5.5458 H   0  0  0  0  0  0  0  0  0  0  0  0
    0.4172   -1.2674    6.2256 H   0  0  0  0  0  0  0  0  0  0  0  0
   -1.9237   -0.0211    8.2915 H   0  0  0  0  0  0  0  0  0  0  0  0
   -2.9153    2.0228    7.2716 H   0  0  0  0  0  0  0  0  0  0  0  0
   -1.7947    1.4638    6.0257 H   0  0  0  0  0  0  0  0  0  0  0  0
   -0.4889    3.4111    6.3610 H   0  0  0  0  0  0  0  0  0  0  0  0
   -1.6296    3.9401    7.6020 H   0  0  0  0  0  0  0  0  0  0  0  0
    0.4531    3.5229    8.9019 H   0  0  0  0  0  0  0  0  0  0  0  0
   -1.7976    2.2873    9.6180 H   0  0  0  0  0  0  0  0  0  0  0  0
   -0.3907    1.2728   10.0314 H   0  0  0  0  0  0  0  0  0  0  0  0
    4.7995   -0.0525    7.0875 H   0  0  0  0  0  0  0  0  0  0  0  0
    3.3154   -2.2626    6.6837 H   0  0  0  0  0  0  0  0  0  0  0  0
    2.5698   -3.1969    9.0675 H   0  0  0  0  0  0  0  0  0  0  0  0
    3.5627   -1.5683   10.9488 H   0  0  0  0  0  0  0  0  0  0  0  0
    4.9627    0.3557    9.7180 H   0  0  0  0  0  0  0  0  0  0  0  0
  1  3  1  0  0  0  0
  1  2  1  0  0  0  0
  4  5  1  6  0  0  0
  4 12  1  0  0  0  0
  6  7  1  0  0  0  0
  6  5  2  0  0  0  0
  7  8  1  0  0  0  0
  8  4  1  0  0  0  0
  8  9  1  0  0  0  0
  8  1  1  1  0  0  0
  9 22  1  1  0  0  0
  9 13  1  0  0  0  0
 10 11  1  0  0  0  0
 10 23  1  0  0  0  0
 10  9  1  0  0  0  0
 11 26  1  0  0  0  0
 11 12  1  0  0  0  0
 12 27  1  1  0  0  0
 12 13  1  0  0  0  0
 13 28  1  0  0  0  0
 13 29  1  0  0  0  0
 14 18  1  0  0  0  0
 15 14  2  0  0  0  0
 15 16  1  0  0  0  0
 16 32  1  0  0  0  0
 16 17  2  0  0  0  0
 17 33  1  0  0  0  0
 18 34  1  0  0  0  0
 18 17  1  0  0  0  0
 19  5  1  0  0  0  0
 20  6  1  0  0  0  0
 21  7  1  0  0  0  0
 24 10  1  0  0  0  0
 25 11  1  0  0  0  0
 30 14  1  0  0  0  0
 31 15  1  0  0  0  0
M  END
$$$$
