CSD_code = KAXJAU | q = 0 | S = 0 | Stoichiometry = C18H25ClOSiZr | MND = 13
 OpenBabel04212202053D

 47 45  0  0  0  0  0  0  0  0999 V2000
    7.8181    3.1719    2.3512 Zr  0  0  0  0  0  0  0  0  0  0  0  0
    8.4749    2.7613    4.6055 Cl  0  0  0  0  0 15  0  0  0  0  0  0
    2.0809    3.1581   -0.3935 Si  0  0  0  0  0  0  0  0  0  0  0  0
    5.9516    2.9582    3.0855 O   0  0  0  0  0  0  0  0  0  0  0  0
    5.6840    3.1692    1.8468 C   0  0  0  0  0  3  0  0  0  0  0  0
    4.2652    3.1220    1.4775 C   0  0  0  0  0  0  0  0  0  0  0  0
    3.8844    3.2087    0.1979 C   0  0  0  0  0  3  0  0  0  0  0  0
    2.0996    3.0625   -2.2964 C   0  0  0  0  0  0  0  0  0  0  0  0
    1.2135    4.7524    0.1948 C   0  0  0  0  0  0  0  0  0  0  0  0
    1.2249    1.6234    0.3480 C   0  0  0  0  0  0  0  0  0  0  0  0
    7.9589    0.7101    2.0925 C   0  0  0  0  0  0  0  0  0  0  0  0
    7.3535    1.1576    0.8956 C   0  0  0  0  0  0  0  0  0  0  0  0
    8.2997    1.9369    0.1860 C   0  0  0  0  0  0  0  0  0  0  0  0
    9.4991    1.9465    0.9293 C   0  0  0  0  0  0  0  0  0  0  0  0
    9.2884    1.1963    2.1084 C   0  0  0  0  0  3  0  0  0  0  0  0
    7.3001   -0.1213    3.1581 C   0  0  0  0  0  0  0  0  0  0  0  0
    9.3827    5.0370    2.4171 C   0  0  0  0  0  0  0  0  0  0  0  0
    8.2626    5.4811    3.1679 C   0  0  0  0  0  3  0  0  0  0  0  0
    7.1804    5.6630    2.2841 C   0  0  0  0  0  0  0  0  0  0  0  0
    7.6147    5.3238    0.9845 C   0  0  0  0  0  0  0  0  0  0  0  0
    8.9773    4.9511    1.0637 C   0  0  0  0  0  0  0  0  0  0  0  0
   10.7634    4.7880    2.9631 C   0  0  0  0  0  0  0  0  0  0  0  0
    3.5352    3.0140    2.2771 H   0  0  0  0  0  0  0  0  0  0  0  0
    4.6787    3.3108   -0.5351 H   0  0  0  0  0  0  0  0  0  0  0  0
    2.5942    3.9250   -2.7330 H   0  0  0  0  0  0  0  0  0  0  0  0
    2.6177    2.1746   -2.6464 H   0  0  0  0  0  0  0  0  0  0  0  0
    1.0910    3.0294   -2.6963 H   0  0  0  0  0  0  0  0  0  0  0  0
    1.2315    4.8338    1.2774 H   0  0  0  0  0  0  0  0  0  0  0  0
    1.6955    5.6385   -0.2076 H   0  0  0  0  0  0  0  0  0  0  0  0
    0.1741    4.7727   -0.1192 H   0  0  0  0  0  0  0  0  0  0  0  0
    1.7308    0.7074    0.0574 H   0  0  0  0  0  0  0  0  0  0  0  0
    1.2160    1.6615    1.4329 H   0  0  0  0  0  0  0  0  0  0  0  0
    0.1941    1.5484    0.0151 H   0  0  0  0  0  0  0  0  0  0  0  0
    6.3779    0.8565    0.5312 H   0  0  0  0  0  0  0  0  0  0  0  0
    8.1674    2.3275   -0.8156 H   0  0  0  0  0  0  0  0  0  0  0  0
   10.4564    2.3210    0.5878 H   0  0  0  0  0  0  0  0  0  0  0  0
   10.0421    0.9421    2.8450 H   0  0  0  0  0  0  0  0  0  0  0  0
    6.4697    0.4284    3.6176 H   0  0  0  0  0  0  0  0  0  0  0  0
    6.9036   -1.0484    2.7394 H   0  0  0  0  0  0  0  0  0  0  0  0
    8.0174   -0.3686    3.9400 H   0  0  0  0  0  0  0  0  0  0  0  0
    8.2723    5.7275    4.2235 H   0  0  0  0  0  0  0  0  0  0  0  0
    6.2118    6.0751    2.5427 H   0  0  0  0  0  0  0  0  0  0  0  0
    7.0447    5.4527    0.0731 H   0  0  0  0  0  0  0  0  0  0  0  0
    9.6328    4.7929    0.2157 H   0  0  0  0  0  0  0  0  0  0  0  0
   11.2031    5.7191    3.3260 H   0  0  0  0  0  0  0  0  0  0  0  0
   10.7252    4.0878    3.8029 H   0  0  0  0  0  0  0  0  0  0  0  0
   11.4187    4.3840    2.1908 H   0  0  0  0  0  0  0  0  0  0  0  0
  1  4  1  0  0  0  0
  3  9  1  0  0  0  0
  3  7  1  0  0  0  0
  3 10  1  0  0  0  0
  5  4  1  0  0  0  0
  6  5  2  0  0  0  0
  6 23  1  0  0  0  0
  7  6  1  0  0  0  0
  8  3  1  0  0  0  0
  9 28  1  0  0  0  0
 10 32  1  0  0  0  0
 11 15  1  0  0  0  0
 11 16  1  0  0  0  0
 12 11  2  0  0  0  0
 13 12  1  0  0  0  0
 13 14  2  0  0  0  0
 14 15  1  0  0  0  0
 15 37  1  0  0  0  0
 16 38  1  0  0  0  0
 16 40  1  0  0  0  0
 17 22  1  0  0  0  0
 17 18  1  0  0  0  0
 18 41  1  0  0  0  0
 19 42  1  0  0  0  0
 19 18  1  0  0  0  0
 20 21  1  0  0  0  0
 20 19  2  0  0  0  0
 21 17  2  0  0  0  0
 22 45  1  0  0  0  0
 22 46  1  0  0  0  0
 24  7  1  0  0  0  0
 25  8  1  0  0  0  0
 26  8  1  0  0  0  0
 27  8  1  0  0  0  0
 29  9  1  0  0  0  0
 30  9  1  0  0  0  0
 31 10  1  0  0  0  0
 33 10  1  0  0  0  0
 34 12  1  0  0  0  0
 35 13  1  0  0  0  0
 36 14  1  0  0  0  0
 39 16  1  0  0  0  0
 43 20  1  0  0  0  0
 44 21  1  0  0  0  0
 47 22  1  0  0  0  0
M  END
$$$$
