CSD_code = KAYHAU | q = 0 | S = 0 | Stoichiometry = C31H30Cl2O2P2Pt | MND = 4
 OpenBabel04212202053D

 68 74  0  0  1  0  0  0  0  0999 V2000
    1.5709    6.5732    3.4624 Pt  0  0  0  0  0  0  0  0  0  0  0  0
    1.9961    4.6392    2.2859 Cl  0  0  0  0  0  0  0  0  0  0  0  0
    3.5878    7.5329    2.9011 Cl  0  0  0  0  0  0  0  0  0  0  0  0
   -0.2937    5.6023    4.3191 P   0  0  0  0  0  4  0  0  0  0  0  0
    1.4362    8.5064    4.6351 P   0  0  0  0  0  4  0  0  0  0  0  0
   -1.6325    6.4638    4.6118 O   0  0  0  0  0  0  0  0  0  0  0  0
    0.0392    8.7063    5.4441 O   0  0  0  0  0  0  0  0  0  0  0  0
   -3.0937    9.1745    4.6310 C   0  0  2  0  0  0  0  0  0  0  0  0
   -3.8784    9.9265    4.5759 H   0  0  0  0  0  0  0  0  0  0  0  0
   -3.5777    7.7966    4.1855 C   0  0  0  0  0  0  0  0  0  0  0  0
   -3.9694    7.2109    5.0151 H   0  0  0  0  0  0  0  0  0  0  0  0
   -4.3539    7.8922    3.4265 H   0  0  0  0  0  0  0  0  0  0  0  0
   -2.3501    7.1163    3.5666 C   0  0  1  0  0  0  0  0  0  0  0  0
   -2.6354    6.3682    2.8166 H   0  0  0  0  0  0  0  0  0  0  0  0
   -1.5567    8.2671    2.9408 C   0  0  0  0  0  0  0  0  0  0  0  0
   -0.4957    8.0090    2.8479 H   0  0  0  0  0  0  0  0  0  0  0  0
   -1.9488    8.4673    1.9432 H   0  0  0  0  0  0  0  0  0  0  0  0
   -1.8026    9.4765    3.8333 C   0  0  2  0  0  0  0  0  0  0  0  0
   -1.7786   10.4045    3.2627 H   0  0  0  0  0  0  0  0  0  0  0  0
   -1.0227    9.5887    5.1688 C   0  0  1  0  0  0  0  0  0  0  0  0
   -0.6985   10.6192    5.3522 H   0  0  0  0  0  0  0  0  0  0  0  0
   -2.2904    9.1971    5.9424 C   0  0  0  0  0  0  0  0  0  0  0  0
   -2.6167    9.9193    6.6863 H   0  0  0  0  0  0  0  0  0  0  0  0
   -2.1865    8.2177    6.4008 H   0  0  0  0  0  0  0  0  0  0  0  0
   -0.9789    4.0890    3.5658 C   0  0  0  0  0  0  0  0  0  0  0  0
   -1.3590    2.9920    4.3255 C   0  0  0  0  0  0  0  0  0  0  0  0
   -1.2068    2.9985    5.3959 H   0  0  0  0  0  0  0  0  0  0  0  0
   -1.9187    1.8896    3.7034 C   0  0  0  0  0  0  0  0  0  0  0  0
   -2.2067    1.0300    4.2909 H   0  0  0  0  0  0  0  0  0  0  0  0
   -2.1031    1.8839    2.3306 C   0  0  0  0  0  0  0  0  0  0  0  0
   -2.5343    1.0186    1.8491 H   0  0  0  0  0  0  0  0  0  0  0  0
   -1.7246    2.9800    1.5720 C   0  0  0  0  0  0  0  0  0  0  0  0
   -1.8583    2.9696    0.5005 H   0  0  0  0  0  0  0  0  0  0  0  0
   -1.1602    4.0818    2.1878 C   0  0  0  0  0  0  0  0  0  0  0  0
   -0.8229    4.9284    1.6039 H   0  0  0  0  0  0  0  0  0  0  0  0
    0.1333    5.1829    6.0237 C   0  0  0  0  0  0  0  0  0  0  0  0
   -0.7683    5.2209    7.0795 C   0  0  0  0  0  0  0  0  0  0  0  0
   -1.8007    5.4736    6.8904 H   0  0  0  0  0  0  0  0  0  0  0  0
   -0.3321    4.9430    8.3634 C   0  0  0  0  0  0  0  0  0  0  0  0
   -1.0303    4.9764    9.1875 H   0  0  0  0  0  0  0  0  0  0  0  0
    0.9963    4.6232    8.5949 C   0  0  0  0  0  0  0  0  0  0  0  0
    1.3303    4.4089    9.5995 H   0  0  0  0  0  0  0  0  0  0  0  0
    1.8972    4.5806    7.5421 C   0  0  0  0  0  0  0  0  0  0  0  0
    2.9329    4.3368    7.7238 H   0  0  0  0  0  0  0  0  0  0  0  0
    1.4676    4.8643    6.2592 C   0  0  0  0  0  0  0  0  0  0  0  0
    2.1634    4.8440    5.4241 H   0  0  0  0  0  0  0  0  0  0  0  0
    2.5927    8.5390    6.0340 C   0  0  0  0  0  0  0  0  0  0  0  0
    3.9035    8.9723    5.8683 C   0  0  0  0  0  0  0  0  0  0  0  0
    4.2247    9.3456    4.9074 H   0  0  0  0  0  0  0  0  0  0  0  0
    4.7868    8.9058    6.9304 C   0  0  0  0  0  0  0  0  0  0  0  0
    5.8047    9.2431    6.8023 H   0  0  0  0  0  0  0  0  0  0  0  0
    4.3719    8.4018    8.1529 C   0  0  0  0  0  0  0  0  0  0  0  0
    5.0675    8.3460    8.9775 H   0  0  0  0  0  0  0  0  0  0  0  0
    3.0674    7.9651    8.3169 C   0  0  0  0  0  0  0  0  0  0  0  0
    2.7429    7.5672    9.2675 H   0  0  0  0  0  0  0  0  0  0  0  0
    2.1782    8.0293    7.2598 C   0  0  0  0  0  0  0  0  0  0  0  0
    1.1594    7.6895    7.3758 H   0  0  0  0  0  0  0  0  0  0  0  0
    1.6735   10.1014    3.7959 C   0  0  0  0  0  0  0  0  0  0  0  0
    1.6331   10.1760    2.4113 C   0  0  0  0  0  0  0  0  0  0  0  0
    1.5380    9.2661    1.8325 H   0  0  0  0  0  0  0  0  0  0  0  0
    1.7551   11.4037    1.7851 C   0  0  0  0  0  0  0  0  0  0  0  0
    1.7365   11.4631    0.7072 H   0  0  0  0  0  0  0  0  0  0  0  0
    1.9075   12.5547    2.5410 C   0  0  0  0  0  0  0  0  0  0  0  0
    2.0054   13.5126    2.0517 H   0  0  0  0  0  0  0  0  0  0  0  0
    1.9431   12.4813    3.9248 C   0  0  0  0  0  0  0  0  0  0  0  0
    2.0680   13.3798    4.5115 H   0  0  0  0  0  0  0  0  0  0  0  0
    1.8261   11.2559    4.5554 C   0  0  0  0  0  0  0  0  0  0  0  0
    1.8658   11.1846    5.6348 H   0  0  0  0  0  0  0  0  0  0  0  0
  1  4  1  0  0  0  0
  1  5  1  0  0  0  0
  2  1  1  0  0  0  0
  3  1  1  0  0  0  0
  4  6  1  0  0  0  0
  4 36  1  0  0  0  0
  5  7  1  0  0  0  0
  5 47  1  0  0  0  0
  8  9  1  6  0  0  0
  8 22  1  0  0  0  0
 10  8  1  0  0  0  0
 10 11  1  0  0  0  0
 12 10  1  0  0  0  0
 13 14  1  6  0  0  0
 13 10  1  0  0  0  0
 13  6  1  0  0  0  0
 15 13  1  0  0  0  0
 15 18  1  0  0  0  0
 16 15  1  0  0  0  0
 17 15  1  0  0  0  0
 18 19  1  6  0  0  0
 18  8  1  0  0  0  0
 18 20  1  0  0  0  0
 20 21  1  1  0  0  0
 20  7  1  0  0  0  0
 20 22  1  0  0  0  0
 22 24  1  0  0  0  0
 22 23  1  0  0  0  0
 25  4  1  0  0  0  0
 25 26  1  0  0  0  0
 26 27  1  0  0  0  0
 28 29  1  0  0  0  0
 28 26  2  0  0  0  0
 30 28  1  0  0  0  0
 31 30  1  0  0  0  0
 32 34  1  0  0  0  0
 32 30  2  0  0  0  0
 33 32  1  0  0  0  0
 34 25  2  0  0  0  0
 35 34  1  0  0  0  0
 36 45  2  0  0  0  0
 36 37  1  0  0  0  0
 37 39  2  0  0  0  0
 38 37  1  0  0  0  0
 39 41  1  0  0  0  0
 39 40  1  0  0  0  0
 41 42  1  0  0  0  0
 43 44  1  0  0  0  0
 43 41  2  0  0  0  0
 45 43  1  0  0  0  0
 46 45  1  0  0  0  0
 47 56  1  0  0  0  0
 48 47  2  0  0  0  0
 48 50  1  0  0  0  0
 49 48  1  0  0  0  0
 50 52  2  0  0  0  0
 51 50  1  0  0  0  0
 52 54  1  0  0  0  0
 52 53  1  0  0  0  0
 54 55  1  0  0  0  0
 56 57  1  0  0  0  0
 56 54  2  0  0  0  0
 58 67  1  0  0  0  0
 58  5  1  0  0  0  0
 59 58  2  0  0  0  0
 60 59  1  0  0  0  0
 61 59  1  0  0  0  0
 61 63  2  0  0  0  0
 62 61  1  0  0  0  0
 63 65  1  0  0  0  0
 64 63  1  0  0  0  0
 65 66  1  0  0  0  0
 65 67  2  0  0  0  0
 67 68  1  0  0  0  0
M  END
$$$$
