CSD_code = KAYZAN | q = 1 | S = 0 | Stoichiometry = C18H36ClN6Zn(1+) | MND = 5
 OpenBabel04212202053D

 62 68  0  0  1  0  0  0  0  0999 V2000
   -2.0281    3.7363   11.7583 Zn  0  0  0  0  0  0  0  0  0  0  0  0
   -0.1607    4.7022   11.2011 Cl  0  0  0  0  0  0  0  0  0  0  0  0
   -2.1489    2.0531   10.3362 N   0  0  2  0  0  4  0  0  0  0  0  0
   -1.3537    2.2715    9.1153 C   0  0  0  0  0  0  0  0  0  0  0  0
   -1.3870    1.3649    8.4958 H   0  0  0  0  0  0  0  0  0  0  0  0
   -0.3183    2.4629    9.4016 H   0  0  0  0  0  0  0  0  0  0  0  0
   -1.8843    3.4597    8.3214 C   0  0  0  0  0  0  0  0  0  0  0  0
   -1.3401    3.5268    7.3795 H   0  0  0  0  0  0  0  0  0  0  0  0
   -1.6877    4.3744    8.8816 H   0  0  0  0  0  0  0  0  0  0  0  0
   -3.3797    3.2885    8.0446 C   0  0  0  0  0  0  0  0  0  0  0  0
   -3.8078    4.1975    7.6219 H   0  0  0  0  0  0  0  0  0  0  0  0
   -3.5218    2.4812    7.3184 H   0  0  0  0  0  0  0  0  0  0  0  0
   -4.1227    2.9225    9.2391 N   0  0  1  0  0  0  0  0  0  0  0  0
   -3.5464    1.8041    9.9062 C   0  0  0  0  0  0  0  0  0  0  0  0
   -3.5576    0.9464    9.2147 H   0  0  0  0  0  0  0  0  0  0  0  0
   -4.1561    1.5619   10.7781 H   0  0  0  0  0  0  0  0  0  0  0  0
   -4.6854    3.9556   10.0355 C   0  0  0  0  0  0  0  0  0  0  0  0
   -5.3455    3.4962   10.7791 H   0  0  0  0  0  0  0  0  0  0  0  0
   -5.2920    4.5874    9.3754 H   0  0  0  0  0  0  0  0  0  0  0  0
   -3.7028    4.7885   10.7820 N   0  0  1  0  0  4  0  0  0  0  0  0
   -3.1988    5.3420   10.0871 H   0  0  0  0  0  0  0  0  0  0  0  0
   -4.3285    5.7546   11.7023 C   0  0  2  0  0  0  0  0  0  0  0  0
   -5.0736    5.2130   12.2956 H   0  0  0  0  0  0  0  0  0  0  0  0
   -5.0047    6.9066   10.9497 C   0  0  0  0  0  0  0  0  0  0  0  0
   -4.2691    7.3781   10.2924 H   0  0  0  0  0  0  0  0  0  0  0  0
   -5.8160    6.5214   10.3306 H   0  0  0  0  0  0  0  0  0  0  0  0
   -5.5612    7.9570   11.9066 C   0  0  0  0  0  0  0  0  0  0  0  0
   -6.0133    8.7646   11.3312 H   0  0  0  0  0  0  0  0  0  0  0  0
   -6.3416    7.5116   12.5265 H   0  0  0  0  0  0  0  0  0  0  0  0
   -4.4518    8.5041   12.7954 C   0  0  0  0  0  0  0  0  0  0  0  0
   -4.8562    9.2464   13.4830 H   0  0  0  0  0  0  0  0  0  0  0  0
   -3.6936    8.9937   12.1817 H   0  0  0  0  0  0  0  0  0  0  0  0
   -3.8214    7.3635   13.5883 C   0  0  0  0  0  0  0  0  0  0  0  0
   -4.5884    6.9172   14.2226 H   0  0  0  0  0  0  0  0  0  0  0  0
   -3.0266    7.7505   14.2286 H   0  0  0  0  0  0  0  0  0  0  0  0
   -3.2420    6.3121   12.6375 C   0  0  1  0  0  0  0  0  0  0  0  0
   -2.4905    6.7981   12.0026 H   0  0  0  0  0  0  0  0  0  0  0  0
   -2.5391    5.2073   13.3182 N   0  0  1  0  0  4  0  0  0  0  0  0
   -1.6270    5.5683   13.5923 H   0  0  0  0  0  0  0  0  0  0  0  0
   -3.1781    4.6897   14.5546 C   0  0  0  0  0  0  0  0  0  0  0  0
   -3.1353    5.4406   15.3526 H   0  0  0  0  0  0  0  0  0  0  0  0
   -4.2264    4.4766   14.3272 H   0  0  0  0  0  0  0  0  0  0  0  0
   -2.5870    3.4973   15.0631 N   0  0  2  0  0  0  0  0  0  0  0  0
   -1.2500    3.5740   15.6284 C   0  0  0  0  0  0  0  0  0  0  0  0
   -1.1913    2.8174   16.4183 H   0  0  0  0  0  0  0  0  0  0  0  0
   -1.1141    4.5515   16.0908 H   0  0  0  0  0  0  0  0  0  0  0  0
   -0.1608    3.3007   14.5878 C   0  0  0  0  0  0  0  0  0  0  0  0
   -0.0592    4.1323   13.8906 H   0  0  0  0  0  0  0  0  0  0  0  0
    0.7992    3.1691   15.0867 H   0  0  0  0  0  0  0  0  0  0  0  0
   -0.4904    2.0325   13.8085 C   0  0  0  0  0  0  0  0  0  0  0  0
    0.2390    1.8985   13.0088 H   0  0  0  0  0  0  0  0  0  0  0  0
   -0.4381    1.1649   14.4816 H   0  0  0  0  0  0  0  0  0  0  0  0
   -1.8412    2.1028   13.2224 N   0  0  1  0  0  4  0  0  0  0  0  0
   -2.7977    2.2885   14.3444 C   0  0  0  0  0  0  0  0  0  0  0  0
   -3.8134    2.2840   13.9408 H   0  0  0  0  0  0  0  0  0  0  0  0
   -2.6878    1.4459   15.0454 H   0  0  0  0  0  0  0  0  0  0  0  0
   -2.1491    0.8638   12.5023 C   0  0  0  0  0  0  0  0  0  0  0  0
   -3.2337    0.7366   12.4848 H   0  0  0  0  0  0  0  0  0  0  0  0
   -1.7216   -0.0040   13.0188 H   0  0  0  0  0  0  0  0  0  0  0  0
   -1.6184    0.9039   11.0723 C   0  0  0  0  0  0  0  0  0  0  0  0
   -0.5301    0.9918   11.0919 H   0  0  0  0  0  0  0  0  0  0  0  0
   -1.8758   -0.0355   10.5661 H   0  0  0  0  0  0  0  0  0  0  0  0
  1 53  1  0  0  0  0
  1 38  1  0  0  0  0
  2  1  1  0  0  0  0
  3  4  1  6  0  0  0
  3 60  1  0  0  0  0
  3  1  1  0  0  0  0
  4  6  1  0  0  0  0
  5  4  1  0  0  0  0
  7  9  1  0  0  0  0
  7  4  1  0  0  0  0
  8  7  1  0  0  0  0
 10  7  1  0  0  0  0
 11 10  1  0  0  0  0
 12 10  1  0  0  0  0
 13 10  1  1  0  0  0
 13 14  1  0  0  0  0
 13 17  1  0  0  0  0
 14  3  1  0  0  0  0
 14 16  1  0  0  0  0
 15 14  1  0  0  0  0
 17 18  1  0  0  0  0
 17 20  1  0  0  0  0
 19 17  1  0  0  0  0
 20 21  1  6  0  0  0
 20 22  1  0  0  0  0
 20  1  1  0  0  0  0
 22 23  1  1  0  0  0
 22 36  1  0  0  0  0
 24 22  1  0  0  0  0
 24 27  1  0  0  0  0
 25 24  1  0  0  0  0
 26 24  1  0  0  0  0
 27 29  1  0  0  0  0
 27 30  1  0  0  0  0
 28 27  1  0  0  0  0
 30 31  1  0  0  0  0
 30 33  1  0  0  0  0
 32 30  1  0  0  0  0
 33 34  1  0  0  0  0
 33 35  1  0  0  0  0
 36 37  1  6  0  0  0
 36 38  1  0  0  0  0
 36 33  1  0  0  0  0
 38 39  1  1  0  0  0
 38 40  1  0  0  0  0
 40 43  1  0  0  0  0
 40 41  1  0  0  0  0
 42 40  1  0  0  0  0
 43 54  1  6  0  0  0
 43 44  1  0  0  0  0
 44 46  1  0  0  0  0
 44 45  1  0  0  0  0
 47 49  1  0  0  0  0
 47 44  1  0  0  0  0
 48 47  1  0  0  0  0
 50 52  1  0  0  0  0
 50 47  1  0  0  0  0
 51 50  1  0  0  0  0
 53 57  1  6  0  0  0
 53 50  1  0  0  0  0
 53 54  1  0  0  0  0
 54 56  1  0  0  0  0
 55 54  1  0  0  0  0
 57 59  1  0  0  0  0
 58 57  1  0  0  0  0
 60 61  1  0  0  0  0
 60 57  1  0  0  0  0
 62 60  1  0  0  0  0
M  END
$$$$
