CSD_code = KAZDOE | q = 0 | S = 0 | Stoichiometry = C12H24Br3ReS3 | MND = 6
 OpenBabel04212202053D

 43 45  0  0  0  0  0  0  0  0999 V2000
    4.6569    7.0304    6.0720 Re  0  0  0  0  0  0  0  0  0  0  0  0
    5.3415    7.9545    3.8960 Br  0  0  0  0  0  0  0  0  0  0  0  0
    6.4743    5.3421    6.1378 Br  0  0  0  0  0  0  0  0  0  0  0  0
    3.7832    6.2793    8.2422 Br  0  0  0  0  0  0  0  0  0  0  0  0
    2.8568    8.7183    6.0418 S   0  0  0  0  0  3  0  0  0  0  0  0
    6.1251    8.6264    7.2412 S   0  0  0  0  0  3  0  0  0  0  0  0
    3.1644    5.4178    4.9568 S   0  0  0  0  0  3  0  0  0  0  0  0
    2.7945    9.6263    7.6362 C   0  0  0  0  0  0  0  0  0  0  0  0
    1.5369    9.1714    8.3599 C   0  0  0  0  0  0  0  0  0  0  0  0
    0.5068    8.8511    7.2842 C   0  0  0  0  0  0  0  0  0  0  0  0
    1.2201    7.9441    6.3000 C   0  0  0  0  0  0  0  0  0  0  0  0
    7.8608    8.3779    6.7308 C   0  0  0  0  0  0  0  0  0  0  0  0
    8.4100    9.7748    6.5219 C   0  0  0  0  0  0  0  0  0  0  0  0
    7.3393   10.5084    5.7230 C   0  0  0  0  0  0  0  0  0  0  0  0
    6.0272   10.2868    6.4590 C   0  0  0  0  0  0  0  0  0  0  0  0
    2.3503    6.1792    3.4961 C   0  0  0  0  0  0  0  0  0  0  0  0
    2.9871    5.5627    2.2605 C   0  0  0  0  0  0  0  0  0  0  0  0
    3.3615    4.1344    2.6376 C   0  0  0  0  0  0  0  0  0  0  0  0
    4.1370    4.2587    3.9334 C   0  0  0  0  0  0  0  0  0  0  0  0
    2.7598   10.6846    7.3758 H   0  0  0  0  0  0  0  0  0  0  0  0
    3.6993    9.4161    8.2033 H   0  0  0  0  0  0  0  0  0  0  0  0
    1.1883    9.9476    9.0404 H   0  0  0  0  0  0  0  0  0  0  0  0
    1.7526    8.2710    8.9371 H   0  0  0  0  0  0  0  0  0  0  0  0
    0.1836    9.7674    6.7842 H   0  0  0  0  0  0  0  0  0  0  0  0
   -0.3682    8.3522    7.6995 H   0  0  0  0  0  0  0  0  0  0  0  0
    1.3720    6.9467    6.7141 H   0  0  0  0  0  0  0  0  0  0  0  0
    0.7239    7.8782    5.3342 H   0  0  0  0  0  0  0  0  0  0  0  0
    7.8727    7.8052    5.8043 H   0  0  0  0  0  0  0  0  0  0  0  0
    8.3567    7.8120    7.5155 H   0  0  0  0  0  0  0  0  0  0  0  0
    9.3581    9.7357    5.9868 H   0  0  0  0  0  0  0  0  0  0  0  0
    8.5698   10.2689    7.4829 H   0  0  0  0  0  0  0  0  0  0  0  0
    7.2754   10.0814    4.7209 H   0  0  0  0  0  0  0  0  0  0  0  0
    7.5515   11.5735    5.6335 H   0  0  0  0  0  0  0  0  0  0  0  0
    5.8944   10.9942    7.2781 H   0  0  0  0  0  0  0  0  0  0  0  0
    5.1621   10.3275    5.7996 H   0  0  0  0  0  0  0  0  0  0  0  0
    2.4703    7.2602    3.5345 H   0  0  0  0  0  0  0  0  0  0  0  0
    1.2936    5.9233    3.5798 H   0  0  0  0  0  0  0  0  0  0  0  0
    3.8877    6.1190    1.9955 H   0  0  0  0  0  0  0  0  0  0  0  0
    2.2970    5.5977    1.4177 H   0  0  0  0  0  0  0  0  0  0  0  0
    3.9738    3.6609    1.8709 H   0  0  0  0  0  0  0  0  0  0  0  0
    2.4613    3.5343    2.7877 H   0  0  0  0  0  0  0  0  0  0  0  0
    4.2348    3.3304    4.4909 H   0  0  0  0  0  0  0  0  0  0  0  0
    5.1235    4.6881    3.7635 H   0  0  0  0  0  0  0  0  0  0  0  0
  1  3  1  0  0  0  0
  1  6  1  0  0  0  0
  1  4  1  0  0  0  0
  2  1  1  0  0  0  0
  5  1  1  0  0  0  0
  5 11  1  0  0  0  0
  5  8  1  0  0  0  0
  7  1  1  0  0  0  0
  8 21  1  0  0  0  0
  8  9  1  0  0  0  0
  9 23  1  0  0  0  0
  9 22  1  0  0  0  0
 10 25  1  0  0  0  0
 10  9  1  0  0  0  0
 11 26  1  0  0  0  0
 11 10  1  0  0  0  0
 12  6  1  0  0  0  0
 12 29  1  0  0  0  0
 13 12  1  0  0  0  0
 13 31  1  0  0  0  0
 14 15  1  0  0  0  0
 14 13  1  0  0  0  0
 15  6  1  0  0  0  0
 15 34  1  0  0  0  0
 16 36  1  0  0  0  0
 16 37  1  0  0  0  0
 16  7  1  0  0  0  0
 17 18  1  0  0  0  0
 17 16  1  0  0  0  0
 18 41  1  0  0  0  0
 18 19  1  0  0  0  0
 19 42  1  0  0  0  0
 19  7  1  0  0  0  0
 20  8  1  0  0  0  0
 24 10  1  0  0  0  0
 27 11  1  0  0  0  0
 28 12  1  0  0  0  0
 30 13  1  0  0  0  0
 32 14  1  0  0  0  0
 33 14  1  0  0  0  0
 35 15  1  0  0  0  0
 38 17  1  0  0  0  0
 39 17  1  0  0  0  0
 40 18  1  0  0  0  0
 43 19  1  0  0  0  0
M  END
$$$$
