CSD_code = KAZKUT | q = 0 | S = 0 | Stoichiometry = C14H14Cl2FN5Zn | MND = 4
 OpenBabel04212202053D

 37 40  0  0  1  0  0  0  0  0999 V2000
    1.8394   15.9093    9.2924 Zn  0  0  0  0  0  0  0  0  0  0  0  0
    1.9073   15.4073   11.4815 Cl  0  0  0  0  0  0  0  0  0  0  0  0
    1.8266   17.8083    8.2541 Cl  0  0  0  0  0  0  0  0  0  0  0  0
    3.1402   14.6169    8.2886 N   0  0  1  0  0  0  0  0  0  0  0  0
    3.3097   13.3167    8.5347 N   0  0  0  0  0  0  0  0  0  0  0  0
    3.7472   14.8810    7.1434 C   0  0  0  0  0  3  0  0  0  0  0  0
    3.7424   15.8765    6.7458 H   0  0  0  0  0  0  0  0  0  0  0  0
    4.3273   13.7202    6.6318 C   0  0  0  0  0  0  0  0  0  0  0  0
    4.8886   13.6145    5.7273 H   0  0  0  0  0  0  0  0  0  0  0  0
    4.0217   12.7414    7.5510 C   0  0  0  0  0  0  0  0  0  0  0  0
    4.2636   11.6984    7.5608 H   0  0  0  0  0  0  0  0  0  0  0  0
    0.1159   14.8502    8.6687 N   0  0  1  0  0  0  0  0  0  0  0  0
   -0.4323   13.7368    9.1595 N   0  0  0  0  0  0  0  0  0  0  0  0
   -0.8146   15.4546    7.9453 C   0  0  0  0  0  3  0  0  0  0  0  0
   -0.5931   16.3744    7.4406 H   0  0  0  0  0  0  0  0  0  0  0  0
   -2.0015   14.7236    7.9788 C   0  0  0  0  0  0  0  0  0  0  0  0
   -2.9294   14.9599    7.5019 H   0  0  0  0  0  0  0  0  0  0  0  0
   -1.7165   13.6352    8.7718 C   0  0  0  0  0  0  0  0  0  0  0  0
   -2.3442   12.8265    9.0907 H   0  0  0  0  0  0  0  0  0  0  0  0
    2.7363   12.6896    9.7084 C   0  0  0  0  0  0  0  0  0  0  0  0
    3.4245   11.9055   10.0367 H   0  0  0  0  0  0  0  0  0  0  0  0
    2.6700   13.4545   10.4904 H   0  0  0  0  0  0  0  0  0  0  0  0
    0.2893   12.8291   10.0404 C   0  0  0  0  0  0  0  0  0  0  0  0
    0.6422   13.4214   10.8950 H   0  0  0  0  0  0  0  0  0  0  0  0
   -0.4392   12.0848   10.3792 H   0  0  0  0  0  0  0  0  0  0  0  0
    1.4206   12.1654    9.4587 N   0  0  0  0  0  0  0  0  0  0  0  0
    1.2514   11.0121    8.6863 C   0  0  0  0  0  0  0  0  0  0  0  0
    2.2447   10.0311    8.6075 C   0  0  0  0  0  0  0  0  0  0  0  0
    3.1682   10.1322    9.1534 H   0  0  0  0  0  0  0  0  0  0  0  0
    2.0632    8.8857    7.8575 C   0  0  0  0  0  0  0  0  0  0  0  0
    2.8321    8.1313    7.8057 H   0  0  0  0  0  0  0  0  0  0  0  0
    0.8750    8.7039    7.1753 C   0  0  0  0  0  0  0  0  0  0  0  0
    0.6962    7.5873    6.4404 F   0  0  0  0  0  0  0  0  0  0  0  0
   -0.1301    9.6493    7.2348 C   0  0  0  0  0  0  0  0  0  0  0  0
   -1.0493    9.4921    6.6934 H   0  0  0  0  0  0  0  0  0  0  0  0
    0.0641   10.7948    7.9828 C   0  0  0  0  0  0  0  0  0  0  0  0
   -0.7198   11.5315    7.9961 H   0  0  0  0  0  0  0  0  0  0  0  0
  1  2  1  0  0  0  0
  3  1  1  0  0  0  0
  4  6  1  6  0  0  0
  4  5  1  0  0  0  0
  4  1  1  0  0  0  0
  5 20  1  0  0  0  0
  7  6  1  0  0  0  0
  8  6  1  0  0  0  0
  8 10  2  0  0  0  0
  9  8  1  0  0  0  0
 10 11  1  0  0  0  0
 10  5  1  0  0  0  0
 12 14  1  1  0  0  0
 12 13  1  0  0  0  0
 12  1  1  0  0  0  0
 13 23  1  0  0  0  0
 14 16  1  0  0  0  0
 15 14  1  0  0  0  0
 16 18  2  0  0  0  0
 17 16  1  0  0  0  0
 18 19  1  0  0  0  0
 18 13  1  0  0  0  0
 20 21  1  0  0  0  0
 20 22  1  0  0  0  0
 23 25  1  0  0  0  0
 23 24  1  0  0  0  0
 26 20  1  0  0  0  0
 26 23  1  0  0  0  0
 27 26  1  0  0  0  0
 28 27  1  0  0  0  0
 28 29  1  0  0  0  0
 30 28  2  0  0  0  0
 31 30  1  0  0  0  0
 32 34  2  0  0  0  0
 32 30  1  0  0  0  0
 33 32  1  0  0  0  0
 34 36  1  0  0  0  0
 35 34  1  0  0  0  0
 36 37  1  0  0  0  0
 36 27  2  0  0  0  0
M  END
$$$$
