CSD_code = KCEYPT | q = -1 | S = 0 | Stoichiometry = C2H4Cl3Pt(1-) | MND = 5
 OpenBabel04212202053D

 10  6  0  0  0  0  0  0  0  0999 V2000
    2.6952    1.8357    1.0346 Pt  0  0  0  0  0  0  0  0  0  0  0  0
    5.0169    1.8554    1.0271 Cl  0  0  0  0  0 15  0  0  0  0  0  0
    2.6954    3.9277    0.2423 Cl  0  0  0  0  0 15  0  0  0  0  0  0
    2.6953    0.1922    2.3988 C   0  0  0  0  0  0  0  0  0  0  0  0
    2.6953   -0.2992    1.1012 C   0  0  0  0  0  3  0  0  0  0  0  0
    3.6155    0.1952    2.9741 H   0  0  0  0  0  0  0  0  0  0  0  0
    1.7751   -0.6780    0.6683 H   0  0  0  0  0  0  0  0  0  0  0  0
    0.3736    1.8553    1.0271 Cl  0  0  0  0  0 15  0  0  0  0  0  0
    1.7751    0.1953    2.9741 H   0  0  0  0  0  0  0  0  0  0  0  0
    3.6155   -0.6780    0.6683 H   0  0  0  0  0  0  0  0  0  0  0  0
  1  4  1  0  0  0  0
  4  9  1  0  0  0  0
  4  6  1  0  0  0  0
  5  4  1  0  0  0  0
  7  5  1  0  0  0  0
 10  5  1  0  0  0  0
M  END
$$$$
