CSD_code = KCHEIR | q = -1 | S = 0 | Stoichiometry = C10H12Cl2IrN2O8(1-) | MND = 6
 OpenBabel04212202053D

 35 37  0  0  1  0  0  0  0  0999 V2000
    1.8682    0.6237    3.3244 Ir  0  0  0  0  0  0  0  0  0  0  0  0
    0.0176    0.0137    4.5181 Cl  0  0  0  0  0  0  0  0  0  0  0  0
    1.0421    0.1053    1.2464 Cl  0  0  0  0  0  0  0  0  0  0  0  0
    3.9050    0.9344    2.4630 N   0  0  2  0  0  4  0  0  0  0  0  0
    2.7873    1.5102    5.1584 N   0  0  2  0  0  4  0  0  0  0  0  0
    4.7316    1.1922    3.6482 C   0  0  0  0  0  0  0  0  0  0  0  0
    4.0332    2.0994    4.6557 C   0  0  0  0  0  0  0  0  0  0  0  0
    3.8192    2.0059    1.5594 C   0  0  0  0  0  0  0  0  0  0  0  0
    5.3454    2.4007    0.7944 C   0  0  0  0  0  0  0  0  0  0  0  0
    5.1350    3.2274   -0.0452 O   0  0  0  0  0  0  0  0  0  0  0  0
    6.2571    1.7782    1.2762 O   0  0  0  0  0  1  0  0  0  0  0  0
    4.2384   -0.3470    1.8649 C   0  0  0  0  0  0  0  0  0  0  0  0
    3.7398   -1.5170    2.7889 C   0  0  0  0  0  0  0  0  0  0  0  0
    2.6791   -1.2430    3.4342 O   0  0  0  0  0  0  0  0  0  0  0  0
    4.3735   -2.5440    2.8480 O   0  0  0  0  0  0  0  0  0  0  0  0
    2.9658    0.4907    6.1151 C   0  0  0  0  0  0  0  0  0  0  0  0
    3.6304    1.0894    7.5989 C   0  0  0  0  0  0  0  0  0  0  0  0
    4.6131    1.7669    7.4050 O   0  0  0  0  0  0  0  0  0  0  0  0
    2.9760    0.6895    8.5205 O   0  0  0  0  0  1  0  0  0  0  0  0
    1.8360    2.5422    5.5531 C   0  0  0  0  0  0  0  0  0  0  0  0
    1.2773    3.2775    4.2857 C   0  0  0  0  0  0  0  0  0  0  0  0
    1.1712    2.5341    3.2574 O   0  0  0  0  0  0  0  0  0  0  0  0
    1.0156    4.4564    4.3448 O   0  0  0  0  0  0  0  0  0  0  0  0
    5.6750    1.6493    3.3275 H   0  0  0  0  0  0  0  0  0  0  0  0
    4.9686    0.2325    4.1131 H   0  0  0  0  0  0  0  0  0  0  0  0
    3.5378    2.9503    2.0178 H   0  0  0  0  0  0  0  0  0  0  0  0
    3.1795    1.7839    0.7092 H   0  0  0  0  0  0  0  0  0  0  0  0
    5.3193   -0.4374    1.7210 H   0  0  0  0  0  0  0  0  0  0  0  0
    3.7248   -0.4526    0.9064 H   0  0  0  0  0  0  0  0  0  0  0  0
    3.6830   -0.2683    5.8100 H   0  0  0  0  0  0  0  0  0  0  0  0
    2.0234    0.0388    6.4133 H   0  0  0  0  0  0  0  0  0  0  0  0
    2.3048    3.2792    6.2125 H   0  0  0  0  0  0  0  0  0  0  0  0
    0.9871    2.0820    6.0645 H   0  0  0  0  0  0  0  0  0  0  0  0
    4.7036    2.2667    5.5113 H   0  0  0  0  0  0  0  0  0  0  0  0
    3.8004    3.0653    4.2019 H   0  0  0  0  0  0  0  0  0  0  0  0
  1 14  1  0  0  0  0
  1  2  1  0  0  0  0
  1  5  1  0  0  0  0
  3  1  1  0  0  0  0
  4  8  1  6  0  0  0
  4  1  1  0  0  0  0
  4  6  1  0  0  0  0
  5 20  1  0  0  0  0
  5 16  1  1  0  0  0
  6 25  1  0  0  0  0
  6  7  1  0  0  0  0
  7  5  1  0  0  0  0
  7 34  1  0  0  0  0
  8 26  1  0  0  0  0
  9 11  1  0  0  0  0
  9  8  1  0  0  0  0
 10  9  2  0  0  0  0
 12  4  1  0  0  0  0
 12 13  1  0  0  0  0
 13 15  2  0  0  0  0
 13 14  1  0  0  0  0
 16 31  1  0  0  0  0
 16 17  1  0  0  0  0
 17 19  1  0  0  0  0
 18 17  2  0  0  0  0
 20 33  1  0  0  0  0
 20 32  1  0  0  0  0
 21 23  2  0  0  0  0
 21 20  1  0  0  0  0
 22  1  1  0  0  0  0
 22 21  1  0  0  0  0
 24  6  1  0  0  0  0
 27  8  1  0  0  0  0
 28 12  1  0  0  0  0
 29 12  1  0  0  0  0
 30 16  1  0  0  0  0
 35  7  1  0  0  0  0
M  END
$$$$
