CSD_code = KEBXEV | q = 0 | S = 0 | Stoichiometry = C9H13Cl2NPtSe | MND = 4
 OpenBabel04212202053D

 27 27  0  0  0  0  0  0  0  0999 V2000
    5.1280    1.0810    4.0611 Pt  0  0  0  0  0  0  0  0  0  0  0  0
    6.6329    1.2542    5.9339 Se  0  0  0  0  0  0  0  0  0  0  0  0
    3.6732    1.2084    2.3332 Cl  0  0  0  0  0  0  0  0  0  0  0  0
    6.5912   -0.1758    2.9172 Cl  0  0  0  0  0  0  0  0  0  0  0  0
    5.5111    2.5976    6.8768 C   0  0  0  0  0  0  0  0  0  0  0  0
    4.9628    2.0349    7.6363 H   0  0  0  0  0  0  0  0  0  0  0  0
    6.1777    3.3044    7.3739 H   0  0  0  0  0  0  0  0  0  0  0  0
    9.0786    5.3712    7.1778 C   0  0  0  0  0  0  0  0  0  0  0  0
    8.8570    6.4191    7.3154 H   0  0  0  0  0  0  0  0  0  0  0  0
    4.5467    3.3133    5.9360 C   0  0  0  0  0  0  0  0  0  0  0  0
    3.8809    3.9569    6.5290 H   0  0  0  0  0  0  0  0  0  0  0  0
    5.1065    3.9521    5.2465 H   0  0  0  0  0  0  0  0  0  0  0  0
    7.9034    2.4898    5.0386 C   0  0  0  0  0  0  0  0  0  0  0  0
    8.5482    1.8162    4.4699 H   0  0  0  0  0  0  0  0  0  0  0  0
    7.3341    3.1086    4.3408 H   0  0  0  0  0  0  0  0  0  0  0  0
    8.3788    4.6390    6.2339 C   0  0  0  0  0  0  0  0  0  0  0  0
    7.6221    5.1233    5.6320 H   0  0  0  0  0  0  0  0  0  0  0  0
    8.6584    3.2913    6.0388 C   0  0  0  0  0  0  0  0  0  0  0  0
   10.3389    3.4173    7.7593 C   0  0  0  0  0  0  0  0  0  0  0  0
   11.1030    2.9390    8.3533 H   0  0  0  0  0  0  0  0  0  0  0  0
   10.0587    4.7625    7.9419 C   0  0  0  0  0  0  0  0  0  0  0  0
   10.6040    5.3341    8.6775 H   0  0  0  0  0  0  0  0  0  0  0  0
    3.7910    2.3456    5.1414 N   0  0  0  0  0  4  0  0  0  0  0  0
    3.2247    2.7880    4.4146 H   0  0  0  0  0  0  0  0  0  0  0  0
    3.1695    1.7888    5.7276 H   0  0  0  0  0  0  0  0  0  0  0  0
    9.6416    2.6866    6.8167 C   0  0  0  0  0  0  0  0  0  0  0  0
    9.8519    1.6359    6.6723 H   0  0  0  0  0  0  0  0  0  0  0  0
  1 23  1  0  0  0  0
  2  5  1  0  0  0  0
  3  1  1  0  0  0  0
  4  1  1  0  0  0  0
  5  7  1  0  0  0  0
  5  6  1  0  0  0  0
  8  9  1  0  0  0  0
  8 21  1  0  0  0  0
 10 11  1  0  0  0  0
 10  5  1  0  0  0  0
 12 10  1  0  0  0  0
 13  2  1  0  0  0  0
 13 18  1  0  0  0  0
 14 13  1  0  0  0  0
 15 13  1  0  0  0  0
 16  8  2  0  0  0  0
 17 16  1  0  0  0  0
 18 16  1  0  0  0  0
 18 26  2  0  0  0  0
 19 21  2  0  0  0  0
 19 20  1  0  0  0  0
 21 22  1  0  0  0  0
 23 25  1  0  0  0  0
 23 10  1  0  0  0  0
 24 23  1  0  0  0  0
 26 19  1  0  0  0  0
 27 26  1  0  0  0  0
M  END
$$$$
