CSD_code = KECNIR | q = 0 | S = 0 | Stoichiometry = C21H28ClIrN2O2 | MND = 4
 OpenBabel04212202053D

 55 57  0  0  1  0  0  0  0  0999 V2000
    6.6358    1.9911    8.8675 Ir  0  0  0  0  0  0  0  0  0  0  0  0
    8.3695    1.2192    6.5359 O   0  0  0  0  0  1  0  0  0  0  0  0
    8.3344    1.2226   11.2366 O   0  0  0  0  0  1  0  0  0  0  0  0
    4.8179    3.9255    7.4251 N   0  0  0  0  0  0  0  0  0  0  0  0
    4.2200    1.7506    7.1439 N   0  0  0  0  0  0  0  0  0  0  0  0
    5.2708    2.4324   10.6122 Cl  0  0  0  0  0  0  0  0  0  0  0  0
    5.1188    2.6501    7.6511 C   0  0  0  0  0  0  0  0  0  0  0  0
    4.0023    4.3831    6.2994 C   0  0  0  0  0  0  0  0  0  0  0  0
    4.6824    4.8586    5.5834 H   0  0  0  0  0  0  0  0  0  0  0  0
    3.3161    5.1529    6.6618 H   0  0  0  0  0  0  0  0  0  0  0  0
    3.2004    3.2673    5.6219 C   0  0  2  0  0  0  0  0  0  0  0  0
    2.2758    3.6977    5.2252 H   0  0  0  0  0  0  0  0  0  0  0  0
    2.9282    2.2680    6.7363 C   0  0  0  0  0  0  0  0  0  0  0  0
    2.4509    2.7480    7.5947 H   0  0  0  0  0  0  0  0  0  0  0  0
    2.2997    1.4387    6.4092 H   0  0  0  0  0  0  0  0  0  0  0  0
    4.7338    0.8152    6.1644 C   0  0  0  0  0  0  0  0  0  0  0  0
    3.9713    0.0614    5.9562 H   0  0  0  0  0  0  0  0  0  0  0  0
    5.6238    0.3204    6.5596 H   0  0  0  0  0  0  0  0  0  0  0  0
    5.0746    1.6302    4.9086 C   0  0  0  0  0  0  0  0  0  0  0  0
    5.3472    0.9654    4.0885 H   0  0  0  0  0  0  0  0  0  0  0  0
    5.9438    2.2524    5.1347 H   0  0  0  0  0  0  0  0  0  0  0  0
    3.8997    2.5168    4.4737 C   0  0  0  0  0  0  0  0  0  0  0  0
    4.2442    3.2304    3.7222 H   0  0  0  0  0  0  0  0  0  0  0  0
    3.1436    1.8844    4.0007 H   0  0  0  0  0  0  0  0  0  0  0  0
    5.4393    4.9931    8.1574 C   0  0  0  0  0  0  0  0  0  0  0  0
    6.7169    5.4429    7.8056 C   0  0  0  0  0  0  0  0  0  0  0  0
    7.2742    6.4876    8.5329 C   0  0  0  0  0  0  0  0  0  0  0  0
    8.2584    6.8469    8.2779 H   0  0  0  0  0  0  0  0  0  0  0  0
    6.5868    7.0783    9.5728 C   0  0  0  0  0  0  0  0  0  0  0  0
    7.0389    7.8833   10.1329 H   0  0  0  0  0  0  0  0  0  0  0  0
    5.3117    6.6510    9.8826 C   0  0  0  0  0  0  0  0  0  0  0  0
    4.7712    7.1354   10.6800 H   0  0  0  0  0  0  0  0  0  0  0  0
    4.7118    5.6130    9.1829 C   0  0  0  0  0  0  0  0  0  0  0  0
    7.4865    4.8857    6.6300 C   0  0  0  0  0  0  0  0  0  0  0  0
    6.9865    3.9830    6.2689 H   0  0  0  0  0  0  0  0  0  0  0  0
    8.9108    4.4957    7.0305 C   0  0  0  0  0  0  0  0  0  0  0  0
    9.3804    3.9283    6.2309 H   0  0  0  0  0  0  0  0  0  0  0  0
    8.8873    3.8768    7.9274 H   0  0  0  0  0  0  0  0  0  0  0  0
    9.5200    5.3736    7.2266 H   0  0  0  0  0  0  0  0  0  0  0  0
    7.5197    5.9126    5.4927 C   0  0  0  0  0  0  0  0  0  0  0  0
    6.5143    6.2017    5.1908 H   0  0  0  0  0  0  0  0  0  0  0  0
    8.0339    5.4966    4.6292 H   0  0  0  0  0  0  0  0  0  0  0  0
    8.0453    6.8113    5.8057 H   0  0  0  0  0  0  0  0  0  0  0  0
    3.2843    5.2397    9.5133 C   0  0  0  0  0  0  0  0  0  0  0  0
    3.0317    4.3099    8.9967 H   0  0  0  0  0  0  0  0  0  0  0  0
    3.0740    4.9932   11.0076 C   0  0  0  0  0  0  0  0  0  0  0  0
    3.7699    4.2389   11.3611 H   0  0  0  0  0  0  0  0  0  0  0  0
    2.0607    4.6358   11.1793 H   0  0  0  0  0  0  0  0  0  0  0  0
    3.2151    5.9015   11.5870 H   0  0  0  0  0  0  0  0  0  0  0  0
    2.3383    6.3501    9.0384 C   0  0  0  0  0  0  0  0  0  0  0  0
    2.5168    7.2624    9.6026 H   0  0  0  0  0  0  0  0  0  0  0  0
    1.3036    6.0503    9.1910 H   0  0  0  0  0  0  0  0  0  0  0  0
    2.4786    6.5804    7.9832 H   0  0  0  0  0  0  0  0  0  0  0  0
    7.7169    1.5373    7.4395 C   0  0  0  0  0  2  0  0  0  0  0  0
    7.7854    1.4695   10.2638 C   0  0  0  0  0  2  0  0  0  0  0  0
  1 55  1  0  0  0  0
  1  6  1  0  0  0  0
  2 54  1  0  0  0  0
  4  7  1  0  0  0  0
  4 25  1  0  0  0  0
  5  7  1  0  0  0  0
  7  1  2  0  0  0  0
  8 10  1  0  0  0  0
  8  4  1  0  0  0  0
  9  8  1  0  0  0  0
 11 12  1  6  0  0  0
 11  8  1  0  0  0  0
 11 13  1  0  0  0  0
 13  5  1  0  0  0  0
 13 14  1  0  0  0  0
 15 13  1  0  0  0  0
 16 18  1  0  0  0  0
 16  5  1  0  0  0  0
 17 16  1  0  0  0  0
 19 21  1  0  0  0  0
 19 16  1  0  0  0  0
 20 19  1  0  0  0  0
 22 19  1  0  0  0  0
 22 11  1  0  0  0  0
 23 22  1  0  0  0  0
 24 22  1  0  0  0  0
 25 33  1  0  0  0  0
 26 25  2  0  0  0  0
 26 27  1  0  0  0  0
 27 29  2  0  0  0  0
 28 27  1  0  0  0  0
 29 31  1  0  0  0  0
 29 30  1  0  0  0  0
 31 32  1  0  0  0  0
 33 44  1  0  0  0  0
 33 31  2  0  0  0  0
 34 36  1  0  0  0  0
 34 26  1  0  0  0  0
 35 34  1  0  0  0  0
 36 39  1  0  0  0  0
 36 38  1  0  0  0  0
 37 36  1  0  0  0  0
 40 43  1  0  0  0  0
 40 34  1  0  0  0  0
 41 40  1  0  0  0  0
 42 40  1  0  0  0  0
 44 46  1  0  0  0  0
 45 44  1  0  0  0  0
 46 48  1  0  0  0  0
 46 47  1  0  0  0  0
 46 49  1  0  0  0  0
 50 52  1  0  0  0  0
 50 44  1  0  0  0  0
 50 51  1  0  0  0  0
 53 50  1  0  0  0  0
 54  1  1  0  0  0  0
 55  3  1  0  0  0  0
M  END
$$$$
