CSD_code = KEDFAB | q = 0 | S = 0 | Stoichiometry = C18H20I2N4Ni | MND = 4
 OpenBabel04212202053D

 45 48  0  0  0  0  0  0  0  0999 V2000
    0.0001   -0.0002   -0.0001 Ni  0  0  0  0  0  0  0  0  0  0  0  0
    0.9246    1.1387   -1.9985 I   0  0  0  0  0  0  0  0  0  0  0  0
    2.4622    0.4703    1.4550 N   0  0  0  0  0  0  0  0  0  0  0  0
    1.0361    2.0894    1.7107 N   0  0  0  0  0  0  0  0  0  0  0  0
    1.2354    0.9033    1.1024 C   0  0  0  0  0  0  0  0  0  0  0  0
    3.0564    1.3749    2.3050 C   0  0  0  0  0  0  0  0  0  0  0  0
    4.2872    1.3919    2.9404 C   0  0  0  0  0  0  0  0  0  0  0  0
    4.9968    0.5886    2.8205 H   0  0  0  0  0  0  0  0  0  0  0  0
    4.5645    2.4851    3.7396 C   0  0  0  0  0  0  0  0  0  0  0  0
    5.5126    2.5361    4.2525 H   0  0  0  0  0  0  0  0  0  0  0  0
    3.6499    3.5241    3.9027 C   0  0  0  0  0  0  0  0  0  0  0  0
    3.9101    4.3567    4.5380 H   0  0  0  0  0  0  0  0  0  0  0  0
    2.4192    3.5136    3.2735 C   0  0  0  0  0  0  0  0  0  0  0  0
    1.7130    4.3180    3.4053 H   0  0  0  0  0  0  0  0  0  0  0  0
    2.1346    2.4219    2.4697 C   0  0  0  0  0  0  0  0  0  0  0  0
    3.0509   -0.7627    1.0112 C   0  0  0  0  0  0  0  0  0  0  0  0
    3.0685   -1.4965    1.8210 H   0  0  0  0  0  0  0  0  0  0  0  0
    4.0667   -0.5882    0.6548 H   0  0  0  0  0  0  0  0  0  0  0  0
    2.4508   -1.1564    0.1845 H   0  0  0  0  0  0  0  0  0  0  0  0
   -0.1562    2.8806    1.5842 C   0  0  0  0  0  0  0  0  0  0  0  0
   -0.7688    2.4580    0.7809 H   0  0  0  0  0  0  0  0  0  0  0  0
    0.0988    3.9094    1.3264 H   0  0  0  0  0  0  0  0  0  0  0  0
   -0.7290    2.8679    2.5147 H   0  0  0  0  0  0  0  0  0  0  0  0
   -0.9237   -1.1386    1.9991 I   0  0  0  0  0  0  0  0  0  0  0  0
   -2.4621   -0.4704   -1.4548 N   0  0  0  0  0  0  0  0  0  0  0  0
   -1.0363   -2.0897   -1.7106 N   0  0  0  0  0  0  0  0  0  0  0  0
   -1.2355   -0.9036   -1.1022 C   0  0  0  0  0  3  0  0  0  0  0  0
   -3.0564   -1.3748   -2.3049 C   0  0  0  0  0  0  0  0  0  0  0  0
   -4.2871   -1.3916   -2.9405 C   0  0  0  0  0  0  0  0  0  0  0  0
   -4.9966   -0.5882   -2.8206 H   0  0  0  0  0  0  0  0  0  0  0  0
   -4.5645   -2.4847   -3.7398 C   0  0  0  0  0  0  0  0  0  0  0  0
   -5.5126   -2.5355   -4.2528 H   0  0  0  0  0  0  0  0  0  0  0  0
   -3.6501   -3.5238   -3.9029 C   0  0  0  0  0  0  0  0  0  0  0  0
   -3.9103   -4.3562   -4.5384 H   0  0  0  0  0  0  0  0  0  0  0  0
   -2.4194   -3.5135   -3.2737 C   0  0  0  0  0  0  0  0  0  0  0  0
   -1.7133   -4.3180   -3.4055 H   0  0  0  0  0  0  0  0  0  0  0  0
   -2.1347   -2.4220   -2.4698 C   0  0  0  0  0  0  0  0  0  0  0  0
   -3.0507    0.7627   -1.0110 C   0  0  0  0  0  0  0  0  0  0  0  0
   -3.0680    1.4966   -1.8208 H   0  0  0  0  0  0  0  0  0  0  0  0
   -4.0667    0.5882   -0.6549 H   0  0  0  0  0  0  0  0  0  0  0  0
   -2.4507    1.1561   -0.1840 H   0  0  0  0  0  0  0  0  0  0  0  0
    0.1560   -2.8810   -1.5842 C   0  0  0  0  0  0  0  0  0  0  0  0
    0.7685   -2.4587   -0.7806 H   0  0  0  0  0  0  0  0  0  0  0  0
   -0.0992   -3.9099   -1.3268 H   0  0  0  0  0  0  0  0  0  0  0  0
    0.7289   -2.8680   -2.5146 H   0  0  0  0  0  0  0  0  0  0  0  0
  1  5  2  0  0  0  0
  1 24  1  0  0  0  0
  2  1  1  0  0  0  0
  3  6  1  0  0  0  0
  4 15  1  0  0  0  0
  5  3  1  0  0  0  0
  5  4  1  0  0  0  0
  6 15  2  0  0  0  0
  6  7  1  0  0  0  0
  7  9  2  0  0  0  0
  8  7  1  0  0  0  0
  9 11  1  0  0  0  0
  9 10  1  0  0  0  0
 11 12  1  0  0  0  0
 13 14  1  0  0  0  0
 13 11  2  0  0  0  0
 15 13  1  0  0  0  0
 16  3  1  0  0  0  0
 16 17  1  0  0  0  0
 18 16  1  0  0  0  0
 19 16  1  0  0  0  0
 20  4  1  0  0  0  0
 20 23  1  0  0  0  0
 21 20  1  0  0  0  0
 22 20  1  0  0  0  0
 25 27  1  0  0  0  0
 25 38  1  0  0  0  0
 26 42  1  0  0  0  0
 26 27  1  0  0  0  0
 27  1  1  0  0  0  0
 28 25  1  0  0  0  0
 29 30  1  0  0  0  0
 29 28  2  0  0  0  0
 31 29  1  0  0  0  0
 32 31  1  0  0  0  0
 33 31  2  0  0  0  0
 33 35  1  0  0  0  0
 34 33  1  0  0  0  0
 35 37  2  0  0  0  0
 36 35  1  0  0  0  0
 37 28  1  0  0  0  0
 37 26  1  0  0  0  0
 38 40  1  0  0  0  0
 38 41  1  0  0  0  0
 39 38  1  0  0  0  0
 42 44  1  0  0  0  0
 42 43  1  0  0  0  0
 45 42  1  0  0  0  0
M  END
$$$$
