CSD_code = KEDFEF | q = 0 | S = 0 | Stoichiometry = C26H28Br2N4Ni | MND = 4
 OpenBabel04212202053D

 61 64  0  0  0  0  0  0  0  0999 V2000
   -0.9266    0.0005   12.7418 Ni  0  0  0  0  0  0  0  0  0  0  0  0
   -1.5928    1.5897   11.2190 Br  0  0  0  0  0  0  0  0  0  0  0  0
    0.8416    0.6528   12.6356 C   0  0  0  0  0  3  0  0  0  0  0  0
    2.6726    1.8828   12.9732 C   0  0  0  0  0  0  0  0  0  0  0  0
    2.9266    0.9928   11.9162 C   0  0  0  0  0  0  0  0  0  0  0  0
    4.1475    0.9796   11.2618 C   0  0  0  0  0  0  0  0  0  0  0  0
    4.3408    0.3046   10.4437 H   0  0  0  0  0  0  0  0  0  0  0  0
    5.1011    1.8795   11.6986 C   0  0  0  0  0  0  0  0  0  0  0  0
    6.0650    1.9030   11.2136 H   0  0  0  0  0  0  0  0  0  0  0  0
    4.8492    2.7628   12.7471 C   0  0  0  0  0  0  0  0  0  0  0  0
    5.6238    3.4504   13.0507 H   0  0  0  0  0  0  0  0  0  0  0  0
    3.6331    2.7837   13.4034 C   0  0  0  0  0  0  0  0  0  0  0  0
    3.4376    3.4749   14.2073 H   0  0  0  0  0  0  0  0  0  0  0  0
    1.5851   -0.7845   10.7684 C   0  0  0  0  0  0  0  0  0  0  0  0
    0.6601   -1.3181   11.0449 H   0  0  0  0  0  0  0  0  0  0  0  0
    2.4178   -1.4928   10.8195 H   0  0  0  0  0  0  0  0  0  0  0  0
    1.4450   -0.2125    9.3888 C   0  0  0  0  0  0  0  0  0  0  0  0
    0.7401    0.6037    9.3031 H   0  0  0  0  0  0  0  0  0  0  0  0
    2.1100   -0.6545    8.3396 C   0  0  0  0  0  0  0  0  0  0  0  0
    2.8117   -1.4707    8.4120 H   0  0  0  0  0  0  0  0  0  0  0  0
    1.9719   -0.2285    7.3614 H   0  0  0  0  0  0  0  0  0  0  0  0
    0.7014    2.3205   14.4550 C   0  0  0  0  0  0  0  0  0  0  0  0
    1.3486    2.3561   15.3365 H   0  0  0  0  0  0  0  0  0  0  0  0
   -0.1902    1.7223   14.7044 H   0  0  0  0  0  0  0  0  0  0  0  0
    0.2843    3.6988   14.0338 C   0  0  0  0  0  0  0  0  0  0  0  0
   -0.2424    3.7474   13.0901 H   0  0  0  0  0  0  0  0  0  0  0  0
    0.5233    4.7868   14.7393 C   0  0  0  0  0  0  0  0  0  0  0  0
    1.0449    4.7512   15.6828 H   0  0  0  0  0  0  0  0  0  0  0  0
    0.1968    5.7577   14.4105 H   0  0  0  0  0  0  0  0  0  0  0  0
    1.3849    1.6292   13.3876 N   0  0  0  0  0  0  0  0  0  0  0  0
    1.7772    0.2539   11.7528 N   0  0  0  0  0  0  0  0  0  0  0  0
   -0.2609   -1.5879   14.2652 Br  0  0  0  0  0  0  0  0  0  0  0  0
   -2.6940   -0.6535   12.8508 C   0  0  0  0  0  0  0  0  0  0  0  0
   -4.5253   -1.8830   12.5128 C   0  0  0  0  0  0  0  0  0  0  0  0
   -4.7792   -0.9930   13.5698 C   0  0  0  0  0  0  0  0  0  0  0  0
   -6.0002   -0.9797   14.2241 C   0  0  0  0  0  0  0  0  0  0  0  0
   -6.1935   -0.3047   15.0422 H   0  0  0  0  0  0  0  0  0  0  0  0
   -6.9539   -1.8795   13.7872 C   0  0  0  0  0  0  0  0  0  0  0  0
   -7.9177   -1.9030   14.2722 H   0  0  0  0  0  0  0  0  0  0  0  0
   -6.7020   -2.7628   12.7386 C   0  0  0  0  0  0  0  0  0  0  0  0
   -7.4766   -3.4503   12.4350 H   0  0  0  0  0  0  0  0  0  0  0  0
   -5.4859   -2.7836   12.0823 C   0  0  0  0  0  0  0  0  0  0  0  0
   -5.2904   -3.4748   11.2783 H   0  0  0  0  0  0  0  0  0  0  0  0
   -3.4378    0.7843   14.7176 C   0  0  0  0  0  0  0  0  0  0  0  0
   -2.5127    1.3179   14.4412 H   0  0  0  0  0  0  0  0  0  0  0  0
   -4.2704    1.4926   14.6664 H   0  0  0  0  0  0  0  0  0  0  0  0
   -3.2978    0.2123   16.0971 C   0  0  0  0  0  0  0  0  0  0  0  0
   -2.5928   -0.6040   16.1828 H   0  0  0  0  0  0  0  0  0  0  0  0
   -3.9629    0.6542   17.1464 C   0  0  0  0  0  0  0  0  0  0  0  0
   -4.6645    1.4704   17.0740 H   0  0  0  0  0  0  0  0  0  0  0  0
   -3.8247    0.2282   18.1245 H   0  0  0  0  0  0  0  0  0  0  0  0
   -2.5542   -2.3205   11.0307 C   0  0  0  0  0  0  0  0  0  0  0  0
   -3.2014   -2.3558   10.1492 H   0  0  0  0  0  0  0  0  0  0  0  0
   -1.6626   -1.7221   10.7814 H   0  0  0  0  0  0  0  0  0  0  0  0
   -2.1370   -3.6988   11.4517 C   0  0  0  0  0  0  0  0  0  0  0  0
   -1.6103   -3.7474   12.3954 H   0  0  0  0  0  0  0  0  0  0  0  0
   -2.3759   -4.7866   10.7461 C   0  0  0  0  0  0  0  0  0  0  0  0
   -2.8977   -4.7510    9.8027 H   0  0  0  0  0  0  0  0  0  0  0  0
   -2.0496   -5.7576   11.0750 H   0  0  0  0  0  0  0  0  0  0  0  0
   -3.2376   -1.6294   12.0984 N   0  0  0  0  0  0  0  0  0  0  0  0
   -3.6298   -0.2542   13.7334 N   0  0  0  0  0  0  0  0  0  0  0  0
  1 33  2  0  0  0  0
  1 32  1  0  0  0  0
  2  1  1  0  0  0  0
  3  1  1  0  0  0  0
  3 30  1  0  0  0  0
  4 30  1  0  0  0  0
  4 12  1  0  0  0  0
  5  4  2  0  0  0  0
  6  8  2  0  0  0  0
  6  5  1  0  0  0  0
  7  6  1  0  0  0  0
  8 10  1  0  0  0  0
  9  8  1  0  0  0  0
 10 11  1  0  0  0  0
 10 12  2  0  0  0  0
 12 13  1  0  0  0  0
 14 16  1  0  0  0  0
 14 15  1  0  0  0  0
 14 31  1  0  0  0  0
 17 14  1  0  0  0  0
 18 17  1  0  0  0  0
 19 20  1  0  0  0  0
 19 17  2  0  0  0  0
 21 19  1  0  0  0  0
 22 24  1  0  0  0  0
 22 23  1  0  0  0  0
 25 22  1  0  0  0  0
 25 27  2  0  0  0  0
 26 25  1  0  0  0  0
 27 28  1  0  0  0  0
 29 27  1  0  0  0  0
 30 22  1  0  0  0  0
 31  5  1  0  0  0  0
 31  3  1  0  0  0  0
 33 61  1  0  0  0  0
 34 35  1  0  0  0  0
 35 61  1  0  0  0  0
 35 36  2  0  0  0  0
 36 37  1  0  0  0  0
 38 36  1  0  0  0  0
 38 39  1  0  0  0  0
 40 38  2  0  0  0  0
 41 40  1  0  0  0  0
 42 34  2  0  0  0  0
 42 40  1  0  0  0  0
 43 42  1  0  0  0  0
 44 47  1  0  0  0  0
 45 44  1  0  0  0  0
 46 44  1  0  0  0  0
 47 48  1  0  0  0  0
 47 49  2  0  0  0  0
 49 51  1  0  0  0  0
 50 49  1  0  0  0  0
 52 55  1  0  0  0  0
 52 60  1  0  0  0  0
 53 52  1  0  0  0  0
 54 52  1  0  0  0  0
 55 56  1  0  0  0  0
 57 59  1  0  0  0  0
 57 55  2  0  0  0  0
 58 57  1  0  0  0  0
 60 34  1  0  0  0  0
 60 33  1  0  0  0  0
 61 44  1  0  0  0  0
M  END
$$$$
