CSD_code = KEDFUV | q = 0 | S = 0 | Stoichiometry = C22H28I2N4Ni | MND = 4
 OpenBabel04212202053D

 57 60  0  0  1  0  0  0  0  0999 V2000
    2.0389    2.6060    4.1735 Ni  0  0  0  0  0  0  0  0  0  0  0  0
    0.9401    0.3954    3.9100 I   0  0  0  0  0  0  0  0  0  0  0  0
    1.0691    2.8238    6.8611 N   0  0  0  0  0  0  0  0  0  0  0  0
   -0.3978    3.5812    5.4467 N   0  0  0  0  0  0  0  0  0  0  0  0
    0.8293    3.0338    5.5517 C   0  0  0  0  0  0  0  0  0  0  0  0
   -0.0033    3.2463    7.6115 C   0  0  0  0  0  0  0  0  0  0  0  0
   -0.2443    3.2487    8.9755 C   0  0  0  0  0  0  0  0  0  0  0  0
    0.4846    2.8772    9.6784 H   0  0  0  0  0  0  0  0  0  0  0  0
   -1.4615    3.7506    9.3957 C   0  0  0  0  0  0  0  0  0  0  0  0
   -1.6881    3.7713   10.4506 H   0  0  0  0  0  0  0  0  0  0  0  0
   -2.4060    4.2303    8.4902 C   0  0  0  0  0  0  0  0  0  0  0  0
   -3.3445    4.6104    8.8637 H   0  0  0  0  0  0  0  0  0  0  0  0
   -2.1716    4.2324    7.1280 C   0  0  0  0  0  0  0  0  0  0  0  0
   -2.9090    4.6040    6.4342 H   0  0  0  0  0  0  0  0  0  0  0  0
   -0.9520    3.7354    6.6976 C   0  0  0  0  0  0  0  0  0  0  0  0
    2.2722    2.2331    7.3790 C   0  0  0  0  0  0  0  0  0  0  0  0
    2.0300    1.4090    8.0517 H   0  0  0  0  0  0  0  0  0  0  0  0
    2.8708    2.9766    7.9110 H   0  0  0  0  0  0  0  0  0  0  0  0
    2.8538    1.8416    6.5358 H   0  0  0  0  0  0  0  0  0  0  0  0
   -1.0220    3.9621    4.2048 C   0  0  0  0  0  0  0  0  0  0  0  0
   -2.0673    3.6380    4.2227 H   0  0  0  0  0  0  0  0  0  0  0  0
   -0.5116    3.4201    3.3972 H   0  0  0  0  0  0  0  0  0  0  0  0
   -0.9318    5.4688    3.9574 C   0  0  0  0  0  0  0  0  0  0  0  0
    0.1177    5.7689    3.9445 H   0  0  0  0  0  0  0  0  0  0  0  0
   -1.4169    5.9986    4.7801 H   0  0  0  0  0  0  0  0  0  0  0  0
   -1.5895    5.8466    2.6378 C   0  0  0  0  0  0  0  0  0  0  0  0
   -1.1026    5.3406    1.8065 H   0  0  0  0  0  0  0  0  0  0  0  0
   -1.5154    6.9184    2.4750 H   0  0  0  0  0  0  0  0  0  0  0  0
   -2.6417    5.5690    2.6378 H   0  0  0  0  0  0  0  0  0  0  0  0
    3.1387    4.8163    4.4363 I   0  0  0  0  0  0  0  0  0  0  0  0
    3.0089    2.3884    1.4859 N   0  0  0  0  0  0  0  0  0  0  0  0
    4.4757    1.6310    2.9004 N   0  0  0  0  0  0  0  0  0  0  0  0
    3.2487    2.1784    2.7954 C   0  0  1  0  0  3  0  0  0  0  0  0
    4.0814    1.9659    0.7356 C   0  0  0  0  0  0  0  0  0  0  0  0
    4.3223    1.9634   -0.6285 C   0  0  0  0  0  0  0  0  0  0  0  0
    3.5934    2.3350   -1.3314 H   0  0  0  0  0  0  0  0  0  0  0  0
    5.5395    1.4615   -1.0487 C   0  0  0  0  0  0  0  0  0  0  0  0
    5.7662    1.4408   -2.1036 H   0  0  0  0  0  0  0  0  0  0  0  0
    6.4840    0.9819   -0.1431 C   0  0  0  0  0  0  0  0  0  0  0  0
    7.4225    0.6018   -0.5166 H   0  0  0  0  0  0  0  0  0  0  0  0
    6.2496    0.9798    1.2190 C   0  0  0  0  0  0  0  0  0  0  0  0
    6.9870    0.6082    1.9128 H   0  0  0  0  0  0  0  0  0  0  0  0
    5.0300    1.4769    1.6494 C   0  0  0  0  0  0  0  0  0  0  0  0
    1.8058    2.9791    0.9680 C   0  0  0  0  0  0  0  0  0  0  0  0
    2.0480    3.8031    0.2953 H   0  0  0  0  0  0  0  0  0  0  0  0
    1.2073    2.2356    0.4360 H   0  0  0  0  0  0  0  0  0  0  0  0
    1.2242    3.3705    1.8111 H   0  0  0  0  0  0  0  0  0  0  0  0
    5.1000    1.2501    4.1422 C   0  0  0  0  0  0  0  0  0  0  0  0
    6.1453    1.5742    4.1243 H   0  0  0  0  0  0  0  0  0  0  0  0
    4.5895    1.7921    4.9498 H   0  0  0  0  0  0  0  0  0  0  0  0
    5.0098   -0.2566    4.3896 C   0  0  0  0  0  0  0  0  0  0  0  0
    3.9603   -0.5567    4.4026 H   0  0  0  0  0  0  0  0  0  0  0  0
    5.4949   -0.7864    3.5670 H   0  0  0  0  0  0  0  0  0  0  0  0
    5.6675   -0.6344    5.7092 C   0  0  0  0  0  0  0  0  0  0  0  0
    5.1806   -0.1284    6.5405 H   0  0  0  0  0  0  0  0  0  0  0  0
    5.5935   -1.7062    5.8720 H   0  0  0  0  0  0  0  0  0  0  0  0
    6.7197   -0.3567    5.7092 H   0  0  0  0  0  0  0  0  0  0  0  0
  1 30  1  0  0  0  0
  1  5  2  0  0  0  0
  2  1  1  0  0  0  0
  3 16  1  0  0  0  0
  3  6  1  0  0  0  0
  4  5  1  0  0  0  0
  4 15  1  0  0  0  0
  5  3  1  0  0  0  0
  6  7  1  0  0  0  0
  7  9  2  0  0  0  0
  7  8  1  0  0  0  0
  9 10  1  0  0  0  0
 11 12  1  0  0  0  0
 11  9  1  0  0  0  0
 13 11  2  0  0  0  0
 14 13  1  0  0  0  0
 15 13  1  0  0  0  0
 15  6  2  0  0  0  0
 16 18  1  0  0  0  0
 16 17  1  0  0  0  0
 19 16  1  0  0  0  0
 20 21  1  0  0  0  0
 20  4  1  0  0  0  0
 22 20  1  0  0  0  0
 23 20  1  0  0  0  0
 23 25  1  0  0  0  0
 24 23  1  0  0  0  0
 26 23  1  0  0  0  0
 27 26  1  0  0  0  0
 28 26  1  0  0  0  0
 29 26  1  0  0  0  0
 31 33  1  0  0  0  0
 32 48  1  0  0  0  0
 33 32  1  0  0  0  0
 33  1  1  1  0  0  0
 34 31  1  0  0  0  0
 34 43  1  0  0  0  0
 35 34  2  0  0  0  0
 36 35  1  0  0  0  0
 37 35  1  0  0  0  0
 37 39  2  0  0  0  0
 38 37  1  0  0  0  0
 39 41  1  0  0  0  0
 40 39  1  0  0  0  0
 41 43  2  0  0  0  0
 41 42  1  0  0  0  0
 43 32  1  0  0  0  0
 44 31  1  0  0  0  0
 44 47  1  0  0  0  0
 45 44  1  0  0  0  0
 46 44  1  0  0  0  0
 48 51  1  0  0  0  0
 48 50  1  0  0  0  0
 49 48  1  0  0  0  0
 51 52  1  0  0  0  0
 51 54  1  0  0  0  0
 53 51  1  0  0  0  0
 54 57  1  0  0  0  0
 54 56  1  0  0  0  0
 54 55  1  0  0  0  0
M  END
$$$$
