CSD_code = KEDGAB | q = 0 | S = 0 | Stoichiometry = C12H26BClIrNSi | MND = 7
 OpenBabel04212202053D

 43 41  0  0  1  0  0  0  0  0999 V2000
   10.6007    6.4018    3.2635 Ir  0  0  0  0  0  0  0  0  0  0  0  0
   11.7026    8.1273    2.2519 Cl  0  0  0  0  0 15  0  0  0  0  0  0
   10.2108    4.2839    1.5752 Si  0  0  0  0  0  0  0  0  0  0  0  0
    9.3535    5.8540    1.4406 N   0  0  0  0  0  0  0  0  0  0  0  0
    8.8395    5.1720    3.7408 C   0  0  0  0  0  0  0  0  0  0  0  0
    9.8949    4.2985    3.4487 C   0  0  1  0  0  3  0  0  0  0  0  0
    8.0734    5.1224    5.0356 C   0  0  0  0  0  0  0  0  0  0  0  0
    6.9401    4.1000    4.9202 C   0  0  0  0  0  0  0  0  0  0  0  0
   10.4166    3.2415    4.3742 C   0  0  0  0  0  0  0  0  0  0  0  0
   12.0071    4.3812    0.9571 C   0  0  0  0  0  0  0  0  0  0  0  0
    9.2125    2.9665    0.6236 C   0  0  0  0  0  0  0  0  0  0  0  0
    7.2557    7.1325    2.4883 C   0  0  0  0  0  0  0  0  0  0  0  0
    7.7462    8.4816    3.0368 C   0  0  0  0  0  0  0  0  0  0  0  0
    9.3205    6.5575    0.1768 C   0  0  0  0  0  0  0  0  0  0  0  0
   12.0670    6.3618    4.7828 C   0  0  0  0  0  0  0  0  0  0  0  0
   10.9964    7.1898    5.1875 C   0  0  0  0  0  3  0  0  0  0  0  0
    8.4244    6.0538    2.5141 B   0  0  0  0  0  0  0  0  0  0  0  0
    8.7160    4.8474    5.8740 H   0  0  0  0  0  0  0  0  0  0  0  0
    7.6454    6.1035    5.2466 H   0  0  0  0  0  0  0  0  0  0  0  0
    7.3412    3.1062    4.7356 H   0  0  0  0  0  0  0  0  0  0  0  0
    6.2794    4.3606    4.0963 H   0  0  0  0  0  0  0  0  0  0  0  0
    6.3564    4.0723    5.8376 H   0  0  0  0  0  0  0  0  0  0  0  0
   10.3332    3.5283    5.4198 H   0  0  0  0  0  0  0  0  0  0  0  0
   11.4596    3.0232    4.1549 H   0  0  0  0  0  0  0  0  0  0  0  0
    9.8508    2.3196    4.2309 H   0  0  0  0  0  0  0  0  0  0  0  0
   12.5100    5.2837    1.2934 H   0  0  0  0  0  0  0  0  0  0  0  0
   12.0383    4.3642   -0.1279 H   0  0  0  0  0  0  0  0  0  0  0  0
   12.5776    3.5300    1.3124 H   0  0  0  0  0  0  0  0  0  0  0  0
    9.2358    3.1530   -0.4456 H   0  0  0  0  0  0  0  0  0  0  0  0
    8.1730    2.9424    0.9368 H   0  0  0  0  0  0  0  0  0  0  0  0
    9.6345    1.9816    0.7910 H   0  0  0  0  0  0  0  0  0  0  0  0
    6.4037    6.8110    3.0926 H   0  0  0  0  0  0  0  0  0  0  0  0
    6.8734    7.2895    1.4761 H   0  0  0  0  0  0  0  0  0  0  0  0
    8.5990    8.8446    2.4679 H   0  0  0  0  0  0  0  0  0  0  0  0
    8.0602    8.3789    4.0732 H   0  0  0  0  0  0  0  0  0  0  0  0
    6.9575    9.2307    2.9880 H   0  0  0  0  0  0  0  0  0  0  0  0
   10.3232    6.6124   -0.2485 H   0  0  0  0  0  0  0  0  0  0  0  0
    8.9549    7.5750    0.3057 H   0  0  0  0  0  0  0  0  0  0  0  0
    8.6703    6.0410   -0.5371 H   0  0  0  0  0  0  0  0  0  0  0  0
   12.1850    5.3874    5.2461 H   0  0  0  0  0  0  0  0  0  0  0  0
   13.0027    6.8288    4.4883 H   0  0  0  0  0  0  0  0  0  0  0  0
   11.1368    8.2664    5.1801 H   0  0  0  0  0  0  0  0  0  0  0  0
   10.3095    6.8371    5.9496 H   0  0  0  0  0  0  0  0  0  0  0  0
  1 15  1  0  0  0  0
  3  6  1  0  0  0  0
  4  3  1  0  0  0  0
  4 17  1  0  0  0  0
  5  7  1  0  0  0  0
  6  5  1  0  0  0  0
  6  9  1  6  0  0  0
  7 19  1  0  0  0  0
  7 18  1  0  0  0  0
  8  7  1  0  0  0  0
  8 22  1  0  0  0  0
  9 23  1  0  0  0  0
 10 26  1  0  0  0  0
 10 28  1  0  0  0  0
 10  3  1  0  0  0  0
 11 31  1  0  0  0  0
 11 30  1  0  0  0  0
 11  3  1  0  0  0  0
 12 17  1  0  0  0  0
 12 13  1  0  0  0  0
 12 32  1  0  0  0  0
 13 35  1  0  0  0  0
 14 38  1  0  0  0  0
 14  4  1  0  0  0  0
 15 16  1  0  0  0  0
 15 40  1  0  0  0  0
 16 43  1  0  0  0  0
 17  5  2  0  0  0  0
 20  8  1  0  0  0  0
 21  8  1  0  0  0  0
 24  9  1  0  0  0  0
 25  9  1  0  0  0  0
 27 10  1  0  0  0  0
 29 11  1  0  0  0  0
 33 12  1  0  0  0  0
 34 13  1  0  0  0  0
 36 13  1  0  0  0  0
 37 14  1  0  0  0  0
 39 14  1  0  0  0  0
 41 15  1  0  0  0  0
 42 16  1  0  0  0  0
M  END
$$$$
