CSD_code = KEDJOT | q = 0 | S = 0 | Stoichiometry = C34H28BrCuN2P2S2 | MND = 4
 OpenBabel04212202053D

 70 76  0  0  1  0  0  0  0  0999 V2000
    9.5460   -2.7979   12.1639 Br  0  0  0  0  0  0  0  0  0  0  0  0
    8.4526   -0.8135   11.7152 Cu  0  0  0  0  0  0  0  0  0  0  0  0
    6.9830   -1.2240    9.6914 S   0  0  0  0  0  0  0  0  0  0  0  0
   11.8788   -2.7617    8.5406 S   0  0  0  0  0  0  0  0  0  0  0  0
    9.7114    0.7891   10.4052 P   0  0  0  0  0  4  0  0  0  0  0  0
    7.8904    1.0326   12.8571 P   0  0  0  0  0  4  0  0  0  0  0  0
    9.3435   -2.1546    8.9432 N   0  0  0  0  0  0  0  0  0  0  0  0
    9.5570   -2.2924    9.9500 H   0  0  0  0  0  0  0  0  0  0  0  0
    9.9946   -2.4908    6.7416 N   0  0  0  0  0  0  0  0  0  0  0  0
   10.7365   -2.7211    6.0953 H   0  0  0  0  0  0  0  0  0  0  0  0
    8.0846   -1.7743    8.5806 C   0  0  2  0  0  3  0  0  0  0  0  0
   10.3418   -2.4662    8.0707 C   0  0  0  0  0  0  0  0  0  0  0  0
    8.7390   -2.2016    6.3091 C   0  0  0  0  0  0  0  0  0  0  0  0
    8.5687   -2.2660    5.2459 H   0  0  0  0  0  0  0  0  0  0  0  0
    7.7760   -1.8397    7.1854 C   0  0  0  0  0  0  0  0  0  0  0  0
    6.7798   -1.5878    6.8700 H   0  0  0  0  0  0  0  0  0  0  0  0
    8.8131    2.3585   10.6252 C   0  0  0  0  0  0  0  0  0  0  0  0
    7.9376    2.4501   11.7168 C   0  0  0  0  0  0  0  0  0  0  0  0
    7.1850    3.6044   11.9045 C   0  0  0  0  0  0  0  0  0  0  0  0
    6.4957    3.6673   12.7358 H   0  0  0  0  0  0  0  0  0  0  0  0
    7.3103    4.6656   11.0271 C   0  0  0  0  0  0  0  0  0  0  0  0
    6.7228    5.5594   11.1780 H   0  0  0  0  0  0  0  0  0  0  0  0
    8.1932    4.5861    9.9607 C   0  0  0  0  0  0  0  0  0  0  0  0
    8.3006    5.4211    9.2840 H   0  0  0  0  0  0  0  0  0  0  0  0
    8.9376    3.4389    9.7571 C   0  0  0  0  0  0  0  0  0  0  0  0
    9.6221    3.3809    8.9222 H   0  0  0  0  0  0  0  0  0  0  0  0
   10.2572    0.8976    8.6707 C   0  0  0  0  0  0  0  0  0  0  0  0
    9.2656    1.0479    7.6997 C   0  0  0  0  0  0  0  0  0  0  0  0
    8.2406    1.2146    8.0075 H   0  0  0  0  0  0  0  0  0  0  0  0
    9.5900    0.9963    6.3588 C   0  0  0  0  0  0  0  0  0  0  0  0
    8.8184    1.1272    5.6135 H   0  0  0  0  0  0  0  0  0  0  0  0
   10.9021    0.7688    5.9720 C   0  0  0  0  0  0  0  0  0  0  0  0
   11.1552    0.7246    4.9227 H   0  0  0  0  0  0  0  0  0  0  0  0
   11.8864    0.5985    6.9317 C   0  0  0  0  0  0  0  0  0  0  0  0
   12.9079    0.4147    6.6338 H   0  0  0  0  0  0  0  0  0  0  0  0
   11.5691    0.6548    8.2768 C   0  0  0  0  0  0  0  0  0  0  0  0
   12.3396    0.5140    9.0208 H   0  0  0  0  0  0  0  0  0  0  0  0
   11.2481    1.0838   11.3334 C   0  0  0  0  0  0  0  0  0  0  0  0
   11.6195    2.3271   11.8320 C   0  0  0  0  0  0  0  0  0  0  0  0
   11.0005    3.1952   11.6500 H   0  0  0  0  0  0  0  0  0  0  0  0
   12.7831    2.4487   12.5686 C   0  0  0  0  0  0  0  0  0  0  0  0
   13.0691    3.4152   12.9581 H   0  0  0  0  0  0  0  0  0  0  0  0
   13.5776    1.3397   12.8098 C   0  0  0  0  0  0  0  0  0  0  0  0
   14.4827    1.4433   13.3899 H   0  0  0  0  0  0  0  0  0  0  0  0
   13.2108    0.1002   12.3124 C   0  0  0  0  0  0  0  0  0  0  0  0
   13.8236   -0.7683   12.5000 H   0  0  0  0  0  0  0  0  0  0  0  0
   12.0459   -0.0317   11.5809 C   0  0  0  0  0  0  0  0  0  0  0  0
   11.7530   -1.0039   11.2067 H   0  0  0  0  0  0  0  0  0  0  0  0
    6.3954    1.3489   13.8401 C   0  0  0  0  0  0  0  0  0  0  0  0
    6.4036    1.5296   15.2184 C   0  0  0  0  0  0  0  0  0  0  0  0
    7.3421    1.5586   15.7546 H   0  0  0  0  0  0  0  0  0  0  0  0
    5.2065    1.6775   15.8967 C   0  0  0  0  0  0  0  0  0  0  0  0
    5.2134    1.8253   16.9667 H   0  0  0  0  0  0  0  0  0  0  0  0
    4.0037    1.6322   15.2114 C   0  0  0  0  0  0  0  0  0  0  0  0
    3.0733    1.7476   15.7473 H   0  0  0  0  0  0  0  0  0  0  0  0
    3.9912    1.4261   13.8400 C   0  0  0  0  0  0  0  0  0  0  0  0
    3.0526    1.3764   13.3077 H   0  0  0  0  0  0  0  0  0  0  0  0
    5.1812    1.2731   13.1570 C   0  0  0  0  0  0  0  0  0  0  0  0
    5.1868    1.0962   12.0879 H   0  0  0  0  0  0  0  0  0  0  0  0
    9.2550    1.4734   13.9805 C   0  0  0  0  0  0  0  0  0  0  0  0
    9.4677    2.7836   14.3996 C   0  0  0  0  0  0  0  0  0  0  0  0
    8.8031    3.5711   14.0702 H   0  0  0  0  0  0  0  0  0  0  0  0
   10.5300    3.0725   15.2344 C   0  0  0  0  0  0  0  0  0  0  0  0
   10.6944    4.0896   15.5600 H   0  0  0  0  0  0  0  0  0  0  0  0
   11.3852    2.0635   15.6500 C   0  0  0  0  0  0  0  0  0  0  0  0
   12.2175    2.2974   16.2972 H   0  0  0  0  0  0  0  0  0  0  0  0
   11.1749    0.7593   15.2367 C   0  0  0  0  0  0  0  0  0  0  0  0
   11.8390   -0.0288   15.5572 H   0  0  0  0  0  0  0  0  0  0  0  0
   10.1115    0.4630   14.4037 C   0  0  0  0  0  0  0  0  0  0  0  0
    9.9464   -0.5546   14.0768 H   0  0  0  0  0  0  0  0  0  0  0  0
  2  1  1  0  0  0  0
  2  6  1  0  0  0  0
  3  2  1  0  0  0  0
  5 17  1  0  0  0  0
  5 38  1  0  0  0  0
  5  2  1  0  0  0  0
  6 49  1  0  0  0  0
  6 60  1  0  0  0  0
  7  8  1  0  0  0  0
  9 12  1  0  0  0  0
 10  9  1  0  0  0  0
 11  7  1  0  0  0  0
 11  3  1  6  0  0  0
 12  4  2  0  0  0  0
 12  7  1  0  0  0  0
 13  9  1  0  0  0  0
 13 15  2  0  0  0  0
 14 13  1  0  0  0  0
 15 11  1  0  0  0  0
 16 15  1  0  0  0  0
 17 18  1  0  0  0  0
 18 19  2  0  0  0  0
 18  6  1  0  0  0  0
 19 20  1  0  0  0  0
 21 22  1  0  0  0  0
 21 19  1  0  0  0  0
 23 21  2  0  0  0  0
 24 23  1  0  0  0  0
 25 23  1  0  0  0  0
 25 17  2  0  0  0  0
 26 25  1  0  0  0  0
 27  5  1  0  0  0  0
 28 29  1  0  0  0  0
 28 27  2  0  0  0  0
 30 28  1  0  0  0  0
 31 30  1  0  0  0  0
 32 30  2  0  0  0  0
 32 34  1  0  0  0  0
 33 32  1  0  0  0  0
 34 36  2  0  0  0  0
 35 34  1  0  0  0  0
 36 27  1  0  0  0  0
 36 37  1  0  0  0  0
 38 47  2  0  0  0  0
 38 39  1  0  0  0  0
 39 41  2  0  0  0  0
 40 39  1  0  0  0  0
 41 43  1  0  0  0  0
 41 42  1  0  0  0  0
 43 44  1  0  0  0  0
 45 46  1  0  0  0  0
 45 43  2  0  0  0  0
 47 45  1  0  0  0  0
 48 47  1  0  0  0  0
 49 50  1  0  0  0  0
 50 51  1  0  0  0  0
 50 52  2  0  0  0  0
 52 53  1  0  0  0  0
 54 55  1  0  0  0  0
 54 52  1  0  0  0  0
 56 54  2  0  0  0  0
 57 56  1  0  0  0  0
 58 56  1  0  0  0  0
 58 49  2  0  0  0  0
 59 58  1  0  0  0  0
 60 61  2  0  0  0  0
 60 69  1  0  0  0  0
 61 63  1  0  0  0  0
 62 61  1  0  0  0  0
 63 64  1  0  0  0  0
 63 65  2  0  0  0  0
 65 66  1  0  0  0  0
 67 68  1  0  0  0  0
 67 65  1  0  0  0  0
 69 67  2  0  0  0  0
 70 69  1  0  0  0  0
M  END
$$$$
