CSD_code = KEDMEM | q = 0 | S = 0 | Stoichiometry = C19H24Cl2N2OPd | MND = 4
 OpenBabel04212202053D

 49 51  0  0  1  0  0  0  0  0999 V2000
    1.2446    3.0075    2.1675 Pd  0  0  0  0  0  0  0  0  0  0  0  0
    1.9132    1.4630    0.7029 Cl  0  0  0  0  0  0  0  0  0  0  0  0
    2.4572    4.5622    1.1788 Cl  0  0  0  0  0  0  0  0  0  0  0  0
    0.0853    1.6489    3.2435 O   0  0  0  0  0  0  0  0  0  0  0  0
   -0.8427    2.0971    2.4657 N   0  0  0  0  0  0  0  0  0  0  0  0
   -1.5206    3.2408    2.8212 C   0  0  2  0  0  3  0  0  0  0  0  0
   -2.7286    3.5463    2.2150 C   0  0  0  0  0  0  0  0  0  0  0  0
   -3.2504    4.4395    2.5201 H   0  0  0  0  0  0  0  0  0  0  0  0
   -3.2336    2.7390    1.2112 C   0  0  0  0  0  0  0  0  0  0  0  0
   -4.1692    2.9757    0.7337 H   0  0  0  0  0  0  0  0  0  0  0  0
   -2.4890    1.6309    0.8174 C   0  0  0  0  0  0  0  0  0  0  0  0
   -2.8279    0.9916    0.0189 H   0  0  0  0  0  0  0  0  0  0  0  0
   -1.3224    1.3181    1.4703 C   0  0  0  0  0  0  0  0  0  0  0  0
   -0.7172    0.4510    1.2445 H   0  0  0  0  0  0  0  0  0  0  0  0
   -0.8005    4.1426    3.7273 C   0  0  2  0  0  3  0  0  0  0  0  0
   -1.5576    4.8528    4.8050 C   0  0  0  0  0  0  0  0  0  0  0  0
   -0.8631    5.3212    5.4988 H   0  0  0  0  0  0  0  0  0  0  0  0
   -2.1889    4.1459    5.3406 H   0  0  0  0  0  0  0  0  0  0  0  0
   -2.1996    5.6228    4.3796 H   0  0  0  0  0  0  0  0  0  0  0  0
    0.4620    4.2733    3.5151 N   0  0  0  0  0  0  0  0  0  0  0  0
    1.3112    5.1473    4.2174 C   0  0  0  0  0  0  0  0  0  0  0  0
    1.2449    6.5296    3.9895 C   0  0  0  0  0  0  0  0  0  0  0  0
    2.1583    7.3448    4.6444 C   0  0  0  0  0  0  0  0  0  0  0  0
    2.1267    8.4104    4.4804 H   0  0  0  0  0  0  0  0  0  0  0  0
    3.1130    6.8172    5.4896 C   0  0  0  0  0  0  0  0  0  0  0  0
    3.8173    7.4693    5.9838 H   0  0  0  0  0  0  0  0  0  0  0  0
    3.1763    5.4511    5.6916 C   0  0  0  0  0  0  0  0  0  0  0  0
    3.9358    5.0469    6.3412 H   0  0  0  0  0  0  0  0  0  0  0  0
    2.2830    4.5945    5.0677 C   0  0  0  0  0  0  0  0  0  0  0  0
    0.2680    7.1448    3.0136 C   0  0  0  0  0  0  0  0  0  0  0  0
   -0.3838    6.3632    2.6093 H   0  0  0  0  0  0  0  0  0  0  0  0
    1.0286    7.7539    1.8327 C   0  0  0  0  0  0  0  0  0  0  0  0
    1.6780    8.5603    2.1623 H   0  0  0  0  0  0  0  0  0  0  0  0
    0.3263    8.1513    1.1031 H   0  0  0  0  0  0  0  0  0  0  0  0
    1.6386    6.9914    1.3548 H   0  0  0  0  0  0  0  0  0  0  0  0
   -0.6065    8.2040    3.6918 C   0  0  0  0  0  0  0  0  0  0  0  0
   -1.0862    7.8102    4.5856 H   0  0  0  0  0  0  0  0  0  0  0  0
   -1.3777    8.5444    3.0042 H   0  0  0  0  0  0  0  0  0  0  0  0
   -0.0111    9.0656    3.9813 H   0  0  0  0  0  0  0  0  0  0  0  0
    2.3771    3.0980    5.2835 C   0  0  0  0  0  0  0  0  0  0  0  0
    1.4486    2.6176    4.9489 H   0  0  0  0  0  0  0  0  0  0  0  0
    2.5630    2.7382    6.7595 C   0  0  0  0  0  0  0  0  0  0  0  0
    3.5478    3.0250    7.1180 H   0  0  0  0  0  0  0  0  0  0  0  0
    2.4598    1.6635    6.8877 H   0  0  0  0  0  0  0  0  0  0  0  0
    1.8134    3.2323    7.3742 H   0  0  0  0  0  0  0  0  0  0  0  0
    3.5329    2.5296    4.4445 C   0  0  0  0  0  0  0  0  0  0  0  0
    3.3821    2.7404    3.3702 H   0  0  0  0  0  0  0  0  0  0  0  0
    3.5906    1.4512    4.5792 H   0  0  0  0  0  0  0  0  0  0  0  0
    4.4779    2.9749    4.7485 H   0  0  0  0  0  0  0  0  0  0  0  0
  1  4  1  0  0  0  0
  1 20  1  0  0  0  0
  2  1  1  0  0  0  0
  3  1  1  0  0  0  0
  5  6  1  0  0  0  0
  5  4  1  0  0  0  0
  6  7  1  6  0  0  0
  6 15  1  0  0  0  0
  7  8  1  0  0  0  0
  9  7  2  0  0  0  0
 10  9  1  0  0  0  0
 11  9  1  0  0  0  0
 11 13  2  0  0  0  0
 12 11  1  0  0  0  0
 13  5  1  0  0  0  0
 14 13  1  0  0  0  0
 15 16  1  6  0  0  0
 16 18  1  0  0  0  0
 16 17  1  0  0  0  0
 19 16  1  0  0  0  0
 20 15  1  0  0  0  0
 20 21  1  0  0  0  0
 21 29  1  0  0  0  0
 22 21  2  0  0  0  0
 22 23  1  0  0  0  0
 23 25  2  0  0  0  0
 24 23  1  0  0  0  0
 25 27  1  0  0  0  0
 25 26  1  0  0  0  0
 27 28  1  0  0  0  0
 29 40  1  0  0  0  0
 29 27  2  0  0  0  0
 30 36  1  0  0  0  0
 30 22  1  0  0  0  0
 31 30  1  0  0  0  0
 32 33  1  0  0  0  0
 32 30  1  0  0  0  0
 34 32  1  0  0  0  0
 35 32  1  0  0  0  0
 36 39  1  0  0  0  0
 36 37  1  0  0  0  0
 38 36  1  0  0  0  0
 40 42  1  0  0  0  0
 41 40  1  0  0  0  0
 42 44  1  0  0  0  0
 42 43  1  0  0  0  0
 42 45  1  0  0  0  0
 46 48  1  0  0  0  0
 46 49  1  0  0  0  0
 46 40  1  0  0  0  0
 47 46  1  0  0  0  0
M  END
$$$$
