CSD_code = KEFNEP | q = 0 | S = 0 | Stoichiometry = C25H28I2N4OZn | MND = 4
 OpenBabel04212202053D

 61 65  0  0  1  0  0  0  0  0999 V2000
   14.0070    9.8513    1.7877 Zn  0  0  0  0  0  0  0  0  0  0  0  0
   15.2428    8.3860    0.1689 I   0  0  0  0  0  0  0  0  0  0  0  0
   11.6678   10.8240    1.3080 I   0  0  0  0  0  0  0  0  0  0  0  0
   14.9139   11.6655    2.3423 N   0  0  0  0  0  0  0  0  0  0  0  0
   14.7898   12.0018    3.6385 N   0  0  2  0  0  0  0  0  0  0  0  0
   13.5976    9.2867    3.7779 N   0  0  0  0  0  0  0  0  0  0  0  0
   13.9334   10.1065    4.7879 N   0  0  1  0  0  0  0  0  0  0  0  0
   16.2842    9.4227    3.4254 O   0  0  0  0  0  0  0  0  0  0  0  0
   14.4405   14.0334    5.0725 C   0  0  0  0  0  0  0  0  0  0  0  0
   13.5568   13.6412    5.5763 H   0  0  0  0  0  0  0  0  0  0  0  0
   14.2847   15.0920    4.8863 H   0  0  0  0  0  0  0  0  0  0  0  0
   15.3005   13.9253    5.7324 H   0  0  0  0  0  0  0  0  0  0  0  0
   14.6550   13.3458    3.7751 C   0  0  2  0  0  3  0  0  0  0  0  0
   14.6948   13.8740    2.5065 C   0  0  0  0  0  0  0  0  0  0  0  0
   14.6024   14.9044    2.2331 H   0  0  0  0  0  0  0  0  0  0  0  0
   14.8574   12.7840    1.6386 C   0  0  0  0  0  0  0  0  0  0  0  0
   14.9204   12.7935    0.1580 C   0  0  0  0  0  0  0  0  0  0  0  0
   15.4092   11.8956   -0.2141 H   0  0  0  0  0  0  0  0  0  0  0  0
   15.4620   13.6704   -0.1886 H   0  0  0  0  0  0  0  0  0  0  0  0
   13.9112   12.8333   -0.2546 H   0  0  0  0  0  0  0  0  0  0  0  0
   13.3154   10.5789    7.1736 C   0  0  0  0  0  0  0  0  0  0  0  0
   12.5918   10.1839    7.8810 H   0  0  0  0  0  0  0  0  0  0  0  0
   13.1241   11.6449    7.0500 H   0  0  0  0  0  0  0  0  0  0  0  0
   14.3143   10.4473    7.5917 H   0  0  0  0  0  0  0  0  0  0  0  0
   13.1755    9.8534    5.8863 C   0  0  2  0  0  3  0  0  0  0  0  0
   12.3235    8.8289    5.5444 C   0  0  0  0  0  0  0  0  0  0  0  0
   11.5775    8.3751    6.1631 H   0  0  0  0  0  0  0  0  0  0  0  0
   12.6217    8.5059    4.2109 C   0  0  0  0  0  0  0  0  0  0  0  0
   11.9748    7.4910    3.3464 C   0  0  0  0  0  0  0  0  0  0  0  0
   11.6569    6.6367    3.9391 H   0  0  0  0  0  0  0  0  0  0  0  0
   12.6567    7.1561    2.5664 H   0  0  0  0  0  0  0  0  0  0  0  0
   11.0936    7.9221    2.8689 H   0  0  0  0  0  0  0  0  0  0  0  0
   15.0200   11.0374    4.6838 C   0  0  1  0  0  0  0  0  0  0  0  0
   15.0591   11.5879    5.6275 H   0  0  0  0  0  0  0  0  0  0  0  0
   16.4265   10.3478    4.4860 C   0  0  0  0  0  0  0  0  0  0  0  0
   16.8210    9.6191    5.7697 C   0  0  0  0  0  0  0  0  0  0  0  0
   16.0482    8.5379    6.1891 C   0  0  0  0  0  0  0  0  0  0  0  0
   15.2105    8.2068    5.5966 H   0  0  0  0  0  0  0  0  0  0  0  0
   16.3636    7.8424    7.3417 C   0  0  0  0  0  0  0  0  0  0  0  0
   15.7440    7.0132    7.6482 H   0  0  0  0  0  0  0  0  0  0  0  0
   17.4731    8.1994    8.0879 C   0  0  0  0  0  0  0  0  0  0  0  0
   17.7187    7.6613    8.9906 H   0  0  0  0  0  0  0  0  0  0  0  0
   18.2824    9.2306    7.6466 C   0  0  0  0  0  0  0  0  0  0  0  0
   19.1741    9.4930    8.1957 H   0  0  0  0  0  0  0  0  0  0  0  0
   17.9669    9.9280    6.4925 C   0  0  0  0  0  0  0  0  0  0  0  0
   18.6365   10.7025    6.1534 H   0  0  0  0  0  0  0  0  0  0  0  0
   17.3572   11.5000    4.1118 C   0  0  0  0  0  0  0  0  0  0  0  0
   17.5996   12.5314    5.0154 C   0  0  0  0  0  0  0  0  0  0  0  0
   17.1927   12.4830    6.0166 H   0  0  0  0  0  0  0  0  0  0  0  0
   18.3644   13.6234    4.6489 C   0  0  0  0  0  0  0  0  0  0  0  0
   18.5447   14.4127    5.3637 H   0  0  0  0  0  0  0  0  0  0  0  0
   18.8884   13.7087    3.3701 C   0  0  0  0  0  0  0  0  0  0  0  0
   19.4809   14.5643    3.0840 H   0  0  0  0  0  0  0  0  0  0  0  0
   18.6390   12.6962    2.4620 C   0  0  0  0  0  0  0  0  0  0  0  0
   19.0315   12.7569    1.4584 H   0  0  0  0  0  0  0  0  0  0  0  0
   17.8750   11.6014    2.8277 C   0  0  0  0  0  0  0  0  0  0  0  0
   17.6649   10.8351    2.0990 H   0  0  0  0  0  0  0  0  0  0  0  0
   17.3374    8.4839    3.2965 C   0  0  0  0  0  0  0  0  0  0  0  0
   17.2571    8.0741    2.2923 H   0  0  0  0  0  0  0  0  0  0  0  0
   17.2383    7.6731    4.0245 H   0  0  0  0  0  0  0  0  0  0  0  0
   18.3148    8.9562    3.4228 H   0  0  0  0  0  0  0  0  0  0  0  0
  1  4  1  0  0  0  0
  1  6  1  0  0  0  0
  2  1  1  0  0  0  0
  3  1  1  0  0  0  0
  5  4  1  6  0  0  0
  5 13  1  0  0  0  0
  5 33  1  0  0  0  0
  6 28  1  0  0  0  0
  7  6  1  1  0  0  0
  7 25  1  0  0  0  0
  8 35  1  0  0  0  0
  9 10  1  0  0  0  0
  9 12  1  0  0  0  0
 11  9  1  0  0  0  0
 13  9  1  6  0  0  0
 14 13  1  0  0  0  0
 15 14  1  0  0  0  0
 16  4  1  0  0  0  0
 16 14  2  0  0  0  0
 17 16  1  0  0  0  0
 18 17  1  0  0  0  0
 19 17  1  0  0  0  0
 20 17  1  0  0  0  0
 21 24  1  0  0  0  0
 21 22  1  0  0  0  0
 23 21  1  0  0  0  0
 25 21  1  1  0  0  0
 26 25  1  0  0  0  0
 26 27  1  0  0  0  0
 28 26  2  0  0  0  0
 29 30  1  0  0  0  0
 29 28  1  0  0  0  0
 31 29  1  0  0  0  0
 32 29  1  0  0  0  0
 33  7  1  0  0  0  0
 33 34  1  1  0  0  0
 35 33  1  0  0  0  0
 35 36  1  0  0  0  0
 36 37  2  0  0  0  0
 36 45  1  0  0  0  0
 37 39  1  0  0  0  0
 38 37  1  0  0  0  0
 39 40  1  0  0  0  0
 39 41  2  0  0  0  0
 41 42  1  0  0  0  0
 43 41  1  0  0  0  0
 43 44  1  0  0  0  0
 45 43  2  0  0  0  0
 46 45  1  0  0  0  0
 47 35  1  0  0  0  0
 47 48  1  0  0  0  0
 48 49  1  0  0  0  0
 50 48  2  0  0  0  0
 50 51  1  0  0  0  0
 52 50  1  0  0  0  0
 53 52  1  0  0  0  0
 54 56  1  0  0  0  0
 54 52  2  0  0  0  0
 55 54  1  0  0  0  0
 56 47  2  0  0  0  0
 57 56  1  0  0  0  0
 58 61  1  0  0  0  0
 58  8  1  0  0  0  0
 58 60  1  0  0  0  0
 59 58  1  0  0  0  0
M  END
$$$$
