CSD_code = KEFYEZ | q = 0 | S = 0 | Stoichiometry = C10H16Cl2N4Pd | MND = 4
 OpenBabel04212202053D

 33 34  0  0  1  0  0  0  0  0999 V2000
   -0.4675    4.9489   14.3184 Pd  0  0  0  0  0  0  0  0  0  0  0  0
    0.9111    6.7777   14.3600 Cl  0  0  0  0  0  0  0  0  0  0  0  0
   -1.9553    3.2433   13.9590 Cl  0  0  0  0  0  0  0  0  0  0  0  0
    0.9695    3.9689   13.4068 N   0  0  0  0  0  0  0  0  0  0  0  0
    1.4435    4.3035   12.2029 N   0  0  0  0  0  0  0  0  0  0  0  0
   -1.9126    5.9334   15.2123 N   0  0  0  0  0  0  0  0  0  0  0  0
   -3.0443    6.2915   14.5980 N   0  0  0  0  0  0  0  0  0  0  0  0
    2.4357    3.4703   11.8224 C   0  0  1  0  0  3  0  0  0  0  0  0
    2.5805    2.5518   12.8409 C   0  0  0  0  0  0  0  0  0  0  0  0
    1.6403    2.9072   13.8219 C   0  0  0  0  0  0  0  0  0  0  0  0
    3.1452    3.6201   10.5282 C   0  0  0  0  0  0  0  0  0  0  0  0
    1.3453    2.2957   15.1456 C   0  0  0  0  0  0  0  0  0  0  0  0
   -3.8734    6.9383   15.4451 C   0  0  1  0  0  3  0  0  0  0  0  0
   -3.2152    7.0034   16.6552 C   0  0  0  0  0  0  0  0  0  0  0  0
   -1.9854    6.3521   16.4649 C   0  0  0  0  0  0  0  0  0  0  0  0
   -5.2046    7.4398   15.0241 C   0  0  0  0  0  0  0  0  0  0  0  0
   -0.8705    6.0949   17.4155 C   0  0  0  0  0  0  0  0  0  0  0  0
    1.1201    5.1456   11.7411 H   0  0  0  0  0  0  0  0  0  0  0  0
   -3.2295    5.9862   13.6494 H   0  0  0  0  0  0  0  0  0  0  0  0
    3.2721    1.7362   12.8818 H   0  0  0  0  0  0  0  0  0  0  0  0
    3.5936    4.6097   10.4511 H   0  0  0  0  0  0  0  0  0  0  0  0
    3.9281    2.8725   10.4467 H   0  0  0  0  0  0  0  0  0  0  0  0
    2.4535    3.4944    9.6957 H   0  0  0  0  0  0  0  0  0  0  0  0
    0.7137    2.9880   15.7247 H   0  0  0  0  0  0  0  0  0  0  0  0
    0.8026    1.3595   15.0178 H   0  0  0  0  0  0  0  0  0  0  0  0
    2.2646    2.0948   15.6916 H   0  0  0  0  0  0  0  0  0  0  0  0
   -3.5693    7.4520   17.5599 H   0  0  0  0  0  0  0  0  0  0  0  0
   -5.8058    6.6292   14.6148 H   0  0  0  0  0  0  0  0  0  0  0  0
   -5.7248    7.8683   15.8751 H   0  0  0  0  0  0  0  0  0  0  0  0
   -5.0997    8.2063   14.2567 H   0  0  0  0  0  0  0  0  0  0  0  0
   -0.1950    5.3439   16.9773 H   0  0  0  0  0  0  0  0  0  0  0  0
   -0.3023    7.0085   17.5884 H   0  0  0  0  0  0  0  0  0  0  0  0
   -1.2512    5.7343   18.3686 H   0  0  0  0  0  0  0  0  0  0  0  0
  1  2  1  0  0  0  0
  1  6  1  0  0  0  0
  3  1  1  0  0  0  0
  4 10  1  0  0  0  0
  4  1  1  0  0  0  0
  5  4  1  0  0  0  0
  6 15  1  0  0  0  0
  7  6  1  0  0  0  0
  7 13  1  0  0  0  0
  8 11  1  6  0  0  0
  8  5  1  0  0  0  0
  8  9  1  0  0  0  0
  9 20  1  0  0  0  0
  9 10  2  0  0  0  0
 10 12  1  0  0  0  0
 12 26  1  0  0  0  0
 12 24  1  0  0  0  0
 13 16  1  6  0  0  0
 13 14  1  0  0  0  0
 14 27  1  0  0  0  0
 15 14  2  0  0  0  0
 15 17  1  0  0  0  0
 16 29  1  0  0  0  0
 17 32  1  0  0  0  0
 17 33  1  0  0  0  0
 18  5  1  0  0  0  0
 19  7  1  0  0  0  0
 21 11  1  0  0  0  0
 22 11  1  0  0  0  0
 23 11  1  0  0  0  0
 25 12  1  0  0  0  0
 28 16  1  0  0  0  0
 30 16  1  0  0  0  0
 31 17  1  0  0  0  0
M  END
$$$$
