CSD_code = KEGCOO | q = 0 | S = 0 | Stoichiometry = C23H27ClN2OPt | MND = 6
 OpenBabel04212202053D

 55 57  0  0  1  0  0  0  0  0999 V2000
   11.1898    1.1542    2.9250 Pt  0  0  0  0  0  0  0  0  0  0  0  0
   13.2877    0.4123    1.9586 Cl  0  0  0  0  0 15  0  0  0  0  0  0
   12.2217    1.2997    4.9816 N   0  0  0  0  0  0  0  0  0  0  0  0
   10.9489   -0.8434    3.9674 N   0  0  0  0  0  0  0  0  0  0  0  0
    7.0215    1.5251    3.9068 O   0  0  0  0  0  0  0  0  0  0  0  0
    9.4445    1.8597    3.7661 C   0  0  1  0  0  0  0  0  0  0  0  0
    9.4565    3.3916    3.6939 C   0  0  0  0  0  0  0  0  0  0  0  0
   10.0677    3.9007    2.3742 C   0  0  0  0  0  0  0  0  0  0  0  0
   10.9529    2.8417    1.7385 C   0  0  2  0  0  0  0  0  0  0  0  0
   10.4270    1.7025    1.0605 C   0  0  0  0  0  3  0  0  0  0  0  0
    8.9789    1.4402    0.7031 C   0  0  0  0  0  0  0  0  0  0  0  0
    7.8968    1.7649    1.7330 C   0  0  0  0  0  0  0  0  0  0  0  0
    8.1978    1.2412    3.1362 C   0  0  2  0  0  0  0  0  0  0  0  0
    6.8408    0.7141    5.0310 C   0  0  0  0  0  0  0  0  0  0  0  0
   12.2936    0.3060    7.1790 C   0  0  0  0  0  0  0  0  0  0  0  0
   13.3764    2.3984    6.7393 C   0  0  0  0  0  0  0  0  0  0  0  0
   13.0343    1.4127    7.6290 C   0  0  0  0  0  0  0  0  0  0  0  0
   12.9550    2.3117    5.4002 C   0  0  0  0  0  0  0  0  0  0  0  0
   11.9331   -0.7897    8.0112 C   0  0  0  0  0  0  0  0  0  0  0  0
   11.2698   -1.8590    7.5072 C   0  0  0  0  0  0  0  0  0  0  0  0
   10.9222   -1.9236    6.1290 C   0  0  0  0  0  0  0  0  0  0  0  0
   10.3033   -3.0401    5.5403 C   0  0  0  0  0  0  0  0  0  0  0  0
   10.0727   -3.0407    4.1891 C   0  0  0  0  0  0  0  0  0  0  0  0
   10.4236   -1.9203    3.4153 C   0  0  0  0  0  0  0  0  0  0  0  0
   11.2245   -0.8362    5.2829 C   0  0  0  0  0  0  0  0  0  0  0  0
   11.9138    0.3006    5.8201 C   0  0  0  0  0  0  0  0  0  0  0  0
   10.2304   -1.9215    1.9380 C   0  0  0  0  0  0  0  0  0  0  0  0
   13.3221    3.3461    4.3954 C   0  0  0  0  0  0  0  0  0  0  0  0
    9.4392    1.5686    4.8287 H   0  0  0  0  0  0  0  0  0  0  0  0
    8.4416    3.7754    3.8333 H   0  0  0  0  0  0  0  0  0  0  0  0
   10.0593    3.7637    4.5261 H   0  0  0  0  0  0  0  0  0  0  0  0
   10.6606    4.7970    2.5685 H   0  0  0  0  0  0  0  0  0  0  0  0
    9.2915    4.1859    1.6612 H   0  0  0  0  0  0  0  0  0  0  0  0
   11.9100    3.2137    1.3684 H   0  0  0  0  0  0  0  0  0  0  0  0
   11.0898    1.2919    0.2924 H   0  0  0  0  0  0  0  0  0  0  0  0
    8.8921    0.3847    0.4310 H   0  0  0  0  0  0  0  0  0  0  0  0
    8.7653    2.0149   -0.2060 H   0  0  0  0  0  0  0  0  0  0  0  0
    7.7183    2.8343    1.8020 H   0  0  0  0  0  0  0  0  0  0  0  0
    6.9581    1.3122    1.4038 H   0  0  0  0  0  0  0  0  0  0  0  0
    8.3178    0.1440    3.0973 H   0  0  0  0  0  0  0  0  0  0  0  0
    5.8762    0.9880    5.4560 H   0  0  0  0  0  0  0  0  0  0  0  0
    7.6193    0.8664    5.7895 H   0  0  0  0  0  0  0  0  0  0  0  0
    6.8283   -0.3507    4.7584 H   0  0  0  0  0  0  0  0  0  0  0  0
   13.9670    3.2456    7.0529 H   0  0  0  0  0  0  0  0  0  0  0  0
   13.3403    1.4639    8.6642 H   0  0  0  0  0  0  0  0  0  0  0  0
   12.2138   -0.7529    9.0538 H   0  0  0  0  0  0  0  0  0  0  0  0
   11.0074   -2.6958    8.1380 H   0  0  0  0  0  0  0  0  0  0  0  0
   10.0396   -3.8899    6.1533 H   0  0  0  0  0  0  0  0  0  0  0  0
    9.6280   -3.8956    3.7029 H   0  0  0  0  0  0  0  0  0  0  0  0
   10.6048   -2.8487    1.5088 H   0  0  0  0  0  0  0  0  0  0  0  0
   10.7753   -1.0778    1.5103 H   0  0  0  0  0  0  0  0  0  0  0  0
    9.1734   -1.8347    1.6885 H   0  0  0  0  0  0  0  0  0  0  0  0
   14.2484    3.8467    4.6650 H   0  0  0  0  0  0  0  0  0  0  0  0
   12.5315    4.0919    4.3197 H   0  0  0  0  0  0  0  0  0  0  0  0
   13.4281    2.8636    3.4228 H   0  0  0  0  0  0  0  0  0  0  0  0
  1  6  1  0  0  0  0
  3 18  2  0  0  0  0
  3 26  1  0  0  0  0
  4 25  1  0  0  0  0
  5 14  1  0  0  0  0
  6 29  1  1  0  0  0
  7  6  1  0  0  0  0
  7 30  1  0  0  0  0
  7 31  1  0  0  0  0
  8 32  1  0  0  0  0
  8  7  1  0  0  0  0
  9 34  1  6  0  0  0
  9  8  1  0  0  0  0
  9  1  1  0  0  0  0
 10  9  1  0  0  0  0
 11 10  1  0  0  0  0
 11 12  1  0  0  0  0
 12 38  1  0  0  0  0
 12 13  1  0  0  0  0
 13 40  1  6  0  0  0
 13  6  1  0  0  0  0
 13  5  1  0  0  0  0
 14 41  1  0  0  0  0
 14 42  1  0  0  0  0
 15 17  1  0  0  0  0
 15 19  1  0  0  0  0
 16 44  1  0  0  0  0
 16 17  2  0  0  0  0
 17 45  1  0  0  0  0
 18 16  1  0  0  0  0
 19 46  1  0  0  0  0
 20 19  2  0  0  0  0
 20 47  1  0  0  0  0
 21 20  1  0  0  0  0
 22 21  1  0  0  0  0
 22 48  1  0  0  0  0
 23 22  2  0  0  0  0
 24  4  2  0  0  0  0
 24 23  1  0  0  0  0
 25 26  1  0  0  0  0
 25 21  2  0  0  0  0
 26 15  2  0  0  0  0
 27 24  1  0  0  0  0
 28 53  1  0  0  0  0
 28 18  1  0  0  0  0
 33  8  1  0  0  0  0
 35 10  1  0  0  0  0
 36 11  1  0  0  0  0
 37 11  1  0  0  0  0
 39 12  1  0  0  0  0
 43 14  1  0  0  0  0
 49 23  1  0  0  0  0
 50 27  1  0  0  0  0
 51 27  1  0  0  0  0
 52 27  1  0  0  0  0
 54 28  1  0  0  0  0
 55 28  1  0  0  0  0
M  END
$$$$
