CSD_code = KEGVAT | q = 0 | S = 0 | Stoichiometry = C12H13AuClP | MND = 2
 OpenBabel04212202053D

 28 29  0  0  0  0  0  0  0  0999 V2000
   10.8898    8.4452   16.5236 Au  0  0  0  0  0  0  0  0  0  0  0  0
   12.4122    8.2368   14.8832 P   0  0  2  0  0  4  0  0  0  0  0  0
    9.3998    8.6037   18.2199 Cl  0  0  0  0  0  0  0  0  0  0  0  0
   13.7138    7.0058   15.1585 C   0  0  0  0  0  0  0  0  0  0  0  0
   14.7352    6.8448   14.2265 C   0  0  0  0  0  0  0  0  0  0  0  0
   15.7176    5.9001   14.4512 C   0  0  0  0  0  0  0  0  0  0  0  0
   15.6829    5.1182   15.5967 C   0  0  0  0  0  0  0  0  0  0  0  0
   14.6651    5.2795   16.5219 C   0  0  0  0  0  0  0  0  0  0  0  0
   13.6770    6.2248   16.3066 C   0  0  0  0  0  0  0  0  0  0  0  0
   13.2055    9.7478   14.3591 C   0  0  0  0  0  0  0  0  0  0  0  0
   12.8379   10.0630   13.0977 C   0  0  0  0  0  0  0  0  0  0  0  0
   12.0153    9.0390   12.4532 C   0  0  0  0  0  0  0  0  0  0  0  0
   11.7714    7.9668   13.2383 C   0  0  0  0  0  0  0  0  0  0  0  0
   13.2216   11.3126   12.3855 C   0  0  0  0  0  0  0  0  0  0  0  0
   11.5282    9.2001   11.0557 C   0  0  0  0  0  0  0  0  0  0  0  0
   14.7489    7.4606   13.3378 H   0  0  0  0  0  0  0  0  0  0  0  0
   16.5136    5.7709   13.7327 H   0  0  0  0  0  0  0  0  0  0  0  0
   16.4536    4.3815   15.7672 H   0  0  0  0  0  0  0  0  0  0  0  0
   14.6400    4.6703   17.4129 H   0  0  0  0  0  0  0  0  0  0  0  0
   12.8763    6.3641   17.0217 H   0  0  0  0  0  0  0  0  0  0  0  0
   13.7884   10.3695   15.0187 H   0  0  0  0  0  0  0  0  0  0  0  0
   11.1714    7.1130   12.9697 H   0  0  0  0  0  0  0  0  0  0  0  0
   13.7737   11.0790   11.4756 H   0  0  0  0  0  0  0  0  0  0  0  0
   13.8394   11.9429   13.0196 H   0  0  0  0  0  0  0  0  0  0  0  0
   12.3306   11.8703   12.0991 H   0  0  0  0  0  0  0  0  0  0  0  0
   12.3673    9.3182   10.3707 H   0  0  0  0  0  0  0  0  0  0  0  0
   10.9059   10.0907   10.9751 H   0  0  0  0  0  0  0  0  0  0  0  0
   10.9438    8.3366   10.7498 H   0  0  0  0  0  0  0  0  0  0  0  0
  1  3  1  0  0  0  0
  2  4  1  0  0  0  0
  2  1  1  1  0  0  0
  4  9  1  0  0  0  0
  5  6  1  0  0  0  0
  5  4  2  0  0  0  0
  6  7  2  0  0  0  0
  7 18  1  0  0  0  0
  7  8  1  0  0  0  0
  8 19  1  0  0  0  0
  9  8  2  0  0  0  0
  9 20  1  0  0  0  0
 10  2  1  0  0  0  0
 10 21  1  0  0  0  0
 11 10  2  0  0  0  0
 12 11  1  0  0  0  0
 12 13  2  0  0  0  0
 13  2  1  0  0  0  0
 14 24  1  0  0  0  0
 14 11  1  0  0  0  0
 15 12  1  0  0  0  0
 16  5  1  0  0  0  0
 17  6  1  0  0  0  0
 22 13  1  0  0  0  0
 23 14  1  0  0  0  0
 25 14  1  0  0  0  0
 26 15  1  0  0  0  0
 27 15  1  0  0  0  0
 28 15  1  0  0  0  0
M  END
$$$$
