CSD_code = KEHLEO | q = 0 | S = 0 | Stoichiometry = C15H21ClSiZr | MND = 12
 OpenBabel04212202053D

 39 40  0  0  1  0  0  0  0  0999 V2000
    1.6798    2.7419    1.9898 Zr  0  0  2  0  0  0  0  0  0  0  0  0
    0.6877    1.9877   -0.0028 Cl  0  0  0  0  0  0  0  0  0  0  0  0
    6.5721    2.7663    1.2902 Si  0  0  0  0  0  0  0  0  0  0  0  0
    3.6997    2.5174    1.2024 C   0  0  0  0  0  0  0  0  0  0  0  0
    4.7768    2.8924    1.8950 C   0  0  0  0  0  0  0  0  0  0  0  0
    7.6968    2.3850    2.7864 C   0  0  0  0  0  0  0  0  0  0  0  0
    6.7352    1.3828   -0.0138 C   0  0  0  0  0  0  0  0  0  0  0  0
    7.0875    4.4392    0.5197 C   0  0  0  0  0  0  0  0  0  0  0  0
    1.6901    1.9212    4.3522 C   0  0  0  0  0  3  0  0  0  0  0  0
    2.5573    1.0718    3.6303 C   0  0  1  0  0  0  0  0  0  0  0  0
    1.7776    0.3411    2.7013 C   0  0  0  0  0  3  0  0  0  0  0  0
    0.4324    0.7336    2.8576 C   0  0  0  0  0  0  0  0  0  0  0  0
    0.3755    1.7152    3.8692 C   0  0  0  0  0  0  0  0  0  0  0  0
    0.7494    4.7245    3.2290 C   0  0  0  0  0  0  0  0  0  0  0  0
    2.1101    5.0013    2.9785 C   0  0  0  0  0  0  0  0  0  0  0  0
    2.2762    5.1391    1.5775 C   0  0  0  0  0  0  0  0  0  0  0  0
    1.0182    4.9380    0.9710 C   0  0  0  0  0  0  0  0  0  0  0  0
    0.0776    4.6611    1.9868 C   0  0  1  0  0  0  0  0  0  0  0  0
    3.9015    2.0819    0.2066 H   0  0  0  0  0  0  0  0  0  0  0  0
    4.6383    3.3318    2.8914 H   0  0  0  0  0  0  0  0  0  0  0  0
    7.6042    3.1454    3.5559 H   0  0  0  0  0  0  0  0  0  0  0  0
    7.4530    1.4287    3.2390 H   0  0  0  0  0  0  0  0  0  0  0  0
    8.7402    2.3490    2.4896 H   0  0  0  0  0  0  0  0  0  0  0  0
    6.3159    0.4473    0.3447 H   0  0  0  0  0  0  0  0  0  0  0  0
    6.2203    1.6427   -0.9336 H   0  0  0  0  0  0  0  0  0  0  0  0
    7.7760    1.2015   -0.2647 H   0  0  0  0  0  0  0  0  0  0  0  0
    6.4407    4.7067   -0.3107 H   0  0  0  0  0  0  0  0  0  0  0  0
    7.0374    5.2443    1.2468 H   0  0  0  0  0  0  0  0  0  0  0  0
    8.1056    4.4011    0.1440 H   0  0  0  0  0  0  0  0  0  0  0  0
    1.9649    2.5145    5.2167 H   0  0  0  0  0  0  0  0  0  0  0  0
    3.6049    0.9003    3.8468 H   0  0  0  0  0  0  0  0  0  0  0  0
    2.1370   -0.4518    2.0556 H   0  0  0  0  0  0  0  0  0  0  0  0
   -0.4182    0.2926    2.3514 H   0  0  0  0  0  0  0  0  0  0  0  0
   -0.5339    2.1147    4.3058 H   0  0  0  0  0  0  0  0  0  0  0  0
    0.2790    4.7112    4.2053 H   0  0  0  0  0  0  0  0  0  0  0  0
    2.8590    5.2269    3.7285 H   0  0  0  0  0  0  0  0  0  0  0  0
    3.1755    5.4767    1.0755 H   0  0  0  0  0  0  0  0  0  0  0  0
    0.7969    5.0539   -0.0830 H   0  0  0  0  0  0  0  0  0  0  0  0
   -0.9933    4.5552    1.8448 H   0  0  0  0  0  0  0  0  0  0  0  0
  1  2  1  6  0  0  0
  1 10  1  0  0  0  0
  3  5  1  0  0  0  0
  3  6  1  0  0  0  0
  4  5  2  0  0  0  0
  4  1  1  0  0  0  0
  5 20  1  0  0  0  0
  6 22  1  0  0  0  0
  6 21  1  0  0  0  0
  7 24  1  0  0  0  0
  7  3  1  0  0  0  0
  8 28  1  0  0  0  0
  8  3  1  0  0  0  0
  9 30  1  0  0  0  0
 10 31  1  1  0  0  0
 10  9  1  0  0  0  0
 11 12  1  0  0  0  0
 11 10  1  0  0  0  0
 12 13  2  0  0  0  0
 13 34  1  0  0  0  0
 13  9  1  0  0  0  0
 14 35  1  0  0  0  0
 15 14  2  0  0  0  0
 15 36  1  0  0  0  0
 16 15  1  0  0  0  0
 17 16  2  0  0  0  0
 17 18  1  0  0  0  0
 18 39  1  6  0  0  0
 18  1  1  0  0  0  0
 18 14  1  0  0  0  0
 19  4  1  0  0  0  0
 23  6  1  0  0  0  0
 25  7  1  0  0  0  0
 26  7  1  0  0  0  0
 27  8  1  0  0  0  0
 29  8  1  0  0  0  0
 32 11  1  0  0  0  0
 33 12  1  0  0  0  0
 37 16  1  0  0  0  0
 38 17  1  0  0  0  0
M  END
$$$$
