CSD_code = KEHMAL | q = 0 | S = 0 | Stoichiometry = C14H24Cl2NRe | MND = 8
 OpenBabel04212202053D

 42 42  0  0  1  0  0  0  0  0999 V2000
   -0.5448    2.0850    3.5696 Re  0  0  0  0  0  0  0  0  0  0  0  0
   -2.4263    1.0387    2.7303 Cl  0  0  0  0  0  0  0  0  0  0  0  0
   -0.3173    3.1035    1.5069 Cl  0  0  0  0  0  0  0  0  0  0  0  0
   -1.3096    3.3897    4.4250 N   0  0  0  0  0  2  0  0  0  0  0  0
   -2.0631    4.4792    4.8868 C   0  0  0  0  0  0  0  0  0  0  0  0
   -2.2845    4.3532    6.4024 C   0  0  0  0  0  0  0  0  0  0  0  0
   -3.4088    4.4302    4.1379 C   0  0  0  0  0  0  0  0  0  0  0  0
   -1.3107    5.7775    4.5492 C   0  0  0  0  0  0  0  0  0  0  0  0
    0.4541   -0.3216    3.0384 C   0  0  0  0  0  0  0  0  0  0  0  0
    1.3764    0.5792    2.5157 C   0  0  0  0  0  0  0  0  0  0  0  0
    1.7309    1.5265    3.5576 C   0  0  1  0  0  3  0  0  0  0  0  0
    1.0961    1.1026    4.7746 C   0  0  2  0  0  0  0  0  0  0  0  0
    0.2030    0.0337    4.4233 C   0  0  2  0  0  3  0  0  0  0  0  0
   -0.1957   -1.4778    2.3606 C   0  0  0  0  0  0  0  0  0  0  0  0
    1.9536    0.6199    1.1431 C   0  0  0  0  0  0  0  0  0  0  0  0
    2.8669    2.4919    3.4371 C   0  0  0  0  0  0  0  0  0  0  0  0
    1.4823    1.5126    6.1661 C   0  0  0  0  0  0  0  0  0  0  0  0
   -0.5521   -0.8424    5.3712 C   0  0  0  0  0  0  0  0  0  0  0  0
   -2.8950    5.1789    6.7557 H   0  0  0  0  0  0  0  0  0  0  0  0
   -2.7874    3.4154    6.6226 H   0  0  0  0  0  0  0  0  0  0  0  0
   -1.3290    4.3691    6.9203 H   0  0  0  0  0  0  0  0  0  0  0  0
   -4.0326    5.2674    4.4359 H   0  0  0  0  0  0  0  0  0  0  0  0
   -3.2241    4.4723    3.0672 H   0  0  0  0  0  0  0  0  0  0  0  0
   -3.9181    3.4962    4.3601 H   0  0  0  0  0  0  0  0  0  0  0  0
   -1.9164    6.6390    4.8143 H   0  0  0  0  0  0  0  0  0  0  0  0
   -0.3717    5.8169    5.0947 H   0  0  0  0  0  0  0  0  0  0  0  0
   -1.0949    5.7996    3.4842 H   0  0  0  0  0  0  0  0  0  0  0  0
    0.2486   -1.6637    1.3858 H   0  0  0  0  0  0  0  0  0  0  0  0
   -0.1024   -2.3769    2.9701 H   0  0  0  0  0  0  0  0  0  0  0  0
   -1.2604   -1.2756    2.2175 H   0  0  0  0  0  0  0  0  0  0  0  0
    3.0410    0.6829    1.1901 H   0  0  0  0  0  0  0  0  0  0  0  0
    1.6747   -0.2624    0.5723 H   0  0  0  0  0  0  0  0  0  0  0  0
    1.5866    1.5007    0.6100 H   0  0  0  0  0  0  0  0  0  0  0  0
    2.8682    3.2022    4.2609 H   0  0  0  0  0  0  0  0  0  0  0  0
    3.8180    1.9551    3.4414 H   0  0  0  0  0  0  0  0  0  0  0  0
    2.7926    3.0469    2.5032 H   0  0  0  0  0  0  0  0  0  0  0  0
    0.6442    1.4144    6.8530 H   0  0  0  0  0  0  0  0  0  0  0  0
    2.2922    0.8712    6.5195 H   0  0  0  0  0  0  0  0  0  0  0  0
    1.8279    2.5439    6.1913 H   0  0  0  0  0  0  0  0  0  0  0  0
   -1.5080   -1.1313    4.9364 H   0  0  0  0  0  0  0  0  0  0  0  0
    0.0176   -1.7507    5.5785 H   0  0  0  0  0  0  0  0  0  0  0  0
   -0.7416   -0.3316    6.3128 H   0  0  0  0  0  0  0  0  0  0  0  0
  1  4  1  0  0  0  0
  1 12  1  0  0  0  0
  2  1  1  0  0  0  0
  3  1  1  0  0  0  0
  4  5  1  0  0  0  0
  5  6  1  0  0  0  0
  6 20  1  0  0  0  0
  6 19  1  0  0  0  0
  6 21  1  0  0  0  0
  7 24  1  0  0  0  0
  7 22  1  0  0  0  0
  7  5  1  0  0  0  0
  8 25  1  0  0  0  0
  8  5  1  0  0  0  0
  8 26  1  0  0  0  0
  9 13  1  0  0  0  0
 10  9  2  0  0  0  0
 10 11  1  0  0  0  0
 11 16  1  1  0  0  0
 11 12  1  0  0  0  0
 12 17  1  1  0  0  0
 13 12  1  0  0  0  0
 13 18  1  1  0  0  0
 14 29  1  0  0  0  0
 14  9  1  0  0  0  0
 15 31  1  0  0  0  0
 15 10  1  0  0  0  0
 16 35  1  0  0  0  0
 16 34  1  0  0  0  0
 17 39  1  0  0  0  0
 17 38  1  0  0  0  0
 17 37  1  0  0  0  0
 18 41  1  0  0  0  0
 18 42  1  0  0  0  0
 23  7  1  0  0  0  0
 27  8  1  0  0  0  0
 28 14  1  0  0  0  0
 30 14  1  0  0  0  0
 32 15  1  0  0  0  0
 33 15  1  0  0  0  0
 36 16  1  0  0  0  0
 40 18  1  0  0  0  0
M  END
$$$$
