CSD_code = KEHXAW | q = 0 | S = 0 | Stoichiometry = C32H16Cl2FeN8 | MND = 6
 OpenBabel04212202063D

 59 70  0  0  0  0  0  0  0  0999 V2000
    2.3635    0.3096   12.0405 Cl  0  0  0  0  0  0  0  0  0  0  0  0
    3.1639    0.0000   10.1267 Fe  0  0  0  0  0  0  0  0  0  0  0  0
   -0.5323    3.5079    8.0265 C   0  0  0  0  0  0  0  0  0  0  0  0
    2.2936    3.1107    9.2606 N   0  0  0  0  0  0  0  0  0  0  0  0
    5.2802    1.9951   10.6910 C   0  0  0  0  0  0  0  0  0  0  0  0
    8.7603   -2.1123   12.7861 C   0  0  0  0  0  0  0  0  0  0  0  0
    1.4260    2.1467    9.0548 C   0  0  0  0  0  0  0  0  0  0  0  0
    6.1304    1.1246   11.1847 N   0  0  0  0  0  0  0  0  0  0  0  0
    4.0332    1.7564   10.2061 N   0  0  0  0  0  4  0  0  0  0  0  0
    3.4824    2.9260    9.7869 C   0  0  0  0  0  0  0  0  0  0  0  0
    5.5681    3.4128   10.5850 C   0  0  0  0  0  0  0  0  0  0  0  0
    5.8851   -0.1613   11.2876 C   0  0  0  0  0  0  0  0  0  0  0  0
    6.6719    4.1748   10.9279 C   0  0  0  0  0  0  0  0  0  0  0  0
    4.3738    5.3655    9.7680 C   0  0  0  0  0  0  0  0  0  0  0  0
    8.1187   -0.9687   12.3382 C   0  0  0  0  0  0  0  0  0  0  0  0
    0.1145    2.3696    8.4762 C   0  0  0  0  0  0  0  0  0  0  0  0
    4.4277    4.0035   10.0100 C   0  0  0  0  0  0  0  0  0  0  0  0
    6.6107    5.5373   10.6835 C   0  0  0  0  0  0  0  0  0  0  0  0
    6.8375   -1.1098   11.8330 C   0  0  0  0  0  0  0  0  0  0  0  0
    5.4822    6.1219   10.1134 C   0  0  0  0  0  0  0  0  0  0  0  0
   -1.8142    3.3593    7.5218 C   0  0  0  0  0  0  0  0  0  0  0  0
    1.5731    0.8234    9.3279 N   0  0  0  0  0  0  0  0  0  0  0  0
    7.4539    6.1624   10.9384 H   0  0  0  0  0  0  0  0  0  0  0  0
    5.4743    7.1876    9.9386 H   0  0  0  0  0  0  0  0  0  0  0  0
    3.4964    5.8097    9.3264 H   0  0  0  0  0  0  0  0  0  0  0  0
   -0.0464    4.4692    8.0726 H   0  0  0  0  0  0  0  0  0  0  0  0
   -2.3479    4.2267    7.1624 H   0  0  0  0  0  0  0  0  0  0  0  0
    7.5411    3.7136   11.3686 H   0  0  0  0  0  0  0  0  0  0  0  0
    9.7609   -2.0386   13.1857 H   0  0  0  0  0  0  0  0  0  0  0  0
    8.5894    0.0005   12.3764 H   0  0  0  0  0  0  0  0  0  0  0  0
    3.9643   -0.3096    8.2130 Cl  0  0  0  0  0  0  0  0  0  0  0  0
    2.2946   -1.7564   10.0474 N   0  0  0  0  0  4  0  0  0  0  0  0
    4.7547   -0.8234   10.9256 N   0  0  0  0  0  0  0  0  0  0  0  0
   -0.5097    1.1098    8.4204 C   0  0  0  0  0  0  0  0  0  0  0  0
    6.2133   -2.3696   11.7773 C   0  0  0  0  0  0  0  0  0  0  0  0
    8.1420   -3.3593   12.7316 C   0  0  0  0  0  0  0  0  0  0  0  0
   -2.4325    2.1123    7.4673 C   0  0  0  0  0  0  0  0  0  0  0  0
    0.4427    0.1613    8.9659 C   0  0  0  0  0  0  0  0  0  0  0  0
    1.0476   -1.9951    9.5625 C   0  0  0  0  0  0  0  0  0  0  0  0
    2.8454   -2.9260   10.4666 C   0  0  0  0  0  0  0  0  0  0  0  0
    4.9019   -2.1467   11.1987 C   0  0  0  0  0  0  0  0  0  0  0  0
   -1.7909    0.9687    7.9152 C   0  0  0  0  0  0  0  0  0  0  0  0
    6.8602   -3.5079   12.2269 C   0  0  0  0  0  0  0  0  0  0  0  0
    8.6757   -4.2267   13.0910 H   0  0  0  0  0  0  0  0  0  0  0  0
   -3.4331    2.0385    7.0677 H   0  0  0  0  0  0  0  0  0  0  0  0
    0.1974   -1.1246    9.0688 N   0  0  0  0  0  0  0  0  0  0  0  0
    0.7597   -3.4128    9.6685 C   0  0  0  0  0  0  0  0  0  0  0  0
    4.0342   -3.1107   10.9928 N   0  0  0  0  0  0  0  0  0  0  0  0
    1.9001   -4.0035   10.2435 C   0  0  0  0  0  0  0  0  0  0  0  0
   -2.2616   -0.0005    7.8770 H   0  0  0  0  0  0  0  0  0  0  0  0
    6.3742   -4.4692   12.1808 H   0  0  0  0  0  0  0  0  0  0  0  0
   -0.3441   -4.1748    9.3256 C   0  0  0  0  0  0  0  0  0  0  0  0
    1.9540   -5.3655   10.4855 C   0  0  0  0  0  0  0  0  0  0  0  0
   -0.2829   -5.5373    9.5701 C   0  0  0  0  0  0  0  0  0  0  0  0
   -1.2133   -3.7136    8.8849 H   0  0  0  0  0  0  0  0  0  0  0  0
    0.8456   -6.1219   10.1401 C   0  0  0  0  0  0  0  0  0  0  0  0
    2.8314   -5.8097   10.9271 H   0  0  0  0  0  0  0  0  0  0  0  0
   -1.1261   -6.1624    9.3151 H   0  0  0  0  0  0  0  0  0  0  0  0
    0.8535   -7.1876   10.3149 H   0  0  0  0  0  0  0  0  0  0  0  0
  2  9  1  0  0  0  0
  2 33  1  0  0  0  0
  2  1  1  0  0  0  0
  3 26  1  0  0  0  0
  3 16  1  0  0  0  0
  4 10  1  0  0  0  0
  5  8  2  0  0  0  0
  6 29  1  0  0  0  0
  7  4  2  0  0  0  0
  7 22  1  0  0  0  0
  8 12  1  0  0  0  0
  9  5  1  0  0  0  0
 10 17  1  0  0  0  0
 10  9  2  0  0  0  0
 11  5  1  0  0  0  0
 11 13  1  0  0  0  0
 12 19  2  0  0  0  0
 13 28  1  0  0  0  0
 14 17  1  0  0  0  0
 14 20  2  0  0  0  0
 15 30  1  0  0  0  0
 15  6  2  0  0  0  0
 16  7  1  0  0  0  0
 17 11  2  0  0  0  0
 18 13  2  0  0  0  0
 18 23  1  0  0  0  0
 19 15  1  0  0  0  0
 20 18  1  0  0  0  0
 21  3  2  0  0  0  0
 22  2  1  0  0  0  0
 24 20  1  0  0  0  0
 25 14  1  0  0  0  0
 27 21  1  0  0  0  0
 31  2  1  0  0  0  0
 32  2  1  0  0  0  0
 32 40  1  0  0  0  0
 33 41  1  0  0  0  0
 33 12  1  0  0  0  0
 34 16  2  0  0  0  0
 34 38  1  0  0  0  0
 35 19  1  0  0  0  0
 35 43  1  0  0  0  0
 36  6  1  0  0  0  0
 36 44  1  0  0  0  0
 37 21  1  0  0  0  0
 37 42  2  0  0  0  0
 38 46  2  0  0  0  0
 38 22  1  0  0  0  0
 39 47  1  0  0  0  0
 39 32  2  0  0  0  0
 40 48  2  0  0  0  0
 41 35  2  0  0  0  0
 42 34  1  0  0  0  0
 43 36  2  0  0  0  0
 45 37  1  0  0  0  0
 46 39  1  0  0  0  0
 47 49  2  0  0  0  0
 48 41  1  0  0  0  0
 49 40  1  0  0  0  0
 49 53  1  0  0  0  0
 50 42  1  0  0  0  0
 51 43  1  0  0  0  0
 52 54  2  0  0  0  0
 52 47  1  0  0  0  0
 53 57  1  0  0  0  0
 54 56  1  0  0  0  0
 55 52  1  0  0  0  0
 56 59  1  0  0  0  0
 56 53  2  0  0  0  0
 58 54  1  0  0  0  0
M  END
$$$$
