CSD_code = KEJHUC | q = 0 | S = 0 | Stoichiometry = C13H20ClPPtS | MND = 4
 OpenBabel04212202063D

 37 39  0  0  0  0  0  0  0  0999 V2000
    7.2137    4.2034   -0.1375 Pt  0  0  2  0  0  0  0  0  0  0  0  0
    7.1689    2.3373   -1.3705 Cl  0  0  0  0  0  0  0  0  0  0  0  0
    8.0019    2.8319    1.8891 S   0  0  1  0  0  3  0  0  0  0  0  0
    7.2633    5.8950    1.3509 P   0  0  2  0  0  4  0  0  0  0  0  0
    6.6260    5.2680   -1.7858 C   0  0  0  0  0  0  0  0  0  0  0  0
    8.8611    6.1749    2.2481 C   0  0  0  0  0  0  0  0  0  0  0  0
    9.2847    5.0528    3.1921 C   0  0  0  0  0  0  0  0  0  0  0  0
    9.4823    3.6938    2.5429 C   0  0  0  0  0  0  0  0  0  0  0  0
    6.7183    3.0831    3.1713 C   0  0  0  0  0  0  0  0  0  0  0  0
    5.6432    4.0815    2.7639 C   0  0  0  0  0  0  0  0  0  0  0  0
    6.0903    5.5434    2.7517 C   0  0  0  0  0  0  0  0  0  0  0  0
    6.7696    7.5834    0.8818 C   0  0  0  0  0  0  0  0  0  0  0  0
    7.6153    8.6854    0.8603 C   0  0  0  0  0  0  0  0  0  0  0  0
    7.1467    9.9119    0.4193 C   0  0  0  0  0  0  0  0  0  0  0  0
    5.8404   10.0477   -0.0165 C   0  0  0  0  0  0  0  0  0  0  0  0
    4.9999    8.9452   -0.0292 C   0  0  0  0  0  0  0  0  0  0  0  0
    5.4653    7.7212    0.4080 C   0  0  0  0  0  0  0  0  0  0  0  0
    6.8012    6.3408   -1.6787 H   0  0  0  0  0  0  0  0  0  0  0  0
    7.1633    4.9005   -2.6608 H   0  0  0  0  0  0  0  0  0  0  0  0
    5.5571    5.0926   -1.9431 H   0  0  0  0  0  0  0  0  0  0  0  0
    8.7630    7.0964    2.8307 H   0  0  0  0  0  0  0  0  0  0  0  0
    9.6306    6.3239    1.4846 H   0  0  0  0  0  0  0  0  0  0  0  0
    8.5687    4.9695    4.0130 H   0  0  0  0  0  0  0  0  0  0  0  0
   10.2436    5.3319    3.6421 H   0  0  0  0  0  0  0  0  0  0  0  0
   10.1381    3.7704    1.6745 H   0  0  0  0  0  0  0  0  0  0  0  0
    9.9313    3.0065    3.2626 H   0  0  0  0  0  0  0  0  0  0  0  0
    7.2112    3.3570    4.1024 H   0  0  0  0  0  0  0  0  0  0  0  0
    6.2673    2.0977    3.2951 H   0  0  0  0  0  0  0  0  0  0  0  0
    5.2949    3.8150    1.7549 H   0  0  0  0  0  0  0  0  0  0  0  0
    4.7988    3.9701    3.4509 H   0  0  0  0  0  0  0  0  0  0  0  0
    5.2099    6.1702    2.5916 H   0  0  0  0  0  0  0  0  0  0  0  0
    6.5315    5.8318    3.7097 H   0  0  0  0  0  0  0  0  0  0  0  0
    8.6434    8.5983    1.1772 H   0  0  0  0  0  0  0  0  0  0  0  0
    7.8098   10.7647    0.4113 H   0  0  0  0  0  0  0  0  0  0  0  0
    5.4816   11.0064   -0.3597 H   0  0  0  0  0  0  0  0  0  0  0  0
    3.9867    9.0408   -0.3902 H   0  0  0  0  0  0  0  0  0  0  0  0
    4.8274    6.8475    0.3683 H   0  0  0  0  0  0  0  0  0  0  0  0
  1  2  1  1  0  0  0
  1  4  1  0  0  0  0
  1  3  1  0  0  0  0
  3  8  1  1  0  0  0
  3  9  1  0  0  0  0
  4 12  1  6  0  0  0
  4  6  1  0  0  0  0
  4 11  1  0  0  0  0
  5 18  1  0  0  0  0
  5  1  1  0  0  0  0
  6 21  1  0  0  0  0
  6  7  1  0  0  0  0
  7 24  1  0  0  0  0
  7 23  1  0  0  0  0
  8  7  1  0  0  0  0
  8 26  1  0  0  0  0
  9 28  1  0  0  0  0
  9 27  1  0  0  0  0
 10  9  1  0  0  0  0
 10 30  1  0  0  0  0
 11 10  1  0  0  0  0
 11 32  1  0  0  0  0
 13 12  1  0  0  0  0
 13 33  1  0  0  0  0
 14 13  2  0  0  0  0
 15 14  1  0  0  0  0
 16 15  2  0  0  0  0
 16 17  1  0  0  0  0
 17 12  2  0  0  0  0
 19  5  1  0  0  0  0
 20  5  1  0  0  0  0
 22  6  1  0  0  0  0
 25  8  1  0  0  0  0
 29 10  1  0  0  0  0
 31 11  1  0  0  0  0
 34 14  1  0  0  0  0
 35 15  1  0  0  0  0
 36 16  1  0  0  0  0
 37 17  1  0  0  0  0
M  END
$$$$
