CSD_code = KEJMOD | q = 0 | S = 0 | Stoichiometry = C14H8Cl2N2O8Pt | MND = 6
 OpenBabel04212202063D

 35 38  0  0  1  0  0  0  0  0999 V2000
   -2.7799   -1.3185    1.5558 C   0  0  0  0  0  0  0  0  0  0  0  0
   -3.3040   -1.6073    0.6578 H   0  0  0  0  0  0  0  0  0  0  0  0
   -3.3559   -1.5525    2.8037 C   0  0  0  0  0  0  0  0  0  0  0  0
   -1.5355   -0.7144    1.5016 C   0  0  0  0  0  0  0  0  0  0  0  0
   -1.0267   -0.5013    0.5740 H   0  0  0  0  0  0  0  0  0  0  0  0
   -0.9106   -0.3655    2.6890 C   0  0  1  0  0  3  0  0  0  0  0  0
   -4.6950   -2.1988    2.9581 C   0  0  0  0  0  0  0  0  0  0  0  0
   -2.6673   -1.1746    3.9539 C   0  0  0  0  0  0  0  0  0  0  0  0
   -3.0895   -1.3439    4.9393 H   0  0  0  0  0  0  0  0  0  0  0  0
    0.6655   -2.1283    5.4997 Cl  0  0  0  0  0  0  0  0  0  0  0  0
   -1.4783   -0.5979    3.8773 N   0  0  0  0  0  0  0  0  0  0  0  0
   -5.2516   -2.5023    1.7848 O   0  0  0  0  0  0  0  0  0  0  0  0
   -6.1183   -2.9189    1.9191 H   0  0  0  0  0  0  0  0  0  0  0  0
   -5.2130   -2.4203    4.0166 O   0  0  0  0  0  0  0  0  0  0  0  0
   -0.3722   -0.0001    5.4185 Pt  0  0  0  0  0  0  0  0  0  0  0  0
    0.4679    0.3073    2.7324 C   0  0  0  0  0  0  0  0  0  0  0  0
    0.8837    0.5561    3.9222 O   0  0  0  0  0  0  0  0  0  0  0  0
    1.0553    0.5564    1.7095 O   0  0  0  0  0  0  0  0  0  0  0  0
    2.0354    1.3186    9.2811 C   0  0  0  0  0  0  0  0  0  0  0  0
    2.5595    1.6074   10.1791 H   0  0  0  0  0  0  0  0  0  0  0  0
    2.6114    1.5526    8.0332 C   0  0  0  0  0  0  0  0  0  0  0  0
    0.7910    0.7146    9.3353 C   0  0  0  0  0  0  0  0  0  0  0  0
    0.2822    0.5013   10.2630 H   0  0  0  0  0  0  0  0  0  0  0  0
    0.1661    0.3656    8.1479 C   0  0  1  0  0  3  0  0  0  0  0  0
    3.9506    2.1987    7.8789 C   0  0  0  0  0  0  0  0  0  0  0  0
    1.9229    1.1745    6.8830 C   0  0  0  0  0  0  0  0  0  0  0  0
    2.3451    1.3438    5.8976 H   0  0  0  0  0  0  0  0  0  0  0  0
   -1.4099    2.1282    5.3373 Cl  0  0  0  0  0  0  0  0  0  0  0  0
    0.7338    0.5979    6.9597 N   0  0  0  0  0  0  0  0  0  0  0  0
    4.5072    2.5022    9.0521 O   0  0  0  0  0  0  0  0  0  0  0  0
    5.3739    2.9187    8.9178 H   0  0  0  0  0  0  0  0  0  0  0  0
    4.4686    2.4201    6.8204 O   0  0  0  0  0  0  0  0  0  0  0  0
   -1.2120   -0.3082    8.1046 C   0  0  0  0  0  0  0  0  0  0  0  0
   -1.6286   -0.5552    6.9147 O   0  0  0  0  0  0  0  0  0  0  0  0
   -1.8001   -0.5559    9.1275 O   0  0  0  0  0  0  0  0  0  0  0  0
  1  3  1  0  0  0  0
  2  1  1  0  0  0  0
  3  7  1  0  0  0  0
  3  8  2  0  0  0  0
  4  1  2  0  0  0  0
  5  4  1  0  0  0  0
  6  4  1  1  0  0  0
  6 16  1  0  0  0  0
  6 11  1  0  0  0  0
  7 14  2  0  0  0  0
  8  9  1  0  0  0  0
 11  8  1  0  0  0  0
 11 15  1  0  0  0  0
 12 13  1  0  0  0  0
 12  7  1  0  0  0  0
 15 10  1  0  0  0  0
 15 34  1  0  0  0  0
 15 29  1  0  0  0  0
 16 17  1  0  0  0  0
 17 15  1  0  0  0  0
 18 16  2  0  0  0  0
 19 22  2  0  0  0  0
 19 20  1  0  0  0  0
 21 19  1  0  0  0  0
 22 23  1  0  0  0  0
 24 33  1  1  0  0  0
 24 22  1  0  0  0  0
 25 21  1  0  0  0  0
 25 30  1  0  0  0  0
 26 29  1  0  0  0  0
 26 21  2  0  0  0  0
 27 26  1  0  0  0  0
 28 15  1  0  0  0  0
 29 24  1  0  0  0  0
 31 30  1  0  0  0  0
 32 25  2  0  0  0  0
 33 35  2  0  0  0  0
 34 33  1  0  0  0  0
M  END
$$$$
