CSD_code = KEJPAQ | q = 0 | S = 0 | Stoichiometry = C18H33Cl2N5P2Ti | MND = 8
 OpenBabel04212202063D

 61 62  0  0  1  0  0  0  0  0999 V2000
    5.3900    0.0399   -3.4616 Ti  0  0  0  0  0  0  0  0  0  0  0  0
    5.5931    1.8351   -2.1912 Cl  0  0  0  0  0  0  0  0  0  0  0  0
    5.8001    1.1509   -5.3327 Cl  0  0  0  0  0  0  0  0  0  0  0  0
    3.8456    0.0472   -0.6215 P   0  0  0  0  0  0  0  0  0  0  0  0
    2.3039    0.2048   -3.1644 P   0  0  0  0  0  4  0  0  0  0  0  0
    3.6593   -0.3002   -3.7396 N   0  0  0  0  0  2  0  0  0  0  0  0
    3.0751   -0.0183    0.8656 N   0  0  0  0  0  0  0  0  0  0  0  0
    1.7443    0.0127    0.8638 N   0  0  0  0  0  0  0  0  0  0  0  0
    0.9426   -0.7013   -3.6669 N   0  0  0  0  0  0  0  0  0  0  0  0
    1.8315    1.7466   -3.6650 N   0  0  0  0  0  0  0  0  0  0  0  0
    1.2769    0.0784   -0.3604 C   0  0  0  0  0  0  0  0  0  0  0  0
    2.2769    0.1100   -1.3570 C   0  0  0  0  0  0  0  0  0  0  0  0
    3.7215   -0.0686    2.1534 C   0  0  0  0  0  0  0  0  0  0  0  0
   -0.1986    0.0938   -0.5724 C   0  0  0  0  0  0  0  0  0  0  0  0
    0.7220   -0.6187   -5.1005 C   0  0  0  0  0  0  0  0  0  0  0  0
    0.9903   -2.0780   -3.2149 C   0  0  0  0  0  0  0  0  0  0  0  0
    2.8532    2.7284   -3.9644 C   0  0  0  0  0  0  0  0  0  0  0  0
    0.6294    2.3177   -3.0934 C   0  0  0  0  0  0  0  0  0  0  0  0
    6.0183   -2.1014   -3.9119 C   0  0  1  0  0  0  0  0  0  0  0  0
    7.1391   -1.2864   -4.2364 C   0  0  0  0  0  0  0  0  0  0  0  0
    7.5797   -0.6596   -3.0455 C   0  0  0  0  0  0  0  0  0  0  0  0
    6.7697   -1.1172   -1.9718 C   0  0  0  0  0  0  0  0  0  0  0  0
    5.8010   -2.0170   -2.5054 C   0  0  0  0  0  0  0  0  0  0  0  0
    5.2933   -3.0154   -4.8565 C   0  0  0  0  0  0  0  0  0  0  0  0
    7.8230   -1.2394   -5.5692 C   0  0  0  0  0  0  0  0  0  0  0  0
    8.7479    0.2743   -2.9212 C   0  0  0  0  0  0  0  0  0  0  0  0
    7.0488   -0.8261   -0.5253 C   0  0  0  0  0  0  0  0  0  0  0  0
    4.8451   -2.8986   -1.7542 C   0  0  0  0  0  0  0  0  0  0  0  0
    3.4209    0.7885    2.7574 H   0  0  0  0  0  0  0  0  0  0  0  0
    4.7997   -0.0502    2.0065 H   0  0  0  0  0  0  0  0  0  0  0  0
    3.4352   -0.9800    2.6809 H   0  0  0  0  0  0  0  0  0  0  0  0
   -0.5778    1.1119   -0.4947 H   0  0  0  0  0  0  0  0  0  0  0  0
   -0.6758   -0.5004    0.2033 H   0  0  0  0  0  0  0  0  0  0  0  0
   -0.4487   -0.3046   -1.5509 H   0  0  0  0  0  0  0  0  0  0  0  0
   -0.2681   -1.0174   -5.3318 H   0  0  0  0  0  0  0  0  0  0  0  0
    1.4743   -1.1839   -5.6641 H   0  0  0  0  0  0  0  0  0  0  0  0
    0.7734    0.4250   -5.4040 H   0  0  0  0  0  0  0  0  0  0  0  0
    0.0093   -2.5373   -3.3591 H   0  0  0  0  0  0  0  0  0  0  0  0
    1.2415   -2.1033   -2.1541 H   0  0  0  0  0  0  0  0  0  0  0  0
    1.7348   -2.6679   -3.7665 H   0  0  0  0  0  0  0  0  0  0  0  0
    2.4602    3.4359   -4.6995 H   0  0  0  0  0  0  0  0  0  0  0  0
    3.7161    2.2161   -4.3988 H   0  0  0  0  0  0  0  0  0  0  0  0
    3.1724    3.2890   -3.0761 H   0  0  0  0  0  0  0  0  0  0  0  0
    0.2215    3.0523   -3.7920 H   0  0  0  0  0  0  0  0  0  0  0  0
    0.8206    2.8194   -2.1376 H   0  0  0  0  0  0  0  0  0  0  0  0
   -0.0996    1.5253   -2.9488 H   0  0  0  0  0  0  0  0  0  0  0  0
    5.2221   -2.5663   -5.8481 H   0  0  0  0  0  0  0  0  0  0  0  0
    4.2845   -3.2145   -4.4962 H   0  0  0  0  0  0  0  0  0  0  0  0
    5.8219   -3.9681   -4.9491 H   0  0  0  0  0  0  0  0  0  0  0  0
    7.1037   -1.3211   -6.3837 H   0  0  0  0  0  0  0  0  0  0  0  0
    8.5283   -2.0708   -5.6500 H   0  0  0  0  0  0  0  0  0  0  0  0
    8.3747   -0.3095   -5.6957 H   0  0  0  0  0  0  0  0  0  0  0  0
    8.6480    0.9007   -2.0351 H   0  0  0  0  0  0  0  0  0  0  0  0
    8.8163    0.9250   -3.7945 H   0  0  0  0  0  0  0  0  0  0  0  0
    9.6828   -0.2868   -2.8430 H   0  0  0  0  0  0  0  0  0  0  0  0
    6.8844    0.2295   -0.2925 H   0  0  0  0  0  0  0  0  0  0  0  0
    8.0898   -1.0632   -0.2973 H   0  0  0  0  0  0  0  0  0  0  0  0
    6.4145   -1.4268    0.1250 H   0  0  0  0  0  0  0  0  0  0  0  0
    5.0932   -3.9480   -1.9289 H   0  0  0  0  0  0  0  0  0  0  0  0
    3.8174   -2.7331   -2.0873 H   0  0  0  0  0  0  0  0  0  0  0  0
    4.8901   -2.7125   -0.6819 H   0  0  0  0  0  0  0  0  0  0  0  0
  1  2  1  0  0  0  0
  3  1  1  0  0  0  0
  4  7  1  0  0  0  0
  5 12  1  0  0  0  0
  6  1  1  0  0  0  0
  6  5  1  0  0  0  0
  7 13  1  0  0  0  0
  8  7  1  0  0  0  0
  9 16  1  0  0  0  0
  9  5  1  0  0  0  0
 10  5  1  0  0  0  0
 10 18  1  0  0  0  0
 11  8  2  0  0  0  0
 12  4  2  0  0  0  0
 12 11  1  0  0  0  0
 13 31  1  0  0  0  0
 13 29  1  0  0  0  0
 14 32  1  0  0  0  0
 14 11  1  0  0  0  0
 14 33  1  0  0  0  0
 15  9  1  0  0  0  0
 16 39  1  0  0  0  0
 17 10  1  0  0  0  0
 17 43  1  0  0  0  0
 18 46  1  0  0  0  0
 18 45  1  0  0  0  0
 19 24  1  6  0  0  0
 19  1  1  0  0  0  0
 19 23  1  0  0  0  0
 20 19  1  0  0  0  0
 20 21  2  0  0  0  0
 21 26  1  0  0  0  0
 21 22  1  0  0  0  0
 22 27  1  0  0  0  0
 23 22  2  0  0  0  0
 23 28  1  0  0  0  0
 24 48  1  0  0  0  0
 25 20  1  0  0  0  0
 26 55  1  0  0  0  0
 26 53  1  0  0  0  0
 27 57  1  0  0  0  0
 27 56  1  0  0  0  0
 27 58  1  0  0  0  0
 28 61  1  0  0  0  0
 30 13  1  0  0  0  0
 34 14  1  0  0  0  0
 35 15  1  0  0  0  0
 36 15  1  0  0  0  0
 37 15  1  0  0  0  0
 38 16  1  0  0  0  0
 40 16  1  0  0  0  0
 41 17  1  0  0  0  0
 42 17  1  0  0  0  0
 44 18  1  0  0  0  0
 47 24  1  0  0  0  0
 49 24  1  0  0  0  0
 50 25  1  0  0  0  0
 51 25  1  0  0  0  0
 52 25  1  0  0  0  0
 54 26  1  0  0  0  0
 59 28  1  0  0  0  0
 60 28  1  0  0  0  0
M  END
$$$$
