CSD_code = KEJQOH | q = 0 | S = 0 | Stoichiometry = C18H21ClN2Pt | MND = 4
 OpenBabel04212202063D

 43 46  0  0  0  0  0  0  0  0999 V2000
    0.7572   -4.1988    6.9271 Pt  0  0  2  0  0  0  0  0  0  0  0  0
    1.3204   -5.3586    8.7475 Cl  0  0  0  0  0  0  0  0  0  0  0  0
    0.0778   -3.1092    5.4687 N   0  0  0  0  0  0  0  0  0  0  0  0
   -1.4859   -4.2961    7.4384 N   0  0  0  0  0  4  0  0  0  0  0  0
    2.5460   -4.3488    6.0616 C   0  0  0  0  0  0  0  0  0  0  0  0
    3.0328   -5.6289    5.8122 C   0  0  0  0  0  0  0  0  0  0  0  0
    2.5031   -6.4865    6.2132 H   0  0  0  0  0  0  0  0  0  0  0  0
    4.1930   -5.8476    5.0813 C   0  0  0  0  0  0  0  0  0  0  0  0
    4.8790   -4.7462    4.5841 C   0  0  0  0  0  0  0  0  0  0  0  0
    5.7791   -4.8919    4.0035 H   0  0  0  0  0  0  0  0  0  0  0  0
    4.4248   -3.4689    4.8393 C   0  0  0  0  0  0  0  0  0  0  0  0
    4.9666   -2.6187    4.4475 H   0  0  0  0  0  0  0  0  0  0  0  0
    3.2575   -3.2513    5.5727 C   0  0  0  0  0  0  0  0  0  0  0  0
    2.8898   -1.8488    5.8551 C   0  0  0  0  0  0  0  0  0  0  0  0
    3.8907   -1.0317    6.3813 C   0  0  0  0  0  0  0  0  0  0  0  0
    4.8298   -1.4884    6.6564 H   0  0  0  0  0  0  0  0  0  0  0  0
    3.7097    0.3252    6.5614 C   0  0  0  0  0  0  0  0  0  0  0  0
    4.5020    0.9266    6.9814 H   0  0  0  0  0  0  0  0  0  0  0  0
    2.5142    0.9145    6.1788 C   0  0  0  0  0  0  0  0  0  0  0  0
    2.3680    1.9789    6.2859 H   0  0  0  0  0  0  0  0  0  0  0  0
    1.5101    0.1281    5.6581 C   0  0  0  0  0  0  0  0  0  0  0  0
    0.5729    0.5833    5.3676 H   0  0  0  0  0  0  0  0  0  0  0  0
    1.6572   -1.2593    5.5230 C   0  0  0  0  0  0  0  0  0  0  0  0
    0.4747   -1.9597    5.0611 C   0  0  0  0  0  0  0  0  0  0  0  0
   -0.1805   -1.3839    4.3998 H   0  0  0  0  0  0  0  0  0  0  0  0
   -1.2366   -3.5775    5.0912 C   0  0  0  0  0  0  0  0  0  0  0  0
   -1.1514   -4.5976    4.7034 H   0  0  0  0  0  0  0  0  0  0  0  0
   -1.6858   -2.9429    4.3141 H   0  0  0  0  0  0  0  0  0  0  0  0
   -2.1242   -3.5568    6.3492 C   0  0  0  0  0  0  0  0  0  0  0  0
   -2.2454   -2.5137    6.6579 H   0  0  0  0  0  0  0  0  0  0  0  0
   -3.1187   -3.9632    6.1123 H   0  0  0  0  0  0  0  0  0  0  0  0
   -1.8845   -3.7954    8.7465 C   0  0  0  0  0  0  0  0  0  0  0  0
   -1.6384   -2.7369    8.8314 H   0  0  0  0  0  0  0  0  0  0  0  0
   -1.3288   -4.3369    9.5112 H   0  0  0  0  0  0  0  0  0  0  0  0
   -2.9607   -3.9287    8.9235 H   0  0  0  0  0  0  0  0  0  0  0  0
   -1.7786   -5.7239    7.3481 C   0  0  0  0  0  0  0  0  0  0  0  0
   -1.2347   -6.2472    8.1336 H   0  0  0  0  0  0  0  0  0  0  0  0
   -1.4509   -6.1189    6.3857 H   0  0  0  0  0  0  0  0  0  0  0  0
   -2.8544   -5.9181    7.4638 H   0  0  0  0  0  0  0  0  0  0  0  0
    4.7051   -7.2351    4.8373 C   0  0  0  0  0  0  0  0  0  0  0  0
    3.9801   -7.9786    5.1576 H   0  0  0  0  0  0  0  0  0  0  0  0
    5.6289   -7.3957    5.3928 H   0  0  0  0  0  0  0  0  0  0  0  0
    4.9220   -7.3847    3.7805 H   0  0  0  0  0  0  0  0  0  0  0  0
  1  4  1  0  0  0  0
  1  2  1  1  0  0  0
  3  1  1  0  0  0  0
  4 32  1  0  0  0  0
  5  1  2  0  0  0  0
  6  5  1  0  0  0  0
  6  7  1  0  0  0  0
  8  6  2  0  0  0  0
  9 11  2  0  0  0  0
  9  8  1  0  0  0  0
 10  9  1  0  0  0  0
 11 13  1  0  0  0  0
 12 11  1  0  0  0  0
 13 14  2  0  0  0  0
 13  5  1  0  0  0  0
 14 15  1  0  0  0  0
 15 17  2  0  0  0  0
 15 16  1  0  0  0  0
 17 18  1  0  0  0  0
 19 20  1  0  0  0  0
 19 17  1  0  0  0  0
 21 19  2  0  0  0  0
 22 21  1  0  0  0  0
 23 21  1  0  0  0  0
 23 14  1  0  0  0  0
 24  3  1  0  0  0  0
 24 23  2  0  0  0  0
 25 24  1  0  0  0  0
 26  3  1  0  0  0  0
 26 29  1  0  0  0  0
 27 26  1  0  0  0  0
 28 26  1  0  0  0  0
 29 30  1  0  0  0  0
 29  4  1  0  0  0  0
 31 29  1  0  0  0  0
 32 33  1  0  0  0  0
 32 35  1  0  0  0  0
 32 34  1  0  0  0  0
 36  4  1  0  0  0  0
 36 39  1  0  0  0  0
 36 37  1  0  0  0  0
 38 36  1  0  0  0  0
 40  8  1  0  0  0  0
 40 41  1  0  0  0  0
 40 42  1  0  0  0  0
 43 40  1  0  0  0  0
M  END
$$$$
