CSD_code = KEKBEI | q = 0 | S = 0 | Stoichiometry = C27H18ClF5Zr | MND = 12
 OpenBabel04212202063D

 52 57  0  0  1  0  0  0  0  0999 V2000
    6.4379    4.3052   11.3241 C   0  0  0  0  0  0  0  0  0  0  0  0
    6.4064    2.9281   11.6582 C   0  0  0  0  0  0  0  0  0  0  0  0
    5.6124    2.5083   12.2530 H   0  0  0  0  0  0  0  0  0  0  0  0
    7.4401    2.1006   11.2883 C   0  0  0  0  0  0  0  0  0  0  0  0
    7.3973    1.0564   11.5604 H   0  0  0  0  0  0  0  0  0  0  0  0
    8.5655    2.5727   10.5992 C   0  0  0  0  0  0  0  0  0  0  0  0
    9.3691    1.8927   10.3628 H   0  0  0  0  0  0  0  0  0  0  0  0
    8.6511    3.9001   10.2525 C   0  0  0  0  0  0  0  0  0  0  0  0
    9.5274    4.2869    9.7499 H   0  0  0  0  0  0  0  0  0  0  0  0
    7.5918    4.7604   10.5691 C   0  0  0  0  0  0  0  0  0  0  0  0
    7.4201    6.1622   10.3131 C   0  0  0  0  0  0  0  0  0  0  0  0
    8.2484    7.0734    9.6449 C   0  0  0  0  0  0  0  0  0  0  0  0
    9.1869    6.7421    9.2232 H   0  0  0  0  0  0  0  0  0  0  0  0
    7.8519    8.3838    9.5386 C   0  0  0  0  0  0  0  0  0  0  0  0
    8.4689    9.0997    9.0190 H   0  0  0  0  0  0  0  0  0  0  0  0
    6.6459    8.8017   10.1148 C   0  0  0  0  0  0  0  0  0  0  0  0
    6.3602    9.8397   10.0287 H   0  0  0  0  0  0  0  0  0  0  0  0
    5.8204    7.9382   10.7950 C   0  0  0  0  0  0  0  0  0  0  0  0
    4.9377    8.3438   11.2623 H   0  0  0  0  0  0  0  0  0  0  0  0
    6.1715    6.5721   10.9217 C   0  0  0  0  0  0  0  0  0  0  0  0
    5.5647    5.4258   11.5643 C   0  0  0  0  0  0  0  0  0  0  0  0
    4.0843    5.3251   11.9783 C   0  0  0  0  0  0  0  0  0  0  0  0
    3.8241    4.2250   13.0197 C   0  0  0  0  0  0  0  0  0  0  0  0
    2.8293    4.3494   13.4416 H   0  0  0  0  0  0  0  0  0  0  0  0
    4.5493    4.2961   13.8269 H   0  0  0  0  0  0  0  0  0  0  0  0
    3.8610    3.2302   12.5939 H   0  0  0  0  0  0  0  0  0  0  0  0
    3.5327    6.6263   12.5822 C   0  0  0  0  0  0  0  0  0  0  0  0
    3.3671    7.3941   11.8364 H   0  0  0  0  0  0  0  0  0  0  0  0
    4.2130    7.0041   13.3421 H   0  0  0  0  0  0  0  0  0  0  0  0
    2.5707    6.4309   13.0509 H   0  0  0  0  0  0  0  0  0  0  0  0
    3.4633    5.0048   10.6192 C   0  0  2  0  0  0  0  0  0  0  0  0
    3.1889    5.9548    9.5975 C   0  0  0  0  0  0  0  0  0  0  0  0
    3.0287    7.0195    9.7169 H   0  0  0  0  0  0  0  0  0  0  0  0
    2.9813    5.2588    8.3869 C   0  0  0  0  0  0  0  0  0  0  0  0
    2.6477    5.7015    7.4578 H   0  0  0  0  0  0  0  0  0  0  0  0
    3.1892    3.8901    8.6250 C   0  0  0  0  0  0  0  0  0  0  0  0
    2.9898    3.0866    7.9273 H   0  0  0  0  0  0  0  0  0  0  0  0
    3.4991    3.7280   10.0005 C   0  0  0  0  0  0  0  0  0  0  0  0
    3.5703    2.7701   10.4956 H   0  0  0  0  0  0  0  0  0  0  0  0
    6.3178    3.2282    8.1733 C   0  0  0  0  0  0  0  0  0  0  0  0
    6.0389    1.8681    8.1462 C   0  0  0  0  0  0  0  0  0  0  0  0
    6.8046    0.9263    7.4662 C   0  0  0  0  0  0  0  0  0  0  0  0
    7.9296    1.3521    6.7648 C   0  0  0  0  0  0  0  0  0  0  0  0
    8.2800    2.7012    6.7753 C   0  0  0  0  0  0  0  0  0  0  0  0
    7.4684    3.5798    7.4786 C   0  0  0  0  0  0  0  0  0  0  0  0
    5.5666    6.6823    7.5819 Cl  0  0  0  0  0  0  0  0  0  0  0  0
    4.9630    1.4531    8.8577 F   0  0  0  0  0  0  0  0  0  0  0  0
    6.4840   -0.3725    7.4842 F   0  0  0  0  0  0  0  0  0  0  0  0
    8.6817    0.4687    6.1029 F   0  0  0  0  0  0  0  0  0  0  0  0
    9.3791    3.1150    6.1366 F   0  0  0  0  0  0  0  0  0  0  0  0
    7.8138    4.9037    7.5768 F   0  0  0  0  0  0  0  0  0  0  0  0
    5.4277    4.9966    9.1937 Zr  0  0  2  0  0  0  0  0  0  0  0  0
  1 21  1  0  0  0  0
  1  2  1  0  0  0  0
  2  3  1  0  0  0  0
  4  5  1  0  0  0  0
  4  2  2  0  0  0  0
  6  4  1  0  0  0  0
  7  6  1  0  0  0  0
  8 10  1  0  0  0  0
  8  6  2  0  0  0  0
  9  8  1  0  0  0  0
 10  1  2  0  0  0  0
 11 10  1  0  0  0  0
 11 20  1  0  0  0  0
 12 11  2  0  0  0  0
 13 12  1  0  0  0  0
 14 12  1  0  0  0  0
 14 16  2  0  0  0  0
 15 14  1  0  0  0  0
 16 18  1  0  0  0  0
 17 16  1  0  0  0  0
 18 20  2  0  0  0  0
 18 19  1  0  0  0  0
 20 21  1  0  0  0  0
 21 22  1  0  0  0  0
 22 27  1  0  0  0  0
 22 23  1  0  0  0  0
 23 24  1  0  0  0  0
 23 25  1  0  0  0  0
 26 23  1  0  0  0  0
 27 30  1  0  0  0  0
 27 29  1  0  0  0  0
 28 27  1  0  0  0  0
 31 32  1  6  0  0  0
 31 22  1  0  0  0  0
 32 33  1  0  0  0  0
 34 36  1  0  0  0  0
 34 32  2  0  0  0  0
 35 34  1  0  0  0  0
 36 38  2  0  0  0  0
 37 36  1  0  0  0  0
 38 39  1  0  0  0  0
 38 31  1  0  0  0  0
 40 52  1  0  0  0  0
 41 40  1  0  0  0  0
 41 47  1  0  0  0  0
 42 48  1  0  0  0  0
 42 41  2  0  0  0  0
 43 44  2  0  0  0  0
 43 42  1  0  0  0  0
 44 45  1  0  0  0  0
 45 51  1  0  0  0  0
 45 40  2  0  0  0  0
 49 43  1  0  0  0  0
 50 44  1  0  0  0  0
 52 46  1  6  0  0  0
 52 31  1  0  0  0  0
 52 21  1  0  0  0  0
M  END
$$$$
