CSD_code = KEKHIT | q = 0 | S = 0 | Stoichiometry = C22H28I2N2O6Zn | MND = 4
 OpenBabel04212202063D

 61 63  0  0  0  0  0  0  0  0999 V2000
    7.9144    3.2889    5.8540 I   0  0  0  0  0  0  0  0  0  0  0  0
   10.0617    4.3848    5.0917 Zn  0  0  0  0  0  0  0  0  0  0  0  0
    5.9122    1.4842    1.2124 O   0  0  0  0  0  0  0  0  0  0  0  0
    4.5376    3.8744    1.3488 O   0  0  0  0  0  0  0  0  0  0  0  0
    5.9127    6.1465    2.3773 O   0  0  0  0  0  0  0  0  0  0  0  0
    9.5287    5.9988    3.8022 N   0  0  0  0  0  0  0  0  0  0  0  0
   10.1093    7.2029    4.3252 C   0  0  0  0  0  0  0  0  0  0  0  0
    8.5134    6.0706    3.0329 C   0  0  0  0  0  3  0  0  0  0  0  0
    7.8831    4.9077    2.4689 C   0  0  0  0  0  0  0  0  0  0  0  0
    8.6022    3.7336    2.2509 C   0  0  0  0  0  0  0  0  0  0  0  0
    7.9769    2.5920    1.8143 C   0  0  0  0  0  0  0  0  0  0  0  0
    6.6051    2.5943    1.5684 C   0  0  0  0  0  0  0  0  0  0  0  0
    5.8726    3.7952    1.6690 C   0  0  0  0  0  0  0  0  0  0  0  0
    6.5046    4.9495    2.1493 C   0  0  0  0  0  0  0  0  0  0  0  0
    6.5707    0.2377    1.2363 C   0  0  0  0  0  0  0  0  0  0  0  0
    4.0724    3.1891    0.2036 C   0  0  0  0  0  0  0  0  0  0  0  0
    4.5076    6.2869    2.4539 C   0  0  0  0  0  0  0  0  0  0  0  0
    9.6199    8.1021    3.9269 H   0  0  0  0  0  0  0  0  0  0  0  0
   11.1678    7.2155    4.0419 H   0  0  0  0  0  0  0  0  0  0  0  0
    8.0653    7.0387    2.7965 H   0  0  0  0  0  0  0  0  0  0  0  0
    9.6714    3.7320    2.3955 H   0  0  0  0  0  0  0  0  0  0  0  0
    8.5556    1.6938    1.6806 H   0  0  0  0  0  0  0  0  0  0  0  0
    7.0075    0.0388    2.2183 H   0  0  0  0  0  0  0  0  0  0  0  0
    7.3460    0.1763    0.4665 H   0  0  0  0  0  0  0  0  0  0  0  0
    5.7984   -0.5009    1.0273 H   0  0  0  0  0  0  0  0  0  0  0  0
    3.8536    2.1423    0.4202 H   0  0  0  0  0  0  0  0  0  0  0  0
    4.7923    3.2458   -0.6170 H   0  0  0  0  0  0  0  0  0  0  0  0
    3.1529    3.6999   -0.0846 H   0  0  0  0  0  0  0  0  0  0  0  0
    4.0635    5.5069    3.0723 H   0  0  0  0  0  0  0  0  0  0  0  0
    4.0461    6.2761    1.4650 H   0  0  0  0  0  0  0  0  0  0  0  0
    4.3476    7.2610    2.9180 H   0  0  0  0  0  0  0  0  0  0  0  0
   12.2083    3.2866    4.3297 I   0  0  0  0  0  0  0  0  0  0  0  0
   14.2144    1.4848    8.9639 O   0  0  0  0  0  0  0  0  0  0  0  0
   15.5900    3.8744    8.8236 O   0  0  0  0  0  0  0  0  0  0  0  0
   14.2146    6.1458    7.7942 O   0  0  0  0  0  0  0  0  0  0  0  0
   10.5948    5.9993    6.3798 N   0  0  0  0  0  0  0  0  0  0  0  0
   10.0128    7.2028    5.8571 C   0  0  0  0  0  0  0  0  0  0  0  0
   11.6116    6.0718    7.1471 C   0  0  0  0  0  3  0  0  0  0  0  0
   12.2427    4.9089    7.7105 C   0  0  0  0  0  0  0  0  0  0  0  0
   11.5231    3.7358    7.9317 C   0  0  0  0  0  0  0  0  0  0  0  0
   12.1488    2.5939    8.3673 C   0  0  0  0  0  0  0  0  0  0  0  0
   13.5213    2.5954    8.6094 C   0  0  0  0  0  0  0  0  0  0  0  0
   14.2544    3.7957    8.5061 C   0  0  0  0  0  0  0  0  0  0  0  0
   13.6221    4.9499    8.0260 C   0  0  0  0  0  0  0  0  0  0  0  0
   13.5554    0.2386    8.9398 C   0  0  0  0  0  0  0  0  0  0  0  0
   16.0575    3.1877    9.9670 C   0  0  0  0  0  0  0  0  0  0  0  0
   15.6197    6.2843    7.7131 C   0  0  0  0  0  0  0  0  0  0  0  0
   10.5013    8.1025    6.2554 H   0  0  0  0  0  0  0  0  0  0  0  0
    8.9543    7.2141    6.1404 H   0  0  0  0  0  0  0  0  0  0  0  0
   12.0601    7.0400    7.3822 H   0  0  0  0  0  0  0  0  0  0  0  0
   10.4535    3.7350    7.7902 H   0  0  0  0  0  0  0  0  0  0  0  0
   11.5698    1.6963    8.5036 H   0  0  0  0  0  0  0  0  0  0  0  0
   13.1156    0.0416    7.9588 H   0  0  0  0  0  0  0  0  0  0  0  0
   12.7824    0.1760    9.7119 H   0  0  0  0  0  0  0  0  0  0  0  0
   14.3281   -0.5006    9.1452 H   0  0  0  0  0  0  0  0  0  0  0  0
   16.2795    2.1421    9.7476 H   0  0  0  0  0  0  0  0  0  0  0  0
   15.3377    3.2401   10.7879 H   0  0  0  0  0  0  0  0  0  0  0  0
   16.9755    3.7005   10.2564 H   0  0  0  0  0  0  0  0  0  0  0  0
   16.0612    5.5016    7.0963 H   0  0  0  0  0  0  0  0  0  0  0  0
   16.0839    6.2764    8.7008 H   0  0  0  0  0  0  0  0  0  0  0  0
   15.7797    7.2565    7.2452 H   0  0  0  0  0  0  0  0  0  0  0  0
  2  1  1  0  0  0  0
  2 36  1  0  0  0  0
  3 15  1  0  0  0  0
  3 12  1  0  0  0  0
  4 13  1  0  0  0  0
  5 17  1  0  0  0  0
  6  7  1  0  0  0  0
  6  2  1  0  0  0  0
  7 37  1  0  0  0  0
  8  6  1  0  0  0  0
  9  8  1  0  0  0  0
 10 21  1  0  0  0  0
 10  9  1  0  0  0  0
 11 10  2  0  0  0  0
 12 13  2  0  0  0  0
 12 11  1  0  0  0  0
 13 14  1  0  0  0  0
 14  5  1  0  0  0  0
 14  9  2  0  0  0  0
 15 23  1  0  0  0  0
 16 26  1  0  0  0  0
 16  4  1  0  0  0  0
 17 31  1  0  0  0  0
 17 29  1  0  0  0  0
 18  7  1  0  0  0  0
 19  7  1  0  0  0  0
 20  8  1  0  0  0  0
 22 11  1  0  0  0  0
 24 15  1  0  0  0  0
 25 15  1  0  0  0  0
 27 16  1  0  0  0  0
 28 16  1  0  0  0  0
 30 17  1  0  0  0  0
 32  2  1  0  0  0  0
 34 46  1  0  0  0  0
 35 44  1  0  0  0  0
 36 38  1  0  0  0  0
 37 49  1  0  0  0  0
 37 48  1  0  0  0  0
 37 36  1  0  0  0  0
 38 50  1  0  0  0  0
 38 39  1  0  0  0  0
 39 40  2  0  0  0  0
 39 44  1  0  0  0  0
 40 41  1  0  0  0  0
 41 52  1  0  0  0  0
 41 42  2  0  0  0  0
 42 33  1  0  0  0  0
 43 42  1  0  0  0  0
 43 34  1  0  0  0  0
 44 43  2  0  0  0  0
 45 33  1  0  0  0  0
 45 55  1  0  0  0  0
 45 54  1  0  0  0  0
 46 58  1  0  0  0  0
 46 57  1  0  0  0  0
 47 35  1  0  0  0  0
 47 60  1  0  0  0  0
 51 40  1  0  0  0  0
 53 45  1  0  0  0  0
 56 46  1  0  0  0  0
 59 47  1  0  0  0  0
 61 47  1  0  0  0  0
M  END
$$$$
