CSD_code = KEKQUM | q = 0 | S = 0 | Stoichiometry = C13H25Cl2NSi2Ti | MND = 8
 OpenBabel04212202063D

 44 45  0  0  1  0  0  0  0  0999 V2000
    9.1652    4.7404    3.8369 Ti  0  0  0  0  0  0  0  0  0  0  0  0
    8.4568    6.7527    3.4751 Cl  0  0  0  0  0  0  0  0  0  0  0  0
    7.4782    3.5534    3.1197 Cl  0  0  0  0  0  0  0  0  0  0  0  0
    8.1518    4.6894    6.7622 Si  0  0  0  0  0  0  0  0  0  0  0  0
   11.9979    4.9043    3.5519 Si  0  0  0  0  0  0  0  0  0  0  0  0
   10.5726    4.5752    2.6092 N   0  0  0  0  0  0  0  0  0  0  0  0
   10.9436    4.7744    5.1311 C   0  0  1  0  0  0  0  0  0  0  0  0
   10.5011    5.9517    5.8155 C   0  0  0  0  0  0  0  0  0  0  0  0
    9.4075    6.0704    6.6117 C   0  0  0  0  0  0  0  0  0  0  0  0
    9.0243    3.3414    5.7680 C   0  0  0  0  0  3  0  0  0  0  0  0
   10.3128    3.5079    5.2999 C   0  0  0  0  0  3  0  0  0  0  0  0
    6.4449    5.1142    5.9891 C   0  0  0  0  0  0  0  0  0  0  0  0
    7.8369    4.1305    8.5633 C   0  0  0  0  0  0  0  0  0  0  0  0
   13.3964    3.5959    3.4756 C   0  0  0  0  0  0  0  0  0  0  0  0
   12.7307    6.6575    3.3331 C   0  0  0  0  0  0  0  0  0  0  0  0
   10.4448    4.3542    1.1816 C   0  0  0  0  0  0  0  0  0  0  0  0
   10.1778    2.8545    0.9544 C   0  0  0  0  0  0  0  0  0  0  0  0
   11.7229    4.7555    0.4350 C   0  0  0  0  0  0  0  0  0  0  0  0
    9.2789    5.1884    0.6203 C   0  0  0  0  0  0  0  0  0  0  0  0
   11.1558    6.8161    5.7078 H   0  0  0  0  0  0  0  0  0  0  0  0
    9.2607    7.0116    7.1263 H   0  0  0  0  0  0  0  0  0  0  0  0
    8.6422    2.3217    5.8051 H   0  0  0  0  0  0  0  0  0  0  0  0
   10.8575    2.6336    4.9249 H   0  0  0  0  0  0  0  0  0  0  0  0
    6.5422    5.6514    5.0435 H   0  0  0  0  0  0  0  0  0  0  0  0
    5.8582    5.7360    6.6596 H   0  0  0  0  0  0  0  0  0  0  0  0
    5.8682    4.2118    5.7962 H   0  0  0  0  0  0  0  0  0  0  0  0
    8.7504    3.8107    9.0532 H   0  0  0  0  0  0  0  0  0  0  0  0
    7.1328    3.3061    8.5990 H   0  0  0  0  0  0  0  0  0  0  0  0
    7.4171    4.9438    9.1446 H   0  0  0  0  0  0  0  0  0  0  0  0
   13.9499    3.5700    4.4084 H   0  0  0  0  0  0  0  0  0  0  0  0
   14.1037    3.8266    2.6867 H   0  0  0  0  0  0  0  0  0  0  0  0
   13.0102    2.5980    3.2919 H   0  0  0  0  0  0  0  0  0  0  0  0
   11.9398    7.3940    3.2129 H   0  0  0  0  0  0  0  0  0  0  0  0
   13.3739    6.7109    2.4614 H   0  0  0  0  0  0  0  0  0  0  0  0
   13.3293    6.9409    4.1927 H   0  0  0  0  0  0  0  0  0  0  0  0
   11.0359    2.2751    1.2917 H   0  0  0  0  0  0  0  0  0  0  0  0
   10.0074    2.6513   -0.0999 H   0  0  0  0  0  0  0  0  0  0  0  0
    9.2987    2.5440    1.5230 H   0  0  0  0  0  0  0  0  0  0  0  0
   11.9269    5.8109    0.5910 H   0  0  0  0  0  0  0  0  0  0  0  0
   11.6017    4.5755   -0.6303 H   0  0  0  0  0  0  0  0  0  0  0  0
   12.5685    4.1750    0.7914 H   0  0  0  0  0  0  0  0  0  0  0  0
    9.4471    6.2448    0.8367 H   0  0  0  0  0  0  0  0  0  0  0  0
    8.3297    4.8817    1.0677 H   0  0  0  0  0  0  0  0  0  0  0  0
    9.2111    5.0578   -0.4578 H   0  0  0  0  0  0  0  0  0  0  0  0
  1  7  1  0  0  0  0
  2  1  1  0  0  0  0
  3  1  1  0  0  0  0
  4 13  1  0  0  0  0
  5  7  1  0  0  0  0
  6  5  1  0  0  0  0
  6  1  1  0  0  0  0
  7 11  1  1  0  0  0
  7  8  1  0  0  0  0
  8  9  2  0  0  0  0
  9  4  1  0  0  0  0
  9 21  1  0  0  0  0
 10 22  1  0  0  0  0
 10  4  1  0  0  0  0
 11 10  1  0  0  0  0
 12 25  1  0  0  0  0
 12  4  1  0  0  0  0
 13 28  1  0  0  0  0
 13 27  1  0  0  0  0
 13 29  1  0  0  0  0
 14  5  1  0  0  0  0
 14 30  1  0  0  0  0
 15  5  1  0  0  0  0
 15 35  1  0  0  0  0
 16  6  1  0  0  0  0
 17 16  1  0  0  0  0
 17 36  1  0  0  0  0
 17 38  1  0  0  0  0
 18 39  1  0  0  0  0
 18 41  1  0  0  0  0
 18 16  1  0  0  0  0
 19 42  1  0  0  0  0
 19 43  1  0  0  0  0
 19 16  1  0  0  0  0
 20  8  1  0  0  0  0
 23 11  1  0  0  0  0
 24 12  1  0  0  0  0
 26 12  1  0  0  0  0
 31 14  1  0  0  0  0
 32 14  1  0  0  0  0
 33 15  1  0  0  0  0
 34 15  1  0  0  0  0
 37 17  1  0  0  0  0
 40 18  1  0  0  0  0
 44 19  1  0  0  0  0
M  END
$$$$
