CSD_code = KEKTAV | q = 0 | S = 0 | Stoichiometry = C18H32Cl2NiP2 | MND = 4
 OpenBabel04212202063D

 55 56  0  0  0  0  0  0  0  0999 V2000
    1.4579   10.3412    3.0316 Ni  0  0  0  0  0  0  0  0  0  0  0  0
    1.9316    8.3370    3.5873 P   0  0  0  0  0  4  0  0  0  0  0  0
    1.6271    9.9063    0.9506 P   0  0  0  0  0  4  0  0  0  0  0  0
    0.9417   12.2765    2.3905 Cl  0  0  0  0  0  0  0  0  0  0  0  0
    1.2569   10.6687    5.0992 Cl  0  0  0  0  0  0  0  0  0  0  0  0
    2.2352    7.4157    2.0206 C   0  0  0  0  0  0  0  0  0  0  0  0
    2.6580    6.0916    1.9820 C   0  0  0  0  0  0  0  0  0  0  0  0
    2.9188    5.4704    0.7739 C   0  0  0  0  0  0  0  0  0  0  0  0
    2.7847    6.1758   -0.4100 C   0  0  0  0  0  0  0  0  0  0  0  0
    2.3893    7.5011   -0.3837 C   0  0  0  0  0  0  0  0  0  0  0  0
    2.0987    8.1296    0.8220 C   0  0  0  0  0  0  0  0  0  0  0  0
    3.4867    7.9656    4.5437 C   0  0  0  0  0  0  0  0  0  0  0  0
    3.3283    8.1733    6.0453 C   0  0  0  0  0  0  0  0  0  0  0  0
    4.5728    8.8786    3.9817 C   0  0  0  0  0  0  0  0  0  0  0  0
    0.5882    7.4446    4.5143 C   0  0  0  0  0  0  0  0  0  0  0  0
    0.7566    5.9375    4.6554 C   0  0  0  0  0  0  0  0  0  0  0  0
   -0.7520    7.7893    3.8745 C   0  0  0  0  0  0  0  0  0  0  0  0
    2.9539   10.7189   -0.0742 C   0  0  0  0  0  0  0  0  0  0  0  0
    2.5622   12.1064   -0.5689 C   0  0  0  0  0  0  0  0  0  0  0  0
    4.2002   10.7886    0.8039 C   0  0  0  0  0  0  0  0  0  0  0  0
    0.0646   10.1446   -0.0305 C   0  0  0  0  0  0  0  0  0  0  0  0
   -1.1071    9.6188    0.7912 C   0  0  0  0  0  0  0  0  0  0  0  0
    0.0571    9.5549   -1.4346 C   0  0  0  0  0  0  0  0  0  0  0  0
    2.7995    5.5375    2.8968 H   0  0  0  0  0  0  0  0  0  0  0  0
    3.2411    4.4397    0.7574 H   0  0  0  0  0  0  0  0  0  0  0  0
    3.0020    5.6978   -1.3538 H   0  0  0  0  0  0  0  0  0  0  0  0
    2.3214    8.0456   -1.3126 H   0  0  0  0  0  0  0  0  0  0  0  0
    3.7553    6.9211    4.3423 H   0  0  0  0  0  0  0  0  0  0  0  0
    4.3008    8.0832    6.5271 H   0  0  0  0  0  0  0  0  0  0  0  0
    2.6647    7.4334    6.4862 H   0  0  0  0  0  0  0  0  0  0  0  0
    2.9314    9.1651    6.2496 H   0  0  0  0  0  0  0  0  0  0  0  0
    5.5019    8.7657    4.5370 H   0  0  0  0  0  0  0  0  0  0  0  0
    4.2516    9.9198    4.0572 H   0  0  0  0  0  0  0  0  0  0  0  0
    4.7673    8.6451    2.9354 H   0  0  0  0  0  0  0  0  0  0  0  0
    0.6231    7.9173    5.5039 H   0  0  0  0  0  0  0  0  0  0  0  0
    0.6291    5.4409    3.6954 H   0  0  0  0  0  0  0  0  0  0  0  0
   -0.0080    5.5567    5.3315 H   0  0  0  0  0  0  0  0  0  0  0  0
    1.7277    5.6740    5.0683 H   0  0  0  0  0  0  0  0  0  0  0  0
   -0.8530    8.8740    3.7955 H   0  0  0  0  0  0  0  0  0  0  0  0
   -1.5741    7.4154    4.4816 H   0  0  0  0  0  0  0  0  0  0  0  0
   -0.8301    7.3510    2.8802 H   0  0  0  0  0  0  0  0  0  0  0  0
    3.1543   10.0648   -0.9319 H   0  0  0  0  0  0  0  0  0  0  0  0
    2.2337   12.7251    0.2631 H   0  0  0  0  0  0  0  0  0  0  0  0
    1.7652   12.0605   -1.3070 H   0  0  0  0  0  0  0  0  0  0  0  0
    3.4251   12.5808   -1.0340 H   0  0  0  0  0  0  0  0  0  0  0  0
    3.9691   11.3262    1.7263 H   0  0  0  0  0  0  0  0  0  0  0  0
    5.0064   11.3132    0.2947 H   0  0  0  0  0  0  0  0  0  0  0  0
    4.5477    9.7877    1.0575 H   0  0  0  0  0  0  0  0  0  0  0  0
   -0.0223   11.2370   -0.0851 H   0  0  0  0  0  0  0  0  0  0  0  0
   -1.0560    8.5350    0.8880 H   0  0  0  0  0  0  0  0  0  0  0  0
   -2.0529    9.8787    0.3198 H   0  0  0  0  0  0  0  0  0  0  0  0
   -1.0882   10.0675    1.7868 H   0  0  0  0  0  0  0  0  0  0  0  0
    0.9128    9.8858   -2.0190 H   0  0  0  0  0  0  0  0  0  0  0  0
   -0.8454    9.8794   -1.9512 H   0  0  0  0  0  0  0  0  0  0  0  0
    0.0473    8.4672   -1.3990 H   0  0  0  0  0  0  0  0  0  0  0  0
  1  2  1  0  0  0  0
  1  5  1  0  0  0  0
  2 15  1  0  0  0  0
  2 12  1  0  0  0  0
  3  1  1  0  0  0  0
  4  1  1  0  0  0  0
  6  2  1  0  0  0  0
  7  6  1  0  0  0  0
  7 24  1  0  0  0  0
  8  7  2  0  0  0  0
  9 10  2  0  0  0  0
  9  8  1  0  0  0  0
 10 11  1  0  0  0  0
 11  3  1  0  0  0  0
 11  6  2  0  0  0  0
 12 13  1  0  0  0  0
 13 31  1  0  0  0  0
 13 30  1  0  0  0  0
 13 29  1  0  0  0  0
 14 33  1  0  0  0  0
 14 32  1  0  0  0  0
 14 12  1  0  0  0  0
 15 16  1  0  0  0  0
 15 35  1  0  0  0  0
 16 38  1  0  0  0  0
 16 37  1  0  0  0  0
 17 40  1  0  0  0  0
 17 15  1  0  0  0  0
 18 20  1  0  0  0  0
 18  3  1  0  0  0  0
 19 18  1  0  0  0  0
 19 43  1  0  0  0  0
 20 48  1  0  0  0  0
 20 46  1  0  0  0  0
 21 22  1  0  0  0  0
 21  3  1  0  0  0  0
 22 50  1  0  0  0  0
 22 52  1  0  0  0  0
 23 55  1  0  0  0  0
 23 21  1  0  0  0  0
 25  8  1  0  0  0  0
 26  9  1  0  0  0  0
 27 10  1  0  0  0  0
 28 12  1  0  0  0  0
 34 14  1  0  0  0  0
 36 16  1  0  0  0  0
 39 17  1  0  0  0  0
 41 17  1  0  0  0  0
 42 18  1  0  0  0  0
 44 19  1  0  0  0  0
 45 19  1  0  0  0  0
 47 20  1  0  0  0  0
 49 21  1  0  0  0  0
 51 22  1  0  0  0  0
 53 23  1  0  0  0  0
 54 23  1  0  0  0  0
M  END
$$$$
