CSD_code = KELLIY | q = 0 | S = 0 | Stoichiometry = C8H16Cl2N2O6Pt | MND = 6
 OpenBabel04212202063D

 35 36  0  0  1  0  0  0  0  0999 V2000
    0.3203    3.0388    1.9311 Pt  0  0  0  0  0  0  0  0  0  0  0  0
   -1.6293    2.4098    0.7471 Cl  0  0  0  0  0  0  0  0  0  0  0  0
    2.2946    3.4316    3.1736 Cl  0  0  0  0  0  0  0  0  0  0  0  0
   -0.5837    4.5843    2.8468 O   0  0  0  0  0  0  0  0  0  0  0  0
   -0.4287    2.0468    3.6033 N   0  0  0  0  0  4  0  0  0  0  0  0
   -0.6860    1.0696    3.4515 H   0  0  0  0  0  0  0  0  0  0  0  0
    0.2615    2.0884    4.3768 H   0  0  0  0  0  0  0  0  0  0  0  0
   -1.3598    4.3212    3.8292 C   0  0  0  0  0  0  0  0  0  0  0  0
   -1.5992    2.7945    4.0940 C   0  0  2  0  0  0  0  0  0  0  0  0
   -2.4977    2.4996    3.5444 H   0  0  0  0  0  0  0  0  0  0  0  0
   -1.8852    5.1432    4.5392 O   0  0  0  0  0  0  0  0  0  0  0  0
   -0.4892    2.7364    6.2149 O   0  0  0  0  0  0  0  0  0  0  0  0
   -0.3135    3.6799    6.3075 H   0  0  0  0  0  0  0  0  0  0  0  0
   -1.7557    2.5576    5.6138 C   0  0  2  0  0  0  0  0  0  0  0  0
   -2.4759    3.2948    5.9890 H   0  0  0  0  0  0  0  0  0  0  0  0
   -2.2424    1.1483    5.9314 C   0  0  0  0  0  0  0  0  0  0  0  0
   -2.4049    1.0584    7.0012 H   0  0  0  0  0  0  0  0  0  0  0  0
   -1.4965    0.4107    5.6455 H   0  0  0  0  0  0  0  0  0  0  0  0
   -3.1758    0.9452    5.4154 H   0  0  0  0  0  0  0  0  0  0  0  0
    0.9667    4.0825    0.3387 O   0  0  0  0  0  0  0  0  0  0  0  0
    1.3180    1.5166    0.9168 N   0  0  0  0  0  4  0  0  0  0  0  0
    1.7492    0.8073    1.5128 H   0  0  0  0  0  0  0  0  0  0  0  0
    0.6665    1.0444    0.2614 H   0  0  0  0  0  0  0  0  0  0  0  0
    1.8179    3.5221   -0.4345 C   0  0  0  0  0  0  0  0  0  0  0  0
    2.2127    3.9778   -1.4796 O   0  0  0  0  0  0  0  0  0  0  0  0
    2.3451    2.1298    0.0573 C   0  0  2  0  0  0  0  0  0  0  0  0
    3.2630    2.3059    0.6254 H   0  0  0  0  0  0  0  0  0  0  0  0
    1.3401    0.8427   -1.6941 O   0  0  0  0  0  0  0  0  0  0  0  0
    0.9871    1.5705   -2.2188 H   0  0  0  0  0  0  0  0  0  0  0  0
    2.5963    1.2176   -1.1658 C   0  0  2  0  0  0  0  0  0  0  0  0
    3.1722    1.7985   -1.8966 H   0  0  0  0  0  0  0  0  0  0  0  0
    3.3573   -0.0498   -0.7944 C   0  0  0  0  0  0  0  0  0  0  0  0
    3.5649   -0.6192   -1.6953 H   0  0  0  0  0  0  0  0  0  0  0  0
    2.7620   -0.6764   -0.1348 H   0  0  0  0  0  0  0  0  0  0  0  0
    4.2972    0.2011   -0.3124 H   0  0  0  0  0  0  0  0  0  0  0  0
  1  4  1  0  0  0  0
  1  3  1  0  0  0  0
  1  5  1  0  0  0  0
  2  1  1  0  0  0  0
  4  8  1  0  0  0  0
  5  9  1  0  0  0  0
  5  7  1  0  0  0  0
  6  5  1  0  0  0  0
  8  9  1  0  0  0  0
  8 11  2  0  0  0  0
  9 10  1  6  0  0  0
  9 14  1  0  0  0  0
 12 13  1  0  0  0  0
 14 16  1  0  0  0  0
 14 15  1  1  0  0  0
 14 12  1  0  0  0  0
 16 17  1  0  0  0  0
 18 16  1  0  0  0  0
 19 16  1  0  0  0  0
 20  1  1  0  0  0  0
 21 22  1  0  0  0  0
 21  1  1  0  0  0  0
 23 21  1  0  0  0  0
 24 26  1  0  0  0  0
 24 20  1  0  0  0  0
 25 24  2  0  0  0  0
 26 27  1  1  0  0  0
 26 21  1  0  0  0  0
 28 30  1  0  0  0  0
 29 28  1  0  0  0  0
 30 31  1  6  0  0  0
 30 32  1  0  0  0  0
 30 26  1  0  0  0  0
 32 35  1  0  0  0  0
 32 34  1  0  0  0  0
 33 32  1  0  0  0  0
M  END
$$$$
