CSD_code = KELPOH | q = 0 | S = 0 | Stoichiometry = C25H22Cl3NO2P2Ru | MND = 6
 OpenBabel04212202063D

 56 60  0  0  0  0  0  0  0  0999 V2000
    2.4040    2.4534    4.0577 C   0  0  0  0  0  0  0  0  0  0  0  0
    2.0685    3.2451    4.7328 H   0  0  0  0  0  0  0  0  0  0  0  0
    2.6093    2.8681    3.0663 H   0  0  0  0  0  0  0  0  0  0  0  0
   -0.0872    1.3439    5.1801 C   0  0  0  0  0  0  0  0  0  0  0  0
   -0.2118    0.4294    6.2178 C   0  0  0  0  0  0  0  0  0  0  0  0
    0.4583   -0.4181    6.2547 H   0  0  0  0  0  0  0  0  0  0  0  0
   -1.1774    0.6228    7.1894 C   0  0  0  0  0  0  0  0  0  0  0  0
   -1.2752   -0.0845    7.9991 H   0  0  0  0  0  0  0  0  0  0  0  0
   -2.0165    1.7232    7.1199 C   0  0  0  0  0  0  0  0  0  0  0  0
   -2.7712    1.8745    7.8773 H   0  0  0  0  0  0  0  0  0  0  0  0
   -1.8956    2.6315    6.0787 C   0  0  0  0  0  0  0  0  0  0  0  0
   -2.5550    3.4852    6.0262 H   0  0  0  0  0  0  0  0  0  0  0  0
   -0.9323    2.4436    5.1047 C   0  0  0  0  0  0  0  0  0  0  0  0
   -0.8351    3.1428    4.2861 H   0  0  0  0  0  0  0  0  0  0  0  0
    0.3235    1.0210    2.3413 C   0  0  0  0  0  0  0  0  0  0  0  0
    0.0037   -0.2397    1.8522 C   0  0  0  0  0  0  0  0  0  0  0  0
    0.3340   -1.1177    2.3929 H   0  0  0  0  0  0  0  0  0  0  0  0
   -0.0532    2.1669    1.6563 C   0  0  0  0  0  0  0  0  0  0  0  0
    0.2145    3.1436    2.0343 H   0  0  0  0  0  0  0  0  0  0  0  0
   -0.7493    2.0438    0.4676 C   0  0  0  0  0  0  0  0  0  0  0  0
   -1.0374    2.9296   -0.0791 H   0  0  0  0  0  0  0  0  0  0  0  0
   -1.0667    0.7889   -0.0275 C   0  0  0  0  0  0  0  0  0  0  0  0
   -1.6025    0.7013   -0.9609 H   0  0  0  0  0  0  0  0  0  0  0  0
   -0.6891   -0.3526    0.6618 C   0  0  0  0  0  0  0  0  0  0  0  0
   -0.9255   -1.3292    0.2676 H   0  0  0  0  0  0  0  0  0  0  0  0
    5.2471    2.8411    4.2287 C   0  0  0  0  0  0  0  0  0  0  0  0
    5.8226    2.7618    2.9632 C   0  0  0  0  0  0  0  0  0  0  0  0
    5.4908    1.9975    2.2708 H   0  0  0  0  0  0  0  0  0  0  0  0
    6.8046    3.6642    2.5981 C   0  0  0  0  0  0  0  0  0  0  0  0
    7.2527    3.6015    1.6183 H   0  0  0  0  0  0  0  0  0  0  0  0
    5.6585    3.8228    5.1247 C   0  0  0  0  0  0  0  0  0  0  0  0
    5.2140    3.8756    6.1087 H   0  0  0  0  0  0  0  0  0  0  0  0
    6.6434    4.7190    4.7512 C   0  0  0  0  0  0  0  0  0  0  0  0
    6.9665    5.4794    5.4465 H   0  0  0  0  0  0  0  0  0  0  0  0
    7.2170    4.6399    3.4920 C   0  0  0  0  0  0  0  0  0  0  0  0
    7.9896    5.3387    3.2086 H   0  0  0  0  0  0  0  0  0  0  0  0
    3.8724    1.6435    6.4597 C   0  0  0  0  0  0  0  0  0  0  0  0
    5.0264    1.1954    7.1057 C   0  0  0  0  0  0  0  0  0  0  0  0
    5.8946    0.9356    6.5126 H   0  0  0  0  0  0  0  0  0  0  0  0
    5.0437    1.0704    8.4796 C   0  0  0  0  0  0  0  0  0  0  0  0
    5.9341    0.7186    8.9774 H   0  0  0  0  0  0  0  0  0  0  0  0
    3.9081    1.3753    9.2159 C   0  0  0  0  0  0  0  0  0  0  0  0
    3.9163    1.2643   10.2898 H   0  0  0  0  0  0  0  0  0  0  0  0
    2.7591    1.8073    8.5764 C   0  0  0  0  0  0  0  0  0  0  0  0
    1.8707    2.0339    9.1477 H   0  0  0  0  0  0  0  0  0  0  0  0
    2.7344    1.9411    7.1985 C   0  0  0  0  0  0  0  0  0  0  0  0
    1.8246    2.2655    6.7130 H   0  0  0  0  0  0  0  0  0  0  0  0
    4.1750   -1.5373    5.7481 Cl  0  0  0  0  0  0  0  0  0  0  0  0
    3.2325   -2.5038    2.7878 Cl  0  0  0  0  0  0  0  0  0  0  0  0
    3.2186    0.6279    1.7065 Cl  0  0  0  0  0  0  0  0  0  0  0  0
    5.5517   -0.6154    3.2609 N   0  0  0  0  0  2  0  0  0  0  0  0
    1.8672   -0.2364    4.2763 O   0  0  0  0  0  0  0  0  0  0  0  0
    6.6719   -0.6948    2.9968 O   0  0  0  0  0  1  0  0  0  0  0  0
    1.1890    1.0456    3.9275 P   0  0  0  0  0  4  0  0  0  0  0  0
    3.9553    1.6491    4.6592 P   0  0  0  0  0  4  0  0  0  0  0  0
    3.9456   -0.5002    3.6721 Ru  0  0  0  0  0  0  0  0  0  0  0  0
  1 55  1  0  0  0  0
  1  2  1  0  0  0  0
  3  1  1  0  0  0  0
  4  5  1  0  0  0  0
  5  6  1  0  0  0  0
  5  7  2  0  0  0  0
  7  8  1  0  0  0  0
  9  7  1  0  0  0  0
  9 10  1  0  0  0  0
 11  9  2  0  0  0  0
 12 11  1  0  0  0  0
 13  4  2  0  0  0  0
 13 11  1  0  0  0  0
 14 13  1  0  0  0  0
 15 54  1  0  0  0  0
 16 15  1  0  0  0  0
 16 17  1  0  0  0  0
 18 19  1  0  0  0  0
 18 15  2  0  0  0  0
 20 18  1  0  0  0  0
 21 20  1  0  0  0  0
 22 20  2  0  0  0  0
 22 24  1  0  0  0  0
 23 22  1  0  0  0  0
 24 16  2  0  0  0  0
 25 24  1  0  0  0  0
 26 55  1  0  0  0  0
 26 31  1  0  0  0  0
 27 26  2  0  0  0  0
 28 27  1  0  0  0  0
 29 27  1  0  0  0  0
 29 35  2  0  0  0  0
 30 29  1  0  0  0  0
 31 32  1  0  0  0  0
 33 31  2  0  0  0  0
 33 34  1  0  0  0  0
 35 33  1  0  0  0  0
 36 35  1  0  0  0  0
 37 38  2  0  0  0  0
 37 46  1  0  0  0  0
 38 40  1  0  0  0  0
 39 38  1  0  0  0  0
 40 41  1  0  0  0  0
 40 42  2  0  0  0  0
 42 43  1  0  0  0  0
 44 45  1  0  0  0  0
 44 42  1  0  0  0  0
 46 44  2  0  0  0  0
 47 46  1  0  0  0  0
 49 56  1  0  0  0  0
 50 56  1  0  0  0  0
 51 56  1  0  0  0  0
 53 51  1  0  0  0  0
 54  1  1  0  0  0  0
 54 52  1  0  0  0  0
 54  4  1  0  0  0  0
 55 37  1  0  0  0  0
 56 52  1  0  0  0  0
 56 55  1  0  0  0  0
 56 48  1  0  0  0  0
M  END
$$$$
