CSD_code = KELPIB | q = 0 | S = 0 | Stoichiometry = C26H22Cl3NOP2Ru | MND = 6
 OpenBabel04212202063D

 56 60  0  0  0  0  0  0  0  0999 V2000
    2.4399  -12.0006   21.8599 Ru  0  0  0  0  0  0  0  0  0  0  0  0
    0.5034  -13.0378   22.5934 P   0  0  0  0  0  4  0  0  0  0  0  0
    3.3446  -14.1288   21.7390 P   0  0  0  0  0  4  0  0  0  0  0  0
    4.3641  -11.3848   20.6135 Cl  0  0  0  0  0  0  0  0  0  0  0  0
    1.3747   -9.9250   21.4213 Cl  0  0  0  0  0  0  0  0  0  0  0  0
    1.4896  -12.9287   19.9180 Cl  0  0  0  0  0  0  0  0  0  0  0  0
    3.3537  -11.1141   24.3779 O   0  0  0  0  0  1  0  0  0  0  0  0
    3.0115  -11.4534   23.3271 N   0  0  0  0  0  2  0  0  0  0  0  0
    1.9798  -15.2880   22.0284 C   0  0  0  0  0  0  0  0  0  0  0  0
    2.1715  -16.3456   21.8789 H   0  0  0  0  0  0  0  0  0  0  0  0
    0.7868  -14.8221   22.3873 C   0  0  0  0  0  0  0  0  0  0  0  0
   -0.0629  -15.4723   22.5659 H   0  0  0  0  0  0  0  0  0  0  0  0
    4.1777  -14.7579   20.2678 C   0  0  0  0  0  0  0  0  0  0  0  0
    3.4564  -15.4432   19.2937 C   0  0  0  0  0  0  0  0  0  0  0  0
    2.3957  -15.6096   19.4217 H   0  0  0  0  0  0  0  0  0  0  0  0
    4.1002  -15.8771   18.1499 C   0  0  0  0  0  0  0  0  0  0  0  0
    3.5424  -16.4032   17.3895 H   0  0  0  0  0  0  0  0  0  0  0  0
    5.4509  -15.6240   17.9720 C   0  0  0  0  0  0  0  0  0  0  0  0
    5.9459  -15.9549   17.0711 H   0  0  0  0  0  0  0  0  0  0  0  0
    6.1653  -14.9375   18.9410 C   0  0  0  0  0  0  0  0  0  0  0  0
    7.2150  -14.7312   18.7955 H   0  0  0  0  0  0  0  0  0  0  0  0
    5.5347  -14.5027   20.0915 C   0  0  0  0  0  0  0  0  0  0  0  0
    6.0816  -13.9509   20.8420 H   0  0  0  0  0  0  0  0  0  0  0  0
    4.5240  -14.4700   23.0790 C   0  0  0  0  0  0  0  0  0  0  0  0
    5.4245  -13.4574   23.4035 C   0  0  0  0  0  0  0  0  0  0  0  0
    5.4009  -12.5253   22.8490 H   0  0  0  0  0  0  0  0  0  0  0  0
    6.3431  -13.6490   24.4191 C   0  0  0  0  0  0  0  0  0  0  0  0
    7.0394  -12.8627   24.6685 H   0  0  0  0  0  0  0  0  0  0  0  0
    6.3621  -14.8450   25.1191 C   0  0  0  0  0  0  0  0  0  0  0  0
    7.0737  -14.9919   25.9177 H   0  0  0  0  0  0  0  0  0  0  0  0
    5.4682  -15.8532   24.7970 C   0  0  0  0  0  0  0  0  0  0  0  0
    5.4843  -16.7853   25.3426 H   0  0  0  0  0  0  0  0  0  0  0  0
    4.5507  -15.6727   23.7771 C   0  0  0  0  0  0  0  0  0  0  0  0
    3.8560  -16.4625   23.5309 H   0  0  0  0  0  0  0  0  0  0  0  0
    0.3520  -12.8985   24.3992 C   0  0  0  0  0  0  0  0  0  0  0  0
   -0.6379  -12.1230   24.9921 C   0  0  0  0  0  0  0  0  0  0  0  0
   -1.4000  -11.6643   24.3779 H   0  0  0  0  0  0  0  0  0  0  0  0
   -0.6314  -11.9359   26.3633 C   0  0  0  0  0  0  0  0  0  0  0  0
   -1.3986  -11.3320   26.8241 H   0  0  0  0  0  0  0  0  0  0  0  0
    0.3609  -12.5090   27.1411 C   0  0  0  0  0  0  0  0  0  0  0  0
    0.3642  -12.3554   28.2096 H   0  0  0  0  0  0  0  0  0  0  0  0
    1.3601  -13.2673   26.5495 C   0  0  0  0  0  0  0  0  0  0  0  0
    2.1429  -13.7012   27.1533 H   0  0  0  0  0  0  0  0  0  0  0  0
    1.3620  -13.4559   25.1814 C   0  0  0  0  0  0  0  0  0  0  0  0
    2.1514  -14.0313   24.7069 H   0  0  0  0  0  0  0  0  0  0  0  0
   -1.1713  -12.7902   21.9658 C   0  0  0  0  0  0  0  0  0  0  0  0
   -1.4426  -11.8324   20.9971 C   0  0  0  0  0  0  0  0  0  0  0  0
   -0.6446  -11.2098   20.6167 H   0  0  0  0  0  0  0  0  0  0  0  0
   -2.7408  -11.6757   20.5418 C   0  0  0  0  0  0  0  0  0  0  0  0
   -2.9555  -10.9318   19.7897 H   0  0  0  0  0  0  0  0  0  0  0  0
   -3.7581  -12.4671   21.0477 C   0  0  0  0  0  0  0  0  0  0  0  0
   -4.7687  -12.3444   20.6873 H   0  0  0  0  0  0  0  0  0  0  0  0
   -3.4866  -13.4142   22.0244 C   0  0  0  0  0  0  0  0  0  0  0  0
   -4.2835  -14.0232   22.4256 H   0  0  0  0  0  0  0  0  0  0  0  0
   -2.1964  -13.5779   22.4894 C   0  0  0  0  0  0  0  0  0  0  0  0
   -1.9838  -14.3001   23.2672 H   0  0  0  0  0  0  0  0  0  0  0  0
  1  2  1  0  0  0  0
  1  8  1  0  0  0  0
  2 35  1  0  0  0  0
  3  1  1  0  0  0  0
  3  9  1  0  0  0  0
  3 24  1  0  0  0  0
  4  1  1  0  0  0  0
  5  1  1  0  0  0  0
  6  1  1  0  0  0  0
  8  7  1  0  0  0  0
  9 11  2  0  0  0  0
 10  9  1  0  0  0  0
 11 12  1  0  0  0  0
 11  2  1  0  0  0  0
 13  3  1  0  0  0  0
 14 15  1  0  0  0  0
 14 13  2  0  0  0  0
 16 14  1  0  0  0  0
 17 16  1  0  0  0  0
 18 16  2  0  0  0  0
 18 20  1  0  0  0  0
 19 18  1  0  0  0  0
 20 22  2  0  0  0  0
 21 20  1  0  0  0  0
 22 13  1  0  0  0  0
 22 23  1  0  0  0  0
 24 25  2  0  0  0  0
 24 33  1  0  0  0  0
 25 27  1  0  0  0  0
 26 25  1  0  0  0  0
 27 28  1  0  0  0  0
 27 29  2  0  0  0  0
 29 30  1  0  0  0  0
 31 29  1  0  0  0  0
 31 32  1  0  0  0  0
 33 31  2  0  0  0  0
 34 33  1  0  0  0  0
 35 36  2  0  0  0  0
 35 44  1  0  0  0  0
 36 38  1  0  0  0  0
 37 36  1  0  0  0  0
 38 39  1  0  0  0  0
 38 40  2  0  0  0  0
 40 41  1  0  0  0  0
 42 40  1  0  0  0  0
 42 43  1  0  0  0  0
 44 42  2  0  0  0  0
 45 44  1  0  0  0  0
 46 55  1  0  0  0  0
 46  2  1  0  0  0  0
 47 46  2  0  0  0  0
 48 47  1  0  0  0  0
 49 47  1  0  0  0  0
 49 51  2  0  0  0  0
 50 49  1  0  0  0  0
 51 53  1  0  0  0  0
 52 51  1  0  0  0  0
 53 54  1  0  0  0  0
 53 55  2  0  0  0  0
 55 56  1  0  0  0  0
M  END
$$$$
