CSD_code = KELQUN | q = 0 | S = 0 | Stoichiometry = C7H19ClOTi | MND = 5
 OpenBabel04212202063D

 29 27  0  0  0  0  0  0  0  0999 V2000
    1.0226    5.8765    2.9879 Ti  0  0  0  0  0  0  0  0  0  0  0  0
    2.7509    4.5830    3.4531 Cl  0  0  0  0  0  0  0  0  0  0  0  0
   -0.4122    4.3998    2.6850 C   0  0  0  0  0  0  0  0  0  0  0  0
   -0.7385    4.2945    1.6395 H   0  0  0  0  0  0  0  0  0  0  0  0
    0.0277    3.4368    2.9835 H   0  0  0  0  0  0  0  0  0  0  0  0
   -1.3081    4.5522    3.3072 H   0  0  0  0  0  0  0  0  0  0  0  0
    1.9342    6.7676    1.3375 C   0  0  0  0  0  0  0  0  0  0  0  0
    1.2672    7.1599    0.5596 H   0  0  0  0  0  0  0  0  0  0  0  0
    2.5870    6.0210    0.8595 H   0  0  0  0  0  0  0  0  0  0  0  0
    2.5816    7.5932    1.6792 H   0  0  0  0  0  0  0  0  0  0  0  0
    0.9356    6.7675    4.8723 C   0  0  0  0  0  0  0  0  0  0  0  0
    1.0810    5.9599    5.6062 H   0  0  0  0  0  0  0  0  0  0  0  0
    1.7689    7.4772    5.0042 H   0  0  0  0  0  0  0  0  0  0  0  0
    0.0009    7.2836    5.1312 H   0  0  0  0  0  0  0  0  0  0  0  0
   -0.6907    7.5971    2.5227 O   0  0  0  0  0  0  0  0  0  0  0  0
   -0.3743    8.9708    2.7312 C   0  0  0  0  0  0  0  0  0  0  0  0
   -1.1179    9.4127    3.4127 H   0  0  0  0  0  0  0  0  0  0  0  0
    0.6019    8.9549    3.2282 H   0  0  0  0  0  0  0  0  0  0  0  0
   -1.9932    7.3581    1.9882 C   0  0  0  0  0  0  0  0  0  0  0  0
   -2.3964    6.5005    2.5389 H   0  0  0  0  0  0  0  0  0  0  0  0
   -2.6377    8.2252    2.1776 H   0  0  0  0  0  0  0  0  0  0  0  0
   -1.9590    7.0263    0.4988 C   0  0  0  0  0  0  0  0  0  0  0  0
   -1.2309    6.2337    0.3274 H   0  0  0  0  0  0  0  0  0  0  0  0
   -1.6790    7.8906   -0.0968 H   0  0  0  0  0  0  0  0  0  0  0  0
   -2.9390    6.6843    0.1764 H   0  0  0  0  0  0  0  0  0  0  0  0
   -0.2833    9.8100    1.4597 C   0  0  0  0  0  0  0  0  0  0  0  0
    0.0871   10.7996    1.7137 H   0  0  0  0  0  0  0  0  0  0  0  0
   -1.2548    9.9235    0.9848 H   0  0  0  0  0  0  0  0  0  0  0  0
    0.4074    9.3509    0.7574 H   0  0  0  0  0  0  0  0  0  0  0  0
  1  2  1  0  0  0  0
  1 11  1  0  0  0  0
  3  5  1  0  0  0  0
  3  1  1  0  0  0  0
  3  6  1  0  0  0  0
  4  3  1  0  0  0  0
  7 10  1  0  0  0  0
  7  1  1  0  0  0  0
  8  7  1  0  0  0  0
  9  7  1  0  0  0  0
 11 13  1  0  0  0  0
 11 14  1  0  0  0  0
 11 12  1  0  0  0  0
 15 16  1  0  0  0  0
 16 18  1  0  0  0  0
 16 17  1  0  0  0  0
 19 21  1  0  0  0  0
 19 15  1  0  0  0  0
 19 20  1  0  0  0  0
 22 19  1  0  0  0  0
 23 22  1  0  0  0  0
 24 22  1  0  0  0  0
 25 22  1  0  0  0  0
 26 27  1  0  0  0  0
 26 16  1  0  0  0  0
 28 26  1  0  0  0  0
 29 26  1  0  0  0  0
M  END
$$$$
