CSD_code = KELQOK | q = 0 | S = 0 | Stoichiometry = C33H28ClCuNP | MND = 3
 OpenBabel04212202063D

 65 71  0  0  1  0  0  0  0  0999 V2000
    1.2977    2.4275    8.0336 Cu  0  0  0  0  0  0  0  0  0  0  0  0
    2.0662    1.1930    6.4097 Cl  0  0  0  0  0  0  0  0  0  0  0  0
   -2.5845    0.8946    9.3736 C   0  0  0  0  0  0  0  0  0  0  0  0
   -2.3186    0.3207    8.4857 H   0  0  0  0  0  0  0  0  0  0  0  0
   -3.5730    0.5770    9.7082 H   0  0  0  0  0  0  0  0  0  0  0  0
   -1.5323    0.5808   10.4926 C   0  0  0  0  0  0  0  0  0  0  0  0
   -1.9028   -0.2449   11.1025 H   0  0  0  0  0  0  0  0  0  0  0  0
   -0.6065    0.2624   10.0087 H   0  0  0  0  0  0  0  0  0  0  0  0
   -1.2535    1.8026   11.3205 C   0  0  0  0  0  0  0  0  0  0  0  0
   -0.0917    2.5585   11.1208 C   0  0  0  0  0  0  0  0  0  0  0  0
   -0.1073    3.9257   11.3863 C   0  0  0  0  0  0  0  0  0  0  0  0
    0.7383    4.5256   11.0743 H   0  0  0  0  0  0  0  0  0  0  0  0
   -1.2320    4.5386   11.9132 C   0  0  0  0  0  0  0  0  0  0  0  0
   -2.2253    3.7111   12.4315 C   0  0  0  0  0  0  0  0  0  0  0  0
   -3.0558    4.1415   12.9724 H   0  0  0  0  0  0  0  0  0  0  0  0
   -2.2355    2.3607   12.1325 C   0  0  0  0  0  0  0  0  0  0  0  0
   -3.0809    1.7574   12.4310 H   0  0  0  0  0  0  0  0  0  0  0  0
   -1.4639    6.0081   11.7006 C   0  0  0  0  0  0  0  0  0  0  0  0
   -0.6326    6.6022   12.0843 H   0  0  0  0  0  0  0  0  0  0  0  0
   -2.3688    6.3079   12.2303 H   0  0  0  0  0  0  0  0  0  0  0  0
   -1.6240    6.3160   10.1725 C   0  0  0  0  0  0  0  0  0  0  0  0
   -2.3079    7.1600   10.0624 H   0  0  0  0  0  0  0  0  0  0  0  0
   -0.6538    6.6080    9.7710 H   0  0  0  0  0  0  0  0  0  0  0  0
   -2.1282    5.0976    9.4430 C   0  0  0  0  0  0  0  0  0  0  0  0
   -3.3279    4.5275    9.8478 C   0  0  0  0  0  0  0  0  0  0  0  0
   -4.0277    5.1229   10.4159 H   0  0  0  0  0  0  0  0  0  0  0  0
   -3.5752    3.1810    9.6653 C   0  0  0  0  0  0  0  0  0  0  0  0
   -4.4756    2.7439   10.0714 H   0  0  0  0  0  0  0  0  0  0  0  0
   -2.6086    2.3668    9.0863 C   0  0  0  0  0  0  0  0  0  0  0  0
   -1.5721    2.9924    8.4065 C   0  0  0  0  0  0  0  0  0  0  0  0
   -0.9116    2.4040    7.7811 H   0  0  0  0  0  0  0  0  0  0  0  0
   -1.3250    4.3552    8.5563 C   0  0  0  0  0  0  0  0  0  0  0  0
   -0.2515    4.9853    7.7769 C   0  0  2  0  0  3  0  0  0  0  0  0
   -0.4568    6.2610    7.2438 C   0  0  0  0  0  0  0  0  0  0  0  0
   -1.3944    6.7631    7.4247 H   0  0  0  0  0  0  0  0  0  0  0  0
    0.5219    6.8495    6.4670 C   0  0  0  0  0  0  0  0  0  0  0  0
    0.3715    7.8327    6.0465 H   0  0  0  0  0  0  0  0  0  0  0  0
    1.6939    6.1446    6.2275 C   0  0  0  0  0  0  0  0  0  0  0  0
    2.4848    6.5588    5.6234 H   0  0  0  0  0  0  0  0  0  0  0  0
    1.8196    4.8808    6.7686 C   0  0  0  0  0  0  0  0  0  0  0  0
    2.7001    4.2814    6.5841 H   0  0  0  0  0  0  0  0  0  0  0  0
    0.8801    4.3136    7.5224 N   0  0  0  0  0  0  0  0  0  0  0  0
    1.3354    1.9520   10.1836 P   0  0  0  0  0  4  0  0  0  0  0  0
    1.6933    0.2759   10.8094 C   0  0  0  0  0  0  0  0  0  0  0  0
    1.4184   -0.1336   12.1094 C   0  0  0  0  0  0  0  0  0  0  0  0
    0.9158    0.5354   12.7941 H   0  0  0  0  0  0  0  0  0  0  0  0
    1.7770   -1.4064   12.5124 C   0  0  0  0  0  0  0  0  0  0  0  0
    1.5629   -1.7302   13.5209 H   0  0  0  0  0  0  0  0  0  0  0  0
    2.4106   -2.2666   11.6286 C   0  0  0  0  0  0  0  0  0  0  0  0
    2.6892   -3.2587   11.9524 H   0  0  0  0  0  0  0  0  0  0  0  0
    2.6814   -1.8595   10.3325 C   0  0  0  0  0  0  0  0  0  0  0  0
    3.1682   -2.5322    9.6424 H   0  0  0  0  0  0  0  0  0  0  0  0
    2.3224   -0.5893    9.9193 C   0  0  0  0  0  0  0  0  0  0  0  0
    2.5101   -0.2595    8.9045 H   0  0  0  0  0  0  0  0  0  0  0  0
    2.7358    2.8159   10.9724 C   0  0  0  0  0  0  0  0  0  0  0  0
    3.8078    3.1474   10.1505 C   0  0  0  0  0  0  0  0  0  0  0  0
    3.7444    2.9246    9.0921 H   0  0  0  0  0  0  0  0  0  0  0  0
    4.9344    3.7483   10.6824 C   0  0  0  0  0  0  0  0  0  0  0  0
    5.7649    4.0036   10.0407 H   0  0  0  0  0  0  0  0  0  0  0  0
    4.9942    4.0207   12.0390 C   0  0  0  0  0  0  0  0  0  0  0  0
    5.8718    4.4909   12.4576 H   0  0  0  0  0  0  0  0  0  0  0  0
    3.9290    3.6889   12.8620 C   0  0  0  0  0  0  0  0  0  0  0  0
    3.9793    3.8999   13.9205 H   0  0  0  0  0  0  0  0  0  0  0  0
    2.8029    3.0839   12.3358 C   0  0  0  0  0  0  0  0  0  0  0  0
    1.9727    2.8289   12.9789 H   0  0  0  0  0  0  0  0  0  0  0  0
  1 43  1  0  0  0  0
  2  1  1  0  0  0  0
  3  5  1  0  0  0  0
  3  6  1  0  0  0  0
  4  3  1  0  0  0  0
  6  7  1  0  0  0  0
  6  9  1  0  0  0  0
  8  6  1  0  0  0  0
  9 16  1  0  0  0  0
 10  9  2  0  0  0  0
 10 11  1  0  0  0  0
 11 13  2  0  0  0  0
 12 11  1  0  0  0  0
 13 14  1  0  0  0  0
 14 15  1  0  0  0  0
 16 17  1  0  0  0  0
 16 14  2  0  0  0  0
 18 13  1  0  0  0  0
 18 19  1  0  0  0  0
 18 20  1  0  0  0  0
 21 18  1  0  0  0  0
 22 21  1  0  0  0  0
 23 21  1  0  0  0  0
 24 25  1  0  0  0  0
 24 21  1  0  0  0  0
 25 26  1  0  0  0  0
 27 25  2  0  0  0  0
 27 28  1  0  0  0  0
 29  3  1  0  0  0  0
 29 27  1  0  0  0  0
 30 32  1  0  0  0  0
 30 29  2  0  0  0  0
 31 30  1  0  0  0  0
 32 24  2  0  0  0  0
 33 34  1  6  0  0  0
 33 32  1  0  0  0  0
 34 35  1  0  0  0  0
 36 34  2  0  0  0  0
 37 36  1  0  0  0  0
 38 36  1  0  0  0  0
 38 40  2  0  0  0  0
 39 38  1  0  0  0  0
 40 42  1  0  0  0  0
 41 40  1  0  0  0  0
 42 33  1  0  0  0  0
 42  1  1  0  0  0  0
 43 44  1  0  0  0  0
 43 55  1  0  0  0  0
 43 10  1  0  0  0  0
 44 45  1  0  0  0  0
 45 47  2  0  0  0  0
 45 46  1  0  0  0  0
 47 48  1  0  0  0  0
 49 50  1  0  0  0  0
 49 47  1  0  0  0  0
 51 49  2  0  0  0  0
 52 51  1  0  0  0  0
 53 51  1  0  0  0  0
 53 44  2  0  0  0  0
 54 53  1  0  0  0  0
 55 64  1  0  0  0  0
 56 58  1  0  0  0  0
 56 55  2  0  0  0  0
 57 56  1  0  0  0  0
 58 60  2  0  0  0  0
 59 58  1  0  0  0  0
 60 61  1  0  0  0  0
 60 62  1  0  0  0  0
 62 63  1  0  0  0  0
 64 62  2  0  0  0  0
 64 65  1  0  0  0  0
M  END
$$$$
