CSD_code = KELRAV | q = 0 | S = 0 | Stoichiometry = C14H12Cl2N2OPd | MND = 4
 OpenBabel04212202063D

 32 35  0  0  1  0  0  0  0  0999 V2000
   -1.4030    4.9778   29.4788 Pd  0  0  0  0  0  0  0  0  0  0  0  0
   -2.4796    3.3194   30.4535 Cl  0  0  0  0  0  0  0  0  0  0  0  0
   -2.2363    4.3898   27.5170 Cl  0  0  0  0  0  0  0  0  0  0  0  0
   -0.6803    5.7577   31.2224 N   0  0  0  0  0  0  0  0  0  0  0  0
   -0.9793    5.4003   32.4691 C   0  0  0  0  0  0  0  0  0  0  0  0
   -1.6293    4.5371   32.5654 H   0  0  0  0  0  0  0  0  0  0  0  0
   -0.4858    6.0791   33.5701 C   0  0  0  0  0  0  0  0  0  0  0  0
   -0.7541    5.7551   34.5625 H   0  0  0  0  0  0  0  0  0  0  0  0
    0.3555    7.1718   33.3801 C   0  0  0  0  0  0  0  0  0  0  0  0
    0.7537    7.7136   34.2239 H   0  0  0  0  0  0  0  0  0  0  0  0
    0.6711    7.5519   32.0895 C   0  0  0  0  0  0  0  0  0  0  0  0
    1.3158    8.3896   31.8774 H   0  0  0  0  0  0  0  0  0  0  0  0
    0.1309    6.8251   31.0312 C   0  0  0  0  0  0  0  0  0  0  0  0
    0.3816    7.1015   29.6365 C   0  0  0  0  0  0  0  0  0  0  0  0
    1.3188    7.9580   29.2010 O   0  0  0  0  0  0  0  0  0  0  0  0
    1.3294    7.8585   27.7733 C   0  0  0  0  0  0  0  0  0  0  0  0
    2.3317    7.5586   27.4557 H   0  0  0  0  0  0  0  0  0  0  0  0
    1.0934    8.8410   27.3585 H   0  0  0  0  0  0  0  0  0  0  0  0
    0.2567    6.7826   27.4326 C   0  0  2  0  0  0  0  0  0  0  0  0
   -0.5447    7.1856   26.8028 H   0  0  0  0  0  0  0  0  0  0  0  0
   -0.2784    6.4635   28.7340 N   0  0  0  0  0  0  0  0  0  0  0  0
    0.8370    5.5612   26.7452 C   0  0  0  0  0  0  0  0  0  0  0  0
    1.1076    5.6380   25.3847 C   0  0  0  0  0  0  0  0  0  0  0  0
    0.8901    6.5509   24.8494 H   0  0  0  0  0  0  0  0  0  0  0  0
    1.6388    4.5522   24.7135 C   0  0  0  0  0  0  0  0  0  0  0  0
    1.8385    4.6220   23.6548 H   0  0  0  0  0  0  0  0  0  0  0  0
    1.8982    3.3753   25.3949 C   0  0  0  0  0  0  0  0  0  0  0  0
    2.2989    2.5219   24.8693 H   0  0  0  0  0  0  0  0  0  0  0  0
    1.6336    3.2934   26.7506 C   0  0  0  0  0  0  0  0  0  0  0  0
    1.8269    2.3765   27.2862 H   0  0  0  0  0  0  0  0  0  0  0  0
    1.1120    4.3824   27.4292 C   0  0  0  0  0  0  0  0  0  0  0  0
    0.9132    4.2871   28.5028 H   0  0  0  0  0  0  0  0  0  0  0  0
  1  2  1  0  0  0  0
  1  4  1  0  0  0  0
  3  1  1  0  0  0  0
  4  5  1  0  0  0  0
  5  6  1  0  0  0  0
  5  7  2  0  0  0  0
  7  8  1  0  0  0  0
  9  7  1  0  0  0  0
  9 10  1  0  0  0  0
 11  9  2  0  0  0  0
 12 11  1  0  0  0  0
 13  4  1  0  0  0  0
 13 11  1  0  0  0  0
 14 13  2  0  0  0  0
 15 14  1  0  0  0  0
 16 15  1  0  0  0  0
 17 16  1  0  0  0  0
 18 16  1  0  0  0  0
 19 20  1  6  0  0  0
 19 16  1  0  0  0  0
 19 21  1  0  0  0  0
 21  1  1  0  0  0  0
 21 14  1  0  0  0  0
 22 31  1  0  0  0  0
 22 19  1  0  0  0  0
 23 22  2  0  0  0  0
 24 23  1  0  0  0  0
 25 23  1  0  0  0  0
 25 27  2  0  0  0  0
 26 25  1  0  0  0  0
 27 29  1  0  0  0  0
 28 27  1  0  0  0  0
 29 30  1  0  0  0  0
 29 31  2  0  0  0  0
 31 32  1  0  0  0  0
M  END
$$$$
