CSD_code = KELREZ | q = 0 | S = 0 | Stoichiometry = C11H14Cl2N2OPd | MND = 4
 OpenBabel04212202063D

 31 33  0  0  1  0  0  0  0  0999 V2000
   -4.5822    3.7074   13.7097 Pd  0  0  0  0  0  0  0  0  0  0  0  0
   -6.4089    2.9693   14.7051 Cl  0  0  0  0  0  0  0  0  0  0  0  0
   -4.7582    2.0798   12.2270 Cl  0  0  0  0  0  0  0  0  0  0  0  0
   -2.9961    4.5745   12.7824 N   0  0  0  0  0  0  0  0  0  0  0  0
   -2.4609    4.2649   11.6035 C   0  0  0  0  0  0  0  0  0  0  0  0
   -2.8860    3.3993   11.1071 H   0  0  0  0  0  0  0  0  0  0  0  0
   -1.4212    4.9926   11.0503 C   0  0  0  0  0  0  0  0  0  0  0  0
   -1.0179    4.7048   10.0930 H   0  0  0  0  0  0  0  0  0  0  0  0
   -0.9070    6.0857   11.7412 C   0  0  0  0  0  0  0  0  0  0  0  0
   -0.0947    6.6650   11.3308 H   0  0  0  0  0  0  0  0  0  0  0  0
   -1.4580    6.4161   12.9649 C   0  0  0  0  0  0  0  0  0  0  0  0
   -1.1052    7.2512   13.5485 H   0  0  0  0  0  0  0  0  0  0  0  0
   -2.5064    5.6407   13.4536 C   0  0  0  0  0  0  0  0  0  0  0  0
   -3.1608    5.8691   14.7216 C   0  0  0  0  0  0  0  0  0  0  0  0
   -4.2132    5.2009   15.0394 N   0  0  0  0  0  0  0  0  0  0  0  0
   -4.5748    5.5058   16.4080 C   0  0  2  0  0  0  0  0  0  0  0  0
   -5.5840    5.9328   16.4223 H   0  0  0  0  0  0  0  0  0  0  0  0
   -3.5087    6.5622   16.8015 C   0  0  0  0  0  0  0  0  0  0  0  0
   -3.9447    7.5311   17.0525 H   0  0  0  0  0  0  0  0  0  0  0  0
   -2.8658    6.2335   17.6210 H   0  0  0  0  0  0  0  0  0  0  0  0
   -2.6884    6.7237   15.6390 O   0  0  0  0  0  0  0  0  0  0  0  0
   -4.5894    4.2141   17.2581 C   0  0  0  0  0  0  0  0  0  0  0  0
   -5.4626    3.6458   16.9195 H   0  0  0  0  0  0  0  0  0  0  0  0
   -3.3520    3.3519   17.0016 C   0  0  0  0  0  0  0  0  0  0  0  0
   -3.3499    2.5069   17.6845 H   0  0  0  0  0  0  0  0  0  0  0  0
   -2.4287    3.9122   17.1461 H   0  0  0  0  0  0  0  0  0  0  0  0
   -3.3735    2.9504   15.9726 H   0  0  0  0  0  0  0  0  0  0  0  0
   -4.7602    4.5372   18.7391 C   0  0  0  0  0  0  0  0  0  0  0  0
   -4.9451    3.6199   19.2909 H   0  0  0  0  0  0  0  0  0  0  0  0
   -5.6073    5.2016   18.8906 H   0  0  0  0  0  0  0  0  0  0  0  0
   -3.8725    5.0073   19.1569 H   0  0  0  0  0  0  0  0  0  0  0  0
  1  2  1  0  0  0  0
  1 15  1  0  0  0  0
  3  1  1  0  0  0  0
  4 13  1  0  0  0  0
  4  1  1  0  0  0  0
  5  4  1  0  0  0  0
  6  5  1  0  0  0  0
  7  5  2  0  0  0  0
  7  9  1  0  0  0  0
  8  7  1  0  0  0  0
  9 11  2  0  0  0  0
 10  9  1  0  0  0  0
 11 13  1  0  0  0  0
 11 12  1  0  0  0  0
 13 14  2  0  0  0  0
 14 15  1  0  0  0  0
 14 21  1  0  0  0  0
 15 16  1  0  0  0  0
 16 17  1  1  0  0  0
 16 18  1  0  0  0  0
 16 22  1  0  0  0  0
 18 19  1  0  0  0  0
 18 20  1  0  0  0  0
 21 18  1  0  0  0  0
 22 28  1  0  0  0  0
 23 22  1  0  0  0  0
 24 26  1  0  0  0  0
 24 22  1  0  0  0  0
 24 25  1  0  0  0  0
 27 24  1  0  0  0  0
 28 30  1  0  0  0  0
 28 31  1  0  0  0  0
 28 29  1  0  0  0  0
M  END
$$$$
