CSD_code = KEMVEF | q = 0 | S = 0 | Stoichiometry = C20H20Cl2SiTi | MND = 12
 OpenBabel04212202063D

 44 45  0  0  1  0  0  0  0  0999 V2000
    5.9881    2.8333    1.6013 Ti  0  0  0  0  0  0  0  0  0  0  0  0
    8.0320    2.4458    0.8040 Cl  0  0  0  0  0  0  0  0  0  0  0  0
    5.1575    2.5177   -0.4568 Cl  0  0  0  0  0  0  0  0  0  0  0  0
    8.1872    0.9688    3.9185 Si  0  0  0  0  0  0  0  0  0  0  0  0
    6.1575    5.0791    0.8383 C   0  0  0  0  0  0  0  0  0  0  0  0
    6.4380    5.3524   -0.1712 H   0  0  0  0  0  0  0  0  0  0  0  0
    4.8388    4.8882    1.3086 C   0  0  0  0  0  0  0  0  0  0  0  0
    3.9369    5.0040    0.7220 H   0  0  0  0  0  0  0  0  0  0  0  0
    4.9017    4.6432    2.6904 C   0  0  0  0  0  0  0  0  0  0  0  0
    4.0547    4.5851    3.3608 H   0  0  0  0  0  0  0  0  0  0  0  0
    6.2628    4.6650    3.0780 C   0  0  0  0  0  0  0  0  0  0  0  0
    6.6323    4.6405    4.0940 H   0  0  0  0  0  0  0  0  0  0  0  0
    7.0329    4.9576    1.9351 C   0  0  0  0  0  3  0  0  0  0  0  0
    8.0982    5.1484    1.9164 H   0  0  0  0  0  0  0  0  0  0  0  0
    5.9990    0.5412    1.9660 C   0  0  0  0  0  3  0  0  0  0  0  0
    6.5603   -0.1559    1.3551 H   0  0  0  0  0  0  0  0  0  0  0  0
    4.6292    0.8305    1.8272 C   0  0  0  0  0  0  0  0  0  0  0  0
    3.9615    0.4115    1.0858 H   0  0  0  0  0  0  0  0  0  0  0  0
    4.2620    1.7064    2.8657 C   0  0  0  0  0  0  0  0  0  0  0  0
    3.2534    2.0396    3.0755 H   0  0  0  0  0  0  0  0  0  0  0  0
    5.3979    1.9127    3.6785 C   0  0  0  0  0  3  0  0  0  0  0  0
    5.4024    2.4055    4.6418 H   0  0  0  0  0  0  0  0  0  0  0  0
    6.4926    1.2107    3.1222 C   0  0  2  0  0  0  0  0  0  0  0  0
    9.1019    2.6235    4.1791 C   0  0  0  0  0  0  0  0  0  0  0  0
    8.5621    3.2788    4.8580 H   0  0  0  0  0  0  0  0  0  0  0  0
    9.2375    3.1421    3.2328 H   0  0  0  0  0  0  0  0  0  0  0  0
   10.0833    2.4502    4.6102 H   0  0  0  0  0  0  0  0  0  0  0  0
    9.2193   -0.2762    2.9178 C   0  0  0  0  0  0  0  0  0  0  0  0
   10.1804   -0.4468    3.3919 H   0  0  0  0  0  0  0  0  0  0  0  0
    9.4017    0.0962    1.9140 H   0  0  0  0  0  0  0  0  0  0  0  0
    8.7168   -1.2357    2.8390 H   0  0  0  0  0  0  0  0  0  0  0  0
    7.7898    0.2665    5.5939 C   0  0  0  0  0  0  0  0  0  0  0  0
    7.5429   -0.1954    6.6846 C   0  0  0  0  0  0  0  0  0  0  0  0
    7.2511   -0.7409    7.9568 C   0  0  0  0  0  0  0  0  0  0  0  0
    6.9526    0.0968    9.0324 C   0  0  0  0  0  0  0  0  0  0  0  0
    6.9488    1.1670    8.8851 H   0  0  0  0  0  0  0  0  0  0  0  0
    6.6667   -0.4448   10.2706 C   0  0  0  0  0  0  0  0  0  0  0  0
    6.4359    0.2064   11.1012 H   0  0  0  0  0  0  0  0  0  0  0  0
    6.6750   -1.8191   10.4504 C   0  0  0  0  0  0  0  0  0  0  0  0
    6.4509   -2.2383   11.4201 H   0  0  0  0  0  0  0  0  0  0  0  0
    6.9715   -2.6550    9.3853 C   0  0  0  0  0  0  0  0  0  0  0  0
    6.9782   -3.7261    9.5259 H   0  0  0  0  0  0  0  0  0  0  0  0
    7.2587   -2.1242    8.1428 C   0  0  0  0  0  0  0  0  0  0  0  0
    7.4905   -2.7681    7.3073 H   0  0  0  0  0  0  0  0  0  0  0  0
  2  1  1  0  0  0  0
  3  1  1  0  0  0  0
  4 24  1  0  0  0  0
  4 32  1  0  0  0  0
  5  7  2  0  0  0  0
  5 13  1  0  0  0  0
  6  5  1  0  0  0  0
  7  9  1  0  0  0  0
  8  7  1  0  0  0  0
  9 11  2  0  0  0  0
  9 10  1  0  0  0  0
 11 12  1  0  0  0  0
 13 11  1  0  0  0  0
 14 13  1  0  0  0  0
 15 23  1  0  0  0  0
 16 15  1  0  0  0  0
 17 15  1  0  0  0  0
 17 19  2  0  0  0  0
 18 17  1  0  0  0  0
 19 20  1  0  0  0  0
 19 21  1  0  0  0  0
 21 22  1  0  0  0  0
 23  1  1  6  0  0  0
 23 21  1  0  0  0  0
 23  4  1  0  0  0  0
 24 27  1  0  0  0  0
 24 25  1  0  0  0  0
 26 24  1  0  0  0  0
 28 29  1  0  0  0  0
 28  4  1  0  0  0  0
 30 28  1  0  0  0  0
 31 28  1  0  0  0  0
 32 33  3  0  0  0  0
 33 34  1  0  0  0  0
 34 43  2  0  0  0  0
 34 35  1  0  0  0  0
 35 37  2  0  0  0  0
 36 35  1  0  0  0  0
 37 39  1  0  0  0  0
 37 38  1  0  0  0  0
 39 40  1  0  0  0  0
 41 42  1  0  0  0  0
 41 39  2  0  0  0  0
 43 41  1  0  0  0  0
 44 43  1  0  0  0  0
M  END
$$$$
