CSD_code = KENBAI | q = 0 | S = 0 | Stoichiometry = C31H26BrCuN3P | MND = 4
 OpenBabel04212202063D

 63 69  0  0  1  0  0  0  0  0999 V2000
    8.5431    1.9721    0.6321 Br  0  0  0  0  0  0  0  0  0  0  0  0
    7.4372    2.8409   -1.1253 Cu  0  0  2  0  0  0  0  0  0  0  0  0
    7.5994    1.7308   -3.1052 P   0  0  0  0  0  4  0  0  0  0  0  0
    8.1518    4.6601   -2.0422 N   0  0  0  0  0  0  0  0  0  0  0  0
    5.7167    3.7400   -1.4213 N   0  0  0  0  0  0  0  0  0  0  0  0
    4.6086    5.3266   -2.5150 N   0  0  0  0  0  0  0  0  0  0  0  0
    4.4371    6.1529   -3.0605 H   0  0  0  0  0  0  0  0  0  0  0  0
   10.4772    4.1121   -1.8478 C   0  0  0  0  0  0  0  0  0  0  0  0
   10.3444    3.1280   -2.3013 H   0  0  0  0  0  0  0  0  0  0  0  0
   10.4095    3.9702   -0.7697 H   0  0  0  0  0  0  0  0  0  0  0  0
   11.4611    4.4959   -2.1012 H   0  0  0  0  0  0  0  0  0  0  0  0
    9.3975    5.0270   -2.3141 C   0  0  1  0  0  3  0  0  0  0  0  0
    9.6597    6.1988   -3.0172 C   0  0  0  0  0  0  0  0  0  0  0  0
   10.6774    6.4842   -3.2311 H   0  0  0  0  0  0  0  0  0  0  0  0
    8.5996    6.9905   -3.4386 C   0  0  0  0  0  0  0  0  0  0  0  0
    8.7848    7.9031   -3.9857 H   0  0  0  0  0  0  0  0  0  0  0  0
    7.3060    6.5998   -3.1557 C   0  0  0  0  0  0  0  0  0  0  0  0
    6.4649    7.1962   -3.4735 H   0  0  0  0  0  0  0  0  0  0  0  0
    7.1163    5.4135   -2.4446 C   0  0  0  0  0  0  0  0  0  0  0  0
    5.8318    4.8573   -2.1198 C   0  0  2  0  0  3  0  0  0  0  0  0
    3.6666    4.4388   -2.0623 C   0  0  0  0  0  0  0  0  0  0  0  0
    2.2876    4.3875   -2.1854 C   0  0  0  0  0  0  0  0  0  0  0  0
    1.7405    5.1511   -2.7175 H   0  0  0  0  0  0  0  0  0  0  0  0
    1.6467    3.3137   -1.5988 C   0  0  0  0  0  0  0  0  0  0  0  0
    0.5726    3.2366   -1.6744 H   0  0  0  0  0  0  0  0  0  0  0  0
    2.3506    2.3250   -0.9075 C   0  0  0  0  0  0  0  0  0  0  0  0
    1.8022    1.5081   -0.4641 H   0  0  0  0  0  0  0  0  0  0  0  0
    3.7225    2.3691   -0.7765 C   0  0  0  0  0  0  0  0  0  0  0  0
    4.2710    1.6128   -0.2393 H   0  0  0  0  0  0  0  0  0  0  0  0
    4.3854    3.4380   -1.3680 C   0  0  0  0  0  0  0  0  0  0  0  0
    6.2319    0.5333   -3.2276 C   0  0  0  0  0  0  0  0  0  0  0  0
    5.5894    0.2058   -4.4165 C   0  0  0  0  0  0  0  0  0  0  0  0
    5.8879    0.6749   -5.3442 H   0  0  0  0  0  0  0  0  0  0  0  0
    4.5609   -0.7181   -4.4073 C   0  0  0  0  0  0  0  0  0  0  0  0
    4.0578   -0.9677   -5.3306 H   0  0  0  0  0  0  0  0  0  0  0  0
    4.1772   -1.3266   -3.2227 C   0  0  0  0  0  0  0  0  0  0  0  0
    3.3710   -2.0454   -3.2244 H   0  0  0  0  0  0  0  0  0  0  0  0
    4.8286   -1.0174   -2.0402 C   0  0  0  0  0  0  0  0  0  0  0  0
    4.5366   -1.4971   -1.1178 H   0  0  0  0  0  0  0  0  0  0  0  0
    5.8527   -0.0888   -2.0418 C   0  0  0  0  0  0  0  0  0  0  0  0
    6.3693    0.1631   -1.1238 H   0  0  0  0  0  0  0  0  0  0  0  0
    7.3385    2.8614   -4.4916 C   0  0  0  0  0  0  0  0  0  0  0  0
    6.0597    3.3595   -4.7426 C   0  0  0  0  0  0  0  0  0  0  0  0
    5.2058    2.9125   -4.2483 H   0  0  0  0  0  0  0  0  0  0  0  0
    5.8800    4.4048   -5.6291 C   0  0  0  0  0  0  0  0  0  0  0  0
    4.8832    4.7737   -5.8287 H   0  0  0  0  0  0  0  0  0  0  0  0
    6.9718    4.9831   -6.2556 C   0  0  0  0  0  0  0  0  0  0  0  0
    6.8302    5.8042   -6.9428 H   0  0  0  0  0  0  0  0  0  0  0  0
    8.2482    4.5065   -5.9968 C   0  0  0  0  0  0  0  0  0  0  0  0
    9.1016    4.9595   -6.4802 H   0  0  0  0  0  0  0  0  0  0  0  0
    8.4333    3.4608   -5.1149 C   0  0  0  0  0  0  0  0  0  0  0  0
    9.4304    3.0978   -4.9027 H   0  0  0  0  0  0  0  0  0  0  0  0
    8.9872    0.6693   -3.6302 C   0  0  0  0  0  0  0  0  0  0  0  0
    9.8447    0.2094   -2.6351 C   0  0  0  0  0  0  0  0  0  0  0  0
    9.6912    0.5101   -1.6068 H   0  0  0  0  0  0  0  0  0  0  0  0
   10.8927   -0.6323   -2.9643 C   0  0  0  0  0  0  0  0  0  0  0  0
   11.5564   -0.9866   -2.1904 H   0  0  0  0  0  0  0  0  0  0  0  0
   11.0862   -1.0143   -4.2811 C   0  0  0  0  0  0  0  0  0  0  0  0
   11.9050   -1.6696   -4.5398 H   0  0  0  0  0  0  0  0  0  0  0  0
   10.2294   -0.5590   -5.2720 C   0  0  0  0  0  0  0  0  0  0  0  0
   10.3802   -0.8612   -6.2985 H   0  0  0  0  0  0  0  0  0  0  0  0
    9.1776    0.2781   -4.9520 C   0  0  0  0  0  0  0  0  0  0  0  0
    8.5082    0.6319   -5.7242 H   0  0  0  0  0  0  0  0  0  0  0  0
  2  1  1  1  0  0  0
  3  2  1  0  0  0  0
  4  2  1  0  0  0  0
  5 30  1  0  0  0  0
  5  2  1  0  0  0  0
  6 20  1  0  0  0  0
  6 21  1  0  0  0  0
  7  6  1  0  0  0  0
  8 10  1  0  0  0  0
  9  8  1  0  0  0  0
 11  8  1  0  0  0  0
 12  4  1  0  0  0  0
 12  8  1  6  0  0  0
 13 12  1  0  0  0  0
 14 13  1  0  0  0  0
 15 17  1  0  0  0  0
 15 13  2  0  0  0  0
 16 15  1  0  0  0  0
 17 19  2  0  0  0  0
 18 17  1  0  0  0  0
 19  4  1  0  0  0  0
 20 19  1  6  0  0  0
 20  5  1  0  0  0  0
 21 30  1  0  0  0  0
 22 21  2  0  0  0  0
 22 24  1  0  0  0  0
 23 22  1  0  0  0  0
 24 26  2  0  0  0  0
 25 24  1  0  0  0  0
 26 28  1  0  0  0  0
 26 27  1  0  0  0  0
 28 29  1  0  0  0  0
 30 28  2  0  0  0  0
 31  3  1  0  0  0  0
 31 40  1  0  0  0  0
 32 34  1  0  0  0  0
 32 31  2  0  0  0  0
 33 32  1  0  0  0  0
 34 36  2  0  0  0  0
 35 34  1  0  0  0  0
 36 38  1  0  0  0  0
 37 36  1  0  0  0  0
 38 39  1  0  0  0  0
 40 38  2  0  0  0  0
 40 41  1  0  0  0  0
 42  3  1  0  0  0  0
 43 42  1  0  0  0  0
 43 44  1  0  0  0  0
 45 43  2  0  0  0  0
 46 45  1  0  0  0  0
 47 49  2  0  0  0  0
 47 45  1  0  0  0  0
 48 47  1  0  0  0  0
 49 51  1  0  0  0  0
 50 49  1  0  0  0  0
 51 52  1  0  0  0  0
 51 42  2  0  0  0  0
 53  3  1  0  0  0  0
 53 54  1  0  0  0  0
 54 55  1  0  0  0  0
 56 54  2  0  0  0  0
 56 57  1  0  0  0  0
 58 56  1  0  0  0  0
 59 58  1  0  0  0  0
 60 62  1  0  0  0  0
 60 58  2  0  0  0  0
 61 60  1  0  0  0  0
 62 53  2  0  0  0  0
 63 62  1  0  0  0  0
M  END
$$$$
