CSD_code = KENHEQ | q = 0 | S = 0 | Stoichiometry = C16H34Cl2MoNO2P3S | MND = 6
 OpenBabel04212202063D

 60 60  0  0  0  0  0  0  0  0999 V2000
   11.0895    4.3023    1.2989 Mo  0  0  0  0  0  0  0  0  0  0  0  0
   11.5958    5.5548    3.1282 Cl  0  0  0  0  0  0  0  0  0  0  0  0
   13.4617    3.5908    1.3398 Cl  0  0  0  0  0  0  0  0  0  0  0  0
   11.8335    6.0346   -0.2359 P   0  0  0  0  0  4  0  0  0  0  0  0
    8.9273    5.2698    1.7137 P   0  0  0  0  0  4  0  0  0  0  0  0
   10.6725    2.2972    2.6095 P   0  0  0  0  0  4  0  0  0  0  0  0
   10.0465    2.6241   -1.3978 S   0  0  0  0  0  0  0  0  0  0  0  0
    9.1360    3.4804   -2.1329 O   0  0  0  0  0  0  0  0  0  0  0  0
    9.5387    1.3323   -0.9917 O   0  0  0  0  0  0  0  0  0  0  0  0
   10.5734    3.4001   -0.1124 N   0  0  0  0  0  2  0  0  0  0  0  0
   13.3386    5.5808   -1.1659 C   0  0  0  0  0  0  0  0  0  0  0  0
   13.5940    6.3609   -1.8852 H   0  0  0  0  0  0  0  0  0  0  0  0
   13.1562    4.6390   -1.6840 H   0  0  0  0  0  0  0  0  0  0  0  0
   14.1607    5.4341   -0.4653 H   0  0  0  0  0  0  0  0  0  0  0  0
   12.3047    7.7046    0.3467 C   0  0  0  0  0  0  0  0  0  0  0  0
   12.6459    8.3174   -0.4878 H   0  0  0  0  0  0  0  0  0  0  0  0
   13.1105    7.5913    1.0735 H   0  0  0  0  0  0  0  0  0  0  0  0
   11.4598    8.1846    0.8378 H   0  0  0  0  0  0  0  0  0  0  0  0
   10.6976    6.3736   -1.6289 C   0  0  0  0  0  0  0  0  0  0  0  0
   11.2352    6.8440   -2.4524 H   0  0  0  0  0  0  0  0  0  0  0  0
    9.8890    7.0281   -1.3098 H   0  0  0  0  0  0  0  0  0  0  0  0
   10.2654    5.4260   -1.9572 H   0  0  0  0  0  0  0  0  0  0  0  0
    8.1836    5.0519    3.3766 C   0  0  0  0  0  0  0  0  0  0  0  0
    7.1998    5.5205    3.4183 H   0  0  0  0  0  0  0  0  0  0  0  0
    8.8463    5.5237    4.1032 H   0  0  0  0  0  0  0  0  0  0  0  0
    8.0937    3.9934    3.6136 H   0  0  0  0  0  0  0  0  0  0  0  0
    8.7290    7.0900    1.5998 C   0  0  0  0  0  0  0  0  0  0  0  0
    7.7156    7.3818    1.8775 H   0  0  0  0  0  0  0  0  0  0  0  0
    8.9371    7.4218    0.5847 H   0  0  0  0  0  0  0  0  0  0  0  0
    9.4418    7.5491    2.2861 H   0  0  0  0  0  0  0  0  0  0  0  0
    7.6184    4.6641    0.6048 C   0  0  0  0  0  0  0  0  0  0  0  0
    6.6976    5.2346    0.7308 H   0  0  0  0  0  0  0  0  0  0  0  0
    7.4393    3.6115    0.8207 H   0  0  0  0  0  0  0  0  0  0  0  0
    7.9728    4.7285   -0.4248 H   0  0  0  0  0  0  0  0  0  0  0  0
   10.8518    2.3563    4.4287 C   0  0  0  0  0  0  0  0  0  0  0  0
   10.6536    1.3784    4.8680 H   0  0  0  0  0  0  0  0  0  0  0  0
   10.1749    3.0988    4.8499 H   0  0  0  0  0  0  0  0  0  0  0  0
   11.8768    2.6591    4.6491 H   0  0  0  0  0  0  0  0  0  0  0  0
    9.0831    1.4374    2.3348 C   0  0  0  0  0  0  0  0  0  0  0  0
    9.0845    0.4742    2.8463 H   0  0  0  0  0  0  0  0  0  0  0  0
    8.9941    1.2816    1.2569 H   0  0  0  0  0  0  0  0  0  0  0  0
    8.2398    2.0302    2.6821 H   0  0  0  0  0  0  0  0  0  0  0  0
   11.7897    0.9188    2.1873 C   0  0  0  0  0  0  0  0  0  0  0  0
   11.6136    0.0700    2.8505 H   0  0  0  0  0  0  0  0  0  0  0  0
   12.8261    1.2467    2.2632 H   0  0  0  0  0  0  0  0  0  0  0  0
   11.5735    0.6297    1.1578 H   0  0  0  0  0  0  0  0  0  0  0  0
   11.5352    2.4242   -2.3580 C   0  0  0  0  0  0  0  0  0  0  0  0
   12.6615    1.9309   -1.7277 C   0  0  0  0  0  0  0  0  0  0  0  0
   12.6064    1.6520   -0.6867 H   0  0  0  0  0  0  0  0  0  0  0  0
   13.8459    1.8373   -2.4353 C   0  0  0  0  0  0  0  0  0  0  0  0
   14.7333    1.4645   -1.9462 H   0  0  0  0  0  0  0  0  0  0  0  0
   13.9090    2.2343   -3.7689 C   0  0  0  0  0  0  0  0  0  0  0  0
   12.7624    2.7291   -4.3806 C   0  0  0  0  0  0  0  0  0  0  0  0
   12.8012    3.0433   -5.4137 H   0  0  0  0  0  0  0  0  0  0  0  0
   11.5741    2.8295   -3.6758 C   0  0  0  0  0  0  0  0  0  0  0  0
   10.6754    3.2225   -4.1252 H   0  0  0  0  0  0  0  0  0  0  0  0
   15.1956    2.1156   -4.5269 C   0  0  0  0  0  0  0  0  0  0  0  0
   15.1717    2.7122   -5.4351 H   0  0  0  0  0  0  0  0  0  0  0  0
   15.3668    1.0759   -4.8056 H   0  0  0  0  0  0  0  0  0  0  0  0
   16.0337    2.4371   -3.9124 H   0  0  0  0  0  0  0  0  0  0  0  0
  1  3  1  0  0  0  0
  1  5  1  0  0  0  0
  1  6  1  0  0  0  0
  1  2  1  0  0  0  0
  4 15  1  0  0  0  0
  4  1  1  0  0  0  0
  5 23  1  0  0  0  0
  6 35  1  0  0  0  0
  7  9  2  0  0  0  0
  7 10  1  0  0  0  0
  8  7  2  0  0  0  0
 10  1  1  0  0  0  0
 11 14  1  0  0  0  0
 11  4  1  0  0  0  0
 12 11  1  0  0  0  0
 13 11  1  0  0  0  0
 15 18  1  0  0  0  0
 15 17  1  0  0  0  0
 16 15  1  0  0  0  0
 19 21  1  0  0  0  0
 19  4  1  0  0  0  0
 20 19  1  0  0  0  0
 22 19  1  0  0  0  0
 23 24  1  0  0  0  0
 23 26  1  0  0  0  0
 23 25  1  0  0  0  0
 27  5  1  0  0  0  0
 27 28  1  0  0  0  0
 27 30  1  0  0  0  0
 29 27  1  0  0  0  0
 31 32  1  0  0  0  0
 31 33  1  0  0  0  0
 31  5  1  0  0  0  0
 34 31  1  0  0  0  0
 35 38  1  0  0  0  0
 35 37  1  0  0  0  0
 35 36  1  0  0  0  0
 39  6  1  0  0  0  0
 39 42  1  0  0  0  0
 39 40  1  0  0  0  0
 41 39  1  0  0  0  0
 43 45  1  0  0  0  0
 43  6  1  0  0  0  0
 43 44  1  0  0  0  0
 46 43  1  0  0  0  0
 47 48  1  0  0  0  0
 47  7  1  0  0  0  0
 48 49  1  0  0  0  0
 50 51  1  0  0  0  0
 50 48  2  0  0  0  0
 52 50  1  0  0  0  0
 53 52  2  0  0  0  0
 53 55  1  0  0  0  0
 54 53  1  0  0  0  0
 55 47  2  0  0  0  0
 56 55  1  0  0  0  0
 57 60  1  0  0  0  0
 57 52  1  0  0  0  0
 58 57  1  0  0  0  0
 59 57  1  0  0  0  0
M  END
$$$$
