CSD_code = KENTOO | q = 0 | S = 0 | Stoichiometry = C6H18Cl2N2O2Pd | MND = 4
 OpenBabel04212202063D

 31 30  0  0  0  0  0  0  0  0999 V2000
    5.0428    0.0002    8.2675 Pd  0  0  0  0  0  0  0  0  0  0  0  0
    2.9986    0.9811    8.6819 Cl  0  0  0  0  0  0  0  0  0  0  0  0
    5.9294    1.8335   10.2143 O   0  0  0  0  0  0  0  0  0  0  0  0
    4.9720   -0.6403   10.2462 N   0  0  0  0  0  4  0  0  0  0  0  0
    4.1860   -0.0377   10.5189 H   0  0  0  0  0  0  0  0  0  0  0  0
    4.6784   -1.6156   10.3273 H   0  0  0  0  0  0  0  0  0  0  0  0
    6.1169   -0.3734   11.1250 C   0  0  0  0  0  0  0  0  0  0  0  0
    6.8034   -1.2228   11.0982 H   0  0  0  0  0  0  0  0  0  0  0  0
    5.7712   -0.2225   12.1553 H   0  0  0  0  0  0  0  0  0  0  0  0
    6.8765    0.8718   10.6421 C   0  0  0  0  0  0  0  0  0  0  0  0
    7.4991    1.2763   11.4541 H   0  0  0  0  0  0  0  0  0  0  0  0
    7.5230    0.5882    9.7985 H   0  0  0  0  0  0  0  0  0  0  0  0
    6.4782    2.8188    9.3700 C   0  0  0  0  0  0  0  0  0  0  0  0
    5.6487    3.4603    9.0735 H   0  0  0  0  0  0  0  0  0  0  0  0
    6.9395    2.3595    8.4795 H   0  0  0  0  0  0  0  0  0  0  0  0
    7.2345    3.4152    9.8965 H   0  0  0  0  0  0  0  0  0  0  0  0
    7.0867   -0.9812    7.8533 Cl  0  0  0  0  0  0  0  0  0  0  0  0
    4.1570   -1.8334    6.3201 O   0  0  0  0  0  0  0  0  0  0  0  0
    5.1134    0.6406    6.2889 N   0  0  0  0  0  4  0  0  0  0  0  0
    5.8993    0.0379    6.0162 H   0  0  0  0  0  0  0  0  0  0  0  0
    5.4070    1.6160    6.2077 H   0  0  0  0  0  0  0  0  0  0  0  0
    3.9684    0.3736    5.4102 C   0  0  0  0  0  0  0  0  0  0  0  0
    3.2817    1.2229    5.4374 H   0  0  0  0  0  0  0  0  0  0  0  0
    4.3140    0.2232    4.3799 H   0  0  0  0  0  0  0  0  0  0  0  0
    3.2094   -0.8719    5.8929 C   0  0  0  0  0  0  0  0  0  0  0  0
    2.5867   -1.2764    5.0810 H   0  0  0  0  0  0  0  0  0  0  0  0
    2.5631   -0.5888    6.7369 H   0  0  0  0  0  0  0  0  0  0  0  0
    3.6091   -2.8190    7.1646 C   0  0  0  0  0  0  0  0  0  0  0  0
    4.4391   -3.4603    7.4604 H   0  0  0  0  0  0  0  0  0  0  0  0
    3.1483   -2.3601    8.0554 H   0  0  0  0  0  0  0  0  0  0  0  0
    2.8527   -3.4156    6.6384 H   0  0  0  0  0  0  0  0  0  0  0  0
  1  2  1  0  0  0  0
  1  4  1  0  0  0  0
  3 10  1  0  0  0  0
  4  6  1  0  0  0  0
  4  5  1  0  0  0  0
  4  7  1  0  0  0  0
  7  9  1  0  0  0  0
  8  7  1  0  0  0  0
 10  7  1  0  0  0  0
 10 11  1  0  0  0  0
 12 10  1  0  0  0  0
 13 16  1  0  0  0  0
 13  3  1  0  0  0  0
 14 13  1  0  0  0  0
 15 13  1  0  0  0  0
 17  1  1  0  0  0  0
 18 28  1  0  0  0  0
 19  1  1  0  0  0  0
 20 19  1  0  0  0  0
 21 19  1  0  0  0  0
 22 23  1  0  0  0  0
 22 25  1  0  0  0  0
 22 19  1  0  0  0  0
 24 22  1  0  0  0  0
 25 18  1  0  0  0  0
 25 27  1  0  0  0  0
 26 25  1  0  0  0  0
 28 29  1  0  0  0  0
 28 30  1  0  0  0  0
 31 28  1  0  0  0  0
M  END
$$$$
