CSD_code = KENWOP | q = 0 | S = 0 | Stoichiometry = C25H26F3NbO2 | MND = 10
 OpenBabel04212202063D

 57 60  0  0  1  0  0  0  0  0999 V2000
    3.8455   11.1244    3.3071 Nb  0  0  0  0  0  0  0  0  0  0  0  0
    2.0933   10.4781    2.8551 F   0  0  0  0  0  0  0  0  0  0  0  0
    4.4259   11.0587    1.4982 F   0  0  0  0  0  0  0  0  0  0  0  0
    5.1655   12.4250    3.7907 F   0  0  0  0  0  0  0  0  0  0  0  0
    5.8636    9.7045    3.8047 C   0  0  0  0  0  0  0  0  0  0  0  0
    5.1857    8.8388    2.9010 C   0  0  0  0  0  0  0  0  0  0  0  0
    3.9447    8.4882    3.4801 C   0  0  0  0  0  0  0  0  0  0  0  0
    3.8580    9.1117    4.7634 C   0  0  0  0  0  0  0  0  0  0  0  0
    5.0634    9.8457    4.9794 C   0  0  2  0  0  0  0  0  0  0  0  0
    7.2644   10.2064    3.6378 C   0  0  0  0  0  0  0  0  0  0  0  0
    5.7547    8.3686    1.6007 C   0  0  0  0  0  0  0  0  0  0  0  0
    2.9218    7.5383    2.9427 C   0  0  0  0  0  0  0  0  0  0  0  0
    2.7902    8.8161    5.7744 C   0  0  0  0  0  0  0  0  0  0  0  0
    5.5492   10.4289    6.2751 C   0  0  0  0  0  0  0  0  0  0  0  0
    2.9388   12.9197    2.4882 O   0  0  0  0  0  0  0  0  0  0  0  0
    1.9501   13.5673    2.9139 C   0  0  0  0  0  0  0  0  0  0  0  0
    1.3831   13.4201    4.1981 C   0  0  0  0  0  0  0  0  0  0  0  0
    1.9058   12.5607    5.1585 C   0  0  1  0  0  3  0  0  0  0  0  0
    2.8940   11.7816    4.9691 O   0  0  0  0  0  0  0  0  0  0  0  0
    1.4056   14.6038    1.9967 C   0  0  0  0  0  0  0  0  0  0  0  0
    2.2648   15.1378    1.0359 C   0  0  0  0  0  0  0  0  0  0  0  0
    1.8149   16.0988    0.1517 C   0  0  0  0  0  0  0  0  0  0  0  0
    0.4980   16.5272    0.2055 C   0  0  0  0  0  0  0  0  0  0  0  0
   -0.3672   15.9858    1.1426 C   0  0  0  0  0  0  0  0  0  0  0  0
    0.0804   15.0310    2.0373 C   0  0  0  0  0  0  0  0  0  0  0  0
    1.3240   12.5638    6.5272 C   0  0  0  0  0  0  0  0  0  0  0  0
   -0.0444   12.6897    6.7490 C   0  0  0  0  0  0  0  0  0  0  0  0
   -0.5429   12.6591    8.0387 C   0  0  0  0  0  0  0  0  0  0  0  0
    0.3152   12.5115    9.1165 C   0  0  0  0  0  0  0  0  0  0  0  0
    1.6783   12.3841    8.9028 C   0  0  0  0  0  0  0  0  0  0  0  0
    2.1795   12.4022    7.6151 C   0  0  0  0  0  0  0  0  0  0  0  0
    7.9788    9.4660    4.0054 H   0  0  0  0  0  0  0  0  0  0  0  0
    7.4729   10.4021    2.5873 H   0  0  0  0  0  0  0  0  0  0  0  0
    7.4049   11.1305    4.1952 H   0  0  0  0  0  0  0  0  0  0  0  0
    6.7664    7.9908    1.7495 H   0  0  0  0  0  0  0  0  0  0  0  0
    5.1451    7.5799    1.1672 H   0  0  0  0  0  0  0  0  0  0  0  0
    5.7991    9.1950    0.8895 H   0  0  0  0  0  0  0  0  0  0  0  0
    2.8010    6.6923    3.6212 H   0  0  0  0  0  0  0  0  0  0  0  0
    1.9581    8.0386    2.8463 H   0  0  0  0  0  0  0  0  0  0  0  0
    3.2081    7.1666    1.9624 H   0  0  0  0  0  0  0  0  0  0  0  0
    3.0088    7.8769    6.2880 H   0  0  0  0  0  0  0  0  0  0  0  0
    2.7203    9.6091    6.5178 H   0  0  0  0  0  0  0  0  0  0  0  0
    1.8223    8.7221    5.2830 H   0  0  0  0  0  0  0  0  0  0  0  0
    6.3935    9.8461    6.6486 H   0  0  0  0  0  0  0  0  0  0  0  0
    5.8819   11.4582    6.1331 H   0  0  0  0  0  0  0  0  0  0  0  0
    4.7621   10.4135    7.0258 H   0  0  0  0  0  0  0  0  0  0  0  0
    0.5744   14.0714    4.4837 H   0  0  0  0  0  0  0  0  0  0  0  0
    3.2853   14.7839    1.0042 H   0  0  0  0  0  0  0  0  0  0  0  0
    2.4884   16.5121   -0.5841 H   0  0  0  0  0  0  0  0  0  0  0  0
    0.1429   17.2761   -0.4871 H   0  0  0  0  0  0  0  0  0  0  0  0
   -1.3979   16.3075    1.1736 H   0  0  0  0  0  0  0  0  0  0  0  0
   -0.6108   14.5984    2.7440 H   0  0  0  0  0  0  0  0  0  0  0  0
   -0.7183   12.7826    5.9111 H   0  0  0  0  0  0  0  0  0  0  0  0
   -1.6062   12.7485    8.2051 H   0  0  0  0  0  0  0  0  0  0  0  0
   -0.0786   12.4927   10.1218 H   0  0  0  0  0  0  0  0  0  0  0  0
    2.3492   12.2693    9.7414 H   0  0  0  0  0  0  0  0  0  0  0  0
    3.2410   12.3136    7.4324 H   0  0  0  0  0  0  0  0  0  0  0  0
  1  4  1  0  0  0  0
  1 19  1  0  0  0  0
  1  9  1  0  0  0  0
  2  1  1  0  0  0  0
  3  1  1  0  0  0  0
  5  9  1  0  0  0  0
  6  7  1  0  0  0  0
  6  5  2  0  0  0  0
  7  8  2  0  0  0  0
  8  9  1  0  0  0  0
  8 13  1  0  0  0  0
  9 14  1  1  0  0  0
 10  5  1  0  0  0  0
 10 32  1  0  0  0  0
 10 34  1  0  0  0  0
 11 35  1  0  0  0  0
 11  6  1  0  0  0  0
 12  7  1  0  0  0  0
 12 38  1  0  0  0  0
 13 41  1  0  0  0  0
 13 42  1  0  0  0  0
 14 44  1  0  0  0  0
 14 46  1  0  0  0  0
 15 16  1  0  0  0  0
 15  1  1  0  0  0  0
 16 17  2  0  0  0  0
 17 47  1  0  0  0  0
 17 18  1  0  0  0  0
 18 26  1  1  0  0  0
 19 18  1  0  0  0  0
 20 25  1  0  0  0  0
 20 16  1  0  0  0  0
 21 20  2  0  0  0  0
 22 23  2  0  0  0  0
 22 21  1  0  0  0  0
 23 24  1  0  0  0  0
 24 51  1  0  0  0  0
 24 25  2  0  0  0  0
 25 52  1  0  0  0  0
 26 27  2  0  0  0  0
 26 31  1  0  0  0  0
 27 28  1  0  0  0  0
 28 54  1  0  0  0  0
 28 29  2  0  0  0  0
 29 55  1  0  0  0  0
 30 29  1  0  0  0  0
 30 56  1  0  0  0  0
 31 30  2  0  0  0  0
 33 10  1  0  0  0  0
 36 11  1  0  0  0  0
 37 11  1  0  0  0  0
 39 12  1  0  0  0  0
 40 12  1  0  0  0  0
 43 13  1  0  0  0  0
 45 14  1  0  0  0  0
 48 21  1  0  0  0  0
 49 22  1  0  0  0  0
 50 23  1  0  0  0  0
 53 27  1  0  0  0  0
 57 31  1  0  0  0  0
M  END
$$$$
