CSD_code = KEPLAT | q = 1 | S = 0 | Stoichiometry = C34H28ClNOPRu(1+) | MND = 9
 OpenBabel04212202063D

 67 73  0  0  1  0  0  0  0  0999 V2000
    0.2208    5.1263   13.1609 Ru  0  0  0  0  0  0  0  0  0  0  0  0
    1.6578    6.6968   13.9410 P   0  0  0  0  0  4  0  0  0  0  0  0
   -0.4832    4.9998   15.3896 Cl  0  0  0  0  0 15  0  0  0  0  0  0
   -2.6485    8.0155   14.0750 O   0  0  0  0  0  0  0  0  0  0  0  0
   -1.1710    6.6648   13.1140 N   0  0  2  0  0  0  0  0  0  0  0  0
    0.8664    7.8248   15.1219 C   0  0  0  0  0  0  0  0  0  0  0  0
   -0.5094    8.0982   15.0529 C   0  0  0  0  0  0  0  0  0  0  0  0
   -1.0655    8.9739   15.9903 C   0  0  0  0  0  0  0  0  0  0  0  0
   -2.1244    9.1736   15.9546 H   0  0  0  0  0  0  0  0  0  0  0  0
   -0.2816    9.5739   16.9577 C   0  0  0  0  0  0  0  0  0  0  0  0
   -0.7349   10.2371   17.6776 H   0  0  0  0  0  0  0  0  0  0  0  0
    1.0790    9.3200   17.0037 C   0  0  0  0  0  0  0  0  0  0  0  0
    1.6959    9.7847   17.7574 H   0  0  0  0  0  0  0  0  0  0  0  0
    1.6463    8.4528   16.0852 C   0  0  0  0  0  0  0  0  0  0  0  0
    2.7049    8.2393   16.1291 H   0  0  0  0  0  0  0  0  0  0  0  0
    2.3481    7.8770   12.7477 C   0  0  0  0  0  0  0  0  0  0  0  0
    1.6568    8.0632   11.5554 C   0  0  0  0  0  0  0  0  0  0  0  0
    0.7695    7.4697   11.3687 H   0  0  0  0  0  0  0  0  0  0  0  0
    2.0958    8.9973   10.6353 C   0  0  0  0  0  0  0  0  0  0  0  0
    1.5540    9.1403    9.7125 H   0  0  0  0  0  0  0  0  0  0  0  0
    3.2277    9.7496   10.9060 C   0  0  0  0  0  0  0  0  0  0  0  0
    3.5754   10.4772   10.1890 H   0  0  0  0  0  0  0  0  0  0  0  0
    3.9121    9.5747   12.0994 C   0  0  0  0  0  0  0  0  0  0  0  0
    4.7898   10.1669   12.3089 H   0  0  0  0  0  0  0  0  0  0  0  0
    3.4753    8.6453   13.0260 C   0  0  0  0  0  0  0  0  0  0  0  0
    4.0080    8.5126   13.9565 H   0  0  0  0  0  0  0  0  0  0  0  0
    3.0468    5.9392   14.8106 C   0  0  0  0  0  0  0  0  0  0  0  0
    2.8620    5.4606   16.1075 C   0  0  0  0  0  0  0  0  0  0  0  0
    1.9135    5.6150   16.6020 H   0  0  0  0  0  0  0  0  0  0  0  0
    3.8895    4.7869   16.7417 C   0  0  0  0  0  0  0  0  0  0  0  0
    3.7500    4.4223   17.7478 H   0  0  0  0  0  0  0  0  0  0  0  0
    5.0939    4.5755   16.0873 C   0  0  0  0  0  0  0  0  0  0  0  0
    5.8939    4.0508   16.5865 H   0  0  0  0  0  0  0  0  0  0  0  0
    5.2723    5.0332   14.7910 C   0  0  0  0  0  0  0  0  0  0  0  0
    6.2085    4.8635   14.2811 H   0  0  0  0  0  0  0  0  0  0  0  0
    4.2508    5.7082   14.1470 C   0  0  0  0  0  0  0  0  0  0  0  0
    4.3867    6.0682   13.1357 H   0  0  0  0  0  0  0  0  0  0  0  0
    1.8462    4.0555   11.9910 C   0  0  2  0  0  0  0  0  0  0  0  0
    2.8774    4.3365   11.8007 H   0  0  0  0  0  0  0  0  0  0  0  0
    0.8582    4.3338   11.0239 C   0  0  0  0  0  3  0  0  0  0  0  0
    1.1373    4.8244   10.0991 H   0  0  0  0  0  0  0  0  0  0  0  0
   -0.4587    3.8818   11.2291 C   0  0  0  0  0  0  0  0  0  0  0  0
   -1.2068    4.0360   10.4585 H   0  0  0  0  0  0  0  0  0  0  0  0
   -0.7864    3.1260   12.3693 C   0  0  0  0  0  0  0  0  0  0  0  0
   -1.7815    2.7135   12.4855 H   0  0  0  0  0  0  0  0  0  0  0  0
    0.2142    2.8245   13.3123 C   0  0  0  0  0  0  0  0  0  0  0  0
   -0.0220    2.1920   14.1611 H   0  0  0  0  0  0  0  0  0  0  0  0
    1.5327    3.2715   13.1249 C   0  0  0  0  0  0  0  0  0  0  0  0
    2.3161    2.9654   13.8096 H   0  0  0  0  0  0  0  0  0  0  0  0
   -1.4117    7.5343   14.0499 C   0  0  1  0  0  3  0  0  0  0  0  0
   -3.4295    7.3641   13.0727 C   0  0  2  0  0  0  0  0  0  0  0  0
   -4.1744    6.7480   13.5848 H   0  0  0  0  0  0  0  0  0  0  0  0
   -2.3713    6.5598   12.2783 C   0  0  1  0  0  0  0  0  0  0  0  0
   -2.6396    5.5080   12.1309 H   0  0  0  0  0  0  0  0  0  0  0  0
   -2.2483    7.3183   10.9736 C   0  0  0  0  0  0  0  0  0  0  0  0
   -1.3703    7.1040    9.9284 C   0  0  0  0  0  0  0  0  0  0  0  0
   -0.6587    6.2950    9.9578 H   0  0  0  0  0  0  0  0  0  0  0  0
   -1.4170    7.9442    8.8260 C   0  0  0  0  0  0  0  0  0  0  0  0
   -0.7361    7.7831    8.0042 H   0  0  0  0  0  0  0  0  0  0  0  0
   -2.3352    8.9794    8.7675 C   0  0  0  0  0  0  0  0  0  0  0  0
   -2.3620    9.6244    7.9031 H   0  0  0  0  0  0  0  0  0  0  0  0
   -3.2256    9.1878    9.8091 C   0  0  0  0  0  0  0  0  0  0  0  0
   -3.9488    9.9870    9.7635 H   0  0  0  0  0  0  0  0  0  0  0  0
   -3.1758    8.3542   10.9103 C   0  0  0  0  0  0  0  0  0  0  0  0
   -4.0568    8.3885   12.1212 C   0  0  0  0  0  0  0  0  0  0  0  0
   -5.0796    8.1079   11.8664 H   0  0  0  0  0  0  0  0  0  0  0  0
   -4.0820    9.3729   12.5891 H   0  0  0  0  0  0  0  0  0  0  0  0
  1  2  1  0  0  0  0
  2 27  1  0  0  0  0
  2  6  1  0  0  0  0
  5  1  1  1  0  0  0
  5 50  1  0  0  0  0
  6 14  1  0  0  0  0
  7  6  2  0  0  0  0
  7  8  1  0  0  0  0
  8 10  2  0  0  0  0
  9  8  1  0  0  0  0
 10 12  1  0  0  0  0
 10 11  1  0  0  0  0
 12 13  1  0  0  0  0
 14 15  1  0  0  0  0
 14 12  2  0  0  0  0
 16 25  1  0  0  0  0
 16  2  1  0  0  0  0
 17 16  2  0  0  0  0
 18 17  1  0  0  0  0
 19 21  2  0  0  0  0
 19 17  1  0  0  0  0
 20 19  1  0  0  0  0
 21 23  1  0  0  0  0
 22 21  1  0  0  0  0
 23 24  1  0  0  0  0
 23 25  2  0  0  0  0
 25 26  1  0  0  0  0
 27 28  1  0  0  0  0
 28 29  1  0  0  0  0
 28 30  2  0  0  0  0
 30 31  1  0  0  0  0
 32 33  1  0  0  0  0
 32 30  1  0  0  0  0
 34 32  2  0  0  0  0
 35 34  1  0  0  0  0
 36 34  1  0  0  0  0
 36 27  2  0  0  0  0
 37 36  1  0  0  0  0
 38 39  1  6  0  0  0
 38 48  1  0  0  0  0
 38  1  1  0  0  0  0
 40 42  1  0  0  0  0
 40 38  1  0  0  0  0
 41 40  1  0  0  0  0
 42 44  2  0  0  0  0
 43 42  1  0  0  0  0
 44 45  1  0  0  0  0
 44 46  1  0  0  0  0
 46 47  1  0  0  0  0
 48 46  2  0  0  0  0
 48 49  1  0  0  0  0
 50  4  1  6  0  0  0
 50  7  1  0  0  0  0
 51 52  1  1  0  0  0
 51  4  1  0  0  0  0
 53 54  1  6  0  0  0
 53 51  1  0  0  0  0
 53  5  1  0  0  0  0
 55 53  1  0  0  0  0
 56 57  1  0  0  0  0
 56 55  2  0  0  0  0
 58 56  1  0  0  0  0
 59 58  1  0  0  0  0
 60 58  2  0  0  0  0
 60 62  1  0  0  0  0
 61 60  1  0  0  0  0
 62 64  2  0  0  0  0
 63 62  1  0  0  0  0
 64 55  1  0  0  0  0
 64 65  1  0  0  0  0
 65 67  1  0  0  0  0
 65 51  1  0  0  0  0
 66 65  1  0  0  0  0
M  END
$$$$
