CSD_code = KEPQOM | q = 0 | S = 0 | Stoichiometry = C14H16Cl2N2O4Pt | MND = 6
 OpenBabel04212202063D

 39 40  0  0  0  0  0  0  0  0999 V2000
    4.7806   15.9328    8.0648 Pt  0  0  0  0  0  0  0  0  0  0  0  0
    5.0052   14.7162    6.1545 Cl  0  0  0  0  0  0  0  0  0  0  0  0
    2.5067   15.9200    7.9636 Cl  0  0  0  0  0  0  0  0  0  0  0  0
    4.6115   17.0910    9.8830 N   0  0  0  0  0  4  0  0  0  0  0  0
    5.0948   16.5484   10.6046 H   0  0  0  0  0  0  0  0  0  0  0  0
    3.6477   17.2763   10.1493 H   0  0  0  0  0  0  0  0  0  0  0  0
    5.1205   17.9626    9.7141 H   0  0  0  0  0  0  0  0  0  0  0  0
    6.9391   15.9671    8.1987 N   0  0  0  0  0  4  0  0  0  0  0  0
    7.2034   16.9562    8.2062 H   0  0  0  0  0  0  0  0  0  0  0  0
    7.3921   15.4740    7.4333 H   0  0  0  0  0  0  0  0  0  0  0  0
    7.1759   15.5440    9.0998 H   0  0  0  0  0  0  0  0  0  0  0  0
    6.1051   14.8577   10.6293 O   0  0  0  0  0  0  0  0  0  0  0  0
    4.6707   14.1484    9.0981 O   0  0  0  0  0  0  0  0  0  0  0  0
    6.2045   18.6590    8.2024 O   0  0  0  0  0  0  0  0  0  0  0  0
    4.7469   17.6308    6.8899 O   0  0  0  0  0  0  0  0  0  0  0  0
    5.3551   13.9906   10.1610 C   0  0  0  0  0  0  0  0  0  0  0  0
    5.1993   12.6665   10.8286 C   0  0  0  0  0  0  0  0  0  0  0  0
    5.8817   12.4220   12.0161 C   0  0  0  0  0  0  0  0  0  0  0  0
    6.5113   13.1973   12.4261 H   0  0  0  0  0  0  0  0  0  0  0  0
    5.7434   11.2012   12.6488 C   0  0  0  0  0  0  0  0  0  0  0  0
    6.2707   11.0095   13.5717 H   0  0  0  0  0  0  0  0  0  0  0  0
    4.9277   10.2247   12.0991 C   0  0  0  0  0  0  0  0  0  0  0  0
    4.8207    9.2714   12.5957 H   0  0  0  0  0  0  0  0  0  0  0  0
    4.2491   10.4671   10.9148 C   0  0  0  0  0  0  0  0  0  0  0  0
    3.6158    9.7030   10.4894 H   0  0  0  0  0  0  0  0  0  0  0  0
    4.3811   11.6858   10.2763 C   0  0  0  0  0  0  0  0  0  0  0  0
    3.8613   11.8943    9.3543 H   0  0  0  0  0  0  0  0  0  0  0  0
    5.4663   18.6328    7.2084 C   0  0  0  0  0  0  0  0  0  0  0  0
    5.3688   19.8052    6.2924 C   0  0  0  0  0  0  0  0  0  0  0  0
    4.5247   19.7732    5.1865 C   0  0  0  0  0  0  0  0  0  0  0  0
    3.9385   18.8871    4.9991 H   0  0  0  0  0  0  0  0  0  0  0  0
    4.4517   20.8719    4.3510 C   0  0  0  0  0  0  0  0  0  0  0  0
    3.7979   20.8516    3.4919 H   0  0  0  0  0  0  0  0  0  0  0  0
    5.2156   21.9985    4.6141 C   0  0  0  0  0  0  0  0  0  0  0  0
    5.1559   22.8548    3.9584 H   0  0  0  0  0  0  0  0  0  0  0  0
    6.0564   22.0304    5.7156 C   0  0  0  0  0  0  0  0  0  0  0  0
    6.6505   22.9093    5.9180 H   0  0  0  0  0  0  0  0  0  0  0  0
    6.1349   20.9363    6.5562 C   0  0  0  0  0  0  0  0  0  0  0  0
    6.7828   20.9385    7.4199 H   0  0  0  0  0  0  0  0  0  0  0  0
  1  8  1  0  0  0  0
  1 13  1  0  0  0  0
  1  4  1  0  0  0  0
  2  1  1  0  0  0  0
  3  1  1  0  0  0  0
  4  6  1  0  0  0  0
  4  5  1  0  0  0  0
  7  4  1  0  0  0  0
  8  9  1  0  0  0  0
  8 11  1  0  0  0  0
 10  8  1  0  0  0  0
 13 16  1  0  0  0  0
 15 28  1  0  0  0  0
 15  1  1  0  0  0  0
 16 12  2  0  0  0  0
 16 17  1  0  0  0  0
 17 18  1  0  0  0  0
 18 19  1  0  0  0  0
 18 20  2  0  0  0  0
 20 21  1  0  0  0  0
 22 23  1  0  0  0  0
 22 20  1  0  0  0  0
 24 22  2  0  0  0  0
 25 24  1  0  0  0  0
 26 17  2  0  0  0  0
 26 24  1  0  0  0  0
 27 26  1  0  0  0  0
 28 14  2  0  0  0  0
 29 38  1  0  0  0  0
 29 28  1  0  0  0  0
 30 29  2  0  0  0  0
 31 30  1  0  0  0  0
 32 34  2  0  0  0  0
 32 30  1  0  0  0  0
 33 32  1  0  0  0  0
 34 36  1  0  0  0  0
 35 34  1  0  0  0  0
 36 37  1  0  0  0  0
 36 38  2  0  0  0  0
 38 39  1  0  0  0  0
M  END
$$$$
