CSD_code = KEQDOA | q = 1 | S = 0 | Stoichiometry = C27H19ClN5Ru(1+) | MND = 6
 OpenBabel04212202063D

 53 61  0  0  1  0  0  0  0  0999 V2000
    2.9058    4.1897    8.6443 Ru  0  0  0  0  0  0  0  0  0  0  0  0
    3.8410    4.8609   10.6797 Cl  0  0  0  0  0  0  0  0  0  0  0  0
    4.7686    4.1548    7.8755 N   0  0  0  0  0  0  0  0  0  0  0  0
    3.0363    6.0014    8.1466 N   0  0  0  0  0  0  0  0  0  0  0  0
    1.1160    4.8177    9.3288 N   0  0  0  0  0  0  0  0  0  0  0  0
    2.0855    3.4292    6.9645 N   0  0  0  0  0  0  0  0  0  0  0  0
    2.7768    2.2543    9.2071 N   0  0  0  0  0  0  0  0  0  0  0  0
    5.6206    3.1362    7.7986 C   0  0  0  0  0  3  0  0  0  0  0  0
    6.9165    3.2689    7.3351 C   0  0  0  0  0  0  0  0  0  0  0  0
    7.3560    4.5213    6.9265 C   0  0  0  0  0  0  0  0  0  0  0  0
    6.4792    5.5870    7.0006 C   0  0  0  0  0  0  0  0  0  0  0  0
    5.1878    5.3848    7.4844 C   0  0  0  0  0  0  0  0  0  0  0  0
    4.2005    6.4518    7.6483 C   0  0  2  0  0  3  0  0  0  0  0  0
    4.3786    7.8099    7.3999 C   0  0  0  0  0  0  0  0  0  0  0  0
    3.3449    8.6860    7.6990 C   0  0  0  0  0  0  0  0  0  0  0  0
    2.1747    8.2087    8.2720 C   0  0  0  0  0  0  0  0  0  0  0  0
    2.0484    6.8413    8.5003 C   0  0  0  0  0  0  0  0  0  0  0  0
    0.9416    6.1535    9.1653 C   0  0  2  0  0  3  0  0  0  0  0  0
   -0.2028    6.7946    9.6362 C   0  0  0  0  0  0  0  0  0  0  0  0
   -1.1751    6.0633   10.2919 C   0  0  0  0  0  0  0  0  0  0  0  0
   -0.9817    4.6981   10.4580 C   0  0  0  0  0  0  0  0  0  0  0  0
    0.1736    4.1238    9.9608 C   0  0  0  0  0  0  0  0  0  0  0  0
    1.7480    4.0506    5.8424 C   0  0  0  0  0  0  0  0  0  0  0  0
    1.1700    3.3924    4.7584 C   0  0  0  0  0  0  0  0  0  0  0  0
    0.9259    2.0375    4.8242 C   0  0  0  0  0  0  0  0  0  0  0  0
    1.2719    1.3465    5.9965 C   0  0  0  0  0  0  0  0  0  0  0  0
    1.8519    2.0950    7.0413 C   0  0  0  0  0  0  0  0  0  0  0  0
    1.0750   -0.0517    6.1932 C   0  0  0  0  0  0  0  0  0  0  0  0
    1.4355   -0.6604    7.3510 C   0  0  0  0  0  0  0  0  0  0  0  0
    2.0259    0.0715    8.4226 C   0  0  0  0  0  0  0  0  0  0  0  0
    2.2278    1.4569    8.2560 C   0  0  0  0  0  0  0  0  0  0  0  0
    2.4252   -0.4939    9.6452 C   0  0  0  0  0  0  0  0  0  0  0  0
    2.9843    0.3262   10.6008 C   0  0  0  0  0  0  0  0  0  0  0  0
    3.1435    1.6901   10.3491 C   0  0  0  0  0  0  0  0  0  0  0  0
    5.2505    2.1729    8.1306 H   0  0  0  0  0  0  0  0  0  0  0  0
    7.5684    2.4115    7.3029 H   0  0  0  0  0  0  0  0  0  0  0  0
    8.3621    4.6626    6.5653 H   0  0  0  0  0  0  0  0  0  0  0  0
    6.7920    6.5726    6.6977 H   0  0  0  0  0  0  0  0  0  0  0  0
    5.3071    8.1823    7.0010 H   0  0  0  0  0  0  0  0  0  0  0  0
    3.4627    9.7415    7.5142 H   0  0  0  0  0  0  0  0  0  0  0  0
    1.3896    8.8911    8.5512 H   0  0  0  0  0  0  0  0  0  0  0  0
   -0.3203    7.8566    9.4971 H   0  0  0  0  0  0  0  0  0  0  0  0
   -2.0617    6.5455   10.6716 H   0  0  0  0  0  0  0  0  0  0  0  0
   -1.7090    4.0903   10.9705 H   0  0  0  0  0  0  0  0  0  0  0  0
    0.3564    3.0620   10.0810 H   0  0  0  0  0  0  0  0  0  0  0  0
    1.9418    5.1154    5.7952 H   0  0  0  0  0  0  0  0  0  0  0  0
    0.9189    3.9563    3.8746 H   0  0  0  0  0  0  0  0  0  0  0  0
    0.4789    1.5092    3.9969 H   0  0  0  0  0  0  0  0  0  0  0  0
    0.6287   -0.6177    5.3901 H   0  0  0  0  0  0  0  0  0  0  0  0
    1.2816   -1.7201    7.4858 H   0  0  0  0  0  0  0  0  0  0  0  0
    2.2918   -1.5500    9.8202 H   0  0  0  0  0  0  0  0  0  0  0  0
    3.3038   -0.0711   11.5506 H   0  0  0  0  0  0  0  0  0  0  0  0
    3.5786    2.3511   11.0891 H   0  0  0  0  0  0  0  0  0  0  0  0
  1  7  1  0  0  0  0
  1  5  1  0  0  0  0
  1  2  1  0  0  0  0
  3  1  1  0  0  0  0
  4 17  1  0  0  0  0
  4  1  1  0  0  0  0
  5 22  1  0  0  0  0
  6 27  1  0  0  0  0
  6  1  1  0  0  0  0
  7 34  1  0  0  0  0
  8  3  1  0  0  0  0
  8 35  1  0  0  0  0
  9  8  1  0  0  0  0
 10 11  1  0  0  0  0
 10  9  2  0  0  0  0
 11 12  2  0  0  0  0
 12 13  1  0  0  0  0
 12  3  1  0  0  0  0
 13 14  1  1  0  0  0
 13  4  1  0  0  0  0
 14 15  2  0  0  0  0
 15 16  1  0  0  0  0
 16 17  2  0  0  0  0
 16 41  1  0  0  0  0
 18 17  1  1  0  0  0
 18  5  1  0  0  0  0
 18 19  1  0  0  0  0
 19 20  2  0  0  0  0
 20 21  1  0  0  0  0
 20 43  1  0  0  0  0
 21 44  1  0  0  0  0
 22 45  1  0  0  0  0
 22 21  2  0  0  0  0
 23  6  1  0  0  0  0
 24 25  1  0  0  0  0
 24 23  2  0  0  0  0
 25 26  2  0  0  0  0
 26 28  1  0  0  0  0
 26 27  1  0  0  0  0
 27 31  2  0  0  0  0
 28 29  2  0  0  0  0
 29 50  1  0  0  0  0
 29 30  1  0  0  0  0
 30 32  2  0  0  0  0
 31 30  1  0  0  0  0
 31  7  1  0  0  0  0
 32 51  1  0  0  0  0
 32 33  1  0  0  0  0
 33 52  1  0  0  0  0
 34 33  2  0  0  0  0
 34 53  1  0  0  0  0
 36  9  1  0  0  0  0
 37 10  1  0  0  0  0
 38 11  1  0  0  0  0
 39 14  1  0  0  0  0
 40 15  1  0  0  0  0
 42 19  1  0  0  0  0
 46 23  1  0  0  0  0
 47 24  1  0  0  0  0
 48 25  1  0  0  0  0
 49 28  1  0  0  0  0
M  END
$$$$
