CSD_code = KEQHAS | q = 0 | S = 0 | Stoichiometry = C21H24Cl4NO2Ta | MND = 6
 OpenBabel04212202063D

 53 56  0  0  1  0  0  0  0  0999 V2000
   -0.1071    6.0096   13.7504 C   0  0  0  0  0  0  0  0  0  0  0  0
    0.0869    5.7041   15.1145 C   0  0  0  0  0  0  0  0  0  0  0  0
    0.6999    4.5052   15.4294 C   0  0  0  0  0  0  0  0  0  0  0  0
    0.8488    4.2649   16.4678 H   0  0  0  0  0  0  0  0  0  0  0  0
    1.1390    3.5833   14.4737 C   0  0  0  0  0  0  0  0  0  0  0  0
    0.9421    3.8914   13.1434 C   0  0  0  0  0  0  0  0  0  0  0  0
    1.2542    3.2246   12.3582 H   0  0  0  0  0  0  0  0  0  0  0  0
    0.3252    5.0897   12.7673 C   0  0  0  0  0  0  0  0  0  0  0  0
    0.1387    5.3765   11.3676 C   0  0  1  0  0  3  0  0  0  0  0  0
    0.2745    5.0018    9.2484 C   0  0  0  0  0  0  0  0  0  0  0  0
    0.5038    4.4886    7.9854 C   0  0  0  0  0  0  0  0  0  0  0  0
    0.9802    3.5326    7.8445 H   0  0  0  0  0  0  0  0  0  0  0  0
    0.0883    5.2717    6.9241 C   0  0  0  0  0  0  0  0  0  0  0  0
    0.2448    4.9171    5.9172 H   0  0  0  0  0  0  0  0  0  0  0  0
   -0.5270    6.5091    7.1212 C   0  0  0  0  0  0  0  0  0  0  0  0
   -0.8311    7.0819    6.2589 H   0  0  0  0  0  0  0  0  0  0  0  0
   -0.7572    7.0209    8.3829 C   0  0  0  0  0  0  0  0  0  0  0  0
   -1.2318    7.9753    8.5398 H   0  0  0  0  0  0  0  0  0  0  0  0
   -0.3459    6.2449    9.4590 C   0  0  0  0  0  0  0  0  0  0  0  0
   -0.3840    6.6942   16.1695 C   0  0  0  0  0  0  0  0  0  0  0  0
   -1.9022    6.8828   16.0324 C   0  0  0  0  0  0  0  0  0  0  0  0
   -2.2529    7.5970   16.7734 H   0  0  0  0  0  0  0  0  0  0  0  0
   -2.4136    5.9358   16.1938 H   0  0  0  0  0  0  0  0  0  0  0  0
   -2.1732    7.2556   15.0469 H   0  0  0  0  0  0  0  0  0  0  0  0
    0.3426    8.0313   15.9608 C   0  0  0  0  0  0  0  0  0  0  0  0
    1.4176    7.8931   16.0597 H   0  0  0  0  0  0  0  0  0  0  0  0
    0.0153    8.7488   16.7092 H   0  0  0  0  0  0  0  0  0  0  0  0
    0.1390    8.4502   14.9775 H   0  0  0  0  0  0  0  0  0  0  0  0
   -0.0930    6.2153   17.5954 C   0  0  0  0  0  0  0  0  0  0  0  0
    0.9743    6.0855   17.7585 H   0  0  0  0  0  0  0  0  0  0  0  0
   -0.6088    5.2827   17.8120 H   0  0  0  0  0  0  0  0  0  0  0  0
   -0.4490    6.9635   18.2995 H   0  0  0  0  0  0  0  0  0  0  0  0
    1.8013    2.2949   14.9353 C   0  0  0  0  0  0  0  0  0  0  0  0
    0.7993    1.4973   15.7818 C   0  0  0  0  0  0  0  0  0  0  0  0
    0.4985    2.0489   16.6678 H   0  0  0  0  0  0  0  0  0  0  0  0
    1.2462    0.5588   16.1012 H   0  0  0  0  0  0  0  0  0  0  0  0
   -0.0918    1.2750   15.1992 H   0  0  0  0  0  0  0  0  0  0  0  0
    3.0391    2.6385   15.7758 C   0  0  0  0  0  0  0  0  0  0  0  0
    2.7740    3.1936   16.6707 H   0  0  0  0  0  0  0  0  0  0  0  0
    3.7338    3.2396   15.1937 H   0  0  0  0  0  0  0  0  0  0  0  0
    3.5451    1.7258   16.0817 H   0  0  0  0  0  0  0  0  0  0  0  0
    2.2478    1.4164   13.7641 C   0  0  0  0  0  0  0  0  0  0  0  0
    2.7217    0.5159   14.1485 H   0  0  0  0  0  0  0  0  0  0  0  0
    2.9709    1.9355   13.1399 H   0  0  0  0  0  0  0  0  0  0  0  0
    1.3996    1.1140   13.1552 H   0  0  0  0  0  0  0  0  0  0  0  0
    0.8414    9.1120   11.8072 Cl  0  0  0  0  0  0  0  0  0  0  0  0
   -3.2614    6.9202   11.9752 Cl  0  0  0  0  0  0  0  0  0  0  0  0
   -2.0764    9.7758   13.6063 Cl  0  0  0  0  0  0  0  0  0  0  0  0
   -2.0393    9.4542   10.3697 Cl  0  0  0  0  0  0  0  0  0  0  0  0
   -0.4125    6.4411   10.8218 N   0  0  0  0  0  0  0  0  0  0  0  0
   -0.6769    7.1142   13.3387 O   0  0  0  0  0  0  0  0  0  0  0  0
    0.5683    4.4786   10.4674 O   0  0  0  0  0  0  0  0  0  0  0  0
   -1.3286    8.2585   12.1207 Ta  0  0  0  0  0  0  0  0  0  0  0  0
  1  2  1  0  0  0  0
  2  3  2  0  0  0  0
  2 20  1  0  0  0  0
  3  4  1  0  0  0  0
  5 33  1  0  0  0  0
  5  3  1  0  0  0  0
  6  5  2  0  0  0  0
  7  6  1  0  0  0  0
  8  6  1  0  0  0  0
  8  1  2  0  0  0  0
  9 52  1  6  0  0  0
  9  8  1  0  0  0  0
 10 19  1  0  0  0  0
 10 52  1  0  0  0  0
 11 10  2  0  0  0  0
 12 11  1  0  0  0  0
 13 15  2  0  0  0  0
 13 11  1  0  0  0  0
 14 13  1  0  0  0  0
 15 17  1  0  0  0  0
 16 15  1  0  0  0  0
 17 18  1  0  0  0  0
 17 19  2  0  0  0  0
 19 50  1  0  0  0  0
 20 29  1  0  0  0  0
 21 20  1  0  0  0  0
 21 23  1  0  0  0  0
 21 22  1  0  0  0  0
 24 21  1  0  0  0  0
 25 26  1  0  0  0  0
 25 20  1  0  0  0  0
 25 27  1  0  0  0  0
 28 25  1  0  0  0  0
 29 30  1  0  0  0  0
 29 31  1  0  0  0  0
 29 32  1  0  0  0  0
 33 38  1  0  0  0  0
 33 34  1  0  0  0  0
 34 36  1  0  0  0  0
 34 35  1  0  0  0  0
 37 34  1  0  0  0  0
 38 41  1  0  0  0  0
 38 39  1  0  0  0  0
 40 38  1  0  0  0  0
 42 43  1  0  0  0  0
 42 33  1  0  0  0  0
 44 42  1  0  0  0  0
 45 42  1  0  0  0  0
 46 53  1  0  0  0  0
 47 53  1  0  0  0  0
 49 53  1  0  0  0  0
 50  9  1  0  0  0  0
 50 53  1  0  0  0  0
 51  1  1  0  0  0  0
 53 51  1  0  0  0  0
 53 48  1  0  0  0  0
M  END
$$$$
