CSD_code = KEQSUU | q = 0 | S = 0 | Stoichiometry = C16H26Cl2N4O4Pt | MND = 6
 OpenBabel04212202063D

 53 56  0  0  0  0  0  0  0  0999 V2000
    5.8891    5.8269    4.3528 Pt  0  0  0  0  0  0  0  0  0  0  0  0
    5.8704    4.8899    2.1733 Cl  0  0  0  0  0  0  0  0  0  0  0  0
    8.6163    5.1024    4.6744 O   0  0  0  0  0  1  0  0  0  0  0  0
    3.5873    4.1707    5.1528 O   0  0  0  0  0  0  0  0  0  0  0  0
    7.4477    4.6621    4.8760 N   0  0  0  0  0  0  0  0  0  0  0  0
    4.9379    4.2372    5.0772 N   0  0  0  0  0  0  0  0  0  0  0  0
    7.1203    3.5244    5.4193 C   0  0  0  0  0  0  0  0  0  0  0  0
    8.1676    2.5657    5.8993 C   0  0  0  0  0  0  0  0  0  0  0  0
    8.4804    2.7191    7.3951 C   0  0  0  0  0  0  0  0  0  0  0  0
    7.4002    2.1999    8.3454 C   0  0  0  0  0  0  0  0  0  0  0  0
    6.1271    3.0586    8.3999 C   0  0  0  0  0  0  0  0  0  0  0  0
    4.9114    2.4315    7.7160 C   0  0  0  0  0  0  0  0  0  0  0  0
    5.1353    2.1020    6.2306 C   0  0  0  0  0  0  0  0  0  0  0  0
    5.6960    3.2967    5.5373 C   0  0  0  0  0  0  0  0  0  0  0  0
    3.2305    5.0274    4.7372 H   0  0  0  0  0  0  0  0  0  0  0  0
    9.0772    2.7925    5.3370 H   0  0  0  0  0  0  0  0  0  0  0  0
    7.8752    1.5379    5.6817 H   0  0  0  0  0  0  0  0  0  0  0  0
    8.6746    3.7719    7.6079 H   0  0  0  0  0  0  0  0  0  0  0  0
    9.4030    2.1686    7.5921 H   0  0  0  0  0  0  0  0  0  0  0  0
    7.8443    2.1694    9.3423 H   0  0  0  0  0  0  0  0  0  0  0  0
    7.1459    1.1713    8.0821 H   0  0  0  0  0  0  0  0  0  0  0  0
    6.3255    4.0390    7.9629 H   0  0  0  0  0  0  0  0  0  0  0  0
    5.8541    3.2299    9.4428 H   0  0  0  0  0  0  0  0  0  0  0  0
    4.6328    1.5106    8.2316 H   0  0  0  0  0  0  0  0  0  0  0  0
    4.0744    3.1271    7.7944 H   0  0  0  0  0  0  0  0  0  0  0  0
    4.1766    1.8460    5.7766 H   0  0  0  0  0  0  0  0  0  0  0  0
    5.8140    1.2577    6.1292 H   0  0  0  0  0  0  0  0  0  0  0  0
    5.9067    6.7637    6.5323 Cl  0  0  0  0  0  0  0  0  0  0  0  0
    4.3301    6.9914    3.8298 N   0  0  0  0  0  0  0  0  0  0  0  0
    3.1617    6.5507    4.0313 O   0  0  0  0  0  1  0  0  0  0  0  0
    4.6572    8.1292    3.2864 C   0  0  0  0  0  0  0  0  0  0  0  0
    3.6099    9.0879    2.8065 C   0  0  0  0  0  0  0  0  0  0  0  0
    3.2971    8.9347    1.3107 C   0  0  0  0  0  0  0  0  0  0  0  0
    4.3772    9.4539    0.3604 C   0  0  0  0  0  0  0  0  0  0  0  0
    5.6503    8.5952    0.3058 C   0  0  0  0  0  0  0  0  0  0  0  0
    6.8660    9.2223    0.9895 C   0  0  0  0  0  0  0  0  0  0  0  0
    6.6421    9.5518    2.4749 C   0  0  0  0  0  0  0  0  0  0  0  0
    6.0815    8.3572    3.1682 C   0  0  0  0  0  0  0  0  0  0  0  0
    6.8399    7.4170    3.6286 N   0  0  0  0  0  0  0  0  0  0  0  0
    8.1905    7.4833    3.5524 O   0  0  0  0  0  0  0  0  0  0  0  0
    8.5472    6.6271    3.9691 H   0  0  0  0  0  0  0  0  0  0  0  0
    7.6008    9.8079    2.9290 H   0  0  0  0  0  0  0  0  0  0  0  0
    5.9634   10.3961    2.5763 H   0  0  0  0  0  0  0  0  0  0  0  0
    7.1446   10.1432    0.4740 H   0  0  0  0  0  0  0  0  0  0  0  0
    7.7030    8.5267    0.9112 H   0  0  0  0  0  0  0  0  0  0  0  0
    5.4519    7.6149    0.7427 H   0  0  0  0  0  0  0  0  0  0  0  0
    5.9233    8.4239   -0.7372 H   0  0  0  0  0  0  0  0  0  0  0  0
    3.9331    9.4845   -0.6365 H   0  0  0  0  0  0  0  0  0  0  0  0
    4.6316   10.4825    0.6237 H   0  0  0  0  0  0  0  0  0  0  0  0
    3.1029    7.8819    1.0978 H   0  0  0  0  0  0  0  0  0  0  0  0
    2.3746    9.4852    1.1137 H   0  0  0  0  0  0  0  0  0  0  0  0
    2.7004    8.8611    3.3689 H   0  0  0  0  0  0  0  0  0  0  0  0
    3.9024   10.1157    3.0242 H   0  0  0  0  0  0  0  0  0  0  0  0
  1  5  1  0  0  0  0
  1  6  1  0  0  0  0
  1 28  1  0  0  0  0
  2  1  1  0  0  0  0
  3  5  1  0  0  0  0
  5  7  1  0  0  0  0
  6  4  1  0  0  0  0
  6 14  1  0  0  0  0
  7 14  2  0  0  0  0
  7  8  1  0  0  0  0
  8  9  1  0  0  0  0
  9 19  1  0  0  0  0
  9 18  1  0  0  0  0
  9 10  1  0  0  0  0
 10 11  1  0  0  0  0
 10 20  1  0  0  0  0
 11 23  1  0  0  0  0
 12 25  1  0  0  0  0
 12 24  1  0  0  0  0
 12 11  1  0  0  0  0
 13 12  1  0  0  0  0
 14 13  1  0  0  0  0
 15  4  1  0  0  0  0
 16  8  1  0  0  0  0
 17  8  1  0  0  0  0
 21 10  1  0  0  0  0
 22 11  1  0  0  0  0
 26 13  1  0  0  0  0
 27 13  1  0  0  0  0
 29 30  1  0  0  0  0
 29  1  1  0  0  0  0
 31 29  1  0  0  0  0
 32 53  1  0  0  0  0
 32 31  1  0  0  0  0
 32 52  1  0  0  0  0
 33 32  1  0  0  0  0
 34 49  1  0  0  0  0
 34 33  1  0  0  0  0
 35 34  1  0  0  0  0
 35 46  1  0  0  0  0
 35 36  1  0  0  0  0
 36 37  1  0  0  0  0
 37 43  1  0  0  0  0
 37 42  1  0  0  0  0
 37 38  1  0  0  0  0
 38 31  2  0  0  0  0
 38 39  1  0  0  0  0
 39  1  1  0  0  0  0
 40 39  1  0  0  0  0
 40 41  1  0  0  0  0
 44 36  1  0  0  0  0
 45 36  1  0  0  0  0
 47 35  1  0  0  0  0
 48 34  1  0  0  0  0
 50 33  1  0  0  0  0
 51 33  1  0  0  0  0
M  END
$$$$
