CSD_code = KEQSEE | q = 0 | S = 0 | Stoichiometry = C12H22Cl4N6O4Pt | MND = 6
 OpenBabel04212202063D

 49 48  0  0  1  0  0  0  0  0999 V2000
   -0.0001    0.0000    0.0002 Pt  0  0  0  0  0  0  0  0  0  0  0  0
    1.7308    0.2253   -1.6062 Cl  0  0  0  0  0  0  0  0  0  0  0  0
    0.3778    2.2457    0.6638 Cl  0  0  0  0  0  0  0  0  0  0  0  0
    2.9020   -1.4473    2.7445 O   0  0  0  0  0  0  0  0  0  0  0  0
    2.5511    0.8726    8.0905 O   0  0  0  0  0  0  0  0  0  0  0  0
    1.2525   -0.5067    1.4823 N   0  0  0  0  0  0  0  0  0  0  0  0
    2.4011   -0.6284    3.7746 N   0  0  0  0  0  0  0  0  0  0  0  0
    3.0340    0.0742    7.0753 N   0  0  0  0  0  0  0  0  0  0  0  0
    2.2391   -1.3096    1.5923 C   0  0  2  0  0  3  0  0  0  0  0  0
    2.9910   -0.7232    4.9007 C   0  0  0  0  0  0  0  0  0  0  0  0
    2.4415    0.1434    5.9471 C   0  0  0  0  0  0  0  0  0  0  0  0
    4.1419   -1.6262    5.1820 C   0  0  0  0  0  0  0  0  0  0  0  0
    1.2720    1.0096    5.6173 C   0  0  0  0  0  0  0  0  0  0  0  0
    2.7694   -2.1683    0.5092 C   0  0  0  0  0  0  0  0  0  0  0  0
    1.0542   -0.0082    2.3601 H   0  0  0  0  0  0  0  0  0  0  0  0
    3.1247    0.6798    8.8465 H   0  0  0  0  0  0  0  0  0  0  0  0
    4.9369   -1.4368    4.4616 H   0  0  0  0  0  0  0  0  0  0  0  0
    3.8255   -2.6609    5.0520 H   0  0  0  0  0  0  0  0  0  0  0  0
    4.5044   -1.4750    6.1919 H   0  0  0  0  0  0  0  0  0  0  0  0
    1.5281    1.6819    4.8014 H   0  0  0  0  0  0  0  0  0  0  0  0
    0.4365    0.3945    5.2902 H   0  0  0  0  0  0  0  0  0  0  0  0
    0.9809    1.5878    6.4900 H   0  0  0  0  0  0  0  0  0  0  0  0
    3.0692   -1.5446   -0.3331 H   0  0  0  0  0  0  0  0  0  0  0  0
    3.6106   -2.7507    0.8726 H   0  0  0  0  0  0  0  0  0  0  0  0
    1.9772   -2.8232    0.1460 H   0  0  0  0  0  0  0  0  0  0  0  0
   -1.7318   -0.2244    1.6057 Cl  0  0  0  0  0  0  0  0  0  0  0  0
   -0.3780   -2.2456   -0.6642 Cl  0  0  0  0  0  0  0  0  0  0  0  0
   -1.2523    0.5066   -1.4823 N   0  0  0  0  0  0  0  0  0  0  0  0
   -2.2389    1.3095   -1.5923 C   0  0  2  0  0  3  0  0  0  0  0  0
   -2.9019    1.4472   -2.7445 O   0  0  0  0  0  0  0  0  0  0  0  0
   -2.4010    0.6284   -3.7746 N   0  0  0  0  0  0  0  0  0  0  0  0
   -2.9909    0.7232   -4.9007 C   0  0  0  0  0  0  0  0  0  0  0  0
   -2.4415   -0.1434   -5.9471 C   0  0  0  0  0  0  0  0  0  0  0  0
   -3.0340   -0.0742   -7.0753 N   0  0  0  0  0  0  0  0  0  0  0  0
   -2.5511   -0.8726   -8.0905 O   0  0  0  0  0  0  0  0  0  0  0  0
   -3.1247   -0.6798   -8.8465 H   0  0  0  0  0  0  0  0  0  0  0  0
   -1.2720   -1.0096   -5.6173 C   0  0  0  0  0  0  0  0  0  0  0  0
   -1.5281   -1.6818   -4.8014 H   0  0  0  0  0  0  0  0  0  0  0  0
   -0.4365   -0.3945   -5.2902 H   0  0  0  0  0  0  0  0  0  0  0  0
   -0.9809   -1.5878   -6.4900 H   0  0  0  0  0  0  0  0  0  0  0  0
   -4.1419    1.6261   -5.1820 C   0  0  0  0  0  0  0  0  0  0  0  0
   -4.9369    1.4368   -4.4615 H   0  0  0  0  0  0  0  0  0  0  0  0
   -3.8255    2.6609   -5.0520 H   0  0  0  0  0  0  0  0  0  0  0  0
   -4.5045    1.4749   -6.1919 H   0  0  0  0  0  0  0  0  0  0  0  0
   -2.7693    2.1682   -0.5091 C   0  0  0  0  0  0  0  0  0  0  0  0
   -3.0691    1.5444    0.3331 H   0  0  0  0  0  0  0  0  0  0  0  0
   -3.6106    2.7506   -0.8725 H   0  0  0  0  0  0  0  0  0  0  0  0
   -1.9771    2.8231   -0.1459 H   0  0  0  0  0  0  0  0  0  0  0  0
   -1.0541    0.0081   -2.3601 H   0  0  0  0  0  0  0  0  0  0  0  0
  1  3  1  0  0  0  0
  1  6  1  0  0  0  0
  1 26  1  0  0  0  0
  2  1  1  0  0  0  0
  4  7  1  0  0  0  0
  5 16  1  0  0  0  0
  6  9  1  0  0  0  0
  6 15  1  0  0  0  0
  7 10  2  0  0  0  0
  8  5  1  0  0  0  0
  9  4  1  1  0  0  0
 10 12  1  0  0  0  0
 10 11  1  0  0  0  0
 11  8  2  0  0  0  0
 12 19  1  0  0  0  0
 13 11  1  0  0  0  0
 13 22  1  0  0  0  0
 14 24  1  0  0  0  0
 14  9  1  0  0  0  0
 17 12  1  0  0  0  0
 18 12  1  0  0  0  0
 20 13  1  0  0  0  0
 21 13  1  0  0  0  0
 23 14  1  0  0  0  0
 25 14  1  0  0  0  0
 27  1  1  0  0  0  0
 28  1  1  0  0  0  0
 29 30  1  6  0  0  0
 29 28  1  0  0  0  0
 29 45  1  0  0  0  0
 31 30  1  0  0  0  0
 32 31  2  0  0  0  0
 33 37  1  0  0  0  0
 33 32  1  0  0  0  0
 34 33  2  0  0  0  0
 35 34  1  0  0  0  0
 36 35  1  0  0  0  0
 37 39  1  0  0  0  0
 37 38  1  0  0  0  0
 40 37  1  0  0  0  0
 41 43  1  0  0  0  0
 41 32  1  0  0  0  0
 41 42  1  0  0  0  0
 44 41  1  0  0  0  0
 45 48  1  0  0  0  0
 45 46  1  0  0  0  0
 47 45  1  0  0  0  0
 49 28  1  0  0  0  0
M  END
$$$$
