CSD_code = KERZEN | q = 0 | S = 0 | Stoichiometry = C12H17Br3N2OZn | MND = 4
 OpenBabel04212202063D

 36 37  0  0  0  0  0  0  0  0999 V2000
    1.7898   12.1147    9.3396 Zn  0  0  0  0  0  0  0  0  0  0  0  0
    6.2894   13.8676   14.6592 Br  0  0  0  0  0  0  0  0  0  0  0  0
    0.4475   10.8877    7.8459 Br  0  0  0  0  0  0  0  0  0  0  0  0
    2.2867   14.3513    8.5079 Br  0  0  0  0  0  0  0  0  0  0  0  0
    1.7048   12.1820   11.1814 O   0  0  0  0  0  0  0  0  0  0  0  0
    3.7448   11.2956    9.2805 N   0  0  0  0  0  0  0  0  0  0  0  0
    3.6602   12.7962    5.2484 N   0  0  0  0  0  4  0  0  0  0  0  0
    4.0776   12.3000   11.4803 C   0  0  0  0  0  0  0  0  0  0  0  0
    2.7218   12.5279   11.8765 C   0  0  0  0  0  0  0  0  0  0  0  0
    2.5049   13.1543   13.1343 C   0  0  0  0  0  0  0  0  0  0  0  0
    1.4790   13.3208   13.4264 H   0  0  0  0  0  0  0  0  0  0  0  0
    3.5332   13.5511   13.9391 C   0  0  0  0  0  0  0  0  0  0  0  0
    3.3395   14.0379   14.8833 H   0  0  0  0  0  0  0  0  0  0  0  0
    4.8502   13.3206   13.5303 C   0  0  0  0  0  0  0  0  0  0  0  0
    5.1176   12.7024   12.3417 C   0  0  0  0  0  0  0  0  0  0  0  0
    6.1410   12.5253   12.0416 H   0  0  0  0  0  0  0  0  0  0  0  0
    4.4725   11.6305   10.2881 C   0  0  0  0  0  3  0  0  0  0  0  0
    5.5374   11.3637   10.2574 H   0  0  0  0  0  0  0  0  0  0  0  0
    4.3754   10.4873    8.2586 C   0  0  0  0  0  0  0  0  0  0  0  0
    5.4707   10.5636    8.3344 H   0  0  0  0  0  0  0  0  0  0  0  0
    4.0957    9.4437    8.4443 H   0  0  0  0  0  0  0  0  0  0  0  0
    3.9201   10.8375    6.8377 C   0  0  0  0  0  0  0  0  0  0  0  0
    2.8444   10.6850    6.7924 H   0  0  0  0  0  0  0  0  0  0  0  0
    4.3961   10.1387    6.1463 H   0  0  0  0  0  0  0  0  0  0  0  0
    4.2844   12.2761    6.4960 C   0  0  0  0  0  0  0  0  0  0  0  0
    5.3680   12.3668    6.3870 H   0  0  0  0  0  0  0  0  0  0  0  0
    3.9639   12.9369    7.3036 H   0  0  0  0  0  0  0  0  0  0  0  0
    4.1018   14.1854    5.0374 C   0  0  0  0  0  0  0  0  0  0  0  0
    3.6961   14.5733    4.1062 H   0  0  0  0  0  0  0  0  0  0  0  0
    5.1874   14.2445    5.0058 H   0  0  0  0  0  0  0  0  0  0  0  0
    3.7328   14.7913    5.8668 H   0  0  0  0  0  0  0  0  0  0  0  0
    2.1850   12.7612    5.2508 C   0  0  0  0  0  0  0  0  0  0  0  0
    1.8185   13.3745    6.0725 H   0  0  0  0  0  0  0  0  0  0  0  0
    1.7994   11.7527    5.3711 H   0  0  0  0  0  0  0  0  0  0  0  0
    1.8117   13.1692    4.3151 H   0  0  0  0  0  0  0  0  0  0  0  0
    3.9836   12.2118    4.4703 H   0  0  0  0  0  0  0  0  0  0  0  0
  1  5  1  0  0  0  0
  3  1  1  0  0  0  0
  4  1  1  0  0  0  0
  5  9  1  0  0  0  0
  6  1  1  0  0  0  0
  6 17  1  0  0  0  0
  7 32  1  0  0  0  0
  7 25  1  0  0  0  0
  8  9  2  0  0  0  0
  8 15  1  0  0  0  0
  9 10  1  0  0  0  0
 10 11  1  0  0  0  0
 10 12  2  0  0  0  0
 12 13  1  0  0  0  0
 14 12  1  0  0  0  0
 14  2  1  0  0  0  0
 15 14  2  0  0  0  0
 16 15  1  0  0  0  0
 17  8  1  0  0  0  0
 18 17  1  0  0  0  0
 19 20  1  0  0  0  0
 19 21  1  0  0  0  0
 19  6  1  0  0  0  0
 22 19  1  0  0  0  0
 23 22  1  0  0  0  0
 24 22  1  0  0  0  0
 25 22  1  0  0  0  0
 25 27  1  0  0  0  0
 26 25  1  0  0  0  0
 28  7  1  0  0  0  0
 28 31  1  0  0  0  0
 29 28  1  0  0  0  0
 30 28  1  0  0  0  0
 32 34  1  0  0  0  0
 32 33  1  0  0  0  0
 35 32  1  0  0  0  0
 36  7  1  0  0  0  0
M  END
$$$$
