CSD_code = KESMEB | q = 0 | S = 0 | Stoichiometry = C8H18CdI2O4 | MND = 6
 OpenBabel04212202063D

 33 31  0  0  0  0  0  0  0  0999 V2000
   13.7691    2.5388    3.5125 Cd  0  0  0  0  0  0  0  0  0  0  0  0
   11.6308    2.3219    5.0965 I   0  0  0  0  0  0  0  0  0  0  0  0
   12.1558    2.2781    1.3440 O   0  0  0  0  0  0  0  0  0  0  0  0
   13.0422    4.7960    2.3099 O   0  0  0  0  0  0  0  0  0  0  0  0
   11.9524    3.4893    0.6491 C   0  0  0  0  0  0  0  0  0  0  0  0
   11.8013    4.6254    1.6535 C   0  0  0  0  0  0  0  0  0  0  0  0
   13.0868    5.9106    3.1740 C   0  0  0  0  0  0  0  0  0  0  0  0
   12.3207    1.1805    0.4705 C   0  0  0  0  0  0  0  0  0  0  0  0
   12.8128    3.6961   -0.0050 H   0  0  0  0  0  0  0  0  0  0  0  0
   11.0415    3.4200    0.0362 H   0  0  0  0  0  0  0  0  0  0  0  0
   11.0133    4.3799    2.3801 H   0  0  0  0  0  0  0  0  0  0  0  0
   11.5288    5.5482    1.1221 H   0  0  0  0  0  0  0  0  0  0  0  0
   12.9503    6.8388    2.5999 H   0  0  0  0  0  0  0  0  0  0  0  0
   12.2998    5.8365    3.9392 H   0  0  0  0  0  0  0  0  0  0  0  0
   12.4335    0.2926    1.0922 H   0  0  0  0  0  0  0  0  0  0  0  0
   13.2108    1.3058   -0.1572 H   0  0  0  0  0  0  0  0  0  0  0  0
   11.4404    1.0642   -0.1715 H   0  0  0  0  0  0  0  0  0  0  0  0
   15.9097    2.3247    1.9266 I   0  0  0  0  0  0  0  0  0  0  0  0
   15.3840    2.2779    5.6800 O   0  0  0  0  0  0  0  0  0  0  0  0
   14.4975    4.7958    4.7141 O   0  0  0  0  0  0  0  0  0  0  0  0
   15.5880    3.4892    6.3745 C   0  0  0  0  0  0  0  0  0  0  0  0
   15.7387    4.6251    5.3700 C   0  0  0  0  0  0  0  0  0  0  0  0
   14.4527    5.9106    3.8503 C   0  0  0  0  0  0  0  0  0  0  0  0
   15.2194    1.1805    6.5539 C   0  0  0  0  0  0  0  0  0  0  0  0
   14.7280    3.6962    7.0291 H   0  0  0  0  0  0  0  0  0  0  0  0
   16.4992    3.4197    6.9870 H   0  0  0  0  0  0  0  0  0  0  0  0
   16.5264    4.3796    4.6432 H   0  0  0  0  0  0  0  0  0  0  0  0
   16.0114    5.5480    5.9013 H   0  0  0  0  0  0  0  0  0  0  0  0
   14.5890    6.8387    4.4247 H   0  0  0  0  0  0  0  0  0  0  0  0
   15.2396    5.8369    3.0850 H   0  0  0  0  0  0  0  0  0  0  0  0
   15.1050    0.2926    5.9326 H   0  0  0  0  0  0  0  0  0  0  0  0
   14.3303    1.3067    7.1828 H   0  0  0  0  0  0  0  0  0  0  0  0
   16.1006    1.0637    7.1947 H   0  0  0  0  0  0  0  0  0  0  0  0
  1  2  1  0  0  0  0
  4  7  1  0  0  0  0
  5  3  1  0  0  0  0
  5  6  1  0  0  0  0
  6  4  1  0  0  0  0
  6 11  1  0  0  0  0
  7 23  1  0  0  0  0
  7 14  1  0  0  0  0
  8 15  1  0  0  0  0
  8  3  1  0  0  0  0
  9  5  1  0  0  0  0
 10  5  1  0  0  0  0
 12  6  1  0  0  0  0
 13  7  1  0  0  0  0
 16  8  1  0  0  0  0
 17  8  1  0  0  0  0
 18  1  1  0  0  0  0
 19 21  1  0  0  0  0
 19 24  1  0  0  0  0
 20 22  1  0  0  0  0
 21 26  1  0  0  0  0
 21 25  1  0  0  0  0
 22 28  1  0  0  0  0
 22 21  1  0  0  0  0
 23 29  1  0  0  0  0
 23 20  1  0  0  0  0
 24 32  1  0  0  0  0
 24 33  1  0  0  0  0
 27 22  1  0  0  0  0
 30 23  1  0  0  0  0
 31 24  1  0  0  0  0
M  END
$$$$
