CSD_code = KESNOL | q = 0 | S = 0 | Stoichiometry = C12H21Cl2N5O2RuS3 | MND = 6
 OpenBabel04212202063D

 46 48  0  0  0  0  0  0  0  0999 V2000
    1.2905    2.0906    6.9395 Ru  0  0  0  0  0  0  0  0  0  0  0  0
   -0.3787    3.6104    7.5692 Cl  0  0  0  0  0  0  0  0  0  0  0  0
    2.9188    0.5413    6.2756 Cl  0  0  0  0  0  0  0  0  0  0  0  0
    4.9798    4.5381   10.5513 S   0  0  0  0  0  0  0  0  0  0  0  0
    2.4193    2.6767    8.4262 N   0  0  0  0  0  0  0  0  0  0  0  0
    3.3514    3.6233    8.5716 N   0  0  0  0  0  0  0  0  0  0  0  0
    3.1299    2.5607   10.4877 N   0  0  0  0  0  0  0  0  0  0  0  0
    3.3666    2.2448   11.8110 N   0  0  0  0  0  0  0  0  0  0  0  0
    0.6740    0.8045    8.4048 N   0  0  0  0  0  0  0  0  0  0  0  0
    3.7780    3.5534    9.8105 C   0  0  0  0  0  0  0  0  0  0  0  0
    2.2626    2.0186    9.5645 C   0  0  0  0  0  0  0  0  0  0  0  0
    1.2995    0.9626    9.6025 C   0  0  0  0  0  0  0  0  0  0  0  0
    1.0006    0.1637   10.7061 C   0  0  0  0  0  0  0  0  0  0  0  0
    1.5131    0.3125   11.6436 H   0  0  0  0  0  0  0  0  0  0  0  0
    0.0401   -0.8206   10.5822 C   0  0  0  0  0  0  0  0  0  0  0  0
   -0.2081   -1.4516   11.4214 H   0  0  0  0  0  0  0  0  0  0  0  0
   -0.5930   -0.9749    9.3564 C   0  0  0  0  0  0  0  0  0  0  0  0
   -1.3486   -1.7290    9.2117 H   0  0  0  0  0  0  0  0  0  0  0  0
   -0.2473   -0.1457    8.3021 C   0  0  0  0  0  0  0  0  0  0  0  0
   -0.7280   -0.2469    7.3352 H   0  0  0  0  0  0  0  0  0  0  0  0
    5.3779    5.5920    9.1281 C   0  0  0  0  0  0  0  0  0  0  0  0
    5.7464    4.9719    8.3181 H   0  0  0  0  0  0  0  0  0  0  0  0
    6.1466    6.2810    9.4616 H   0  0  0  0  0  0  0  0  0  0  0  0
    4.4872    6.1316    8.8246 H   0  0  0  0  0  0  0  0  0  0  0  0
   -0.0751    1.3548    5.2082 S   0  0  0  0  0  0  0  0  0  0  0  0
   -0.9858    0.2524    5.5137 O   0  0  0  0  0  1  0  0  0  0  0  0
   -1.1267    2.6348    4.4689 C   0  0  0  0  0  0  0  0  0  0  0  0
   -1.7038    3.0817    5.2727 H   0  0  0  0  0  0  0  0  0  0  0  0
   -1.7793    2.1500    3.7525 H   0  0  0  0  0  0  0  0  0  0  0  0
   -0.4837    3.3720    4.0033 H   0  0  0  0  0  0  0  0  0  0  0  0
    0.8058    0.8284    3.7122 C   0  0  0  0  0  0  0  0  0  0  0  0
    1.5164    0.0630    4.0091 H   0  0  0  0  0  0  0  0  0  0  0  0
    1.3195    1.6900    3.3027 H   0  0  0  0  0  0  0  0  0  0  0  0
    0.0727    0.4240    3.0243 H   0  0  0  0  0  0  0  0  0  0  0  0
    2.1888    3.6427    5.5431 S   0  0  0  0  0  0  0  0  0  0  0  0
    1.7014    3.6943    4.1674 O   0  0  0  0  0  1  0  0  0  0  0  0
    3.9974    3.5452    5.4264 C   0  0  0  0  0  0  0  0  0  0  0  0
    4.2385    2.5541    5.0549 H   0  0  0  0  0  0  0  0  0  0  0  0
    4.3931    3.6754    6.4259 H   0  0  0  0  0  0  0  0  0  0  0  0
    4.3424    4.3112    4.7422 H   0  0  0  0  0  0  0  0  0  0  0  0
    2.0702    5.3388    6.1777 C   0  0  0  0  0  0  0  0  0  0  0  0
    1.0151    5.5525    6.3176 H   0  0  0  0  0  0  0  0  0  0  0  0
    2.5102    6.0124    5.4520 H   0  0  0  0  0  0  0  0  0  0  0  0
    2.5851    5.3636    7.1300 H   0  0  0  0  0  0  0  0  0  0  0  0
    2.5351    2.3833   12.3794 H   0  0  0  0  0  0  0  0  0  0  0  0
    3.7087    1.2924   11.9085 H   0  0  0  0  0  0  0  0  0  0  0  0
  1  2  1  0  0  0  0
  1  9  1  0  0  0  0
  1  5  1  0  0  0  0
  3  1  1  0  0  0  0
  5  6  1  0  0  0  0
  5 11  1  0  0  0  0
  6 10  2  0  0  0  0
  7  8  1  0  0  0  0
  8 46  1  0  0  0  0
  8 45  1  0  0  0  0
  9 12  1  0  0  0  0
 10  7  1  0  0  0  0
 10  4  1  0  0  0  0
 11 12  2  0  0  0  0
 11  7  1  0  0  0  0
 12 13  1  0  0  0  0
 13 14  1  0  0  0  0
 15 13  2  0  0  0  0
 15 16  1  0  0  0  0
 17 15  1  0  0  0  0
 18 17  1  0  0  0  0
 19  9  1  0  0  0  0
 19 17  2  0  0  0  0
 20 19  1  0  0  0  0
 21 23  1  0  0  0  0
 21  4  1  0  0  0  0
 22 21  1  0  0  0  0
 24 21  1  0  0  0  0
 25 26  1  0  0  0  0
 25  1  1  0  0  0  0
 27 25  1  0  0  0  0
 27 28  1  0  0  0  0
 29 27  1  0  0  0  0
 30 27  1  0  0  0  0
 31 32  1  0  0  0  0
 31 25  1  0  0  0  0
 33 31  1  0  0  0  0
 34 31  1  0  0  0  0
 35 41  1  0  0  0  0
 35  1  1  0  0  0  0
 36 35  1  0  0  0  0
 37 35  1  0  0  0  0
 37 39  1  0  0  0  0
 38 37  1  0  0  0  0
 40 37  1  0  0  0  0
 41 42  1  0  0  0  0
 41 44  1  0  0  0  0
 43 41  1  0  0  0  0
M  END
$$$$
