CSD_code = KESRUV | q = 0 | S = 0 | Stoichiometry = C30H32Cl2NiOP2 | MND = 4
 OpenBabel04212202063D

 68 72  0  0  0  0  0  0  0  0999 V2000
    5.2363    4.4315    2.6233 Ni  0  0  0  0  0  0  0  0  0  0  0  0
    6.5064    6.0206    2.0984 Cl  0  0  0  0  0  0  0  0  0  0  0  0
    3.9761    6.0602    3.1586 P   0  0  0  0  0  4  0  0  0  0  0  0
    2.3618    5.6987    4.0147 C   0  0  0  0  0  0  0  0  0  0  0  0
    1.6264    4.4315    3.5584 C   0  0  0  0  0  0  0  0  0  0  0  0
    1.4409    4.4315    2.0445 C   0  0  0  0  0  0  0  0  0  0  0  0
    0.2430    4.4315    4.2376 C   0  0  0  0  0  0  0  0  0  0  0  0
    0.4053    4.4315    5.6371 O   0  0  0  0  0  0  0  0  0  0  0  0
   -0.8140    4.4315    6.3310 C   0  0  0  0  0  0  0  0  0  0  0  0
    4.7027    7.2345    4.3398 C   0  0  0  0  0  0  0  0  0  0  0  0
    5.1827    8.4745    3.9330 C   0  0  0  0  0  0  0  0  0  0  0  0
    5.7920    9.3134    4.8481 C   0  0  0  0  0  0  0  0  0  0  0  0
    5.9458    8.9168    6.1662 C   0  0  0  0  0  0  0  0  0  0  0  0
    5.5032    7.6672    6.5675 C   0  0  0  0  0  0  0  0  0  0  0  0
    4.8900    6.8269    5.6573 C   0  0  0  0  0  0  0  0  0  0  0  0
    3.4179    7.0814    1.7594 C   0  0  0  0  0  0  0  0  0  0  0  0
    3.7180    6.6781    0.4642 C   0  0  0  0  0  0  0  0  0  0  0  0
    3.2733    7.4148   -0.6179 C   0  0  0  0  0  0  0  0  0  0  0  0
    2.5260    8.5623   -0.4108 C   0  0  0  0  0  0  0  0  0  0  0  0
    2.2260    8.9715    0.8790 C   0  0  0  0  0  0  0  0  0  0  0  0
    2.6657    8.2338    1.9627 C   0  0  0  0  0  0  0  0  0  0  0  0
    2.5452    5.6204    5.0885 H   0  0  0  0  0  0  0  0  0  0  0  0
    1.7111    6.5637    3.8565 H   0  0  0  0  0  0  0  0  0  0  0  0
    2.4185    4.4315    1.5602 H   0  0  0  0  0  0  0  0  0  0  0  0
    0.8962    5.3165    1.7207 H   0  0  0  0  0  0  0  0  0  0  0  0
   -0.3283    5.3208    3.9250 H   0  0  0  0  0  0  0  0  0  0  0  0
   -1.4080    5.3225    6.0920 H   0  0  0  0  0  0  0  0  0  0  0  0
   -0.5702    4.4315    7.3913 H   0  0  0  0  0  0  0  0  0  0  0  0
    5.0951    8.7708    2.8982 H   0  0  0  0  0  0  0  0  0  0  0  0
    6.1594   10.2771    4.5274 H   0  0  0  0  0  0  0  0  0  0  0  0
    6.4263    9.5731    6.8766 H   0  0  0  0  0  0  0  0  0  0  0  0
    5.6459    7.3437    7.5884 H   0  0  0  0  0  0  0  0  0  0  0  0
    4.5731    5.8392    5.9667 H   0  0  0  0  0  0  0  0  0  0  0  0
    4.3242    5.7905    0.3154 H   0  0  0  0  0  0  0  0  0  0  0  0
    3.5133    7.0979   -1.6218 H   0  0  0  0  0  0  0  0  0  0  0  0
    2.1810    9.1429   -1.2536 H   0  0  0  0  0  0  0  0  0  0  0  0
    1.6497    9.8711    1.0401 H   0  0  0  0  0  0  0  0  0  0  0  0
    2.4389    8.5626    2.9683 H   0  0  0  0  0  0  0  0  0  0  0  0
    6.5064    2.8424    2.0984 Cl  0  0  0  0  0  0  0  0  0  0  0  0
    3.9761    2.8028    3.1586 P   0  0  0  0  0  4  0  0  0  0  0  0
    2.3618    3.1643    4.0147 C   0  0  0  0  0  0  0  0  0  0  0  0
    0.8962    3.5465    1.7207 H   0  0  0  0  0  0  0  0  0  0  0  0
   -0.3283    3.5422    3.9250 H   0  0  0  0  0  0  0  0  0  0  0  0
   -1.4080    3.5405    6.0920 H   0  0  0  0  0  0  0  0  0  0  0  0
    4.7027    1.6285    4.3398 C   0  0  0  0  0  0  0  0  0  0  0  0
    3.4179    1.7816    1.7594 C   0  0  0  0  0  0  0  0  0  0  0  0
    2.5452    3.2426    5.0885 H   0  0  0  0  0  0  0  0  0  0  0  0
    1.7111    2.2993    3.8565 H   0  0  0  0  0  0  0  0  0  0  0  0
    5.1827    0.3885    3.9330 C   0  0  0  0  0  0  0  0  0  0  0  0
    4.8900    2.0361    5.6573 C   0  0  0  0  0  0  0  0  0  0  0  0
    3.7180    2.1849    0.4642 C   0  0  0  0  0  0  0  0  0  0  0  0
    2.6657    0.6292    1.9627 C   0  0  0  0  0  0  0  0  0  0  0  0
    5.7920   -0.4504    4.8481 C   0  0  0  0  0  0  0  0  0  0  0  0
    5.0951    0.0922    2.8982 H   0  0  0  0  0  0  0  0  0  0  0  0
    5.5032    1.1958    6.5675 C   0  0  0  0  0  0  0  0  0  0  0  0
    4.5731    3.0238    5.9667 H   0  0  0  0  0  0  0  0  0  0  0  0
    3.2733    1.4482   -0.6179 C   0  0  0  0  0  0  0  0  0  0  0  0
    4.3242    3.0725    0.3154 H   0  0  0  0  0  0  0  0  0  0  0  0
    2.2260   -0.1085    0.8790 C   0  0  0  0  0  0  0  0  0  0  0  0
    2.4389    0.3004    2.9683 H   0  0  0  0  0  0  0  0  0  0  0  0
    5.9458   -0.0538    6.1662 C   0  0  0  0  0  0  0  0  0  0  0  0
    6.1594   -1.4141    4.5274 H   0  0  0  0  0  0  0  0  0  0  0  0
    5.6459    1.5193    7.5884 H   0  0  0  0  0  0  0  0  0  0  0  0
    2.5260    0.3007   -0.4108 C   0  0  0  0  0  0  0  0  0  0  0  0
    3.5133    1.7651   -1.6218 H   0  0  0  0  0  0  0  0  0  0  0  0
    1.6497   -1.0081    1.0401 H   0  0  0  0  0  0  0  0  0  0  0  0
    6.4263   -0.7101    6.8766 H   0  0  0  0  0  0  0  0  0  0  0  0
    2.1810   -0.2799   -1.2536 H   0  0  0  0  0  0  0  0  0  0  0  0
  1  3  1  0  0  0  0
  1 40  1  0  0  0  0
  2  1  1  0  0  0  0
  3  4  1  0  0  0  0
  3 10  1  0  0  0  0
  4 22  1  0  0  0  0
  5  4  1  0  0  0  0
  5 41  1  0  0  0  0
  5  7  1  0  0  0  0
  6  5  1  0  0  0  0
  7  8  1  0  0  0  0
  8  9  1  0  0  0  0
  9 28  1  0  0  0  0
 10 15  1  0  0  0  0
 11 10  2  0  0  0  0
 11 12  1  0  0  0  0
 12 13  2  0  0  0  0
 13 14  1  0  0  0  0
 13 31  1  0  0  0  0
 14 32  1  0  0  0  0
 15 33  1  0  0  0  0
 15 14  2  0  0  0  0
 16 21  1  0  0  0  0
 16  3  1  0  0  0  0
 17 16  2  0  0  0  0
 18 19  2  0  0  0  0
 18 17  1  0  0  0  0
 19 20  1  0  0  0  0
 20 37  1  0  0  0  0
 20 21  2  0  0  0  0
 21 38  1  0  0  0  0
 23  4  1  0  0  0  0
 24  6  1  0  0  0  0
 25  6  1  0  0  0  0
 26  7  1  0  0  0  0
 27  9  1  0  0  0  0
 29 11  1  0  0  0  0
 30 12  1  0  0  0  0
 34 17  1  0  0  0  0
 35 18  1  0  0  0  0
 36 19  1  0  0  0  0
 39  1  1  0  0  0  0
 40 41  1  0  0  0  0
 40 45  1  0  0  0  0
 41 47  1  0  0  0  0
 42  6  1  0  0  0  0
 43  7  1  0  0  0  0
 44  9  1  0  0  0  0
 45 50  1  0  0  0  0
 46 52  1  0  0  0  0
 46 40  1  0  0  0  0
 48 41  1  0  0  0  0
 49 45  2  0  0  0  0
 49 53  1  0  0  0  0
 50 56  1  0  0  0  0
 50 55  2  0  0  0  0
 51 46  2  0  0  0  0
 52 60  1  0  0  0  0
 53 61  2  0  0  0  0
 54 49  1  0  0  0  0
 55 63  1  0  0  0  0
 57 64  2  0  0  0  0
 57 51  1  0  0  0  0
 58 51  1  0  0  0  0
 59 66  1  0  0  0  0
 59 52  2  0  0  0  0
 61 55  1  0  0  0  0
 61 67  1  0  0  0  0
 62 53  1  0  0  0  0
 64 59  1  0  0  0  0
 65 57  1  0  0  0  0
 68 64  1  0  0  0  0
M  END
$$$$
