CSD_code = KESVOW | q = 1 | S = 0 | Stoichiometry = C11H9ClN5Pd(1+) | MND = 4
 OpenBabel04212202063D

 27 31  0  0  1  0  0  0  0  0999 V2000
    5.6287    1.6427   -0.1316 Pd  0  0  2  0  0  0  0  0  0  0  0  0
    6.1242    1.5047   -2.2513 Cl  0  0  0  0  0  0  0  0  0  0  0  0
    5.1920    1.7637    1.7361 N   0  0  0  0  0  0  0  0  0  0  0  0
    3.1019    2.1402    0.9630 N   0  0  0  0  0  0  0  0  0  0  0  0
    3.6582    2.0088   -0.2777 N   0  0  1  0  0  0  0  0  0  0  0  0
    7.3970    1.3558    2.0178 N   0  0  0  0  0  0  0  0  0  0  0  0
    3.9230    2.0088    2.0810 C   0  0  1  0  0  3  0  0  0  0  0  0
    2.6910    2.1722   -1.1580 C   0  0  0  0  0  3  0  0  0  0  0  0
    2.8894    2.1120   -2.2135 H   0  0  0  0  0  0  0  0  0  0  0  0
    1.4771    2.4154   -0.4927 C   0  0  0  0  0  0  0  0  0  0  0  0
    0.5216    2.5859   -0.9431 H   0  0  0  0  0  0  0  0  0  0  0  0
    1.7719    2.3884    0.8453 C   0  0  0  0  0  0  0  0  0  0  0  0
    1.1378    2.5264    1.6971 H   0  0  0  0  0  0  0  0  0  0  0  0
    3.5694    2.1021    3.4204 C   0  0  0  0  0  0  0  0  0  0  0  0
    2.5560    2.2986    3.7256 H   0  0  0  0  0  0  0  0  0  0  0  0
    4.5769    1.9317    4.3655 C   0  0  0  0  0  0  0  0  0  0  0  0
    4.3318    1.9984    5.4132 H   0  0  0  0  0  0  0  0  0  0  0  0
    5.8932    1.6771    3.9911 C   0  0  0  0  0  0  0  0  0  0  0  0
    6.6614    1.5474    4.7339 H   0  0  0  0  0  0  0  0  0  0  0  0
    6.1705    1.5980    2.6330 C   0  0  0  0  0  0  0  0  0  0  0  0
    7.4495    1.3181    0.6533 N   0  0  2  0  0  0  0  0  0  0  0  0
    8.7011    1.0776    0.3177 C   0  0  0  0  0  3  0  0  0  0  0  0
    8.9909    1.0025   -0.7156 H   0  0  0  0  0  0  0  0  0  0  0  0
    9.4895    0.9542    1.4747 C   0  0  0  0  0  0  0  0  0  0  0  0
   10.5407    0.7590    1.5169 H   0  0  0  0  0  0  0  0  0  0  0  0
    8.6350    1.1352    2.5306 C   0  0  0  0  0  0  0  0  0  0  0  0
    8.8239    1.1215    3.5846 H   0  0  0  0  0  0  0  0  0  0  0  0
  1  2  1  1  0  0  0
  1 21  1  0  0  0  0
  1  3  1  0  0  0  0
  3  7  1  0  0  0  0
  3 20  1  0  0  0  0
  4  7  1  0  0  0  0
  5  8  1  6  0  0  0
  5  1  1  0  0  0  0
  5  4  1  0  0  0  0
  6 26  1  0  0  0  0
  6 20  1  0  0  0  0
  7 14  1  1  0  0  0
  8 10  1  0  0  0  0
  9  8  1  0  0  0  0
 10 12  2  0  0  0  0
 11 10  1  0  0  0  0
 12  4  1  0  0  0  0
 12 13  1  0  0  0  0
 14 15  1  0  0  0  0
 14 16  2  0  0  0  0
 16 17  1  0  0  0  0
 18 16  1  0  0  0  0
 18 19  1  0  0  0  0
 20 18  2  0  0  0  0
 21 22  1  6  0  0  0
 21  6  1  0  0  0  0
 22 24  1  0  0  0  0
 23 22  1  0  0  0  0
 24 25  1  0  0  0  0
 24 26  2  0  0  0  0
 26 27  1  0  0  0  0
M  END
$$$$
