CSD_code = KETMIF | q = 0 | S = 0 | Stoichiometry = C30H10BClCuN7O | MND = 5
 OpenBabel04212202063D

 51 55  0  0  0  0  0  0  0  0999 V2000
   21.9596    5.4101    9.4851 Cu  0  0  0  0  0  0  0  0  0  0  0  0
   20.4843    6.5590    8.3396 Cl  0  0  0  0  0  0  0  0  0  0  0  0
   21.0965    6.3448   11.2210 O   0  0  0  0  0  0  0  0  0  0  0  0
   22.9178    4.2923    8.1895 N   0  0  0  0  0  0  0  0  0  0  0  0
   23.6455    5.3514   10.5826 N   0  0  0  0  0  0  0  0  0  0  0  0
   21.1970    3.5575   10.2544 N   0  0  0  0  0  0  0  0  0  0  0  0
   23.5133    3.2090    8.6594 N   0  0  0  0  0  0  0  0  0  0  0  0
   24.1543    4.1659   10.8610 N   0  0  0  0  0  0  0  0  0  0  0  0
   22.1285    2.7291   10.6791 N   0  0  0  0  0  0  0  0  0  0  0  0
   19.1000    7.5693   10.9597 N   0  0  0  0  0  2  0  0  0  0  0  0
   23.5742    2.9097   10.1732 B   0  0  1  0  0  0  0  0  0  0  0  0
   22.6869    5.4092    4.7018 C   0  0  0  0  0  0  0  0  0  0  0  0
   22.4669    5.1624    3.4898 C   0  0  0  0  0  3  0  0  0  0  0  0
   22.5277    5.3820    6.0377 C   0  0  0  0  0  0  0  0  0  0  0  0
   23.0467    4.3318    6.8499 C   0  0  0  0  0  0  0  0  0  0  0  0
   23.7623    3.1961    6.4467 C   0  0  0  0  0  0  0  0  0  0  0  0
   24.0393    2.4940    7.6204 C   0  0  0  0  0  0  0  0  0  0  0  0
   24.7175    1.2488    7.7299 C   0  0  0  0  0  3  0  0  0  0  0  0
   26.2095    0.3857    5.8595 C   0  0  0  0  0  3  0  0  0  0  0  0
   25.2809    0.6474    6.6608 C   0  0  0  0  0  0  0  0  0  0  0  0
   25.4066    9.4871   12.2087 C   0  0  0  0  0  3  0  0  0  0  0  0
   24.5298    8.6280   11.9474 C   0  0  0  0  0  0  0  0  0  0  0  0
   23.9332    7.6697   11.2121 C   0  0  0  0  0  0  0  0  0  0  0  0
   24.2739    6.2902   11.3155 C   0  0  0  0  0  0  0  0  0  0  0  0
   25.2480    5.6584   12.1004 C   0  0  0  0  0  0  0  0  0  0  0  0
   25.1526    4.3014   11.7848 C   0  0  0  0  0  0  0  0  0  0  0  0
   25.9443    3.2371   12.2960 C   0  0  0  0  0  3  0  0  0  0  0  0
   27.2476    3.4770   14.4658 C   0  0  0  0  0  3  0  0  0  0  0  0
   26.8529    3.4241   13.2761 C   0  0  0  0  0  0  0  0  0  0  0  0
   17.6893    3.7996   11.2280 C   0  0  0  0  0  0  0  0  0  0  0  0
   16.8628    4.0158   12.1449 C   0  0  0  0  0  3  0  0  0  0  0  0
   18.8346    3.9535   10.5351 C   0  0  0  0  0  0  0  0  0  0  0  0
   20.0274    3.2365   10.8398 C   0  0  0  0  0  0  0  0  0  0  0  0
   20.2363    2.1442   11.6957 C   0  0  0  0  0  0  0  0  0  0  0  0
   21.5933    1.8402   11.5736 C   0  0  0  0  0  0  0  0  0  0  0  0
   22.3239    0.8255   12.2467 C   0  0  0  0  0  3  0  0  0  0  0  0
   21.1502   -1.1292   13.3763 C   0  0  0  0  0  3  0  0  0  0  0  0
   21.7327   -0.0599   13.0770 C   0  0  0  0  0  0  0  0  0  0  0  0
   20.1099    6.9853   11.1639 C   0  0  0  0  0  2  0  0  0  0  0  0
   18.0825    8.3349   11.2128 C   0  0  0  0  0  0  0  0  0  0  0  0
   17.2751    8.9968   11.8590 C   0  0  0  0  0  3  0  0  0  0  0  0
   24.2312    1.9599   10.3897 H   0  0  0  0  0  0  0  0  0  0  0  0
   21.9308    6.1451    6.5315 H   0  0  0  0  0  0  0  0  0  0  0  0
   24.0338    2.9247    5.4469 H   0  0  0  0  0  0  0  0  0  0  0  0
   24.8239    0.7926    8.7053 H   0  0  0  0  0  0  0  0  0  0  0  0
   23.1969    7.9340   10.4584 H   0  0  0  0  0  0  0  0  0  0  0  0
   25.9284    6.1167   12.7882 H   0  0  0  0  0  0  0  0  0  0  0  0
   25.7756    2.2365   11.9190 H   0  0  0  0  0  0  0  0  0  0  0  0
   18.8994    4.6921    9.7414 H   0  0  0  0  0  0  0  0  0  0  0  0
   19.5134    1.6433   12.3058 H   0  0  0  0  0  0  0  0  0  0  0  0
   23.3830    0.7290   12.0432 H   0  0  0  0  0  0  0  0  0  0  0  0
  1  6  1  0  0  0  0
  1  5  1  0  0  0  0
  1  3  1  0  0  0  0
  2  1  1  0  0  0  0
  4  7  1  0  0  0  0
  4  1  1  0  0  0  0
  5  8  1  0  0  0  0
  5 24  1  0  0  0  0
  6  9  1  0  0  0  0
  6 33  1  0  0  0  0
  7 11  1  0  0  0  0
  8 26  1  0  0  0  0
  9 35  1  0  0  0  0
 10 39  1  0  0  0  0
 10 40  1  0  0  0  0
 11 42  1  1  0  0  0
 11  9  1  0  0  0  0
 11  8  1  0  0  0  0
 12 14  1  0  0  0  0
 13 12  3  0  0  0  0
 14 43  1  0  0  0  0
 14 15  2  0  0  0  0
 15  4  1  0  0  0  0
 16 15  1  0  0  0  0
 16 17  2  0  0  0  0
 17 18  1  0  0  0  0
 17  7  1  0  0  0  0
 18 45  1  0  0  0  0
 19 20  3  0  0  0  0
 20 18  1  0  0  0  0
 22 21  3  0  0  0  0
 23 24  2  0  0  0  0
 23 22  1  0  0  0  0
 24 25  1  0  0  0  0
 25 47  1  0  0  0  0
 26 25  2  0  0  0  0
 26 27  1  0  0  0  0
 27 29  1  0  0  0  0
 29 28  3  0  0  0  0
 30 31  3  0  0  0  0
 32 33  2  0  0  0  0
 32 30  1  0  0  0  0
 33 34  1  0  0  0  0
 34 50  1  0  0  0  0
 35 34  2  0  0  0  0
 35 36  1  0  0  0  0
 36 38  1  0  0  0  0
 38 37  3  0  0  0  0
 39  3  1  0  0  0  0
 40 41  3  0  0  0  0
 44 16  1  0  0  0  0
 46 23  1  0  0  0  0
 48 27  1  0  0  0  0
 49 32  1  0  0  0  0
 51 36  1  0  0  0  0
M  END
$$$$
