CSD_code = KEVBIZ | q = 0 | S = 0 | Stoichiometry = C32H24Cl2N4S4Zn | MND = 4
 OpenBabel04212202063D

 67 74  0  0  1  0  0  0  0  0999 V2000
    2.1504    6.9671    4.2569 Zn  0  0  0  0  0  0  0  0  0  0  0  0
    0.3994    8.0392    3.9249 N   0  0  0  0  0  0  0  0  0  0  0  0
    3.5482    8.2861    5.0976 N   0  0  0  0  0  0  0  0  0  0  0  0
   -0.3575    8.0104    2.7822 C   0  0  0  0  0  0  0  0  0  0  0  0
   -0.4018    7.0823    1.7483 C   0  0  0  0  0  0  0  0  0  0  0  0
    0.2355    6.2136    1.7625 H   0  0  0  0  0  0  0  0  0  0  0  0
   -1.2744    7.3367    0.7123 C   0  0  0  0  0  0  0  0  0  0  0  0
   -1.3344    6.6418   -0.1111 H   0  0  0  0  0  0  0  0  0  0  0  0
   -2.0871    8.4734    0.6962 C   0  0  0  0  0  0  0  0  0  0  0  0
   -2.7555    8.6289   -0.1372 H   0  0  0  0  0  0  0  0  0  0  0  0
   -2.0555    9.4032    1.7153 C   0  0  0  0  0  0  0  0  0  0  0  0
   -2.6806   10.2826    1.6919 H   0  0  0  0  0  0  0  0  0  0  0  0
   -1.1766    9.1568    2.7595 C   0  0  0  0  0  0  0  0  0  0  0  0
   -0.8867    9.8498    3.9129 N   0  0  0  0  0  0  0  0  0  0  0  0
   -1.4900   11.0997    4.3023 C   0  0  0  0  0  0  0  0  0  0  0  0
   -1.4659   11.1876    5.3921 H   0  0  0  0  0  0  0  0  0  0  0  0
   -2.5380   11.0715    3.9793 H   0  0  0  0  0  0  0  0  0  0  0  0
   -0.7983   12.2831    3.6993 C   0  0  0  0  0  0  0  0  0  0  0  0
    0.0668    9.1397    4.5721 C   0  0  1  0  0  3  0  0  0  0  0  0
    0.6634    9.5087    5.8287 C   0  0  0  0  0  0  0  0  0  0  0  0
    4.1814    8.2369    6.3166 C   0  0  0  0  0  0  0  0  0  0  0  0
    5.1718    9.2397    6.3481 C   0  0  0  0  0  0  0  0  0  0  0  0
    5.1290    9.8458    5.1140 N   0  0  0  0  0  0  0  0  0  0  0  0
    4.1358    9.2408    4.4098 C   0  0  1  0  0  3  0  0  0  0  0  0
    3.7998    9.6196    3.0548 C   0  0  0  0  0  0  0  0  0  0  0  0
    5.8707   11.0128    4.6891 C   0  0  0  0  0  0  0  0  0  0  0  0
    6.3158   10.8266    3.7076 H   0  0  0  0  0  0  0  0  0  0  0  0
    6.6694   11.1775    5.4163 H   0  0  0  0  0  0  0  0  0  0  0  0
    4.9675   12.2008    4.6065 C   0  0  0  0  0  0  0  0  0  0  0  0
    5.9603    9.4476    7.4701 C   0  0  0  0  0  0  0  0  0  0  0  0
    6.7114   10.2220    7.5047 H   0  0  0  0  0  0  0  0  0  0  0  0
    5.7435    8.6142    8.5481 C   0  0  0  0  0  0  0  0  0  0  0  0
    6.3384    8.7423    9.4399 H   0  0  0  0  0  0  0  0  0  0  0  0
    4.7814    7.6020    8.5113 C   0  0  0  0  0  0  0  0  0  0  0  0
    4.6625    6.9651    9.3745 H   0  0  0  0  0  0  0  0  0  0  0  0
    3.9853    7.3943    7.4051 C   0  0  0  0  0  0  0  0  0  0  0  0
    3.2478    6.6090    7.3617 H   0  0  0  0  0  0  0  0  0  0  0  0
   -0.4554   12.3422    2.0022 S   0  0  0  0  0  0  0  0  0  0  0  0
   -0.3915   13.4203    4.3245 C   0  0  0  0  0  0  0  0  0  0  0  0
   -0.5105   13.5897    5.3792 H   0  0  0  0  0  0  0  0  0  0  0  0
    0.1973   14.3534    3.4426 C   0  0  0  0  0  0  0  0  0  0  0  0
    0.5705   15.3124    3.7530 H   0  0  0  0  0  0  0  0  0  0  0  0
    1.2474   11.1212    6.1298 S   0  0  0  0  0  0  0  0  0  0  0  0
    0.9343    8.6805    6.8824 C   0  0  0  0  0  0  0  0  0  0  0  0
    0.6665    7.6390    6.8936 H   0  0  0  0  0  0  0  0  0  0  0  0
    1.8325   10.6509    7.6744 C   0  0  0  0  0  0  0  0  0  0  0  0
    2.3234   11.3800    8.2881 H   0  0  0  0  0  0  0  0  0  0  0  0
    1.5906    9.3417    7.9399 C   0  0  0  0  0  0  0  0  0  0  0  0
    1.8757    8.8582    8.8558 H   0  0  0  0  0  0  0  0  0  0  0  0
    4.3015   12.8967    6.0479 S   0  0  0  0  0  0  0  0  0  0  0  0
    4.4942   12.8246    3.4943 C   0  0  0  0  0  0  0  0  0  0  0  0
    4.7776   12.5482    2.4944 H   0  0  0  0  0  0  0  0  0  0  0  0
    3.3967   14.0259    5.1240 C   0  0  0  0  0  0  0  0  0  0  0  0
    2.7720   14.7329    5.6316 H   0  0  0  0  0  0  0  0  0  0  0  0
    3.5982   13.8752    3.7920 C   0  0  0  0  0  0  0  0  0  0  0  0
    3.1264   14.4834    3.0427 H   0  0  0  0  0  0  0  0  0  0  0  0
    2.2488   10.2888    2.6801 S   0  0  0  0  0  0  0  0  0  0  0  0
    4.5802    9.5257    1.9396 C   0  0  0  0  0  0  0  0  0  0  0  0
    5.5677    9.1003    1.9440 H   0  0  0  0  0  0  0  0  0  0  0  0
    2.6679   10.4218    1.0231 C   0  0  0  0  0  0  0  0  0  0  0  0
    1.9458   10.8132    0.3345 H   0  0  0  0  0  0  0  0  0  0  0  0
    3.9247    9.9748    0.7752 C   0  0  0  0  0  0  0  0  0  0  0  0
    4.3706    9.9531   -0.2024 H   0  0  0  0  0  0  0  0  0  0  0  0
    1.6304    5.4495    5.7705 Cl  0  0  0  0  0  0  0  0  0  0  0  0
    3.0209    6.5426    2.2683 Cl  0  0  0  0  0  0  0  0  0  0  0  0
    0.2355   13.9060    2.1634 C   0  0  0  0  0  0  0  0  0  0  0  0
    0.6220   14.3984    1.2933 H   0  0  0  0  0  0  0  0  0  0  0  0
  1  3  1  0  0  0  0
  1 64  1  0  0  0  0
  2  1  1  0  0  0  0
  2 19  1  0  0  0  0
  3 21  1  0  0  0  0
  4  2  1  0  0  0  0
  5  6  1  0  0  0  0
  5  4  2  0  0  0  0
  7  5  1  0  0  0  0
  8  7  1  0  0  0  0
  9  7  2  0  0  0  0
  9 11  1  0  0  0  0
 10  9  1  0  0  0  0
 11 13  2  0  0  0  0
 12 11  1  0  0  0  0
 13  4  1  0  0  0  0
 13 14  1  0  0  0  0
 14 15  1  0  0  0  0
 14 19  1  0  0  0  0
 15 16  1  0  0  0  0
 17 15  1  0  0  0  0
 18 15  1  0  0  0  0
 18 39  2  0  0  0  0
 19 20  1  1  0  0  0
 20 43  1  0  0  0  0
 20 44  2  0  0  0  0
 21 22  2  0  0  0  0
 21 36  1  0  0  0  0
 22 30  1  0  0  0  0
 23 22  1  0  0  0  0
 24 25  1  6  0  0  0
 24  3  1  0  0  0  0
 24 23  1  0  0  0  0
 26 23  1  0  0  0  0
 26 28  1  0  0  0  0
 27 26  1  0  0  0  0
 29 26  1  0  0  0  0
 29 50  1  0  0  0  0
 30 31  1  0  0  0  0
 30 32  2  0  0  0  0
 32 33  1  0  0  0  0
 34 32  1  0  0  0  0
 34 35  1  0  0  0  0
 36 34  2  0  0  0  0
 37 36  1  0  0  0  0
 38 66  1  0  0  0  0
 38 18  1  0  0  0  0
 39 40  1  0  0  0  0
 41 42  1  0  0  0  0
 41 39  1  0  0  0  0
 43 46  1  0  0  0  0
 44 45  1  0  0  0  0
 44 48  1  0  0  0  0
 46 48  2  0  0  0  0
 46 47  1  0  0  0  0
 48 49  1  0  0  0  0
 51 55  1  0  0  0  0
 51 29  2  0  0  0  0
 52 51  1  0  0  0  0
 53 54  1  0  0  0  0
 53 50  1  0  0  0  0
 55 53  2  0  0  0  0
 56 55  1  0  0  0  0
 57 25  1  0  0  0  0
 58 59  1  0  0  0  0
 58 25  2  0  0  0  0
 60 57  1  0  0  0  0
 61 60  1  0  0  0  0
 62 60  2  0  0  0  0
 62 58  1  0  0  0  0
 63 62  1  0  0  0  0
 65  1  1  0  0  0  0
 66 41  2  0  0  0  0
 67 66  1  0  0  0  0
M  END
$$$$
