CSD_code = KEVHAV | q = 0 | S = 0 | Stoichiometry = C20H23ClNO2PPd | MND = 4
 OpenBabel04212202063D

 49 52  0  0  1  0  0  0  0  0999 V2000
    8.1276    3.6715    8.4736 Pd  0  0  2  0  0  0  0  0  0  0  0  0
   10.2535    3.0186    8.0124 Cl  0  0  0  0  0  0  0  0  0  0  0  0
    5.9347    4.1857    8.8420 P   0  0  0  0  0  4  0  0  0  0  0  0
    5.1800    2.3439    5.5225 O   0  0  0  0  0  0  0  0  0  0  0  0
    8.6940    3.7540   11.1455 O   0  0  0  0  0  0  0  0  0  0  0  0
    7.0702    2.8303    6.5917 N   0  0  1  0  0  0  0  0  0  0  0  0
    7.8486    0.5530    6.6936 C   0  0  0  0  0  0  0  0  0  0  0  0
    8.6318    0.9140    7.3668 H   0  0  0  0  0  0  0  0  0  0  0  0
    8.2356   -0.2861    6.1220 H   0  0  0  0  0  0  0  0  0  0  0  0
    6.9942    0.2234    7.2851 H   0  0  0  0  0  0  0  0  0  0  0  0
    8.6108    2.0930    4.8583 C   0  0  0  0  0  0  0  0  0  0  0  0
    8.3295    2.9191    4.2077 H   0  0  0  0  0  0  0  0  0  0  0  0
    8.9224    1.2480    4.2501 H   0  0  0  0  0  0  0  0  0  0  0  0
    9.4433    2.4102    5.4853 H   0  0  0  0  0  0  0  0  0  0  0  0
    7.4469    1.6972    5.7612 C   0  0  0  0  0  0  0  0  0  0  0  0
    6.1272    1.4144    4.9869 C   0  0  0  0  0  0  0  0  0  0  0  0
    6.2237    1.5991    3.9137 H   0  0  0  0  0  0  0  0  0  0  0  0
    5.7478    0.4032    5.1490 H   0  0  0  0  0  0  0  0  0  0  0  0
    5.8420    3.0948    6.4179 C   0  0  2  0  0  3  0  0  0  0  0  0
    5.1069    4.1446    7.1730 C   0  0  0  0  0  0  0  0  0  0  0  0
    4.0424    3.9005    7.2179 H   0  0  0  0  0  0  0  0  0  0  0  0
    5.2421    5.1139    6.6834 H   0  0  0  0  0  0  0  0  0  0  0  0
    8.8705    4.3557   10.1252 C   0  0  0  0  0  0  0  0  0  0  0  0
    9.6057    5.6581    9.9668 C   0  0  0  0  0  0  0  0  0  0  0  0
    9.6459    6.1977   10.9136 H   0  0  0  0  0  0  0  0  0  0  0  0
    9.1371    6.2705    9.1861 H   0  0  0  0  0  0  0  0  0  0  0  0
   10.6218    5.4165    9.6460 H   0  0  0  0  0  0  0  0  0  0  0  0
    5.2766    2.6403    9.5531 C   0  0  0  0  0  0  0  0  0  0  0  0
    6.1688    1.5971    9.7898 C   0  0  0  0  0  0  0  0  0  0  0  0
    7.2401    1.7414    9.5910 H   0  0  0  0  0  0  0  0  0  0  0  0
    5.7046    0.3930   10.2905 C   0  0  0  0  0  0  0  0  0  0  0  0
    6.3961   -0.4157   10.4747 H   0  0  0  0  0  0  0  0  0  0  0  0
    4.3557    0.2292   10.5613 C   0  0  0  0  0  0  0  0  0  0  0  0
    3.9944   -0.7099   10.9535 H   0  0  0  0  0  0  0  0  0  0  0  0
    3.4681    1.2707   10.3390 C   0  0  0  0  0  0  0  0  0  0  0  0
    2.4184    1.1428   10.5597 H   0  0  0  0  0  0  0  0  0  0  0  0
    3.9244    2.4755    9.8374 C   0  0  0  0  0  0  0  0  0  0  0  0
    3.2360    3.2941    9.6738 H   0  0  0  0  0  0  0  0  0  0  0  0
    5.0315    5.4421    9.7917 C   0  0  0  0  0  0  0  0  0  0  0  0
    5.4249    5.5714   11.1232 C   0  0  0  0  0  0  0  0  0  0  0  0
    6.2173    4.9360   11.5000 H   0  0  0  0  0  0  0  0  0  0  0  0
    4.8098    6.4971   11.9426 C   0  0  0  0  0  0  0  0  0  0  0  0
    5.1138    6.5911   12.9743 H   0  0  0  0  0  0  0  0  0  0  0  0
    3.8056    7.3087   11.4362 C   0  0  0  0  0  0  0  0  0  0  0  0
    3.3252    8.0355   12.0739 H   0  0  0  0  0  0  0  0  0  0  0  0
    3.4223    7.1928   10.1109 C   0  0  0  0  0  0  0  0  0  0  0  0
    2.6439    7.8294    9.7160 H   0  0  0  0  0  0  0  0  0  0  0  0
    4.0326    6.2640    9.2847 C   0  0  0  0  0  0  0  0  0  0  0  0
    3.7271    6.1852    8.2516 H   0  0  0  0  0  0  0  0  0  0  0  0
  1  2  1  1  0  0  0
  1  3  1  0  0  0  0
  1 23  1  0  0  0  0
  3 28  1  0  0  0  0
  3 39  1  0  0  0  0
  6 15  1  1  0  0  0
  6  1  1  0  0  0  0
  7 10  1  0  0  0  0
  7  8  1  0  0  0  0
  9  7  1  0  0  0  0
 11 14  1  0  0  0  0
 11 15  1  0  0  0  0
 12 11  1  0  0  0  0
 13 11  1  0  0  0  0
 15  7  1  0  0  0  0
 16 18  1  0  0  0  0
 16  4  1  0  0  0  0
 16 15  1  0  0  0  0
 17 16  1  0  0  0  0
 19  4  1  1  0  0  0
 19  6  1  0  0  0  0
 19 20  1  0  0  0  0
 20 21  1  0  0  0  0
 20  3  1  0  0  0  0
 22 20  1  0  0  0  0
 23  5  2  0  0  0  0
 24 23  1  0  0  0  0
 24 25  1  0  0  0  0
 26 24  1  0  0  0  0
 27 24  1  0  0  0  0
 28 29  2  0  0  0  0
 28 37  1  0  0  0  0
 29 31  1  0  0  0  0
 30 29  1  0  0  0  0
 31 32  1  0  0  0  0
 31 33  2  0  0  0  0
 33 34  1  0  0  0  0
 35 36  1  0  0  0  0
 35 33  1  0  0  0  0
 37 35  2  0  0  0  0
 38 37  1  0  0  0  0
 39 40  1  0  0  0  0
 40 41  1  0  0  0  0
 40 42  2  0  0  0  0
 42 43  1  0  0  0  0
 44 42  1  0  0  0  0
 44 45  1  0  0  0  0
 46 44  2  0  0  0  0
 47 46  1  0  0  0  0
 48 39  2  0  0  0  0
 48 46  1  0  0  0  0
 49 48  1  0  0  0  0
M  END
$$$$
