CSD_code = KEVTOV | q = 0 | S = 0 | Stoichiometry = C6H18Cl2O4P2W | MND = 6
 OpenBabel04212202063D

 33 32  0  0  0  0  0  0  0  0999 V2000
    0.0684    8.0153    2.8874 W   0  0  0  0  0  0  0  0  0  0  0  0
    0.2641    5.9253    3.9368 Cl  0  0  0  0  0  0  0  0  0  0  0  0
    0.4893   10.2753    2.4096 Cl  0  0  0  0  0  0  0  0  0  0  0  0
    2.8244    8.4673    4.5865 P   0  0  0  0  0  4  0  0  0  0  0  0
   -1.5036    8.8217    4.9494 P   0  0  0  0  0  4  0  0  0  0  0  0
   -1.6636    8.2024    3.1578 O   0  0  0  0  0  0  0  0  0  0  0  0
    0.2944    7.4579    1.3350 O   0  0  0  0  0  1  0  0  0  0  0  0
    2.1499    8.0489    3.2918 O   0  0  0  0  0  0  0  0  0  0  0  0
    0.0495    8.6867    4.7995 O   0  0  0  0  0  0  0  0  0  0  0  0
    4.6119    8.2802    4.2916 C   0  0  0  0  0  0  0  0  0  0  0  0
    4.8141    7.2457    4.0254 H   0  0  0  0  0  0  0  0  0  0  0  0
    5.1887    8.5521    5.1686 H   0  0  0  0  0  0  0  0  0  0  0  0
    4.8946    8.9147    3.4552 H   0  0  0  0  0  0  0  0  0  0  0  0
    2.5629   10.2275    4.9957 C   0  0  0  0  0  0  0  0  0  0  0  0
    2.6455   10.8072    4.0753 H   0  0  0  0  0  0  0  0  0  0  0  0
    3.3157   10.5445    5.7110 H   0  0  0  0  0  0  0  0  0  0  0  0
    1.5700   10.3847    5.4097 H   0  0  0  0  0  0  0  0  0  0  0  0
    2.4255    7.3665    5.9872 C   0  0  0  0  0  0  0  0  0  0  0  0
    1.4157    7.5488    6.3465 H   0  0  0  0  0  0  0  0  0  0  0  0
    3.1393    7.5322    6.7885 H   0  0  0  0  0  0  0  0  0  0  0  0
    2.4819    6.3356    5.6360 H   0  0  0  0  0  0  0  0  0  0  0  0
   -2.2421   10.4059    4.3113 C   0  0  0  0  0  0  0  0  0  0  0  0
   -1.5077   11.1935    4.4812 H   0  0  0  0  0  0  0  0  0  0  0  0
   -3.1385   10.6243    4.8832 H   0  0  0  0  0  0  0  0  0  0  0  0
   -2.4794   10.3563    3.2494 H   0  0  0  0  0  0  0  0  0  0  0  0
   -1.4591    9.4467    6.7463 C   0  0  0  0  0  3  0  0  0  0  0  0
   -0.9656    8.7282    7.3960 H   0  0  0  0  0  0  0  0  0  0  0  0
   -2.4621    9.6097    7.1282 H   0  0  0  0  0  0  0  0  0  0  0  0
   -0.9163   10.3860    6.8176 H   0  0  0  0  0  0  0  0  0  0  0  0
   -2.4146    7.2653    5.4072 C   0  0  0  0  0  0  0  0  0  0  0  0
   -2.6034    6.6259    4.5453 H   0  0  0  0  0  0  0  0  0  0  0  0
   -3.3548    7.5453    5.8720 H   0  0  0  0  0  0  0  0  0  0  0  0
   -1.8031    6.7294    6.1327 H   0  0  0  0  0  0  0  0  0  0  0  0
  1  6  1  0  0  0  0
  1  8  1  0  0  0  0
  1  2  1  0  0  0  0
  1  9  1  0  0  0  0
  3  1  1  0  0  0  0
  4 14  1  0  0  0  0
  4 18  1  0  0  0  0
  5 30  1  0  0  0  0
  6  5  1  0  0  0  0
  7  1  1  0  0  0  0
  8  4  1  0  0  0  0
  9  5  1  0  0  0  0
 10  4  1  0  0  0  0
 10 12  1  0  0  0  0
 11 10  1  0  0  0  0
 13 10  1  0  0  0  0
 14 17  1  0  0  0  0
 14 16  1  0  0  0  0
 15 14  1  0  0  0  0
 18 19  1  0  0  0  0
 18 20  1  0  0  0  0
 21 18  1  0  0  0  0
 22 23  1  0  0  0  0
 22 24  1  0  0  0  0
 22  5  1  0  0  0  0
 25 22  1  0  0  0  0
 26 29  1  0  0  0  0
 26 28  1  0  0  0  0
 26 27  1  0  0  0  0
 30 32  1  0  0  0  0
 30 33  1  0  0  0  0
 31 30  1  0  0  0  0
M  END
$$$$
