CSD_code = KEWDIA | q = 0 | S = 0 | Stoichiometry = C6H3Cl2NO3RuS | MND = 6
 OpenBabel04212202063D

 17 17  0  0  0  0  0  0  0  0999 V2000
    2.6152    3.0210    1.9814 Ru  0  0  0  0  0  0  0  0  0  0  0  0
    4.9563    3.3116    1.8048 Cl  0  0  0  0  0  0  0  0  0  0  0  0
    2.8348    1.9055    4.0559 Cl  0  0  0  0  0  0  0  0  0  0  0  0
    2.7946    4.5253    3.0955 C   0  0  0  0  0  2  0  0  0  0  0  0
    3.0736    5.3133    3.8557 O   0  0  0  0  0  1  0  0  0  0  0  0
    2.6397    3.9229    0.3363 C   0  0  0  0  0  2  0  0  0  0  0  0
    2.7785    4.4798   -0.6445 O   0  0  0  0  0  1  0  0  0  0  0  0
    0.7935    2.6951    2.2907 C   0  0  0  0  0  2  0  0  0  0  0  0
   -0.2756    2.4497    2.5873 O   0  0  0  0  0  1  0  0  0  0  0  0
    2.8830    1.1419    1.0522 N   0  0  0  0  0  0  0  0  0  0  0  0
    2.2199    0.5969    0.0686 C   0  0  0  0  0  3  0  0  0  0  0  0
    1.3896    1.0650   -0.4299 H   0  0  0  0  0  0  0  0  0  0  0  0
    2.7754   -0.9516   -0.3843 S   0  0  0  0  0  0  0  0  0  0  0  0
    3.9777   -0.8472    0.8360 C   0  0  0  0  0  0  0  0  0  0  0  0
    4.6736   -1.6446    0.9960 H   0  0  0  0  0  0  0  0  0  0  0  0
    3.8826    0.3325    1.4960 C   0  0  0  0  0  0  0  0  0  0  0  0
    4.5155    0.6534    2.3086 H   0  0  0  0  0  0  0  0  0  0  0  0
  1  8  1  0  0  0  0
  1  4  1  0  0  0  0
  1  3  1  0  0  0  0
  2  1  1  0  0  0  0
  4  5  1  0  0  0  0
  6  1  1  0  0  0  0
  7  6  1  0  0  0  0
  8  9  1  0  0  0  0
 10 16  1  0  0  0  0
 10  1  1  0  0  0  0
 11 10  1  0  0  0  0
 12 11  1  0  0  0  0
 13 11  1  0  0  0  0
 13 14  1  0  0  0  0
 14 15  1  0  0  0  0
 14 16  2  0  0  0  0
 16 17  1  0  0  0  0
M  END
$$$$
