CSD_code = KEXHOL | q = 1 | S = 0 | Stoichiometry = C15H16ClN4O3Pt(1+) | MND = 6
 OpenBabel04212202063D

 40 44  0  0  1  0  0  0  0  0999 V2000
    1.5923    2.1299    2.2319 Pt  0  0  0  0  0  0  0  0  0  0  0  0
   -0.5545    1.9665    1.4150 Cl  0  0  0  0  0  0  0  0  0  0  0  0
    1.1702   -1.3783    4.1967 O   0  0  0  0  0  0  0  0  0  0  0  0
    2.4112    1.5362    0.5002 O   0  0  0  0  0  0  0  0  0  0  0  0
    3.1815   -0.2371   -0.5127 O   0  0  0  0  0  0  0  0  0  0  0  0
    0.6185    2.2322    4.1352 N   0  0  0  0  0  4  0  0  0  0  0  0
    1.5515    0.2061    2.6207 N   0  0  0  0  0  0  0  0  0  0  0  0
    1.8899    4.1264    1.6847 N   0  0  0  0  0  0  0  0  0  0  0  0
    3.6101    2.3870    2.7619 N   0  0  0  0  0  0  0  0  0  0  0  0
    0.8789    0.9406    4.8125 C   0  0  0  0  0  0  0  0  0  0  0  0
    1.1912   -0.2274    3.8286 C   0  0  0  0  0  0  0  0  0  0  0  0
    1.9246   -0.6413    1.5060 C   0  0  2  0  0  0  0  0  0  0  0  0
    2.5656    0.2326    0.4046 C   0  0  0  0  0  0  0  0  0  0  0  0
    0.7338   -1.3998    0.9108 C   0  0  0  0  0  0  0  0  0  0  0  0
    3.1993    4.4260    1.5674 C   0  0  0  0  0  0  0  0  0  0  0  0
    3.5965    5.5987    0.9290 C   0  0  0  0  0  0  0  0  0  0  0  0
    2.6370    6.4515    0.4056 C   0  0  0  0  0  0  0  0  0  0  0  0
    1.2973    6.1224    0.5395 C   0  0  0  0  0  0  0  0  0  0  0  0
    0.9689    4.9418    1.1865 C   0  0  0  0  0  0  0  0  0  0  0  0
    4.1464    3.4578    2.1475 C   0  0  0  0  0  0  0  0  0  0  0  0
    5.5314    3.5980    2.0810 C   0  0  0  0  0  0  0  0  0  0  0  0
    6.3464    2.6266    2.6397 C   0  0  0  0  0  0  0  0  0  0  0  0
    5.7658    1.5378    3.2724 C   0  0  0  0  0  0  0  0  0  0  0  0
    4.3836    1.4564    3.3048 C   0  0  0  0  0  0  0  0  0  0  0  0
    0.7783    3.0053    4.7825 H   0  0  0  0  0  0  0  0  0  0  0  0
   -0.3704    2.2581    3.8524 H   0  0  0  0  0  0  0  0  0  0  0  0
    1.7452    1.0390    5.4727 H   0  0  0  0  0  0  0  0  0  0  0  0
    0.0264    0.6333    5.4244 H   0  0  0  0  0  0  0  0  0  0  0  0
    2.6747   -1.3721    1.8384 H   0  0  0  0  0  0  0  0  0  0  0  0
   -0.0373   -0.7090    0.5780 H   0  0  0  0  0  0  0  0  0  0  0  0
    1.0734   -1.9857    0.0616 H   0  0  0  0  0  0  0  0  0  0  0  0
    0.3176   -2.0629    1.6646 H   0  0  0  0  0  0  0  0  0  0  0  0
    4.6399    5.8452    0.8279 H   0  0  0  0  0  0  0  0  0  0  0  0
    2.9348    7.3557   -0.1019 H   0  0  0  0  0  0  0  0  0  0  0  0
    0.5204    6.7570    0.1458 H   0  0  0  0  0  0  0  0  0  0  0  0
   -0.0621    4.6329    1.3046 H   0  0  0  0  0  0  0  0  0  0  0  0
    5.9743    4.4439    1.5832 H   0  0  0  0  0  0  0  0  0  0  0  0
    7.4196    2.7166    2.5752 H   0  0  0  0  0  0  0  0  0  0  0  0
    6.3633    0.7605    3.7196 H   0  0  0  0  0  0  0  0  0  0  0  0
    3.8844    0.6184    3.7735 H   0  0  0  0  0  0  0  0  0  0  0  0
  1  7  1  0  0  0  0
  1  9  1  0  0  0  0
  1  6  1  0  0  0  0
  2  1  1  0  0  0  0
  4  1  1  0  0  0  0
  5 13  2  0  0  0  0
  6 25  1  0  0  0  0
  6 10  1  0  0  0  0
  7 11  1  0  0  0  0
  8  1  1  0  0  0  0
  9 24  1  0  0  0  0
 10 28  1  0  0  0  0
 10 27  1  0  0  0  0
 11  3  2  0  0  0  0
 11 10  1  0  0  0  0
 12 29  1  1  0  0  0
 12  7  1  0  0  0  0
 13  4  1  0  0  0  0
 13 12  1  0  0  0  0
 14 12  1  0  0  0  0
 14 32  1  0  0  0  0
 15  8  1  0  0  0  0
 15 20  2  0  0  0  0
 16 15  1  0  0  0  0
 17 18  1  0  0  0  0
 17 16  2  0  0  0  0
 18 19  2  0  0  0  0
 19 36  1  0  0  0  0
 19  8  1  0  0  0  0
 20  9  1  0  0  0  0
 21 20  1  0  0  0  0
 21 22  2  0  0  0  0
 22 23  1  0  0  0  0
 23 24  2  0  0  0  0
 23 39  1  0  0  0  0
 24 40  1  0  0  0  0
 26  6  1  0  0  0  0
 30 14  1  0  0  0  0
 31 14  1  0  0  0  0
 33 16  1  0  0  0  0
 34 17  1  0  0  0  0
 35 18  1  0  0  0  0
 37 21  1  0  0  0  0
 38 22  1  0  0  0  0
M  END
$$$$
