CSD_code = KEXKUU | q = 0 | S = 0 | Stoichiometry = C12H9ClN6S3Ti | MND = 7
 OpenBabel04212202063D

 32 36  0  0  1  0  0  0  0  0999 V2000
    5.0996    6.6447    3.1718 Ti  0  0  0  0  0  0  0  0  0  0  0  0
    4.2467    6.6322    5.1952 Cl  0  0  0  0  0  0  0  0  0  0  0  0
    6.9600    8.2826    3.4507 S   0  0  0  0  0  0  0  0  0  0  0  0
    5.9430    6.0409    0.8579 S   0  0  0  0  0  0  0  0  0  0  0  0
    4.0385    8.8056    2.5068 S   0  0  0  0  0  0  0  0  0  0  0  0
    6.8823    5.8047    4.0494 N   0  0  0  0  0  0  0  0  0  0  0  0
    8.8579    6.9410    4.7413 N   0  0  0  0  0  0  0  0  0  0  0  0
    4.9502    4.6510    2.7695 N   0  0  0  0  0  0  0  0  0  0  0  0
    5.5871    3.3926    0.8643 N   0  0  0  0  0  0  0  0  0  0  0  0
    3.1066    6.4325    2.3842 N   0  0  0  0  0  0  0  0  0  0  0  0
    1.6086    8.1402    1.6656 N   0  0  0  0  0  0  0  0  0  0  0  0
    7.6631    6.9161    4.1501 C   0  0  2  0  0  3  0  0  0  0  0  0
    7.3328    4.6906    4.6183 C   0  0  0  0  0  0  0  0  0  0  0  0
    6.7013    3.8087    4.5604 H   0  0  0  0  0  0  0  0  0  0  0  0
    8.5583    4.6446    5.2566 C   0  0  0  0  0  0  0  0  0  0  0  0
    8.9198    3.7393    5.7121 H   0  0  0  0  0  0  0  0  0  0  0  0
    9.2984    5.8303    5.2763 C   0  0  0  0  0  0  0  0  0  0  0  0
   10.2732    5.8837    5.7428 H   0  0  0  0  0  0  0  0  0  0  0  0
    5.4706    4.5527    1.5133 C   0  0  0  0  0  0  0  0  0  0  0  0
    4.5263    3.5509    3.3786 C   0  0  0  0  0  0  0  0  0  0  0  0
    4.1076    3.6812    4.3744 H   0  0  0  0  0  0  0  0  0  0  0  0
    4.6180    2.3161    2.7565 C   0  0  0  0  0  0  0  0  0  0  0  0
    4.2783    1.4142    3.2359 H   0  0  0  0  0  0  0  0  0  0  0  0
    5.1740    2.3064    1.4731 C   0  0  0  0  0  0  0  0  0  0  0  0
    5.2867    1.3860    0.9152 H   0  0  0  0  0  0  0  0  0  0  0  0
    2.7862    7.7344    2.1418 C   0  0  1  0  0  3  0  0  0  0  0  0
    2.1627    5.5223    2.1594 C   0  0  0  0  0  0  0  0  0  0  0  0
    2.4043    4.4844    2.3701 H   0  0  0  0  0  0  0  0  0  0  0  0
    0.9157    5.8715    1.6755 C   0  0  0  0  0  0  0  0  0  0  0  0
    0.1567    5.1301    1.4957 H   0  0  0  0  0  0  0  0  0  0  0  0
    0.6964    7.2307    1.4326 C   0  0  0  0  0  0  0  0  0  0  0  0
   -0.2455    7.5932    1.0426 H   0  0  0  0  0  0  0  0  0  0  0  0
  1  3  1  0  0  0  0
  1  6  1  0  0  0  0
  1  2  1  0  0  0  0
  4 19  2  0  0  0  0
  5  1  1  0  0  0  0
  6 12  1  0  0  0  0
  6 13  1  0  0  0  0
  7 17  2  0  0  0  0
  8  1  1  0  0  0  0
  8 20  1  0  0  0  0
  9 24  2  0  0  0  0
  9 19  1  0  0  0  0
 10  1  1  0  0  0  0
 12  3  1  1  0  0  0
 12  7  1  0  0  0  0
 13 15  2  0  0  0  0
 14 13  1  0  0  0  0
 15 17  1  0  0  0  0
 15 16  1  0  0  0  0
 17 18  1  0  0  0  0
 19  8  1  0  0  0  0
 20 21  1  0  0  0  0
 22 23  1  0  0  0  0
 22 20  2  0  0  0  0
 24 22  1  0  0  0  0
 25 24  1  0  0  0  0
 26 11  1  1  0  0  0
 26 10  1  0  0  0  0
 26  5  1  0  0  0  0
 27 28  1  0  0  0  0
 27 10  1  0  0  0  0
 29 27  2  0  0  0  0
 30 29  1  0  0  0  0
 31 11  2  0  0  0  0
 31 29  1  0  0  0  0
 32 31  1  0  0  0  0
M  END
$$$$
