CSD_code = KEZMIM | q = 0 | S = 0 | Stoichiometry = C22H28Cl2N2Ru | MND = 9
 OpenBabel04212202063D

 55 56  0  0  1  0  0  0  0  0999 V2000
    4.1549    6.7221    1.4437 C   0  0  0  0  0  0  0  0  0  0  0  0
    4.2926    7.0028    0.3959 H   0  0  0  0  0  0  0  0  0  0  0  0
    4.4579    7.5645    2.0738 H   0  0  0  0  0  0  0  0  0  0  0  0
    2.7341    6.2407    1.7523 C   0  0  0  0  0  0  0  0  0  0  0  0
    2.2087    6.8913    2.4587 H   0  0  0  0  0  0  0  0  0  0  0  0
    2.1211    6.1449    0.8476 H   0  0  0  0  0  0  0  0  0  0  0  0
    4.2755    4.5576    2.2593 C   0  0  1  0  0  3  0  0  0  0  0  0
    1.8891    3.9944    2.5464 C   0  0  0  0  0  0  0  0  0  0  0  0
    1.3456    3.8468    1.6041 H   0  0  0  0  0  0  0  0  0  0  0  0
    1.1875    4.4038    3.2838 H   0  0  0  0  0  0  0  0  0  0  0  0
    2.5236    2.7101    3.0305 C   0  0  1  0  0  0  0  0  0  0  0  0
    3.0487    2.6900    4.3685 C   0  0  0  0  0  0  0  0  0  0  0  0
    3.9486    1.6738    4.7024 C   0  0  0  0  0  0  0  0  0  0  0  0
    4.3926    1.6622    5.6930 H   0  0  0  0  0  0  0  0  0  0  0  0
    4.2162    0.5735    3.8305 C   0  0  0  0  0  0  0  0  0  0  0  0
    3.5829    0.5464    2.5946 C   0  0  0  0  0  0  0  0  0  0  0  0
    3.7274   -0.3030    1.9363 H   0  0  0  0  0  0  0  0  0  0  0  0
    2.7739    1.6292    2.1416 C   0  0  1  0  0  3  0  0  0  0  0  0
    2.6664    3.7346    5.3798 C   0  0  0  0  0  0  0  0  0  0  0  0
    3.1818    3.5526    6.3200 H   0  0  0  0  0  0  0  0  0  0  0  0
    1.5908    3.7030    5.5626 H   0  0  0  0  0  0  0  0  0  0  0  0
    2.9293    4.7349    5.0383 H   0  0  0  0  0  0  0  0  0  0  0  0
    5.1213   -0.5276    4.2946 C   0  0  0  0  0  0  0  0  0  0  0  0
    5.2658   -1.2691    3.5122 H   0  0  0  0  0  0  0  0  0  0  0  0
    4.7019   -1.0174    5.1748 H   0  0  0  0  0  0  0  0  0  0  0  0
    6.0944   -0.1175    4.5676 H   0  0  0  0  0  0  0  0  0  0  0  0
    2.1681    1.5522    0.7684 C   0  0  0  0  0  0  0  0  0  0  0  0
    1.1270    1.8738    0.7688 H   0  0  0  0  0  0  0  0  0  0  0  0
    2.2125    0.5307    0.3972 H   0  0  0  0  0  0  0  0  0  0  0  0
    2.7362    2.1767    0.0753 H   0  0  0  0  0  0  0  0  0  0  0  0
    6.4059    5.6504    1.6165 C   0  0  0  0  0  0  0  0  0  0  0  0
    6.6386    5.9190    0.5816 H   0  0  0  0  0  0  0  0  0  0  0  0
    6.8253    4.6636    1.8352 H   0  0  0  0  0  0  0  0  0  0  0  0
    6.9473    6.6778    2.5771 C   0  0  0  0  0  0  0  0  0  0  0  0
    7.3992    7.9115    2.1385 C   0  0  0  0  0  0  0  0  0  0  0  0
    7.4087    8.1380    1.0809 H   0  0  0  0  0  0  0  0  0  0  0  0
    7.8590    8.8616    3.0441 C   0  0  0  0  0  0  0  0  0  0  0  0
    7.8494    8.5558    4.3957 C   0  0  0  0  0  0  0  0  0  0  0  0
    8.2081    9.2865    5.1079 H   0  0  0  0  0  0  0  0  0  0  0  0
    7.3996    7.3226    4.8549 C   0  0  0  0  0  0  0  0  0  0  0  0
    6.9438    6.3913    3.9358 C   0  0  0  0  0  0  0  0  0  0  0  0
    6.6082    5.4171    4.2604 H   0  0  0  0  0  0  0  0  0  0  0  0
    8.3485   10.1908    2.5506 C   0  0  0  0  0  0  0  0  0  0  0  0
    8.7418   10.7898    3.3679 H   0  0  0  0  0  0  0  0  0  0  0  0
    7.5370   10.7428    2.0764 H   0  0  0  0  0  0  0  0  0  0  0  0
    9.1343   10.0537    1.8094 H   0  0  0  0  0  0  0  0  0  0  0  0
    7.3968    7.0092    6.3205 C   0  0  0  0  0  0  0  0  0  0  0  0
    6.5207    7.4494    6.7988 H   0  0  0  0  0  0  0  0  0  0  0  0
    8.2818    7.4159    6.8050 H   0  0  0  0  0  0  0  0  0  0  0  0
    7.3693    5.9342    6.4764 H   0  0  0  0  0  0  0  0  0  0  0  0
    6.7864    2.8901    3.6557 Cl  0  0  0  0  0 15  0  0  0  0  0  0
    5.5301    2.4775    0.5951 Cl  0  0  0  0  0 15  0  0  0  0  0  0
    4.9714    5.5564    1.7547 N   0  0  0  0  0  0  0  0  0  0  0  0
    2.9740    4.9333    2.3392 N   0  0  2  0  0  0  0  0  0  0  0  0
    4.6330    2.6718    2.7504 Ru  0  0  0  0  0  0  0  0  0  0  0  0
  1  4  1  0  0  0  0
  1 53  1  0  0  0  0
  1  3  1  0  0  0  0
  2  1  1  0  0  0  0
  4  5  1  0  0  0  0
  6  4  1  0  0  0  0
  7 54  1  0  0  0  0
  7 55  1  6  0  0  0
  8 11  1  0  0  0  0
  8 10  1  0  0  0  0
  9  8  1  0  0  0  0
 11 55  1  6  0  0  0
 11 12  1  0  0  0  0
 12 13  2  0  0  0  0
 12 19  1  0  0  0  0
 13 14  1  0  0  0  0
 15 23  1  0  0  0  0
 15 13  1  0  0  0  0
 16 15  2  0  0  0  0
 17 16  1  0  0  0  0
 18 27  1  1  0  0  0
 18 16  1  0  0  0  0
 18 11  1  0  0  0  0
 19 21  1  0  0  0  0
 19 20  1  0  0  0  0
 22 19  1  0  0  0  0
 23 26  1  0  0  0  0
 23 25  1  0  0  0  0
 24 23  1  0  0  0  0
 27 28  1  0  0  0  0
 29 27  1  0  0  0  0
 30 27  1  0  0  0  0
 31 53  1  0  0  0  0
 31 33  1  0  0  0  0
 31 34  1  0  0  0  0
 32 31  1  0  0  0  0
 34 41  1  0  0  0  0
 35 34  2  0  0  0  0
 35 37  1  0  0  0  0
 36 35  1  0  0  0  0
 37 38  2  0  0  0  0
 38 40  1  0  0  0  0
 38 39  1  0  0  0  0
 40 47  1  0  0  0  0
 41 42  1  0  0  0  0
 41 40  2  0  0  0  0
 43 37  1  0  0  0  0
 43 44  1  0  0  0  0
 45 43  1  0  0  0  0
 46 43  1  0  0  0  0
 47 50  1  0  0  0  0
 47 48  1  0  0  0  0
 47 49  1  0  0  0  0
 53  7  1  0  0  0  0
 54  4  1  6  0  0  0
 54  8  1  0  0  0  0
M  END
$$$$
