CSD_code = KEZMIO | q = 0 | S = 0 | Stoichiometry = C18H18ClN3OPdS | MND = 4
 OpenBabel04212202063D

 43 47  0  0  0  0  0  0  0  0999 V2000
    5.3348    0.7807   19.5825 Pd  0  0  2  0  0  0  0  0  0  0  0  0
    5.8909   -0.7036   17.8208 S   0  0  2  0  0  3  0  0  0  0  0  0
    6.8992    2.2949   18.9772 Cl  0  0  0  0  0  0  0  0  0  0  0  0
    4.0394   -0.6656   20.1474 N   0  0  0  0  0  0  0  0  0  0  0  0
    4.1729    3.0711   21.2179 N   0  0  0  0  0  0  0  0  0  0  0  0
    4.3907    1.1646   22.2502 N   0  0  0  0  0  0  0  0  0  0  0  0
    3.7455    2.0013   23.1310 C   0  0  0  0  0  0  0  0  0  0  0  0
    3.6114    3.2349   22.4656 C   0  0  0  0  0  0  0  0  0  0  0  0
    4.9370    0.0774   16.5165 C   0  0  0  0  0  0  0  0  0  0  0  0
    3.9348   -1.1191   21.3849 C   0  0  0  0  0  0  0  0  0  0  0  0
    3.5334   -1.4708   19.0605 C   0  0  0  0  0  0  0  0  0  0  0  0
    2.8994   -0.8562   18.4046 H   0  0  0  0  0  0  0  0  0  0  0  0
    2.9333   -2.2941   19.4709 H   0  0  0  0  0  0  0  0  0  0  0  0
    4.1775    1.2140   16.7627 C   0  0  0  0  0  0  0  0  0  0  0  0
    4.1600    1.6640   17.7692 H   0  0  0  0  0  0  0  0  0  0  0  0
    4.6416    1.8169   21.1013 C   0  0  0  0  0  0  0  0  0  0  0  0
    3.2723    1.8314   24.4242 C   0  0  0  0  0  0  0  0  0  0  0  0
    3.3646    0.8900   24.9414 H   0  0  0  0  0  0  0  0  0  0  0  0
    4.6934   -0.2330   22.4236 C   0  0  0  0  0  0  0  0  0  0  0  0
    4.4103   -0.5554   23.4251 H   0  0  0  0  0  0  0  0  0  0  0  0
    5.7742   -0.3936   22.2759 H   0  0  0  0  0  0  0  0  0  0  0  0
    2.6688    2.9195   25.0240 C   0  0  0  0  0  0  0  0  0  0  0  0
    2.2883    2.8233   26.0291 H   0  0  0  0  0  0  0  0  0  0  0  0
    4.7059   -2.0374   18.2639 C   0  0  0  0  0  0  0  0  0  0  0  0
    4.3901   -2.5248   17.3420 H   0  0  0  0  0  0  0  0  0  0  0  0
    5.2823   -2.7324   18.8762 H   0  0  0  0  0  0  0  0  0  0  0  0
    3.4539    1.7817   15.7269 C   0  0  0  0  0  0  0  0  0  0  0  0
    2.8633    2.6667   15.9100 H   0  0  0  0  0  0  0  0  0  0  0  0
    3.0024    4.3212   23.0762 C   0  0  0  0  0  0  0  0  0  0  0  0
    2.8966    5.2659   22.5673 H   0  0  0  0  0  0  0  0  0  0  0  0
    2.5370    4.1411   24.3643 C   0  0  0  0  0  0  0  0  0  0  0  0
    2.0583    4.9632   24.8734 H   0  0  0  0  0  0  0  0  0  0  0  0
    4.9798   -0.4839   15.2492 C   0  0  0  0  0  0  0  0  0  0  0  0
    5.5871   -1.3589   15.0726 H   0  0  0  0  0  0  0  0  0  0  0  0
    3.4876    1.2199   14.4610 C   0  0  0  0  0  0  0  0  0  0  0  0
    2.9222    1.6679   13.6579 H   0  0  0  0  0  0  0  0  0  0  0  0
    4.2391    4.0886   20.2016 C   0  0  0  0  0  0  0  0  0  0  0  0
    4.6382    5.0097   20.6262 H   0  0  0  0  0  0  0  0  0  0  0  0
    3.2444    4.2833   19.7943 H   0  0  0  0  0  0  0  0  0  0  0  0
    4.9102    3.7419   19.4099 H   0  0  0  0  0  0  0  0  0  0  0  0
    4.2499    0.0883   14.2223 C   0  0  0  0  0  0  0  0  0  0  0  0
    4.2823   -0.3465   13.2348 H   0  0  0  0  0  0  0  0  0  0  0  0
    3.3336   -2.1166   21.7604 O   0  0  0  0  0  0  0  0  0  0  0  0
  1  3  1  1  0  0  0
  1  4  1  0  0  0  0
  1 16  2  0  0  0  0
  2  9  1  6  0  0  0
  2 24  1  0  0  0  0
  2  1  1  0  0  0  0
  4 10  1  0  0  0  0
  5  8  1  0  0  0  0
  6 19  1  0  0  0  0
  6  7  1  0  0  0  0
  7 17  1  0  0  0  0
  8 29  1  0  0  0  0
  8  7  2  0  0  0  0
  9 14  1  0  0  0  0
 10 43  2  0  0  0  0
 10 19  1  0  0  0  0
 11 13  1  0  0  0  0
 11  4  1  0  0  0  0
 12 11  1  0  0  0  0
 14 15  1  0  0  0  0
 16  5  1  0  0  0  0
 16  6  1  0  0  0  0
 17 18  1  0  0  0  0
 17 22  2  0  0  0  0
 19 20  1  0  0  0  0
 21 19  1  0  0  0  0
 22 23  1  0  0  0  0
 24 26  1  0  0  0  0
 24 11  1  0  0  0  0
 25 24  1  0  0  0  0
 27 28  1  0  0  0  0
 27 14  2  0  0  0  0
 29 31  2  0  0  0  0
 30 29  1  0  0  0  0
 31 32  1  0  0  0  0
 31 22  1  0  0  0  0
 33  9  2  0  0  0  0
 34 33  1  0  0  0  0
 35 27  1  0  0  0  0
 36 35  1  0  0  0  0
 37 38  1  0  0  0  0
 37  5  1  0  0  0  0
 39 37  1  0  0  0  0
 40 37  1  0  0  0  0
 41 35  2  0  0  0  0
 41 33  1  0  0  0  0
 42 41  1  0  0  0  0
M  END
$$$$
