CSD_code = KEZMOU | q = 0 | S = 0 | Stoichiometry = C18H18ClN3OPdSe | MND = 4
 OpenBabel04212202063D

 43 46  0  0  1  0  0  0  0  0999 V2000
    6.5747    0.7070    0.5237 Pd  0  0  0  0  0  0  0  0  0  0  0  0
    5.9530   -0.8062    2.2568 Se  0  0  0  0  0  0  0  0  0  0  0  0
    4.9929    2.2179    1.1146 Cl  0  0  0  0  0  0  0  0  0  0  0  0
    7.7710    3.0413   -1.0607 N   0  0  0  0  0  0  0  0  0  0  0  0
    7.5395    1.1529   -2.1210 N   0  0  0  0  0  0  0  0  0  0  0  0
    7.9170   -0.7060   -0.0424 N   0  0  0  0  0  0  0  0  0  0  0  0
    8.6542   -2.0995   -1.6916 O   0  0  0  0  0  0  0  0  0  0  0  0
    8.1881    1.9981   -2.9908 C   0  0  0  0  0  0  0  0  0  0  0  0
    8.3298    3.2215   -2.3077 C   0  0  0  0  0  0  0  0  0  0  0  0
    6.9577    0.0858    3.6567 C   0  0  0  0  0  0  0  0  0  0  0  0
    8.6576    1.8441   -4.2872 C   0  0  0  0  0  0  0  0  0  0  0  0
    8.5601    0.9100   -4.8165 H   0  0  0  0  0  0  0  0  0  0  0  0
    7.3254   -2.1675    1.8061 C   0  0  0  0  0  0  0  0  0  0  0  0
    7.6652   -2.6400    2.7290 H   0  0  0  0  0  0  0  0  0  0  0  0
    6.8083   -2.9017    1.1827 H   0  0  0  0  0  0  0  0  0  0  0  0
    7.7500    1.1914    3.3658 C   0  0  0  0  0  0  0  0  0  0  0  0
    7.7987    1.5872    2.3382 H   0  0  0  0  0  0  0  0  0  0  0  0
    8.0233   -1.1312   -1.2894 C   0  0  0  0  0  0  0  0  0  0  0  0
    8.9409    4.3138   -2.9047 C   0  0  0  0  0  0  0  0  0  0  0  0
    9.0513    5.2513   -2.3834 H   0  0  0  0  0  0  0  0  0  0  0  0
    7.2322   -0.2430   -2.3035 C   0  0  0  0  0  0  0  0  0  0  0  0
    7.4925   -0.5552   -3.3145 H   0  0  0  0  0  0  0  0  0  0  0  0
    6.1538   -0.4058   -2.1317 H   0  0  0  0  0  0  0  0  0  0  0  0
    9.2644    2.9380   -4.8730 C   0  0  0  0  0  0  0  0  0  0  0  0
    9.6425    2.8543   -5.8800 H   0  0  0  0  0  0  0  0  0  0  0  0
    9.4022    4.1497   -4.1965 C   0  0  0  0  0  0  0  0  0  0  0  0
    9.8822    4.9773   -4.6955 H   0  0  0  0  0  0  0  0  0  0  0  0
    7.2962    1.7884   -0.9616 C   0  0  1  0  0  3  0  0  0  0  0  0
    8.4690    1.7995    4.3811 C   0  0  0  0  0  0  0  0  0  0  0  0
    9.0845    2.6591    4.1605 H   0  0  0  0  0  0  0  0  0  0  0  0
    6.8808   -0.4002    4.9555 C   0  0  0  0  0  0  0  0  0  0  0  0
    6.2516   -1.2524    5.1706 H   0  0  0  0  0  0  0  0  0  0  0  0
    8.4625   -1.5124    1.0256 C   0  0  0  0  0  0  0  0  0  0  0  0
    9.0607   -0.8786    1.6962 H   0  0  0  0  0  0  0  0  0  0  0  0
    9.1097   -2.2870    0.5934 H   0  0  0  0  0  0  0  0  0  0  0  0
    8.3986    1.3116    5.6758 C   0  0  0  0  0  0  0  0  0  0  0  0
    8.9596    1.7916    6.4635 H   0  0  0  0  0  0  0  0  0  0  0  0
    7.7088    4.0406   -0.0267 C   0  0  0  0  0  0  0  0  0  0  0  0
    7.2869    4.9631   -0.4266 H   0  0  0  0  0  0  0  0  0  0  0  0
    8.7078    4.2437    0.3658 H   0  0  0  0  0  0  0  0  0  0  0  0
    7.0592    3.6698    0.7722 H   0  0  0  0  0  0  0  0  0  0  0  0
    7.6050    0.2131    5.9625 C   0  0  0  0  0  0  0  0  0  0  0  0
    7.5450   -0.1637    6.9726 H   0  0  0  0  0  0  0  0  0  0  0  0
  1  3  1  0  0  0  0
  2 10  1  0  0  0  0
  4 28  1  0  0  0  0
  4 38  1  0  0  0  0
  6  1  1  0  0  0  0
  6 33  1  0  0  0  0
  7 18  2  0  0  0  0
  8  9  1  0  0  0  0
  8  5  1  0  0  0  0
  9  4  1  0  0  0  0
 10 31  1  0  0  0  0
 11  8  2  0  0  0  0
 12 11  1  0  0  0  0
 13  2  1  0  0  0  0
 13 14  1  0  0  0  0
 15 13  1  0  0  0  0
 16 10  2  0  0  0  0
 16 29  1  0  0  0  0
 17 16  1  0  0  0  0
 18  6  1  0  0  0  0
 19 20  1  0  0  0  0
 19  9  2  0  0  0  0
 21 23  1  0  0  0  0
 21  5  1  0  0  0  0
 21 18  1  0  0  0  0
 22 21  1  0  0  0  0
 24 11  1  0  0  0  0
 24 26  2  0  0  0  0
 25 24  1  0  0  0  0
 26 19  1  0  0  0  0
 27 26  1  0  0  0  0
 28  5  1  1  0  0  0
 28  1  1  0  0  0  0
 29 36  2  0  0  0  0
 30 29  1  0  0  0  0
 31 32  1  0  0  0  0
 31 42  2  0  0  0  0
 33 34  1  0  0  0  0
 33 13  1  0  0  0  0
 35 33  1  0  0  0  0
 36 42  1  0  0  0  0
 36 37  1  0  0  0  0
 38 40  1  0  0  0  0
 38 41  1  0  0  0  0
 39 38  1  0  0  0  0
 42 43  1  0  0  0  0
M  END
$$$$
