CSD_code = KEZVIU | q = 0 | S = 0 | Stoichiometry = C13H35BrOP3Rh | MND = 6
 OpenBabel04212202063D

 54 54  0  0  0  0  0  0  0  0999 V2000
    0.3320    5.5465    1.3139 Rh  0  0  0  0  0  0  0  0  0  0  0  0
    2.0120    5.9946    3.1900 Br  0  0  0  0  0  0  0  0  0  0  0  0
   -1.0709    5.0132    3.0739 P   0  0  0  0  0  4  0  0  0  0  0  0
   -1.5032    6.4802    4.0719 C   0  0  0  0  0  0  0  0  0  0  0  0
   -2.6953    4.1589    2.8589 C   0  0  0  0  0  0  0  0  0  0  0  0
   -0.4204    3.9442    4.4238 C   0  0  0  0  0  0  0  0  0  0  0  0
    1.0829    3.4083    0.9509 P   0  0  0  0  0  4  0  0  0  0  0  0
   -0.1500    2.0526    1.1110 C   0  0  0  0  0  0  0  0  0  0  0  0
    2.4660    2.7309    1.9428 C   0  0  0  0  0  0  0  0  0  0  0  0
    1.6505    3.0023   -0.7509 C   0  0  0  0  0  0  0  0  0  0  0  0
    1.9350    6.5859    0.0089 P   0  0  0  0  0  4  0  0  0  0  0  0
    3.6960    6.0913    0.2145 C   0  0  0  0  0  0  0  0  0  0  0  0
    1.9041    6.5809   -1.8382 C   0  0  0  0  0  0  0  0  0  0  0  0
    2.0966    8.3593    0.4145 C   0  0  0  0  0  0  0  0  0  0  0  0
   -0.6163    7.3405    1.3099 O   0  0  0  0  0  0  0  0  0  0  0  0
   -1.5320    7.0911    0.2831 C   0  0  0  0  0  0  0  0  0  0  0  0
   -1.1747    5.6517   -0.1153 C   0  0  0  0  0  0  0  0  0  0  0  0
   -1.3624    8.0953   -0.8730 C   0  0  0  0  0  0  0  0  0  0  0  0
   -2.9836    7.2335    0.7797 C   0  0  0  0  0  0  0  0  0  0  0  0
   -1.8856    7.2701    3.4308 H   0  0  0  0  0  0  0  0  0  0  0  0
   -0.5860    6.8395    4.5389 H   0  0  0  0  0  0  0  0  0  0  0  0
   -2.2318    6.2134    4.8377 H   0  0  0  0  0  0  0  0  0  0  0  0
   -3.2765    4.5891    2.0489 H   0  0  0  0  0  0  0  0  0  0  0  0
   -3.2648    4.2330    3.7846 H   0  0  0  0  0  0  0  0  0  0  0  0
   -2.5203    3.1089    2.6326 H   0  0  0  0  0  0  0  0  0  0  0  0
    0.4616    4.4058    4.8623 H   0  0  0  0  0  0  0  0  0  0  0  0
   -0.1505    2.9577    4.0527 H   0  0  0  0  0  0  0  0  0  0  0  0
   -1.1920    3.8391    5.1859 H   0  0  0  0  0  0  0  0  0  0  0  0
   -0.4906    1.9681    2.1401 H   0  0  0  0  0  0  0  0  0  0  0  0
    0.2915    1.1052    0.8025 H   0  0  0  0  0  0  0  0  0  0  0  0
   -1.0038    2.2800    0.4740 H   0  0  0  0  0  0  0  0  0  0  0  0
    3.3438    3.3611    1.8085 H   0  0  0  0  0  0  0  0  0  0  0  0
    2.6890    1.7071    1.6440 H   0  0  0  0  0  0  0  0  0  0  0  0
    2.1996    2.7651    2.9981 H   0  0  0  0  0  0  0  0  0  0  0  0
    2.5438    3.5705   -0.9987 H   0  0  0  0  0  0  0  0  0  0  0  0
    0.8601    3.2625   -1.4537 H   0  0  0  0  0  0  0  0  0  0  0  0
    1.8711    1.9381   -0.8298 H   0  0  0  0  0  0  0  0  0  0  0  0
    3.9900    6.2062    1.2554 H   0  0  0  0  0  0  0  0  0  0  0  0
    4.3126    6.7380   -0.4092 H   0  0  0  0  0  0  0  0  0  0  0  0
    3.8535    5.0565   -0.0828 H   0  0  0  0  0  0  0  0  0  0  0  0
    0.9270    6.8501   -2.2278 H   0  0  0  0  0  0  0  0  0  0  0  0
    2.1521    5.5843   -2.1987 H   0  0  0  0  0  0  0  0  0  0  0  0
    2.6439    7.2886   -2.2109 H   0  0  0  0  0  0  0  0  0  0  0  0
    1.1171    8.8309    0.4171 H   0  0  0  0  0  0  0  0  0  0  0  0
    2.7632    8.8504   -0.2947 H   0  0  0  0  0  0  0  0  0  0  0  0
    2.5072    8.4286    1.4221 H   0  0  0  0  0  0  0  0  0  0  0  0
   -2.0023    4.9548    0.0388 H   0  0  0  0  0  0  0  0  0  0  0  0
   -0.8303    5.5752   -1.1496 H   0  0  0  0  0  0  0  0  0  0  0  0
   -2.0268    7.8357   -1.6953 H   0  0  0  0  0  0  0  0  0  0  0  0
   -0.3368    8.1036   -1.2297 H   0  0  0  0  0  0  0  0  0  0  0  0
   -1.6054    9.0972   -0.5240 H   0  0  0  0  0  0  0  0  0  0  0  0
   -3.6785    6.9637   -0.0135 H   0  0  0  0  0  0  0  0  0  0  0  0
   -3.1679    8.2643    1.0764 H   0  0  0  0  0  0  0  0  0  0  0  0
   -3.1609    6.5981    1.6422 H   0  0  0  0  0  0  0  0  0  0  0  0
  1  3  1  0  0  0  0
  1  2  1  0  0  0  0
  3  4  1  0  0  0  0
  3  6  1  0  0  0  0
  4 21  1  0  0  0  0
  4 22  1  0  0  0  0
  5  3  1  0  0  0  0
  5 24  1  0  0  0  0
  6 26  1  0  0  0  0
  6 28  1  0  0  0  0
  7  8  1  0  0  0  0
  7  1  1  0  0  0  0
  7  9  1  0  0  0  0
  8 29  1  0  0  0  0
  9 34  1  0  0  0  0
 10  7  1  0  0  0  0
 11 12  1  0  0  0  0
 11 14  1  0  0  0  0
 11  1  1  0  0  0  0
 12 38  1  0  0  0  0
 13 11  1  0  0  0  0
 14 44  1  0  0  0  0
 14 46  1  0  0  0  0
 15  1  1  0  0  0  0
 16 19  1  0  0  0  0
 16 15  1  0  0  0  0
 17 47  1  0  0  0  0
 17 16  1  0  0  0  0
 17  1  1  0  0  0  0
 18 51  1  0  0  0  0
 18 16  1  0  0  0  0
 19 53  1  0  0  0  0
 19 54  1  0  0  0  0
 20  4  1  0  0  0  0
 23  5  1  0  0  0  0
 25  5  1  0  0  0  0
 27  6  1  0  0  0  0
 30  8  1  0  0  0  0
 31  8  1  0  0  0  0
 32  9  1  0  0  0  0
 33  9  1  0  0  0  0
 35 10  1  0  0  0  0
 36 10  1  0  0  0  0
 37 10  1  0  0  0  0
 39 12  1  0  0  0  0
 40 12  1  0  0  0  0
 41 13  1  0  0  0  0
 42 13  1  0  0  0  0
 43 13  1  0  0  0  0
 45 14  1  0  0  0  0
 48 17  1  0  0  0  0
 49 18  1  0  0  0  0
 50 18  1  0  0  0  0
 52 19  1  0  0  0  0
M  END
$$$$
