CSD_code = KEZWOD | q = 0 | S = 0 | Stoichiometry = C22H29ClNORh | MND = 6
 OpenBabel04212202063D

 55 56  0  0  1  0  0  0  0  0999 V2000
    0.2627    5.0687    7.9471 Rh  0  0  0  0  0  0  0  0  0  0  0  0
    2.0338    5.7565    6.7258 Cl  0  0  0  0  0 15  0  0  0  0  0  0
   -1.2127    4.8729    9.4579 C   0  0  1  0  0  0  0  0  0  0  0  0
   -1.9159    5.7067    9.4460 H   0  0  0  0  0  0  0  0  0  0  0  0
    1.4806    4.0832    9.4508 C   0  0  0  0  0  3  0  0  0  0  0  0
    2.3984    4.6695    9.5099 H   0  0  0  0  0  0  0  0  0  0  0  0
    1.3336    3.2359    8.3747 C   0  0  0  0  0  3  0  0  0  0  0  0
    2.1485    3.1824    7.6539 H   0  0  0  0  0  0  0  0  0  0  0  0
   -1.4008    3.8609    8.5144 C   0  0  0  0  0  3  0  0  0  0  0  0
   -2.1971    3.9964    7.7854 H   0  0  0  0  0  0  0  0  0  0  0  0
   -0.8355    6.4229    7.0042 C   0  0  2  0  0  3  0  0  0  0  0  0
   -0.5981    7.7310    6.8170 N   0  0  0  0  0  0  0  0  0  0  0  0
   -2.0783    6.1899    6.5898 O   0  0  0  0  0  0  0  0  0  0  0  0
   -0.5940    4.6464   10.8207 C   0  0  0  0  0  0  0  0  0  0  0  0
   -1.3025    4.0955   11.4506 H   0  0  0  0  0  0  0  0  0  0  0  0
   -0.4412    5.6203   11.2926 H   0  0  0  0  0  0  0  0  0  0  0  0
    0.7517    3.8961   10.7652 C   0  0  0  0  0  0  0  0  0  0  0  0
    1.3885    4.2551   11.5764 H   0  0  0  0  0  0  0  0  0  0  0  0
    0.5957    2.8282   10.9286 H   0  0  0  0  0  0  0  0  0  0  0  0
    0.3791    2.0687    8.3025 C   0  0  0  0  0  0  0  0  0  0  0  0
    0.7833    1.2342    8.8869 H   0  0  0  0  0  0  0  0  0  0  0  0
    0.3293    1.7411    7.2609 H   0  0  0  0  0  0  0  0  0  0  0  0
   -1.0414    2.4151    8.7842 C   0  0  0  0  0  0  0  0  0  0  0  0
   -1.1409    2.2159    9.8526 H   0  0  0  0  0  0  0  0  0  0  0  0
   -1.7540    1.7678    8.2684 H   0  0  0  0  0  0  0  0  0  0  0  0
   -2.6466    7.3553    6.1588 C   0  0  0  0  0  0  0  0  0  0  0  0
   -1.7335    8.3423    6.3014 C   0  0  0  0  0  0  0  0  0  0  0  0
   -4.0435    7.3240    5.6590 C   0  0  0  0  0  0  0  0  0  0  0  0
   -4.3130    8.2888    5.2400 H   0  0  0  0  0  0  0  0  0  0  0  0
   -4.7318    7.0832    6.4687 H   0  0  0  0  0  0  0  0  0  0  0  0
   -4.1460    6.5577    4.8926 H   0  0  0  0  0  0  0  0  0  0  0  0
   -1.8239    9.8078    6.0855 C   0  0  0  0  0  0  0  0  0  0  0  0
   -2.7493   10.0531    5.5719 H   0  0  0  0  0  0  0  0  0  0  0  0
   -0.9815   10.1720    5.5014 H   0  0  0  0  0  0  0  0  0  0  0  0
   -1.8068   10.3262    7.0447 H   0  0  0  0  0  0  0  0  0  0  0  0
    0.6179    8.4445    7.0108 C   0  0  0  0  0  0  0  0  0  0  0  0
    1.3619    8.8193    5.8921 C   0  0  0  0  0  0  0  0  0  0  0  0
    2.4893    9.6026    6.0874 C   0  0  0  0  0  0  0  0  0  0  0  0
    3.0783    9.8911    5.2289 H   0  0  0  0  0  0  0  0  0  0  0  0
    2.8903    9.9975    7.3539 C   0  0  0  0  0  0  0  0  0  0  0  0
    2.1573    9.5655    8.4507 C   0  0  0  0  0  0  0  0  0  0  0  0
    2.4852    9.8316    9.4454 H   0  0  0  0  0  0  0  0  0  0  0  0
    1.0222    8.7867    8.2998 C   0  0  0  0  0  0  0  0  0  0  0  0
    0.2883    8.2435    9.4849 C   0  0  0  0  0  0  0  0  0  0  0  0
   -0.7797    8.4543    9.4309 H   0  0  0  0  0  0  0  0  0  0  0  0
    0.6844    8.6543   10.4095 H   0  0  0  0  0  0  0  0  0  0  0  0
    0.4224    7.1508    9.4930 H   0  0  0  0  0  0  0  0  0  0  0  0
    1.0254    8.2925    4.5319 C   0  0  0  0  0  0  0  0  0  0  0  0
    1.2549    7.2257    4.5266 H   0  0  0  0  0  0  0  0  0  0  0  0
    1.6284    8.7798    3.7705 H   0  0  0  0  0  0  0  0  0  0  0  0
   -0.0264    8.4106    4.2776 H   0  0  0  0  0  0  0  0  0  0  0  0
    4.1079   10.8480    7.5525 C   0  0  0  0  0  0  0  0  0  0  0  0
    3.8479   11.7689    8.0737 H   0  0  0  0  0  0  0  0  0  0  0  0
    4.5650   11.1029    6.6001 H   0  0  0  0  0  0  0  0  0  0  0  0
    4.8411   10.3177    8.1584 H   0  0  0  0  0  0  0  0  0  0  0  0
  1  3  1  0  0  0  0
  3  4  1  6  0  0  0
  3 14  1  0  0  0  0
  5  6  1  0  0  0  0
  5 17  1  0  0  0  0
  7  5  1  0  0  0  0
  8  7  1  0  0  0  0
  9 23  1  0  0  0  0
  9  3  1  0  0  0  0
 10  9  1  0  0  0  0
 11  1  1  1  0  0  0
 12 11  1  0  0  0  0
 12 36  1  0  0  0  0
 13 11  1  0  0  0  0
 14 16  1  0  0  0  0
 14 15  1  0  0  0  0
 17 14  1  0  0  0  0
 17 19  1  0  0  0  0
 17 18  1  0  0  0  0
 20  7  1  0  0  0  0
 20 23  1  0  0  0  0
 20 21  1  0  0  0  0
 22 20  1  0  0  0  0
 23 24  1  0  0  0  0
 25 23  1  0  0  0  0
 26 27  2  0  0  0  0
 26 13  1  0  0  0  0
 27 12  1  0  0  0  0
 28 26  1  0  0  0  0
 28 30  1  0  0  0  0
 29 28  1  0  0  0  0
 31 28  1  0  0  0  0
 32 27  1  0  0  0  0
 32 35  1  0  0  0  0
 33 32  1  0  0  0  0
 34 32  1  0  0  0  0
 36 43  1  0  0  0  0
 37 38  1  0  0  0  0
 37 36  2  0  0  0  0
 38 40  2  0  0  0  0
 39 38  1  0  0  0  0
 40 52  1  0  0  0  0
 40 41  1  0  0  0  0
 41 42  1  0  0  0  0
 43 41  2  0  0  0  0
 43 44  1  0  0  0  0
 44 47  1  0  0  0  0
 44 46  1  0  0  0  0
 45 44  1  0  0  0  0
 48 37  1  0  0  0  0
 49 48  1  0  0  0  0
 50 48  1  0  0  0  0
 51 48  1  0  0  0  0
 52 53  1  0  0  0  0
 52 55  1  0  0  0  0
 54 52  1  0  0  0  0
M  END
$$$$
