CSD_code = KEZZUN | q = 0 | S = 0 | Stoichiometry = C15H11Cl3N3OY | MND = 7
 OpenBabel04212202063D

 34 38  0  0  1  0  0  0  0  0999 V2000
    2.8657    3.7161    2.4045 Y   0  0  0  0  0  0  0  0  0  0  0  0
    0.8154    2.3362    2.1841 Cl  0  0  0  0  0  0  0  0  0  0  0  0
    4.7676    4.8756    3.4729 Cl  0  0  0  0  0  0  0  0  0  0  0  0
    1.6132    6.0164    1.6631 Cl  0  0  0  0  0  0  0  0  0  0  0  0
    2.5936    4.9074    0.9335 O   0  0  0  0  0  0  0  0  0  0  0  0
    4.2537    2.2348    1.1412 N   0  0  0  0  0  0  0  0  0  0  0  0
    3.4659    1.8373    3.6733 N   0  0  0  0  0  0  0  0  0  0  0  0
    2.0501    3.9382    4.6647 N   0  0  0  0  0  0  0  0  0  0  0  0
    5.5381    0.2229    1.1398 C   0  0  0  0  0  0  0  0  0  0  0  0
    5.8380   -0.6852    1.6377 H   0  0  0  0  0  0  0  0  0  0  0  0
    4.6088    1.0797    1.7260 C   0  0  1  0  0  3  0  0  0  0  0  0
    6.0944    0.5665   -0.0810 C   0  0  0  0  0  0  0  0  0  0  0  0
    6.8198   -0.0812   -0.5504 H   0  0  0  0  0  0  0  0  0  0  0  0
    3.8470   -0.5072    3.5383 C   0  0  0  0  0  0  0  0  0  0  0  0
    4.2169   -1.3588    2.9908 H   0  0  0  0  0  0  0  0  0  0  0  0
    2.3441    2.9163    5.4837 C   0  0  1  0  0  3  0  0  0  0  0  0
    2.7047    0.4215    5.4248 C   0  0  0  0  0  0  0  0  0  0  0  0
    2.1763    0.3000    6.3562 H   0  0  0  0  0  0  0  0  0  0  0  0
    3.9648    0.7835    3.0252 C   0  0  2  0  0  3  0  0  0  0  0  0
    3.1988   -0.6812    4.7498 C   0  0  0  0  0  0  0  0  0  0  0  0
    3.0707   -1.6719    5.1595 H   0  0  0  0  0  0  0  0  0  0  0  0
    5.7080    1.7522   -0.6845 C   0  0  0  0  0  0  0  0  0  0  0  0
    6.1153    2.0531   -1.6363 H   0  0  0  0  0  0  0  0  0  0  0  0
    1.5751    5.0607    5.1916 C   0  0  0  0  0  0  0  0  0  0  0  0
    1.3423    5.8584    4.4924 H   0  0  0  0  0  0  0  0  0  0  0  0
    1.7034    4.1928    7.4067 C   0  0  0  0  0  0  0  0  0  0  0  0
    1.5838    4.2935    8.4750 H   0  0  0  0  0  0  0  0  0  0  0  0
    4.7859    2.5580   -0.0316 C   0  0  0  0  0  0  0  0  0  0  0  0
    4.4554    3.5002   -0.4578 H   0  0  0  0  0  0  0  0  0  0  0  0
    2.8598    1.6831    4.8498 C   0  0  0  0  0  0  0  0  0  0  0  0
    1.3798    5.2347    6.5540 C   0  0  0  0  0  0  0  0  0  0  0  0
    0.9939    6.1677    6.9320 H   0  0  0  0  0  0  0  0  0  0  0  0
    2.1895    3.0153    6.8646 C   0  0  0  0  0  0  0  0  0  0  0  0
    2.4698    2.1952    7.5064 H   0  0  0  0  0  0  0  0  0  0  0  0
  1  3  1  0  0  0  0
  1  7  1  0  0  0  0
  1  8  1  0  0  0  0
  2  1  1  0  0  0  0
  5  4  1  0  0  0  0
  5  1  1  0  0  0  0
  6 11  1  0  0  0  0
  6  1  1  0  0  0  0
  7 30  1  0  0  0  0
  8 24  1  0  0  0  0
  8 16  1  0  0  0  0
  9 10  1  0  0  0  0
 11  9  1  1  0  0  0
 11 19  1  0  0  0  0
 12  9  2  0  0  0  0
 13 12  1  0  0  0  0
 14 20  2  0  0  0  0
 15 14  1  0  0  0  0
 16 30  1  1  0  0  0
 16 33  1  0  0  0  0
 17 18  1  0  0  0  0
 19 14  1  6  0  0  0
 19  7  1  0  0  0  0
 20 21  1  0  0  0  0
 20 17  1  0  0  0  0
 22 12  1  0  0  0  0
 22 28  2  0  0  0  0
 23 22  1  0  0  0  0
 24 31  2  0  0  0  0
 25 24  1  0  0  0  0
 26 27  1  0  0  0  0
 28  6  1  0  0  0  0
 29 28  1  0  0  0  0
 30 17  2  0  0  0  0
 31 32  1  0  0  0  0
 31 26  1  0  0  0  0
 33 26  2  0  0  0  0
 33 34  1  0  0  0  0
M  END
$$$$
