CSD_code = KIBBAB | q = 0 | S = 0 | Stoichiometry = C9H21ClF2N3Sc | MND = 6
 OpenBabel04212202063D

 37 39  0  0  1  0  0  0  0  0999 V2000
    3.1153    3.2778    1.9364 Sc  0  0  0  0  0  0  0  0  0  0  0  0
    3.0322    3.0031    4.2211 Cl  0  0  0  0  0  0  0  0  0  0  0  0
    1.7779    2.2615    1.2976 F   0  0  0  0  0  0  0  0  0  0  0  0
    4.6901    2.5706    1.4373 F   0  0  0  0  0  0  0  0  0  0  0  0
    1.5256    5.1027    2.1615 N   0  0  2  0  0  4  0  0  0  0  0  0
    4.3404    5.3693    2.1848 N   0  0  2  0  0  4  0  0  0  0  0  0
    3.0263    4.4697   -0.1379 N   0  0  1  0  0  4  0  0  0  0  0  0
    1.6275    4.8760   -0.2996 C   0  0  0  0  0  0  0  0  0  0  0  0
    1.0297    3.9627   -0.3381 H   0  0  0  0  0  0  0  0  0  0  0  0
    1.4753    5.4321   -1.2396 H   0  0  0  0  0  0  0  0  0  0  0  0
    5.3675    5.0821    3.1927 C   0  0  0  0  0  0  0  0  0  0  0  0
    4.8894    4.9087    4.1561 H   0  0  0  0  0  0  0  0  0  0  0  0
    6.0812    5.9140    3.2805 H   0  0  0  0  0  0  0  0  0  0  0  0
    5.9077    4.1755    2.9179 H   0  0  0  0  0  0  0  0  0  0  0  0
    3.5228    6.5183    2.6045 C   0  0  0  0  0  0  0  0  0  0  0  0
    3.4183    7.2193    1.7730 H   0  0  0  0  0  0  0  0  0  0  0  0
    4.0120    7.0643    3.4199 H   0  0  0  0  0  0  0  0  0  0  0  0
    1.1474    5.7265    0.8843 C   0  0  0  0  0  0  0  0  0  0  0  0
    1.5732    6.7303    0.8226 H   0  0  0  0  0  0  0  0  0  0  0  0
    0.0588    5.8395    0.8136 H   0  0  0  0  0  0  0  0  0  0  0  0
    2.1404    6.0601    3.0898 C   0  0  0  0  0  0  0  0  0  0  0  0
    2.2614    5.5430    4.0457 H   0  0  0  0  0  0  0  0  0  0  0  0
    1.4945    6.9402    3.2431 H   0  0  0  0  0  0  0  0  0  0  0  0
    0.3507    4.4894    2.7919 C   0  0  0  0  0  0  0  0  0  0  0  0
   -0.0867    3.7610    2.1103 H   0  0  0  0  0  0  0  0  0  0  0  0
   -0.4030    5.2475    3.0486 H   0  0  0  0  0  0  0  0  0  0  0  0
    0.6556    3.9667    3.6991 H   0  0  0  0  0  0  0  0  0  0  0  0
    4.9797    5.5877    0.8819 C   0  0  0  0  0  0  0  0  0  0  0  0
    5.6710    4.7573    0.7210 H   0  0  0  0  0  0  0  0  0  0  0  0
    5.5559    6.5278    0.8698 H   0  0  0  0  0  0  0  0  0  0  0  0
    3.9562    5.5995   -0.2618 C   0  0  0  0  0  0  0  0  0  0  0  0
    3.3984    6.5382   -0.2572 H   0  0  0  0  0  0  0  0  0  0  0  0
    4.4967    5.5568   -1.2154 H   0  0  0  0  0  0  0  0  0  0  0  0
    3.3616    3.4181   -1.1014 C   0  0  0  0  0  0  0  0  0  0  0  0
    4.3999    3.1212   -0.9642 H   0  0  0  0  0  0  0  0  0  0  0  0
    3.2144    3.7611   -2.1357 H   0  0  0  0  0  0  0  0  0  0  0  0
    2.7363    2.5437   -0.9201 H   0  0  0  0  0  0  0  0  0  0  0  0
  1  5  1  0  0  0  0
  1  6  1  0  0  0  0
  1  2  1  0  0  0  0
  3  1  1  0  0  0  0
  4  1  1  0  0  0  0
  5 24  1  1  0  0  0
  5 21  1  0  0  0  0
  6 15  1  0  0  0  0
  6 11  1  1  0  0  0
  7 34  1  6  0  0  0
  7  1  1  0  0  0  0
  8  7  1  0  0  0  0
  8 18  1  0  0  0  0
  9  8  1  0  0  0  0
 10  8  1  0  0  0  0
 11 13  1  0  0  0  0
 11 12  1  0  0  0  0
 14 11  1  0  0  0  0
 15 21  1  0  0  0  0
 15 17  1  0  0  0  0
 16 15  1  0  0  0  0
 18  5  1  0  0  0  0
 19 18  1  0  0  0  0
 20 18  1  0  0  0  0
 21 23  1  0  0  0  0
 21 22  1  0  0  0  0
 24 26  1  0  0  0  0
 24 27  1  0  0  0  0
 25 24  1  0  0  0  0
 28  6  1  0  0  0  0
 29 28  1  0  0  0  0
 30 28  1  0  0  0  0
 31 32  1  0  0  0  0
 31  7  1  0  0  0  0
 31 28  1  0  0  0  0
 33 31  1  0  0  0  0
 34 35  1  0  0  0  0
 34 37  1  0  0  0  0
 36 34  1  0  0  0  0
M  END
$$$$
