CSD_code = KIBJOW | q = 0 | S = 0 | Stoichiometry = C5H8Cl4MoO4 | MND = 6
 OpenBabel04212202063D

 22 22  0  0  1  0  0  0  0  0999 V2000
   -2.1955    5.6909    1.5869 C   0  0  0  0  0  0  0  0  0  0  0  0
   -3.1818    6.0331    1.2860 H   0  0  0  0  0  0  0  0  0  0  0  0
   -1.5626    6.5409    1.8521 H   0  0  0  0  0  0  0  0  0  0  0  0
   -2.2642    5.0145    2.4452 H   0  0  0  0  0  0  0  0  0  0  0  0
   -0.4985    4.3830    0.6459 C   0  0  2  0  0  3  0  0  0  0  0  0
   -0.1275    3.2965   -0.3264 C   0  0  0  0  0  0  0  0  0  0  0  0
    0.9420    3.2966   -0.5476 H   0  0  0  0  0  0  0  0  0  0  0  0
   -0.7506    3.2964   -1.2146 H   0  0  0  0  0  0  0  0  0  0  0  0
    1.7372    5.0453    4.1049 Cl  0  0  0  0  0  0  0  0  0  0  0  0
    3.0422    3.2967    1.6290 Cl  0  0  0  0  0  0  0  0  0  0  0  0
   -1.0269    3.2963    4.2102 Cl  0  0  0  0  0  0  0  0  0  0  0  0
    1.0587    3.2966    2.9486 Mo  0  0  0  0  0  0  0  0  0  0  0  0
    0.1538    4.5022    1.7143 O   0  0  0  0  0  0  0  0  0  0  0  0
   -1.6597    5.0086    0.4506 O   0  0  0  0  0  0  0  0  0  0  0  0
   -2.1954    0.9021    1.5867 C   0  0  0  0  0  0  0  0  0  0  0  0
   -3.1828    0.5618    1.2863 H   0  0  0  0  0  0  0  0  0  0  0  0
   -1.5636    0.0505    1.8505 H   0  0  0  0  0  0  0  0  0  0  0  0
   -2.2623    1.5779    2.4457 H   0  0  0  0  0  0  0  0  0  0  0  0
   -0.4983    2.2100    0.6459 C   0  0  1  0  0  3  0  0  0  0  0  0
    0.1538    2.0910    1.7143 O   0  0  0  0  0  0  0  0  0  0  0  0
   -1.6595    1.5845    0.4506 O   0  0  0  0  0  0  0  0  0  0  0  0
    1.7371    1.5476    4.1042 Cl  0  0  0  0  0  0  0  0  0  0  0  0
  1  3  1  0  0  0  0
  1  4  1  0  0  0  0
  2  1  1  0  0  0  0
  5 14  1  1  0  0  0
  5 13  1  0  0  0  0
  6 19  1  0  0  0  0
  6  5  1  0  0  0  0
  7  6  1  0  0  0  0
  8  6  1  0  0  0  0
 10 12  1  0  0  0  0
 12 22  1  0  0  0  0
 12  9  1  0  0  0  0
 12 11  1  0  0  0  0
 13 12  1  0  0  0  0
 14  1  1  0  0  0  0
 15 17  1  0  0  0  0
 15 18  1  0  0  0  0
 16 15  1  0  0  0  0
 19 21  1  1  0  0  0
 19 20  1  0  0  0  0
 20 12  1  0  0  0  0
 21 15  1  0  0  0  0
M  END
$$$$
