CSD_code = KIBKOW | q = 1 | S = 0 | Stoichiometry = C12H18BrN5O2Re(1+) | MND = 6
 OpenBabel04212202063D

 39 43  0  0  1  0  0  0  0  0999 V2000
    2.0046    3.3958    9.6127 Re  0  0  0  0  0  0  0  0  0  0  0  0
    2.1549    5.1214   11.3175 Br  0  0  0  0  0  0  0  0  0  0  0  0
    0.2900    3.6928    9.2028 O   0  0  0  0  0  0  0  0  0  0  0  0
    3.5319    2.7698    9.7077 O   0  0  0  0  0  1  0  0  0  0  0  0
    1.2680    1.7593   10.7595 N   0  0  0  0  0  0  0  0  0  0  0  0
    0.5780   -0.3150   10.7239 N   0  0  0  0  0  0  0  0  0  0  0  0
    1.4779    1.8642    7.8792 N   0  0  1  0  0  4  0  0  0  0  0  0
    2.5817    4.5016    7.8927 N   0  0  0  0  0  0  0  0  0  0  0  0
    3.0347    4.4198    5.7552 N   0  0  0  0  0  0  0  0  0  0  0  0
    0.7927    1.4629   11.9943 C   0  0  0  0  0  0  0  0  0  0  0  0
    0.8018    2.1890   12.7825 H   0  0  0  0  0  0  0  0  0  0  0  0
    0.3623    0.1698   11.9842 C   0  0  0  0  0  0  0  0  0  0  0  0
   -0.0667   -0.4300   12.7592 H   0  0  0  0  0  0  0  0  0  0  0  0
    1.1249    0.6768    9.9984 C   0  0  2  0  0  3  0  0  0  0  0  0
    0.2964   -1.6569   10.2869 C   0  0  0  0  0  0  0  0  0  0  0  0
   -0.1561   -2.2080   11.1082 H   0  0  0  0  0  0  0  0  0  0  0  0
    1.2148   -2.1644    9.9890 H   0  0  0  0  0  0  0  0  0  0  0  0
   -0.3986   -1.6539    9.4456 H   0  0  0  0  0  0  0  0  0  0  0  0
    1.5958    0.5786    8.5711 C   0  0  0  0  0  0  0  0  0  0  0  0
    1.0458   -0.2142    8.0459 H   0  0  0  0  0  0  0  0  0  0  0  0
    2.6566    0.3027    8.5996 H   0  0  0  0  0  0  0  0  0  0  0  0
    0.1325    2.1717    7.4092 C   0  0  0  0  0  0  0  0  0  0  0  0
   -0.4297    1.2689    7.1516 H   0  0  0  0  0  0  0  0  0  0  0  0
    0.2051    2.8035    6.5217 H   0  0  0  0  0  0  0  0  0  0  0  0
   -0.6293    2.9765    8.5102 C   0  0  0  0  0  0  0  0  0  0  0  0
   -1.3851    3.6234    8.0441 H   0  0  0  0  0  0  0  0  0  0  0  0
   -1.1522    2.2858    9.1940 H   0  0  0  0  0  0  0  0  0  0  0  0
    2.5214    2.2036    6.9059 C   0  0  0  0  0  0  0  0  0  0  0  0
    3.4687    1.7816    7.2620 H   0  0  0  0  0  0  0  0  0  0  0  0
    2.3040    1.7921    5.9113 H   0  0  0  0  0  0  0  0  0  0  0  0
    2.6940    3.6977    6.8369 C   0  0  1  0  0  3  0  0  0  0  0  0
    2.8473    5.7653    7.4806 C   0  0  0  0  0  0  0  0  0  0  0  0
    2.8200    6.5914    8.1628 H   0  0  0  0  0  0  0  0  0  0  0  0
    3.1334    5.7255    6.1484 C   0  0  0  0  0  0  0  0  0  0  0  0
    3.3979    6.5067    5.4670 H   0  0  0  0  0  0  0  0  0  0  0  0
    3.2941    3.9259    4.4285 C   0  0  0  0  0  0  0  0  0  0  0  0
    3.5374    4.7649    3.7806 H   0  0  0  0  0  0  0  0  0  0  0  0
    2.4174    3.4170    4.0243 H   0  0  0  0  0  0  0  0  0  0  0  0
    4.1366    3.2331    4.4357 H   0  0  0  0  0  0  0  0  0  0  0  0
  1  4  1  0  0  0  0
  1  5  1  0  0  0  0
  1  2  1  0  0  0  0
  3  1  1  0  0  0  0
  5 10  1  0  0  0  0
  6 12  1  0  0  0  0
  7 28  1  6  0  0  0
  7 19  1  0  0  0  0
  7  1  1  0  0  0  0
  8  1  1  0  0  0  0
  9 34  1  0  0  0  0
 10 11  1  0  0  0  0
 12 10  2  0  0  0  0
 12 13  1  0  0  0  0
 14 19  1  1  0  0  0
 14  6  1  0  0  0  0
 14  5  1  0  0  0  0
 15  6  1  0  0  0  0
 15 16  1  0  0  0  0
 17 15  1  0  0  0  0
 18 15  1  0  0  0  0
 19 21  1  0  0  0  0
 20 19  1  0  0  0  0
 22  7  1  0  0  0  0
 22 25  1  0  0  0  0
 23 22  1  0  0  0  0
 24 22  1  0  0  0  0
 25 27  1  0  0  0  0
 25  3  1  0  0  0  0
 26 25  1  0  0  0  0
 28 29  1  0  0  0  0
 30 28  1  0  0  0  0
 31  9  1  1  0  0  0
 31 28  1  0  0  0  0
 31  8  1  0  0  0  0
 32  8  1  0  0  0  0
 32 33  1  0  0  0  0
 34 32  2  0  0  0  0
 35 34  1  0  0  0  0
 36 39  1  0  0  0  0
 36  9  1  0  0  0  0
 37 36  1  0  0  0  0
 38 36  1  0  0  0  0
M  END
$$$$
