CSD_code = KIBPER | q = 0 | S = 0 | Stoichiometry = C21H27ClNORh | MND = 6
 OpenBabel04212202063D

 52 53  0  0  1  0  0  0  0  0999 V2000
    6.8998    2.5862    6.6030 Rh  0  0  0  0  0  0  0  0  0  0  0  0
    6.7949    3.4538    4.4813 Cl  0  0  0  0  0 15  0  0  0  0  0  0
   13.5798    2.4274    5.7040 O   0  0  0  0  0  0  0  0  0  0  0  0
    7.6685    0.2097    5.0569 N   0  0  0  0  0  0  0  0  0  0  0  0
    8.1047    1.2762    5.7546 C   0  0  0  0  0  0  0  0  0  0  0  0
    9.5142    1.5277    5.7228 C   0  0  0  0  0  0  0  0  0  0  0  0
   10.0442    2.6812    6.3380 C   0  0  0  0  0  0  0  0  0  0  0  0
    9.3541    3.3737    6.8143 H   0  0  0  0  0  0  0  0  0  0  0  0
   11.3828    2.9446    6.3052 C   0  0  0  0  0  0  0  0  0  0  0  0
   11.7971    3.8290    6.7628 H   0  0  0  0  0  0  0  0  0  0  0  0
   12.2747    2.0634    5.6577 C   0  0  0  0  0  0  0  0  0  0  0  0
   11.7837    0.9338    5.0364 C   0  0  0  0  0  0  0  0  0  0  0  0
   12.4323    0.2468    4.5148 H   0  0  0  0  0  0  0  0  0  0  0  0
   10.4092    0.6621    5.0535 C   0  0  2  0  0  3  0  0  0  0  0  0
    9.8493   -0.4638    4.3926 C   0  0  0  0  0  0  0  0  0  0  0  0
   10.4879   -1.1587    3.8705 H   0  0  0  0  0  0  0  0  0  0  0  0
    8.5081   -0.6345    4.3984 C   0  0  0  0  0  0  0  0  0  0  0  0
    8.0500   -1.4604    3.8778 H   0  0  0  0  0  0  0  0  0  0  0  0
    6.2267   -0.0301    4.9316 C   0  0  0  0  0  0  0  0  0  0  0  0
    5.7439    0.7432    5.5568 H   0  0  0  0  0  0  0  0  0  0  0  0
    5.8434   -1.4123    5.4538 C   0  0  0  0  0  0  0  0  0  0  0  0
    6.1821   -2.2051    4.7904 H   0  0  0  0  0  0  0  0  0  0  0  0
    4.7617   -1.4803    5.5308 H   0  0  0  0  0  0  0  0  0  0  0  0
    6.2697   -1.5804    6.4408 H   0  0  0  0  0  0  0  0  0  0  0  0
    5.7821    0.1959    3.4900 C   0  0  0  0  0  0  0  0  0  0  0  0
    6.0367    1.2119    3.1951 H   0  0  0  0  0  0  0  0  0  0  0  0
    4.7049    0.0746    3.4176 H   0  0  0  0  0  0  0  0  0  0  0  0
    6.2565   -0.5036    2.8051 H   0  0  0  0  0  0  0  0  0  0  0  0
   14.5303    1.6183    5.0540 C   0  0  0  0  0  0  0  0  0  0  0  0
   14.5593    0.6111    5.4821 H   0  0  0  0  0  0  0  0  0  0  0  0
   15.4911    2.1049    5.2132 H   0  0  0  0  0  0  0  0  0  0  0  0
   14.3316    1.5520    3.9797 H   0  0  0  0  0  0  0  0  0  0  0  0
    6.2346    4.4700    7.4530 C   0  0  0  0  0  3  0  0  0  0  0  0
    6.4490    5.2314    6.7027 H   0  0  0  0  0  0  0  0  0  0  0  0
    5.1234    3.6795    7.2708 C   0  0  0  0  0  3  0  0  0  0  0  0
    4.5291    3.8364    6.3710 H   0  0  0  0  0  0  0  0  0  0  0  0
    4.4114    2.9691    8.4007 C   0  0  0  0  0  0  0  0  0  0  0  0
    3.3431    2.9272    8.1777 H   0  0  0  0  0  0  0  0  0  0  0  0
    4.5261    3.5533    9.3150 H   0  0  0  0  0  0  0  0  0  0  0  0
    4.9289    1.5334    8.6146 C   0  0  0  0  0  0  0  0  0  0  0  0
    4.7855    1.2365    9.6602 H   0  0  0  0  0  0  0  0  0  0  0  0
    4.3347    0.8478    8.0039 H   0  0  0  0  0  0  0  0  0  0  0  0
    6.3834    1.3512    8.2395 C   0  0  2  0  0  0  0  0  0  0  0  0
    6.6453    0.3082    8.0564 H   0  0  0  0  0  0  0  0  0  0  0  0
    7.4188    2.2012    8.6353 C   0  0  0  0  0  3  0  0  0  0  0  0
    8.4165    1.7667    8.6861 H   0  0  0  0  0  0  0  0  0  0  0  0
    7.2117    3.3914    9.5496 C   0  0  0  0  0  0  0  0  0  0  0  0
    8.1081    3.5322   10.1574 H   0  0  0  0  0  0  0  0  0  0  0  0
    6.3914    3.1727   10.2356 H   0  0  0  0  0  0  0  0  0  0  0  0
    6.9307    4.6948    8.7758 C   0  0  0  0  0  0  0  0  0  0  0  0
    6.3261    5.3714    9.3904 H   0  0  0  0  0  0  0  0  0  0  0  0
    7.8788    5.2021    8.5790 H   0  0  0  0  0  0  0  0  0  0  0  0
  1 43  1  0  0  0  0
  4  5  1  0  0  0  0
  5  1  1  0  0  0  0
  6  5  2  0  0  0  0
  6  7  1  0  0  0  0
  7  8  1  0  0  0  0
  9  7  2  0  0  0  0
  9 10  1  0  0  0  0
 11  3  1  0  0  0  0
 11  9  1  0  0  0  0
 12 14  1  0  0  0  0
 12 11  2  0  0  0  0
 13 12  1  0  0  0  0
 14 15  1  6  0  0  0
 14  6  1  0  0  0  0
 15 17  2  0  0  0  0
 16 15  1  0  0  0  0
 17  4  1  0  0  0  0
 18 17  1  0  0  0  0
 19  4  1  0  0  0  0
 19 21  1  0  0  0  0
 19 20  1  0  0  0  0
 21 23  1  0  0  0  0
 21 24  1  0  0  0  0
 22 21  1  0  0  0  0
 25 19  1  0  0  0  0
 26 25  1  0  0  0  0
 27 25  1  0  0  0  0
 28 25  1  0  0  0  0
 29 31  1  0  0  0  0
 29 30  1  0  0  0  0
 29  3  1  0  0  0  0
 32 29  1  0  0  0  0
 33 50  1  0  0  0  0
 34 33  1  0  0  0  0
 35 33  1  0  0  0  0
 35 37  1  0  0  0  0
 36 35  1  0  0  0  0
 37 40  1  0  0  0  0
 37 39  1  0  0  0  0
 38 37  1  0  0  0  0
 40 41  1  0  0  0  0
 42 40  1  0  0  0  0
 43 44  1  6  0  0  0
 43 40  1  0  0  0  0
 43 45  1  0  0  0  0
 45 46  1  0  0  0  0
 45 47  1  0  0  0  0
 47 48  1  0  0  0  0
 47 49  1  0  0  0  0
 50 51  1  0  0  0  0
 50 47  1  0  0  0  0
 52 50  1  0  0  0  0
M  END
$$$$
