CSD_code = KIBPAN | q = 0 | S = 0 | Stoichiometry = C20H25INRh | MND = 6
 OpenBabel04212202063D

 48 49  0  0  1  0  0  0  0  0999 V2000
    3.3776    8.6520    3.7900 I   0  0  0  0  0 15  0  0  0  0  0  0
    1.4224    6.8970    3.5512 Rh  0  0  0  0  0  0  0  0  0  0  0  0
    3.3326    4.9836    4.6817 N   0  0  0  0  0  0  0  0  0  0  0  0
    2.8536    5.5530    3.5589 C   0  0  0  0  0  0  0  0  0  0  0  0
    3.4832    5.1700    2.3244 C   0  0  0  0  0  0  0  0  0  0  0  0
    3.1271    5.8096    1.1224 C   0  0  0  0  0  3  0  0  0  0  0  0
    2.3929    6.6119    1.1566 H   0  0  0  0  0  0  0  0  0  0  0  0
    3.7176    5.4552   -0.0633 C   0  0  0  0  0  0  0  0  0  0  0  0
    3.4440    5.9591   -0.9783 H   0  0  0  0  0  0  0  0  0  0  0  0
    4.6841    4.4456   -0.0949 C   0  0  0  0  0  0  0  0  0  0  0  0
    5.1388    4.1716   -1.0355 H   0  0  0  0  0  0  0  0  0  0  0  0
    5.0665    3.8168    1.0636 C   0  0  0  0  0  0  0  0  0  0  0  0
    5.8280    3.0503    1.0504 H   0  0  0  0  0  0  0  0  0  0  0  0
    4.4851    4.1733    2.2885 C   0  0  0  0  0  0  0  0  0  0  0  0
    4.8743    3.5921    3.5257 C   0  0  0  0  0  0  0  0  0  0  0  0
    5.6334    2.8267    3.5469 H   0  0  0  0  0  0  0  0  0  0  0  0
    4.3092    4.0328    4.6710 C   0  0  0  0  0  0  0  0  0  0  0  0
    4.6071    3.6401    5.6298 H   0  0  0  0  0  0  0  0  0  0  0  0
    2.8331    5.4309    5.9880 C   0  0  0  0  0  0  0  0  0  0  0  0
    2.0455    6.1777    5.7669 H   0  0  0  0  0  0  0  0  0  0  0  0
    3.9435    6.1212    6.7743 C   0  0  0  0  0  0  0  0  0  0  0  0
    4.7417    5.4293    7.0334 H   0  0  0  0  0  0  0  0  0  0  0  0
    3.5348    6.5328    7.6931 H   0  0  0  0  0  0  0  0  0  0  0  0
    4.3648    6.9372    6.1923 H   0  0  0  0  0  0  0  0  0  0  0  0
    2.2130    4.2779    6.7729 C   0  0  0  0  0  0  0  0  0  0  0  0
    1.5048    3.7271    6.1571 H   0  0  0  0  0  0  0  0  0  0  0  0
    1.6827    4.6738    7.6349 H   0  0  0  0  0  0  0  0  0  0  0  0
    2.9687    3.5835    7.1336 H   0  0  0  0  0  0  0  0  0  0  0  0
    0.0749    5.5835    2.5517 C   0  0  1  0  0  0  0  0  0  0  0  0
    0.6138    4.7555    2.0876 H   0  0  0  0  0  0  0  0  0  0  0  0
   -0.1606    5.5003    3.9258 C   0  0  0  0  0  3  0  0  0  0  0  0
    0.2264    4.6152    4.4310 H   0  0  0  0  0  0  0  0  0  0  0  0
   -1.3692    6.1162    4.6010 C   0  0  0  0  0  0  0  0  0  0  0  0
   -1.6548    5.4953    5.4536 H   0  0  0  0  0  0  0  0  0  0  0  0
   -2.2083    6.1046    3.9028 H   0  0  0  0  0  0  0  0  0  0  0  0
   -1.1062    7.5497    5.1011 C   0  0  0  0  0  0  0  0  0  0  0  0
   -2.0424    8.1190    5.1159 H   0  0  0  0  0  0  0  0  0  0  0  0
   -0.7434    7.5056    6.1322 H   0  0  0  0  0  0  0  0  0  0  0  0
   -0.0857    8.2990    4.2755 C   0  0  0  0  0  3  0  0  0  0  0  0
    0.4410    9.0725    4.8353 H   0  0  0  0  0  0  0  0  0  0  0  0
   -0.0854    8.3761    2.9022 C   0  0  0  0  0  3  0  0  0  0  0  0
    0.4758    9.1852    2.4344 H   0  0  0  0  0  0  0  0  0  0  0  0
   -1.1568    7.7604    2.0317 C   0  0  0  0  0  0  0  0  0  0  0  0
   -1.3017    8.3884    1.1498 H   0  0  0  0  0  0  0  0  0  0  0  0
   -2.1007    7.7545    2.5799 H   0  0  0  0  0  0  0  0  0  0  0  0
   -0.7944    6.3358    1.5712 C   0  0  0  0  0  0  0  0  0  0  0  0
   -1.7079    5.7577    1.3876 H   0  0  0  0  0  0  0  0  0  0  0  0
   -0.2587    6.3930    0.6193 H   0  0  0  0  0  0  0  0  0  0  0  0
  2  4  1  0  0  0  0
  3 19  1  0  0  0  0
  4  3  1  0  0  0  0
  5  4  2  0  0  0  0
  6  7  1  0  0  0  0
  6  5  1  0  0  0  0
  8  6  1  0  0  0  0
  9  8  1  0  0  0  0
 10  8  2  0  0  0  0
 10 12  1  0  0  0  0
 11 10  1  0  0  0  0
 12 14  2  0  0  0  0
 13 12  1  0  0  0  0
 14  5  1  0  0  0  0
 14 15  1  0  0  0  0
 15 16  1  0  0  0  0
 15 17  2  0  0  0  0
 17  3  1  0  0  0  0
 17 18  1  0  0  0  0
 19 25  1  0  0  0  0
 19 21  1  0  0  0  0
 20 19  1  0  0  0  0
 21 22  1  0  0  0  0
 21 23  1  0  0  0  0
 24 21  1  0  0  0  0
 25 28  1  0  0  0  0
 25 27  1  0  0  0  0
 26 25  1  0  0  0  0
 29 30  1  6  0  0  0
 29  2  1  0  0  0  0
 29 31  1  0  0  0  0
 31 32  1  0  0  0  0
 31 33  1  0  0  0  0
 33 36  1  0  0  0  0
 33 34  1  0  0  0  0
 35 33  1  0  0  0  0
 36 37  1  0  0  0  0
 36 38  1  0  0  0  0
 39 40  1  0  0  0  0
 39 36  1  0  0  0  0
 41 39  1  0  0  0  0
 42 41  1  0  0  0  0
 43 45  1  0  0  0  0
 43 41  1  0  0  0  0
 44 43  1  0  0  0  0
 46 43  1  0  0  0  0
 46 29  1  0  0  0  0
 47 46  1  0  0  0  0
 48 46  1  0  0  0  0
M  END
$$$$
