CSD_code = KIBWEX | q = 0 | S = 0 | Stoichiometry = C20H27BClMoN7O | MND = 6
 OpenBabel04212202063D

 58 63  0  0  1  0  0  0  0  0999 V2000
    3.2353    4.4889   16.9459 Mo  0  0  0  0  0  0  0  0  0  0  0  0
    4.8438    5.2143   15.2768 Cl  0  0  0  0  0  0  0  0  0  0  0  0
    3.6613    5.6302   18.0331 O   0  0  0  0  0  1  0  0  0  0  0  0
    1.7203    5.5384   16.1440 N   0  0  0  0  0  0  0  0  0  0  0  0
    4.5544    2.9795   17.5654 N   0  0  2  0  0  0  0  0  0  0  0  0
    4.1708    1.7009   17.7451 N   0  0  0  0  0  0  0  0  0  0  0  0
    1.8201    3.4584   18.0932 N   0  0  1  0  0  0  0  0  0  0  0  0
    1.7650    2.1137   18.1423 N   0  0  0  0  0  0  0  0  0  0  0  0
    2.6848    2.9761   15.4672 N   0  0  2  0  0  0  0  0  0  0  0  0
    2.5952    1.6812   15.8514 N   0  0  0  0  0  0  0  0  0  0  0  0
    1.8239    6.8929   16.1522 C   0  0  0  0  0  3  0  0  0  0  0  0
    0.7879    7.7437   15.8505 C   0  0  0  0  0  0  0  0  0  0  0  0
   -0.4505    7.2295   15.4726 C   0  0  0  0  0  0  0  0  0  0  0  0
   -0.5651    5.8446   15.4225 C   0  0  0  0  0  0  0  0  0  0  0  0
    0.5121    5.0565   15.7554 C   0  0  0  0  0  0  0  0  0  0  0  0
    5.7964    3.1066   18.0319 C   0  0  2  0  0  3  0  0  0  0  0  0
    6.2242    1.8667   18.5169 C   0  0  0  0  0  0  0  0  0  0  0  0
    5.1701    0.9967   18.3137 C   0  0  0  0  0  0  0  0  0  0  0  0
    6.5285    4.3971   18.0217 C   0  0  0  0  0  0  0  0  0  0  0  0
    5.0798   -0.4523   18.6317 C   0  0  0  0  0  0  0  0  0  0  0  0
    0.9383    3.9395   18.9713 C   0  0  1  0  0  3  0  0  0  0  0  0
    0.2906    2.8686   19.5926 C   0  0  0  0  0  0  0  0  0  0  0  0
    0.8371    1.7250   19.0397 C   0  0  0  0  0  0  0  0  0  0  0  0
    0.7657    5.3948   19.2183 C   0  0  0  0  0  0  0  0  0  0  0  0
    0.5092    0.3047   19.3273 C   0  0  0  0  0  0  0  0  0  0  0  0
    2.4910    3.0082   14.1412 C   0  0  1  0  0  3  0  0  0  0  0  0
    2.2851    1.7085   13.6763 C   0  0  0  0  0  0  0  0  0  0  0  0
    2.3613    0.8924   14.7893 C   0  0  0  0  0  0  0  0  0  0  0  0
    2.4721    4.2341   13.3009 C   0  0  0  0  0  0  0  0  0  0  0  0
    2.2215   -0.5850   14.8619 C   0  0  0  0  0  0  0  0  0  0  0  0
    2.7623    1.2799   17.3224 B   0  0  1  0  0  0  0  0  0  0  0  0
    2.5845    0.1266   17.4801 H   0  0  0  0  0  0  0  0  0  0  0  0
    7.1757    1.6395   18.9525 H   0  0  0  0  0  0  0  0  0  0  0  0
   -0.4710    2.9235   20.3433 H   0  0  0  0  0  0  0  0  0  0  0  0
    2.1094    1.4085   12.6634 H   0  0  0  0  0  0  0  0  0  0  0  0
    7.3715    4.3570   18.7068 H   0  0  0  0  0  0  0  0  0  0  0  0
    6.8949    4.6175   17.0184 H   0  0  0  0  0  0  0  0  0  0  0  0
    5.8517    5.2039   18.3133 H   0  0  0  0  0  0  0  0  0  0  0  0
    6.0135   -0.7841   19.0769 H   0  0  0  0  0  0  0  0  0  0  0  0
    4.2680   -0.6430   19.3318 H   0  0  0  0  0  0  0  0  0  0  0  0
    4.8927   -1.0342   17.7309 H   0  0  0  0  0  0  0  0  0  0  0  0
    0.4051    5.5568   20.2314 H   0  0  0  0  0  0  0  0  0  0  0  0
    1.7252    5.8996   19.0879 H   0  0  0  0  0  0  0  0  0  0  0  0
    0.0453    5.8289   18.5241 H   0  0  0  0  0  0  0  0  0  0  0  0
   -0.2915    0.2588   20.0601 H   0  0  0  0  0  0  0  0  0  0  0  0
    0.1903   -0.2093   18.4223 H   0  0  0  0  0  0  0  0  0  0  0  0
    1.3785   -0.2177   19.7229 H   0  0  0  0  0  0  0  0  0  0  0  0
    2.4977    3.9460   12.2527 H   0  0  0  0  0  0  0  0  0  0  0  0
    1.5675    4.8175   13.4774 H   0  0  0  0  0  0  0  0  0  0  0  0
    3.3354    4.8621   13.5215 H   0  0  0  0  0  0  0  0  0  0  0  0
    2.0345   -0.9787   13.8666 H   0  0  0  0  0  0  0  0  0  0  0  0
    3.1306   -1.0368   15.2542 H   0  0  0  0  0  0  0  0  0  0  0  0
    1.3958   -0.8652   15.5136 H   0  0  0  0  0  0  0  0  0  0  0  0
    2.8050    7.2806   16.4045 H   0  0  0  0  0  0  0  0  0  0  0  0
    0.9510    8.8094   15.8899 H   0  0  0  0  0  0  0  0  0  0  0  0
   -1.2762    7.8729   15.2176 H   0  0  0  0  0  0  0  0  0  0  0  0
   -1.4924    5.3763   15.1281 H   0  0  0  0  0  0  0  0  0  0  0  0
    0.4088    3.9766   15.7440 H   0  0  0  0  0  0  0  0  0  0  0  0
  1  5  1  0  0  0  0
  1  3  1  0  0  0  0
  1  7  1  0  0  0  0
  2  1  1  0  0  0  0
  4 11  1  0  0  0  0
  4  1  1  0  0  0  0
  5  6  1  1  0  0  0
  5 16  1  0  0  0  0
  6 18  1  0  0  0  0
  7  8  1  1  0  0  0
  7 21  1  0  0  0  0
  8 23  1  0  0  0  0
  9 10  1  6  0  0  0
  9  1  1  0  0  0  0
 10 31  1  0  0  0  0
 11 54  1  0  0  0  0
 12 55  1  0  0  0  0
 12 11  1  0  0  0  0
 13 12  2  0  0  0  0
 14 13  1  0  0  0  0
 14 15  2  0  0  0  0
 15  4  1  0  0  0  0
 16 19  1  1  0  0  0
 16 17  1  0  0  0  0
 17 33  1  0  0  0  0
 18 17  2  0  0  0  0
 18 20  1  0  0  0  0
 19 38  1  0  0  0  0
 19 36  1  0  0  0  0
 20 39  1  0  0  0  0
 20 40  1  0  0  0  0
 21 24  1  1  0  0  0
 21 22  1  0  0  0  0
 22 34  1  0  0  0  0
 23 25  1  0  0  0  0
 23 22  2  0  0  0  0
 24 42  1  0  0  0  0
 25 47  1  0  0  0  0
 25 45  1  0  0  0  0
 26 29  1  1  0  0  0
 26  9  1  0  0  0  0
 27 26  1  0  0  0  0
 27 28  2  0  0  0  0
 28 30  1  0  0  0  0
 28 10  1  0  0  0  0
 29 49  1  0  0  0  0
 29 50  1  0  0  0  0
 30 52  1  0  0  0  0
 30 53  1  0  0  0  0
 31 32  1  1  0  0  0
 31  6  1  0  0  0  0
 31  8  1  0  0  0  0
 35 27  1  0  0  0  0
 37 19  1  0  0  0  0
 41 20  1  0  0  0  0
 43 24  1  0  0  0  0
 44 24  1  0  0  0  0
 46 25  1  0  0  0  0
 48 29  1  0  0  0  0
 51 30  1  0  0  0  0
 56 13  1  0  0  0  0
 57 14  1  0  0  0  0
 58 15  1  0  0  0  0
M  END
$$$$
