CSD_code = KIBXIE | q = 0 | S = 0 | Stoichiometry = C24H15ClN2Pd | MND = 4
 OpenBabel04212202063D

 43 49  0  0  0  0  0  0  0  0999 V2000
    5.0025    1.3748    3.9430 Pd  0  0  2  0  0  0  0  0  0  0  0  0
    5.3309    3.5314    4.2825 Cl  0  0  0  0  0  0  0  0  0  0  0  0
    6.8089    0.3324    4.9578 N   0  0  0  0  0  0  0  0  0  0  0  0
    4.8882   -0.4453    3.2829 N   0  0  0  0  0  0  0  0  0  0  0  0
    6.6318    4.1672    8.1001 C   0  0  0  0  0  0  0  0  0  0  0  0
    7.9635    3.9384    7.7936 C   0  0  0  0  0  0  0  0  0  0  0  0
    5.6588    3.2787    7.6737 C   0  0  0  0  0  0  0  0  0  0  0  0
    8.3274    2.8203    7.0681 C   0  0  0  0  0  0  0  0  0  0  0  0
    6.0123    2.1655    6.9349 C   0  0  0  0  0  0  0  0  0  0  0  0
    7.3555    1.9241    6.6297 C   0  0  0  0  0  0  0  0  0  0  0  0
    7.6962    0.7238    5.8604 C   0  0  0  0  0  0  0  0  0  0  0  0
    8.8619   -0.0310    6.1078 C   0  0  0  0  0  0  0  0  0  0  0  0
    9.0653   -1.2144    5.4448 C   0  0  0  0  0  0  0  0  0  0  0  0
    6.9718   -0.8493    4.3324 C   0  0  0  0  0  0  0  0  0  0  0  0
    8.0924   -1.6808    4.5418 C   0  0  0  0  0  0  0  0  0  0  0  0
    8.1637   -2.9217    3.8508 C   0  0  0  0  0  0  0  0  0  0  0  0
    7.1720   -3.3219    3.0121 C   0  0  0  0  0  0  0  0  0  0  0  0
    6.0237   -2.5144    2.7849 C   0  0  0  0  0  0  0  0  0  0  0  0
    5.9319   -1.2731    3.4466 C   0  0  0  0  0  0  0  0  0  0  0  0
    4.9580   -2.8594    1.9315 C   0  0  0  0  0  0  0  0  0  0  0  0
    3.9146   -1.9824    1.7526 C   0  0  0  0  0  0  0  0  0  0  0  0
    3.8982   -0.7518    2.4306 C   0  0  0  0  0  0  0  0  0  0  0  0
    2.9222    0.3193    2.3009 C   0  0  0  0  0  0  0  0  0  0  0  0
    3.2694    1.5285    2.9592 C   0  0  0  0  0  0  0  0  0  0  0  0
    1.7268    0.2236    1.5878 C   0  0  0  0  0  0  0  0  0  0  0  0
    2.3953    2.6039    2.8747 C   0  0  0  0  0  0  0  0  0  0  0  0
    0.8755    1.3083    1.5224 C   0  0  0  0  0  0  0  0  0  0  0  0
    1.2083    2.4926    2.1637 C   0  0  0  0  0  0  0  0  0  0  0  0
    6.3520    5.0431    8.6659 H   0  0  0  0  0  0  0  0  0  0  0  0
    8.7205    4.6387    8.1149 H   0  0  0  0  0  0  0  0  0  0  0  0
    4.6202    3.4606    7.9036 H   0  0  0  0  0  0  0  0  0  0  0  0
    9.3639    2.6609    6.8079 H   0  0  0  0  0  0  0  0  0  0  0  0
    5.2413    1.4590    6.6105 H   0  0  0  0  0  0  0  0  0  0  0  0
    9.5729    0.3202    6.8390 H   0  0  0  0  0  0  0  0  0  0  0  0
    9.9512   -1.8064    5.6255 H   0  0  0  0  0  0  0  0  0  0  0  0
    9.0298   -3.5463    4.0148 H   0  0  0  0  0  0  0  0  0  0  0  0
    7.2381   -4.2685    2.4960 H   0  0  0  0  0  0  0  0  0  0  0  0
    4.9784   -3.8063    1.4125 H   0  0  0  0  0  0  0  0  0  0  0  0
    3.1077   -2.2279    1.0806 H   0  0  0  0  0  0  0  0  0  0  0  0
    1.4626   -0.6990    1.0910 H   0  0  0  0  0  0  0  0  0  0  0  0
    2.6435    3.5391    3.3598 H   0  0  0  0  0  0  0  0  0  0  0  0
   -0.0504    1.2339    0.9707 H   0  0  0  0  0  0  0  0  0  0  0  0
    0.5381    3.3384    2.1076 H   0  0  0  0  0  0  0  0  0  0  0  0
  1  2  1  6  0  0  0
  1  3  1  0  0  0  0
  3 11  1  0  0  0  0
  4 19  1  0  0  0  0
  4  1  1  0  0  0  0
  5 29  1  0  0  0  0
  6  5  1  0  0  0  0
  6 30  1  0  0  0  0
  7 31  1  0  0  0  0
  7  5  2  0  0  0  0
  8  6  2  0  0  0  0
  9  7  1  0  0  0  0
 10  9  2  0  0  0  0
 10  8  1  0  0  0  0
 11 12  2  0  0  0  0
 11 10  1  0  0  0  0
 12 34  1  0  0  0  0
 13 35  1  0  0  0  0
 13 12  1  0  0  0  0
 14 15  1  0  0  0  0
 14  3  1  0  0  0  0
 15 13  2  0  0  0  0
 16 36  1  0  0  0  0
 16 15  1  0  0  0  0
 17 16  2  0  0  0  0
 18 17  1  0  0  0  0
 18 19  1  0  0  0  0
 19 14  2  0  0  0  0
 20 18  2  0  0  0  0
 21 20  1  0  0  0  0
 21 22  2  0  0  0  0
 22  4  1  0  0  0  0
 23 22  1  0  0  0  0
 23 24  1  0  0  0  0
 24  1  1  0  0  0  0
 25 23  2  0  0  0  0
 26 24  2  0  0  0  0
 26 41  1  0  0  0  0
 27 25  1  0  0  0  0
 27 28  2  0  0  0  0
 28 26  1  0  0  0  0
 32  8  1  0  0  0  0
 33  9  1  0  0  0  0
 37 17  1  0  0  0  0
 38 20  1  0  0  0  0
 39 21  1  0  0  0  0
 40 25  1  0  0  0  0
 42 27  1  0  0  0  0
 43 28  1  0  0  0  0
M  END
$$$$
