CSD_code = KICDUW | q = 0 | S = 0 | Stoichiometry = C30H31ClNNiPS2 | MND = 4
 OpenBabel04212202063D

 67 71  0  0  1  0  0  0  0  0999 V2000
   10.4093    7.8576    1.5248 Ni  0  0  1  0  0  0  0  0  0  0  0  0
    9.7663    8.5493    3.3701 Cl  0  0  0  0  0  0  0  0  0  0  0  0
   10.9590    7.2924   -0.5460 S   0  0  0  0  0  0  0  0  0  0  0  0
   11.1811    9.8198    0.7492 S   0  0  0  0  0  0  0  0  0  0  0  0
   11.0758    8.9855   -0.7257 C   0  0  1  0  0  3  0  0  0  0  0  0
   11.0863    9.5881   -1.9123 N   0  0  0  0  0  0  0  0  0  0  0  0
   10.9646    8.8433   -3.1472 C   0  0  0  0  0  0  0  0  0  0  0  0
    9.5504    8.9044   -3.7330 C   0  0  0  0  0  0  0  0  0  0  0  0
    8.4984    8.3037   -2.8029 C   0  0  0  0  0  0  0  0  0  0  0  0
    7.1112    8.3432   -3.4305 C   0  0  0  0  0  0  0  0  0  0  0  0
   11.2601   11.0247   -2.0326 C   0  0  0  0  0  0  0  0  0  0  0  0
   12.6539   11.3513   -2.5046 C   0  0  0  0  0  0  0  0  0  0  0  0
   12.8771   11.8564   -3.7780 C   0  0  0  0  0  0  0  0  0  0  0  0
   14.1653   12.1234   -4.2095 C   0  0  0  0  0  0  0  0  0  0  0  0
   15.2408   11.8796   -3.3736 C   0  0  0  0  0  0  0  0  0  0  0  0
   15.0252   11.3714   -2.1031 C   0  0  0  0  0  0  0  0  0  0  0  0
   13.7387   11.1085   -1.6704 C   0  0  0  0  0  0  0  0  0  0  0  0
    9.8239    5.9490    2.3364 P   0  0  0  0  0  4  0  0  0  0  0  0
   11.2016    5.4712    3.4225 C   0  0  0  0  0  0  0  0  0  0  0  0
   12.3062    6.3136    3.4853 C   0  0  0  0  0  0  0  0  0  0  0  0
   13.4026    5.9667    4.2527 C   0  0  0  0  0  0  0  0  0  0  0  0
   13.3985    4.7728    4.9556 C   0  0  0  0  0  0  0  0  0  0  0  0
   12.3075    3.9205    4.8791 C   0  0  0  0  0  0  0  0  0  0  0  0
   11.2117    4.2604    4.1073 C   0  0  0  0  0  0  0  0  0  0  0  0
    8.2988    5.8694    3.3136 C   0  0  0  0  0  0  0  0  0  0  0  0
    8.2763    5.6616    4.6856 C   0  0  0  0  0  0  0  0  0  0  0  0
    7.0666    5.6604    5.3582 C   0  0  0  0  0  0  0  0  0  0  0  0
    5.8832    5.8761    4.6723 C   0  0  0  0  0  0  0  0  0  0  0  0
    5.9050    6.1082    3.3060 C   0  0  0  0  0  0  0  0  0  0  0  0
    7.1093    6.1103    2.6294 C   0  0  0  0  0  0  0  0  0  0  0  0
    9.7499    4.4345    1.3088 C   0  0  0  0  0  0  0  0  0  0  0  0
    8.6569    3.5791    1.2543 C   0  0  0  0  0  0  0  0  0  0  0  0
    8.7037    2.4494    0.4550 C   0  0  0  0  0  0  0  0  0  0  0  0
    9.8333    2.1682   -0.2941 C   0  0  0  0  0  0  0  0  0  0  0  0
   10.9269    3.0186   -0.2419 C   0  0  0  0  0  0  0  0  0  0  0  0
   10.8846    4.1458    0.5543 C   0  0  0  0  0  0  0  0  0  0  0  0
   11.2313    7.8027   -2.9461 H   0  0  0  0  0  0  0  0  0  0  0  0
   11.6845    9.2568   -3.8603 H   0  0  0  0  0  0  0  0  0  0  0  0
    9.5561    8.3563   -4.6772 H   0  0  0  0  0  0  0  0  0  0  0  0
    9.2858    9.9410   -3.9553 H   0  0  0  0  0  0  0  0  0  0  0  0
    8.7673    7.2705   -2.5737 H   0  0  0  0  0  0  0  0  0  0  0  0
    8.4809    8.8595   -1.8627 H   0  0  0  0  0  0  0  0  0  0  0  0
    7.0960    7.7765   -4.3591 H   0  0  0  0  0  0  0  0  0  0  0  0
    6.3757    7.9144   -2.7546 H   0  0  0  0  0  0  0  0  0  0  0  0
    6.8182    9.3681   -3.6497 H   0  0  0  0  0  0  0  0  0  0  0  0
   10.5182   11.4093   -2.7374 H   0  0  0  0  0  0  0  0  0  0  0  0
   11.0800   11.4706   -1.0505 H   0  0  0  0  0  0  0  0  0  0  0  0
   12.0396   12.0499   -4.4342 H   0  0  0  0  0  0  0  0  0  0  0  0
   14.3279   12.5203   -5.2009 H   0  0  0  0  0  0  0  0  0  0  0  0
   16.2456   12.0868   -3.7106 H   0  0  0  0  0  0  0  0  0  0  0  0
   15.8615   11.1820   -1.4469 H   0  0  0  0  0  0  0  0  0  0  0  0
   13.5686   10.7170   -0.6785 H   0  0  0  0  0  0  0  0  0  0  0  0
   12.2882    7.2538    2.9238 H   0  0  0  0  0  0  0  0  0  0  0  0
   14.2580    6.6235    4.3042 H   0  0  0  0  0  0  0  0  0  0  0  0
   14.2509    4.5010    5.5606 H   0  0  0  0  0  0  0  0  0  0  0  0
   12.3144    2.9856    5.4203 H   0  0  0  0  0  0  0  0  0  0  0  0
   10.3656    3.5914    4.0288 H   0  0  0  0  0  0  0  0  0  0  0  0
    9.2002    5.5204    5.2264 H   0  0  0  0  0  0  0  0  0  0  0  0
    7.0493    5.4995    6.4262 H   0  0  0  0  0  0  0  0  0  0  0  0
    4.9432    5.8779    5.2041 H   0  0  0  0  0  0  0  0  0  0  0  0
    4.9842    6.2954    2.7729 H   0  0  0  0  0  0  0  0  0  0  0  0
    7.1451    6.3111    1.5650 H   0  0  0  0  0  0  0  0  0  0  0  0
    7.7724    3.7886    1.8386 H   0  0  0  0  0  0  0  0  0  0  0  0
    7.8517    1.7859    0.4184 H   0  0  0  0  0  0  0  0  0  0  0  0
    9.8619    1.2876   -0.9189 H   0  0  0  0  0  0  0  0  0  0  0  0
   11.8103    2.8022   -0.8244 H   0  0  0  0  0  0  0  0  0  0  0  0
   11.7327    4.8169    0.6003 H   0  0  0  0  0  0  0  0  0  0  0  0
  1 18  1  0  0  0  0
  1  2  1  6  0  0  0
  3  1  1  0  0  0  0
  4  1  1  0  0  0  0
  5  6  1  6  0  0  0
  5  3  1  0  0  0  0
  5  4  1  0  0  0  0
  7 37  1  0  0  0  0
  7  6  1  0  0  0  0
  8  7  1  0  0  0  0
  8  9  1  0  0  0  0
  9 41  1  0  0  0  0
  9 42  1  0  0  0  0
 10  9  1  0  0  0  0
 10 44  1  0  0  0  0
 11  6  1  0  0  0  0
 11 47  1  0  0  0  0
 12 11  1  0  0  0  0
 12 17  1  0  0  0  0
 13 12  2  0  0  0  0
 14 13  1  0  0  0  0
 14 15  2  0  0  0  0
 15 16  1  0  0  0  0
 16 17  2  0  0  0  0
 16 51  1  0  0  0  0
 17 52  1  0  0  0  0
 18 25  1  0  0  0  0
 18 19  1  0  0  0  0
 19 20  2  0  0  0  0
 19 24  1  0  0  0  0
 20 21  1  0  0  0  0
 21 54  1  0  0  0  0
 21 22  2  0  0  0  0
 22 55  1  0  0  0  0
 23 22  1  0  0  0  0
 23 56  1  0  0  0  0
 24 23  2  0  0  0  0
 25 26  1  0  0  0  0
 26 58  1  0  0  0  0
 26 27  2  0  0  0  0
 27 59  1  0  0  0  0
 28 60  1  0  0  0  0
 28 27  1  0  0  0  0
 29 28  2  0  0  0  0
 30 29  1  0  0  0  0
 30 25  2  0  0  0  0
 31 18  1  0  0  0  0
 32 31  1  0  0  0  0
 32 63  1  0  0  0  0
 33 32  2  0  0  0  0
 34 35  2  0  0  0  0
 34 33  1  0  0  0  0
 35 36  1  0  0  0  0
 36 67  1  0  0  0  0
 36 31  2  0  0  0  0
 38  7  1  0  0  0  0
 39  8  1  0  0  0  0
 40  8  1  0  0  0  0
 43 10  1  0  0  0  0
 45 10  1  0  0  0  0
 46 11  1  0  0  0  0
 48 13  1  0  0  0  0
 49 14  1  0  0  0  0
 50 15  1  0  0  0  0
 53 20  1  0  0  0  0
 57 24  1  0  0  0  0
 61 29  1  0  0  0  0
 62 30  1  0  0  0  0
 64 33  1  0  0  0  0
 65 34  1  0  0  0  0
 66 35  1  0  0  0  0
M  END
$$$$
