CSD_code = KICFEI | q = 0 | S = 0 | Stoichiometry = C8H16Cl2N4S2Zn | MND = 4
 OpenBabel04212202063D

 33 34  0  0  1  0  0  0  0  0999 V2000
    3.0137    4.8822    3.0636 Zn  0  0  0  0  0  0  0  0  0  0  0  0
    0.9810    4.4607    2.1571 Cl  0  0  0  0  0  0  0  0  0  0  0  0
    3.6785    3.4755    4.7098 Cl  0  0  0  0  0  0  0  0  0  0  0  0
    4.6715    5.0330    1.1193 S   0  0  0  0  0  0  0  0  0  0  0  0
    3.2972    7.2525    3.9739 S   0  0  0  0  0  0  0  0  0  0  0  0
    2.4090    5.6531   -0.2085 N   0  0  0  0  0  0  0  0  0  0  0  0
    4.2498    5.7780   -1.3975 N   0  0  0  0  0  0  0  0  0  0  0  0
    5.1757    5.9846    5.4336 N   0  0  0  0  0  0  0  0  0  0  0  0
    5.1202    8.1653    5.6801 N   0  0  0  0  0  0  0  0  0  0  0  0
    3.7279    5.4992   -0.1936 C   0  0  1  0  0  3  0  0  0  0  0  0
    1.9223    5.9854   -1.5316 C   0  0  0  0  0  0  0  0  0  0  0  0
    1.3132    6.8915   -1.4905 H   0  0  0  0  0  0  0  0  0  0  0  0
    1.3063    5.1713   -1.9254 H   0  0  0  0  0  0  0  0  0  0  0  0
    3.2194    6.1785   -2.3366 C   0  0  0  0  0  0  0  0  0  0  0  0
    3.2587    5.5507   -3.2320 H   0  0  0  0  0  0  0  0  0  0  0  0
    3.3699    7.2214   -2.6385 H   0  0  0  0  0  0  0  0  0  0  0  0
    5.6379    5.8281   -1.7429 C   0  0  0  0  0  0  0  0  0  0  0  0
    6.2178    5.4992   -0.8834 H   0  0  0  0  0  0  0  0  0  0  0  0
    5.9306    6.8472   -2.0098 H   0  0  0  0  0  0  0  0  0  0  0  0
    5.8386    5.1685   -2.5899 H   0  0  0  0  0  0  0  0  0  0  0  0
    4.5714    7.1080    5.0636 C   0  0  1  0  0  3  0  0  0  0  0  0
    6.1768    6.2250    6.4524 C   0  0  0  0  0  0  0  0  0  0  0  0
    7.1337    5.7955    6.1466 H   0  0  0  0  0  0  0  0  0  0  0  0
    5.8756    5.7631    7.3975 H   0  0  0  0  0  0  0  0  0  0  0  0
    6.2164    7.7608    6.5398 C   0  0  0  0  0  0  0  0  0  0  0  0
    6.0562    8.1308    7.5569 H   0  0  0  0  0  0  0  0  0  0  0  0
    7.1603    8.1739    6.1657 H   0  0  0  0  0  0  0  0  0  0  0  0
    4.8176    9.5458    5.4530 C   0  0  0  0  0  0  0  0  0  0  0  0
    3.9741    9.6045    4.7687 H   0  0  0  0  0  0  0  0  0  0  0  0
    5.6770   10.0606    5.0149 H   0  0  0  0  0  0  0  0  0  0  0  0
    4.5552   10.0324    6.3948 H   0  0  0  0  0  0  0  0  0  0  0  0
    1.7881    5.3098    0.5402 H   0  0  0  0  0  0  0  0  0  0  0  0
    4.7906    5.0462    5.2471 H   0  0  0  0  0  0  0  0  0  0  0  0
  1  5  1  0  0  0  0
  1  3  1  0  0  0  0
  2  1  1  0  0  0  0
  4  1  1  0  0  0  0
  6 10  1  0  0  0  0
  6 32  1  0  0  0  0
  7 10  1  0  0  0  0
  8 22  1  0  0  0  0
  9 25  1  0  0  0  0
 10  4  1  1  0  0  0
 11 12  1  0  0  0  0
 11  6  1  0  0  0  0
 13 11  1  0  0  0  0
 14 11  1  0  0  0  0
 14  7  1  0  0  0  0
 15 14  1  0  0  0  0
 16 14  1  0  0  0  0
 17  7  1  0  0  0  0
 17 18  1  0  0  0  0
 19 17  1  0  0  0  0
 20 17  1  0  0  0  0
 21  5  1  6  0  0  0
 21  8  1  0  0  0  0
 21  9  1  0  0  0  0
 22 25  1  0  0  0  0
 22 24  1  0  0  0  0
 23 22  1  0  0  0  0
 25 26  1  0  0  0  0
 27 25  1  0  0  0  0
 28  9  1  0  0  0  0
 28 31  1  0  0  0  0
 29 28  1  0  0  0  0
 30 28  1  0  0  0  0
 33  8  1  0  0  0  0
M  END
$$$$
