CSD_code = KICSUM | q = 0 | S = 0 | Stoichiometry = C11H11BrCl2N2PdSe | MND = 4
 OpenBabel04212202063D

 29 30  0  0  0  0  0  0  0  0999 V2000
    8.6634    0.8782    3.1604 Br  0  0  0  0  0  0  0  0  0  0  0  0
    1.0313    2.2626    5.8127 C   0  0  0  0  0  0  0  0  0  0  0  0
    1.7612    2.8801    5.2656 H   0  0  0  0  0  0  0  0  0  0  0  0
   -0.2917    2.2407    5.4040 C   0  0  0  0  0  0  0  0  0  0  0  0
   -0.5896    2.8107    4.5371 H   0  0  0  0  0  0  0  0  0  0  0  0
   -1.2292    1.5021    6.1078 C   0  0  0  0  0  0  0  0  0  0  0  0
   -2.2600    1.4965    5.7878 H   0  0  0  0  0  0  0  0  0  0  0  0
   -0.8484    0.7822    7.2282 C   0  0  0  0  0  0  0  0  0  0  0  0
   -1.5800    0.2152    7.7837 H   0  0  0  0  0  0  0  0  0  0  0  0
    0.4707    0.7984    7.6461 C   0  0  0  0  0  0  0  0  0  0  0  0
    0.7763    0.2512    8.5271 H   0  0  0  0  0  0  0  0  0  0  0  0
    1.4092    1.5347    6.9357 C   0  0  0  0  0  0  0  0  0  0  0  0
    3.6767   -0.2266    6.6456 C   0  0  0  0  0  0  0  0  0  0  0  0
    4.6321   -0.5754    7.0430 H   0  0  0  0  0  0  0  0  0  0  0  0
    2.8996   -0.9471    6.9020 H   0  0  0  0  0  0  0  0  0  0  0  0
    3.7503   -0.0582    5.1264 C   0  0  0  0  0  0  0  0  0  0  0  0
    3.7128   -1.0356    4.6375 H   0  0  0  0  0  0  0  0  0  0  0  0
    2.8965    0.5421    4.7766 H   0  0  0  0  0  0  0  0  0  0  0  0
    6.0544    0.0283    4.1526 C   0  0  0  0  0  3  0  0  0  0  0  0
    6.1279   -1.0210    3.9530 H   0  0  0  0  0  0  0  0  0  0  0  0
    6.9560    1.0472    3.9217 C   0  0  0  0  0  0  0  0  0  0  0  0
    6.3329    2.2185    4.3713 C   0  0  0  0  0  0  0  0  0  0  0  0
    6.6827    3.2356    4.3539 H   0  0  0  0  0  0  0  0  0  0  0  0
    2.9730    4.3918    7.5655 Cl  0  0  0  0  0  0  0  0  0  0  0  0
    4.3943    4.8891    4.6601 Cl  0  0  0  0  0  0  0  0  0  0  0  0
    4.9647    0.5948    4.7065 N   0  0  0  0  0  0  0  0  0  0  0  0
    5.1322    1.9123    4.8355 N   0  0  0  0  0  0  0  0  0  0  0  0
    4.0223    3.1472    6.0320 Pd  0  0  0  0  0  0  0  0  0  0  0  0
    3.2462    1.5146    7.5607 Se  0  0  0  0  0  0  0  0  0  0  0  0
  1 21  1  0  0  0  0
  2 12  1  0  0  0  0
  3  2  1  0  0  0  0
  4  2  2  0  0  0  0
  4  6  1  0  0  0  0
  5  4  1  0  0  0  0
  6  8  2  0  0  0  0
  7  6  1  0  0  0  0
  8 10  1  0  0  0  0
  8  9  1  0  0  0  0
 10 11  1  0  0  0  0
 12 29  1  0  0  0  0
 12 10  2  0  0  0  0
 13 15  1  0  0  0  0
 13 14  1  0  0  0  0
 13 29  1  0  0  0  0
 16 13  1  0  0  0  0
 17 16  1  0  0  0  0
 18 16  1  0  0  0  0
 19 26  1  0  0  0  0
 20 19  1  0  0  0  0
 21 19  1  0  0  0  0
 21 22  2  0  0  0  0
 22 27  1  0  0  0  0
 23 22  1  0  0  0  0
 25 28  1  0  0  0  0
 26 27  1  0  0  0  0
 26 16  1  0  0  0  0
 27 28  1  0  0  0  0
 28 24  1  0  0  0  0
M  END
$$$$
