CSD_code = KICTAT | q = 0 | S = 0 | Stoichiometry = C11H11BrCl2N2PdS | MND = 4
 OpenBabel04212202063D

 29 31  0  0  1  0  0  0  0  0999 V2000
    8.7106    5.0411    3.3549 Br  0  0  0  0  0  0  0  0  0  0  0  0
    0.8911    6.2826    5.7277 C   0  0  0  0  0  0  0  0  0  0  0  0
    1.5926    6.8499    5.0970 H   0  0  0  0  0  0  0  0  0  0  0  0
   -0.4619    6.2847    5.4314 C   0  0  0  0  0  0  0  0  0  0  0  0
   -0.8147    6.8233    4.5656 H   0  0  0  0  0  0  0  0  0  0  0  0
   -1.3577    5.6124    6.2470 C   0  0  0  0  0  0  0  0  0  0  0  0
   -2.4115    5.6260    6.0144 H   0  0  0  0  0  0  0  0  0  0  0  0
   -0.9056    4.9348    7.3671 C   0  0  0  0  0  0  0  0  0  0  0  0
   -1.6031    4.4199    8.0100 H   0  0  0  0  0  0  0  0  0  0  0  0
    0.4442    4.9267    7.6730 C   0  0  0  0  0  0  0  0  0  0  0  0
    0.8079    4.4152    8.5513 H   0  0  0  0  0  0  0  0  0  0  0  0
    1.3355    5.5987    6.8516 C   0  0  0  0  0  0  0  0  0  0  0  0
    3.4859    3.9636    6.4432 C   0  0  0  0  0  0  0  0  0  0  0  0
    4.4087    3.6057    6.9003 H   0  0  0  0  0  0  0  0  0  0  0  0
    2.6783    3.2672    6.6633 H   0  0  0  0  0  0  0  0  0  0  0  0
    3.6564    4.1182    4.9309 C   0  0  0  0  0  0  0  0  0  0  0  0
    3.6414    3.1358    4.4520 H   0  0  0  0  0  0  0  0  0  0  0  0
    2.8334    4.7243    4.5243 H   0  0  0  0  0  0  0  0  0  0  0  0
    6.0246    4.1930    4.1141 C   0  0  0  0  0  3  0  0  0  0  0  0
    6.1010    3.1502    3.8846 H   0  0  0  0  0  0  0  0  0  0  0  0
    6.9514    5.2075    3.9884 C   0  0  0  0  0  0  0  0  0  0  0  0
    6.3084    6.3712    4.4309 C   0  0  0  0  0  0  0  0  0  0  0  0
    6.6712    7.3823    4.4773 H   0  0  0  0  0  0  0  0  0  0  0  0
    2.6629    8.6855    7.1716 Cl  0  0  0  0  0  0  0  0  0  0  0  0
    4.3138    8.9987    4.4909 Cl  0  0  0  0  0  0  0  0  0  0  0  0
    4.9019    4.7579    4.6011 N   0  0  2  0  0  0  0  0  0  0  0  0
    5.0737    6.0662    4.7942 N   0  0  0  0  0  0  0  0  0  0  0  0
    3.8225    7.3144    5.8617 Pd  0  0  0  0  0  0  0  0  0  0  0  0
    3.0759    5.5476    7.2969 S   0  0  1  0  0  3  0  0  0  0  0  0
  1 21  1  0  0  0  0
  2 12  1  0  0  0  0
  3  2  1  0  0  0  0
  4  2  2  0  0  0  0
  4  6  1  0  0  0  0
  5  4  1  0  0  0  0
  6  8  2  0  0  0  0
  7  6  1  0  0  0  0
  8 10  1  0  0  0  0
  8  9  1  0  0  0  0
 10 11  1  0  0  0  0
 12 10  2  0  0  0  0
 13 15  1  0  0  0  0
 13 14  1  0  0  0  0
 13 29  1  0  0  0  0
 16 13  1  0  0  0  0
 17 16  1  0  0  0  0
 18 16  1  0  0  0  0
 20 19  1  0  0  0  0
 21 19  1  0  0  0  0
 21 22  2  0  0  0  0
 22 23  1  0  0  0  0
 22 27  1  0  0  0  0
 25 28  1  0  0  0  0
 26 19  1  1  0  0  0
 26 27  1  0  0  0  0
 26 16  1  0  0  0  0
 27 28  1  0  0  0  0
 28 24  1  0  0  0  0
 28 29  1  0  0  0  0
 29 12  1  6  0  0  0
M  END
$$$$
