CSD_code = KICYOM | q = 0 | S = 0 | Stoichiometry = C16H16Cl2HgN4Se2 | MND = 4
 OpenBabel04212202063D

 41 44  0  0  1  0  0  0  0  0999 V2000
   12.3287    6.1247    4.8551 Hg  0  0  0  0  0  0  0  0  0  0  0  0
   11.1476    5.7660    6.8620 Cl  0  0  0  0  0  0  0  0  0  0  0  0
   14.0091    4.6740    4.0714 Cl  0  0  0  0  0  0  0  0  0  0  0  0
   10.8736    8.7760    7.0230 N   0  0  0  0  0  0  0  0  0  0  0  0
   10.8798    7.7392    7.0633 H   0  0  0  0  0  0  0  0  0  0  0  0
   11.4136   10.8222    6.4389 N   0  0  0  0  0  0  0  0  0  0  0  0
   12.8340    5.0023    1.2974 N   0  0  0  0  0  0  0  0  0  0  0  0
   13.3318    4.8416    2.1928 H   0  0  0  0  0  0  0  0  0  0  0  0
   11.2816    5.6446   -0.1163 N   0  0  0  0  0  0  0  0  0  0  0  0
   12.9349    8.8592    5.0639 Se  0  0  0  0  0  0  0  0  0  0  0  0
   10.6663    6.3331    2.5672 Se  0  0  0  0  0  0  0  0  0  0  0  0
   11.6686    9.5106    6.2316 C   0  0  1  0  0  3  0  0  0  0  0  0
   10.0772    9.6130    7.7610 C   0  0  0  0  0  0  0  0  0  0  0  0
   10.4212   10.9253    7.3902 C   0  0  0  0  0  0  0  0  0  0  0  0
    9.7940   12.0220    7.9612 C   0  0  0  0  0  0  0  0  0  0  0  0
   10.0537   13.0302    7.6813 H   0  0  0  0  0  0  0  0  0  0  0  0
    8.8193   11.7636    8.9074 C   0  0  0  0  0  0  0  0  0  0  0  0
    8.3079   12.5907    9.3749 H   0  0  0  0  0  0  0  0  0  0  0  0
    8.4789   10.4621    9.2743 C   0  0  0  0  0  0  0  0  0  0  0  0
    7.7117   10.3120   10.0178 H   0  0  0  0  0  0  0  0  0  0  0  0
    9.0990    9.3631    8.7102 C   0  0  0  0  0  0  0  0  0  0  0  0
    8.8424    8.3542    8.9875 H   0  0  0  0  0  0  0  0  0  0  0  0
   11.6522    5.6259    1.1845 C   0  0  1  0  0  3  0  0  0  0  0  0
   13.2514    4.6021    0.0543 C   0  0  0  0  0  0  0  0  0  0  0  0
   12.2591    5.0120   -0.8541 C   0  0  0  0  0  0  0  0  0  0  0  0
   12.3767    4.7555   -2.2114 C   0  0  0  0  0  0  0  0  0  0  0  0
   11.6194    5.0665   -2.9129 H   0  0  0  0  0  0  0  0  0  0  0  0
   13.5107    4.0807   -2.6254 C   0  0  0  0  0  0  0  0  0  0  0  0
   13.6384    3.8615   -3.6740 H   0  0  0  0  0  0  0  0  0  0  0  0
   14.4939    3.6749   -1.7237 C   0  0  0  0  0  0  0  0  0  0  0  0
   15.3605    3.1507   -2.0954 H   0  0  0  0  0  0  0  0  0  0  0  0
   14.3849    3.9268   -0.3690 C   0  0  0  0  0  0  0  0  0  0  0  0
   15.1392    3.6168    0.3353 H   0  0  0  0  0  0  0  0  0  0  0  0
   12.0534   11.9318    5.7915 C   0  0  0  0  0  0  0  0  0  0  0  0
   12.7830   11.5453    5.0797 H   0  0  0  0  0  0  0  0  0  0  0  0
   12.5631   12.5533    6.5293 H   0  0  0  0  0  0  0  0  0  0  0  0
   11.3132   12.5332    5.2618 H   0  0  0  0  0  0  0  0  0  0  0  0
   10.0812    6.2165   -0.6565 C   0  0  0  0  0  0  0  0  0  0  0  0
    9.5024    6.6454    0.1615 H   0  0  0  0  0  0  0  0  0  0  0  0
    9.4897    5.4460   -1.1533 H   0  0  0  0  0  0  0  0  0  0  0  0
   10.3298    6.9997   -1.3743 H   0  0  0  0  0  0  0  0  0  0  0  0
  1 10  1  0  0  0  0
  1  2  1  0  0  0  0
  3  1  1  0  0  0  0
  4  5  1  0  0  0  0
  4 13  1  0  0  0  0
  6 14  1  0  0  0  0
  7  8  1  0  0  0  0
  9 23  1  0  0  0  0
 11  1  1  0  0  0  0
 12 10  1  1  0  0  0
 12  6  1  0  0  0  0
 12  4  1  0  0  0  0
 13 21  1  0  0  0  0
 14 13  2  0  0  0  0
 14 15  1  0  0  0  0
 15 17  2  0  0  0  0
 16 15  1  0  0  0  0
 17 19  1  0  0  0  0
 17 18  1  0  0  0  0
 19 20  1  0  0  0  0
 21 22  1  0  0  0  0
 21 19  2  0  0  0  0
 23  7  1  0  0  0  0
 23 11  1  1  0  0  0
 24  7  1  0  0  0  0
 25  9  1  0  0  0  0
 25 24  2  0  0  0  0
 26 25  1  0  0  0  0
 27 26  1  0  0  0  0
 28 26  2  0  0  0  0
 28 30  1  0  0  0  0
 29 28  1  0  0  0  0
 30 32  2  0  0  0  0
 31 30  1  0  0  0  0
 32 24  1  0  0  0  0
 32 33  1  0  0  0  0
 34  6  1  0  0  0  0
 34 36  1  0  0  0  0
 35 34  1  0  0  0  0
 37 34  1  0  0  0  0
 38  9  1  0  0  0  0
 38 39  1  0  0  0  0
 40 38  1  0  0  0  0
 41 38  1  0  0  0  0
M  END
$$$$
