CSD_code = KIDBIK | q = 0 | S = 0 | Stoichiometry = C29H27ClNORh | MND = 6
 OpenBabel04212202063D

 60 63  0  0  1  0  0  0  0  0999 V2000
    4.3854    2.3144    8.7942 Rh  0  0  0  0  0  0  0  0  0  0  0  0
    4.2965    4.6190    8.8719 Cl  0  0  0  0  0 15  0  0  0  0  0  0
    6.9203    3.0936   12.0599 O   0  0  0  0  0  0  0  0  0  0  0  0
    4.8361    2.5913   11.7502 N   0  0  0  0  0  0  0  0  0  0  0  0
    5.4077    2.5223   10.4922 C   0  0  0  0  0  0  0  0  0  0  0  0
    5.7585    2.9479   12.6597 C   0  0  2  0  0  3  0  0  0  0  0  0
    6.7335    2.8542   10.7278 C   0  0  0  0  0  0  0  0  0  0  0  0
    3.5034    2.1883   12.0032 C   0  0  0  0  0  0  0  0  0  0  0  0
    2.4679    2.7393   11.2569 C   0  0  0  0  0  0  0  0  0  0  0  0
    2.6770    3.5272   10.5436 H   0  0  0  0  0  0  0  0  0  0  0  0
    1.1747    2.2874   11.4638 C   0  0  0  0  0  0  0  0  0  0  0  0
    0.3659    2.7136   10.8902 H   0  0  0  0  0  0  0  0  0  0  0  0
    0.9187    1.2966   12.3971 C   0  0  0  0  0  0  0  0  0  0  0  0
   -0.0904    0.9440   12.5497 H   0  0  0  0  0  0  0  0  0  0  0  0
    1.9573    0.7533   13.1363 C   0  0  0  0  0  0  0  0  0  0  0  0
    1.7609   -0.0223   13.8609 H   0  0  0  0  0  0  0  0  0  0  0  0
    3.2539    1.1936   12.9415 C   0  0  0  0  0  0  0  0  0  0  0  0
    4.0705    0.7656   13.5048 H   0  0  0  0  0  0  0  0  0  0  0  0
    5.6084    3.2123   14.0707 C   0  0  0  0  0  0  0  0  0  0  0  0
    6.7335    3.1134   14.8967 C   0  0  0  0  0  0  0  0  0  0  0  0
    7.6797    2.8239   14.4657 H   0  0  0  0  0  0  0  0  0  0  0  0
    6.6295    3.3752   16.2474 C   0  0  0  0  0  0  0  0  0  0  0  0
    7.5020    3.2916   16.8777 H   0  0  0  0  0  0  0  0  0  0  0  0
    5.4102    3.7443   16.7942 C   0  0  0  0  0  0  0  0  0  0  0  0
    5.3303    3.9461   17.8515 H   0  0  0  0  0  0  0  0  0  0  0  0
    4.2962    3.8646   15.9779 C   0  0  0  0  0  0  0  0  0  0  0  0
    3.3498    4.1701   16.3976 H   0  0  0  0  0  0  0  0  0  0  0  0
    4.3865    3.6053   14.6248 C   0  0  0  0  0  0  0  0  0  0  0  0
    3.5208    3.7300   13.9937 H   0  0  0  0  0  0  0  0  0  0  0  0
    7.8546    2.9602    9.8229 C   0  0  0  0  0  0  0  0  0  0  0  0
    7.6503    2.8776    8.4432 C   0  0  0  0  0  0  0  0  0  0  0  0
    6.6336    2.7563    8.0675 H   0  0  0  0  0  0  0  0  0  0  0  0
    8.7192    2.9777    7.5772 C   0  0  0  0  0  0  0  0  0  0  0  0
    8.5548    2.9191    6.5113 H   0  0  0  0  0  0  0  0  0  0  0  0
   10.0037    3.1601    8.0679 C   0  0  0  0  0  0  0  0  0  0  0  0
   10.8384    3.2374    7.3868 H   0  0  0  0  0  0  0  0  0  0  0  0
   10.2131    3.2499    9.4345 C   0  0  0  0  0  0  0  0  0  0  0  0
   11.2118    3.3981    9.8192 H   0  0  0  0  0  0  0  0  0  0  0  0
    9.1494    3.1524   10.3097 C   0  0  0  0  0  0  0  0  0  0  0  0
    9.3126    3.2257   11.3749 H   0  0  0  0  0  0  0  0  0  0  0  0
    4.9759    0.3256    8.3386 C   0  0  0  0  0  3  0  0  0  0  0  0
    5.9411    0.1166    8.7997 H   0  0  0  0  0  0  0  0  0  0  0  0
    3.8559    0.3068    9.1741 C   0  0  2  0  0  0  0  0  0  0  0  0
    4.0162    0.0355   10.2185 H   0  0  0  0  0  0  0  0  0  0  0  0
    2.4468    0.0156    8.7092 C   0  0  0  0  0  0  0  0  0  0  0  0
    2.3490   -1.0565    8.5009 H   0  0  0  0  0  0  0  0  0  0  0  0
    1.7688    0.2460    9.5351 H   0  0  0  0  0  0  0  0  0  0  0  0
    2.0297    0.8333    7.4719 C   0  0  0  0  0  0  0  0  0  0  0  0
    0.9530    1.0108    7.5144 H   0  0  0  0  0  0  0  0  0  0  0  0
    2.2267    0.2675    6.5596 H   0  0  0  0  0  0  0  0  0  0  0  0
    2.7472    2.1629    7.3888 C   0  0  0  0  0  3  0  0  0  0  0  0
    2.1216    3.0387    7.5616 H   0  0  0  0  0  0  0  0  0  0  0  0
    3.9263    2.3461    6.6953 C   0  0  0  0  0  3  0  0  0  0  0  0
    4.1535    3.3488    6.3318 H   0  0  0  0  0  0  0  0  0  0  0  0
    4.6877    1.2490    5.9863 C   0  0  0  0  0  0  0  0  0  0  0  0
    4.1540    0.9752    5.0690 H   0  0  0  0  0  0  0  0  0  0  0  0
    5.6595    1.6482    5.6855 H   0  0  0  0  0  0  0  0  0  0  0  0
    4.9093   -0.0010    6.8606 C   0  0  0  0  0  0  0  0  0  0  0  0
    5.8447   -0.4777    6.5600 H   0  0  0  0  0  0  0  0  0  0  0  0
    4.1109   -0.7265    6.6944 H   0  0  0  0  0  0  0  0  0  0  0  0
  1 43  1  0  0  0  0
  1  5  1  0  0  0  0
  3  6  1  0  0  0  0
  4  8  1  0  0  0  0
  4  6  1  0  0  0  0
  5  7  2  0  0  0  0
  5  4  1  0  0  0  0
  6 19  1  6  0  0  0
  7  3  1  0  0  0  0
  8 17  1  0  0  0  0
  9 11  1  0  0  0  0
  9  8  2  0  0  0  0
 10  9  1  0  0  0  0
 11 13  2  0  0  0  0
 12 11  1  0  0  0  0
 13 14  1  0  0  0  0
 13 15  1  0  0  0  0
 15 16  1  0  0  0  0
 17 15  2  0  0  0  0
 17 18  1  0  0  0  0
 19 28  2  0  0  0  0
 19 20  1  0  0  0  0
 20 22  2  0  0  0  0
 21 20  1  0  0  0  0
 22 24  1  0  0  0  0
 22 23  1  0  0  0  0
 24 25  1  0  0  0  0
 26 27  1  0  0  0  0
 26 24  2  0  0  0  0
 28 26  1  0  0  0  0
 29 28  1  0  0  0  0
 30 39  1  0  0  0  0
 30  7  1  0  0  0  0
 31 30  2  0  0  0  0
 32 31  1  0  0  0  0
 33 35  2  0  0  0  0
 33 31  1  0  0  0  0
 34 33  1  0  0  0  0
 35 37  1  0  0  0  0
 36 35  1  0  0  0  0
 37 38  1  0  0  0  0
 37 39  2  0  0  0  0
 39 40  1  0  0  0  0
 41 42  1  0  0  0  0
 41 43  1  0  0  0  0
 43 44  1  1  0  0  0
 45 43  1  0  0  0  0
 45 47  1  0  0  0  0
 46 45  1  0  0  0  0
 48 49  1  0  0  0  0
 48 45  1  0  0  0  0
 50 48  1  0  0  0  0
 51 48  1  0  0  0  0
 51 52  1  0  0  0  0
 53 51  1  0  0  0  0
 54 53  1  0  0  0  0
 55 53  1  0  0  0  0
 55 58  1  0  0  0  0
 56 55  1  0  0  0  0
 57 55  1  0  0  0  0
 58 41  1  0  0  0  0
 59 58  1  0  0  0  0
 60 58  1  0  0  0  0
M  END
$$$$
