CSD_code = KIDBEG | q = 0 | S = 0 | Stoichiometry = C29H27ClNRhS | MND = 6
 OpenBabel04212202063D

 60 63  0  0  1  0  0  0  0  0999 V2000
    3.7141    3.0595   12.5373 Rh  0  0  0  0  0  0  0  0  0  0  0  0
    5.7128    2.0652   11.9286 Cl  0  0  0  0  0 15  0  0  0  0  0  0
    6.5235    6.3129   14.0985 S   0  0  0  0  0  0  0  0  0  0  0  0
    5.1463    5.6067   12.1190 N   0  0  0  0  0  0  0  0  0  0  0  0
    4.8571    4.6298   13.0416 C   0  0  0  0  0  0  0  0  0  0  0  0
    6.0092    6.5597   12.4954 C   0  0  2  0  0  3  0  0  0  0  0  0
    5.5401    4.8646   14.2137 C   0  0  0  0  0  0  0  0  0  0  0  0
    4.4225    5.6750   10.8953 C   0  0  0  0  0  0  0  0  0  0  0  0
    3.6445    6.7955   10.6336 C   0  0  0  0  0  0  0  0  0  0  0  0
    3.6205    7.6129   11.3402 H   0  0  0  0  0  0  0  0  0  0  0  0
    2.8917    6.8462    9.4736 C   0  0  0  0  0  0  0  0  0  0  0  0
    2.2792    7.7123    9.2731 H   0  0  0  0  0  0  0  0  0  0  0  0
    2.9187    5.7883    8.5803 C   0  0  0  0  0  0  0  0  0  0  0  0
    2.3263    5.8313    7.6785 H   0  0  0  0  0  0  0  0  0  0  0  0
    3.7072    4.6797    8.8406 C   0  0  0  0  0  0  0  0  0  0  0  0
    3.7423    3.8617    8.1369 H   0  0  0  0  0  0  0  0  0  0  0  0
    4.4618    4.6107   10.0011 C   0  0  0  0  0  0  0  0  0  0  0  0
    5.1032    3.7615   10.1973 H   0  0  0  0  0  0  0  0  0  0  0  0
    6.5061    7.6473   11.6791 C   0  0  0  0  0  0  0  0  0  0  0  0
    6.8208    8.8680   12.2825 C   0  0  0  0  0  0  0  0  0  0  0  0
    6.6697    8.9851   13.3457 H   0  0  0  0  0  0  0  0  0  0  0  0
    7.3055    9.9170   11.5278 C   0  0  0  0  0  0  0  0  0  0  0  0
    7.5375   10.8572   12.0049 H   0  0  0  0  0  0  0  0  0  0  0  0
    7.4936    9.7645   10.1632 C   0  0  0  0  0  0  0  0  0  0  0  0
    7.8708   10.5860    9.5735 H   0  0  0  0  0  0  0  0  0  0  0  0
    7.2066    8.5501    9.5603 C   0  0  0  0  0  0  0  0  0  0  0  0
    7.3701    8.4200    8.5013 H   0  0  0  0  0  0  0  0  0  0  0  0
    6.7182    7.4955   10.3059 C   0  0  0  0  0  0  0  0  0  0  0  0
    6.5257    6.5461    9.8312 H   0  0  0  0  0  0  0  0  0  0  0  0
    5.5255    4.1173   15.4526 C   0  0  0  0  0  0  0  0  0  0  0  0
    5.0219    2.8139   15.4981 C   0  0  0  0  0  0  0  0  0  0  0  0
    4.6643    2.3501   14.5790 H   0  0  0  0  0  0  0  0  0  0  0  0
    5.0070    2.1117   16.6858 C   0  0  0  0  0  0  0  0  0  0  0  0
    4.6206    1.1032   16.7045 H   0  0  0  0  0  0  0  0  0  0  0  0
    5.4930    2.6870   17.8497 C   0  0  0  0  0  0  0  0  0  0  0  0
    5.4792    2.1343   18.7773 H   0  0  0  0  0  0  0  0  0  0  0  0
    6.0032    3.9747   17.8150 C   0  0  0  0  0  0  0  0  0  0  0  0
    6.3891    4.4290   18.7159 H   0  0  0  0  0  0  0  0  0  0  0  0
    6.0202    4.6829   16.6304 C   0  0  0  0  0  0  0  0  0  0  0  0
    6.4161    5.6899   16.6130 H   0  0  0  0  0  0  0  0  0  0  0  0
    2.1246    3.6356   13.7990 C   0  0  1  0  0  0  0  0  0  0  0  0
    2.4625    4.3521   14.5493 H   0  0  0  0  0  0  0  0  0  0  0  0
    1.8721    4.1216   12.5139 C   0  0  0  0  0  3  0  0  0  0  0  0
    2.0430    5.1847   12.3472 H   0  0  0  0  0  0  0  0  0  0  0  0
    0.8359    3.5178   11.5884 C   0  0  0  0  0  0  0  0  0  0  0  0
    0.0181    3.1144   12.1886 H   0  0  0  0  0  0  0  0  0  0  0  0
    0.4168    4.3094   10.9630 H   0  0  0  0  0  0  0  0  0  0  0  0
    1.4214    2.4247   10.6740 C   0  0  0  0  0  0  0  0  0  0  0  0
    0.6489    1.6865   10.4301 H   0  0  0  0  0  0  0  0  0  0  0  0
    1.7383    2.8846    9.7353 H   0  0  0  0  0  0  0  0  0  0  0  0
    2.6122    1.7145   11.2768 C   0  0  0  0  0  3  0  0  0  0  0  0
    3.3137    1.3214   10.5407 H   0  0  0  0  0  0  0  0  0  0  0  0
    2.6411    1.1752   12.5471 C   0  0  0  0  0  3  0  0  0  0  0  0
    3.3831    0.4037   12.7537 H   0  0  0  0  0  0  0  0  0  0  0  0
    1.4529    1.1929   13.4832 C   0  0  0  0  0  0  0  0  0  0  0  0
    1.4692    0.2911   14.0991 H   0  0  0  0  0  0  0  0  0  0  0  0
    0.5360    1.1624   12.8919 H   0  0  0  0  0  0  0  0  0  0  0  0
    1.4529    2.4255   14.4077 C   0  0  0  0  0  0  0  0  0  0  0  0
    0.4245    2.6856   14.6848 H   0  0  0  0  0  0  0  0  0  0  0  0
    1.9822    2.1798   15.3318 H   0  0  0  0  0  0  0  0  0  0  0  0
  1  5  1  0  0  0  0
  1 41  1  0  0  0  0
  3  7  1  0  0  0  0
  4  6  1  0  0  0  0
  4  5  1  0  0  0  0
  5  7  2  0  0  0  0
  6 19  1  6  0  0  0
  6  3  1  0  0  0  0
  7 30  1  0  0  0  0
  8  4  1  0  0  0  0
  9  8  1  0  0  0  0
  9 10  1  0  0  0  0
 11  9  2  0  0  0  0
 12 11  1  0  0  0  0
 13 15  2  0  0  0  0
 13 11  1  0  0  0  0
 14 13  1  0  0  0  0
 15 17  1  0  0  0  0
 16 15  1  0  0  0  0
 17 18  1  0  0  0  0
 17  8  2  0  0  0  0
 19 20  1  0  0  0  0
 20 21  1  0  0  0  0
 22 23  1  0  0  0  0
 22 20  2  0  0  0  0
 24 22  1  0  0  0  0
 25 24  1  0  0  0  0
 26 24  2  0  0  0  0
 26 28  1  0  0  0  0
 27 26  1  0  0  0  0
 28 19  2  0  0  0  0
 29 28  1  0  0  0  0
 30 31  2  0  0  0  0
 30 39  1  0  0  0  0
 31 33  1  0  0  0  0
 32 31  1  0  0  0  0
 33 34  1  0  0  0  0
 33 35  2  0  0  0  0
 35 36  1  0  0  0  0
 37 35  1  0  0  0  0
 37 38  1  0  0  0  0
 39 37  2  0  0  0  0
 40 39  1  0  0  0  0
 41 58  1  0  0  0  0
 41 42  1  1  0  0  0
 43 41  1  0  0  0  0
 44 43  1  0  0  0  0
 45 46  1  0  0  0  0
 45 43  1  0  0  0  0
 47 45  1  0  0  0  0
 48 51  1  0  0  0  0
 48 45  1  0  0  0  0
 49 48  1  0  0  0  0
 50 48  1  0  0  0  0
 51 53  1  0  0  0  0
 52 51  1  0  0  0  0
 53 54  1  0  0  0  0
 53 55  1  0  0  0  0
 55 56  1  0  0  0  0
 55 58  1  0  0  0  0
 57 55  1  0  0  0  0
 58 59  1  0  0  0  0
 58 60  1  0  0  0  0
M  END
$$$$
