CSD_code = KIDFUZ | q = 0 | S = 0 | Stoichiometry = C5H4ClNO5Ru | MND = 6
 OpenBabel04212202063D

 17 17  0  0  0  0  0  0  0  0999 V2000
    8.3953    0.4477    2.9178 Ru  0  0  0  0  0  0  0  0  0  0  0  0
    8.7146   -1.3996    1.5254 Cl  0  0  0  0  0  0  0  0  0  0  0  0
    6.8853    0.9544    1.4688 N   0  0  0  0  0  4  0  0  0  0  0  0
    6.9200    1.8120    0.9131 H   0  0  0  0  0  0  0  0  0  0  0  0
    6.9983    0.1628    0.8140 H   0  0  0  0  0  0  0  0  0  0  0  0
    7.6360    2.7060    4.7647 O   0  0  0  0  0  1  0  0  0  0  0  0
   10.0626   -1.2732    4.7253 O   0  0  0  0  0  1  0  0  0  0  0  0
   10.7351    1.5276    1.3639 O   0  0  0  0  0  1  0  0  0  0  0  0
    6.7485   -0.5485    3.6815 O   0  0  0  0  0  0  0  0  0  0  0  0
    4.5668   -0.8627    3.5020 O   0  0  0  0  0  0  0  0  0  0  0  0
    7.9540    1.8814    4.0530 C   0  0  0  0  0  2  0  0  0  0  0  0
    9.4927   -0.5234    4.1045 C   0  0  0  0  0  2  0  0  0  0  0  0
    9.8522    1.1919    1.9924 C   0  0  0  0  0  2  0  0  0  0  0  0
    5.5628    0.8233    2.1049 C   0  0  0  0  0  0  0  0  0  0  0  0
    4.7787    0.5923    1.3773 H   0  0  0  0  0  0  0  0  0  0  0  0
    5.3034    1.7539    2.6216 H   0  0  0  0  0  0  0  0  0  0  0  0
    5.5959   -0.3173    3.1872 C   0  0  0  0  0  0  0  0  0  0  0  0
  1  9  1  0  0  0  0
  1 11  1  0  0  0  0
  1 12  1  0  0  0  0
  2  1  1  0  0  0  0
  3 14  1  0  0  0  0
  3  1  1  0  0  0  0
  4  3  1  0  0  0  0
  5  3  1  0  0  0  0
  8 13  1  0  0  0  0
 11  6  1  0  0  0  0
 12  7  1  0  0  0  0
 13  1  1  0  0  0  0
 14 16  1  0  0  0  0
 14 17  1  0  0  0  0
 15 14  1  0  0  0  0
 17 10  2  0  0  0  0
 17  9  1  0  0  0  0
M  END
$$$$
