CSD_code = KIDJAJ | q = 0 | S = 0 | Stoichiometry = C17H10ClN4O3Re | MND = 6
 OpenBabel04212202063D

 36 39  0  0  1  0  0  0  0  0999 V2000
    2.3987   14.1918    3.3010 Re  0  0  0  0  0  0  0  0  0  0  0  0
    3.2403   16.4060    3.4231 Cl  0  0  0  0  0  0  0  0  0  0  0  0
    1.2770   11.3539    2.8016 O   0  0  0  0  0  1  0  0  0  0  0  0
    0.5340   14.8696    5.6721 O   0  0  0  0  0  1  0  0  0  0  0  0
    4.7080   13.3832    5.1881 O   0  0  0  0  0  1  0  0  0  0  0  0
    3.5662   14.1026    1.5045 N   0  0  0  0  0  0  0  0  0  0  0  0
    1.1694   15.1699    1.8449 N   0  0  0  0  0  0  0  0  0  0  0  0
    0.2113   17.2100    0.2670 N   0  0  0  0  0  0  0  0  0  0  0  0
    3.6262   17.4500   -0.6164 N   0  0  0  0  0  0  0  0  0  0  0  0
    3.0779   14.8254    0.4838 C   0  0  1  0  0  3  0  0  0  0  0  0
    3.6213   14.7428   -0.7980 C   0  0  0  0  0  0  0  0  0  0  0  0
    3.1433   15.2493   -1.6197 H   0  0  0  0  0  0  0  0  0  0  0  0
    4.7594   13.9884   -0.9976 C   0  0  0  0  0  0  0  0  0  0  0  0
    5.2040   13.9166   -1.9782 H   0  0  0  0  0  0  0  0  0  0  0  0
    5.3154   13.3221    0.0868 C   0  0  0  0  0  0  0  0  0  0  0  0
    6.2176   12.7412   -0.0162 H   0  0  0  0  0  0  0  0  0  0  0  0
    4.6707   13.3875    1.3069 C   0  0  0  0  0  0  0  0  0  0  0  0
    5.0460   12.8388    2.1612 H   0  0  0  0  0  0  0  0  0  0  0  0
    1.8821   15.6088    0.7898 C   0  0  2  0  0  3  0  0  0  0  0  0
    1.4450   16.7504    0.0846 C   0  0  0  0  0  0  0  0  0  0  0  0
   -0.5451   16.6520    1.1899 C   0  0  0  0  0  0  0  0  0  0  0  0
   -1.5572   17.0186    1.2766 H   0  0  0  0  0  0  0  0  0  0  0  0
   -0.0328   15.6952    2.0557 C   0  0  0  0  0  0  0  0  0  0  0  0
   -0.5869   15.3470    2.9160 H   0  0  0  0  0  0  0  0  0  0  0  0
    2.3100   17.5845   -0.7605 C   0  0  0  0  0  0  0  0  0  0  0  0
    1.7437   18.5366   -1.6089 C   0  0  0  0  0  0  0  0  0  0  0  0
    0.6712   18.6090   -1.6855 H   0  0  0  0  0  0  0  0  0  0  0  0
    2.5882   19.3682   -2.3236 C   0  0  0  0  0  0  0  0  0  0  0  0
    2.1836   20.1149   -2.9914 H   0  0  0  0  0  0  0  0  0  0  0  0
    3.9581   19.2314   -2.1628 C   0  0  0  0  0  0  0  0  0  0  0  0
    4.6506   19.8644   -2.6950 H   0  0  0  0  0  0  0  0  0  0  0  0
    4.4207   18.2528   -1.2921 C   0  0  0  0  0  0  0  0  0  0  0  0
    5.4793   18.1019   -1.1257 H   0  0  0  0  0  0  0  0  0  0  0  0
    1.6957   12.4041    3.0089 C   0  0  0  0  0  2  0  0  0  0  0  0
    1.2236   14.5577    4.8145 C   0  0  0  0  0  2  0  0  0  0  0  0
    3.8145   13.6204    4.5155 C   0  0  0  0  0  2  0  0  0  0  0  0
  1  2  1  0  0  0  0
  1 36  1  0  0  0  0
  1 35  1  0  0  0  0
  3 34  1  0  0  0  0
  6  1  1  0  0  0  0
  7 23  1  0  0  0  0
  7  1  1  0  0  0  0
  8 21  1  0  0  0  0
 10 11  1  6  0  0  0
 10 19  1  0  0  0  0
 10  6  1  0  0  0  0
 12 11  1  0  0  0  0
 13 11  2  0  0  0  0
 13 15  1  0  0  0  0
 14 13  1  0  0  0  0
 15 17  2  0  0  0  0
 16 15  1  0  0  0  0
 17  6  1  0  0  0  0
 17 18  1  0  0  0  0
 19 20  1  1  0  0  0
 19  7  1  0  0  0  0
 20  8  2  0  0  0  0
 21 22  1  0  0  0  0
 21 23  2  0  0  0  0
 23 24  1  0  0  0  0
 25  9  1  0  0  0  0
 25 20  1  0  0  0  0
 26 25  2  0  0  0  0
 27 26  1  0  0  0  0
 28 30  2  0  0  0  0
 28 26  1  0  0  0  0
 29 28  1  0  0  0  0
 30 32  1  0  0  0  0
 31 30  1  0  0  0  0
 32 33  1  0  0  0  0
 32  9  2  0  0  0  0
 34  1  1  0  0  0  0
 35  4  1  0  0  0  0
 36  5  1  0  0  0  0
M  END
$$$$
