CSD_code = KIDKOY | q = 0 | S = 0 | Stoichiometry = C21H24ClN3Pt | MND = 4
 OpenBabel04212202063D

 50 53  0  0  0  0  0  0  0  0999 V2000
    2.6342    3.8516   -0.9865 Pt  0  0  1  0  0  0  0  0  0  0  0  0
    1.7014    3.5382   -3.1287 Cl  0  0  0  0  0  0  0  0  0  0  0  0
    1.4830    2.4406    0.0467 N   0  0  0  0  0  4  0  0  0  0  0  0
    4.0191    5.3419   -1.4817 N   0  0  0  0  0  4  0  0  0  0  0  0
    7.3818    5.2893   11.9163 N   0  0  0  0  0  0  0  0  0  0  0  0
    3.3966    4.1094    0.7668 C   0  0  0  0  0  0  0  0  0  0  0  0
    2.8135    3.4772    1.8591 C   0  0  0  0  0  0  0  0  0  0  0  0
    3.3593    3.6544    3.1142 C   0  0  0  0  0  0  0  0  0  0  0  0
    2.9194    3.1622    3.9685 H   0  0  0  0  0  0  0  0  0  0  0  0
    4.4840    4.4781    3.2822 C   0  0  0  0  0  0  0  0  0  0  0  0
    5.0534    5.1101    2.1635 C   0  0  0  0  0  0  0  0  0  0  0  0
    5.9212    5.7415    2.3010 H   0  0  0  0  0  0  0  0  0  0  0  0
    4.5152    4.9225    0.9063 C   0  0  0  0  0  0  0  0  0  0  0  0
    1.5644    2.6975    1.5174 C   0  0  0  0  0  0  0  0  0  0  0  0
    0.6981    3.3025    1.8046 H   0  0  0  0  0  0  0  0  0  0  0  0
    1.5034    1.7472    2.0624 H   0  0  0  0  0  0  0  0  0  0  0  0
    2.1450    1.1701   -0.2671 C   0  0  0  0  0  0  0  0  0  0  0  0
    1.6111    0.3289    0.1926 H   0  0  0  0  0  0  0  0  0  0  0  0
    3.1701    1.1880    0.1075 H   0  0  0  0  0  0  0  0  0  0  0  0
    2.1614    1.0284   -1.3493 H   0  0  0  0  0  0  0  0  0  0  0  0
    0.0865    2.3811   -0.3839 C   0  0  0  0  0  0  0  0  0  0  0  0
    0.0520    2.1963   -1.4577 H   0  0  0  0  0  0  0  0  0  0  0  0
   -0.4008    3.3367   -0.1878 H   0  0  0  0  0  0  0  0  0  0  0  0
   -0.4548    1.5832    0.1380 H   0  0  0  0  0  0  0  0  0  0  0  0
    5.0476    5.4585   -0.4026 C   0  0  0  0  0  0  0  0  0  0  0  0
    5.9124    4.8519   -0.6911 H   0  0  0  0  0  0  0  0  0  0  0  0
    5.3826    6.5002   -0.3222 H   0  0  0  0  0  0  0  0  0  0  0  0
    3.2035    6.5604   -1.5162 C   0  0  0  0  0  0  0  0  0  0  0  0
    2.7696    6.7398   -0.5308 H   0  0  0  0  0  0  0  0  0  0  0  0
    2.3998    6.4371   -2.2446 H   0  0  0  0  0  0  0  0  0  0  0  0
    3.8113    7.4279   -1.8023 H   0  0  0  0  0  0  0  0  0  0  0  0
    4.6624    5.1505   -2.7812 C   0  0  0  0  0  0  0  0  0  0  0  0
    3.8942    5.0632   -3.5498 H   0  0  0  0  0  0  0  0  0  0  0  0
    5.2419    4.2268   -2.7735 H   0  0  0  0  0  0  0  0  0  0  0  0
    5.3225    5.9916   -3.0237 H   0  0  0  0  0  0  0  0  0  0  0  0
    5.0947    4.7108    4.5727 C   0  0  0  0  0  0  0  0  0  0  0  0
    5.9757    5.3383    4.5376 H   0  0  0  0  0  0  0  0  0  0  0  0
    4.6733    4.2443    5.7607 C   0  0  0  0  0  0  0  0  0  0  0  0
    3.7837    3.6305    5.8052 H   0  0  0  0  0  0  0  0  0  0  0  0
    5.2889    4.4888    7.0462 C   0  0  0  0  0  0  0  0  0  0  0  0
    4.6647    3.9838    8.1955 C   0  0  0  0  0  0  0  0  0  0  0  0
    3.7445    3.4263    8.0918 H   0  0  0  0  0  0  0  0  0  0  0  0
    5.1943    4.1844    9.4496 C   0  0  0  0  0  0  0  0  0  0  0  0
    4.7005    3.7907   10.3261 H   0  0  0  0  0  0  0  0  0  0  0  0
    6.3829    4.9039    9.5932 C   0  0  0  0  0  0  0  0  0  0  0  0
    7.0225    5.4110    8.4590 C   0  0  0  0  0  0  0  0  0  0  0  0
    7.9435    5.9643    8.5730 H   0  0  0  0  0  0  0  0  0  0  0  0
    6.4819    5.2046    7.2104 C   0  0  0  0  0  0  0  0  0  0  0  0
    6.9952    5.6015    6.3485 H   0  0  0  0  0  0  0  0  0  0  0  0
    6.9343    5.1163   10.8740 C   0  0  0  0  0  0  0  0  0  0  0  0
  1  2  1  1  0  0  0
  1  3  1  0  0  0  0
  1  6  1  0  0  0  0
  3 14  1  0  0  0  0
  4  1  1  0  0  0  0
  4 25  1  0  0  0  0
  6 13  2  0  0  0  0
  6  7  1  0  0  0  0
  7  8  2  0  0  0  0
  8 10  1  0  0  0  0
  8  9  1  0  0  0  0
 10 36  1  0  0  0  0
 11 12  1  0  0  0  0
 11 10  2  0  0  0  0
 13 11  1  0  0  0  0
 14 15  1  0  0  0  0
 14  7  1  0  0  0  0
 14 16  1  0  0  0  0
 17  3  1  0  0  0  0
 17 19  1  0  0  0  0
 17 18  1  0  0  0  0
 20 17  1  0  0  0  0
 21 23  1  0  0  0  0
 21  3  1  0  0  0  0
 21 24  1  0  0  0  0
 22 21  1  0  0  0  0
 25 27  1  0  0  0  0
 25 13  1  0  0  0  0
 26 25  1  0  0  0  0
 28  4  1  0  0  0  0
 28 29  1  0  0  0  0
 30 28  1  0  0  0  0
 31 28  1  0  0  0  0
 32 34  1  0  0  0  0
 32  4  1  0  0  0  0
 33 32  1  0  0  0  0
 35 32  1  0  0  0  0
 36 38  2  0  0  0  0
 37 36  1  0  0  0  0
 38 39  1  0  0  0  0
 38 40  1  0  0  0  0
 40 48  2  0  0  0  0
 40 41  1  0  0  0  0
 41 43  2  0  0  0  0
 42 41  1  0  0  0  0
 43 45  1  0  0  0  0
 43 44  1  0  0  0  0
 45 50  1  0  0  0  0
 46 47  1  0  0  0  0
 46 45  2  0  0  0  0
 48 46  1  0  0  0  0
 49 48  1  0  0  0  0
 50  5  3  0  0  0  0
M  END
$$$$
