CSD_code = KIDKEO | q = 0 | S = 0 | Stoichiometry = C21H27ClN2OPt | MND = 4
 OpenBabel04212202063D

 53 56  0  0  0  0  0  0  0  0999 V2000
    2.6109    3.9004   -1.1842 Pt  0  0  2  0  0  0  0  0  0  0  0  0
    1.5835    3.7049   -3.3039 Cl  0  0  0  0  0  0  0  0  0  0  0  0
    7.2471    4.5682   10.5726 O   0  0  0  0  0  0  0  0  0  0  0  0
    1.5048    2.4356   -0.1772 N   0  0  0  0  0  4  0  0  0  0  0  0
    3.9687    5.4241   -1.6540 N   0  0  0  0  0  4  0  0  0  0  0  0
    3.4481    4.0667    0.5481 C   0  0  0  0  0  0  0  0  0  0  0  0
    2.9085    3.3829    1.6300 C   0  0  0  0  0  0  0  0  0  0  0  0
    3.4972    3.5101    2.8730 C   0  0  0  0  0  0  0  0  0  0  0  0
    3.0852    2.9847    3.7216 H   0  0  0  0  0  0  0  0  0  0  0  0
    4.6191    4.3360    3.0392 C   0  0  0  0  0  0  0  0  0  0  0  0
    5.1414    5.0232    1.9314 C   0  0  0  0  0  0  0  0  0  0  0  0
    6.0068    5.6586    2.0665 H   0  0  0  0  0  0  0  0  0  0  0  0
    4.5629    4.8834    0.6852 C   0  0  0  0  0  0  0  0  0  0  0  0
    1.6492    2.6140    1.3006 C   0  0  0  0  0  0  0  0  0  0  0  0
    0.7932    3.1959    1.6579 H   0  0  0  0  0  0  0  0  0  0  0  0
    1.6163    1.6349    1.7950 H   0  0  0  0  0  0  0  0  0  0  0  0
    2.1502    1.1845   -0.5873 C   0  0  0  0  0  0  0  0  0  0  0  0
    1.6379    0.3196   -0.1473 H   0  0  0  0  0  0  0  0  0  0  0  0
    3.1918    1.1852   -0.2607 H   0  0  0  0  0  0  0  0  0  0  0  0
    2.1156    1.0995   -1.6751 H   0  0  0  0  0  0  0  0  0  0  0  0
    0.0914    2.3996   -0.5509 C   0  0  0  0  0  0  0  0  0  0  0  0
    0.0111    2.2753   -1.6310 H   0  0  0  0  0  0  0  0  0  0  0  0
   -0.3853    3.3426   -0.2811 H   0  0  0  0  0  0  0  0  0  0  0  0
   -0.4292    1.5734   -0.0518 H   0  0  0  0  0  0  0  0  0  0  0  0
    5.0424    5.4852   -0.6156 C   0  0  0  0  0  0  0  0  0  0  0  0
    5.8919    4.8932   -0.9717 H   0  0  0  0  0  0  0  0  0  0  0  0
    5.3836    6.5215   -0.4971 H   0  0  0  0  0  0  0  0  0  0  0  0
    3.1464    6.6360   -1.5793 C   0  0  0  0  0  0  0  0  0  0  0  0
    3.7367    7.5242   -1.8381 H   0  0  0  0  0  0  0  0  0  0  0  0
    2.7555    6.7517   -0.5668 H   0  0  0  0  0  0  0  0  0  0  0  0
    2.3121    6.5506   -2.2780 H   0  0  0  0  0  0  0  0  0  0  0  0
    4.5547    5.3156   -2.9891 C   0  0  0  0  0  0  0  0  0  0  0  0
    3.7537    5.2685   -3.7271 H   0  0  0  0  0  0  0  0  0  0  0  0
    5.1382    4.3973   -3.0620 H   0  0  0  0  0  0  0  0  0  0  0  0
    5.1999    6.1745   -3.2096 H   0  0  0  0  0  0  0  0  0  0  0  0
    5.2664    4.5282    4.3216 C   0  0  0  0  0  0  0  0  0  0  0  0
    6.0812    5.2399    4.3020 H   0  0  0  0  0  0  0  0  0  0  0  0
    4.9573    3.9249    5.4798 C   0  0  0  0  0  0  0  0  0  0  0  0
    4.1555    3.1988    5.5028 H   0  0  0  0  0  0  0  0  0  0  0  0
    5.5985    4.1361    6.7615 C   0  0  0  0  0  0  0  0  0  0  0  0
    5.1814    3.3751    7.8611 C   0  0  0  0  0  0  0  0  0  0  0  0
    4.3985    2.6417    7.7286 H   0  0  0  0  0  0  0  0  0  0  0  0
    5.7455    3.5379    9.1041 C   0  0  0  0  0  0  0  0  0  0  0  0
    5.4208    2.9487    9.9475 H   0  0  0  0  0  0  0  0  0  0  0  0
    6.7575    4.4789    9.3039 C   0  0  0  0  0  0  0  0  0  0  0  0
    7.1852    5.2436    8.2235 C   0  0  0  0  0  0  0  0  0  0  0  0
    7.9646    5.9808    8.3405 H   0  0  0  0  0  0  0  0  0  0  0  0
    6.6122    5.0697    6.9784 C   0  0  0  0  0  0  0  0  0  0  0  0
    6.9642    5.6828    6.1631 H   0  0  0  0  0  0  0  0  0  0  0  0
    8.2570    5.5092   10.8391 C   0  0  0  0  0  0  0  0  0  0  0  0
    9.1626    5.3040   10.2585 H   0  0  0  0  0  0  0  0  0  0  0  0
    8.4809    5.4096   11.9002 H   0  0  0  0  0  0  0  0  0  0  0  0
    7.9190    6.5308   10.6358 H   0  0  0  0  0  0  0  0  0  0  0  0
  1  2  1  6  0  0  0
  1  4  1  0  0  0  0
  1  6  1  0  0  0  0
  3 50  1  0  0  0  0
  4 14  1  0  0  0  0
  5 28  1  0  0  0  0
  5  1  1  0  0  0  0
  5 25  1  0  0  0  0
  6 13  2  0  0  0  0
  6  7  1  0  0  0  0
  7  8  2  0  0  0  0
  8 10  1  0  0  0  0
  8  9  1  0  0  0  0
 10 36  1  0  0  0  0
 11 12  1  0  0  0  0
 11 10  2  0  0  0  0
 13 11  1  0  0  0  0
 14  7  1  0  0  0  0
 14 15  1  0  0  0  0
 14 16  1  0  0  0  0
 17 19  1  0  0  0  0
 17  4  1  0  0  0  0
 17 18  1  0  0  0  0
 20 17  1  0  0  0  0
 21 23  1  0  0  0  0
 21  4  1  0  0  0  0
 21 24  1  0  0  0  0
 22 21  1  0  0  0  0
 25 27  1  0  0  0  0
 25 13  1  0  0  0  0
 26 25  1  0  0  0  0
 28 30  1  0  0  0  0
 29 28  1  0  0  0  0
 31 28  1  0  0  0  0
 32  5  1  0  0  0  0
 33 32  1  0  0  0  0
 34 32  1  0  0  0  0
 35 32  1  0  0  0  0
 36 38  2  0  0  0  0
 37 36  1  0  0  0  0
 38 39  1  0  0  0  0
 38 40  1  0  0  0  0
 40 48  2  0  0  0  0
 40 41  1  0  0  0  0
 41 43  2  0  0  0  0
 42 41  1  0  0  0  0
 43 45  1  0  0  0  0
 43 44  1  0  0  0  0
 45  3  1  0  0  0  0
 46 47  1  0  0  0  0
 46 45  2  0  0  0  0
 48 46  1  0  0  0  0
 49 48  1  0  0  0  0
 50 52  1  0  0  0  0
 51 50  1  0  0  0  0
 53 50  1  0  0  0  0
M  END
$$$$
