CSD_code = KIDKUE | q = 0 | S = 0 | Stoichiometry = C20H24ClN3O2Pt | MND = 4
 OpenBabel04212202063D

 51 54  0  0  0  0  0  0  0  0999 V2000
    2.8176    4.5806   16.0222 Pt  0  0  2  0  0  0  0  0  0  0  0  0
    1.4657    3.7317   17.7497 Cl  0  0  0  0  0  0  0  0  0  0  0  0
   11.7259    7.9758    6.6490 O   0  0  0  0  0  0  0  0  0  0  0  0
   10.3079    9.5673    6.3557 O   0  0  0  0  0  0  0  0  0  0  0  0
    3.9282    2.8484   15.6387 N   0  0  0  0  0  4  0  0  0  0  0  0
    2.0471    6.5265   15.9752 N   0  0  0  0  0  4  0  0  0  0  0  0
   10.6862    8.5521    6.9105 N   0  0  0  0  0  0  0  0  0  0  0  0
    3.9260    5.2773   14.6070 C   0  0  0  0  0  0  0  0  0  0  0  0
    4.9772    4.5040   14.1245 C   0  0  0  0  0  0  0  0  0  0  0  0
    5.7704    4.9984   13.1098 C   0  0  0  0  0  0  0  0  0  0  0  0
    6.5821    4.4035   12.7189 H   0  0  0  0  0  0  0  0  0  0  0  0
    5.5215    6.2766   12.5818 C   0  0  0  0  0  0  0  0  0  0  0  0
    4.4526    7.0396   13.0854 C   0  0  0  0  0  0  0  0  0  0  0  0
    4.2669    8.0215   12.6710 H   0  0  0  0  0  0  0  0  0  0  0  0
    3.6537    6.5408   14.0931 C   0  0  0  0  0  0  0  0  0  0  0  0
    5.1547    3.1930   14.8555 C   0  0  0  0  0  0  0  0  0  0  0  0
    5.9852    3.3083   15.5595 H   0  0  0  0  0  0  0  0  0  0  0  0
    5.4044    2.3676   14.1772 H   0  0  0  0  0  0  0  0  0  0  0  0
    3.0250    2.0440   14.8088 C   0  0  0  0  0  0  0  0  0  0  0  0
    3.4813    1.0779   14.5602 H   0  0  0  0  0  0  0  0  0  0  0  0
    2.8001    2.5794   13.8845 H   0  0  0  0  0  0  0  0  0  0  0  0
    2.0965    1.8653   15.3541 H   0  0  0  0  0  0  0  0  0  0  0  0
    4.2861    2.0945   16.8401 C   0  0  0  0  0  0  0  0  0  0  0  0
    3.3788    1.8579   17.3962 H   0  0  0  0  0  0  0  0  0  0  0  0
    4.9278    2.7018   17.4793 H   0  0  0  0  0  0  0  0  0  0  0  0
    4.8051    1.1638   16.5831 H   0  0  0  0  0  0  0  0  0  0  0  0
    2.4284    7.1918   14.6917 C   0  0  0  0  0  0  0  0  0  0  0  0
    1.6003    7.0675   13.9862 H   0  0  0  0  0  0  0  0  0  0  0  0
    2.5661    8.2674   14.8589 H   0  0  0  0  0  0  0  0  0  0  0  0
    2.7310    7.1872   17.0921 C   0  0  0  0  0  0  0  0  0  0  0  0
    2.3877    8.2235   17.2006 H   0  0  0  0  0  0  0  0  0  0  0  0
    3.8083    7.1863   16.9161 H   0  0  0  0  0  0  0  0  0  0  0  0
    2.5186    6.6469   18.0165 H   0  0  0  0  0  0  0  0  0  0  0  0
    0.6003    6.6018   16.1775 C   0  0  0  0  0  0  0  0  0  0  0  0
    0.3454    6.1104   17.1164 H   0  0  0  0  0  0  0  0  0  0  0  0
    0.0870    6.0789   15.3698 H   0  0  0  0  0  0  0  0  0  0  0  0
    0.2594    7.6431   16.2107 H   0  0  0  0  0  0  0  0  0  0  0  0
    6.3220    6.8538   11.5281 C   0  0  0  0  0  0  0  0  0  0  0  0
    5.9637    7.8114   11.1741 H   0  0  0  0  0  0  0  0  0  0  0  0
    7.4409    6.3367   10.9858 C   0  0  0  0  0  0  0  0  0  0  0  0
    7.8241    5.3957   11.3558 H   0  0  0  0  0  0  0  0  0  0  0  0
    8.2338    6.9329    9.9383 C   0  0  0  0  0  0  0  0  0  0  0  0
    9.4471    6.3208    9.5833 C   0  0  0  0  0  0  0  0  0  0  0  0
    9.7528    5.4227   10.0996 H   0  0  0  0  0  0  0  0  0  0  0  0
   10.2526    6.8425    8.5991 C   0  0  0  0  0  0  0  0  0  0  0  0
   11.1864    6.3751    8.3262 H   0  0  0  0  0  0  0  0  0  0  0  0
    9.8557    8.0008    7.9349 C   0  0  0  0  0  0  0  0  0  0  0  0
    8.6531    8.6246    8.2610 C   0  0  0  0  0  0  0  0  0  0  0  0
    8.3674    9.5184    7.7275 H   0  0  0  0  0  0  0  0  0  0  0  0
    7.8565    8.0956    9.2486 C   0  0  0  0  0  0  0  0  0  0  0  0
    6.9250    8.5842    9.4858 H   0  0  0  0  0  0  0  0  0  0  0  0
  1  2  1  6  0  0  0
  3  7  2  0  0  0  0
  4  7  2  0  0  0  0
  5  1  1  0  0  0  0
  5 23  1  0  0  0  0
  6  1  1  0  0  0  0
  6 34  1  0  0  0  0
  6 30  1  0  0  0  0
  7 47  1  0  0  0  0
  8  1  1  0  0  0  0
  9  8  1  0  0  0  0
  9 16  1  0  0  0  0
 10  9  2  0  0  0  0
 11 10  1  0  0  0  0
 12 13  2  0  0  0  0
 12 10  1  0  0  0  0
 13 15  1  0  0  0  0
 14 13  1  0  0  0  0
 15  8  2  0  0  0  0
 15 27  1  0  0  0  0
 16 17  1  0  0  0  0
 16  5  1  0  0  0  0
 18 16  1  0  0  0  0
 19 22  1  0  0  0  0
 19  5  1  0  0  0  0
 20 19  1  0  0  0  0
 21 19  1  0  0  0  0
 23 24  1  0  0  0  0
 23 25  1  0  0  0  0
 26 23  1  0  0  0  0
 27 29  1  0  0  0  0
 27  6  1  0  0  0  0
 28 27  1  0  0  0  0
 30 31  1  0  0  0  0
 30 33  1  0  0  0  0
 32 30  1  0  0  0  0
 34 37  1  0  0  0  0
 34 35  1  0  0  0  0
 36 34  1  0  0  0  0
 38 12  1  0  0  0  0
 39 38  1  0  0  0  0
 40 41  1  0  0  0  0
 40 38  2  0  0  0  0
 42 40  1  0  0  0  0
 43 42  1  0  0  0  0
 43 44  1  0  0  0  0
 45 43  2  0  0  0  0
 46 45  1  0  0  0  0
 47 48  2  0  0  0  0
 47 45  1  0  0  0  0
 48 50  1  0  0  0  0
 49 48  1  0  0  0  0
 50 51  1  0  0  0  0
 50 42  2  0  0  0  0
M  END
$$$$
