CSD_code = KIDRIY | q = -1 | S = 0 | Stoichiometry = C4H6CoI2N4O4(1-) | MND = 6
 OpenBabel04212202063D

 21 22  0  0  0  0  0  0  0  0999 V2000
    4.1434    2.3385    0.0485 I   0  0  0  0  0  0  0  0  0  0  0  0
    6.6826    2.9250    0.0000 Co  0  0  0  0  0  0  0  0  0  0  0  0
    6.3828    4.3268    1.2322 N   0  0  0  0  0  0  0  0  0  0  0  0
    7.0164    1.5932    1.2831 N   0  0  0  0  0  0  0  0  0  0  0  0
    7.0150    1.7247    2.6324 O   0  0  0  0  0  0  0  0  0  0  0  0
    6.4354    4.2080    2.5033 O   0  0  0  0  0  1  0  0  0  0  0  0
    7.2705    0.4399    0.7674 C   0  0  0  0  0  0  0  0  0  0  0  0
    6.1127    5.4585    0.6479 C   0  0  0  0  0  0  0  0  0  0  0  0
    7.4832   -0.4220    1.3869 H   0  0  0  0  0  0  0  0  0  0  0  0
    5.9177    6.3581    1.2160 H   0  0  0  0  0  0  0  0  0  0  0  0
    6.7882    2.7189    2.7924 H   0  0  0  0  0  0  0  0  0  0  0  0
    9.2225    3.5117   -0.0491 I   0  0  0  0  0  0  0  0  0  0  0  0
    6.9820    1.5231   -1.2322 N   0  0  0  0  0  0  0  0  0  0  0  0
    6.3485    4.2568   -1.2830 N   0  0  0  0  0  0  0  0  0  0  0  0
    7.2522    0.3914   -0.6478 C   0  0  0  0  0  0  0  0  0  0  0  0
    6.0944    5.4101   -0.7673 C   0  0  0  0  0  0  0  0  0  0  0  0
    6.9295    1.6419   -2.5033 O   0  0  0  0  0  1  0  0  0  0  0  0
    6.3498    4.1253   -2.6323 O   0  0  0  0  0  0  0  0  0  0  0  0
    7.4473   -0.5081   -1.2159 H   0  0  0  0  0  0  0  0  0  0  0  0
    5.8817    6.2720   -1.3868 H   0  0  0  0  0  0  0  0  0  0  0  0
    6.5767    3.1311   -2.7923 H   0  0  0  0  0  0  0  0  0  0  0  0
  2  1  1  0  0  0  0
  2  3  1  0  0  0  0
  2  4  1  0  0  0  0
  3  6  1  0  0  0  0
  4  5  1  0  0  0  0
  5 11  1  0  0  0  0
  7  4  1  0  0  0  0
  7  9  1  0  0  0  0
  8 10  1  0  0  0  0
  8  3  1  0  0  0  0
 12  2  1  0  0  0  0
 13 15  1  0  0  0  0
 13  2  1  0  0  0  0
 14 16  1  0  0  0  0
 14  2  1  0  0  0  0
 15  7  2  0  0  0  0
 16  8  2  0  0  0  0
 17 13  1  0  0  0  0
 18 14  1  0  0  0  0
 19 15  1  0  0  0  0
 20 16  1  0  0  0  0
 21 18  1  0  0  0  0
M  END
$$$$
