CSD_code = KIFCOS | q = 0 | S = 0 | Stoichiometry = C24H21ClN3O3ReS2 | MND = 6
 OpenBabel04212202063D

 55 59  0  0  1  0  0  0  0  0999 V2000
    0.2300    0.8495   10.0965 Cl  0  0  0  0  0  0  0  0  0  0  0  0
    2.8451    3.4997    9.4107 O   0  0  0  0  0  1  0  0  0  0  0  0
   -1.4954    4.1458    9.1578 O   0  0  0  0  0  1  0  0  0  0  0  0
    1.0444   -1.1949   14.7788 C   0  0  0  0  0  0  0  0  0  0  0  0
    0.3220   -0.8276   15.5096 H   0  0  0  0  0  0  0  0  0  0  0  0
    1.9215   -1.5614   15.3112 H   0  0  0  0  0  0  0  0  0  0  0  0
    0.6078   -2.0214   14.2132 H   0  0  0  0  0  0  0  0  0  0  0  0
    5.3747    5.5077   11.7290 C   0  0  0  0  0  0  0  0  0  0  0  0
    5.3769    5.8226   10.6859 H   0  0  0  0  0  0  0  0  0  0  0  0
    6.3729    5.6751   12.1324 H   0  0  0  0  0  0  0  0  0  0  0  0
    4.6604    6.1185   12.2752 H   0  0  0  0  0  0  0  0  0  0  0  0
    5.1637    0.1717   11.2697 C   0  0  0  0  0  0  0  0  0  0  0  0
    5.8558   -0.2904   11.9758 H   0  0  0  0  0  0  0  0  0  0  0  0
    5.6077    0.1151   10.2780 H   0  0  0  0  0  0  0  0  0  0  0  0
    4.2368   -0.3977   11.2730 H   0  0  0  0  0  0  0  0  0  0  0  0
    5.7375   -3.8024   14.5463 C   0  0  0  0  0  0  0  0  0  0  0  0
    5.9069   -4.1446   15.5670 H   0  0  0  0  0  0  0  0  0  0  0  0
    6.6853   -3.8672   14.0127 H   0  0  0  0  0  0  0  0  0  0  0  0
    5.0201   -4.4642   14.0671 H   0  0  0  0  0  0  0  0  0  0  0  0
    1.9623    3.3614   10.1262 C   0  0  0  0  0  2  0  0  0  0  0  0
   -0.7576    3.7541    9.9416 C   0  0  0  0  0  2  0  0  0  0  0  0
    0.4273    2.9305   11.2477 Re  0  0  0  0  0  0  0  0  0  0  0  0
    5.9768    2.8391   11.1147 S   0  0  0  0  0  0  0  0  0  0  0  0
    6.1622   -1.1190   15.2379 S   0  0  0  0  0  0  0  0  0  0  0  0
    0.6121    5.4708   12.9966 O   0  0  0  0  0  1  0  0  0  0  0  0
   -1.1476    1.9822   12.4319 N   0  0  0  0  0  0  0  0  0  0  0  0
    1.4464    1.6771   12.6431 N   0  0  0  0  0  0  0  0  0  0  0  0
    1.4547   -0.1301   13.9057 N   0  0  0  0  0  0  0  0  0  0  0  0
   -2.4442    2.2025   12.2599 C   0  0  0  0  0  3  0  0  0  0  0  0
   -2.7086    3.0981   11.7125 H   0  0  0  0  0  0  0  0  0  0  0  0
   -3.4286    1.3531   12.7328 C   0  0  0  0  0  0  0  0  0  0  0  0
   -4.4678    1.5769   12.5559 H   0  0  0  0  0  0  0  0  0  0  0  0
   -3.0411    0.2072   13.4098 C   0  0  0  0  0  0  0  0  0  0  0  0
   -3.7742   -0.4988   13.7696 H   0  0  0  0  0  0  0  0  0  0  0  0
   -1.6947   -0.0246   13.6154 C   0  0  0  0  0  0  0  0  0  0  0  0
   -1.3822   -0.9189   14.1241 H   0  0  0  0  0  0  0  0  0  0  0  0
   -0.7588    0.8874   13.1250 C   0  0  0  0  0  0  0  0  0  0  0  0
    0.6779    0.7782   13.2545 C   0  0  2  0  0  3  0  0  0  0  0  0
    2.7378    1.3467   12.8756 C   0  0  0  0  0  0  0  0  0  0  0  0
    2.7632    0.2116   13.6676 C   0  0  0  0  0  0  0  0  0  0  0  0
    4.9913    4.0767   11.8335 C   0  0  0  0  0  0  0  0  0  0  0  0
    3.9005    3.5367   12.4272 C   0  0  0  0  0  0  0  0  0  0  0  0
    3.1528    4.1175   12.9376 H   0  0  0  0  0  0  0  0  0  0  0  0
    3.8404    2.1160   12.3220 C   0  0  0  0  0  0  0  0  0  0  0  0
    4.8949    1.5881   11.6318 C   0  0  0  0  0  0  0  0  0  0  0  0
    5.2269   -2.4068   14.5374 C   0  0  0  0  0  0  0  0  0  0  0  0
    4.0635   -1.9348   14.0290 C   0  0  0  0  0  0  0  0  0  0  0  0
    3.3489   -2.5580   13.5202 H   0  0  0  0  0  0  0  0  0  0  0  0
    3.9027   -0.5247   14.1811 C   0  0  0  0  0  0  0  0  0  0  0  0
    4.9628    0.0601   14.8196 C   0  0  0  0  0  0  0  0  0  0  0  0
    5.1717    1.4874   15.1741 C   0  0  0  0  0  0  0  0  0  0  0  0
    5.8203    1.9727   14.4438 H   0  0  0  0  0  0  0  0  0  0  0  0
    5.6448    1.5714   16.1509 H   0  0  0  0  0  0  0  0  0  0  0  0
    4.2234    2.0197   15.1870 H   0  0  0  0  0  0  0  0  0  0  0  0
    0.5444    4.5310   12.3321 C   0  0  0  0  0  2  0  0  0  0  0  0
  1 22  1  0  0  0  0
  2 20  1  0  0  0  0
  3 21  1  0  0  0  0
  4  6  1  0  0  0  0
  4  5  1  0  0  0  0
  7  4  1  0  0  0  0
  8 41  1  0  0  0  0
  8 10  1  0  0  0  0
  8 11  1  0  0  0  0
  9  8  1  0  0  0  0
 12 15  1  0  0  0  0
 12 45  1  0  0  0  0
 12 13  1  0  0  0  0
 14 12  1  0  0  0  0
 16 17  1  0  0  0  0
 18 16  1  0  0  0  0
 19 16  1  0  0  0  0
 20 22  1  0  0  0  0
 21 22  1  0  0  0  0
 22 55  1  0  0  0  0
 22 26  1  0  0  0  0
 22 27  1  0  0  0  0
 23 45  1  0  0  0  0
 23 41  1  0  0  0  0
 26 37  1  0  0  0  0
 27 39  1  0  0  0  0
 27 38  1  0  0  0  0
 28  4  1  0  0  0  0
 29 26  1  0  0  0  0
 29 31  1  0  0  0  0
 30 29  1  0  0  0  0
 31 33  2  0  0  0  0
 32 31  1  0  0  0  0
 33 35  1  0  0  0  0
 33 34  1  0  0  0  0
 35 36  1  0  0  0  0
 37 35  2  0  0  0  0
 38 37  1  6  0  0  0
 38 28  1  0  0  0  0
 39 40  2  0  0  0  0
 40 28  1  0  0  0  0
 40 49  1  0  0  0  0
 41 42  2  0  0  0  0
 42 43  1  0  0  0  0
 44 42  1  0  0  0  0
 44 39  1  0  0  0  0
 45 44  2  0  0  0  0
 46 16  1  0  0  0  0
 46 24  1  0  0  0  0
 47 49  1  0  0  0  0
 47 46  2  0  0  0  0
 48 47  1  0  0  0  0
 49 50  2  0  0  0  0
 50 51  1  0  0  0  0
 50 24  1  0  0  0  0
 51 54  1  0  0  0  0
 51 53  1  0  0  0  0
 52 51  1  0  0  0  0
 55 25  1  0  0  0  0
M  END
$$$$
