CSD_code = KIFNEV | q = 0 | S = 0 | Stoichiometry = C14H15ClN2O4Zn | MND = 5
 OpenBabel04212202063D

 37 40  0  0  1  0  0  0  0  0999 V2000
    2.8083    5.1981    7.9655 Zn  0  0  0  0  0  0  0  0  0  0  0  0
    1.7609    3.7092    9.0749 Cl  0  0  0  0  0  0  0  0  0  0  0  0
    4.5643    5.8816    8.5971 O   0  0  0  0  0  0  0  0  0  0  0  0
    3.7421    4.2816    6.1012 O   0  0  0  0  0  0  0  0  0  0  0  0
    4.6975    4.3485    6.2195 H   0  0  0  0  0  0  0  0  0  0  0  0
    0.2571    6.8332    4.7767 O   0  0  0  0  0  0  0  0  0  0  0  0
   -0.0328    3.5007    4.5230 O   0  0  0  0  0  0  0  0  0  0  0  0
   -0.4856    4.1678    3.9923 H   0  0  0  0  0  0  0  0  0  0  0  0
    2.5898    7.1390    7.3571 N   0  0  0  0  0  0  0  0  0  0  0  0
    1.1879    5.3044    6.2148 N   0  0  0  0  0  0  0  0  0  0  0  0
    0.4730    4.5953    6.3765 H   0  0  0  0  0  0  0  0  0  0  0  0
    3.6165    7.8800    7.7788 C   0  0  1  0  0  3  0  0  0  0  0  0
    4.6565    7.1622    8.4632 C   0  0  0  0  0  0  0  0  0  0  0  0
    5.7340    7.9309    8.9059 C   0  0  0  0  0  0  0  0  0  0  0  0
    6.5377    7.4398    9.4315 H   0  0  0  0  0  0  0  0  0  0  0  0
    5.7805    9.3035    8.6779 C   0  0  0  0  0  0  0  0  0  0  0  0
    6.6343    9.8538    9.0474 H   0  0  0  0  0  0  0  0  0  0  0  0
    4.7968    9.9816    7.9910 C   0  0  0  0  0  0  0  0  0  0  0  0
    4.8728   11.0429    7.8120 H   0  0  0  0  0  0  0  0  0  0  0  0
    3.6867    9.2732    7.5117 C   0  0  0  0  0  0  0  0  0  0  0  0
    2.6224    9.8136    6.7557 C   0  0  0  0  0  0  0  0  0  0  0  0
    2.6240   10.8704    6.5299 H   0  0  0  0  0  0  0  0  0  0  0  0
    1.6119    9.0074    6.2934 C   0  0  0  0  0  0  0  0  0  0  0  0
    0.8080    9.3915    5.6855 H   0  0  0  0  0  0  0  0  0  0  0  0
    1.6320    7.6427    6.6198 C   0  0  0  0  0  0  0  0  0  0  0  0
    0.6054    6.6342    6.1350 C   0  0  1  0  0  0  0  0  0  0  0  0
   -0.3116    6.7174    6.7288 H   0  0  0  0  0  0  0  0  0  0  0  0
    1.2718    6.2114    4.0235 C   0  0  0  0  0  0  0  0  0  0  0  0
    2.0759    6.9233    3.7930 H   0  0  0  0  0  0  0  0  0  0  0  0
    0.8320    5.8686    3.0847 H   0  0  0  0  0  0  0  0  0  0  0  0
    1.8075    5.0523    4.9135 C   0  0  0  0  0  0  0  0  0  0  0  0
    3.3422    5.0917    5.0148 C   0  0  0  0  0  0  0  0  0  0  0  0
    3.7714    4.7089    4.0795 H   0  0  0  0  0  0  0  0  0  0  0  0
    3.6756    6.1259    5.1632 H   0  0  0  0  0  0  0  0  0  0  0  0
    1.3520    3.6645    4.4169 C   0  0  0  0  0  0  0  0  0  0  0  0
    1.7017    3.5095    3.3864 H   0  0  0  0  0  0  0  0  0  0  0  0
    1.7932    2.9018    5.0632 H   0  0  0  0  0  0  0  0  0  0  0  0
  1  3  1  0  0  0  0
  1  2  1  0  0  0  0
  4  5  1  0  0  0  0
  6 26  1  0  0  0  0
  8  7  1  0  0  0  0
  9 12  1  0  0  0  0
  9  1  1  0  0  0  0
 10 11  1  0  0  0  0
 12 20  1  6  0  0  0
 12 13  1  0  0  0  0
 13  3  1  0  0  0  0
 13 14  2  0  0  0  0
 14 15  1  0  0  0  0
 16 14  1  0  0  0  0
 16 17  1  0  0  0  0
 18 16  2  0  0  0  0
 19 18  1  0  0  0  0
 20 18  1  0  0  0  0
 21 20  2  0  0  0  0
 22 21  1  0  0  0  0
 23 25  2  0  0  0  0
 23 21  1  0  0  0  0
 24 23  1  0  0  0  0
 25  9  1  0  0  0  0
 26 10  1  0  0  0  0
 26 25  1  0  0  0  0
 26 27  1  1  0  0  0
 28  6  1  0  0  0  0
 28 31  1  0  0  0  0
 29 28  1  0  0  0  0
 30 28  1  0  0  0  0
 31 32  1  0  0  0  0
 31 10  1  0  0  0  0
 32 34  1  0  0  0  0
 32  4  1  0  0  0  0
 33 32  1  0  0  0  0
 35  7  1  0  0  0  0
 35 31  1  0  0  0  0
 35 37  1  0  0  0  0
 36 35  1  0  0  0  0
M  END
$$$$
