CSD_code = KIGGEO | q = 0 | S = 0 | Stoichiometry = C10H11ClN2Pt | MND = 4
 OpenBabel04212202063D

 25 27  0  0  0  0  0  0  0  0999 V2000
    2.0161    4.8666    1.5027 C   0  0  0  0  0  0  0  0  0  0  0  0
    0.7619    4.3749    1.1326 C   0  0  0  0  0  0  0  0  0  0  0  0
   -0.2391    5.2981    0.8306 C   0  0  0  0  0  0  0  0  0  0  0  0
   -1.2285    4.9755    0.5390 H   0  0  0  0  0  0  0  0  0  0  0  0
    0.0521    6.6560    0.9104 C   0  0  0  0  0  0  0  0  0  0  0  0
   -0.7275    7.3662    0.6755 H   0  0  0  0  0  0  0  0  0  0  0  0
    1.3030    7.1395    1.2800 C   0  0  0  0  0  0  0  0  0  0  0  0
    1.4762    8.2052    1.3272 H   0  0  0  0  0  0  0  0  0  0  0  0
    2.3147    6.2289    1.5849 C   0  0  0  0  0  0  0  0  0  0  0  0
    0.7725    2.9324    1.1443 C   0  0  0  0  0  3  0  0  0  0  0  0
   -0.1086    2.3469    0.8834 H   0  0  0  0  0  0  0  0  0  0  0  0
    1.9507    0.9047    1.5073 C   0  0  0  0  0  0  0  0  0  0  0  0
    2.2407    0.5813    2.5095 H   0  0  0  0  0  0  0  0  0  0  0  0
    2.7368    0.5738    0.8248 H   0  0  0  0  0  0  0  0  0  0  0  0
    1.0001    0.4390    1.2291 H   0  0  0  0  0  0  0  0  0  0  0  0
    3.6862    6.4112    1.9933 C   0  0  0  0  0  0  0  0  0  0  0  0
    4.1245    7.4011    2.1170 H   0  0  0  0  0  0  0  0  0  0  0  0
    5.7688    5.4650    2.6248 C   0  0  0  0  0  0  0  0  0  0  0  0
    6.0906    6.5093    2.6899 H   0  0  0  0  0  0  0  0  0  0  0  0
    6.4015    4.9269    1.9152 H   0  0  0  0  0  0  0  0  0  0  0  0
    5.8934    4.9803    3.5960 H   0  0  0  0  0  0  0  0  0  0  0  0
    5.0526    2.0956    2.4342 Cl  0  0  0  0  0  0  0  0  0  0  0  0
    1.8766    2.3393    1.4783 N   0  0  0  0  0  0  0  0  0  0  0  0
    4.3970    5.3488    2.2135 N   0  0  0  0  0  0  0  0  0  0  0  0
    3.3964    3.6072    1.9254 Pt  0  0  1  0  0  0  0  0  0  0  0  0
  1  9  1  0  0  0  0
  1 25  2  0  0  0  0
  2 10  1  0  0  0  0
  2  1  1  0  0  0  0
  3  5  1  0  0  0  0
  3  2  2  0  0  0  0
  4  3  1  0  0  0  0
  5  7  2  0  0  0  0
  6  5  1  0  0  0  0
  7  8  1  0  0  0  0
  7  9  1  0  0  0  0
  9 16  2  0  0  0  0
 10 23  1  0  0  0  0
 11 10  1  0  0  0  0
 12 13  1  0  0  0  0
 14 12  1  0  0  0  0
 15 12  1  0  0  0  0
 16 17  1  0  0  0  0
 16 24  1  0  0  0  0
 18 19  1  0  0  0  0
 18 21  1  0  0  0  0
 20 18  1  0  0  0  0
 23 12  1  0  0  0  0
 23 25  1  0  0  0  0
 24 18  1  0  0  0  0
 25 24  1  0  0  0  0
 25 22  1  1  0  0  0
M  END
$$$$
