CSD_code = KIGSEB | q = 0 | S = 0 | Stoichiometry = C29H33ClN2O2Os | MND = 9
 OpenBabel04212202063D

 68 71  0  0  1  0  0  0  0  0999 V2000
   -3.6069    3.9945    9.2869 Os  0  0  0  0  0  0  0  0  0  0  0  0
   -3.5512    2.0977    8.0415 Cl  0  0  0  0  0 15  0  0  0  0  0  0
    0.7631    2.0683   12.7096 O   0  0  0  0  0  0  0  0  0  0  0  0
    0.3539    0.4314   14.1869 O   0  0  0  0  0  0  0  0  0  0  0  0
   -4.0692    2.8697   10.8590 N   0  0  0  0  0  0  0  0  0  0  0  0
   -5.4705    1.6730   12.1216 N   0  0  0  0  0  0  0  0  0  0  0  0
   -1.7618    5.2713    7.6511 C   0  0  0  0  0  0  0  0  0  0  0  0
   -2.9159    5.9905    7.9197 C   0  0  0  0  0  0  0  0  0  0  0  0
   -3.4708    6.4428    7.1061 H   0  0  0  0  0  0  0  0  0  0  0  0
   -3.3836    6.1513    9.2548 C   0  0  2  0  0  0  0  0  0  0  0  0
   -4.1997    6.8425    9.4377 H   0  0  0  0  0  0  0  0  0  0  0  0
   -2.5792    5.6881   10.3465 C   0  0  1  0  0  3  0  0  0  0  0  0
   -1.3131    5.1245   10.0378 C   0  0  0  0  0  0  0  0  0  0  0  0
   -0.6328    4.8925   10.8469 H   0  0  0  0  0  0  0  0  0  0  0  0
   -0.9450    4.8615    8.7393 C   0  0  0  0  0  0  0  0  0  0  0  0
    0.0005    4.3826    8.5285 H   0  0  0  0  0  0  0  0  0  0  0  0
   -1.3142    4.9919    6.2498 C   0  0  0  0  0  0  0  0  0  0  0  0
   -1.4670    3.9359    6.0216 H   0  0  0  0  0  0  0  0  0  0  0  0
   -0.2532    5.2093    6.1325 H   0  0  0  0  0  0  0  0  0  0  0  0
   -1.8808    5.5807    5.5316 H   0  0  0  0  0  0  0  0  0  0  0  0
   -2.8498    6.1134   11.7763 C   0  0  0  0  0  0  0  0  0  0  0  0
   -2.3776    5.3779   12.4391 H   0  0  0  0  0  0  0  0  0  0  0  0
   -4.3393    6.1723   12.1164 C   0  0  0  0  0  0  0  0  0  0  0  0
   -4.8195    7.0175   11.6299 H   0  0  0  0  0  0  0  0  0  0  0  0
   -4.4685    6.2854   13.1904 H   0  0  0  0  0  0  0  0  0  0  0  0
   -4.8410    5.2606   11.7947 H   0  0  0  0  0  0  0  0  0  0  0  0
   -2.1920    7.4761   12.0249 C   0  0  0  0  0  0  0  0  0  0  0  0
   -2.6222    8.2286   11.3668 H   0  0  0  0  0  0  0  0  0  0  0  0
   -1.1216    7.4277   11.8372 H   0  0  0  0  0  0  0  0  0  0  0  0
   -2.3483    7.7881   13.0549 H   0  0  0  0  0  0  0  0  0  0  0  0
   -5.3592    2.5479   11.0723 C   0  0  1  0  0  3  0  0  0  0  0  0
   -4.2064    1.4310   12.5884 C   0  0  0  0  0  0  0  0  0  0  0  0
   -3.7220    0.6303   13.6180 C   0  0  0  0  0  0  0  0  0  0  0  0
   -4.3811    0.0455   14.2397 H   0  0  0  0  0  0  0  0  0  0  0  0
   -2.3611    0.6023   13.8306 C   0  0  0  0  0  0  0  0  0  0  0  0
   -1.9529   -0.0044   14.6226 H   0  0  0  0  0  0  0  0  0  0  0  0
   -1.4803    1.3517   13.0356 C   0  0  0  0  0  0  0  0  0  0  0  0
   -1.9558    2.1459   11.9984 C   0  0  0  0  0  0  0  0  0  0  0  0
   -1.2628    2.6938   11.3818 H   0  0  0  0  0  0  0  0  0  0  0  0
   -3.3213    2.1868   11.7804 C   0  0  0  0  0  0  0  0  0  0  0  0
   -6.6833    1.1460   12.6923 C   0  0  0  0  0  0  0  0  0  0  0  0
   -6.4237    0.2576   13.2698 H   0  0  0  0  0  0  0  0  0  0  0  0
   -7.3445    0.8363   11.8798 H   0  0  0  0  0  0  0  0  0  0  0  0
   -7.3810    2.1787   13.5866 C   0  0  0  0  0  0  0  0  0  0  0  0
   -7.4774    3.1091   13.0242 H   0  0  0  0  0  0  0  0  0  0  0  0
   -8.3844    1.8185   13.8204 H   0  0  0  0  0  0  0  0  0  0  0  0
   -6.6260    2.4555   14.8880 C   0  0  0  0  0  0  0  0  0  0  0  0
   -5.5660    2.6004   14.6702 H   0  0  0  0  0  0  0  0  0  0  0  0
   -7.0020    3.3865   15.3165 H   0  0  0  0  0  0  0  0  0  0  0  0
   -6.7958    1.3445   15.9179 C   0  0  0  0  0  0  0  0  0  0  0  0
   -6.4399    0.3901   15.5384 H   0  0  0  0  0  0  0  0  0  0  0  0
   -7.8442    1.2323   16.1857 H   0  0  0  0  0  0  0  0  0  0  0  0
   -6.2356    1.5777   16.8200 H   0  0  0  0  0  0  0  0  0  0  0  0
   -0.0227    1.3398   13.2698 C   0  0  0  0  0  0  0  0  0  0  0  0
    1.7449    0.3681   14.4547 C   0  0  0  0  0  0  0  0  0  0  0  0
    2.2998    0.1624   13.5368 H   0  0  0  0  0  0  0  0  0  0  0  0
    1.8810   -0.4371   15.1723 H   0  0  0  0  0  0  0  0  0  0  0  0
    2.0959    1.3154   14.8701 H   0  0  0  0  0  0  0  0  0  0  0  0
   -6.2941    3.1905   10.1946 C   0  0  0  0  0  0  0  0  0  0  0  0
   -7.6903    3.0978   10.1920 C   0  0  0  0  0  0  0  0  0  0  0  0
   -8.2111    2.4713   10.8982 H   0  0  0  0  0  0  0  0  0  0  0  0
   -8.4231    3.8105    9.2694 C   0  0  0  0  0  0  0  0  0  0  0  0
   -9.5006    3.7359    9.2656 H   0  0  0  0  0  0  0  0  0  0  0  0
   -7.7806    4.6183    8.3377 C   0  0  0  0  0  0  0  0  0  0  0  0
   -8.3650    5.1665    7.6124 H   0  0  0  0  0  0  0  0  0  0  0  0
   -6.4025    4.7143    8.3306 C   0  0  0  0  0  0  0  0  0  0  0  0
   -5.9265    5.3363    7.5845 H   0  0  0  0  0  0  0  0  0  0  0  0
   -5.6210    4.0178    9.2470 C   0  0  0  0  0  0  0  0  0  0  0  0
  1  5  1  0  0  0  0
  3 54  2  0  0  0  0
  4 55  1  0  0  0  0
  5 31  1  0  0  0  0
  5 40  1  0  0  0  0
  6 32  1  0  0  0  0
  6 41  1  0  0  0  0
  7  8  2  0  0  0  0
  7 15  1  0  0  0  0
  8 10  1  0  0  0  0
  9  8  1  0  0  0  0
 10  1  1  0  0  0  0
 10 11  1  1  0  0  0
 10 12  1  0  0  0  0
 12 21  1  1  0  0  0
 13 12  1  0  0  0  0
 13 14  1  0  0  0  0
 15 13  2  0  0  0  0
 16 15  1  0  0  0  0
 17  7  1  0  0  0  0
 18 17  1  0  0  0  0
 19 17  1  0  0  0  0
 20 17  1  0  0  0  0
 21 27  1  0  0  0  0
 21 23  1  0  0  0  0
 21 22  1  0  0  0  0
 23 25  1  0  0  0  0
 24 23  1  0  0  0  0
 26 23  1  0  0  0  0
 27 30  1  0  0  0  0
 28 27  1  0  0  0  0
 29 27  1  0  0  0  0
 31 59  1  1  0  0  0
 31  6  1  0  0  0  0
 32 33  1  0  0  0  0
 33 35  2  0  0  0  0
 33 34  1  0  0  0  0
 35 36  1  0  0  0  0
 37 54  1  0  0  0  0
 37 35  1  0  0  0  0
 38 37  2  0  0  0  0
 39 38  1  0  0  0  0
 40 38  1  0  0  0  0
 40 32  2  0  0  0  0
 41 42  1  0  0  0  0
 41 44  1  0  0  0  0
 43 41  1  0  0  0  0
 44 46  1  0  0  0  0
 44 47  1  0  0  0  0
 45 44  1  0  0  0  0
 47 49  1  0  0  0  0
 47 50  1  0  0  0  0
 48 47  1  0  0  0  0
 50 52  1  0  0  0  0
 50 53  1  0  0  0  0
 51 50  1  0  0  0  0
 54  4  1  0  0  0  0
 55 58  1  0  0  0  0
 55 57  1  0  0  0  0
 56 55  1  0  0  0  0
 60 59  1  0  0  0  0
 60 61  1  0  0  0  0
 62 60  2  0  0  0  0
 63 62  1  0  0  0  0
 64 62  1  0  0  0  0
 65 64  1  0  0  0  0
 66 64  2  0  0  0  0
 66 68  1  0  0  0  0
 67 66  1  0  0  0  0
 68  1  1  0  0  0  0
 68 59  2  0  0  0  0
M  END
$$$$
