CSD_code = KIHHUG | q = 0 | S = 0 | Stoichiometry = C21H17Cl2ORhS | MND = 8
 OpenBabel04212202063D

 43 45  0  0  1  0  0  0  0  0999 V2000
    2.2839    0.6670    0.9750 Rh  0  0  0  0  0  0  0  0  0  0  0  0
    1.8571    2.6705    1.9247 Cl  0  0  0  0  0 15  0  0  0  0  0  0
    0.6375    1.1727   -0.5067 Cl  0  0  0  0  0 15  0  0  0  0  0  0
    3.9118    1.5963   -0.3763 S   0  0  1  0  0  0  0  0  0  0  0  0
    4.0943    1.2511   -1.7720 O   0  0  0  0  0  0  0  0  0  0  0  0
    3.0622   -0.2051    2.8348 C   0  0  1  0  0  3  0  0  0  0  0  0
    1.7658   -0.7602    2.5512 C   0  0  2  0  0  0  0  0  0  0  0  0
    0.9359   -0.7586    3.2433 H   0  0  0  0  0  0  0  0  0  0  0  0
    1.8838   -1.6322    1.4039 C   0  0  0  0  0  0  0  0  0  0  0  0
    0.9982   -2.5202    0.7838 C   0  0  0  0  0  0  0  0  0  0  0  0
    0.0076   -2.6701    1.1856 H   0  0  0  0  0  0  0  0  0  0  0  0
    1.4241   -3.1913   -0.3403 C   0  0  0  0  0  0  0  0  0  0  0  0
    0.7570   -3.8848   -0.8291 H   0  0  0  0  0  0  0  0  0  0  0  0
    2.7056   -2.9977   -0.8715 C   0  0  0  0  0  0  0  0  0  0  0  0
    2.9937   -3.5435   -1.7567 H   0  0  0  0  0  0  0  0  0  0  0  0
    3.6021   -2.1306   -0.2881 C   0  0  0  0  0  0  0  0  0  0  0  0
    4.5919   -1.9841   -0.6959 H   0  0  0  0  0  0  0  0  0  0  0  0
    3.1981   -1.4363    0.8568 C   0  0  0  0  0  0  0  0  0  0  0  0
    3.8995   -0.4959    1.7302 C   0  0  1  0  0  0  0  0  0  0  0  0
    5.2516    0.0157    1.4443 C   0  0  0  0  0  0  0  0  0  0  0  0
    5.4099    0.9813    0.4756 C   0  0  0  0  0  0  0  0  0  0  0  0
    6.6799    1.4289    0.0917 C   0  0  0  0  0  0  0  0  0  0  0  0
    6.7636    2.1445   -0.7104 H   0  0  0  0  0  0  0  0  0  0  0  0
    7.7911    0.9453    0.7230 C   0  0  0  0  0  0  0  0  0  0  0  0
    8.7746    1.2903    0.4406 H   0  0  0  0  0  0  0  0  0  0  0  0
    7.6775   -0.0169    1.7497 C   0  0  0  0  0  0  0  0  0  0  0  0
    8.8095   -0.5288    2.4176 C   0  0  0  0  0  0  0  0  0  0  0  0
    9.7844   -0.1527    2.1440 H   0  0  0  0  0  0  0  0  0  0  0  0
    8.6779   -1.4825    3.3879 C   0  0  0  0  0  0  0  0  0  0  0  0
    9.5500   -1.8687    3.8937 H   0  0  0  0  0  0  0  0  0  0  0  0
    7.4088   -1.9734    3.7311 C   0  0  0  0  0  0  0  0  0  0  0  0
    7.3226   -2.7326    4.4939 H   0  0  0  0  0  0  0  0  0  0  0  0
    6.2900   -1.4983    3.1058 C   0  0  0  0  0  0  0  0  0  0  0  0
    5.3129   -1.8780    3.3646 H   0  0  0  0  0  0  0  0  0  0  0  0
    6.3933   -0.5047    2.1098 C   0  0  0  0  0  0  0  0  0  0  0  0
    3.4424    0.5487    4.0665 C   0  0  0  0  0  0  0  0  0  0  0  0
    4.4596    0.9260    3.9865 H   0  0  0  0  0  0  0  0  0  0  0  0
    3.3759   -0.1104    4.9324 H   0  0  0  0  0  0  0  0  0  0  0  0
    2.7679    1.3893    4.2244 H   0  0  0  0  0  0  0  0  0  0  0  0
    4.1883    3.3896   -0.2242 C   0  0  0  0  0  0  0  0  0  0  0  0
    3.2845    3.8710   -0.5833 H   0  0  0  0  0  0  0  0  0  0  0  0
    5.0351    3.6720   -0.8373 H   0  0  0  0  0  0  0  0  0  0  0  0
    4.3393    3.6186    0.8238 H   0  0  0  0  0  0  0  0  0  0  0  0
  1 19  1  0  0  0  0
  1  7  1  0  0  0  0
  4  5  2  6  0  0  0
  4 40  1  0  0  0  0
  4 21  1  0  0  0  0
  6 36  1  6  0  0  0
  7  6  1  0  0  0  0
  7  8  1  1  0  0  0
  9  7  1  0  0  0  0
 10 11  1  0  0  0  0
 10  9  2  0  0  0  0
 12 10  1  0  0  0  0
 13 12  1  0  0  0  0
 14 12  2  0  0  0  0
 14 16  1  0  0  0  0
 15 14  1  0  0  0  0
 16 18  2  0  0  0  0
 17 16  1  0  0  0  0
 18  9  1  0  0  0  0
 18 19  1  0  0  0  0
 19 20  1  6  0  0  0
 19  6  1  0  0  0  0
 20 35  1  0  0  0  0
 21 20  2  0  0  0  0
 22 21  1  0  0  0  0
 22 24  2  0  0  0  0
 23 22  1  0  0  0  0
 24 26  1  0  0  0  0
 25 24  1  0  0  0  0
 26 35  2  0  0  0  0
 26 27  1  0  0  0  0
 27 29  2  0  0  0  0
 28 27  1  0  0  0  0
 29 31  1  0  0  0  0
 29 30  1  0  0  0  0
 31 32  1  0  0  0  0
 33 34  1  0  0  0  0
 33 31  2  0  0  0  0
 35 33  1  0  0  0  0
 36 39  1  0  0  0  0
 36 38  1  0  0  0  0
 37 36  1  0  0  0  0
 40 43  1  0  0  0  0
 41 40  1  0  0  0  0
 42 40  1  0  0  0  0
M  END
$$$$
