CSD_code = KIHLIY | q = 0 | S = 0 | Stoichiometry = C22H26ClIrO2P2 | MND = 7
 OpenBabel04212202063D

 54 53  0  0  1  0  0  0  0  0999 V2000
    5.2346   11.5807   -0.3039 Ir  0  0  0  0  0  0  0  0  0  0  0  0
    6.2993   13.6172   -1.0287 Cl  0  0  0  0  0 15  0  0  0  0  0  0
    7.2580   10.5597   -0.6092 P   0  0  0  0  0  0  0  0  0  0  0  0
    5.6470   12.2964    1.9715 P   0  0  0  0  0  0  0  0  0  0  0  0
    3.5066   11.8395   -3.4824 O   0  0  0  0  0  0  0  0  0  0  0  0
    2.5557   10.2046    1.5073 O   0  0  0  0  0  0  0  0  0  0  0  0
    3.5812   11.5583   -2.2934 C   0  0  0  0  0  0  0  0  0  0  0  0
    4.1249   10.3096   -1.7696 C   0  0  0  0  0  3  0  0  0  0  0  0
    3.8549    9.8586   -0.4610 C   0  0  2  0  0  0  0  0  0  0  0  0
    3.0396   10.6329    0.4591 C   0  0  0  0  0  0  0  0  0  0  0  0
    2.9841   12.0568    0.0739 C   0  0  0  0  0  0  0  0  0  0  0  0
    3.2287   12.4880   -1.2051 C   0  0  0  0  0  0  0  0  0  0  0  0
    7.9838    9.8342    0.8984 C   0  0  0  0  0  0  0  0  0  0  0  0
    8.6129   11.4836   -1.4058 C   0  0  0  0  0  0  0  0  0  0  0  0
    7.2061    9.0717   -1.6804 C   0  0  0  0  0  0  0  0  0  0  0  0
    4.7795   11.4046    3.3073 C   0  0  0  0  0  0  0  0  0  0  0  0
    7.3637   12.4377    2.5728 C   0  0  0  0  0  0  0  0  0  0  0  0
    5.0878   14.0202    2.2502 C   0  0  0  0  0  0  0  0  0  0  0  0
    9.3212    9.9547    1.2488 C   0  0  0  0  0  0  0  0  0  0  0  0
    9.7948    9.3311    2.3906 C   0  0  0  0  0  0  0  0  0  0  0  0
    8.9431    8.5828    3.1843 C   0  0  0  0  0  0  0  0  0  0  0  0
    7.6061    8.4618    2.8402 C   0  0  0  0  0  0  0  0  0  0  0  0
    7.1294    9.0884    1.7049 C   0  0  0  0  0  0  0  0  0  0  0  0
    7.8255   11.8318    3.7340 C   0  0  0  0  0  0  0  0  0  0  0  0
    9.1406   12.0041    4.1304 C   0  0  0  0  0  0  0  0  0  0  0  0
   10.0040   12.7775    3.3748 C   0  0  0  0  0  0  0  0  0  0  0  0
    9.5478   13.3846    2.2156 C   0  0  0  0  0  0  0  0  0  0  0  0
    8.2357   13.2167    1.8155 C   0  0  0  0  0  0  0  0  0  0  0  0
    4.4968    9.6082   -2.5086 H   0  0  0  0  0  0  0  0  0  0  0  0
    4.0228    8.8169   -0.2065 H   0  0  0  0  0  0  0  0  0  0  0  0
    2.5416   12.7326    0.8001 H   0  0  0  0  0  0  0  0  0  0  0  0
    3.0276   13.5148   -1.4902 H   0  0  0  0  0  0  0  0  0  0  0  0
    9.4455   10.8154   -1.6233 H   0  0  0  0  0  0  0  0  0  0  0  0
    8.9282   12.3077   -0.7712 H   0  0  0  0  0  0  0  0  0  0  0  0
    8.2214   11.9017   -2.3320 H   0  0  0  0  0  0  0  0  0  0  0  0
    8.1896    8.6026   -1.6904 H   0  0  0  0  0  0  0  0  0  0  0  0
    6.9348    9.3727   -2.6904 H   0  0  0  0  0  0  0  0  0  0  0  0
    6.4749    8.3619   -1.3026 H   0  0  0  0  0  0  0  0  0  0  0  0
    3.7436   11.2401    3.0084 H   0  0  0  0  0  0  0  0  0  0  0  0
    4.8058   11.9811    4.2307 H   0  0  0  0  0  0  0  0  0  0  0  0
    4.0008   14.0579    2.2168 H   0  0  0  0  0  0  0  0  0  0  0  0
    5.4928   14.6518    1.4614 H   0  0  0  0  0  0  0  0  0  0  0  0
    5.4366   14.3709    3.2215 H   0  0  0  0  0  0  0  0  0  0  0  0
    9.9949   10.5408    0.6442 H   0  0  0  0  0  0  0  0  0  0  0  0
   10.8353    9.4313    2.6611 H   0  0  0  0  0  0  0  0  0  0  0  0
    9.3188    8.0974    4.0725 H   0  0  0  0  0  0  0  0  0  0  0  0
    6.9386    7.8791    3.4582 H   0  0  0  0  0  0  0  0  0  0  0  0
    6.0860    9.0103    1.4301 H   0  0  0  0  0  0  0  0  0  0  0  0
    7.1703   11.2227    4.3366 H   0  0  0  0  0  0  0  0  0  0  0  0
    9.4902   11.5320    5.0369 H   0  0  0  0  0  0  0  0  0  0  0  0
   11.0286   12.9089    3.6897 H   0  0  0  0  0  0  0  0  0  0  0  0
   10.2164   13.9941    1.6254 H   0  0  0  0  0  0  0  0  0  0  0  0
    7.8676   13.6869    0.9142 H   0  0  0  0  0  0  0  0  0  0  0  0
    5.2366   10.4293    3.4565 H   0  0  0  0  0  0  0  0  0  0  0  0
  3 13  1  0  0  0  0
  4 18  1  0  0  0  0
  4 17  1  0  0  0  0
  4 16  1  0  0  0  0
  5  7  2  0  0  0  0
  7  8  1  0  0  0  0
  7 12  1  0  0  0  0
  8  9  1  0  0  0  0
  9  1  1  0  0  0  0
  9 30  1  1  0  0  0
  9 10  1  0  0  0  0
 10  6  2  0  0  0  0
 11 10  1  0  0  0  0
 11 31  1  0  0  0  0
 12 11  2  0  0  0  0
 13 19  2  0  0  0  0
 13 23  1  0  0  0  0
 14 34  1  0  0  0  0
 14  3  1  0  0  0  0
 15 38  1  0  0  0  0
 15  3  1  0  0  0  0
 16 54  1  0  0  0  0
 16 40  1  0  0  0  0
 17 24  1  0  0  0  0
 18 43  1  0  0  0  0
 19 20  1  0  0  0  0
 20 45  1  0  0  0  0
 20 21  2  0  0  0  0
 21 46  1  0  0  0  0
 22 21  1  0  0  0  0
 22 47  1  0  0  0  0
 23 22  2  0  0  0  0
 24 25  2  0  0  0  0
 24 49  1  0  0  0  0
 25 50  1  0  0  0  0
 26 51  1  0  0  0  0
 26 25  1  0  0  0  0
 27 26  2  0  0  0  0
 28 27  1  0  0  0  0
 28 17  2  0  0  0  0
 29  8  1  0  0  0  0
 32 12  1  0  0  0  0
 33 14  1  0  0  0  0
 35 14  1  0  0  0  0
 36 15  1  0  0  0  0
 37 15  1  0  0  0  0
 39 16  1  0  0  0  0
 41 18  1  0  0  0  0
 42 18  1  0  0  0  0
 44 19  1  0  0  0  0
 48 23  1  0  0  0  0
 52 27  1  0  0  0  0
 53 28  1  0  0  0  0
M  END
$$$$
