CSD_code = KIHMUK | q = 0 | S = 0 | Stoichiometry = C12H19ClHgO4 | MND = 2
 OpenBabel04212202063D

 37 39  0  0  1  0  0  0  0  0999 V2000
   10.3135   22.3711    7.2865 Hg  0  0  0  0  0  0  0  0  0  0  0  0
   11.9905   21.1452    8.4593 Cl  0  0  0  0  0  0  0  0  0  0  0  0
   12.6554   23.2742    5.8843 O   0  0  0  0  0  0  0  0  0  0  0  0
   13.8829   25.1571    5.6125 O   0  0  0  0  0  0  0  0  0  0  0  0
   11.3725   23.8699    4.0333 O   0  0  0  0  0  0  0  0  0  0  0  0
   10.2989   24.8848    6.1422 O   0  0  0  0  0  0  0  0  0  0  0  0
   12.6348   23.5239    4.5059 C   0  0  1  0  0  0  0  0  0  0  0  0
   12.9393   22.6165    3.9652 H   0  0  0  0  0  0  0  0  0  0  0  0
   13.5591   24.7508    4.3072 C   0  0  1  0  0  0  0  0  0  0  0  0
   14.4663   24.5133    3.7380 H   0  0  0  0  0  0  0  0  0  0  0  0
   12.6680   25.7709    3.5965 C   0  0  0  0  0  0  0  0  0  0  0  0
   12.8363   25.7213    2.5213 H   0  0  0  0  0  0  0  0  0  0  0  0
   12.8678   26.7783    3.9519 H   0  0  0  0  0  0  0  0  0  0  0  0
   11.2527   25.2882    3.9411 C   0  0  2  0  0  0  0  0  0  0  0  0
   10.5479   25.4657    3.1230 H   0  0  0  0  0  0  0  0  0  0  0  0
   10.7021   25.9060    5.2690 C   0  0  1  0  0  0  0  0  0  0  0  0
   11.5078   26.4535    5.7667 H   0  0  0  0  0  0  0  0  0  0  0  0
    9.4366   26.7742    5.0599 C   0  0  0  0  0  0  0  0  0  0  0  0
    9.2821   26.9943    4.0046 H   0  0  0  0  0  0  0  0  0  0  0  0
    9.5269   27.7187    5.5931 H   0  0  0  0  0  0  0  0  0  0  0  0
    8.2974   25.9134    5.6363 C   0  0  0  0  0  0  0  0  0  0  0  0
    7.9962   26.2786    6.6183 H   0  0  0  0  0  0  0  0  0  0  0  0
    7.4253   25.8809    4.9883 H   0  0  0  0  0  0  0  0  0  0  0  0
    8.9665   24.5369    5.7790 C   0  0  2  0  0  0  0  0  0  0  0  0
    8.9824   24.0409    4.7972 H   0  0  0  0  0  0  0  0  0  0  0  0
    8.4536   23.5749    6.8285 C   0  0  0  0  0  0  0  0  0  0  0  0
    7.6121   22.9935    6.4577 H   0  0  0  0  0  0  0  0  0  0  0  0
    8.1603   24.1095    7.7334 H   0  0  0  0  0  0  0  0  0  0  0  0
   13.6833   24.0615    6.4887 C   0  0  0  0  0  0  0  0  0  0  0  0
   14.9519   23.2113    6.6204 C   0  0  0  0  0  0  0  0  0  0  0  0
   14.7244   22.3391    7.2261 H   0  0  0  0  0  0  0  0  0  0  0  0
   15.7356   23.7946    7.0942 H   0  0  0  0  0  0  0  0  0  0  0  0
   15.2921   22.8832    5.6409 H   0  0  0  0  0  0  0  0  0  0  0  0
   13.2301   24.5838    7.8452 C   0  0  0  0  0  0  0  0  0  0  0  0
   12.2724   25.0873    7.7420 H   0  0  0  0  0  0  0  0  0  0  0  0
   13.9702   25.2844    8.2199 H   0  0  0  0  0  0  0  0  0  0  0  0
   13.1281   23.7514    8.5354 H   0  0  0  0  0  0  0  0  0  0  0  0
  1  2  1  0  0  0  0
  3 29  1  0  0  0  0
  4 29  1  0  0  0  0
  5  7  1  0  0  0  0
  7  8  1  6  0  0  0
  7  3  1  0  0  0  0
  9 10  1  6  0  0  0
  9  7  1  0  0  0  0
  9  4  1  0  0  0  0
 11 14  1  0  0  0  0
 11 13  1  0  0  0  0
 11  9  1  0  0  0  0
 12 11  1  0  0  0  0
 14 15  1  6  0  0  0
 14  5  1  0  0  0  0
 14 16  1  0  0  0  0
 16 17  1  1  0  0  0
 16  6  1  0  0  0  0
 18 16  1  0  0  0  0
 18 20  1  0  0  0  0
 18 21  1  0  0  0  0
 19 18  1  0  0  0  0
 21 24  1  0  0  0  0
 21 22  1  0  0  0  0
 23 21  1  0  0  0  0
 24 25  1  6  0  0  0
 24  6  1  0  0  0  0
 24 26  1  0  0  0  0
 26  1  1  0  0  0  0
 26 28  1  0  0  0  0
 27 26  1  0  0  0  0
 29 30  1  0  0  0  0
 29 34  1  0  0  0  0
 30 32  1  0  0  0  0
 30 31  1  0  0  0  0
 33 30  1  0  0  0  0
 34 36  1  0  0  0  0
 34 37  1  0  0  0  0
 35 34  1  0  0  0  0
M  END
$$$$
