CSD_code = KIHQUN | q = 0 | S = 0 | Stoichiometry = C25H18Cl2NOPPd | MND = 4
 OpenBabel04212202063D

 49 54  0  0  1  0  0  0  0  0999 V2000
    4.2547    8.2193    4.6531 Pd  0  0  1  0  0  0  0  0  0  0  0  0
    4.0819   10.2683    3.7800 Cl  0  0  0  0  0  0  0  0  0  0  0  0
    3.0283    6.6169    7.2987 C   0  0  0  0  0  0  0  0  0  0  0  0
    2.4617    7.9078    6.9968 C   0  0  2  0  0  3  0  0  0  0  0  0
    2.8343    8.6681    6.0528 O   0  0  0  0  0  0  0  0  0  0  0  0
    1.4200    8.3748    7.8581 C   0  0  0  0  0  0  0  0  0  0  0  0
    0.9870    9.3316    7.6095 H   0  0  0  0  0  0  0  0  0  0  0  0
    1.0009    7.6744    8.9470 C   0  0  0  0  0  0  0  0  0  0  0  0
    0.2186    8.0571    9.5842 H   0  0  0  0  0  0  0  0  0  0  0  0
    1.5984    6.4392    9.2504 C   0  0  0  0  0  0  0  0  0  0  0  0
    1.0658    5.5648   10.6486 Cl  0  0  0  0  0  0  0  0  0  0  0  0
    2.5804    5.9291    8.4538 C   0  0  0  0  0  0  0  0  0  0  0  0
    3.0212    4.9723    8.6930 H   0  0  0  0  0  0  0  0  0  0  0  0
    3.9959    5.9534    6.5110 C   0  0  0  0  0  0  0  0  0  0  0  0
    4.3378    5.0107    6.9414 H   0  0  0  0  0  0  0  0  0  0  0  0
    4.5010    6.3181    5.3622 N   0  0  0  0  0  0  0  0  0  0  0  0
    5.3729    5.4688    4.6693 C   0  0  0  0  0  0  0  0  0  0  0  0
    6.1910    6.0134    3.6600 C   0  0  0  0  0  0  0  0  0  0  0  0
    7.1163    5.2277    2.9892 C   0  0  0  0  0  0  0  0  0  0  0  0
    7.7461    5.6807    2.2369 H   0  0  0  0  0  0  0  0  0  0  0  0
    7.2186    3.8769    3.2689 C   0  0  0  0  0  0  0  0  0  0  0  0
    7.9358    3.2641    2.7451 H   0  0  0  0  0  0  0  0  0  0  0  0
    6.3678    3.3138    4.2067 C   0  0  0  0  0  0  0  0  0  0  0  0
    6.4095    2.2528    4.4022 H   0  0  0  0  0  0  0  0  0  0  0  0
    5.4573    4.0908    4.8975 C   0  0  0  0  0  0  0  0  0  0  0  0
    4.7933    3.6061    5.5967 H   0  0  0  0  0  0  0  0  0  0  0  0
    5.9173    7.7724    3.2918 P   0  0  0  0  0  4  0  0  0  0  0  0
    7.4272    8.5764    3.9083 C   0  0  0  0  0  0  0  0  0  0  0  0
    8.6250    8.5954    3.2022 C   0  0  0  0  0  0  0  0  0  0  0  0
    8.6772    8.1571    2.2154 H   0  0  0  0  0  0  0  0  0  0  0  0
    9.7400    9.1952    3.7602 C   0  0  0  0  0  0  0  0  0  0  0  0
   10.6698    9.2165    3.2111 H   0  0  0  0  0  0  0  0  0  0  0  0
    9.6647    9.7724    5.0177 C   0  0  0  0  0  0  0  0  0  0  0  0
   10.5368   10.2433    5.4459 H   0  0  0  0  0  0  0  0  0  0  0  0
    8.4718    9.7551    5.7241 C   0  0  0  0  0  0  0  0  0  0  0  0
    8.4149   10.2141    6.6997 H   0  0  0  0  0  0  0  0  0  0  0  0
    7.3531    9.1576    5.1731 C   0  0  0  0  0  0  0  0  0  0  0  0
    6.3943    9.1558    5.7103 H   0  0  0  0  0  0  0  0  0  0  0  0
    5.9640    7.9616    1.4955 C   0  0  0  0  0  0  0  0  0  0  0  0
    6.2224    9.2364    0.9937 C   0  0  0  0  0  0  0  0  0  0  0  0
    6.4244   10.0443    1.6837 H   0  0  0  0  0  0  0  0  0  0  0  0
    6.1941    9.4555   -0.3704 C   0  0  0  0  0  0  0  0  0  0  0  0
    6.3956   10.4418   -0.7608 H   0  0  0  0  0  0  0  0  0  0  0  0
    5.8969    8.4132   -1.2354 C   0  0  0  0  0  0  0  0  0  0  0  0
    5.8759    8.5859   -2.3011 H   0  0  0  0  0  0  0  0  0  0  0  0
    5.6107    7.1529   -0.7354 C   0  0  0  0  0  0  0  0  0  0  0  0
    5.3619    6.3470   -1.4102 H   0  0  0  0  0  0  0  0  0  0  0  0
    5.6331    6.9242    0.6290 C   0  0  0  0  0  0  0  0  0  0  0  0
    5.3934    5.9457    1.0228 H   0  0  0  0  0  0  0  0  0  0  0  0
  1  2  1  6  0  0  0
  1 16  1  0  0  0  0
  1  5  1  0  0  0  0
  3 12  1  0  0  0  0
  4  5  1  1  0  0  0
  4  3  1  0  0  0  0
  4  6  1  0  0  0  0
  6  8  2  0  0  0  0
  7  6  1  0  0  0  0
  8 10  1  0  0  0  0
  8  9  1  0  0  0  0
 10 11  1  0  0  0  0
 12 13  1  0  0  0  0
 12 10  2  0  0  0  0
 14 15  1  0  0  0  0
 14  3  2  0  0  0  0
 16 14  1  0  0  0  0
 17 25  1  0  0  0  0
 17 16  1  0  0  0  0
 18 17  2  0  0  0  0
 19 21  2  0  0  0  0
 19 18  1  0  0  0  0
 20 19  1  0  0  0  0
 21 23  1  0  0  0  0
 22 21  1  0  0  0  0
 23 24  1  0  0  0  0
 23 25  2  0  0  0  0
 25 26  1  0  0  0  0
 27 18  1  0  0  0  0
 27 28  1  0  0  0  0
 27  1  1  0  0  0  0
 28 37  1  0  0  0  0
 29 31  1  0  0  0  0
 29 28  2  0  0  0  0
 30 29  1  0  0  0  0
 31 33  2  0  0  0  0
 32 31  1  0  0  0  0
 33 34  1  0  0  0  0
 33 35  1  0  0  0  0
 35 36  1  0  0  0  0
 37 38  1  0  0  0  0
 37 35  2  0  0  0  0
 39 27  1  0  0  0  0
 40 39  1  0  0  0  0
 40 41  1  0  0  0  0
 42 40  2  0  0  0  0
 43 42  1  0  0  0  0
 44 46  2  0  0  0  0
 44 42  1  0  0  0  0
 45 44  1  0  0  0  0
 46 48  1  0  0  0  0
 47 46  1  0  0  0  0
 48 49  1  0  0  0  0
 48 39  2  0  0  0  0
M  END
$$$$
