CSD_code = KIHTEB | q = 0 | S = 0 | Stoichiometry = C31H23Br2NO3PRe | MND = 6
 OpenBabel04212202063D

 62 68  0  0  1  0  0  0  0  0999 V2000
    4.9543    7.9541    9.6107 Re  0  0  0  0  0  0  0  0  0  0  0  0
    6.5171    6.2992    8.5630 Br  0  0  0  0  0  0  0  0  0  0  0  0
    6.6122    9.7627    9.4199 Br  0  0  0  0  0  0  0  0  0  0  0  0
    3.2400    9.6081   10.4086 P   0  0  0  0  0  4  0  0  0  0  0  0
    4.2307    8.3278    7.9349 O   0  0  0  0  0  0  0  0  0  0  0  0
    1.7557    5.0946    8.6627 O   0  0  0  0  0  0  0  0  0  0  0  0
    5.3780    7.5943   11.1677 O   0  0  0  0  0  1  0  0  0  0  0  0
    3.3849    6.3647    9.4734 N   0  0  0  0  0  0  0  0  0  0  0  0
    3.3590    7.9952    7.0308 C   0  0  0  0  0  0  0  0  0  0  0  0
    3.2593    8.7034    5.8234 C   0  0  0  0  0  0  0  0  0  0  0  0
    3.9449    9.5194    5.6482 H   0  0  0  0  0  0  0  0  0  0  0  0
    2.3185    8.3524    4.8827 C   0  0  0  0  0  0  0  0  0  0  0  0
    2.2591    8.9089    3.9593 H   0  0  0  0  0  0  0  0  0  0  0  0
    1.4479    7.2899    5.1073 C   0  0  0  0  0  0  0  0  0  0  0  0
    0.7150    7.0252    4.3615 H   0  0  0  0  0  0  0  0  0  0  0  0
    1.5318    6.5705    6.2777 C   0  0  0  0  0  0  0  0  0  0  0  0
    0.8722    5.7372    6.4655 H   0  0  0  0  0  0  0  0  0  0  0  0
    2.4768    6.9036    7.2504 C   0  0  0  0  0  0  0  0  0  0  0  0
    2.5702    6.1478    8.4671 C   0  0  2  0  0  3  0  0  0  0  0  0
    2.0896    4.5965    9.8833 C   0  0  0  0  0  0  0  0  0  0  0  0
    1.5723    3.5202   10.5781 C   0  0  0  0  0  0  0  0  0  0  0  0
    0.7807    2.9149   10.1681 H   0  0  0  0  0  0  0  0  0  0  0  0
    2.1326    3.2643   11.8169 C   0  0  0  0  0  0  0  0  0  0  0  0
    1.7639    2.4313   12.3953 H   0  0  0  0  0  0  0  0  0  0  0  0
    3.1649    4.0466   12.3375 C   0  0  0  0  0  0  0  0  0  0  0  0
    3.5711    3.7979   13.3056 H   0  0  0  0  0  0  0  0  0  0  0  0
    3.6824    5.1224   11.6453 C   0  0  0  0  0  0  0  0  0  0  0  0
    4.4870    5.7351   12.0245 H   0  0  0  0  0  0  0  0  0  0  0  0
    3.1243    5.3902   10.4036 C   0  0  0  0  0  0  0  0  0  0  0  0
    3.2022   11.2749    9.6823 C   0  0  0  0  0  0  0  0  0  0  0  0
    2.6152   12.3241   10.3842 C   0  0  0  0  0  0  0  0  0  0  0  0
    2.2126   12.1567   11.3728 H   0  0  0  0  0  0  0  0  0  0  0  0
    2.5580   13.5831    9.8164 C   0  0  0  0  0  0  0  0  0  0  0  0
    2.1043   14.3956   10.3643 H   0  0  0  0  0  0  0  0  0  0  0  0
    3.0862   13.8052    8.5546 C   0  0  0  0  0  0  0  0  0  0  0  0
    3.0446   14.7922    8.1192 H   0  0  0  0  0  0  0  0  0  0  0  0
    3.6761   12.7647    7.8573 C   0  0  0  0  0  0  0  0  0  0  0  0
    4.1003   12.9374    6.8800 H   0  0  0  0  0  0  0  0  0  0  0  0
    3.7355   11.5019    8.4178 C   0  0  0  0  0  0  0  0  0  0  0  0
    4.2155   10.6998    7.8779 H   0  0  0  0  0  0  0  0  0  0  0  0
    3.2769    9.8917   12.1986 C   0  0  0  0  0  0  0  0  0  0  0  0
    4.5243    9.9726   12.8121 C   0  0  0  0  0  0  0  0  0  0  0  0
    5.4227    9.8287   12.2266 H   0  0  0  0  0  0  0  0  0  0  0  0
    4.6085   10.2208   14.1702 C   0  0  0  0  0  0  0  0  0  0  0  0
    5.5761   10.2797   14.6442 H   0  0  0  0  0  0  0  0  0  0  0  0
    3.4543   10.3897   14.9179 C   0  0  0  0  0  0  0  0  0  0  0  0
    3.5202   10.5801   15.9787 H   0  0  0  0  0  0  0  0  0  0  0  0
    2.2122   10.3130   14.3078 C   0  0  0  0  0  0  0  0  0  0  0  0
    1.3126   10.4464   14.8907 H   0  0  0  0  0  0  0  0  0  0  0  0
    2.1177   10.0664   12.9502 C   0  0  0  0  0  0  0  0  0  0  0  0
    1.1470   10.0070   12.4759 H   0  0  0  0  0  0  0  0  0  0  0  0
    1.6076    8.9168   10.0371 C   0  0  0  0  0  0  0  0  0  0  0  0
    0.9124    9.2924    8.8917 C   0  0  0  0  0  0  0  0  0  0  0  0
    1.2789   10.1075    8.2820 H   0  0  0  0  0  0  0  0  0  0  0  0
   -0.2423    8.6195    8.5333 C   0  0  0  0  0  0  0  0  0  0  0  0
   -0.7748    8.9100    7.6400 H   0  0  0  0  0  0  0  0  0  0  0  0
   -0.7064    7.5701    9.3093 C   0  0  0  0  0  0  0  0  0  0  0  0
   -1.6027    7.0416    9.0216 H   0  0  0  0  0  0  0  0  0  0  0  0
   -0.0188    7.1938   10.4536 C   0  0  0  0  0  0  0  0  0  0  0  0
   -0.3775    6.3737   11.0587 H   0  0  0  0  0  0  0  0  0  0  0  0
    1.1383    7.8572   10.8138 C   0  0  0  0  0  0  0  0  0  0  0  0
    1.6945    7.5549   11.6922 H   0  0  0  0  0  0  0  0  0  0  0  0
  1  4  1  0  0  0  0
  1  7  1  0  0  0  0
  2  1  1  0  0  0  0
  3  1  1  0  0  0  0
  4 41  1  0  0  0  0
  5  1  1  0  0  0  0
  6 20  1  0  0  0  0
  8  1  1  0  0  0  0
  8 29  1  0  0  0  0
  9 18  1  0  0  0  0
  9  5  1  0  0  0  0
 10  9  2  0  0  0  0
 11 10  1  0  0  0  0
 12 14  2  0  0  0  0
 12 10  1  0  0  0  0
 13 12  1  0  0  0  0
 14 16  1  0  0  0  0
 15 14  1  0  0  0  0
 16 17  1  0  0  0  0
 16 18  2  0  0  0  0
 19 18  1  1  0  0  0
 19  6  1  0  0  0  0
 19  8  1  0  0  0  0
 20 29  2  0  0  0  0
 20 21  1  0  0  0  0
 21 23  2  0  0  0  0
 22 21  1  0  0  0  0
 23 25  1  0  0  0  0
 23 24  1  0  0  0  0
 25 26  1  0  0  0  0
 27 28  1  0  0  0  0
 27 25  2  0  0  0  0
 29 27  1  0  0  0  0
 30 31  1  0  0  0  0
 30  4  1  0  0  0  0
 31 32  1  0  0  0  0
 33 34  1  0  0  0  0
 33 31  2  0  0  0  0
 35 33  1  0  0  0  0
 36 35  1  0  0  0  0
 37 39  1  0  0  0  0
 37 35  2  0  0  0  0
 38 37  1  0  0  0  0
 39 30  2  0  0  0  0
 40 39  1  0  0  0  0
 41 42  2  0  0  0  0
 41 50  1  0  0  0  0
 42 44  1  0  0  0  0
 43 42  1  0  0  0  0
 44 45  1  0  0  0  0
 44 46  2  0  0  0  0
 46 47  1  0  0  0  0
 48 49  1  0  0  0  0
 48 46  1  0  0  0  0
 50 48  2  0  0  0  0
 51 50  1  0  0  0  0
 52  4  1  0  0  0  0
 52 61  1  0  0  0  0
 53 52  2  0  0  0  0
 54 53  1  0  0  0  0
 55 53  1  0  0  0  0
 55 57  2  0  0  0  0
 56 55  1  0  0  0  0
 57 59  1  0  0  0  0
 58 57  1  0  0  0  0
 59 61  2  0  0  0  0
 59 60  1  0  0  0  0
 61 62  1  0  0  0  0
M  END
$$$$
