CSD_code = KIHTAX | q = 0 | S = 0 | Stoichiometry = C31H23AsCl2NO3Re | MND = 6
 OpenBabel04212202063D

 62 67  0  0  1  0  0  0  0  0999 V2000
    4.6297    7.6241    9.5920 Re  0  0  0  0  0  0  0  0  0  0  0  0
    6.0927    6.1240    8.5979 Cl  0  0  0  0  0  0  0  0  0  0  0  0
    6.2361    9.2569    9.6228 Cl  0  0  0  0  0  0  0  0  0  0  0  0
    2.9425    9.3935   10.2916 As  0  0  0  0  0  0  0  0  0  0  0  0
    4.0937    8.1508    7.8494 O   0  0  0  0  0  0  0  0  0  0  0  0
    1.4030    5.0127    8.2308 O   0  0  0  0  0  0  0  0  0  0  0  0
    4.8366    7.1925   11.1788 O   0  0  0  0  0  1  0  0  0  0  0  0
    3.0644    6.1151    9.2096 N   0  0  0  0  0  0  0  0  0  0  0  0
    3.1793    7.9902    6.9468 C   0  0  0  0  0  0  0  0  0  0  0  0
    3.1081    8.8458    5.8326 C   0  0  0  0  0  0  0  0  0  0  0  0
    3.8445    9.6313    5.7510 H   0  0  0  0  0  0  0  0  0  0  0  0
    2.1295    8.6822    4.8812 C   0  0  0  0  0  0  0  0  0  0  0  0
    2.0930    9.3531    4.0358 H   0  0  0  0  0  0  0  0  0  0  0  0
    1.1865    7.6628    4.9950 C   0  0  0  0  0  0  0  0  0  0  0  0
    0.4248    7.5447    4.2403 H   0  0  0  0  0  0  0  0  0  0  0  0
    1.2336    6.8050    6.0692 C   0  0  0  0  0  0  0  0  0  0  0  0
    0.5136    6.0078    6.1743 H   0  0  0  0  0  0  0  0  0  0  0  0
    2.2141    6.9497    7.0553 C   0  0  0  0  0  0  0  0  0  0  0  0
    2.2595    6.0507    8.1722 C   0  0  2  0  0  3  0  0  0  0  0  0
    1.6945    4.3625    9.3891 C   0  0  0  0  0  0  0  0  0  0  0  0
    1.1215    3.2353    9.9460 C   0  0  0  0  0  0  0  0  0  0  0  0
    0.3138    2.7153    9.4577 H   0  0  0  0  0  0  0  0  0  0  0  0
    1.6479    2.8134   11.1542 C   0  0  0  0  0  0  0  0  0  0  0  0
    1.2356    1.9345   11.6258 H   0  0  0  0  0  0  0  0  0  0  0  0
    2.7006    3.4861   11.7768 C   0  0  0  0  0  0  0  0  0  0  0  0
    3.0783    3.1093   12.7147 H   0  0  0  0  0  0  0  0  0  0  0  0
    3.2733    4.6128   11.2219 C   0  0  0  0  0  0  0  0  0  0  0  0
    4.0933    5.1468   11.6785 H   0  0  0  0  0  0  0  0  0  0  0  0
    2.7493    5.0472   10.0131 C   0  0  0  0  0  0  0  0  0  0  0  0
    2.8012   11.0722    9.3101 C   0  0  0  0  0  0  0  0  0  0  0  0
    1.6869   11.8866    9.5027 C   0  0  0  0  0  0  0  0  0  0  0  0
    0.9123   11.5742   10.1980 H   0  0  0  0  0  0  0  0  0  0  0  0
    1.5754   13.0801    8.8126 C   0  0  0  0  0  0  0  0  0  0  0  0
    0.7111   13.7109    8.9614 H   0  0  0  0  0  0  0  0  0  0  0  0
    2.5744   13.4669    7.9319 C   0  0  0  0  0  0  0  0  0  0  0  0
    2.4841   14.3986    7.3933 H   0  0  0  0  0  0  0  0  0  0  0  0
    3.6883   12.6656    7.7489 C   0  0  0  0  0  0  0  0  0  0  0  0
    4.4708   12.9744    7.0715 H   0  0  0  0  0  0  0  0  0  0  0  0
    3.8064   11.4688    8.4381 C   0  0  0  0  0  0  0  0  0  0  0  0
    4.6871   10.8470    8.3206 H   0  0  0  0  0  0  0  0  0  0  0  0
    2.9731   10.0160   12.1350 C   0  0  0  0  0  0  0  0  0  0  0  0
    4.2258   10.2088   12.7092 C   0  0  0  0  0  0  0  0  0  0  0  0
    5.1137    9.9825   12.1259 H   0  0  0  0  0  0  0  0  0  0  0  0
    4.3251   10.6653   14.0120 C   0  0  0  0  0  0  0  0  0  0  0  0
    5.2970   10.8118   14.4590 H   0  0  0  0  0  0  0  0  0  0  0  0
    3.1776   10.9268   14.7436 C   0  0  0  0  0  0  0  0  0  0  0  0
    3.2549   11.2790   15.7616 H   0  0  0  0  0  0  0  0  0  0  0  0
    1.9291   10.7309   14.1758 C   0  0  0  0  0  0  0  0  0  0  0  0
    1.0362   10.9294   14.7508 H   0  0  0  0  0  0  0  0  0  0  0  0
    1.8224   10.2764   12.8721 C   0  0  0  0  0  0  0  0  0  0  0  0
    0.8466   10.1099   12.4250 H   0  0  0  0  0  0  0  0  0  0  0  0
    1.1768    8.6036   10.0891 C   0  0  0  0  0  0  0  0  0  0  0  0
    0.3753    8.8315    8.9746 C   0  0  0  0  0  0  0  0  0  0  0  0
    0.6491    9.6091    8.2680 H   0  0  0  0  0  0  0  0  0  0  0  0
   -0.7545    8.0593    8.7599 C   0  0  0  0  0  0  0  0  0  0  0  0
   -1.3694    8.2393    7.8902 H   0  0  0  0  0  0  0  0  0  0  0  0
   -1.0845    7.0471    9.6458 C   0  0  0  0  0  0  0  0  0  0  0  0
   -1.9581    6.4379    9.4680 H   0  0  0  0  0  0  0  0  0  0  0  0
   -0.2874    6.8070   10.7550 C   0  0  0  0  0  0  0  0  0  0  0  0
   -0.5363    6.0089   11.4397 H   0  0  0  0  0  0  0  0  0  0  0  0
    0.8397    7.5777   10.9722 C   0  0  0  0  0  0  0  0  0  0  0  0
    1.4905    7.3838   11.8212 H   0  0  0  0  0  0  0  0  0  0  0  0
  1  3  1  0  0  0  0
  1  7  1  0  0  0  0
  2  1  1  0  0  0  0
  4 41  1  0  0  0  0
  5  1  1  0  0  0  0
  6 20  1  0  0  0  0
  8  1  1  0  0  0  0
  8 29  1  0  0  0  0
  9 18  1  0  0  0  0
  9  5  1  0  0  0  0
 10  9  2  0  0  0  0
 11 10  1  0  0  0  0
 12 14  2  0  0  0  0
 12 10  1  0  0  0  0
 13 12  1  0  0  0  0
 14 16  1  0  0  0  0
 15 14  1  0  0  0  0
 16 17  1  0  0  0  0
 16 18  2  0  0  0  0
 19 18  1  1  0  0  0
 19  6  1  0  0  0  0
 19  8  1  0  0  0  0
 20 21  2  0  0  0  0
 20 29  1  0  0  0  0
 21 23  1  0  0  0  0
 22 21  1  0  0  0  0
 23 24  1  0  0  0  0
 23 25  2  0  0  0  0
 25 26  1  0  0  0  0
 27 28  1  0  0  0  0
 27 25  1  0  0  0  0
 29 27  2  0  0  0  0
 30 31  1  0  0  0  0
 30  4  1  0  0  0  0
 31 32  1  0  0  0  0
 33 34  1  0  0  0  0
 33 31  2  0  0  0  0
 35 33  1  0  0  0  0
 36 35  1  0  0  0  0
 37 35  2  0  0  0  0
 37 39  1  0  0  0  0
 38 37  1  0  0  0  0
 39 30  2  0  0  0  0
 40 39  1  0  0  0  0
 41 42  2  0  0  0  0
 41 50  1  0  0  0  0
 42 44  1  0  0  0  0
 43 42  1  0  0  0  0
 44 45  1  0  0  0  0
 44 46  2  0  0  0  0
 46 47  1  0  0  0  0
 48 46  1  0  0  0  0
 48 49  1  0  0  0  0
 50 48  2  0  0  0  0
 51 50  1  0  0  0  0
 52  4  1  0  0  0  0
 52 61  1  0  0  0  0
 53 52  2  0  0  0  0
 54 53  1  0  0  0  0
 55 53  1  0  0  0  0
 55 57  2  0  0  0  0
 56 55  1  0  0  0  0
 57 59  1  0  0  0  0
 58 57  1  0  0  0  0
 59 61  2  0  0  0  0
 59 60  1  0  0  0  0
 61 62  1  0  0  0  0
M  END
$$$$
