CSD_code = KIJGEQ | q = 0 | S = 0 | Stoichiometry = C25H38Cl2N2ORu | MND = 5
 OpenBabel04212202063D

 69 72  0  0  1  0  0  0  0  0999 V2000
    1.9105    4.8986   14.9813 Ru  0  0  0  0  0  0  0  0  0  0  0  0
    0.1495    6.2559   14.3144 Cl  0  0  0  0  0  0  0  0  0  0  0  0
    3.6738    3.4583   14.6525 Cl  0  0  0  0  0  0  0  0  0  0  0  0
    3.2744    6.6589   14.6353 O   0  0  0  0  0  0  0  0  0  0  0  0
    0.0388    2.8194   14.2763 N   0  0  2  0  0  0  0  0  0  0  0  0
    0.6408    2.4848   16.3400 N   0  0  1  0  0  0  0  0  0  0  0  0
    0.7832    3.2831   15.2842 C   0  0  1  0  0  3  0  0  0  0  0  0
   -0.7320    1.6420   14.6415 C   0  0  0  0  0  0  0  0  0  0  0  0
   -0.4807    0.7945   13.9974 H   0  0  0  0  0  0  0  0  0  0  0  0
   -1.8024    1.8479   14.5481 H   0  0  0  0  0  0  0  0  0  0  0  0
   -0.3150    1.4110   16.0982 C   0  0  0  0  0  0  0  0  0  0  0  0
   -1.1611    1.5009   16.7856 H   0  0  0  0  0  0  0  0  0  0  0  0
    0.1536    0.4348   16.2445 H   0  0  0  0  0  0  0  0  0  0  0  0
    1.9796    5.6700   16.7148 C   0  0  0  0  0  3  0  0  0  0  0  0
    1.3943    5.3770   17.5907 H   0  0  0  0  0  0  0  0  0  0  0  0
    2.7987    6.8126   16.9013 C   0  0  0  0  0  0  0  0  0  0  0  0
    2.9392    7.4641   18.1376 C   0  0  0  0  0  0  0  0  0  0  0  0
    2.4121    7.0683   18.9937 H   0  0  0  0  0  0  0  0  0  0  0  0
    3.7290    8.5859   18.2607 C   0  0  0  0  0  0  0  0  0  0  0  0
    3.8288    9.0754   19.2177 H   0  0  0  0  0  0  0  0  0  0  0  0
    4.3933    9.0924   17.1528 C   0  0  0  0  0  0  0  0  0  0  0  0
    5.0077    9.9750   17.2480 H   0  0  0  0  0  0  0  0  0  0  0  0
    4.2790    8.4792   15.9140 C   0  0  0  0  0  0  0  0  0  0  0  0
    4.8025    8.9015   15.0704 H   0  0  0  0  0  0  0  0  0  0  0  0
    3.4951    7.3448   15.7801 C   0  0  0  0  0  0  0  0  0  0  0  0
    3.9282    6.9978   13.4155 C   0  0  0  0  0  0  0  0  0  0  0  0
    3.8778    8.0873   13.2741 H   0  0  0  0  0  0  0  0  0  0  0  0
    5.3761    6.5120   13.4426 C   0  0  0  0  0  0  0  0  0  0  0  0
    5.9394    6.9984   14.2358 H   0  0  0  0  0  0  0  0  0  0  0  0
    5.8572    6.7192   12.4906 H   0  0  0  0  0  0  0  0  0  0  0  0
    5.3901    5.4379   13.6226 H   0  0  0  0  0  0  0  0  0  0  0  0
    3.1314    6.3038   12.3165 C   0  0  0  0  0  0  0  0  0  0  0  0
    3.1843    5.2214   12.4673 H   0  0  0  0  0  0  0  0  0  0  0  0
    3.5451    6.5362   11.3389 H   0  0  0  0  0  0  0  0  0  0  0  0
    2.0913    6.6322   12.3494 H   0  0  0  0  0  0  0  0  0  0  0  0
    1.4806    2.5014   17.5161 C   0  0  0  0  0  0  0  0  0  0  0  0
    2.1714    3.3396   17.3683 H   0  0  0  0  0  0  0  0  0  0  0  0
    2.3302    1.2332   17.6437 C   0  0  0  0  0  0  0  0  0  0  0  0
    2.8889    1.0811   16.7188 H   0  0  0  0  0  0  0  0  0  0  0  0
    1.6968    0.3612   17.8212 H   0  0  0  0  0  0  0  0  0  0  0  0
    3.2916    1.3955   18.8176 C   0  0  0  0  0  0  0  0  0  0  0  0
    3.9045    0.4978   18.9185 H   0  0  0  0  0  0  0  0  0  0  0  0
    3.9583    2.2367   18.6200 H   0  0  0  0  0  0  0  0  0  0  0  0
    2.5197    1.6464   20.1099 C   0  0  0  0  0  0  0  0  0  0  0  0
    1.8981    0.7764   20.3355 H   0  0  0  0  0  0  0  0  0  0  0  0
    3.2177    1.7807   20.9381 H   0  0  0  0  0  0  0  0  0  0  0  0
    1.6323    2.8806   19.9761 C   0  0  0  0  0  0  0  0  0  0  0  0
    2.2598    3.7596   19.8154 H   0  0  0  0  0  0  0  0  0  0  0  0
    1.0656    3.0342   20.8966 H   0  0  0  0  0  0  0  0  0  0  0  0
    0.6760    2.7237   18.7972 C   0  0  0  0  0  0  0  0  0  0  0  0
    0.0193    1.8688   18.9740 H   0  0  0  0  0  0  0  0  0  0  0  0
    0.0540    3.6137   18.6882 H   0  0  0  0  0  0  0  0  0  0  0  0
    0.2052    3.2439   12.9029 C   0  0  0  0  0  0  0  0  0  0  0  0
    0.7933    4.1800   12.9406 H   0  0  0  0  0  0  0  0  0  0  0  0
   -1.1290    3.5510   12.2280 C   0  0  0  0  0  0  0  0  0  0  0  0
   -1.6655    4.2908   12.8242 H   0  0  0  0  0  0  0  0  0  0  0  0
   -1.7318    2.6416   12.1672 H   0  0  0  0  0  0  0  0  0  0  0  0
   -0.8782    4.0953   10.8246 C   0  0  0  0  0  0  0  0  0  0  0  0
   -1.8314    4.2981   10.3332 H   0  0  0  0  0  0  0  0  0  0  0  0
   -0.3359    5.0396   10.9025 H   0  0  0  0  0  0  0  0  0  0  0  0
   -0.0661    3.1029    9.9970 C   0  0  0  0  0  0  0  0  0  0  0  0
   -0.6401    2.1818    9.8690 H   0  0  0  0  0  0  0  0  0  0  0  0
    0.1249    3.5167    9.0051 H   0  0  0  0  0  0  0  0  0  0  0  0
    1.2573    2.7820   10.6860 C   0  0  0  0  0  0  0  0  0  0  0  0
    1.8582    3.6914   10.7560 H   0  0  0  0  0  0  0  0  0  0  0  0
    1.8204    2.0554   10.0969 H   0  0  0  0  0  0  0  0  0  0  0  0
    1.0102    2.2276   12.0859 C   0  0  0  0  0  0  0  0  0  0  0  0
    0.4590    1.2875   12.0063 H   0  0  0  0  0  0  0  0  0  0  0  0
    1.9601    2.0305   12.5907 H   0  0  0  0  0  0  0  0  0  0  0  0
  1 14  1  0  0  0  0
  2  1  1  0  0  0  0
  3  1  1  0  0  0  0
  4 25  1  0  0  0  0
  5 53  1  6  0  0  0
  5  8  1  0  0  0  0
  5  7  1  0  0  0  0
  6 36  1  6  0  0  0
  7  1  1  6  0  0  0
  7  6  1  0  0  0  0
  8 11  1  0  0  0  0
  9  8  1  0  0  0  0
 10  8  1  0  0  0  0
 11 13  1  0  0  0  0
 11  6  1  0  0  0  0
 11 12  1  0  0  0  0
 14 16  1  0  0  0  0
 14 15  1  0  0  0  0
 16 17  1  0  0  0  0
 17 19  2  0  0  0  0
 17 18  1  0  0  0  0
 19 20  1  0  0  0  0
 21 22  1  0  0  0  0
 21 19  1  0  0  0  0
 23 21  2  0  0  0  0
 24 23  1  0  0  0  0
 25 23  1  0  0  0  0
 25 16  2  0  0  0  0
 26 28  1  0  0  0  0
 26  4  1  0  0  0  0
 27 26  1  0  0  0  0
 28 31  1  0  0  0  0
 28 29  1  0  0  0  0
 30 28  1  0  0  0  0
 32 35  1  0  0  0  0
 32 33  1  0  0  0  0
 32 26  1  0  0  0  0
 34 32  1  0  0  0  0
 36 38  1  0  0  0  0
 36 50  1  0  0  0  0
 37 36  1  0  0  0  0
 38 40  1  0  0  0  0
 38 41  1  0  0  0  0
 39 38  1  0  0  0  0
 41 42  1  0  0  0  0
 41 44  1  0  0  0  0
 43 41  1  0  0  0  0
 44 45  1  0  0  0  0
 44 46  1  0  0  0  0
 47 44  1  0  0  0  0
 47 49  1  0  0  0  0
 48 47  1  0  0  0  0
 50 51  1  0  0  0  0
 50 47  1  0  0  0  0
 52 50  1  0  0  0  0
 53 54  1  0  0  0  0
 55 56  1  0  0  0  0
 55 53  1  0  0  0  0
 57 55  1  0  0  0  0
 58 60  1  0  0  0  0
 58 55  1  0  0  0  0
 59 58  1  0  0  0  0
 61 64  1  0  0  0  0
 61 58  1  0  0  0  0
 62 61  1  0  0  0  0
 63 61  1  0  0  0  0
 64 65  1  0  0  0  0
 64 67  1  0  0  0  0
 66 64  1  0  0  0  0
 67 69  1  0  0  0  0
 67 53  1  0  0  0  0
 68 67  1  0  0  0  0
M  END
$$$$
