CSD_code = KIJJET | q = 0 | S = 0 | Stoichiometry = C32H23IN2Pd | MND = 4
 OpenBabel04212202063D

 59 65  0  0  0  0  0  0  0  0999 V2000
    0.7287    2.9478    0.2442 I   0  0  0  0  0  0  0  0  0  0  0  0
    0.3983    2.5485    2.8233 Pd  0  0  1  0  0  0  0  0  0  0  0  0
    2.4465    4.2992    4.2673 C   0  0  0  0  0  0  0  0  0  0  0  0
    0.4909    0.6411    2.6291 N   0  0  0  0  0  0  0  0  0  0  0  0
    1.8234   -1.0474    1.4385 C   0  0  0  0  0  0  0  0  0  0  0  0
    0.9428   -1.6097    1.1658 H   0  0  0  0  0  0  0  0  0  0  0  0
   -3.3818    1.7245    4.5774 C   0  0  0  0  0  0  0  0  0  0  0  0
   -3.5499    2.3080    5.4712 H   0  0  0  0  0  0  0  0  0  0  0  0
    4.8265    3.1564    5.1660 C   0  0  0  0  0  0  0  0  0  0  0  0
    5.7443    2.7046    5.5117 H   0  0  0  0  0  0  0  0  0  0  0  0
    2.4056    3.2168    5.1678 C   0  0  0  0  0  0  0  0  0  0  0  0
   -2.0868    1.2893    4.2998 C   0  0  0  0  0  0  0  0  0  0  0  0
   -1.8674    0.5297    3.1340 C   0  0  0  0  0  0  0  0  0  0  0  0
   -2.9486    0.2229    2.3043 C   0  0  0  0  0  3  0  0  0  0  0  0
   -2.7760   -0.3742    1.4202 H   0  0  0  0  0  0  0  0  0  0  0  0
    4.8641    4.2241    4.2833 C   0  0  0  0  0  0  0  0  0  0  0  0
    5.8090    4.6115    3.9340 H   0  0  0  0  0  0  0  0  0  0  0  0
    1.7113    0.1259    2.1847 C   0  0  0  0  0  0  0  0  0  0  0  0
    3.6105    2.6727    5.6102 C   0  0  0  0  0  0  0  0  0  0  0  0
    3.5793    1.8417    6.3002 H   0  0  0  0  0  0  0  0  0  0  0  0
    3.0612   -1.4684    0.9899 C   0  0  0  0  0  0  0  0  0  0  0  0
    3.1324   -2.3692    0.3991 H   0  0  0  0  0  0  0  0  0  0  0  0
   -0.5706   -0.0491    2.7648 C   0  0  0  0  0  0  0  0  0  0  0  0
   -0.5804   -1.1216    2.5527 H   0  0  0  0  0  0  0  0  0  0  0  0
   -0.8034    5.0978    2.6329 C   0  0  0  0  0  0  0  0  0  0  0  0
    2.8636    0.8731    2.4510 C   0  0  0  0  0  0  0  0  0  0  0  0
    2.7856    1.8132    3.0057 H   0  0  0  0  0  0  0  0  0  0  0  0
    4.0960    0.4379    2.0076 C   0  0  0  0  0  0  0  0  0  0  0  0
    4.9757    1.0271    2.2188 H   0  0  0  0  0  0  0  0  0  0  0  0
   -4.2160    0.6966    2.5808 C   0  0  0  0  0  0  0  0  0  0  0  0
   -5.0322    0.4718    1.9112 H   0  0  0  0  0  0  0  0  0  0  0  0
    3.6841    4.8033    3.8600 C   0  0  0  0  0  0  0  0  0  0  0  0
    3.7080    5.6447    3.1821 H   0  0  0  0  0  0  0  0  0  0  0  0
   -4.4339    1.4472    3.7252 C   0  0  0  0  0  0  0  0  0  0  0  0
   -5.4238    1.8119    3.9558 H   0  0  0  0  0  0  0  0  0  0  0  0
   -0.7722    6.4416    2.2599 C   0  0  0  0  0  0  0  0  0  0  0  0
    0.1273    7.0250    2.3880 H   0  0  0  0  0  0  0  0  0  0  0  0
   -1.9571    4.3492    2.3773 C   0  0  0  0  0  0  0  0  0  0  0  0
   -1.9822    3.2856    2.6330 H   0  0  0  0  0  0  0  0  0  0  0  0
   -1.8769    7.0219    1.6654 C   0  0  0  0  0  0  0  0  0  0  0  0
   -1.8341    8.0583    1.3658 H   0  0  0  0  0  0  0  0  0  0  0  0
   -3.0585    4.9416    1.7934 C   0  0  0  0  0  0  0  0  0  0  0  0
   -3.9406    4.3499    1.6003 H   0  0  0  0  0  0  0  0  0  0  0  0
    4.1999   -0.7358    1.2782 C   0  0  0  0  0  0  0  0  0  0  0  0
    5.1619   -1.0676    0.9186 H   0  0  0  0  0  0  0  0  0  0  0  0
   -3.0237    6.2806    1.4380 C   0  0  0  0  0  0  0  0  0  0  0  0
   -3.8796    6.7393    0.9671 H   0  0  0  0  0  0  0  0  0  0  0  0
    1.1423    2.6387    5.6727 C   0  0  0  0  0  0  0  0  0  0  0  0
    0.1549    2.2465    4.7693 C   0  0  0  0  0  0  0  0  0  0  0  0
   -1.0062    1.6388    5.2460 C   0  0  0  0  0  0  0  0  0  0  0  0
    1.2573    5.0079    3.7814 C   0  0  0  0  0  0  0  0  0  0  0  0
    1.2758    6.0937    3.9074 H   0  0  0  0  0  0  0  0  0  0  0  0
    0.2894    4.4290    3.1900 N   0  0  0  0  0  0  0  0  0  0  0  0
   -1.1734    1.4257    6.6127 C   0  0  0  0  0  0  0  0  0  0  0  0
   -2.0671    0.9354    6.9736 H   0  0  0  0  0  0  0  0  0  0  0  0
    0.9652    2.4244    7.0382 C   0  0  0  0  0  0  0  0  0  0  0  0
    1.7254    2.7497    7.7350 H   0  0  0  0  0  0  0  0  0  0  0  0
   -0.1891    1.8192    7.5012 C   0  0  0  0  0  0  0  0  0  0  0  0
   -0.3224    1.6534    8.5604 H   0  0  0  0  0  0  0  0  0  0  0  0
  2  1  1  1  0  0  0
  2 53  1  0  0  0  0
  2 49  2  0  0  0  0
  3 11  1  0  0  0  0
  4 23  1  0  0  0  0
  4  2  1  0  0  0  0
  5 18  1  0  0  0  0
  6  5  1  0  0  0  0
  7  8  1  0  0  0  0
  9 10  1  0  0  0  0
  9 19  2  0  0  0  0
 11 19  1  0  0  0  0
 11 48  2  0  0  0  0
 12  7  2  0  0  0  0
 12 50  1  0  0  0  0
 13 12  1  0  0  0  0
 14 30  1  0  0  0  0
 14 13  1  0  0  0  0
 15 14  1  0  0  0  0
 16  9  1  0  0  0  0
 17 16  1  0  0  0  0
 18 26  2  0  0  0  0
 18  4  1  0  0  0  0
 19 20  1  0  0  0  0
 21 44  1  0  0  0  0
 21  5  2  0  0  0  0
 22 21  1  0  0  0  0
 23 13  2  0  0  0  0
 24 23  1  0  0  0  0
 25 53  1  0  0  0  0
 26 27  1  0  0  0  0
 28 29  1  0  0  0  0
 28 26  1  0  0  0  0
 30 34  2  0  0  0  0
 31 30  1  0  0  0  0
 32  3  1  0  0  0  0
 32 16  2  0  0  0  0
 33 32  1  0  0  0  0
 34 35  1  0  0  0  0
 34  7  1  0  0  0  0
 36 37  1  0  0  0  0
 36 25  2  0  0  0  0
 38 25  1  0  0  0  0
 38 39  1  0  0  0  0
 40 36  1  0  0  0  0
 41 40  1  0  0  0  0
 42 38  2  0  0  0  0
 43 42  1  0  0  0  0
 44 28  2  0  0  0  0
 45 44  1  0  0  0  0
 46 40  2  0  0  0  0
 46 42  1  0  0  0  0
 47 46  1  0  0  0  0
 48 56  1  0  0  0  0
 49 50  1  0  0  0  0
 49 48  1  0  0  0  0
 50 54  2  0  0  0  0
 51 52  1  0  0  0  0
 51  3  2  0  0  0  0
 53 51  1  0  0  0  0
 54 55  1  0  0  0  0
 54 58  1  0  0  0  0
 56 58  2  0  0  0  0
 56 57  1  0  0  0  0
 58 59  1  0  0  0  0
M  END
$$$$
