CSD_code = KIJNAT | q = 1 | S = 0 | Stoichiometry = C12H32ClNP4Re(1+) | MND = 6
 OpenBabel04212202063D

 51 52  0  0  0  0  0  0  0  0999 V2000
    0.0001    2.5797    4.7483 Re  0  0  0  0  0  0  0  0  0  0  0  0
    1.8329    1.1691    3.9854 P   0  0  0  0  0  4  0  0  0  0  0  0
    1.8171    3.8288    5.8032 P   0  0  0  0  0  4  0  0  0  0  0  0
    0.0004    3.6092    3.3587 N   0  0  0  0  0  1  0  0  0  0  0  0
    3.2891    1.6142    5.0243 C   0  0  0  0  0  0  0  0  0  0  0  0
    3.1441    1.1525    6.0068 H   0  0  0  0  0  0  0  0  0  0  0  0
    4.1900    1.1864    4.5733 H   0  0  0  0  0  0  0  0  0  0  0  0
    1.8023   -0.6439    4.1280 C   0  0  0  0  0  0  0  0  0  0  0  0
    1.1742   -1.0623    3.3434 H   0  0  0  0  0  0  0  0  0  0  0  0
    1.4107   -0.9335    5.1018 H   0  0  0  0  0  0  0  0  0  0  0  0
    2.8188   -1.0225    4.0183 H   0  0  0  0  0  0  0  0  0  0  0  0
    1.9867    5.5988    5.4235 C   0  0  0  0  0  0  0  0  0  0  0  0
    1.2480    6.1674    5.9847 H   0  0  0  0  0  0  0  0  0  0  0  0
    1.8024    5.7353    4.3591 H   0  0  0  0  0  0  0  0  0  0  0  0
    2.9872    5.9413    5.6848 H   0  0  0  0  0  0  0  0  0  0  0  0
    2.3955    1.4639    2.2804 C   0  0  0  0  0  0  0  0  0  0  0  0
    3.3525    0.9766    2.0994 H   0  0  0  0  0  0  0  0  0  0  0  0
    2.4677    2.5372    2.1138 H   0  0  0  0  0  0  0  0  0  0  0  0
    1.6438    1.0706    1.5981 H   0  0  0  0  0  0  0  0  0  0  0  0
    2.0108    3.7383    7.6110 C   0  0  0  0  0  0  0  0  0  0  0  0
    2.9677    4.1761    7.8944 H   0  0  0  0  0  0  0  0  0  0  0  0
    1.9658    2.7016    7.9413 H   0  0  0  0  0  0  0  0  0  0  0  0
    1.2031    4.2913    8.0887 H   0  0  0  0  0  0  0  0  0  0  0  0
    3.3957    3.1295    5.1548 C   0  0  0  0  0  0  0  0  0  0  0  0
    3.5565    3.5805    4.1704 H   0  0  0  0  0  0  0  0  0  0  0  0
    4.2198    3.4176    5.8145 H   0  0  0  0  0  0  0  0  0  0  0  0
    0.0004    1.1496    6.5774 Cl  0  0  0  0  0  0  0  0  0  0  0  0
   -1.8332    1.1689    3.9853 P   0  0  0  0  0  4  0  0  0  0  0  0
   -1.8173    3.8290    5.8033 P   0  0  0  0  0  4  0  0  0  0  0  0
   -3.2892    1.6142    5.0243 C   0  0  0  0  0  0  0  0  0  0  0  0
   -3.1442    1.1525    6.0069 H   0  0  0  0  0  0  0  0  0  0  0  0
   -4.1901    1.1864    4.5733 H   0  0  0  0  0  0  0  0  0  0  0  0
   -1.8023   -0.6440    4.1280 C   0  0  0  0  0  0  0  0  0  0  0  0
   -1.1742   -1.0624    3.3434 H   0  0  0  0  0  0  0  0  0  0  0  0
   -1.4107   -0.9336    5.1018 H   0  0  0  0  0  0  0  0  0  0  0  0
   -2.8188   -1.0227    4.0183 H   0  0  0  0  0  0  0  0  0  0  0  0
   -1.9867    5.5989    5.4235 C   0  0  0  0  0  0  0  0  0  0  0  0
   -1.2480    6.1675    5.9847 H   0  0  0  0  0  0  0  0  0  0  0  0
   -1.8024    5.7354    4.3590 H   0  0  0  0  0  0  0  0  0  0  0  0
   -2.9872    5.9414    5.6848 H   0  0  0  0  0  0  0  0  0  0  0  0
   -2.3956    1.4639    2.2802 C   0  0  0  0  0  0  0  0  0  0  0  0
   -3.3526    0.9766    2.0992 H   0  0  0  0  0  0  0  0  0  0  0  0
   -2.4677    2.5373    2.1137 H   0  0  0  0  0  0  0  0  0  0  0  0
   -1.6438    1.0707    1.5980 H   0  0  0  0  0  0  0  0  0  0  0  0
   -2.0108    3.7383    7.6111 C   0  0  0  0  0  0  0  0  0  0  0  0
   -2.9677    4.1761    7.8945 H   0  0  0  0  0  0  0  0  0  0  0  0
   -1.9658    2.7016    7.9413 H   0  0  0  0  0  0  0  0  0  0  0  0
   -1.2031    4.2914    8.0887 H   0  0  0  0  0  0  0  0  0  0  0  0
   -3.3958    3.1296    5.1548 C   0  0  0  0  0  0  0  0  0  0  0  0
   -3.5566    3.5805    4.1704 H   0  0  0  0  0  0  0  0  0  0  0  0
   -4.2199    3.4176    5.8145 H   0  0  0  0  0  0  0  0  0  0  0  0
  1  3  1  0  0  0  0
  1 29  1  0  0  0  0
  1 27  1  0  0  0  0
  2  8  1  0  0  0  0
  2  1  1  0  0  0  0
  2  5  1  0  0  0  0
  3 20  1  0  0  0  0
  4  1  1  0  0  0  0
  5 24  1  0  0  0  0
  5  6  1  0  0  0  0
  7  5  1  0  0  0  0
  8 10  1  0  0  0  0
  9  8  1  0  0  0  0
 11  8  1  0  0  0  0
 12 15  1  0  0  0  0
 12  3  1  0  0  0  0
 12 13  1  0  0  0  0
 14 12  1  0  0  0  0
 16  2  1  0  0  0  0
 17 16  1  0  0  0  0
 18 16  1  0  0  0  0
 19 16  1  0  0  0  0
 20 21  1  0  0  0  0
 20 22  1  0  0  0  0
 20 23  1  0  0  0  0
 24  3  1  0  0  0  0
 24 26  1  0  0  0  0
 25 24  1  0  0  0  0
 28 33  1  0  0  0  0
 28  1  1  0  0  0  0
 28 30  1  0  0  0  0
 29 45  1  0  0  0  0
 30 49  1  0  0  0  0
 30 31  1  0  0  0  0
 32 30  1  0  0  0  0
 33 35  1  0  0  0  0
 34 33  1  0  0  0  0
 36 33  1  0  0  0  0
 37 40  1  0  0  0  0
 37 29  1  0  0  0  0
 37 38  1  0  0  0  0
 39 37  1  0  0  0  0
 41 28  1  0  0  0  0
 42 41  1  0  0  0  0
 43 41  1  0  0  0  0
 44 41  1  0  0  0  0
 45 46  1  0  0  0  0
 45 47  1  0  0  0  0
 45 48  1  0  0  0  0
 49 29  1  0  0  0  0
 49 51  1  0  0  0  0
 50 49  1  0  0  0  0
M  END
$$$$
