CSD_code = KIJSUS | q = 0 | S = 0 | Stoichiometry = C32H29Cl2NP2Pd | MND = 4
 OpenBabel04212202063D

 67 72  0  0  0  0  0  0  0  0999 V2000
    5.6219    3.5898   10.9788 Pd  0  0  0  0  0  0  0  0  0  0  0  0
    6.8902    3.3030    9.1322 Cl  0  0  0  0  0  0  0  0  0  0  0  0
    7.0841    2.5115   12.3026 Cl  0  0  0  0  0  0  0  0  0  0  0  0
    3.7637    4.3741    9.9047 P   0  0  0  0  0  4  0  0  0  0  0  0
    4.2090    4.3702   12.5719 P   0  0  0  0  0  4  0  0  0  0  0  0
    2.9374    4.6110   11.4185 N   0  0  0  0  0  0  0  0  0  0  0  0
    1.5718    4.2496   11.5576 C   0  0  0  0  0  0  0  0  0  0  0  0
    0.6257    5.2313   11.2800 C   0  0  0  0  0  0  0  0  0  0  0  0
    0.9655    6.2145   10.9911 H   0  0  0  0  0  0  0  0  0  0  0  0
   -0.7214    4.9465   11.3747 C   0  0  0  0  0  0  0  0  0  0  0  0
   -1.4523    5.7109   11.1587 H   0  0  0  0  0  0  0  0  0  0  0  0
   -1.1250    3.6793   11.7529 C   0  0  0  0  0  0  0  0  0  0  0  0
   -2.1785    3.4553   11.8340 H   0  0  0  0  0  0  0  0  0  0  0  0
   -0.1954    2.6863   12.0259 C   0  0  0  0  0  0  0  0  0  0  0  0
    1.1734    2.9581   11.9202 C   0  0  0  0  0  0  0  0  0  0  0  0
   -0.6626    1.3195   12.4205 C   0  0  0  0  0  0  0  0  0  0  0  0
   -0.2329    1.0261   13.3772 H   0  0  0  0  0  0  0  0  0  0  0  0
   -0.3560    0.5820   11.6791 H   0  0  0  0  0  0  0  0  0  0  0  0
   -1.7459    1.2938   12.5033 H   0  0  0  0  0  0  0  0  0  0  0  0
    2.1522    1.8567   12.1914 C   0  0  0  0  0  0  0  0  0  0  0  0
    3.1862    2.1385   11.9656 H   0  0  0  0  0  0  0  0  0  0  0  0
    1.9081    0.9860   11.5835 H   0  0  0  0  0  0  0  0  0  0  0  0
    2.1070    1.5557   13.2386 H   0  0  0  0  0  0  0  0  0  0  0  0
    3.2422    5.7995    8.9171 C   0  0  0  0  0  0  0  0  0  0  0  0
    3.1334    7.0508    9.5175 C   0  0  0  0  0  0  0  0  0  0  0  0
    3.2908    7.1453   10.5840 H   0  0  0  0  0  0  0  0  0  0  0  0
    2.8274    8.1595    8.7512 C   0  0  0  0  0  0  0  0  0  0  0  0
    2.7326    9.1281    9.2201 H   0  0  0  0  0  0  0  0  0  0  0  0
    2.6544    8.0301    7.3819 C   0  0  0  0  0  0  0  0  0  0  0  0
    2.4177    8.8978    6.7844 H   0  0  0  0  0  0  0  0  0  0  0  0
    2.8008    6.7921    6.7764 C   0  0  0  0  0  0  0  0  0  0  0  0
    2.6841    6.6965    5.7071 H   0  0  0  0  0  0  0  0  0  0  0  0
    3.1034    5.6781    7.5376 C   0  0  0  0  0  0  0  0  0  0  0  0
    3.2343    4.7114    7.0711 H   0  0  0  0  0  0  0  0  0  0  0  0
    2.9081    2.9431    9.1787 C   0  0  0  0  0  0  0  0  0  0  0  0
    3.5736    1.7186    9.2057 C   0  0  0  0  0  0  0  0  0  0  0  0
    4.6051    1.6637    9.5760 H   0  0  0  0  0  0  0  0  0  0  0  0
    2.9331    0.5775    8.7555 C   0  0  0  0  0  0  0  0  0  0  0  0
    3.4498   -0.3704    8.7677 H   0  0  0  0  0  0  0  0  0  0  0  0
    1.6283    0.6530    8.2942 C   0  0  0  0  0  0  0  0  0  0  0  0
    1.1266   -0.2390    7.9483 H   0  0  0  0  0  0  0  0  0  0  0  0
    0.9640    1.8696    8.2722 C   0  0  0  0  0  0  0  0  0  0  0  0
   -0.0535    1.9247    7.9145 H   0  0  0  0  0  0  0  0  0  0  0  0
    1.6001    3.0172    8.7088 C   0  0  0  0  0  0  0  0  0  0  0  0
    1.0864    3.9682    8.6887 H   0  0  0  0  0  0  0  0  0  0  0  0
    4.7667    6.1020   12.7726 C   0  0  0  0  0  0  0  0  0  0  0  0
    6.0189    6.4348   12.2562 C   0  0  0  0  0  0  0  0  0  0  0  0
    6.6669    5.6537   11.8275 H   0  0  0  0  0  0  0  0  0  0  0  0
    6.4575    7.7470   12.2996 C   0  0  0  0  0  0  0  0  0  0  0  0
    7.4269    8.0041   11.9000 H   0  0  0  0  0  0  0  0  0  0  0  0
    5.6517    8.7286   12.8537 C   0  0  0  0  0  0  0  0  0  0  0  0
    5.9926    9.7528   12.8834 H   0  0  0  0  0  0  0  0  0  0  0  0
    4.4097    8.3994   13.3743 C   0  0  0  0  0  0  0  0  0  0  0  0
    3.7854    9.1661   13.8097 H   0  0  0  0  0  0  0  0  0  0  0  0
    3.9666    7.0897   13.3382 C   0  0  0  0  0  0  0  0  0  0  0  0
    2.9992    6.8305   13.7439 H   0  0  0  0  0  0  0  0  0  0  0  0
    3.4619    3.9715   14.1754 C   0  0  0  0  0  0  0  0  0  0  0  0
    4.2660    3.1956   15.0072 C   0  0  0  0  0  0  0  0  0  0  0  0
    5.2311    2.8642   14.6434 H   0  0  0  0  0  0  0  0  0  0  0  0
    3.8222    2.8513   16.2705 C   0  0  0  0  0  0  0  0  0  0  0  0
    4.4445    2.2504   16.9163 H   0  0  0  0  0  0  0  0  0  0  0  0
    2.5742    3.2734   16.7011 C   0  0  0  0  0  0  0  0  0  0  0  0
    2.2217    3.0005   17.6848 H   0  0  0  0  0  0  0  0  0  0  0  0
    1.7736    4.0425   15.8716 C   0  0  0  0  0  0  0  0  0  0  0  0
    0.8002    4.3676   16.2090 H   0  0  0  0  0  0  0  0  0  0  0  0
    2.2123    4.3997   14.6089 C   0  0  0  0  0  0  0  0  0  0  0  0
    1.5767    4.9885   13.9645 H   0  0  0  0  0  0  0  0  0  0  0  0
  1  3  1  0  0  0  0
  1  5  1  0  0  0  0
  2  1  1  0  0  0  0
  4  1  1  0  0  0  0
  4  6  1  0  0  0  0
  5 46  1  0  0  0  0
  5 57  1  0  0  0  0
  6  7  1  0  0  0  0
  6  5  1  0  0  0  0
  7 15  1  0  0  0  0
  8 10  1  0  0  0  0
  8  7  2  0  0  0  0
  9  8  1  0  0  0  0
 10 12  2  0  0  0  0
 11 10  1  0  0  0  0
 12 13  1  0  0  0  0
 12 14  1  0  0  0  0
 14 16  1  0  0  0  0
 15 14  2  0  0  0  0
 15 20  1  0  0  0  0
 16 19  1  0  0  0  0
 16 17  1  0  0  0  0
 18 16  1  0  0  0  0
 20 23  1  0  0  0  0
 21 20  1  0  0  0  0
 22 20  1  0  0  0  0
 24 25  1  0  0  0  0
 24  4  1  0  0  0  0
 25 26  1  0  0  0  0
 27 28  1  0  0  0  0
 27 25  2  0  0  0  0
 29 27  1  0  0  0  0
 30 29  1  0  0  0  0
 31 29  2  0  0  0  0
 31 33  1  0  0  0  0
 32 31  1  0  0  0  0
 33 24  2  0  0  0  0
 34 33  1  0  0  0  0
 35 36  1  0  0  0  0
 35  4  1  0  0  0  0
 36 37  1  0  0  0  0
 38 39  1  0  0  0  0
 38 36  2  0  0  0  0
 40 38  1  0  0  0  0
 41 40  1  0  0  0  0
 42 40  2  0  0  0  0
 42 44  1  0  0  0  0
 43 42  1  0  0  0  0
 44 35  2  0  0  0  0
 45 44  1  0  0  0  0
 46 55  1  0  0  0  0
 47 49  1  0  0  0  0
 47 46  2  0  0  0  0
 48 47  1  0  0  0  0
 49 51  2  0  0  0  0
 50 49  1  0  0  0  0
 51 52  1  0  0  0  0
 51 53  1  0  0  0  0
 53 54  1  0  0  0  0
 55 53  2  0  0  0  0
 55 56  1  0  0  0  0
 57 66  2  0  0  0  0
 57 58  1  0  0  0  0
 58 60  2  0  0  0  0
 59 58  1  0  0  0  0
 60 62  1  0  0  0  0
 60 61  1  0  0  0  0
 62 63  1  0  0  0  0
 64 65  1  0  0  0  0
 64 62  2  0  0  0  0
 66 64  1  0  0  0  0
 67 66  1  0  0  0  0
M  END
$$$$
