CSD_code = KIJVII | q = 0 | S = 0 | Stoichiometry = C19H30BIMoN8O | MND = 6
 OpenBabel04212202063D

 61 66  0  0  1  0  0  0  0  0999 V2000
    3.7046    4.7898    3.2531 I   0  0  0  0  0  0  0  0  0  0  0  0
    1.9717    2.9811    4.4636 Mo  0  0  0  0  0  0  0  0  0  0  0  0
    2.5306    1.7163    3.4220 N   0  0  0  0  0  2  0  0  0  0  0  0
    2.9235    0.8429    2.7049 O   0  0  0  0  0  1  0  0  0  0  0  0
    1.2355    4.6354    5.7162 N   0  0  2  0  0  0  0  0  0  0  0  0
   -0.0940    4.8571    5.7827 N   0  0  0  0  0  0  0  0  0  0  0  0
    3.3022    5.7617    6.6039 C   0  0  0  0  0  0  0  0  0  0  0  0
    1.8352    5.6161    6.3953 C   0  0  2  0  0  3  0  0  0  0  0  0
    0.8655    6.4867    6.9024 C   0  0  0  0  0  0  0  0  0  0  0  0
   -0.3482    5.9757    6.4902 C   0  0  0  0  0  0  0  0  0  0  0  0
   -1.7093    6.5154    6.7416 C   0  0  0  0  0  0  0  0  0  0  0  0
    0.3696    1.8731    5.3047 N   0  0  2  0  0  0  0  0  0  0  0  0
   -0.7869    2.4754    5.6328 N   0  0  0  0  0  0  0  0  0  0  0  0
    1.3913   -0.3870    5.5212 C   0  0  0  0  0  0  0  0  0  0  0  0
    0.3137    0.6126    5.7387 C   0  0  2  0  0  3  0  0  0  0  0  0
   -0.9105    0.4096    6.3779 C   0  0  0  0  0  0  0  0  0  0  0  0
   -1.5864    1.6141    6.2861 C   0  0  0  0  0  0  0  0  0  0  0  0
   -2.9392    1.9556    6.7955 C   0  0  0  0  0  0  0  0  0  0  0  0
    0.3540    3.5393    3.1086 N   0  0  2  0  0  0  0  0  0  0  0  0
   -0.8455    3.8991    3.6158 N   0  0  0  0  0  0  0  0  0  0  0  0
    1.3757    3.3055    0.8387 C   0  0  0  0  0  0  0  0  0  0  0  0
    0.2669    3.6102    1.7770 C   0  0  2  0  0  3  0  0  0  0  0  0
   -1.0182    4.0311    1.4273 C   0  0  0  0  0  0  0  0  0  0  0  0
   -1.6973    4.2015    2.6191 C   0  0  0  0  0  0  0  0  0  0  0  0
   -3.1045    4.6310    2.8253 C   0  0  0  0  0  0  0  0  0  0  0  0
    3.0944    2.4301    5.9172 N   0  0  0  0  0  0  0  0  0  0  0  0
    2.8171    2.5189    7.3387 C   0  0  0  0  0  0  0  0  0  0  0  0
    4.1306    2.2321    8.0696 C   0  0  0  0  0  0  0  0  0  0  0  0
    4.7712    1.2008    7.1468 C   0  0  0  0  0  0  0  0  0  0  0  0
    4.3534    1.7156    5.7656 C   0  0  0  0  0  0  0  0  0  0  0  0
   -1.0898    3.8978    5.1300 B   0  0  2  0  0  0  0  0  0  0  0  0
    2.3843    3.4825    7.6168 H   0  0  0  0  0  0  0  0  0  0  0  0
    2.0773    1.7417    7.6036 H   0  0  0  0  0  0  0  0  0  0  0  0
    4.7436    3.1342    8.1097 H   0  0  0  0  0  0  0  0  0  0  0  0
    3.9727    1.8686    9.0832 H   0  0  0  0  0  0  0  0  0  0  0  0
    5.8518    1.1413    7.2547 H   0  0  0  0  0  0  0  0  0  0  0  0
    4.3491    0.2115    7.3356 H   0  0  0  0  0  0  0  0  0  0  0  0
    5.1088    2.4219    5.3858 H   0  0  0  0  0  0  0  0  0  0  0  0
    4.2583    0.9136    5.0266 H   0  0  0  0  0  0  0  0  0  0  0  0
   -2.1997    4.2015    5.3816 H   0  0  0  0  0  0  0  0  0  0  0  0
    0.9658    3.0392   -0.1329 H   0  0  0  0  0  0  0  0  0  0  0  0
    2.0157    4.1798    0.7113 H   0  0  0  0  0  0  0  0  0  0  0  0
    1.9926    2.4869    1.2001 H   0  0  0  0  0  0  0  0  0  0  0  0
   -1.3974    4.1867    0.4381 H   0  0  0  0  0  0  0  0  0  0  0  0
   -3.1480    5.5367    3.4275 H   0  0  0  0  0  0  0  0  0  0  0  0
   -3.6738    3.8565    3.3366 H   0  0  0  0  0  0  0  0  0  0  0  0
   -3.5656    4.8275    1.8613 H   0  0  0  0  0  0  0  0  0  0  0  0
    1.7326   -0.3606    4.4885 H   0  0  0  0  0  0  0  0  0  0  0  0
    2.2468   -0.1911    6.1655 H   0  0  0  0  0  0  0  0  0  0  0  0
    1.0140   -1.3825    5.7424 H   0  0  0  0  0  0  0  0  0  0  0  0
   -1.2583   -0.4937    6.8362 H   0  0  0  0  0  0  0  0  0  0  0  0
   -2.8934    2.8132    7.4644 H   0  0  0  0  0  0  0  0  0  0  0  0
   -3.6091    2.2038    5.9739 H   0  0  0  0  0  0  0  0  0  0  0  0
   -3.3474    1.1063    7.3364 H   0  0  0  0  0  0  0  0  0  0  0  0
    3.4977    6.0035    7.6487 H   0  0  0  0  0  0  0  0  0  0  0  0
    3.6827    6.5809    5.9935 H   0  0  0  0  0  0  0  0  0  0  0  0
    3.8440    4.8586    6.3351 H   0  0  0  0  0  0  0  0  0  0  0  0
    1.0366    7.3691    7.4842 H   0  0  0  0  0  0  0  0  0  0  0  0
   -2.2097    6.7488    5.8033 H   0  0  0  0  0  0  0  0  0  0  0  0
   -2.3213    5.7948    7.2816 H   0  0  0  0  0  0  0  0  0  0  0  0
   -1.6315    7.4240    7.3326 H   0  0  0  0  0  0  0  0  0  0  0  0
  1  2  1  0  0  0  0
  2 12  1  0  0  0  0
  2  5  1  0  0  0  0
  2 26  1  0  0  0  0
  3  2  1  0  0  0  0
  4  3  1  0  0  0  0
  5  6  1  6  0  0  0
  5  8  1  0  0  0  0
  6 10  1  0  0  0  0
  7 55  1  0  0  0  0
  8  7  1  1  0  0  0
  8  9  1  0  0  0  0
  9 58  1  0  0  0  0
 10 11  1  0  0  0  0
 10  9  2  0  0  0  0
 11 60  1  0  0  0  0
 11 61  1  0  0  0  0
 12 13  1  1  0  0  0
 12 15  1  0  0  0  0
 13 17  1  0  0  0  0
 14 50  1  0  0  0  0
 14 49  1  0  0  0  0
 15 14  1  6  0  0  0
 15 16  1  0  0  0  0
 16 51  1  0  0  0  0
 17 16  2  0  0  0  0
 17 18  1  0  0  0  0
 18 54  1  0  0  0  0
 18 52  1  0  0  0  0
 19 20  1  6  0  0  0
 19  2  1  0  0  0  0
 20 31  1  0  0  0  0
 21 43  1  0  0  0  0
 22 21  1  1  0  0  0
 22 19  1  0  0  0  0
 23 22  1  0  0  0  0
 23 24  2  0  0  0  0
 24 25  1  0  0  0  0
 24 20  1  0  0  0  0
 25 46  1  0  0  0  0
 25 45  1  0  0  0  0
 26 27  1  0  0  0  0
 27 33  1  0  0  0  0
 27 32  1  0  0  0  0
 27 28  1  0  0  0  0
 28 34  1  0  0  0  0
 28 35  1  0  0  0  0
 29 36  1  0  0  0  0
 29 37  1  0  0  0  0
 29 28  1  0  0  0  0
 30 26  1  0  0  0  0
 30 29  1  0  0  0  0
 31 40  1  1  0  0  0
 31 13  1  0  0  0  0
 31  6  1  0  0  0  0
 38 30  1  0  0  0  0
 39 30  1  0  0  0  0
 41 21  1  0  0  0  0
 42 21  1  0  0  0  0
 44 23  1  0  0  0  0
 47 25  1  0  0  0  0
 48 14  1  0  0  0  0
 53 18  1  0  0  0  0
 56  7  1  0  0  0  0
 57  7  1  0  0  0  0
 59 11  1  0  0  0  0
M  END
$$$$
