CSD_code = KIKBEM | q = 0 | S = 0 | Stoichiometry = C20H16Br2N8NiS2 | MND = 4
 OpenBabel04212202063D

 49 54  0  0  1  0  0  0  0  0999 V2000
    4.1672    4.9077    0.1870 Br  0  0  0  0  0  0  0  0  0  0  0  0
    2.0368    4.0329   -0.0000 Ni  0  0  0  0  0  0  0  0  0  0  0  0
    2.3254    0.2950    1.1745 S   0  0  0  0  0  0  0  0  0  0  0  0
    2.2449    3.1197    1.5502 N   0  0  0  0  0  0  0  0  0  0  0  0
    2.2113    3.8434    2.6692 N   0  0  0  0  0  0  0  0  0  0  0  0
    2.2803    1.7586    3.2551 N   0  0  0  0  0  0  0  0  0  0  0  0
    2.3139    0.5236    3.7603 N   0  0  0  0  0  0  0  0  0  0  0  0
    2.2212    4.8322    5.3837 C   0  0  0  0  0  0  0  0  0  0  0  0
    2.2485    5.5357    4.5672 H   0  0  0  0  0  0  0  0  0  0  0  0
    2.1997    5.2544    6.6976 C   0  0  0  0  0  0  0  0  0  0  0  0
    2.2077    6.3102    6.9225 H   0  0  0  0  0  0  0  0  0  0  0  0
    2.1688    4.3262    7.7276 C   0  0  0  0  0  0  0  0  0  0  0  0
    2.1514    4.6597    8.7544 H   0  0  0  0  0  0  0  0  0  0  0  0
    2.1831    2.5343    6.1297 C   0  0  0  0  0  0  0  0  0  0  0  0
    2.1768    1.4784    5.9063 H   0  0  0  0  0  0  0  0  0  0  0  0
    2.2119    3.4669    5.0936 C   0  0  0  0  0  0  0  0  0  0  0  0
    2.1612    2.9705    7.4410 C   0  0  0  0  0  0  0  0  0  0  0  0
    2.1377    2.2487    8.2438 H   0  0  0  0  0  0  0  0  0  0  0  0
    2.2822    1.8543    1.8889 C   0  0  1  0  0  3  0  0  0  0  0  0
    2.3380   -0.3517    2.8293 C   0  0  0  0  0  0  0  0  0  0  0  0
    2.3700   -1.8075    3.0685 C   0  0  0  0  0  0  0  0  0  0  0  0
    2.3909   -1.9999    4.1375 H   0  0  0  0  0  0  0  0  0  0  0  0
    3.2501   -2.2457    2.6005 H   0  0  0  0  0  0  0  0  0  0  0  0
    1.4892   -2.2757    2.6314 H   0  0  0  0  0  0  0  0  0  0  0  0
    2.2323    3.0479    3.7125 C   0  0  0  0  0  0  0  0  0  0  0  0
   -0.0940    3.1589   -0.1880 Br  0  0  0  0  0  0  0  0  0  0  0  0
    1.7481    7.7708   -1.1746 S   0  0  0  0  0  0  0  0  0  0  0  0
    1.8287    4.9461   -1.5501 N   0  0  0  0  0  0  0  0  0  0  0  0
    1.8624    4.2223   -2.6690 N   0  0  0  0  0  0  0  0  0  0  0  0
    1.7933    6.3070   -3.2550 N   0  0  0  0  0  0  0  0  0  0  0  0
    1.7596    7.5420   -3.7604 N   0  0  0  0  0  0  0  0  0  0  0  0
    1.8527    3.2332   -5.3834 C   0  0  0  0  0  0  0  0  0  0  0  0
    1.8255    2.5298   -4.5669 H   0  0  0  0  0  0  0  0  0  0  0  0
    1.8743    2.8109   -6.6972 C   0  0  0  0  0  0  0  0  0  0  0  0
    1.8665    1.7551   -6.9221 H   0  0  0  0  0  0  0  0  0  0  0  0
    1.9050    3.7390   -7.7273 C   0  0  0  0  0  0  0  0  0  0  0  0
    1.9225    3.4054   -8.7542 H   0  0  0  0  0  0  0  0  0  0  0  0
    1.8904    5.5311   -6.1297 C   0  0  0  0  0  0  0  0  0  0  0  0
    1.8966    6.5871   -5.9064 H   0  0  0  0  0  0  0  0  0  0  0  0
    1.8618    4.5986   -5.0934 C   0  0  0  0  0  0  0  0  0  0  0  0
    1.9124    5.0947   -7.4409 C   0  0  0  0  0  0  0  0  0  0  0  0
    1.9358    5.8164   -8.2438 H   0  0  0  0  0  0  0  0  0  0  0  0
    1.7914    6.2114   -1.8889 C   0  0  2  0  0  3  0  0  0  0  0  0
    1.7355    8.4174   -2.8294 C   0  0  0  0  0  0  0  0  0  0  0  0
    1.7033    9.8731   -3.0688 C   0  0  0  0  0  0  0  0  0  0  0  0
    1.6825   10.0654   -4.1378 H   0  0  0  0  0  0  0  0  0  0  0  0
    0.8230   10.3113   -2.6010 H   0  0  0  0  0  0  0  0  0  0  0  0
    2.5840   10.3415   -2.6316 H   0  0  0  0  0  0  0  0  0  0  0  0
    1.8413    5.0177   -3.7123 C   0  0  0  0  0  0  0  0  0  0  0  0
  2  1  1  0  0  0  0
  2  4  1  0  0  0  0
  3 20  1  0  0  0  0
  4 19  1  0  0  0  0
  4  5  1  0  0  0  0
  5 25  2  0  0  0  0
  6 25  1  0  0  0  0
  6  7  1  0  0  0  0
  8 10  1  0  0  0  0
  9  8  1  0  0  0  0
 10 11  1  0  0  0  0
 10 12  2  0  0  0  0
 12 13  1  0  0  0  0
 14 17  2  0  0  0  0
 15 14  1  0  0  0  0
 16  8  2  0  0  0  0
 16 14  1  0  0  0  0
 17 12  1  0  0  0  0
 17 18  1  0  0  0  0
 19  3  1  6  0  0  0
 19  6  1  0  0  0  0
 20 21  1  0  0  0  0
 20  7  2  0  0  0  0
 21 22  1  0  0  0  0
 23 21  1  0  0  0  0
 24 21  1  0  0  0  0
 25 16  1  0  0  0  0
 26  2  1  0  0  0  0
 28  2  1  0  0  0  0
 29 28  1  0  0  0  0
 30 43  1  0  0  0  0
 31 30  1  0  0  0  0
 31 44  2  0  0  0  0
 32 40  1  0  0  0  0
 32 33  1  0  0  0  0
 34 32  2  0  0  0  0
 35 34  1  0  0  0  0
 36 41  2  0  0  0  0
 36 34  1  0  0  0  0
 37 36  1  0  0  0  0
 38 39  1  0  0  0  0
 38 40  2  0  0  0  0
 40 49  1  0  0  0  0
 41 38  1  0  0  0  0
 42 41  1  0  0  0  0
 43 28  1  0  0  0  0
 43 27  1  1  0  0  0
 44 27  1  0  0  0  0
 45 44  1  0  0  0  0
 45 48  1  0  0  0  0
 45 47  1  0  0  0  0
 46 45  1  0  0  0  0
 49 30  1  0  0  0  0
 49 29  2  0  0  0  0
M  END
$$$$
