CSD_code = KIKNUQ | q = 0 | S = 0 | Stoichiometry = C20H22Cl2FFeN2P | MND = 5
 OpenBabel04212202063D

 49 53  0  0  1  0  0  0  0  0999 V2000
    6.9696    3.7940    9.6455 Fe  0  0  0  0  0  0  0  0  0  0  0  0
    6.4736    5.0428   11.3690 P   0  0  0  0  0  4  0  0  0  0  0  0
    8.6514    4.9094    9.0339 Cl  0  0  0  0  0  0  0  0  0  0  0  0
    7.3478    2.1336   10.8173 Cl  0  0  0  0  0  0  0  0  0  0  0  0
    2.6049    8.3553    8.3674 F   0  0  0  0  0  0  0  0  0  0  0  0
    5.7153    4.7259    8.7346 N   0  0  0  0  0  0  0  0  0  0  0  0
    7.0603    2.7540    7.9754 N   0  0  0  0  0  0  0  0  0  0  0  0
    5.0467    5.8107    9.2396 C   0  0  0  0  0  0  0  0  0  0  0  0
    5.4312    4.3382    7.4595 C   0  0  0  0  0  0  0  0  0  0  0  0
    6.2347    3.2364    7.0134 C   0  0  1  0  0  3  0  0  0  0  0  0
    4.0991    6.5285    8.4750 C   0  0  0  0  0  0  0  0  0  0  0  0
    3.5174    7.6578    9.0756 C   0  0  1  0  0  3  0  0  0  0  0  0
    4.4632    4.9948    6.6793 C   0  0  0  0  0  0  0  0  0  0  0  0
    7.5966    6.0846   12.4133 C   0  0  0  0  0  0  0  0  0  0  0  0
    5.3452    6.2139   10.5556 C   0  0  0  0  0  0  0  0  0  0  0  0
    3.7990    6.0840    7.1628 C   0  0  0  0  0  0  0  0  0  0  0  0
    6.2401    2.6898    5.7230 C   0  0  0  0  0  0  0  0  0  0  0  0
    4.7630    7.3481   11.0885 C   0  0  0  0  0  0  0  0  0  0  0  0
    7.9095    1.7767    7.6699 C   0  0  0  0  0  0  0  0  0  0  0  0
    3.8430    8.0804   10.3416 C   0  0  0  0  0  0  0  0  0  0  0  0
    5.3314    4.1701   12.5681 C   0  0  0  0  0  0  0  0  0  0  0  0
    8.2360    7.1875   11.5755 C   0  0  0  0  0  0  0  0  0  0  0  0
    7.9657    1.1960    6.4214 C   0  0  0  0  0  0  0  0  0  0  0  0
    7.1034    1.6607    5.4284 C   0  0  0  0  0  0  0  0  0  0  0  0
    8.6542    5.1522   13.0002 C   0  0  0  0  0  0  0  0  0  0  0  0
    4.1960    3.5509   11.7526 C   0  0  0  0  0  0  0  0  0  0  0  0
    4.7733    5.0225   13.7011 C   0  0  0  0  0  0  0  0  0  0  0  0
    5.0224    7.6810   12.0816 H   0  0  0  0  0  0  0  0  0  0  0  0
    3.3783    8.9670   10.7434 H   0  0  0  0  0  0  0  0  0  0  0  0
    8.5568    1.4485    8.4710 H   0  0  0  0  0  0  0  0  0  0  0  0
    8.6643    0.3995    6.2251 H   0  0  0  0  0  0  0  0  0  0  0  0
    7.1223    1.2265    4.4404 H   0  0  0  0  0  0  0  0  0  0  0  0
    5.5794    3.0856    4.9691 H   0  0  0  0  0  0  0  0  0  0  0  0
    4.2612    4.6324    5.6847 H   0  0  0  0  0  0  0  0  0  0  0  0
    3.0688    6.6153    6.5747 H   0  0  0  0  0  0  0  0  0  0  0  0
    7.0015    6.5344   13.2175 H   0  0  0  0  0  0  0  0  0  0  0  0
    5.9398    3.3581   12.9862 H   0  0  0  0  0  0  0  0  0  0  0  0
    8.7809    6.7569   10.7390 H   0  0  0  0  0  0  0  0  0  0  0  0
    7.4844    7.8680   11.1802 H   0  0  0  0  0  0  0  0  0  0  0  0
    8.9315    7.7589   12.1879 H   0  0  0  0  0  0  0  0  0  0  0  0
    8.1974    4.3586   13.5904 H   0  0  0  0  0  0  0  0  0  0  0  0
    9.2239    4.6946   12.1922 H   0  0  0  0  0  0  0  0  0  0  0  0
    9.3423    5.7053   13.6369 H   0  0  0  0  0  0  0  0  0  0  0  0
    3.5413    4.3251   11.3541 H   0  0  0  0  0  0  0  0  0  0  0  0
    4.5938    2.9682   10.9185 H   0  0  0  0  0  0  0  0  0  0  0  0
    3.6021    2.8863   12.3772 H   0  0  0  0  0  0  0  0  0  0  0  0
    5.5589    5.3908   14.3559 H   0  0  0  0  0  0  0  0  0  0  0  0
    4.2075    5.8653   13.3098 H   0  0  0  0  0  0  0  0  0  0  0  0
    4.0978    4.4162   14.3031 H   0  0  0  0  0  0  0  0  0  0  0  0
  1  4  1  0  0  0  0
  1  2  1  0  0  0  0
  2 14  1  0  0  0  0
  2 21  1  0  0  0  0
  3  1  1  0  0  0  0
  6  8  1  0  0  0  0
  6  1  1  0  0  0  0
  7  1  1  0  0  0  0
  8 15  2  0  0  0  0
  9  6  1  0  0  0  0
 10 17  1  6  0  0  0
 10  9  1  0  0  0  0
 10  7  1  0  0  0  0
 11 12  1  0  0  0  0
 11  8  1  0  0  0  0
 12  5  1  6  0  0  0
 12 20  1  0  0  0  0
 13 16  1  0  0  0  0
 13  9  2  0  0  0  0
 14 25  1  0  0  0  0
 14 36  1  0  0  0  0
 15 18  1  0  0  0  0
 15  2  1  0  0  0  0
 16 11  2  0  0  0  0
 18 28  1  0  0  0  0
 19  7  1  0  0  0  0
 19 30  1  0  0  0  0
 20 29  1  0  0  0  0
 20 18  2  0  0  0  0
 21 37  1  0  0  0  0
 21 27  1  0  0  0  0
 22 40  1  0  0  0  0
 22 14  1  0  0  0  0
 23 19  2  0  0  0  0
 24 17  2  0  0  0  0
 24 23  1  0  0  0  0
 25 41  1  0  0  0  0
 25 43  1  0  0  0  0
 26 46  1  0  0  0  0
 26 21  1  0  0  0  0
 27 49  1  0  0  0  0
 27 47  1  0  0  0  0
 31 23  1  0  0  0  0
 32 24  1  0  0  0  0
 33 17  1  0  0  0  0
 34 13  1  0  0  0  0
 35 16  1  0  0  0  0
 38 22  1  0  0  0  0
 39 22  1  0  0  0  0
 42 25  1  0  0  0  0
 44 26  1  0  0  0  0
 45 26  1  0  0  0  0
 48 27  1  0  0  0  0
M  END
$$$$
