CSD_code = KIKRUU | q = 1 | S = 0 | Stoichiometry = C27H21ClN7Ru(1+) | MND = 6
 OpenBabel04212202063D

 57 64  0  0  1  0  0  0  0  0999 V2000
    0.4871   -2.5758   10.0939 Ru  0  0  0  0  0  0  0  0  0  0  0  0
   -1.5333   -3.5160    9.3904 Cl  0  0  0  0  0  0  0  0  0  0  0  0
    0.4721   -1.9972   14.2758 C   0  0  0  0  0  0  0  0  0  0  0  0
    1.2481   -1.7985   14.9958 H   0  0  0  0  0  0  0  0  0  0  0  0
   -1.8103   -2.3918   13.7252 C   0  0  0  0  0  0  0  0  0  0  0  0
   -2.8459   -2.5106   13.9984 H   0  0  0  0  0  0  0  0  0  0  0  0
   -1.0171    0.0548    9.7128 C   0  0  0  0  0  0  0  0  0  0  0  0
    1.6062   -3.3392    5.7139 C   0  0  0  0  0  0  0  0  0  0  0  0
    1.8187   -3.5441    4.6764 H   0  0  0  0  0  0  0  0  0  0  0  0
   -0.0220   -0.8811    7.9113 N   0  0  0  0  0  2  0  0  0  0  0  0
   -0.1728   -2.3443   11.9880 N   0  0  0  0  0  0  0  0  0  0  0  0
    1.0752   -2.8212    8.3321 N   0  0  0  0  0  0  0  0  0  0  0  0
   -0.1655   -0.9013    9.1837 N   0  0  0  0  0  0  0  0  0  0  0  0
    2.1490   -1.8660   11.0100 N   0  0  0  0  0  0  0  0  0  0  0  0
    3.1841   -5.3577   11.5129 C   0  0  0  0  0  0  0  0  0  0  0  0
    3.8744   -5.2068   10.6963 H   0  0  0  0  0  0  0  0  0  0  0  0
   -2.1110    0.5245    8.9761 C   0  0  0  0  0  0  0  0  0  0  0  0
   -2.2708    0.1368    7.9820 H   0  0  0  0  0  0  0  0  0  0  0  0
    1.9550   -4.2776    6.6773 C   0  0  0  0  0  0  0  0  0  0  0  0
    2.4154   -5.2162    6.4207 H   0  0  0  0  0  0  0  0  0  0  0  0
   -0.7923    0.5345   11.0073 C   0  0  0  0  0  0  0  0  0  0  0  0
    0.0909    0.2181   11.5486 H   0  0  0  0  0  0  0  0  0  0  0  0
   -1.6614    1.4533   11.5584 C   0  0  0  0  0  0  0  0  0  0  0  0
   -1.4808    1.8327   12.5526 H   0  0  0  0  0  0  0  0  0  0  0  0
   -1.4379   -2.4735   12.3981 C   0  0  0  0  0  3  0  0  0  0  0  0
   -2.1709   -2.6647   11.6236 H   0  0  0  0  0  0  0  0  0  0  0  0
    1.4165   -4.3567   10.1833 N   0  0  0  0  0  0  0  0  0  0  0  0
    0.9610   -2.1579    6.0555 C   0  0  0  0  0  0  0  0  0  0  0  0
    0.6452   -1.4435    5.3148 H   0  0  0  0  0  0  0  0  0  0  0  0
    3.2554   -1.5978   13.1139 C   0  0  0  0  0  0  0  0  0  0  0  0
    3.2091   -1.6039   14.1897 H   0  0  0  0  0  0  0  0  0  0  0  0
   -0.8354   -2.1614   14.6890 C   0  0  0  0  0  0  0  0  0  0  0  0
   -1.0926   -2.1028   15.7344 H   0  0  0  0  0  0  0  0  0  0  0  0
    3.5945   -5.9032   12.7124 C   0  0  0  0  0  0  0  0  0  0  0  0
    4.6255   -6.1934   12.8429 H   0  0  0  0  0  0  0  0  0  0  0  0
    2.1067   -1.8513   12.3629 C   0  0  1  0  0  3  0  0  0  0  0  0
    1.6593   -3.9931    8.0119 C   0  0  0  0  0  0  0  0  0  0  0  0
    0.7799   -2.0844   12.9181 C   0  0  0  0  0  0  0  0  0  0  0  0
   -2.7609    1.8963   10.8349 C   0  0  0  0  0  0  0  0  0  0  0  0
   -3.4427    2.6067   11.2754 H   0  0  0  0  0  0  0  0  0  0  0  0
    1.8499   -4.9718   11.3510 C   0  0  0  0  0  0  0  0  0  0  0  0
   -2.9792    1.4330    9.5453 C   0  0  0  0  0  0  0  0  0  0  0  0
   -3.8315    1.7822    8.9832 H   0  0  0  0  0  0  0  0  0  0  0  0
    1.9551   -4.7648    9.0917 N   0  0  0  0  0  0  0  0  0  0  0  0
    0.6861   -1.9254    7.4056 C   0  0  0  0  0  0  0  0  0  0  0  0
    0.9315   -5.1747   12.3846 C   0  0  0  0  0  0  0  0  0  0  0  0
   -0.1116   -4.9425   12.2152 H   0  0  0  0  0  0  0  0  0  0  0  0
    3.3050   -1.6037   10.3937 C   0  0  0  0  0  0  0  0  0  0  0  0
    3.2886   -1.6052    9.3091 H   0  0  0  0  0  0  0  0  0  0  0  0
    1.3537   -5.7356   13.5732 C   0  0  0  0  0  0  0  0  0  0  0  0
    0.6423   -5.9094   14.3656 H   0  0  0  0  0  0  0  0  0  0  0  0
    2.6854   -6.0867   13.7446 C   0  0  0  0  0  0  0  0  0  0  0  0
    3.0119   -6.5176   14.6783 H   0  0  0  0  0  0  0  0  0  0  0  0
    4.4726   -1.3389   11.0790 C   0  0  0  0  0  0  0  0  0  0  0  0
    5.3808   -1.1345   10.5366 H   0  0  0  0  0  0  0  0  0  0  0  0
    4.4506   -1.3472   12.4701 C   0  0  0  0  0  0  0  0  0  0  0  0
    5.3487   -1.1559   13.0349 H   0  0  0  0  0  0  0  0  0  0  0  0
  1 27  1  0  0  0  0
  1 14  1  0  0  0  0
  1 11  1  0  0  0  0
  2  1  1  0  0  0  0
  3 32  1  0  0  0  0
  3  4  1  0  0  0  0
  5  6  1  0  0  0  0
  5 32  2  0  0  0  0
  7 21  1  0  0  0  0
  8 28  1  0  0  0  0
  8 19  2  0  0  0  0
  9  8  1  0  0  0  0
 10 13  1  0  0  0  0
 11 25  1  0  0  0  0
 11 38  1  0  0  0  0
 12  1  1  0  0  0  0
 13  7  1  0  0  0  0
 13  1  1  0  0  0  0
 14 36  1  0  0  0  0
 15 34  1  0  0  0  0
 16 15  1  0  0  0  0
 17 42  1  0  0  0  0
 17  7  2  0  0  0  0
 18 17  1  0  0  0  0
 19 37  1  0  0  0  0
 20 19  1  0  0  0  0
 21 22  1  0  0  0  0
 21 23  2  0  0  0  0
 23 24  1  0  0  0  0
 25  5  1  0  0  0  0
 26 25  1  0  0  0  0
 27 41  1  0  0  0  0
 28 45  2  0  0  0  0
 29 28  1  0  0  0  0
 30 31  1  0  0  0  0
 32 33  1  0  0  0  0
 34 35  1  0  0  0  0
 34 52  2  0  0  0  0
 36 38  1  6  0  0  0
 36 30  1  0  0  0  0
 37 12  1  0  0  0  0
 37 44  2  0  0  0  0
 38  3  2  0  0  0  0
 39 40  1  0  0  0  0
 39 23  1  0  0  0  0
 41 15  2  0  0  0  0
 41 46  1  0  0  0  0
 42 39  2  0  0  0  0
 43 42  1  0  0  0  0
 44 27  1  0  0  0  0
 45 10  1  0  0  0  0
 45 12  1  0  0  0  0
 46 50  2  0  0  0  0
 47 46  1  0  0  0  0
 48 14  1  0  0  0  0
 48 54  2  0  0  0  0
 49 48  1  0  0  0  0
 50 52  1  0  0  0  0
 50 51  1  0  0  0  0
 52 53  1  0  0  0  0
 54 56  1  0  0  0  0
 55 54  1  0  0  0  0
 56 57  1  0  0  0  0
 56 30  2  0  0  0  0
M  END
$$$$
