CSD_code = KIKSAB | q = 0 | S = 0 | Stoichiometry = C22H20ClN5O2Ru | MND = 6
 OpenBabel04212202063D

 51 56  0  0  1  0  0  0  0  0999 V2000
    9.5143    1.5624    0.5737 Ru  0  0  0  0  0  0  0  0  0  0  0  0
    9.7880   -0.1779   -0.9300 Cl  0  0  0  0  0  0  0  0  0  0  0  0
    9.3634    3.0998    1.9864 O   0  0  0  0  0  0  0  0  0  0  0  0
   11.1981    0.9425    1.6461 O   0  0  0  0  0  0  0  0  0  0  0  0
    6.8757    0.9631    1.2208 N   0  0  0  0  0  2  0  0  0  0  0  0
   10.1522    3.3503    2.9471 C   0  0  2  0  0  3  0  0  0  0  0  0
    8.0761    0.5749    1.5143 N   0  0  0  0  0  0  0  0  0  0  0  0
    8.0326    2.2908   -0.2143 N   0  0  0  0  0  0  0  0  0  0  0  0
    8.2238    3.3215   -1.0605 C   0  0  0  0  0  0  0  0  0  0  0  0
   11.7399    1.4743    2.6439 C   0  0  0  0  0  0  0  0  0  0  0  0
    8.1721   -0.4109    2.4783 C   0  0  0  0  0  0  0  0  0  0  0  0
   10.3573    2.8462   -0.6696 N   0  0  0  0  0  0  0  0  0  0  0  0
    6.8292    1.9335    0.2740 C   0  0  0  0  0  0  0  0  0  0  0  0
    9.5270    3.6071   -1.3086 N   0  0  0  0  0  0  0  0  0  0  0  0
    9.3119   -1.2208    2.4993 C   0  0  0  0  0  0  0  0  0  0  0  0
   10.0634   -1.0966    1.7310 H   0  0  0  0  0  0  0  0  0  0  0  0
    5.6872    2.5846   -0.1990 C   0  0  0  0  0  0  0  0  0  0  0  0
    4.7168    2.3030    0.1726 H   0  0  0  0  0  0  0  0  0  0  0  0
    8.4536   -2.3647    4.4284 C   0  0  0  0  0  0  0  0  0  0  0  0
    8.5651   -3.1218    5.1902 H   0  0  0  0  0  0  0  0  0  0  0  0
    5.8516    3.6007   -1.1315 C   0  0  0  0  0  0  0  0  0  0  0  0
    4.9799    4.1108   -1.5120 H   0  0  0  0  0  0  0  0  0  0  0  0
    9.4434   -2.1910    3.4723 C   0  0  0  0  0  0  0  0  0  0  0  0
   10.3202   -2.8209    3.4835 H   0  0  0  0  0  0  0  0  0  0  0  0
    7.1662   -0.6010    3.4331 C   0  0  0  0  0  0  0  0  0  0  0  0
    6.2943    0.0338    3.3987 H   0  0  0  0  0  0  0  0  0  0  0  0
   12.9912    0.8136    3.1773 C   0  0  0  0  0  0  0  0  0  0  0  0
   13.2123   -0.0740    2.5909 H   0  0  0  0  0  0  0  0  0  0  0  0
   12.8518    0.5361    4.2195 H   0  0  0  0  0  0  0  0  0  0  0  0
   13.8281    1.5057    3.1154 H   0  0  0  0  0  0  0  0  0  0  0  0
    7.3166   -1.5695    4.4031 C   0  0  0  0  0  0  0  0  0  0  0  0
    6.5447   -1.7083    5.1456 H   0  0  0  0  0  0  0  0  0  0  0  0
   12.6215    2.0763   -0.6824 C   0  0  0  0  0  0  0  0  0  0  0  0
   12.2609    1.0793   -0.4662 H   0  0  0  0  0  0  0  0  0  0  0  0
    7.1103    4.0006   -1.5612 C   0  0  0  0  0  0  0  0  0  0  0  0
    7.2457    4.8186   -2.2479 H   0  0  0  0  0  0  0  0  0  0  0  0
   11.2841    2.6280    3.3038 C   0  0  0  0  0  0  0  0  0  0  0  0
   11.8515    2.9761    4.1522 H   0  0  0  0  0  0  0  0  0  0  0  0
   12.1487    4.3932   -1.2022 C   0  0  0  0  0  0  0  0  0  0  0  0
   11.4199    5.1776   -1.3377 H   0  0  0  0  0  0  0  0  0  0  0  0
   11.6995    3.1125   -0.8609 C   0  0  0  0  0  0  0  0  0  0  0  0
    9.8001    4.5668    3.7769 C   0  0  0  0  0  0  0  0  0  0  0  0
    8.9014    5.0323    3.3802 H   0  0  0  0  0  0  0  0  0  0  0  0
   10.6195    5.2817    3.7522 H   0  0  0  0  0  0  0  0  0  0  0  0
    9.6300    4.2746    4.8106 H   0  0  0  0  0  0  0  0  0  0  0  0
   13.9707    2.3309   -0.8237 C   0  0  0  0  0  0  0  0  0  0  0  0
   14.6822    1.5295   -0.6922 H   0  0  0  0  0  0  0  0  0  0  0  0
   13.5006    4.6324   -1.3323 C   0  0  0  0  0  0  0  0  0  0  0  0
   13.8474    5.6238   -1.5843 H   0  0  0  0  0  0  0  0  0  0  0  0
   14.4147    3.6063   -1.1405 C   0  0  0  0  0  0  0  0  0  0  0  0
   15.4720    3.8002   -1.2438 H   0  0  0  0  0  0  0  0  0  0  0  0
  1  7  1  0  0  0  0
  1  4  1  0  0  0  0
  1  3  1  0  0  0  0
  2  1  1  0  0  0  0
  3  6  1  0  0  0  0
  4 10  1  0  0  0  0
  5  7  1  0  0  0  0
  6 37  1  0  0  0  0
  6 42  1  1  0  0  0
  7 11  1  0  0  0  0
  8 13  1  0  0  0  0
  8  1  1  0  0  0  0
  9  8  1  0  0  0  0
 10 27  1  0  0  0  0
 10 37  2  0  0  0  0
 11 15  2  0  0  0  0
 11 25  1  0  0  0  0
 12  1  1  0  0  0  0
 13  5  1  0  0  0  0
 14  9  2  0  0  0  0
 14 12  1  0  0  0  0
 15 23  1  0  0  0  0
 16 15  1  0  0  0  0
 17 18  1  0  0  0  0
 17 13  2  0  0  0  0
 19 20  1  0  0  0  0
 21 17  1  0  0  0  0
 22 21  1  0  0  0  0
 23 24  1  0  0  0  0
 23 19  2  0  0  0  0
 25 31  2  0  0  0  0
 26 25  1  0  0  0  0
 27 29  1  0  0  0  0
 28 27  1  0  0  0  0
 30 27  1  0  0  0  0
 31 19  1  0  0  0  0
 31 32  1  0  0  0  0
 33 34  1  0  0  0  0
 35 21  2  0  0  0  0
 35  9  1  0  0  0  0
 36 35  1  0  0  0  0
 37 38  1  0  0  0  0
 39 41  1  0  0  0  0
 40 39  1  0  0  0  0
 41 33  2  0  0  0  0
 41 12  1  0  0  0  0
 42 45  1  0  0  0  0
 43 42  1  0  0  0  0
 44 42  1  0  0  0  0
 46 47  1  0  0  0  0
 46 33  1  0  0  0  0
 48 39  2  0  0  0  0
 48 50  1  0  0  0  0
 49 48  1  0  0  0  0
 50 46  2  0  0  0  0
 51 50  1  0  0  0  0
M  END
$$$$
