CSD_code = KIKWOQ | q = 0 | S = 0 | Stoichiometry = C20H21AuClPS | MND = 2
 OpenBabel04212202063D

 45 48  0  0  1  0  0  0  0  0999 V2000
    7.5819    7.9019   11.7525 Au  0  0  0  0  0  0  0  0  0  0  0  0
    7.5331    7.8296   14.0175 Cl  0  0  0  0  0  0  0  0  0  0  0  0
    7.5303    8.0663    9.5245 P   0  0  1  0  0  4  0  0  0  0  0  0
    6.3286    9.2626    8.7931 C   0  0  2  0  0  0  0  0  0  0  0  0
    6.7698    9.3165    7.3455 C   0  0  0  0  0  0  0  0  0  0  0  0
    8.1020    9.2720    7.2661 C   0  0  0  0  0  0  0  0  0  0  0  0
    8.7080    9.1965    8.6523 C   0  0  1  0  0  0  0  0  0  0  0  0
    8.3636   10.5257    9.3529 C   0  0  1  0  0  0  0  0  0  0  0  0
    6.8339   10.5433    9.4949 C   0  0  0  0  0  0  0  0  0  0  0  0
    5.7585    9.4761    6.2656 C   0  0  0  0  0  0  0  0  0  0  0  0
    8.9930    9.3619    6.0784 C   0  0  0  0  0  0  0  0  0  0  0  0
    7.4912    6.5770    8.5108 C   0  0  0  0  0  0  0  0  0  0  0  0
    6.3044    6.0790    7.9842 C   0  0  0  0  0  0  0  0  0  0  0  0
    6.3183    4.8997    7.2619 C   0  0  0  0  0  0  0  0  0  0  0  0
    7.5064    4.2112    7.0768 C   0  0  0  0  0  0  0  0  0  0  0  0
    8.6859    4.6933    7.6229 C   0  0  0  0  0  0  0  0  0  0  0  0
    8.6800    5.8702    8.3472 C   0  0  0  0  0  0  0  0  0  0  0  0
    9.2660   10.5456   10.9599 S   0  0  0  0  0  0  0  0  0  0  0  0
    8.3446   11.7407   11.9044 C   0  0  0  0  0  0  0  0  0  0  0  0
    7.9894   11.4174   13.2059 C   0  0  0  0  0  0  0  0  0  0  0  0
    7.2897   12.3383   13.9654 C   0  0  0  0  0  0  0  0  0  0  0  0
    6.9435   13.5676   13.4294 C   0  0  0  0  0  0  0  0  0  0  0  0
    7.3081   13.8839   12.1306 C   0  0  0  0  0  0  0  0  0  0  0  0
    8.0179   12.9766   11.3656 C   0  0  0  0  0  0  0  0  0  0  0  0
    5.2658    9.0847    8.9567 H   0  0  0  0  0  0  0  0  0  0  0  0
    9.7702    8.9565    8.6922 H   0  0  0  0  0  0  0  0  0  0  0  0
    8.7332   11.3699    8.7660 H   0  0  0  0  0  0  0  0  0  0  0  0
    6.5437   10.5285   10.5494 H   0  0  0  0  0  0  0  0  0  0  0  0
    6.3992   11.4344    9.0397 H   0  0  0  0  0  0  0  0  0  0  0  0
    5.1006    8.6078    6.2347 H   0  0  0  0  0  0  0  0  0  0  0  0
    6.2306    9.5862    5.2939 H   0  0  0  0  0  0  0  0  0  0  0  0
    5.1417   10.3538    6.4575 H   0  0  0  0  0  0  0  0  0  0  0  0
    9.5801    8.4480    5.9854 H   0  0  0  0  0  0  0  0  0  0  0  0
    9.6885   10.1931    6.1931 H   0  0  0  0  0  0  0  0  0  0  0  0
    8.4241    9.5043    5.1645 H   0  0  0  0  0  0  0  0  0  0  0  0
    5.3797    6.6160    8.1429 H   0  0  0  0  0  0  0  0  0  0  0  0
    5.3999    4.5135    6.8450 H   0  0  0  0  0  0  0  0  0  0  0  0
    7.5120    3.2908    6.5124 H   0  0  0  0  0  0  0  0  0  0  0  0
    9.6077    4.1474    7.4873 H   0  0  0  0  0  0  0  0  0  0  0  0
    9.5896    6.2525    8.7924 H   0  0  0  0  0  0  0  0  0  0  0  0
    8.2447   10.4508   13.6124 H   0  0  0  0  0  0  0  0  0  0  0  0
    7.0080   12.0839   14.9755 H   0  0  0  0  0  0  0  0  0  0  0  0
    6.3910   14.2811   14.0224 H   0  0  0  0  0  0  0  0  0  0  0  0
    7.0464   14.8445   11.7113 H   0  0  0  0  0  0  0  0  0  0  0  0
    8.3154   13.2276   10.3583 H   0  0  0  0  0  0  0  0  0  0  0  0
  1  2  1  0  0  0  0
  3  1  1  1  0  0  0
  4 25  1  1  0  0  0
  4  9  1  0  0  0  0
  4  3  1  0  0  0  0
  5  4  1  0  0  0  0
  6  5  2  0  0  0  0
  6  7  1  0  0  0  0
  7 26  1  1  0  0  0
  7  8  1  0  0  0  0
  7  3  1  0  0  0  0
  8 27  1  6  0  0  0
  8  9  1  0  0  0  0
  8 18  1  0  0  0  0
  9 28  1  0  0  0  0
 10 32  1  0  0  0  0
 10  5  1  0  0  0  0
 11 34  1  0  0  0  0
 11  6  1  0  0  0  0
 12  3  1  0  0  0  0
 13 36  1  0  0  0  0
 13 12  2  0  0  0  0
 14 13  1  0  0  0  0
 15 14  2  0  0  0  0
 15 16  1  0  0  0  0
 16 17  2  0  0  0  0
 17 12  1  0  0  0  0
 17 40  1  0  0  0  0
 18 19  1  0  0  0  0
 19 20  1  0  0  0  0
 20 41  1  0  0  0  0
 20 21  2  0  0  0  0
 21 42  1  0  0  0  0
 22 21  1  0  0  0  0
 22 43  1  0  0  0  0
 23 22  2  0  0  0  0
 24 19  2  0  0  0  0
 24 23  1  0  0  0  0
 29  9  1  0  0  0  0
 30 10  1  0  0  0  0
 31 10  1  0  0  0  0
 33 11  1  0  0  0  0
 35 11  1  0  0  0  0
 37 14  1  0  0  0  0
 38 15  1  0  0  0  0
 39 16  1  0  0  0  0
 44 23  1  0  0  0  0
 45 24  1  0  0  0  0
M  END
$$$$
