CSD_code = KILKAR | q = 0 | S = 0 | Stoichiometry = C15H38ClO2P3SiW | MND = 7
 OpenBabel04212202063D

 61 56  0  0  0  0  0  0  0  0999 V2000
   -3.7566    0.0739   -2.1505 W   0  0  0  0  0  0  0  0  0  0  0  0
   -5.8532   -1.1250   -1.9463 Cl  0  0  0  0  0 15  0  0  0  0  0  0
   -4.9855    1.0031   -4.0297 P   0  0  0  0  0  0  0  0  0  0  0  0
   -2.9982   -1.4610   -0.4215 P   0  0  0  0  0  0  0  0  0  0  0  0
   -4.5283    1.7953   -0.6585 P   0  0  0  0  0  0  0  0  0  0  0  0
    0.1520   -1.0476   -4.4168 Si  0  0  0  0  0  0  0  0  0  0  0  0
   -1.0792    1.6459   -2.0283 O   0  0  0  0  0  1  0  0  0  0  0  0
   -2.9451   -1.5686   -3.6855 O   0  0  0  0  0  0  0  0  0  0  0  0
   -2.1110    1.0979   -2.0415 C   0  0  0  0  0  2  0  0  0  0  0  0
   -2.4686   -0.4373   -3.6732 C   0  0  0  0  0  0  0  0  0  0  0  0
   -1.4353    0.0259   -4.6236 C   0  0  0  0  0  0  0  0  0  0  0  0
    1.5015   -0.2772   -5.5217 C   0  0  0  0  0  0  0  0  0  0  0  0
   -0.2620   -2.8213   -4.9846 C   0  0  0  0  0  0  0  0  0  0  0  0
    0.6976   -1.0349   -2.5949 C   0  0  0  0  0  0  0  0  0  0  0  0
   -5.2959   -0.2756   -5.3066 C   0  0  0  0  0  0  0  0  0  0  0  0
   -4.3231    2.3653   -5.0720 C   0  0  0  0  0  0  0  0  0  0  0  0
   -6.7149    1.5746   -3.7962 C   0  0  0  0  0  0  0  0  0  0  0  0
   -4.2294   -1.9489    0.8481 C   0  0  0  0  0  0  0  0  0  0  0  0
   -1.5432   -1.1529    0.6630 C   0  0  0  0  0  0  0  0  0  0  0  0
   -2.6038   -3.1192   -1.0953 C   0  0  0  0  0  0  0  0  0  0  0  0
   -3.5878    2.0317    0.9060 C   0  0  0  0  0  0  0  0  0  0  0  0
   -4.4603    3.5227   -1.2735 C   0  0  0  0  0  0  0  0  0  0  0  0
   -6.2327    1.6776   -0.0049 C   0  0  0  0  0  0  0  0  0  0  0  0
   -1.8070   -0.1299   -5.6389 H   0  0  0  0  0  0  0  0  0  0  0  0
   -1.2189    1.0831   -4.4893 H   0  0  0  0  0  0  0  0  0  0  0  0
    1.2001   -0.2399   -6.5638 H   0  0  0  0  0  0  0  0  0  0  0  0
    2.4138   -0.8610   -5.4660 H   0  0  0  0  0  0  0  0  0  0  0  0
    1.7402    0.7345   -5.2105 H   0  0  0  0  0  0  0  0  0  0  0  0
   -0.3270   -2.8890   -6.0670 H   0  0  0  0  0  0  0  0  0  0  0  0
    0.4907   -3.5327   -4.6577 H   0  0  0  0  0  0  0  0  0  0  0  0
   -1.2191   -3.1380   -4.5796 H   0  0  0  0  0  0  0  0  0  0  0  0
   -0.0987   -1.4209   -1.9645 H   0  0  0  0  0  0  0  0  0  0  0  0
    0.9176   -0.0264   -2.2577 H   0  0  0  0  0  0  0  0  0  0  0  0
    1.5815   -1.6443   -2.4309 H   0  0  0  0  0  0  0  0  0  0  0  0
   -4.3523   -0.6417   -5.7097 H   0  0  0  0  0  0  0  0  0  0  0  0
   -5.9114    0.1216   -6.1150 H   0  0  0  0  0  0  0  0  0  0  0  0
   -5.8118   -1.1066   -4.8245 H   0  0  0  0  0  0  0  0  0  0  0  0
   -4.1626    3.2481   -4.4569 H   0  0  0  0  0  0  0  0  0  0  0  0
   -5.0143    2.6025   -5.8804 H   0  0  0  0  0  0  0  0  0  0  0  0
   -3.3664    2.0607   -5.4896 H   0  0  0  0  0  0  0  0  0  0  0  0
   -7.2565    0.7890   -3.2714 H   0  0  0  0  0  0  0  0  0  0  0  0
   -7.1850    1.7616   -4.7622 H   0  0  0  0  0  0  0  0  0  0  0  0
   -6.7386    2.4851   -3.2001 H   0  0  0  0  0  0  0  0  0  0  0  0
   -5.1247   -2.3008    0.3379 H   0  0  0  0  0  0  0  0  0  0  0  0
   -3.8298   -2.7380    1.4858 H   0  0  0  0  0  0  0  0  0  0  0  0
   -4.4956   -1.0863    1.4577 H   0  0  0  0  0  0  0  0  0  0  0  0
   -1.7919   -0.3826    1.3892 H   0  0  0  0  0  0  0  0  0  0  0  0
   -1.2596   -2.0652    1.1870 H   0  0  0  0  0  0  0  0  0  0  0  0
   -0.7065   -0.7987    0.0670 H   0  0  0  0  0  0  0  0  0  0  0  0
   -1.7650   -3.0511   -1.7868 H   0  0  0  0  0  0  0  0  0  0  0  0
   -3.4767   -3.4657   -1.6498 H   0  0  0  0  0  0  0  0  0  0  0  0
   -2.3691   -3.8220   -0.2947 H   0  0  0  0  0  0  0  0  0  0  0  0
   -3.9535    2.8978    1.4573 H   0  0  0  0  0  0  0  0  0  0  0  0
   -3.6850    1.1412    1.5243 H   0  0  0  0  0  0  0  0  0  0  0  0
   -2.5386    2.1721    0.6510 H   0  0  0  0  0  0  0  0  0  0  0  0
   -5.0801    3.6228   -2.1614 H   0  0  0  0  0  0  0  0  0  0  0  0
   -3.4269    3.7364   -1.5419 H   0  0  0  0  0  0  0  0  0  0  0  0
   -4.7964    4.2218   -0.5080 H   0  0  0  0  0  0  0  0  0  0  0  0
   -6.3437    0.7102    0.4830 H   0  0  0  0  0  0  0  0  0  0  0  0
   -6.9350    1.7147   -0.8345 H   0  0  0  0  0  0  0  0  0  0  0  0
   -6.4373    2.4830    0.7009 H   0  0  0  0  0  0  0  0  0  0  0  0
  1  9  1  0  0  0  0
  3 17  1  0  0  0  0
  4 19  1  0  0  0  0
  4 18  1  0  0  0  0
  5 23  1  0  0  0  0
  5 21  1  0  0  0  0
  6 14  1  0  0  0  0
  8 10  2  0  0  0  0
  9  7  1  0  0  0  0
 10  1  1  0  0  0  0
 11 25  1  0  0  0  0
 11  6  1  0  0  0  0
 11 10  1  0  0  0  0
 12 27  1  0  0  0  0
 12 28  1  0  0  0  0
 12  6  1  0  0  0  0
 13 30  1  0  0  0  0
 13 31  1  0  0  0  0
 13  6  1  0  0  0  0
 14 34  1  0  0  0  0
 14 33  1  0  0  0  0
 14 32  1  0  0  0  0
 15 37  1  0  0  0  0
 15  3  1  0  0  0  0
 16 38  1  0  0  0  0
 16  3  1  0  0  0  0
 17 41  1  0  0  0  0
 17 43  1  0  0  0  0
 18 46  1  0  0  0  0
 18 45  1  0  0  0  0
 19 48  1  0  0  0  0
 19 47  1  0  0  0  0
 20  4  1  0  0  0  0
 20 52  1  0  0  0  0
 21 53  1  0  0  0  0
 21 54  1  0  0  0  0
 22  5  1  0  0  0  0
 22 58  1  0  0  0  0
 23 59  1  0  0  0  0
 23 61  1  0  0  0  0
 24 11  1  0  0  0  0
 26 12  1  0  0  0  0
 29 13  1  0  0  0  0
 35 15  1  0  0  0  0
 36 15  1  0  0  0  0
 39 16  1  0  0  0  0
 40 16  1  0  0  0  0
 42 17  1  0  0  0  0
 44 18  1  0  0  0  0
 49 19  1  0  0  0  0
 50 20  1  0  0  0  0
 51 20  1  0  0  0  0
 55 21  1  0  0  0  0
 56 22  1  0  0  0  0
 57 22  1  0  0  0  0
 60 23  1  0  0  0  0
M  END
$$$$
