CSD_code = KILLOI | q = 0 | S = 0 | Stoichiometry = C23H39ClN4O2Zn | MND = 5
 OpenBabel04212202063D

 70 74  0  0  1  0  0  0  0  0999 V2000
    5.6326    1.9177    4.0391 Zn  0  0  0  0  0  0  0  0  0  0  0  0
    6.0456    2.9595    5.9298 Cl  0  0  0  0  0  0  0  0  0  0  0  0
    6.9461    3.2029    1.7315 O   0  0  0  0  0  0  0  0  0  0  0  0
    7.4046    2.2363    1.9379 H   0  0  0  0  0  0  0  0  0  0  0  0
    7.8001    0.9322    2.3989 O   0  0  0  0  0  1  0  0  0  0  0  0
    5.7588    3.1475    2.3906 N   0  0  0  0  0  0  0  0  0  0  0  0
    6.9051    0.5895    3.3087 N   0  0  0  0  0  0  0  0  0  0  0  0
    3.5988    2.6596    3.7250 N   0  0  2  0  0  4  0  0  0  0  0  0
    3.2367    2.0931    2.9595 H   0  0  0  0  0  0  0  0  0  0  0  0
    4.6679    0.0345    4.5635 N   0  0  2  0  0  4  0  0  0  0  0  0
    4.1895   -0.3135    3.7327 H   0  0  0  0  0  0  0  0  0  0  0  0
    5.0189    4.1819    2.4576 C   0  0  1  0  0  3  0  0  0  0  0  0
    3.6970    4.0382    3.1865 C   0  0  2  0  0  0  0  0  0  0  0  0
    3.6941    5.0906    4.3055 C   0  0  0  0  0  0  0  0  0  0  0  0
    2.7219    5.1052    4.8009 H   0  0  0  0  0  0  0  0  0  0  0  0
    4.4545    4.8066    5.0349 H   0  0  0  0  0  0  0  0  0  0  0  0
    4.0053    6.4907    3.7820 C   0  0  0  0  0  0  0  0  0  0  0  0
    3.9753    7.1882    4.6185 H   0  0  0  0  0  0  0  0  0  0  0  0
    3.2352    6.8089    3.0751 H   0  0  0  0  0  0  0  0  0  0  0  0
    5.3748    6.5517    3.0932 C   0  0  2  0  0  0  0  0  0  0  0  0
    5.4878    7.5532    2.6544 H   0  0  0  0  0  0  0  0  0  0  0  0
    5.3755    5.5359    1.9367 C   0  0  0  0  0  0  0  0  0  0  0  0
    4.6435    5.8550    1.1911 H   0  0  0  0  0  0  0  0  0  0  0  0
    6.3521    5.4901    1.4559 H   0  0  0  0  0  0  0  0  0  0  0  0
    6.5115    6.3815    4.0814 C   0  0  0  0  0  0  0  0  0  0  0  0
    6.4628    7.3139    5.2619 C   0  0  0  0  0  0  0  0  0  0  0  0
    7.4501    7.4091    5.7057 H   0  0  0  0  0  0  0  0  0  0  0  0
    5.7927    6.9274    6.0294 H   0  0  0  0  0  0  0  0  0  0  0  0
    6.1157    8.3034    4.9669 H   0  0  0  0  0  0  0  0  0  0  0  0
    7.5187    5.5358    3.9419 C   0  0  0  0  0  0  0  0  0  0  0  0
    7.6301    4.8508    3.1229 H   0  0  0  0  0  0  0  0  0  0  0  0
    8.3008    5.4940    4.6813 H   0  0  0  0  0  0  0  0  0  0  0  0
    2.5350    4.2498    2.2021 C   0  0  0  0  0  0  0  0  0  0  0  0
    2.6290    3.5655    1.3596 H   0  0  0  0  0  0  0  0  0  0  0  0
    2.5153    5.2610    1.8108 H   0  0  0  0  0  0  0  0  0  0  0  0
    1.5856    4.0653    2.7022 H   0  0  0  0  0  0  0  0  0  0  0  0
    2.7211    2.4533    4.8773 C   0  0  0  0  0  0  0  0  0  0  0  0
    1.7516    2.9514    4.7343 H   0  0  0  0  0  0  0  0  0  0  0  0
    3.2093    2.8759    5.7564 H   0  0  0  0  0  0  0  0  0  0  0  0
    2.4581    0.9670    5.1198 C   0  0  0  0  0  0  0  0  0  0  0  0
    2.0761    0.5062    4.2024 H   0  0  0  0  0  0  0  0  0  0  0  0
    1.6739    0.8898    5.8751 H   0  0  0  0  0  0  0  0  0  0  0  0
    3.6685    0.1795    5.6212 C   0  0  0  0  0  0  0  0  0  0  0  0
    4.1237    0.7186    6.4529 H   0  0  0  0  0  0  0  0  0  0  0  0
    3.3211   -0.7998    5.9784 H   0  0  0  0  0  0  0  0  0  0  0  0
    5.7862   -0.9110    4.8001 C   0  0  2  0  0  0  0  0  0  0  0  0
    6.8440   -0.6137    3.7544 C   0  0  2  0  0  3  0  0  0  0  0  0
    7.8224   -1.6692    3.3396 C   0  0  0  0  0  0  0  0  0  0  0  0
    8.6296   -1.6973    4.0793 H   0  0  0  0  0  0  0  0  0  0  0  0
    8.2640   -1.3457    2.3935 H   0  0  0  0  0  0  0  0  0  0  0  0
    7.2207   -3.0703    3.2180 C   0  0  1  0  0  0  0  0  0  0  0  0
    8.0483   -3.7877    3.1676 H   0  0  0  0  0  0  0  0  0  0  0  0
    6.4138   -3.3677    4.4901 C   0  0  0  0  0  0  0  0  0  0  0  0
    7.0801   -3.3311    5.3533 H   0  0  0  0  0  0  0  0  0  0  0  0
    5.9906   -4.3732    4.4424 H   0  0  0  0  0  0  0  0  0  0  0  0
    5.2840   -2.3604    4.6597 C   0  0  0  0  0  0  0  0  0  0  0  0
    4.6364   -2.4276    3.7799 H   0  0  0  0  0  0  0  0  0  0  0  0
    4.6908   -2.6258    5.5380 H   0  0  0  0  0  0  0  0  0  0  0  0
    6.3777   -3.2750    1.9798 C   0  0  0  0  0  0  0  0  0  0  0  0
    6.2471   -4.7051    1.5432 C   0  0  0  0  0  0  0  0  0  0  0  0
    5.5631   -4.7963    0.7036 H   0  0  0  0  0  0  0  0  0  0  0  0
    5.8851   -5.3308    2.3579 H   0  0  0  0  0  0  0  0  0  0  0  0
    7.2201   -5.0907    1.2392 H   0  0  0  0  0  0  0  0  0  0  0  0
    5.7899   -2.2937    1.3142 C   0  0  0  0  0  0  0  0  0  0  0  0
    5.1968   -2.4907    0.4359 H   0  0  0  0  0  0  0  0  0  0  0  0
    5.8961   -1.2594    1.5872 H   0  0  0  0  0  0  0  0  0  0  0  0
    6.3989   -0.6731    6.1830 C   0  0  0  0  0  0  0  0  0  0  0  0
    6.6037    0.3855    6.3217 H   0  0  0  0  0  0  0  0  0  0  0  0
    7.3380   -1.2120    6.2682 H   0  0  0  0  0  0  0  0  0  0  0  0
    5.7341   -1.0134    6.9735 H   0  0  0  0  0  0  0  0  0  0  0  0
  1 10  1  0  0  0  0
  1  2  1  0  0  0  0
  3  4  1  0  0  0  0
  3  6  1  0  0  0  0
  5  7  1  0  0  0  0
  6 12  1  0  0  0  0
  6  1  1  0  0  0  0
  7  1  1  0  0  0  0
  8  9  1  6  0  0  0
  8  1  1  0  0  0  0
  8 37  1  0  0  0  0
 10 11  1  6  0  0  0
 10 46  1  0  0  0  0
 10 43  1  0  0  0  0
 12 22  1  1  0  0  0
 12 13  1  0  0  0  0
 13 33  1  6  0  0  0
 13  8  1  0  0  0  0
 13 14  1  0  0  0  0
 14 15  1  0  0  0  0
 14 16  1  0  0  0  0
 17 14  1  0  0  0  0
 17 18  1  0  0  0  0
 19 17  1  0  0  0  0
 20 21  1  6  0  0  0
 20 17  1  0  0  0  0
 20 25  1  0  0  0  0
 22 20  1  0  0  0  0
 23 22  1  0  0  0  0
 24 22  1  0  0  0  0
 25 26  1  0  0  0  0
 26 27  1  0  0  0  0
 26 28  1  0  0  0  0
 29 26  1  0  0  0  0
 30 25  2  0  0  0  0
 30 32  1  0  0  0  0
 31 30  1  0  0  0  0
 33 36  1  0  0  0  0
 34 33  1  0  0  0  0
 35 33  1  0  0  0  0
 37 40  1  0  0  0  0
 37 39  1  0  0  0  0
 38 37  1  0  0  0  0
 40 43  1  0  0  0  0
 40 42  1  0  0  0  0
 41 40  1  0  0  0  0
 43 45  1  0  0  0  0
 43 44  1  0  0  0  0
 46 67  1  1  0  0  0
 47  7  1  1  0  0  0
 47 46  1  0  0  0  0
 48 47  1  0  0  0  0
 48 49  1  0  0  0  0
 50 48  1  0  0  0  0
 51 52  1  6  0  0  0
 51 48  1  0  0  0  0
 51 53  1  0  0  0  0
 53 56  1  0  0  0  0
 53 54  1  0  0  0  0
 55 53  1  0  0  0  0
 56 46  1  0  0  0  0
 56 58  1  0  0  0  0
 57 56  1  0  0  0  0
 59 51  1  0  0  0  0
 60 59  1  0  0  0  0
 60 62  1  0  0  0  0
 61 60  1  0  0  0  0
 63 60  1  0  0  0  0
 64 66  1  0  0  0  0
 64 59  2  0  0  0  0
 65 64  1  0  0  0  0
 67 69  1  0  0  0  0
 67 68  1  0  0  0  0
 67 70  1  0  0  0  0
M  END
$$$$
