CSD_code = KILLAS | q = 0 | S = 0 | Stoichiometry = C19H38ClN2PSi3Zr | MND = 13
 OpenBabel04212202063D

 65 66  0  0  1  0  0  0  0  0999 V2000
    2.7235    1.6474    7.5915 Zr  0  0  2  0  0  0  0  0  0  0  0  0
    3.4610   -0.5140    6.9782 Cl  0  0  0  0  0  0  0  0  0  0  0  0
    2.0094    2.5316   10.0709 P   0  0  0  0  0  0  0  0  0  0  0  0
    2.4482    1.0237    9.5138 N   0  0  0  0  0  0  0  0  0  0  0  0
    1.9532   -0.5217   10.1472 Si  0  0  0  0  0  0  0  0  0  0  0  0
    0.7907   -1.5009    8.9719 C   0  0  0  0  0  0  0  0  0  0  0  0
    3.4686   -1.6603   10.4242 C   0  0  0  0  0  0  0  0  0  0  0  0
    1.0171   -0.3188   11.8015 C   0  0  0  0  0  0  0  0  0  0  0  0
    2.6736    2.7173   11.6592 N   0  0  0  0  0  0  0  0  0  0  0  0
    1.6867    3.8663   12.5596 Si  0  0  0  0  0  0  0  0  0  0  0  0
    1.0779    5.2121   11.3470 C   0  0  0  0  0  0  0  0  0  0  0  0
    0.2003    2.9656   13.3550 C   0  0  0  0  0  0  0  0  0  0  0  0
    2.6110    4.7463   13.9679 C   0  0  0  0  0  0  0  0  0  0  0  0
    4.2965    2.2211   12.1181 Si  0  0  0  0  0  0  0  0  0  0  0  0
    5.2676    1.1742   10.8568 C   0  0  0  0  0  0  0  0  0  0  0  0
    4.1068    1.2049   13.7249 C   0  0  0  0  0  0  0  0  0  0  0  0
    5.3944    3.7639   12.4287 C   0  0  0  0  0  0  0  0  0  0  0  0
    1.1367    3.0179    6.0745 C   0  0  0  0  0  0  0  0  0  0  0  0
    1.2770    1.7103    5.5624 C   0  0  0  0  0  0  0  0  0  0  0  0
    0.6673    0.8203    6.4795 C   0  0  2  0  0  0  0  0  0  0  0  0
    0.1727    1.5817    7.5605 C   0  0  0  0  0  0  0  0  0  0  0  0
    0.4755    2.9369    7.3139 C   0  0  0  0  0  0  0  0  0  0  0  0
    3.8563    3.8935    7.3203 C   0  0  0  0  0  0  0  0  0  0  0  0
    4.0543    3.2860    6.0618 C   0  0  0  0  0  0  0  0  0  0  0  0
    4.8646    2.1539    6.2431 C   0  0  0  0  0  0  0  0  0  0  0  0
    5.1915    2.0611    7.6132 C   0  0  0  0  0  0  0  0  0  0  0  0
    4.5730    3.1444    8.2830 C   0  0  2  0  0  0  0  0  0  0  0  0
    1.3582    3.9364    5.5475 H   0  0  0  0  0  0  0  0  0  0  0  0
    1.6507    1.4416    4.5796 H   0  0  0  0  0  0  0  0  0  0  0  0
    0.4948   -0.2347    6.3037 H   0  0  0  0  0  0  0  0  0  0  0  0
   -0.4357    1.2179    8.3779 H   0  0  0  0  0  0  0  0  0  0  0  0
    0.1310    3.7785    7.9015 H   0  0  0  0  0  0  0  0  0  0  0  0
    3.3644    4.8429    7.4996 H   0  0  0  0  0  0  0  0  0  0  0  0
    3.7539    3.6896    5.1039 H   0  0  0  0  0  0  0  0  0  0  0  0
    5.2526    1.5149    5.4597 H   0  0  0  0  0  0  0  0  0  0  0  0
    5.8969    1.3541    8.0332 H   0  0  0  0  0  0  0  0  0  0  0  0
    4.7353    3.4374    9.3133 H   0  0  0  0  0  0  0  0  0  0  0  0
    0.6865    2.2518   10.5600 H   0  0  0  0  0  0  0  0  0  0  0  0
    0.5700   -2.4615    9.4268 H   0  0  0  0  0  0  0  0  0  0  0  0
    1.2785   -1.7009    8.0230 H   0  0  0  0  0  0  0  0  0  0  0  0
   -0.1598   -1.0141    8.7779 H   0  0  0  0  0  0  0  0  0  0  0  0
    4.1489   -1.6239    9.5786 H   0  0  0  0  0  0  0  0  0  0  0  0
    3.1298   -2.6858   10.5244 H   0  0  0  0  0  0  0  0  0  0  0  0
    4.0241   -1.4090   11.3205 H   0  0  0  0  0  0  0  0  0  0  0  0
    1.0629   -1.2284   12.3900 H   0  0  0  0  0  0  0  0  0  0  0  0
   -0.0310   -0.0864   11.6415 H   0  0  0  0  0  0  0  0  0  0  0  0
    1.4513    0.4858   12.3824 H   0  0  0  0  0  0  0  0  0  0  0  0
    1.9016    5.6223   10.7694 H   0  0  0  0  0  0  0  0  0  0  0  0
    0.3550    4.8049   10.6464 H   0  0  0  0  0  0  0  0  0  0  0  0
    0.6013    6.0338   11.8726 H   0  0  0  0  0  0  0  0  0  0  0  0
   -0.4479    3.6757   13.8591 H   0  0  0  0  0  0  0  0  0  0  0  0
   -0.3987    2.4390   12.6198 H   0  0  0  0  0  0  0  0  0  0  0  0
    0.5256    2.2384   14.0930 H   0  0  0  0  0  0  0  0  0  0  0  0
    3.1388    4.0567   14.6139 H   0  0  0  0  0  0  0  0  0  0  0  0
    1.8887    5.2783   14.5768 H   0  0  0  0  0  0  0  0  0  0  0  0
    3.3236    5.4733   13.5995 H   0  0  0  0  0  0  0  0  0  0  0  0
    6.1032    1.7319   10.4446 H   0  0  0  0  0  0  0  0  0  0  0  0
    5.6829    0.2967   11.3414 H   0  0  0  0  0  0  0  0  0  0  0  0
    4.6342    0.8388   10.0390 H   0  0  0  0  0  0  0  0  0  0  0  0
    3.6924    0.2210   13.5273 H   0  0  0  0  0  0  0  0  0  0  0  0
    5.0726    1.0668   14.2003 H   0  0  0  0  0  0  0  0  0  0  0  0
    3.4546    1.6968   14.4389 H   0  0  0  0  0  0  0  0  0  0  0  0
    5.3232    4.0980   13.4563 H   0  0  0  0  0  0  0  0  0  0  0  0
    6.4382    3.5304   12.2432 H   0  0  0  0  0  0  0  0  0  0  0  0
    5.1265    4.6029   11.7933 H   0  0  0  0  0  0  0  0  0  0  0  0
  1  2  1  6  0  0  0
  1 27  1  0  0  0  0
  1  4  1  0  0  0  0
  3 38  1  0  0  0  0
  3  9  1  0  0  0  0
  4  3  1  0  0  0  0
  4  5  1  0  0  0  0
  5  7  1  0  0  0  0
  5  8  1  0  0  0  0
  6 39  1  0  0  0  0
  6  5  1  0  0  0  0
  7 43  1  0  0  0  0
  7 44  1  0  0  0  0
  8 47  1  0  0  0  0
  8 45  1  0  0  0  0
  9 14  1  0  0  0  0
  9 10  1  0  0  0  0
 10 12  1  0  0  0  0
 10 13  1  0  0  0  0
 11 50  1  0  0  0  0
 11 10  1  0  0  0  0
 12 51  1  0  0  0  0
 12 53  1  0  0  0  0
 13 55  1  0  0  0  0
 13 54  1  0  0  0  0
 14 17  1  0  0  0  0
 14 16  1  0  0  0  0
 15 58  1  0  0  0  0
 15 14  1  0  0  0  0
 16 61  1  0  0  0  0
 16 62  1  0  0  0  0
 17 63  1  0  0  0  0
 18 22  1  0  0  0  0
 19 18  2  0  0  0  0
 19 20  1  0  0  0  0
 20 30  1  6  0  0  0
 20 21  1  0  0  0  0
 20  1  1  0  0  0  0
 21 31  1  0  0  0  0
 22 21  2  0  0  0  0
 22 32  1  0  0  0  0
 23 33  1  0  0  0  0
 23 27  1  0  0  0  0
 24 25  1  0  0  0  0
 24 23  2  0  0  0  0
 25 26  2  0  0  0  0
 26 36  1  0  0  0  0
 26 27  1  0  0  0  0
 27 37  1  1  0  0  0
 28 18  1  0  0  0  0
 29 19  1  0  0  0  0
 34 24  1  0  0  0  0
 35 25  1  0  0  0  0
 40  6  1  0  0  0  0
 41  6  1  0  0  0  0
 42  7  1  0  0  0  0
 46  8  1  0  0  0  0
 48 11  1  0  0  0  0
 49 11  1  0  0  0  0
 52 12  1  0  0  0  0
 56 13  1  0  0  0  0
 57 15  1  0  0  0  0
 59 15  1  0  0  0  0
 60 16  1  0  0  0  0
 64 17  1  0  0  0  0
 65 17  1  0  0  0  0
M  END
$$$$
