CSD_code = KILTEE | q = 0 | S = 0 | Stoichiometry = C18H44Cl2OsP2 | MND = 6
 OpenBabel04212202063D

 67 66  0  0  0  0  0  0  0  0999 V2000
    1.9879    1.1927    3.1818 Os  0  0  0  0  0  0  0  0  0  0  0  0
    3.3479    1.6343    3.7889 H   0  0  0  0  0  0  0  0  0  0  0  0
    0.9263    2.0478    2.4594 H   0  0  0  0  0  0  0  0  0  0  0  0
    2.8544   -0.7911    2.4266 Cl  0  0  0  0  0  0  0  0  0  0  0  0
    0.3404   -0.1477    4.0245 Cl  0  0  0  0  0  0  0  0  0  0  0  0
    1.2669    2.7460    4.8898 P   0  0  0  0  0  4  0  0  0  0  0  0
    3.1684    2.0408    1.2665 P   0  0  0  0  0  4  0  0  0  0  0  0
    1.0272    1.8192    6.5005 C   0  0  0  0  0  0  0  0  0  0  0  0
    0.6691    2.6630    7.7197 C   0  0  0  0  0  0  0  0  0  0  0  0
    2.2011    0.8934    6.8144 C   0  0  0  0  0  0  0  0  0  0  0  0
    2.3928    4.2264    5.2048 C   0  0  0  0  0  0  0  0  0  0  0  0
    1.8083    5.4228    5.9542 C   0  0  0  0  0  0  0  0  0  0  0  0
    3.6971    3.7926    5.8688 C   0  0  0  0  0  0  0  0  0  0  0  0
   -0.3875    3.5959    4.6811 C   0  0  0  0  0  0  0  0  0  0  0  0
   -0.3877    4.4330    3.4049 C   0  0  0  0  0  0  0  0  0  0  0  0
   -1.5547    2.6160    4.6562 C   0  0  0  0  0  0  0  0  0  0  0  0
    4.8317    1.2667    0.8812 C   0  0  0  0  0  0  0  0  0  0  0  0
    5.7683    1.2031    2.0837 C   0  0  0  0  0  0  0  0  0  0  0  0
    5.5631    1.8484   -0.3258 C   0  0  0  0  0  0  0  0  0  0  0  0
    2.2557    1.7319   -0.3456 C   0  0  0  0  0  0  0  0  0  0  0  0
    0.8339    2.2847   -0.2895 C   0  0  0  0  0  0  0  0  0  0  0  0
    2.2094    0.2574   -0.7334 C   0  0  0  0  0  0  0  0  0  0  0  0
    3.3414    3.9186    1.2467 C   0  0  0  0  0  0  0  0  0  0  0  0
    4.4878    4.3421    2.1615 C   0  0  0  0  0  0  0  0  0  0  0  0
    3.4594    4.6228   -0.1030 C   0  0  0  0  0  0  0  0  0  0  0  0
    0.1726    1.1775    6.2523 H   0  0  0  0  0  0  0  0  0  0  0  0
    1.5261    3.2318    8.0719 H   0  0  0  0  0  0  0  0  0  0  0  0
    0.3608    1.9998    8.5274 H   0  0  0  0  0  0  0  0  0  0  0  0
   -0.1535    3.3442    7.5177 H   0  0  0  0  0  0  0  0  0  0  0  0
    2.4990    0.3354    5.9251 H   0  0  0  0  0  0  0  0  0  0  0  0
    3.0644    1.4397    7.1837 H   0  0  0  0  0  0  0  0  0  0  0  0
    1.9030    0.1730    7.5751 H   0  0  0  0  0  0  0  0  0  0  0  0
    2.6297    4.5460    4.1827 H   0  0  0  0  0  0  0  0  0  0  0  0
    2.5907    6.1736    6.0639 H   0  0  0  0  0  0  0  0  0  0  0  0
    0.9855    5.8842    5.4170 H   0  0  0  0  0  0  0  0  0  0  0  0
    1.4683    5.1531    6.9487 H   0  0  0  0  0  0  0  0  0  0  0  0
    4.0580    2.8628    5.4333 H   0  0  0  0  0  0  0  0  0  0  0  0
    3.5601    3.6518    6.9377 H   0  0  0  0  0  0  0  0  0  0  0  0
    4.4610    4.5560    5.7275 H   0  0  0  0  0  0  0  0  0  0  0  0
   -0.5030    4.2611    5.5435 H   0  0  0  0  0  0  0  0  0  0  0  0
    0.4658    5.1056    3.3606 H   0  0  0  0  0  0  0  0  0  0  0  0
   -0.3493    3.7782    2.5371 H   0  0  0  0  0  0  0  0  0  0  0  0
   -1.2994    5.0258    3.3470 H   0  0  0  0  0  0  0  0  0  0  0  0
   -1.3812    1.8367    3.9191 H   0  0  0  0  0  0  0  0  0  0  0  0
   -1.7065    2.1451    5.6239 H   0  0  0  0  0  0  0  0  0  0  0  0
   -2.4701    3.1436    4.3908 H   0  0  0  0  0  0  0  0  0  0  0  0
    4.5423    0.2339    0.6554 H   0  0  0  0  0  0  0  0  0  0  0  0
    6.1778    2.1767    2.3358 H   0  0  0  0  0  0  0  0  0  0  0  0
    5.2445    0.8074    2.9495 H   0  0  0  0  0  0  0  0  0  0  0  0
    6.5970    0.5335    1.8579 H   0  0  0  0  0  0  0  0  0  0  0  0
    6.4079    1.2041   -0.5673 H   0  0  0  0  0  0  0  0  0  0  0  0
    5.9574    2.8376   -0.1078 H   0  0  0  0  0  0  0  0  0  0  0  0
    4.9281    1.9042   -1.2058 H   0  0  0  0  0  0  0  0  0  0  0  0
    2.8161    2.2818   -1.1102 H   0  0  0  0  0  0  0  0  0  0  0  0
    0.8076    3.3026    0.0940 H   0  0  0  0  0  0  0  0  0  0  0  0
    0.3944    2.2780   -1.2864 H   0  0  0  0  0  0  0  0  0  0  0  0
    0.2175    1.6608    0.3551 H   0  0  0  0  0  0  0  0  0  0  0  0
    1.5588    0.1295   -1.5979 H   0  0  0  0  0  0  0  0  0  0  0  0
    1.8102   -0.3405    0.0828 H   0  0  0  0  0  0  0  0  0  0  0  0
    3.1920   -0.1280   -0.9933 H   0  0  0  0  0  0  0  0  0  0  0  0
    2.4000    4.2313    1.7198 H   0  0  0  0  0  0  0  0  0  0  0  0
    4.4988    3.7229    3.0553 H   0  0  0  0  0  0  0  0  0  0  0  0
    4.3720    5.3842    2.4569 H   0  0  0  0  0  0  0  0  0  0  0  0
    5.4430    4.2478    1.6515 H   0  0  0  0  0  0  0  0  0  0  0  0
    4.3322    4.2924   -0.6571 H   0  0  0  0  0  0  0  0  0  0  0  0
    2.5778    4.4774   -0.7196 H   0  0  0  0  0  0  0  0  0  0  0  0
    3.5641    5.6931    0.0741 H   0  0  0  0  0  0  0  0  0  0  0  0
  1  2  1  0  0  0  0
  1  5  1  0  0  0  0
  1  6  1  0  0  0  0
  3  1  1  0  0  0  0
  4  1  1  0  0  0  0
  6 11  1  0  0  0  0
  6  8  1  0  0  0  0
  7  1  1  0  0  0  0
  8 10  1  0  0  0  0
  8  9  1  0  0  0  0
  9 27  1  0  0  0  0
  9 28  1  0  0  0  0
 10 31  1  0  0  0  0
 10 32  1  0  0  0  0
 11 13  1  0  0  0  0
 11 12  1  0  0  0  0
 12 34  1  0  0  0  0
 12 36  1  0  0  0  0
 13 38  1  0  0  0  0
 14  6  1  0  0  0  0
 14 40  1  0  0  0  0
 15 14  1  0  0  0  0
 16 14  1  0  0  0  0
 16 45  1  0  0  0  0
 17  7  1  0  0  0  0
 17 18  1  0  0  0  0
 18 48  1  0  0  0  0
 18 49  1  0  0  0  0
 19 52  1  0  0  0  0
 19 17  1  0  0  0  0
 20 21  1  0  0  0  0
 20  7  1  0  0  0  0
 21 55  1  0  0  0  0
 21 57  1  0  0  0  0
 22 20  1  0  0  0  0
 22 59  1  0  0  0  0
 23  7  1  0  0  0  0
 23 61  1  0  0  0  0
 23 24  1  0  0  0  0
 24 63  1  0  0  0  0
 24 62  1  0  0  0  0
 25 67  1  0  0  0  0
 25 23  1  0  0  0  0
 26  8  1  0  0  0  0
 29  9  1  0  0  0  0
 30 10  1  0  0  0  0
 33 11  1  0  0  0  0
 35 12  1  0  0  0  0
 37 13  1  0  0  0  0
 39 13  1  0  0  0  0
 41 15  1  0  0  0  0
 42 15  1  0  0  0  0
 43 15  1  0  0  0  0
 44 16  1  0  0  0  0
 46 16  1  0  0  0  0
 47 17  1  0  0  0  0
 50 18  1  0  0  0  0
 51 19  1  0  0  0  0
 53 19  1  0  0  0  0
 54 20  1  0  0  0  0
 56 21  1  0  0  0  0
 58 22  1  0  0  0  0
 60 22  1  0  0  0  0
 64 24  1  0  0  0  0
 65 25  1  0  0  0  0
 66 25  1  0  0  0  0
M  END
$$$$
