CSD_code = KILWEJ | q = 0 | S = 0 | Stoichiometry = C19H40Cl2N2P2Ru | MND = 5
 OpenBabel04212202063D

 66 67  0  0  1  0  0  0  0  0999 V2000
    0.4090    4.3314    6.1136 Ru  0  0  0  0  0  0  0  0  0  0  0  0
    1.2239    2.8945    4.5467 P   0  0  0  0  0  4  0  0  0  0  0  0
   -1.6722    3.5265    6.7716 P   0  0  0  0  0  4  0  0  0  0  0  0
   -0.8882    5.8748    4.7921 Cl  0  0  0  0  0  0  0  0  0  0  0  0
    1.4423    3.4129    8.0622 Cl  0  0  0  0  0  0  0  0  0  0  0  0
    2.1870    5.1840    5.8205 C   0  0  2  0  0  3  0  0  0  0  0  0
    3.2051    4.5402    5.2203 N   0  0  0  0  0  0  0  0  0  0  0  0
    4.3433    5.2976    5.2728 C   0  0  0  0  0  0  0  0  0  0  0  0
    5.2749    4.9759    4.8537 H   0  0  0  0  0  0  0  0  0  0  0  0
    4.0189    6.4377    5.9235 C   0  0  0  0  0  0  0  0  0  0  0  0
    4.6310    7.2826    6.1570 H   0  0  0  0  0  0  0  0  0  0  0  0
    2.6940    6.3487    6.2723 N   0  0  0  0  0  0  0  0  0  0  0  0
    1.9315    7.3697    6.9892 C   0  0  0  0  0  0  0  0  0  0  0  0
    2.8575    8.1343    7.9405 C   0  0  0  0  0  0  0  0  0  0  0  0
    3.4389    7.4424    8.5465 H   0  0  0  0  0  0  0  0  0  0  0  0
    2.2588    8.7525    8.6045 H   0  0  0  0  0  0  0  0  0  0  0  0
    3.5344    8.7890    7.3970 H   0  0  0  0  0  0  0  0  0  0  0  0
    0.8426    6.6851    7.8198 C   0  0  0  0  0  0  0  0  0  0  0  0
    1.2907    6.0699    8.6022 H   0  0  0  0  0  0  0  0  0  0  0  0
    0.1978    6.0427    7.1833 H   0  0  0  0  0  0  0  0  0  0  0  0
    0.2011    7.4343    8.2799 H   0  0  0  0  0  0  0  0  0  0  0  0
    1.3152    8.3237    5.9613 C   0  0  0  0  0  0  0  0  0  0  0  0
    0.7909    9.1309    6.4660 H   0  0  0  0  0  0  0  0  0  0  0  0
    0.6074    7.7907    5.3284 H   0  0  0  0  0  0  0  0  0  0  0  0
    2.0905    8.7528    5.3294 H   0  0  0  0  0  0  0  0  0  0  0  0
    3.0643    3.1972    4.7403 C   0  0  0  0  0  0  0  0  0  0  0  0
    3.4348    2.5035    5.5058 H   0  0  0  0  0  0  0  0  0  0  0  0
    3.6302    3.0546    3.8143 H   0  0  0  0  0  0  0  0  0  0  0  0
    1.1630    1.0045    4.7467 C   0  0  0  0  0  0  0  0  0  0  0  0
    2.2502    0.2109    4.0224 C   0  0  0  0  0  0  0  0  0  0  0  0
    3.2449    0.5765    4.2625 H   0  0  0  0  0  0  0  0  0  0  0  0
    2.1255    0.2176    2.9461 H   0  0  0  0  0  0  0  0  0  0  0  0
    2.1922   -0.8259    4.3535 H   0  0  0  0  0  0  0  0  0  0  0  0
    1.3026    0.7479    6.2468 C   0  0  0  0  0  0  0  0  0  0  0  0
    1.1305   -0.3052    6.4653 H   0  0  0  0  0  0  0  0  0  0  0  0
    0.5803    1.3422    6.8000 H   0  0  0  0  0  0  0  0  0  0  0  0
    2.2923    1.0103    6.6134 H   0  0  0  0  0  0  0  0  0  0  0  0
   -0.2244    0.5374    4.3099 C   0  0  0  0  0  0  0  0  0  0  0  0
   -0.4224   -0.4647    4.6889 H   0  0  0  0  0  0  0  0  0  0  0  0
   -0.3155    0.5092    3.2271 H   0  0  0  0  0  0  0  0  0  0  0  0
   -0.9757    1.2170    4.7135 H   0  0  0  0  0  0  0  0  0  0  0  0
    0.9591    3.3634    2.7217 C   0  0  0  0  0  0  0  0  0  0  0  0
    1.5147    4.7819    2.5631 C   0  0  0  0  0  0  0  0  0  0  0  0
    1.2291    5.1760    1.5891 H   0  0  0  0  0  0  0  0  0  0  0  0
    2.6007    4.8068    2.6286 H   0  0  0  0  0  0  0  0  0  0  0  0
    1.0928    5.4392    3.3216 H   0  0  0  0  0  0  0  0  0  0  0  0
    1.6376    2.4513    1.7021 C   0  0  0  0  0  0  0  0  0  0  0  0
    1.1288    1.4948    1.6232 H   0  0  0  0  0  0  0  0  0  0  0  0
    2.6862    2.2812    1.9358 H   0  0  0  0  0  0  0  0  0  0  0  0
    1.5884    2.9284    0.7235 H   0  0  0  0  0  0  0  0  0  0  0  0
   -0.5457    3.4032    2.4580 C   0  0  0  0  0  0  0  0  0  0  0  0
   -0.7378    3.8469    1.4823 H   0  0  0  0  0  0  0  0  0  0  0  0
   -1.0340    4.0170    3.2111 H   0  0  0  0  0  0  0  0  0  0  0  0
   -0.9877    2.4116    2.4717 H   0  0  0  0  0  0  0  0  0  0  0  0
   -1.8826    2.0219    7.7982 C   0  0  0  0  0  0  0  0  0  0  0  0
   -2.8724    2.0166    8.2543 H   0  0  0  0  0  0  0  0  0  0  0  0
   -1.1194    2.0234    8.5752 H   0  0  0  0  0  0  0  0  0  0  0  0
   -1.7611    1.1309    7.1855 H   0  0  0  0  0  0  0  0  0  0  0  0
   -3.0716    3.3488    5.6010 C   0  0  0  0  0  0  0  0  0  0  0  0
   -2.8780    2.5334    4.9064 H   0  0  0  0  0  0  0  0  0  0  0  0
   -3.1692    4.2727    5.0340 H   0  0  0  0  0  0  0  0  0  0  0  0
   -3.9923    3.1515    6.1498 H   0  0  0  0  0  0  0  0  0  0  0  0
   -2.3793    4.7788    7.9177 C   0  0  0  0  0  0  0  0  0  0  0  0
   -3.3691    4.4723    8.2579 H   0  0  0  0  0  0  0  0  0  0  0  0
   -2.4544    5.7351    7.3965 H   0  0  0  0  0  0  0  0  0  0  0  0
   -1.7150    4.8857    8.7780 H   0  0  0  0  0  0  0  0  0  0  0  0
  1  3  1  0  0  0  0
  1  5  1  0  0  0  0
  2 26  1  0  0  0  0
  2 29  1  0  0  0  0
  2  1  1  0  0  0  0
  3 55  1  0  0  0  0
  3 63  1  0  0  0  0
  4  1  1  0  0  0  0
  6  7  1  1  0  0  0
  6  1  1  0  0  0  0
  6 12  1  0  0  0  0
  7  8  1  0  0  0  0
  8 10  2  0  0  0  0
  9  8  1  0  0  0  0
 10 11  1  0  0  0  0
 10 12  1  0  0  0  0
 12 13  1  0  0  0  0
 13 18  1  0  0  0  0
 13 14  1  0  0  0  0
 14 15  1  0  0  0  0
 14 16  1  0  0  0  0
 17 14  1  0  0  0  0
 18 21  1  0  0  0  0
 18 19  1  0  0  0  0
 20 18  1  0  0  0  0
 22 23  1  0  0  0  0
 22 13  1  0  0  0  0
 24 22  1  0  0  0  0
 25 22  1  0  0  0  0
 26  7  1  0  0  0  0
 26 27  1  0  0  0  0
 28 26  1  0  0  0  0
 29 34  1  0  0  0  0
 30 31  1  0  0  0  0
 30 33  1  0  0  0  0
 30 29  1  0  0  0  0
 32 30  1  0  0  0  0
 34 35  1  0  0  0  0
 34 37  1  0  0  0  0
 34 36  1  0  0  0  0
 38 39  1  0  0  0  0
 38 41  1  0  0  0  0
 38 29  1  0  0  0  0
 40 38  1  0  0  0  0
 42  2  1  0  0  0  0
 43 45  1  0  0  0  0
 43 42  1  0  0  0  0
 43 46  1  0  0  0  0
 44 43  1  0  0  0  0
 47 49  1  0  0  0  0
 47 42  1  0  0  0  0
 48 47  1  0  0  0  0
 50 47  1  0  0  0  0
 51 54  1  0  0  0  0
 51 42  1  0  0  0  0
 51 53  1  0  0  0  0
 52 51  1  0  0  0  0
 55 56  1  0  0  0  0
 55 57  1  0  0  0  0
 58 55  1  0  0  0  0
 59 62  1  0  0  0  0
 59  3  1  0  0  0  0
 60 59  1  0  0  0  0
 61 59  1  0  0  0  0
 63 64  1  0  0  0  0
 63 66  1  0  0  0  0
 65 63  1  0  0  0  0
M  END
$$$$
