CSD_code = KIMFAP | q = 0 | S = 0 | Stoichiometry = C24H26ClN2ORh | MND = 6
 OpenBabel04212202063D

 55 57  0  0  1  0  0  0  0  0999 V2000
    4.8328    2.3325    9.3600 Rh  0  0  0  0  0  0  0  0  0  0  0  0
    5.8941    3.1779    7.5052 Cl  0  0  0  0  0 15  0  0  0  0  0  0
    8.4663    5.2690   11.5632 O   0  0  0  0  0  0  0  0  0  0  0  0
    6.7075    4.1141   10.6979 N   0  0  0  0  0  0  0  0  0  0  0  0
    4.7518    5.1716   10.0639 N   0  0  0  0  0  0  0  0  0  0  0  0
    5.4658    4.0319   10.1638 C   0  0  1  0  0  3  0  0  0  0  0  0
    7.3207    5.2765   11.1632 C   0  0  0  0  0  0  0  0  0  0  0  0
    6.4666    6.4599   11.1345 C   0  0  0  0  0  0  0  0  0  0  0  0
    5.1876    6.3838   10.5683 C   0  0  0  0  0  0  0  0  0  0  0  0
    4.3975    7.5386   10.5508 C   0  0  0  0  0  0  0  0  0  0  0  0
    3.4038    7.5217   10.1356 H   0  0  0  0  0  0  0  0  0  0  0  0
    4.8817    8.7187   11.0756 C   0  0  0  0  0  0  0  0  0  0  0  0
    4.2567    9.5991   11.0539 H   0  0  0  0  0  0  0  0  0  0  0  0
    6.1554    8.7907   11.6287 C   0  0  0  0  0  0  0  0  0  0  0  0
    6.5199    9.7227   12.0313 H   0  0  0  0  0  0  0  0  0  0  0  0
    6.9428    7.6623   11.6565 C   0  0  0  0  0  0  0  0  0  0  0  0
    7.9376    7.6699   12.0748 H   0  0  0  0  0  0  0  0  0  0  0  0
    7.5426    2.9203   10.7082 C   0  0  0  0  0  0  0  0  0  0  0  0
    8.5786    3.2617   10.5981 H   0  0  0  0  0  0  0  0  0  0  0  0
    7.2737    2.3066    9.8345 H   0  0  0  0  0  0  0  0  0  0  0  0
    3.5024    5.1499    9.3261 C   0  0  0  0  0  0  0  0  0  0  0  0
    3.4088    4.1696    8.8390 H   0  0  0  0  0  0  0  0  0  0  0  0
    3.5228    5.9163    8.5508 H   0  0  0  0  0  0  0  0  0  0  0  0
    2.6519    5.3164    9.9901 H   0  0  0  0  0  0  0  0  0  0  0  0
    3.2161    2.0281   10.7093 C   0  0  2  0  0  0  0  0  0  0  0  0
    2.9951    2.9371   11.2702 H   0  0  0  0  0  0  0  0  0  0  0  0
    4.2990    1.2668   11.1441 C   0  0  0  0  0  3  0  0  0  0  0  0
    4.8627    1.6560   11.9881 H   0  0  0  0  0  0  0  0  0  0  0  0
    4.3822   -0.2369   10.9912 C   0  0  0  0  0  0  0  0  0  0  0  0
    4.9516   -0.6401   11.8309 H   0  0  0  0  0  0  0  0  0  0  0  0
    3.3760   -0.6553   11.0513 H   0  0  0  0  0  0  0  0  0  0  0  0
    5.0675   -0.6691    9.6802 C   0  0  0  0  0  0  0  0  0  0  0  0
    4.6805   -1.6423    9.3583 H   0  0  0  0  0  0  0  0  0  0  0  0
    6.1361   -0.7935    9.8669 H   0  0  0  0  0  0  0  0  0  0  0  0
    4.8969    0.3251    8.5551 C   0  0  0  0  0  3  0  0  0  0  0  0
    5.7077    0.3181    7.8258 H   0  0  0  0  0  0  0  0  0  0  0  0
    3.6975    0.8869    8.1797 C   0  0  0  0  0  3  0  0  0  0  0  0
    3.6296    1.3233    7.1833 H   0  0  0  0  0  0  0  0  0  0  0  0
    2.3744    0.5315    8.8198 C   0  0  0  0  0  0  0  0  0  0  0  0
    1.5876    0.5832    8.0644 H   0  0  0  0  0  0  0  0  0  0  0  0
    2.4165   -0.4999    9.1717 H   0  0  0  0  0  0  0  0  0  0  0  0
    2.0110    1.4785    9.9790 C   0  0  0  0  0  0  0  0  0  0  0  0
    1.3633    0.9605   10.6952 H   0  0  0  0  0  0  0  0  0  0  0  0
    1.4389    2.3219    9.5823 H   0  0  0  0  0  0  0  0  0  0  0  0
    7.4312    2.1041   11.9688 C   0  0  0  0  0  0  0  0  0  0  0  0
    7.7854    0.7604   11.9276 C   0  0  0  0  0  0  0  0  0  0  0  0
    8.1286    0.3327   10.9968 H   0  0  0  0  0  0  0  0  0  0  0  0
    7.7047   -0.0248   13.0623 C   0  0  0  0  0  0  0  0  0  0  0  0
    7.9801   -1.0684   13.0158 H   0  0  0  0  0  0  0  0  0  0  0  0
    7.2686    0.5243   14.2569 C   0  0  0  0  0  0  0  0  0  0  0  0
    7.2006   -0.0880   15.1437 H   0  0  0  0  0  0  0  0  0  0  0  0
    6.9250    1.8635   14.3090 C   0  0  0  0  0  0  0  0  0  0  0  0
    6.5908    2.3007   15.2385 H   0  0  0  0  0  0  0  0  0  0  0  0
    7.0079    2.6506   13.1727 C   0  0  0  0  0  0  0  0  0  0  0  0
    6.7396    3.6957   13.2313 H   0  0  0  0  0  0  0  0  0  0  0  0
  1 25  1  0  0  0  0
  4 18  1  0  0  0  0
  4  7  1  0  0  0  0
  5  6  1  0  0  0  0
  5  9  1  0  0  0  0
  6  1  1  6  0  0  0
  6  4  1  0  0  0  0
  7  3  2  0  0  0  0
  8  7  1  0  0  0  0
  8 16  1  0  0  0  0
  9  8  2  0  0  0  0
 10  9  1  0  0  0  0
 10 12  2  0  0  0  0
 11 10  1  0  0  0  0
 12 14  1  0  0  0  0
 13 12  1  0  0  0  0
 14 16  2  0  0  0  0
 14 15  1  0  0  0  0
 16 17  1  0  0  0  0
 18 45  1  0  0  0  0
 19 18  1  0  0  0  0
 20 18  1  0  0  0  0
 21 24  1  0  0  0  0
 21  5  1  0  0  0  0
 22 21  1  0  0  0  0
 23 21  1  0  0  0  0
 25 27  1  0  0  0  0
 25 26  1  1  0  0  0
 27 28  1  0  0  0  0
 29 31  1  0  0  0  0
 29 27  1  0  0  0  0
 29 30  1  0  0  0  0
 32 34  1  0  0  0  0
 32 29  1  0  0  0  0
 33 32  1  0  0  0  0
 35 32  1  0  0  0  0
 36 35  1  0  0  0  0
 37 35  1  0  0  0  0
 37 39  1  0  0  0  0
 38 37  1  0  0  0  0
 39 41  1  0  0  0  0
 39 42  1  0  0  0  0
 40 39  1  0  0  0  0
 42 43  1  0  0  0  0
 42 25  1  0  0  0  0
 44 42  1  0  0  0  0
 45 54  1  0  0  0  0
 46 45  2  0  0  0  0
 46 48  1  0  0  0  0
 47 46  1  0  0  0  0
 48 50  2  0  0  0  0
 49 48  1  0  0  0  0
 50 52  1  0  0  0  0
 50 51  1  0  0  0  0
 52 53  1  0  0  0  0
 54 55  1  0  0  0  0
 54 52  2  0  0  0  0
M  END
$$$$
