CSD_code = KIMGOC | q = 0 | S = 0 | Stoichiometry = C12H10AuCl3Se | MND = 4
 OpenBabel04212202063D

 27 27  0  0  0  0  0  0  0  0999 V2000
    3.4781    1.6722    8.9790 Au  0  0  0  0  0  0  0  0  0  0  0  0
    1.0637    2.1817    9.0472 Se  0  0  0  0  0  0  0  0  0  0  0  0
    2.6173    0.2282   10.5390 Cl  0  0  0  0  0  0  0  0  0  0  0  0
    3.9582    3.3394    7.5128 Cl  0  0  0  0  0  0  0  0  0  0  0  0
    5.6599    1.0193    9.1482 Cl  0  0  0  0  0  0  0  0  0  0  0  0
    0.1926    4.7469    7.9519 C   0  0  0  0  0  0  0  0  0  0  0  0
   -0.0466    5.6173    6.9028 C   0  0  0  0  0  0  0  0  0  0  0  0
    0.2209    5.2334    5.5990 C   0  0  0  0  0  0  0  0  0  0  0  0
    0.7174    3.9673    5.3313 C   0  0  0  0  0  0  0  0  0  0  0  0
    0.9589    3.0879    6.3691 C   0  0  0  0  0  0  0  0  0  0  0  0
    0.7101    3.4909    7.6749 C   0  0  0  0  0  0  0  0  0  0  0  0
    2.0126    4.4064   10.6101 C   0  0  0  0  0  0  0  0  0  0  0  0
    2.1273    5.1485   11.7714 C   0  0  0  0  0  0  0  0  0  0  0  0
    1.4300    4.7750   12.9113 C   0  0  0  0  0  0  0  0  0  0  0  0
    0.6125    3.6567   12.8992 C   0  0  0  0  0  0  0  0  0  0  0  0
    0.4828    2.9042   11.7440 C   0  0  0  0  0  0  0  0  0  0  0  0
    1.1826    3.2916   10.6102 C   0  0  0  0  0  0  0  0  0  0  0  0
   -0.0195    5.0421    8.9702 H   0  0  0  0  0  0  0  0  0  0  0  0
   -0.4419    6.6008    7.1084 H   0  0  0  0  0  0  0  0  0  0  0  0
    0.0406    5.9228    4.7882 H   0  0  0  0  0  0  0  0  0  0  0  0
    0.9231    3.6669    4.3154 H   0  0  0  0  0  0  0  0  0  0  0  0
    1.3550    2.0988    6.1766 H   0  0  0  0  0  0  0  0  0  0  0  0
    2.5628    4.6799    9.7186 H   0  0  0  0  0  0  0  0  0  0  0  0
    2.7716    6.0144   11.7878 H   0  0  0  0  0  0  0  0  0  0  0  0
    1.5321    5.3562   13.8151 H   0  0  0  0  0  0  0  0  0  0  0  0
    0.0786    3.3643   13.7905 H   0  0  0  0  0  0  0  0  0  0  0  0
   -0.1354    2.0176   11.7156 H   0  0  0  0  0  0  0  0  0  0  0  0
  1  5  1  0  0  0  0
  1  3  1  0  0  0  0
  2 17  1  0  0  0  0
  4  1  1  0  0  0  0
  6 18  1  0  0  0  0
  7 19  1  0  0  0  0
  7  6  2  0  0  0  0
  8  7  1  0  0  0  0
  9  8  2  0  0  0  0
  9 10  1  0  0  0  0
 10 11  2  0  0  0  0
 11  6  1  0  0  0  0
 11  2  1  0  0  0  0
 12 17  2  0  0  0  0
 12 13  1  0  0  0  0
 13 24  1  0  0  0  0
 13 14  2  0  0  0  0
 14 25  1  0  0  0  0
 15 14  1  0  0  0  0
 15 26  1  0  0  0  0
 16 15  2  0  0  0  0
 17 16  1  0  0  0  0
 20  8  1  0  0  0  0
 21  9  1  0  0  0  0
 22 10  1  0  0  0  0
 23 12  1  0  0  0  0
 27 16  1  0  0  0  0
M  END
$$$$
