CSD_code = KIMNUR | q = 0 | S = 0 | Stoichiometry = C31H31BrNO2PPd | MND = 4
 OpenBabel04212202063D

 68 70  0  0  1  0  0  0  0  0999 V2000
    8.2445    2.0940    2.0152 Pd  0  0  0  0  0  0  0  0  0  0  0  0
    9.1730   -0.1083    1.5652 Br  0  0  0  0  0 15  0  0  0  0  0  0
    9.8260    2.4340    3.5738 P   0  0  0  0  0  0  0  0  0  0  0  0
    6.5909    2.1791    0.7450 N   0  0  0  0  0  0  0  0  0  0  0  0
    4.2329    2.1796   -0.4974 O   0  0  0  0  0  0  0  0  0  0  0  0
    5.1337    2.6046   -2.4997 O   0  0  0  0  0  0  0  0  0  0  0  0
    6.5230    3.2479    1.5490 C   0  0  0  0  0  0  0  0  0  0  0  0
    6.4433    3.1911    2.9685 C   0  0  0  0  0  0  0  0  0  0  0  0
    6.1062    2.2722    3.4589 H   0  0  0  0  0  0  0  0  0  0  0  0
    6.4398    4.4049    3.6671 C   0  0  0  0  0  0  0  0  0  0  0  0
    6.3284    4.3918    4.7429 H   0  0  0  0  0  0  0  0  0  0  0  0
    6.5700    5.6095    3.0118 C   0  0  0  0  0  0  0  0  0  0  0  0
    6.5668    6.5283    3.5781 H   0  0  0  0  0  0  0  0  0  0  0  0
    6.6889    5.6683    1.6136 C   0  0  0  0  0  0  0  0  0  0  0  0
    6.7920    6.6244    1.1202 H   0  0  0  0  0  0  0  0  0  0  0  0
    6.6728    4.5079    0.8951 C   0  0  0  0  0  0  0  0  0  0  0  0
    6.7639    4.2320   -0.5709 C   0  0  0  0  0  0  0  0  0  0  0  0
    7.7180    4.5611   -0.9879 H   0  0  0  0  0  0  0  0  0  0  0  0
    5.9693    4.7296   -1.1306 H   0  0  0  0  0  0  0  0  0  0  0  0
    6.6081    2.6715   -0.6300 C   0  0  2  0  0  0  0  0  0  0  0  0
    5.1950    2.4253   -1.1716 C   0  0  0  0  0  0  0  0  0  0  0  0
    3.8484    2.4424   -3.0833 C   0  0  0  0  0  0  0  0  0  0  0  0
    3.9841    2.5668   -4.1545 H   0  0  0  0  0  0  0  0  0  0  0  0
    3.1562    3.1917   -2.6931 H   0  0  0  0  0  0  0  0  0  0  0  0
    3.4531    1.4503   -2.8571 H   0  0  0  0  0  0  0  0  0  0  0  0
    7.6583    2.0022   -1.5405 C   0  0  0  0  0  0  0  0  0  0  0  0
    7.5013    2.4049   -2.5470 H   0  0  0  0  0  0  0  0  0  0  0  0
    9.0935    2.3391   -1.0992 C   0  0  0  0  0  0  0  0  0  0  0  0
    9.7489    1.4949   -1.3028 H   0  0  0  0  0  0  0  0  0  0  0  0
    9.1504    2.5592   -0.0101 H   0  0  0  0  0  0  0  0  0  0  0  0
    9.4797    3.2068   -1.6320 H   0  0  0  0  0  0  0  0  0  0  0  0
    7.4173    0.4941   -1.5808 C   0  0  0  0  0  0  0  0  0  0  0  0
    6.4325    0.2786   -1.9894 H   0  0  0  0  0  0  0  0  0  0  0  0
    7.4697    0.0716   -0.5819 H   0  0  0  0  0  0  0  0  0  0  0  0
    8.1636    0.0077   -2.2037 H   0  0  0  0  0  0  0  0  0  0  0  0
   11.5713    2.6260    3.0957 C   0  0  0  0  0  0  0  0  0  0  0  0
   12.0115    2.1283    1.8743 C   0  0  0  0  0  0  0  0  0  0  0  0
   11.3165    1.6246    1.2155 H   0  0  0  0  0  0  0  0  0  0  0  0
   13.3389    2.2661    1.5081 C   0  0  0  0  0  0  0  0  0  0  0  0
   13.6754    1.8739    0.5604 H   0  0  0  0  0  0  0  0  0  0  0  0
   14.2305    2.9035    2.3539 C   0  0  0  0  0  0  0  0  0  0  0  0
   15.2665    3.0099    2.0687 H   0  0  0  0  0  0  0  0  0  0  0  0
   13.7929    3.4122    3.5670 C   0  0  0  0  0  0  0  0  0  0  0  0
   14.4862    3.9159    4.2248 H   0  0  0  0  0  0  0  0  0  0  0  0
   12.4684    3.2797    3.9387 C   0  0  0  0  0  0  0  0  0  0  0  0
   12.1243    3.6930    4.8775 H   0  0  0  0  0  0  0  0  0  0  0  0
    9.5665    3.9701    4.5153 C   0  0  0  0  0  0  0  0  0  0  0  0
    9.2365    4.0105    5.8639 C   0  0  0  0  0  0  0  0  0  0  0  0
    9.1543    3.0906    6.4268 H   0  0  0  0  0  0  0  0  0  0  0  0
    9.0183    5.2306    6.4804 C   0  0  0  0  0  0  0  0  0  0  0  0
    8.7647    5.2622    7.5301 H   0  0  0  0  0  0  0  0  0  0  0  0
    9.1272    6.4078    5.7590 C   0  0  0  0  0  0  0  0  0  0  0  0
    8.9609    7.3565    6.2474 H   0  0  0  0  0  0  0  0  0  0  0  0
    9.4420    6.3700    4.4091 C   0  0  0  0  0  0  0  0  0  0  0  0
    9.5191    7.2872    3.8439 H   0  0  0  0  0  0  0  0  0  0  0  0
    9.6494    5.1551    3.7871 C   0  0  0  0  0  0  0  0  0  0  0  0
    9.8838    5.1071    2.7280 H   0  0  0  0  0  0  0  0  0  0  0  0
    9.7988    1.1291    4.8377 C   0  0  0  0  0  0  0  0  0  0  0  0
    8.5966    0.4371    4.9716 C   0  0  0  0  0  0  0  0  0  0  0  0
    7.7645    0.6702    4.3021 H   0  0  0  0  0  0  0  0  0  0  0  0
    8.4703   -0.5589    5.9208 C   0  0  0  0  0  0  0  0  0  0  0  0
    7.5403   -1.0985    6.0190 H   0  0  0  0  0  0  0  0  0  0  0  0
    9.5468   -0.8729    6.7353 C   0  0  0  0  0  0  0  0  0  0  0  0
    9.4531   -1.6554    7.4735 H   0  0  0  0  0  0  0  0  0  0  0  0
   10.7476   -0.1968    6.5945 C   0  0  0  0  0  0  0  0  0  0  0  0
   11.5888   -0.4538    7.2215 H   0  0  0  0  0  0  0  0  0  0  0  0
   10.8797    0.8034    5.6476 C   0  0  0  0  0  0  0  0  0  0  0  0
   11.8214    1.3196    5.5287 H   0  0  0  0  0  0  0  0  0  0  0  0
  3 47  1  0  0  0  0
  3 58  1  0  0  0  0
  4  7  1  0  0  0  0
  4  1  1  0  0  0  0
  6 21  1  0  0  0  0
  7  8  1  0  0  0  0
  8  9  1  0  0  0  0
  8 10  2  0  0  0  0
 10 11  1  0  0  0  0
 12 13  1  0  0  0  0
 12 10  1  0  0  0  0
 14 12  2  0  0  0  0
 15 14  1  0  0  0  0
 16  7  2  0  0  0  0
 16 14  1  0  0  0  0
 17 16  1  0  0  0  0
 18 17  1  0  0  0  0
 19 17  1  0  0  0  0
 20 21  1  6  0  0  0
 20 17  1  0  0  0  0
 20  4  1  0  0  0  0
 21  5  2  0  0  0  0
 22 25  1  0  0  0  0
 22 24  1  0  0  0  0
 22  6  1  0  0  0  0
 23 22  1  0  0  0  0
 26 28  1  0  0  0  0
 26 20  1  0  0  0  0
 27 26  1  0  0  0  0
 28 30  1  0  0  0  0
 29 28  1  0  0  0  0
 31 28  1  0  0  0  0
 32 26  1  0  0  0  0
 32 34  1  0  0  0  0
 33 32  1  0  0  0  0
 35 32  1  0  0  0  0
 36  3  1  0  0  0  0
 36 45  1  0  0  0  0
 37 36  2  0  0  0  0
 38 37  1  0  0  0  0
 39 37  1  0  0  0  0
 39 41  2  0  0  0  0
 40 39  1  0  0  0  0
 41 43  1  0  0  0  0
 42 41  1  0  0  0  0
 43 45  2  0  0  0  0
 43 44  1  0  0  0  0
 45 46  1  0  0  0  0
 47 48  1  0  0  0  0
 48 49  1  0  0  0  0
 48 50  2  0  0  0  0
 50 51  1  0  0  0  0
 52 53  1  0  0  0  0
 52 50  1  0  0  0  0
 54 52  2  0  0  0  0
 55 54  1  0  0  0  0
 56 54  1  0  0  0  0
 56 47  2  0  0  0  0
 57 56  1  0  0  0  0
 58 59  2  0  0  0  0
 58 67  1  0  0  0  0
 59 61  1  0  0  0  0
 60 59  1  0  0  0  0
 61 62  1  0  0  0  0
 61 63  2  0  0  0  0
 63 64  1  0  0  0  0
 65 63  1  0  0  0  0
 65 66  1  0  0  0  0
 67 65  2  0  0  0  0
 68 67  1  0  0  0  0
M  END
$$$$
