CSD_code = KIMYEK | q = 0 | S = 0 | Stoichiometry = C7H9Cl2N3OZn | MND = 4
 OpenBabel04212202063D

 23 24  0  0  1  0  0  0  0  0999 V2000
   -0.6138    3.0741    9.1692 Zn  0  0  0  0  0  0  0  0  0  0  0  0
   -2.4674    4.2316    8.8255 Cl  0  0  0  0  0  0  0  0  0  0  0  0
    0.3541    2.1080   10.8668 Cl  0  0  0  0  0  0  0  0  0  0  0  0
    0.8261    4.1358    8.0877 O   0  0  0  0  0  0  0  0  0  0  0  0
   -0.6497    1.4950    7.6761 N   0  0  0  0  0  0  0  0  0  0  0  0
    0.5027    3.7378    5.8625 N   0  0  0  0  0  0  0  0  0  0  0  0
    2.4909    4.5666    6.6512 N   0  0  0  0  0  0  0  0  0  0  0  0
   -0.5908    0.2361    8.0909 C   0  0  0  0  0  3  0  0  0  0  0  0
   -0.7351   -0.8395    7.2306 C   0  0  0  0  0  0  0  0  0  0  0  0
   -0.9501   -0.5867    5.8856 C   0  0  0  0  0  0  0  0  0  0  0  0
   -0.9961    0.7298    5.4562 C   0  0  0  0  0  0  0  0  0  0  0  0
   -0.8410    1.7531    6.3834 C   0  0  0  0  0  0  0  0  0  0  0  0
   -0.8441    3.2034    5.9697 C   0  0  0  0  0  0  0  0  0  0  0  0
    1.2313    4.1416    6.9281 C   0  0  2  0  0  3  0  0  0  0  0  0
    0.9713    3.6290    4.9773 H   0  0  0  0  0  0  0  0  0  0  0  0
    2.7875    4.7913    5.7185 H   0  0  0  0  0  0  0  0  0  0  0  0
    3.0056    4.9663    7.4180 H   0  0  0  0  0  0  0  0  0  0  0  0
   -0.4149    0.1006    9.1492 H   0  0  0  0  0  0  0  0  0  0  0  0
   -0.6848   -1.8472    7.6100 H   0  0  0  0  0  0  0  0  0  0  0  0
   -1.0753   -1.3968    5.1830 H   0  0  0  0  0  0  0  0  0  0  0  0
   -1.1583    0.9652    4.4153 H   0  0  0  0  0  0  0  0  0  0  0  0
   -1.3923    3.7828    6.7216 H   0  0  0  0  0  0  0  0  0  0  0  0
   -1.3310    3.3213    5.0011 H   0  0  0  0  0  0  0  0  0  0  0  0
  1  3  1  0  0  0  0
  2  1  1  0  0  0  0
  4  1  1  0  0  0  0
  5  8  1  0  0  0  0
  5  1  1  0  0  0  0
  6 13  1  0  0  0  0
  6 14  1  0  0  0  0
  7 17  1  0  0  0  0
  8 18  1  0  0  0  0
  9 19  1  0  0  0  0
  9  8  1  0  0  0  0
 10  9  2  0  0  0  0
 11 10  1  0  0  0  0
 11 12  2  0  0  0  0
 12  5  1  0  0  0  0
 13 12  1  0  0  0  0
 13 22  1  0  0  0  0
 14  7  1  1  0  0  0
 14  4  1  0  0  0  0
 15  6  1  0  0  0  0
 16  7  1  0  0  0  0
 20 10  1  0  0  0  0
 21 11  1  0  0  0  0
 23 13  1  0  0  0  0
M  END
$$$$
