CSD_code = KINLEY | q = 0 | S = 0 | Stoichiometry = C13H16Cl2N4S2Ti | MND = 6
 OpenBabel04212202063D

 38 40  0  0  1  0  0  0  0  0999 V2000
    4.9276    8.1056   16.1109 Ti  0  0  0  0  0  0  0  0  0  0  0  0
    6.8601    7.2384   16.8725 Cl  0  0  0  0  0  0  0  0  0  0  0  0
    4.6105    7.0167   14.1510 Cl  0  0  0  0  0  0  0  0  0  0  0  0
    3.6569   10.3334   17.9217 S   0  0  0  0  0  0  0  0  0  0  0  0
    2.3523   10.2786   16.7391 C   0  0  1  0  0  3  0  0  0  0  0  0
    2.4900    9.1780   15.4655 S   0  0  0  0  0  0  0  0  0  0  0  0
    4.6615    9.2390   17.4236 N   0  0  0  0  0  2  0  0  0  0  0  0
    1.3152   11.1105   16.9121 N   0  0  0  0  0  0  0  0  0  0  0  0
    1.3203   12.0155   18.0348 C   0  0  0  0  0  0  0  0  0  0  0  0
    0.2108   11.1807   15.9892 C   0  0  0  0  0  0  0  0  0  0  0  0
    3.8733    6.5134   17.0119 N   0  0  0  0  0  0  0  0  0  0  0  0
    2.7261    6.6506   17.6753 C   0  0  0  0  0  3  0  0  0  0  0  0
    1.9839    5.5697   18.1231 C   0  0  0  0  0  0  0  0  0  0  0  0
    2.4531    4.2888   17.8774 C   0  0  0  0  0  0  0  0  0  0  0  0
    3.6527    4.1465   17.1981 C   0  0  0  0  0  0  0  0  0  0  0  0
    4.3289    5.2822   16.7810 C   0  0  0  0  0  0  0  0  0  0  0  0
    5.9213    9.5227   14.9203 N   0  0  0  0  0  0  0  0  0  0  0  0
    7.0153    9.1207   14.2715 C   0  0  0  0  0  3  0  0  0  0  0  0
    7.6289    9.8888   13.2954 C   0  0  0  0  0  0  0  0  0  0  0  0
    7.0851   11.1208   12.9663 C   0  0  0  0  0  0  0  0  0  0  0  0
    5.9497   11.5391   13.6421 C   0  0  0  0  0  0  0  0  0  0  0  0
    5.4044   10.7116   14.6103 C   0  0  0  0  0  0  0  0  0  0  0  0
    1.4299   11.4612   18.9702 H   0  0  0  0  0  0  0  0  0  0  0  0
    2.1570   12.7162   17.9654 H   0  0  0  0  0  0  0  0  0  0  0  0
    0.3862   12.5705   18.0519 H   0  0  0  0  0  0  0  0  0  0  0  0
    0.3651   10.4398   15.2082 H   0  0  0  0  0  0  0  0  0  0  0  0
   -0.7274   10.9706   16.5072 H   0  0  0  0  0  0  0  0  0  0  0  0
    0.1544   12.1745   15.5388 H   0  0  0  0  0  0  0  0  0  0  0  0
    2.3907    7.6664   17.8639 H   0  0  0  0  0  0  0  0  0  0  0  0
    1.0578    5.7324   18.6519 H   0  0  0  0  0  0  0  0  0  0  0  0
    1.8982    3.4238   18.2088 H   0  0  0  0  0  0  0  0  0  0  0  0
    4.0606    3.1707   16.9865 H   0  0  0  0  0  0  0  0  0  0  0  0
    5.2698    5.2050   16.2436 H   0  0  0  0  0  0  0  0  0  0  0  0
    7.4116    8.1471   14.5471 H   0  0  0  0  0  0  0  0  0  0  0  0
    8.5120    9.5195   12.7983 H   0  0  0  0  0  0  0  0  0  0  0  0
    7.5333   11.7385   12.2023 H   0  0  0  0  0  0  0  0  0  0  0  0
    5.4889   12.4896   13.4231 H   0  0  0  0  0  0  0  0  0  0  0  0
    4.5199   11.0188   15.1610 H   0  0  0  0  0  0  0  0  0  0  0  0
  1  2  1  0  0  0  0
  1 11  1  0  0  0  0
  1  7  1  0  0  0  0
  3  1  1  0  0  0  0
  5  8  1  1  0  0  0
  5  4  1  0  0  0  0
  6  1  1  0  0  0  0
  6  5  1  0  0  0  0
  7  4  1  0  0  0  0
  8  9  1  0  0  0  0
  9 25  1  0  0  0  0
  9 23  1  0  0  0  0
 10 27  1  0  0  0  0
 10  8  1  0  0  0  0
 11 12  1  0  0  0  0
 12 29  1  0  0  0  0
 12 13  1  0  0  0  0
 13 30  1  0  0  0  0
 14 13  2  0  0  0  0
 14 31  1  0  0  0  0
 15 14  1  0  0  0  0
 16 11  1  0  0  0  0
 16 15  2  0  0  0  0
 17  1  1  0  0  0  0
 18 34  1  0  0  0  0
 18 17  1  0  0  0  0
 19 18  1  0  0  0  0
 20 19  2  0  0  0  0
 20 21  1  0  0  0  0
 21 22  2  0  0  0  0
 22 17  1  0  0  0  0
 22 38  1  0  0  0  0
 24  9  1  0  0  0  0
 26 10  1  0  0  0  0
 28 10  1  0  0  0  0
 32 15  1  0  0  0  0
 33 16  1  0  0  0  0
 35 19  1  0  0  0  0
 36 20  1  0  0  0  0
 37 21  1  0  0  0  0
M  END
$$$$
