CSD_code = KIQQUZ | q = 0 | S = 0 | Stoichiometry = C19H27ClN2Pt | MND = 4
 OpenBabel04212202063D

 50 53  0  0  1  0  0  0  0  0999 V2000
    3.4173    0.9195    1.4346 Pt  0  0  2  0  0  0  0  0  0  0  0  0
    3.3755    2.3247    3.3030 Cl  0  0  0  0  0  0  0  0  0  0  0  0
    3.2911    2.3084   -0.0582 N   0  0  1  0  0  0  0  0  0  0  0  0
    3.7530   -0.8783    2.3451 N   0  0  2  0  0  0  0  0  0  0  0  0
    3.8273   -0.1734   -0.0933 C   0  0  0  0  0  0  0  0  0  0  0  0
    3.9652    0.4582   -1.3325 C   0  0  0  0  0  0  0  0  0  0  0  0
    4.4371   -0.2939   -2.4085 C   0  0  0  0  0  0  0  0  0  0  0  0
    4.7832   -1.6244   -2.2008 C   0  0  0  0  0  0  0  0  0  0  0  0
    4.7153   -2.2286   -0.9503 C   0  0  0  0  0  0  0  0  0  0  0  0
    4.2455   -1.4875    0.1342 C   0  0  0  0  0  0  0  0  0  0  0  0
    3.6051    1.8487   -1.2284 C   0  0  0  0  0  3  0  0  0  0  0  0
    4.1345   -1.8130    1.5327 C   0  0  0  0  0  3  0  0  0  0  0  0
    2.8434    3.6681    0.0829 C   0  0  0  0  0  0  0  0  0  0  0  0
    1.4443    3.6887    0.7087 C   0  0  0  0  0  0  0  0  0  0  0  0
    0.4484    2.8683   -0.1069 C   0  0  0  0  0  0  0  0  0  0  0  0
   -0.9411    2.8228    0.5261 C   0  0  0  0  0  0  0  0  0  0  0  0
   -0.9750    2.2530    1.9455 C   0  0  0  0  0  0  0  0  0  0  0  0
   -0.3945    0.8450    2.0702 C   0  0  0  0  0  0  0  0  0  0  0  0
   -0.6783    0.2726    3.4584 C   0  0  0  0  0  0  0  0  0  0  0  0
   -0.3492   -1.2144    3.6032 C   0  0  0  0  0  0  0  0  0  0  0  0
    1.0958   -1.5804    3.2694 C   0  0  0  0  0  0  0  0  0  0  0  0
    2.1098   -0.8380    4.1356 C   0  0  0  0  0  0  0  0  0  0  0  0
    3.5510   -1.1758    3.7380 C   0  0  0  0  0  0  0  0  0  0  0  0
    4.5537    0.1480   -3.3879 H   0  0  0  0  0  0  0  0  0  0  0  0
    5.1469   -2.2029   -3.0376 H   0  0  0  0  0  0  0  0  0  0  0  0
    5.0423   -3.2511   -0.8259 H   0  0  0  0  0  0  0  0  0  0  0  0
    3.5893    2.5038   -2.0991 H   0  0  0  0  0  0  0  0  0  0  0  0
    4.3591   -2.8108    1.9089 H   0  0  0  0  0  0  0  0  0  0  0  0
    3.5316    4.1919    0.7555 H   0  0  0  0  0  0  0  0  0  0  0  0
    2.8399    4.1743   -0.8924 H   0  0  0  0  0  0  0  0  0  0  0  0
    1.1084    4.7238    0.7882 H   0  0  0  0  0  0  0  0  0  0  0  0
    1.5291    3.2744    1.7138 H   0  0  0  0  0  0  0  0  0  0  0  0
    0.3625    3.2929   -1.1117 H   0  0  0  0  0  0  0  0  0  0  0  0
    0.8260    1.8471   -0.2110 H   0  0  0  0  0  0  0  0  0  0  0  0
   -1.3554    3.8340    0.5508 H   0  0  0  0  0  0  0  0  0  0  0  0
   -1.5894    2.2176   -0.1130 H   0  0  0  0  0  0  0  0  0  0  0  0
   -2.0200    2.2308    2.2678 H   0  0  0  0  0  0  0  0  0  0  0  0
   -0.4438    2.9190    2.6262 H   0  0  0  0  0  0  0  0  0  0  0  0
    0.6938    0.8776    1.9002 H   0  0  0  0  0  0  0  0  0  0  0  0
   -0.8374    0.1975    1.3092 H   0  0  0  0  0  0  0  0  0  0  0  0
   -0.1267    0.8498    4.2012 H   0  0  0  0  0  0  0  0  0  0  0  0
   -1.7422    0.3985    3.6787 H   0  0  0  0  0  0  0  0  0  0  0  0
   -1.0088   -1.7874    2.9462 H   0  0  0  0  0  0  0  0  0  0  0  0
   -0.5657   -1.5169    4.6310 H   0  0  0  0  0  0  0  0  0  0  0  0
    1.2240   -2.6591    3.4014 H   0  0  0  0  0  0  0  0  0  0  0  0
    1.2875   -1.3513    2.2173 H   0  0  0  0  0  0  0  0  0  0  0  0
    1.9661   -1.0888    5.1877 H   0  0  0  0  0  0  0  0  0  0  0  0
    1.9804    0.2381    4.0159 H   0  0  0  0  0  0  0  0  0  0  0  0
    4.2290   -0.5495    4.3280 H   0  0  0  0  0  0  0  0  0  0  0  0
    3.7718   -2.2331    3.9405 H   0  0  0  0  0  0  0  0  0  0  0  0
  1  4  1  0  0  0  0
  1  2  1  1  0  0  0
  3 11  1  6  0  0  0
  3 13  1  0  0  0  0
  3  1  1  0  0  0  0
  4 12  1  6  0  0  0
  4 23  1  0  0  0  0
  5 10  1  0  0  0  0
  5  1  1  0  0  0  0
  6 11  1  0  0  0  0
  6  5  2  0  0  0  0
  7  8  2  0  0  0  0
  7  6  1  0  0  0  0
  8  9  1  0  0  0  0
  9 26  1  0  0  0  0
  9 10  2  0  0  0  0
 10 12  1  0  0  0  0
 12 28  1  0  0  0  0
 13 14  1  0  0  0  0
 13 29  1  0  0  0  0
 14 31  1  0  0  0  0
 14 32  1  0  0  0  0
 15 16  1  0  0  0  0
 15 14  1  0  0  0  0
 16 35  1  0  0  0  0
 16 17  1  0  0  0  0
 17 18  1  0  0  0  0
 17 37  1  0  0  0  0
 17 38  1  0  0  0  0
 18 19  1  0  0  0  0
 19 20  1  0  0  0  0
 19 42  1  0  0  0  0
 19 41  1  0  0  0  0
 20 44  1  0  0  0  0
 21 45  1  0  0  0  0
 21 20  1  0  0  0  0
 21 22  1  0  0  0  0
 22 47  1  0  0  0  0
 23 50  1  0  0  0  0
 23 22  1  0  0  0  0
 23 49  1  0  0  0  0
 24  7  1  0  0  0  0
 25  8  1  0  0  0  0
 27 11  1  0  0  0  0
 30 13  1  0  0  0  0
 33 15  1  0  0  0  0
 34 15  1  0  0  0  0
 36 16  1  0  0  0  0
 39 18  1  0  0  0  0
 40 18  1  0  0  0  0
 43 20  1  0  0  0  0
 46 21  1  0  0  0  0
 48 22  1  0  0  0  0
M  END
$$$$
