CSD_code = KIRNEH | q = 0 | S = 0 | Stoichiometry = C18H10AuClF5P | MND = 2
 OpenBabel04212202063D

 36 38  0  0  0  0  0  0  0  0999 V2000
    3.7839    0.3682    1.7853 Au  0  0  0  0  0  0  0  0  0  0  0  0
    3.1449   -1.5870    0.8563 Cl  0  0  0  0  0  0  0  0  0  0  0  0
    4.4231    2.2601    2.8126 P   0  0  0  0  0  4  0  0  0  0  0  0
    7.4568    3.2166    2.6114 F   0  0  0  0  0  0  0  0  0  0  0  0
    4.2495    5.2126   -1.3141 F   0  0  0  0  0  0  0  0  0  0  0  0
    6.9111    5.8202   -1.2631 F   0  0  0  0  0  0  0  0  0  0  0  0
    3.2113    3.5863    0.6327 F   0  0  0  0  0  0  0  0  0  0  0  0
    8.4978    4.8031    0.7022 F   0  0  0  0  0  0  0  0  0  0  0  0
    5.5481    2.0251    4.2123 C   0  0  0  0  0  0  0  0  0  0  0  0
    5.7666    3.0245    5.1570 C   0  0  0  0  0  0  0  0  0  0  0  0
    5.2675    3.9789    5.0641 H   0  0  0  0  0  0  0  0  0  0  0  0
    6.6468    3.7042    1.6709 C   0  0  0  0  0  0  0  0  0  0  0  0
    3.1102    3.2991    3.5045 C   0  0  0  0  0  0  0  0  0  0  0  0
    7.1962    4.5177    0.6825 C   0  0  0  0  0  0  0  0  0  0  0  0
    2.0073    2.6237    4.0178 C   0  0  0  0  0  0  0  0  0  0  0  0
    1.9673    1.5441    3.9448 H   0  0  0  0  0  0  0  0  0  0  0  0
    3.1730    4.6878    3.5707 C   0  0  0  0  0  0  0  0  0  0  0  0
    4.0247    5.2185    3.1651 H   0  0  0  0  0  0  0  0  0  0  0  0
    6.6253    2.7864    6.2129 C   0  0  0  0  0  0  0  0  0  0  0  0
    6.8013    3.5607    6.9445 H   0  0  0  0  0  0  0  0  0  0  0  0
    7.0317    0.5608    5.4014 C   0  0  0  0  0  0  0  0  0  0  0  0
    7.5205   -0.3964    5.4998 H   0  0  0  0  0  0  0  0  0  0  0  0
    5.0273    4.7286   -0.3484 C   0  0  0  0  0  0  0  0  0  0  0  0
    6.1743    0.7897    4.3408 C   0  0  0  0  0  0  0  0  0  0  0  0
    5.9824    0.0167    3.6073 H   0  0  0  0  0  0  0  0  0  0  0  0
    5.2875    3.4079    1.6853 C   0  0  0  0  0  0  0  0  0  0  0  0
    4.5059    3.9145    0.6457 C   0  0  0  0  0  0  0  0  0  0  0  0
    0.9735    3.3328    4.6003 C   0  0  0  0  0  0  0  0  0  0  0  0
    0.1170    2.8085    4.9957 H   0  0  0  0  0  0  0  0  0  0  0  0
    1.0359    4.7155    4.6656 C   0  0  0  0  0  0  0  0  0  0  0  0
    0.2264    5.2712    5.1138 H   0  0  0  0  0  0  0  0  0  0  0  0
    7.2583    1.5588    6.3347 C   0  0  0  0  0  0  0  0  0  0  0  0
    7.9275    1.3800    7.1626 H   0  0  0  0  0  0  0  0  0  0  0  0
    2.1317    5.3894    4.1506 C   0  0  0  0  0  0  0  0  0  0  0  0
    2.1757    6.4673    4.1983 H   0  0  0  0  0  0  0  0  0  0  0  0
    6.3879    5.0370   -0.3249 C   0  0  0  0  0  0  0  0  0  0  0  0
  1  3  1  0  0  0  0
  2  1  1  0  0  0  0
  3 13  1  0  0  0  0
  3  9  1  0  0  0  0
  5 23  1  0  0  0  0
  6 36  1  0  0  0  0
  7 27  1  0  0  0  0
  9 24  2  0  0  0  0
  9 10  1  0  0  0  0
 10 19  2  0  0  0  0
 11 10  1  0  0  0  0
 12 26  1  0  0  0  0
 12  4  1  0  0  0  0
 13 17  2  0  0  0  0
 13 15  1  0  0  0  0
 14  8  1  0  0  0  0
 14 12  2  0  0  0  0
 15 28  2  0  0  0  0
 16 15  1  0  0  0  0
 17 34  1  0  0  0  0
 18 17  1  0  0  0  0
 19 32  1  0  0  0  0
 19 20  1  0  0  0  0
 21 22  1  0  0  0  0
 21 32  2  0  0  0  0
 23 36  2  0  0  0  0
 23 27  1  0  0  0  0
 24 21  1  0  0  0  0
 25 24  1  0  0  0  0
 26  3  1  0  0  0  0
 27 26  2  0  0  0  0
 28 30  1  0  0  0  0
 28 29  1  0  0  0  0
 30 31  1  0  0  0  0
 32 33  1  0  0  0  0
 34 35  1  0  0  0  0
 34 30  2  0  0  0  0
 36 14  1  0  0  0  0
M  END
$$$$
