CSD_code = KISNIL | q = 0 | S = 0 | Stoichiometry = C16H31BrCoOP3S | MND = 6
 OpenBabel04212202063D

 54 55  0  0  0  0  0  0  0  0999 V2000
    5.1136    8.7808   13.6026 Br  0  0  0  0  0  0  0  0  0  0  0  0
    6.7711    9.1908   11.8418 Co  0  0  0  0  0  0  0  0  0  0  0  0
    7.6349    7.0382   11.8529 P   0  0  0  0  0  4  0  0  0  0  0  0
    6.1008   11.3882   11.6352 S   0  0  0  0  0  0  0  0  0  0  0  0
    8.0510    9.9264   13.4963 P   0  0  0  0  0  4  0  0  0  0  0  0
    5.1127    8.7313   10.4440 P   0  0  0  0  0  4  0  0  0  0  0  0
    8.7568    8.6470   10.1169 O   0  0  0  0  0  0  0  0  0  0  0  0
    8.0293    9.5534   10.4804 C   0  0  0  0  0  0  0  0  0  0  0  0
    7.1947   11.8624   10.4024 C   0  0  0  0  0  0  0  0  0  0  0  0
    8.0831   10.8939    9.9173 C   0  0  0  0  0  0  0  0  0  0  0  0
    7.2256   13.1563    9.8788 C   0  0  0  0  0  0  0  0  0  0  0  0
    6.5368   13.8955   10.2591 H   0  0  0  0  0  0  0  0  0  0  0  0
    7.5236   11.4406   14.3736 C   0  0  0  0  0  0  0  0  0  0  0  0
    8.1401   11.5613   15.2649 H   0  0  0  0  0  0  0  0  0  0  0  0
    6.4772   11.3387   14.6603 H   0  0  0  0  0  0  0  0  0  0  0  0
    7.6295   12.3107   13.7285 H   0  0  0  0  0  0  0  0  0  0  0  0
    9.7749   10.3929   13.0682 C   0  0  0  0  0  0  0  0  0  0  0  0
   10.3149   10.7063   13.9616 H   0  0  0  0  0  0  0  0  0  0  0  0
    9.7410   11.2201   12.3586 H   0  0  0  0  0  0  0  0  0  0  0  0
   10.2910    9.5591   12.5971 H   0  0  0  0  0  0  0  0  0  0  0  0
    7.5611    5.9897   10.3438 C   0  0  0  0  0  0  0  0  0  0  0  0
    7.9224    4.9944   10.6032 H   0  0  0  0  0  0  0  0  0  0  0  0
    8.2064    6.4233    9.5848 H   0  0  0  0  0  0  0  0  0  0  0  0
    6.5510    5.9103    9.9515 H   0  0  0  0  0  0  0  0  0  0  0  0
    5.5313    8.6368    8.6586 C   0  0  0  0  0  0  0  0  0  0  0  0
    4.6469    8.3792    8.0759 H   0  0  0  0  0  0  0  0  0  0  0  0
    6.3141    7.9008    8.4882 H   0  0  0  0  0  0  0  0  0  0  0  0
    5.9019    9.6116    8.3399 H   0  0  0  0  0  0  0  0  0  0  0  0
    8.1318   13.4658    8.8894 C   0  0  0  0  0  0  0  0  0  0  0  0
    8.1563   14.4670    8.4840 H   0  0  0  0  0  0  0  0  0  0  0  0
    8.9957   11.2266    8.9126 C   0  0  0  0  0  0  0  0  0  0  0  0
    9.6716   10.4639    8.5535 H   0  0  0  0  0  0  0  0  0  0  0  0
    9.4116    6.7497   12.2313 C   0  0  0  0  0  0  0  0  0  0  0  0
    9.7162    7.2321   13.1556 H   0  0  0  0  0  0  0  0  0  0  0  0
   10.0094    7.1404   11.4125 H   0  0  0  0  0  0  0  0  0  0  0  0
    9.5717    5.6752   12.3193 H   0  0  0  0  0  0  0  0  0  0  0  0
    4.1365    7.1996   10.7073 C   0  0  0  0  0  0  0  0  0  0  0  0
    3.4866    7.0419    9.8461 H   0  0  0  0  0  0  0  0  0  0  0  0
    3.5338    7.3460   11.6033 H   0  0  0  0  0  0  0  0  0  0  0  0
    4.7647    6.3255   10.8531 H   0  0  0  0  0  0  0  0  0  0  0  0
    9.0187   12.5052    8.4030 C   0  0  0  0  0  0  0  0  0  0  0  0
    9.7220   12.7672    7.6268 H   0  0  0  0  0  0  0  0  0  0  0  0
    3.7078    9.8982   10.3772 C   0  0  0  0  0  0  0  0  0  0  0  0
    4.0138   10.8368    9.9189 H   0  0  0  0  0  0  0  0  0  0  0  0
    3.3629   10.0965   11.3918 H   0  0  0  0  0  0  0  0  0  0  0  0
    2.9040    9.4451    9.7962 H   0  0  0  0  0  0  0  0  0  0  0  0
    8.2799    8.8646   14.9760 C   0  0  0  0  0  0  0  0  0  0  0  0
    8.5589    7.8466   14.7201 H   0  0  0  0  0  0  0  0  0  0  0  0
    7.3309    8.8408   15.5112 H   0  0  0  0  0  0  0  0  0  0  0  0
    9.0501    9.3043   15.6101 H   0  0  0  0  0  0  0  0  0  0  0  0
    6.8664    5.8858   13.0642 C   0  0  0  0  0  0  0  0  0  0  0  0
    7.3302    4.9016   13.0008 H   0  0  0  0  0  0  0  0  0  0  0  0
    5.7993    5.8025   12.8694 H   0  0  0  0  0  0  0  0  0  0  0  0
    6.9757    6.2796   14.0723 H   0  0  0  0  0  0  0  0  0  0  0  0
  2  3  1  0  0  0  0
  2  5  1  0  0  0  0
  2  1  1  0  0  0  0
  3 33  1  0  0  0  0
  3 51  1  0  0  0  0
  4  2  1  0  0  0  0
  5 13  1  0  0  0  0
  5 47  1  0  0  0  0
  6 37  1  0  0  0  0
  6  2  1  0  0  0  0
  7  8  2  0  0  0  0
  8  2  1  0  0  0  0
  9  4  1  0  0  0  0
 10  9  1  0  0  0  0
 10  8  1  0  0  0  0
 11 12  1  0  0  0  0
 11  9  2  0  0  0  0
 13 15  1  0  0  0  0
 13 14  1  0  0  0  0
 16 13  1  0  0  0  0
 17  5  1  0  0  0  0
 17 18  1  0  0  0  0
 19 17  1  0  0  0  0
 20 17  1  0  0  0  0
 21 22  1  0  0  0  0
 21  3  1  0  0  0  0
 23 21  1  0  0  0  0
 24 21  1  0  0  0  0
 25  6  1  0  0  0  0
 26 25  1  0  0  0  0
 27 25  1  0  0  0  0
 28 25  1  0  0  0  0
 29 11  1  0  0  0  0
 30 29  1  0  0  0  0
 31 10  2  0  0  0  0
 32 31  1  0  0  0  0
 33 36  1  0  0  0  0
 33 34  1  0  0  0  0
 35 33  1  0  0  0  0
 37 40  1  0  0  0  0
 37 39  1  0  0  0  0
 38 37  1  0  0  0  0
 41 29  2  0  0  0  0
 41 31  1  0  0  0  0
 42 41  1  0  0  0  0
 43  6  1  0  0  0  0
 43 45  1  0  0  0  0
 44 43  1  0  0  0  0
 46 43  1  0  0  0  0
 47 49  1  0  0  0  0
 47 50  1  0  0  0  0
 48 47  1  0  0  0  0
 51 54  1  0  0  0  0
 52 51  1  0  0  0  0
 53 51  1  0  0  0  0
M  END
$$$$
