CSD_code = KISNEH | q = 0 | S = 0 | Stoichiometry = C16H31ClCoOP3S | MND = 6
 OpenBabel04212202063D

 54 55  0  0  0  0  0  0  0  0999 V2000
    0.9753    1.3754    3.7235 Co  0  0  0  0  0  0  0  0  0  0  0  0
    2.4962    0.9173    5.4204 Cl  0  0  0  0  0  0  0  0  0  0  0  0
    0.1149   -0.7662    3.6885 P   0  0  0  0  0  4  0  0  0  0  0  0
    2.7201    0.9304    2.4373 P   0  0  0  0  0  4  0  0  0  0  0  0
   -0.2300    2.0735    5.4421 P   0  0  0  0  0  4  0  0  0  0  0  0
    1.6358    3.5845    3.5633 S   0  0  0  0  0  0  0  0  0  0  0  0
   -0.9833    0.8539    1.9570 O   0  0  0  0  0  0  0  0  0  0  0  0
   -0.2610    1.7540    2.3494 C   0  0  0  0  0  0  0  0  0  0  0  0
   -0.3126    3.1016    1.7987 C   0  0  0  0  0  0  0  0  0  0  0  0
   -1.6718   -1.0480    4.0257 C   0  0  0  0  0  0  0  0  0  0  0  0
   -2.0214   -0.4660    4.8735 H   0  0  0  0  0  0  0  0  0  0  0  0
   -1.8238   -2.1081    4.2281 H   0  0  0  0  0  0  0  0  0  0  0  0
   -2.2365   -0.7560    3.1449 H   0  0  0  0  0  0  0  0  0  0  0  0
    0.5609    4.0684    2.3126 C   0  0  0  0  0  0  0  0  0  0  0  0
   -0.3553    5.6850    0.7991 C   0  0  0  0  0  0  0  0  0  0  0  0
   -0.3770    6.6908    0.4047 H   0  0  0  0  0  0  0  0  0  0  0  0
    4.1262    2.0938    2.5184 C   0  0  0  0  0  0  0  0  0  0  0  0
    3.8570    3.0455    2.0648 H   0  0  0  0  0  0  0  0  0  0  0  0
    4.9787    1.6580    1.9970 H   0  0  0  0  0  0  0  0  0  0  0  0
    4.3754    2.2599    3.5657 H   0  0  0  0  0  0  0  0  0  0  0  0
    0.4187    3.4906    6.3959 C   0  0  0  0  0  0  0  0  0  0  0  0
    1.4654    3.3004    6.6288 H   0  0  0  0  0  0  0  0  0  0  0  0
   -0.1554    3.5898    7.3173 H   0  0  0  0  0  0  0  0  0  0  0  0
    0.3473    4.4052    5.8111 H   0  0  0  0  0  0  0  0  0  0  0  0
    2.4430    0.8729    0.6229 C   0  0  0  0  0  0  0  0  0  0  0  0
    1.6854    0.1302    0.3825 H   0  0  0  0  0  0  0  0  0  0  0  0
    3.3711    0.6380    0.1026 H   0  0  0  0  0  0  0  0  0  0  0  0
    2.0825    1.8489    0.2990 H   0  0  0  0  0  0  0  0  0  0  0  0
   -1.9292    2.6734    5.0840 C   0  0  0  0  0  0  0  0  0  0  0  0
   -1.8539    3.5362    4.4221 H   0  0  0  0  0  0  0  0  0  0  0  0
   -2.4337    2.9657    6.0044 H   0  0  0  0  0  0  0  0  0  0  0  0
   -2.5035    1.9021    4.5749 H   0  0  0  0  0  0  0  0  0  0  0  0
    0.8619   -1.9272    4.9026 C   0  0  0  0  0  0  0  0  0  0  0  0
    1.9389   -1.9574    4.7583 H   0  0  0  0  0  0  0  0  0  0  0  0
    0.4430   -2.9269    4.7869 H   0  0  0  0  0  0  0  0  0  0  0  0
    0.6828   -1.5656    5.9118 H   0  0  0  0  0  0  0  0  0  0  0  0
   -1.2068    3.4416    0.7801 C   0  0  0  0  0  0  0  0  0  0  0  0
   -1.8711    2.6796    0.3991 H   0  0  0  0  0  0  0  0  0  0  0  0
    0.5323    5.3681    1.8032 C   0  0  0  0  0  0  0  0  0  0  0  0
    1.2091    6.1059    2.2059 H   0  0  0  0  0  0  0  0  0  0  0  0
   -1.2267    4.7257    0.2838 C   0  0  0  0  0  0  0  0  0  0  0  0
   -1.9155    4.9928   -0.5037 H   0  0  0  0  0  0  0  0  0  0  0  0
    0.2232   -1.7997    2.1715 C   0  0  0  0  0  0  0  0  0  0  0  0
   -0.3399   -1.3174    1.3777 H   0  0  0  0  0  0  0  0  0  0  0  0
   -0.2171   -2.7724    2.3911 H   0  0  0  0  0  0  0  0  0  0  0  0
    1.2514   -1.9375    1.8496 H   0  0  0  0  0  0  0  0  0  0  0  0
    3.6616   -0.6128    2.7405 C   0  0  0  0  0  0  0  0  0  0  0  0
    4.0989   -0.5325    3.7346 H   0  0  0  0  0  0  0  0  0  0  0  0
    4.4503   -0.6987    1.9927 H   0  0  0  0  0  0  0  0  0  0  0  0
    3.0298   -1.4950    2.7045 H   0  0  0  0  0  0  0  0  0  0  0  0
   -0.4982    0.9344    6.8540 C   0  0  0  0  0  0  0  0  0  0  0  0
   -0.9463   -0.0067    6.5502 H   0  0  0  0  0  0  0  0  0  0  0  0
   -1.1423    1.4243    7.5847 H   0  0  0  0  0  0  0  0  0  0  0  0
    0.4782    0.7376    7.2946 H   0  0  0  0  0  0  0  0  0  0  0  0
  1  2  1  0  0  0  0
  1  5  1  0  0  0  0
  3  1  1  0  0  0  0
  3 10  1  0  0  0  0
  3 33  1  0  0  0  0
  4 17  1  0  0  0  0
  4 47  1  0  0  0  0
  4  1  1  0  0  0  0
  5 21  1  0  0  0  0
  5 51  1  0  0  0  0
  6  1  1  0  0  0  0
  7  8  2  0  0  0  0
  8  1  1  0  0  0  0
  9 14  1  0  0  0  0
  9  8  1  0  0  0  0
 10 12  1  0  0  0  0
 10 11  1  0  0  0  0
 13 10  1  0  0  0  0
 14  6  1  0  0  0  0
 15 39  1  0  0  0  0
 16 15  1  0  0  0  0
 17 20  1  0  0  0  0
 18 17  1  0  0  0  0
 19 17  1  0  0  0  0
 21 22  1  0  0  0  0
 21 23  1  0  0  0  0
 24 21  1  0  0  0  0
 25  4  1  0  0  0  0
 26 25  1  0  0  0  0
 27 25  1  0  0  0  0
 28 25  1  0  0  0  0
 29  5  1  0  0  0  0
 29 31  1  0  0  0  0
 30 29  1  0  0  0  0
 32 29  1  0  0  0  0
 33 36  1  0  0  0  0
 34 33  1  0  0  0  0
 35 33  1  0  0  0  0
 37  9  2  0  0  0  0
 38 37  1  0  0  0  0
 39 40  1  0  0  0  0
 39 14  2  0  0  0  0
 41 37  1  0  0  0  0
 41 15  2  0  0  0  0
 42 41  1  0  0  0  0
 43 45  1  0  0  0  0
 43  3  1  0  0  0  0
 44 43  1  0  0  0  0
 46 43  1  0  0  0  0
 47 48  1  0  0  0  0
 49 47  1  0  0  0  0
 50 47  1  0  0  0  0
 51 54  1  0  0  0  0
 51 53  1  0  0  0  0
 52 51  1  0  0  0  0
M  END
$$$$
