CSD_code = KISPAF | q = 0 | S = 0 | Stoichiometry = C14H22CoIO2P2S | MND = 6
 OpenBabel04212202063D

 43 44  0  0  0  0  0  0  0  0999 V2000
   16.2036    2.0701   11.6203 Co  0  0  0  0  0  0  0  0  0  0  0  0
   17.3160    3.3239   13.0718 P   0  0  0  0  0  4  0  0  0  0  0  0
   13.9826    2.4177   13.0081 I   0  0  0  0  0  0  0  0  0  0  0  0
   16.9628    0.2741   12.8262 S   0  0  0  0  0  0  0  0  0  0  0  0
   15.2719    0.5333   10.3289 P   0  0  0  0  0  4  0  0  0  0  0  0
   17.9181    2.7049    9.5756 O   0  0  0  0  0  0  0  0  0  0  0  0
   16.8495    5.0898   13.0446 C   0  0  0  0  0  0  0  0  0  0  0  0
   15.7819    5.1875   13.2438 H   0  0  0  0  0  0  0  0  0  0  0  0
   17.0727    5.5141   12.0655 H   0  0  0  0  0  0  0  0  0  0  0  0
   17.4106    5.6260   13.8110 H   0  0  0  0  0  0  0  0  0  0  0  0
   17.7757    1.9575   10.5126 C   0  0  0  0  0  0  0  0  0  0  0  0
   18.7277    0.9325   10.9089 C   0  0  0  0  0  0  0  0  0  0  0  0
   18.4488    0.0814   11.9887 C   0  0  0  0  0  0  0  0  0  0  0  0
   16.3513   -0.5596    9.3361 C   0  0  0  0  0  0  0  0  0  0  0  0
   16.9782   -1.1635    9.9919 H   0  0  0  0  0  0  0  0  0  0  0  0
   16.9866    0.0371    8.6825 H   0  0  0  0  0  0  0  0  0  0  0  0
   15.7222   -1.2146    8.7320 H   0  0  0  0  0  0  0  0  0  0  0  0
   19.1342    3.4413   12.9060 C   0  0  0  0  0  0  0  0  0  0  0  0
   19.5122    4.1498   13.6440 H   0  0  0  0  0  0  0  0  0  0  0  0
   19.3917    3.7854   11.9046 H   0  0  0  0  0  0  0  0  0  0  0  0
   19.5885    2.4650   13.0748 H   0  0  0  0  0  0  0  0  0  0  0  0
   19.3758   -0.8989   12.3524 C   0  0  0  0  0  0  0  0  0  0  0  0
   19.1498   -1.5492   13.1840 H   0  0  0  0  0  0  0  0  0  0  0  0
   20.5543   -1.0182   11.6524 C   0  0  0  0  0  0  0  0  0  0  0  0
   21.2699   -1.7749   11.9386 H   0  0  0  0  0  0  0  0  0  0  0  0
   17.1495    2.9335   14.8448 C   0  0  0  0  0  0  0  0  0  0  0  0
   17.4973    1.9186   15.0343 H   0  0  0  0  0  0  0  0  0  0  0  0
   16.1043    3.0093   15.1412 H   0  0  0  0  0  0  0  0  0  0  0  0
   17.7492    3.6460   15.4128 H   0  0  0  0  0  0  0  0  0  0  0  0
   14.1727   -0.6813   11.1281 C   0  0  0  0  0  0  0  0  0  0  0  0
   13.2968   -0.1728   11.5279 H   0  0  0  0  0  0  0  0  0  0  0  0
   14.6978   -1.1730   11.9465 H   0  0  0  0  0  0  0  0  0  0  0  0
   13.8679   -1.4175   10.3834 H   0  0  0  0  0  0  0  0  0  0  0  0
   15.1419    4.3287   10.1422 O   0  0  0  0  0  1  0  0  0  0  0  0
   19.9309    0.7919   10.2067 C   0  0  0  0  0  0  0  0  0  0  0  0
   20.1230    1.4584    9.3784 H   0  0  0  0  0  0  0  0  0  0  0  0
   20.8367   -0.1739   10.5776 C   0  0  0  0  0  0  0  0  0  0  0  0
   21.7660   -0.2804   10.0391 H   0  0  0  0  0  0  0  0  0  0  0  0
   14.1802    1.2160    9.0328 C   0  0  0  0  0  0  0  0  0  0  0  0
   13.7303    0.4020    8.4630 H   0  0  0  0  0  0  0  0  0  0  0  0
   14.7600    1.8543    8.3656 H   0  0  0  0  0  0  0  0  0  0  0  0
   13.3927    1.8080    9.5008 H   0  0  0  0  0  0  0  0  0  0  0  0
   15.5744    3.4420   10.7131 C   0  0  0  0  0  2  0  0  0  0  0  0
  1  4  1  0  0  0  0
  1  3  1  0  0  0  0
  1  2  1  0  0  0  0
  2 26  1  0  0  0  0
  5 30  1  0  0  0  0
  5  1  1  0  0  0  0
  6 11  2  0  0  0  0
  7  2  1  0  0  0  0
  7  8  1  0  0  0  0
  7 10  1  0  0  0  0
  9  7  1  0  0  0  0
 11 12  1  0  0  0  0
 11  1  1  0  0  0  0
 12 13  1  0  0  0  0
 13 22  2  0  0  0  0
 13  4  1  0  0  0  0
 14 15  1  0  0  0  0
 14  5  1  0  0  0  0
 16 14  1  0  0  0  0
 17 14  1  0  0  0  0
 18  2  1  0  0  0  0
 18 21  1  0  0  0  0
 18 19  1  0  0  0  0
 20 18  1  0  0  0  0
 22 23  1  0  0  0  0
 24 25  1  0  0  0  0
 24 22  1  0  0  0  0
 26 27  1  0  0  0  0
 26 28  1  0  0  0  0
 26 29  1  0  0  0  0
 30 31  1  0  0  0  0
 30 32  1  0  0  0  0
 33 30  1  0  0  0  0
 34 43  1  0  0  0  0
 35 37  1  0  0  0  0
 35 12  2  0  0  0  0
 36 35  1  0  0  0  0
 37 24  2  0  0  0  0
 38 37  1  0  0  0  0
 39 42  1  0  0  0  0
 39  5  1  0  0  0  0
 40 39  1  0  0  0  0
 41 39  1  0  0  0  0
 43  1  1  0  0  0  0
M  END
$$$$
