CSD_code = KITBIZ | q = 0 | S = 0 | Stoichiometry = C25H29B10ClNPPdS | MND = 4
 OpenBabel04212202063D

 69 79  0  0  1  0  0  0  0  0999 V2000
    3.8132    3.0969    2.9849 Pd  0  0  2  0  0  0  0  0  0  0  0  0
    4.4214    3.3380    0.7661 Cl  0  0  0  0  0  0  0  0  0  0  0  0
    3.0448    2.6359    5.1338 S   0  0  0  0  0  1  0  0  0  0  0  0
    3.7957    5.2829    3.3761 P   0  0  0  0  0  4  0  0  0  0  0  0
    1.7045    0.4846    3.5294 C   0  0  2  0  0  0  0  0  0  0  0  0
    1.5924    1.7240    4.5901 C   0  0  2  0  0  0  0  0  0  0  0  0
    0.9158    1.9384    3.0115 B   0  0  2  0  0  0  0  0  0  0  0  0
    1.5049    2.6310    2.2403 H   0  0  0  0  0  0  0  0  0  0  0  0
    0.2731    0.3491    2.5880 B   0  0  2  0  0  0  0  0  0  0  0  0
    0.4081   -0.0309    1.4836 H   0  0  0  0  0  0  0  0  0  0  0  0
    0.5441   -0.7571    3.9337 B   0  0  1  0  0  0  0  0  0  0  0  0
    0.8128   -1.8828    3.7362 H   0  0  0  0  0  0  0  0  0  0  0  0
    1.4319    0.1081    5.1822 B   0  0  1  0  0  0  0  0  0  0  0  0
    2.3547   -0.3205    5.7685 H   0  0  0  0  0  0  0  0  0  0  0  0
    0.0781    2.5257    4.4352 B   0  0  1  0  0  0  0  0  0  0  0  0
    0.0724    3.6797    4.6488 H   0  0  0  0  0  0  0  0  0  0  0  0
   -0.8061    1.6516    3.1593 B   0  0  1  0  0  0  0  0  0  0  0  0
   -1.5619    2.1963    2.4437 H   0  0  0  0  0  0  0  0  0  0  0  0
   -1.0442   -0.0184    3.7365 B   0  0  2  0  0  0  0  0  0  0  0  0
   -1.9723   -0.6616    3.4118 H   0  0  0  0  0  0  0  0  0  0  0  0
   -0.3048   -0.1674    5.3637 B   0  0  0  0  0  0  0  0  0  0  0  0
   -0.7105   -0.9011    6.1866 H   0  0  0  0  0  0  0  0  0  0  0  0
    0.3956    1.4109    5.7687 B   0  0  1  0  0  0  0  0  0  0  0  0
    0.5939    1.8443    6.8410 H   0  0  0  0  0  0  0  0  0  0  0  0
   -1.1494    1.3340    4.8872 B   0  0  1  0  0  0  0  0  0  0  0  0
   -2.1568    1.6646    5.3935 H   0  0  0  0  0  0  0  0  0  0  0  0
    3.0224    0.1261    2.9476 C   0  0  1  0  0  3  0  0  0  0  0  0
    3.9790    1.0560    2.8150 N   0  0  0  0  0  0  0  0  0  0  0  0
    5.1936    0.7174    2.3816 C   0  0  0  0  0  0  0  0  0  0  0  0
    5.9284    1.5194    2.3258 H   0  0  0  0  0  0  0  0  0  0  0  0
    5.5205   -0.5673    1.9995 C   0  0  0  0  0  0  0  0  0  0  0  0
    6.5137   -0.7961    1.6497 H   0  0  0  0  0  0  0  0  0  0  0  0
    4.5273   -1.5347    2.0566 C   0  0  0  0  0  0  0  0  0  0  0  0
    4.7215   -2.5463    1.7344 H   0  0  0  0  0  0  0  0  0  0  0  0
    3.2835   -1.1881    2.5421 C   0  0  0  0  0  0  0  0  0  0  0  0
    2.5064   -1.9293    2.6014 H   0  0  0  0  0  0  0  0  0  0  0  0
    4.4076    6.4733    2.1437 C   0  0  0  0  0  0  0  0  0  0  0  0
    5.6769    6.2113    1.6348 C   0  0  0  0  0  0  0  0  0  0  0  0
    6.1995    5.3182    1.9575 H   0  0  0  0  0  0  0  0  0  0  0  0
    6.2446    7.0678    0.7127 C   0  0  0  0  0  0  0  0  0  0  0  0
    7.2246    6.8578    0.3109 H   0  0  0  0  0  0  0  0  0  0  0  0
    5.5494    8.1932    0.2973 C   0  0  0  0  0  0  0  0  0  0  0  0
    5.9887    8.8613   -0.4288 H   0  0  0  0  0  0  0  0  0  0  0  0
    4.2909    8.4602    0.8085 C   0  0  0  0  0  0  0  0  0  0  0  0
    3.7506    9.3379    0.4846 H   0  0  0  0  0  0  0  0  0  0  0  0
    3.7157    7.6042    1.7325 C   0  0  0  0  0  0  0  0  0  0  0  0
    2.7313    7.8147    2.1267 H   0  0  0  0  0  0  0  0  0  0  0  0
    4.9305    5.6819    4.7404 C   0  0  0  0  0  0  0  0  0  0  0  0
    5.8310    4.7010    5.1436 C   0  0  0  0  0  0  0  0  0  0  0  0
    5.7942    3.7148    4.6689 H   0  0  0  0  0  0  0  0  0  0  0  0
    6.7557    4.9736    6.1355 C   0  0  0  0  0  0  0  0  0  0  0  0
    7.4510    4.2108    6.4534 H   0  0  0  0  0  0  0  0  0  0  0  0
    6.7878    6.2287    6.7211 C   0  0  0  0  0  0  0  0  0  0  0  0
    7.5054    6.4416    7.4996 H   0  0  0  0  0  0  0  0  0  0  0  0
    5.9080    7.2159    6.3050 C   0  0  0  0  0  0  0  0  0  0  0  0
    5.9455    8.1969    6.7556 H   0  0  0  0  0  0  0  0  0  0  0  0
    4.9854    6.9498    5.3101 C   0  0  0  0  0  0  0  0  0  0  0  0
    4.3089    7.7209    4.9677 H   0  0  0  0  0  0  0  0  0  0  0  0
    2.1385    5.8679    3.8147 C   0  0  0  0  0  0  0  0  0  0  0  0
    1.7495    6.2580    5.0894 C   0  0  0  0  0  0  0  0  0  0  0  0
    2.4693    6.2696    5.8948 H   0  0  0  0  0  0  0  0  0  0  0  0
    0.4311    6.6112    5.3235 C   0  0  0  0  0  0  0  0  0  0  0  0
    0.1271    6.9140    6.3145 H   0  0  0  0  0  0  0  0  0  0  0  0
   -0.4988    6.5659    4.2981 C   0  0  0  0  0  0  0  0  0  0  0  0
   -1.5253    6.8397    4.4897 H   0  0  0  0  0  0  0  0  0  0  0  0
   -0.1201    6.1466    3.0315 C   0  0  0  0  0  0  0  0  0  0  0  0
   -0.8508    6.0872    2.2392 H   0  0  0  0  0  0  0  0  0  0  0  0
    1.1924    5.7898    2.7916 C   0  0  0  0  0  0  0  0  0  0  0  0
    1.5050    5.4410    1.8127 H   0  0  0  0  0  0  0  0  0  0  0  0
  1  2  1  6  0  0  0
  1  4  1  0  0  0  0
  1  3  1  0  0  0  0
  4 59  1  0  0  0  0
  4 48  1  0  0  0  0
  5 27  1  6  0  0  0
  5  6  1  0  0  0  0
  5 13  1  0  0  0  0
  6 13  1  0  0  0  0
  6 23  1  0  0  0  0
  7 17  1  0  0  0  0
  7 15  1  0  0  0  0
  8  7  1  0  0  0  0
  9  7  1  0  0  0  0
  9  5  1  0  0  0  0
  9 11  1  0  0  0  0
 10  9  1  0  0  0  0
 11 13  1  0  0  0  0
 12 11  1  0  0  0  0
 13 14  1  0  0  0  0
 15  6  1  0  0  0  0
 15 16  1  0  0  0  0
 15 23  1  0  0  0  0
 17 19  1  0  0  0  0
 17 25  1  0  0  0  0
 18 17  1  0  0  0  0
 19 11  1  0  0  0  0
 19 25  1  0  0  0  0
 20 19  1  0  0  0  0
 21 23  1  0  0  0  0
 21 22  1  0  0  0  0
 23 24  1  0  0  0  0
 25 21  1  0  0  0  0
 25 26  1  0  0  0  0
 28 27  1  0  0  0  0
 28  1  1  0  0  0  0
 29 28  1  0  0  0  0
 30 29  1  0  0  0  0
 31 33  1  0  0  0  0
 31 29  2  0  0  0  0
 32 31  1  0  0  0  0
 33 35  2  0  0  0  0
 34 33  1  0  0  0  0
 35 36  1  0  0  0  0
 35 27  1  0  0  0  0
 37  4  1  0  0  0  0
 38 39  1  0  0  0  0
 38 37  2  0  0  0  0
 40 38  1  0  0  0  0
 41 40  1  0  0  0  0
 42 40  2  0  0  0  0
 42 44  1  0  0  0  0
 43 42  1  0  0  0  0
 44 46  2  0  0  0  0
 45 44  1  0  0  0  0
 46 47  1  0  0  0  0
 46 37  1  0  0  0  0
 48 49  2  0  0  0  0
 48 57  1  0  0  0  0
 49 51  1  0  0  0  0
 50 49  1  0  0  0  0
 51 52  1  0  0  0  0
 51 53  2  0  0  0  0
 53 54  1  0  0  0  0
 55 53  1  0  0  0  0
 55 56  1  0  0  0  0
 57 55  2  0  0  0  0
 58 57  1  0  0  0  0
 59 60  1  0  0  0  0
 60 62  2  0  0  0  0
 60 61  1  0  0  0  0
 62 63  1  0  0  0  0
 64 65  1  0  0  0  0
 64 62  1  0  0  0  0
 66 64  2  0  0  0  0
 67 66  1  0  0  0  0
 68 66  1  0  0  0  0
 68 59  2  0  0  0  0
 69 68  1  0  0  0  0
M  END
$$$$
