CSD_code = KITLOR | q = 0 | S = 0 | Stoichiometry = C16H16CdI2N4Se | MND = 4
 OpenBabel04212202063D

 40 42  0  0  1  0  0  0  0  0999 V2000
   -5.6182   -6.0586   11.3541 Cd  0  0  0  0  0  0  0  0  0  0  0  0
   -7.8576   -7.4163   11.8940 I   0  0  0  0  0  0  0  0  0  0  0  0
   -3.4728   -6.3617    9.7407 I   0  0  0  0  0  0  0  0  0  0  0  0
   -5.8930   -3.0073   11.9251 Se  0  0  0  0  0  1  0  0  0  0  0  0
   -4.3523   -6.2374   13.4491 N   0  0  0  0  0  0  0  0  0  0  0  0
   -2.7469   -6.8026   14.8796 N   0  0  0  0  0  0  0  0  0  0  0  0
   -4.4640   -3.2095   14.3301 N   0  0  0  0  0  0  0  0  0  0  0  0
   -5.3241   -3.2373   14.8557 H   0  0  0  0  0  0  0  0  0  0  0  0
   -3.1231   -3.1592   12.5937 N   0  0  0  0  0  0  0  0  0  0  0  0
   -3.1094   -6.6208   13.5946 C   0  0  0  0  0  3  0  0  0  0  0  0
   -2.4270   -6.7806   12.7788 H   0  0  0  0  0  0  0  0  0  0  0  0
   -4.8663   -6.1614   14.7250 C   0  0  0  0  0  0  0  0  0  0  0  0
   -6.1317   -5.7912   15.1728 C   0  0  0  0  0  0  0  0  0  0  0  0
   -6.9156   -5.5271   14.4781 H   0  0  0  0  0  0  0  0  0  0  0  0
   -6.3441   -5.7902   16.5346 C   0  0  0  0  0  0  0  0  0  0  0  0
   -7.3149   -5.5156   16.9176 H   0  0  0  0  0  0  0  0  0  0  0  0
   -5.3368   -6.1446   17.4372 C   0  0  0  0  0  0  0  0  0  0  0  0
   -5.5552   -6.1327   18.4941 H   0  0  0  0  0  0  0  0  0  0  0  0
   -4.0773   -6.5120   17.0113 C   0  0  0  0  0  0  0  0  0  0  0  0
   -3.3019   -6.7868   17.7092 H   0  0  0  0  0  0  0  0  0  0  0  0
   -3.8536   -6.5134   15.6419 C   0  0  0  0  0  0  0  0  0  0  0  0
   -1.4642   -7.2190   15.3683 C   0  0  0  0  0  0  0  0  0  0  0  0
   -0.8020   -7.4068   14.5258 H   0  0  0  0  0  0  0  0  0  0  0  0
   -1.5651   -8.1337   15.9553 H   0  0  0  0  0  0  0  0  0  0  0  0
   -1.0321   -6.4382   15.9975 H   0  0  0  0  0  0  0  0  0  0  0  0
   -4.4195   -3.1302   12.9762 C   0  0  2  0  0  3  0  0  0  0  0  0
   -3.1925   -3.3494   14.8264 C   0  0  0  0  0  0  0  0  0  0  0  0
   -2.7037   -3.5099   16.1109 C   0  0  0  0  0  0  0  0  0  0  0  0
   -3.3657   -3.5348   16.9614 H   0  0  0  0  0  0  0  0  0  0  0  0
   -1.3321   -3.6412   16.2487 C   0  0  0  0  0  0  0  0  0  0  0  0
   -0.9123   -3.7661   17.2351 H   0  0  0  0  0  0  0  0  0  0  0  0
   -0.4810   -3.6112   15.1464 C   0  0  0  0  0  0  0  0  0  0  0  0
    0.5816   -3.7178   15.3003 H   0  0  0  0  0  0  0  0  0  0  0  0
   -0.9629   -3.4459   13.8594 C   0  0  0  0  0  0  0  0  0  0  0  0
   -0.3009   -3.4212   13.0094 H   0  0  0  0  0  0  0  0  0  0  0  0
   -2.3347   -3.3152   13.7119 C   0  0  0  0  0  0  0  0  0  0  0  0
   -2.6264   -2.9910   11.2561 C   0  0  0  0  0  0  0  0  0  0  0  0
   -3.4692   -2.9152   10.5700 H   0  0  0  0  0  0  0  0  0  0  0  0
   -2.0099   -3.8424   10.9679 H   0  0  0  0  0  0  0  0  0  0  0  0
   -2.0339   -2.0769   11.1927 H   0  0  0  0  0  0  0  0  0  0  0  0
  1  2  1  0  0  0  0
  1  5  1  0  0  0  0
  3  1  1  0  0  0  0
  5 10  1  0  0  0  0
  5 12  1  0  0  0  0
  6 22  1  0  0  0  0
  6 21  1  0  0  0  0
  7 27  1  0  0  0  0
  7  8  1  0  0  0  0
  9 26  1  0  0  0  0
  9 36  1  0  0  0  0
 10  6  1  0  0  0  0
 11 10  1  0  0  0  0
 12 13  2  0  0  0  0
 12 21  1  0  0  0  0
 13 15  1  0  0  0  0
 14 13  1  0  0  0  0
 15 16  1  0  0  0  0
 15 17  2  0  0  0  0
 17 18  1  0  0  0  0
 19 17  1  0  0  0  0
 19 20  1  0  0  0  0
 21 19  2  0  0  0  0
 22 24  1  0  0  0  0
 22 25  1  0  0  0  0
 23 22  1  0  0  0  0
 26  4  1  1  0  0  0
 26  7  1  0  0  0  0
 27 28  1  0  0  0  0
 28 30  2  0  0  0  0
 28 29  1  0  0  0  0
 30 31  1  0  0  0  0
 32 33  1  0  0  0  0
 32 30  1  0  0  0  0
 34 32  2  0  0  0  0
 35 34  1  0  0  0  0
 36 34  1  0  0  0  0
 36 27  2  0  0  0  0
 37  9  1  0  0  0  0
 38 37  1  0  0  0  0
 39 37  1  0  0  0  0
 40 37  1  0  0  0  0
M  END
$$$$
