CSD_code = KITNAF | q = 0 | S = 0 | Stoichiometry = C22H18Cl2N4Zn | MND = 4
 OpenBabel04212202063D

 47 52  0  0  1  0  0  0  0  0999 V2000
   11.2102    2.0035    0.8977 Zn  0  0  0  0  0  0  0  0  0  0  0  0
    9.6672    2.0670    2.4826 Cl  0  0  0  0  0  0  0  0  0  0  0  0
   12.2022    3.6614   -0.1371 Cl  0  0  0  0  0  0  0  0  0  0  0  0
   13.2940   -1.3547    2.3130 N   0  0  0  0  0  0  0  0  0  0  0  0
   10.5707    0.5806   -0.4795 N   0  0  0  0  0  0  0  0  0  0  0  0
   12.6171    0.5995    1.5138 N   0  0  0  0  0  0  0  0  0  0  0  0
    9.7670   -1.3856   -1.1152 N   0  0  0  0  0  0  0  0  0  0  0  0
    9.8446   -0.9298    1.3239 C   0  0  0  0  0  0  0  0  0  0  0  0
   10.5770    0.5491   -1.8504 C   0  0  0  0  0  0  0  0  0  0  0  0
   12.2357   -0.5551    2.0114 C   0  0  2  0  0  3  0  0  0  0  0  0
   10.0915   -0.5734   -0.0734 C   0  0  2  0  0  3  0  0  0  0  0  0
   10.8493   -0.9227    2.2998 C   0  0  0  0  0  0  0  0  0  0  0  0
    9.2579   -2.7278   -1.0688 C   0  0  0  0  0  0  0  0  0  0  0  0
    9.3037   -3.1041   -0.0484 H   0  0  0  0  0  0  0  0  0  0  0  0
    9.8584   -3.3684   -1.7176 H   0  0  0  0  0  0  0  0  0  0  0  0
    8.2216   -2.7566   -1.4139 H   0  0  0  0  0  0  0  0  0  0  0  0
   13.9876    0.5821    1.4718 C   0  0  0  0  0  0  0  0  0  0  0  0
   10.0676   -0.6962   -2.2685 C   0  0  0  0  0  0  0  0  0  0  0  0
    8.5434   -1.2665    1.6912 C   0  0  0  0  0  0  0  0  0  0  0  0
    7.7630   -1.2362    0.9455 H   0  0  0  0  0  0  0  0  0  0  0  0
   14.4318   -0.6554    1.9783 C   0  0  0  0  0  0  0  0  0  0  0  0
   10.5223   -1.2535    3.6132 C   0  0  0  0  0  0  0  0  0  0  0  0
   11.2900   -1.2133    4.3715 H   0  0  0  0  0  0  0  0  0  0  0  0
   10.9868    1.5021   -2.7762 C   0  0  0  0  0  0  0  0  0  0  0  0
   11.3829    2.4489   -2.4459 H   0  0  0  0  0  0  0  0  0  0  0  0
   10.8654    1.1711   -4.1090 C   0  0  0  0  0  0  0  0  0  0  0  0
   11.1693    1.8831   -4.8608 H   0  0  0  0  0  0  0  0  0  0  0  0
   13.2743   -2.6917    2.8371 C   0  0  0  0  0  0  0  0  0  0  0  0
   13.6242   -2.7037    3.8722 H   0  0  0  0  0  0  0  0  0  0  0  0
   13.9319   -3.3264    2.2402 H   0  0  0  0  0  0  0  0  0  0  0  0
   12.2606   -3.0874    2.7999 H   0  0  0  0  0  0  0  0  0  0  0  0
   14.8922    1.5426    1.0334 C   0  0  0  0  0  0  0  0  0  0  0  0
   14.5420    2.4837    0.6408 H   0  0  0  0  0  0  0  0  0  0  0  0
    9.9493   -1.0213   -3.6119 C   0  0  0  0  0  0  0  0  0  0  0  0
    9.5546   -1.9728   -3.9338 H   0  0  0  0  0  0  0  0  0  0  0  0
    8.2323   -1.5796    3.0001 C   0  0  0  0  0  0  0  0  0  0  0  0
    7.2132   -1.8096    3.2695 H   0  0  0  0  0  0  0  0  0  0  0  0
   10.3555   -0.0641   -4.5196 C   0  0  0  0  0  0  0  0  0  0  0  0
   10.2765   -0.2739   -5.5757 H   0  0  0  0  0  0  0  0  0  0  0  0
   15.7814   -0.9651    2.0645 C   0  0  0  0  0  0  0  0  0  0  0  0
   16.1238   -1.9106    2.4566 H   0  0  0  0  0  0  0  0  0  0  0  0
   16.6680   -0.0003    1.6306 C   0  0  0  0  0  0  0  0  0  0  0  0
   17.7280   -0.1984    1.6838 H   0  0  0  0  0  0  0  0  0  0  0  0
   16.2312    1.2271    1.1238 C   0  0  0  0  0  0  0  0  0  0  0  0
   16.9674    1.9456    0.7980 H   0  0  0  0  0  0  0  0  0  0  0  0
    9.2253   -1.5733    3.9643 C   0  0  0  0  0  0  0  0  0  0  0  0
    8.9876   -1.7991    4.9922 H   0  0  0  0  0  0  0  0  0  0  0  0
  1  6  1  0  0  0  0
  1  2  1  0  0  0  0
  3  1  1  0  0  0  0
  4 28  1  0  0  0  0
  5 11  1  0  0  0  0
  5  1  1  0  0  0  0
  6 10  1  0  0  0  0
  7 13  1  0  0  0  0
  7 11  1  0  0  0  0
  8 19  2  0  0  0  0
  8 12  1  0  0  0  0
  9  5  1  0  0  0  0
 10 12  1  1  0  0  0
 10  4  1  0  0  0  0
 11  8  1  6  0  0  0
 12 22  2  0  0  0  0
 13 14  1  0  0  0  0
 15 13  1  0  0  0  0
 16 13  1  0  0  0  0
 17  6  1  0  0  0  0
 17 21  1  0  0  0  0
 18  9  1  0  0  0  0
 18  7  1  0  0  0  0
 19 36  1  0  0  0  0
 20 19  1  0  0  0  0
 21 40  2  0  0  0  0
 21  4  1  0  0  0  0
 22 46  1  0  0  0  0
 22 23  1  0  0  0  0
 24 25  1  0  0  0  0
 24  9  2  0  0  0  0
 26 24  1  0  0  0  0
 27 26  1  0  0  0  0
 28 29  1  0  0  0  0
 30 28  1  0  0  0  0
 31 28  1  0  0  0  0
 32 44  1  0  0  0  0
 32 17  2  0  0  0  0
 33 32  1  0  0  0  0
 34 18  2  0  0  0  0
 35 34  1  0  0  0  0
 36 37  1  0  0  0  0
 36 46  2  0  0  0  0
 38 26  2  0  0  0  0
 38 34  1  0  0  0  0
 39 38  1  0  0  0  0
 40 41  1  0  0  0  0
 42 43  1  0  0  0  0
 42 40  1  0  0  0  0
 44 42  2  0  0  0  0
 45 44  1  0  0  0  0
 46 47  1  0  0  0  0
M  END
$$$$
