CSD_code = KITNEJ | q = 0 | S = 0 | Stoichiometry = C28H31ClNP2Rh | MND = 6
 OpenBabel04212202063D

 64 69  0  0  0  0  0  0  0  0999 V2000
    3.8757   13.4674    8.9473 Rh  0  0  0  0  0  0  0  0  0  0  0  0
    1.9719   12.1841    8.2250 Cl  0  0  0  0  0  0  0  0  0  0  0  0
    4.8691   11.6708    9.8431 P   0  0  0  0  0  4  0  0  0  0  0  0
    3.0743   15.0629    7.5964 P   0  0  0  0  0  4  0  0  0  0  0  0
    4.6954   12.6612    7.0722 N   0  0  0  0  0  4  0  0  0  0  0  0
    5.8754   11.8206    7.2477 C   0  0  0  0  0  0  0  0  0  0  0  0
    6.7184   12.4681    7.5143 H   0  0  0  0  0  0  0  0  0  0  0  0
    6.1281   11.2951    6.3116 H   0  0  0  0  0  0  0  0  0  0  0  0
    5.6029   10.8058    8.3569 C   0  0  0  0  0  0  0  0  0  0  0  0
    6.5065   10.2506    8.6171 H   0  0  0  0  0  0  0  0  0  0  0  0
    4.8397   10.0948    8.0205 H   0  0  0  0  0  0  0  0  0  0  0  0
    6.2706   11.8342   10.9951 C   0  0  0  0  0  0  0  0  0  0  0  0
    7.5773   12.0319   10.5678 C   0  0  0  0  0  0  0  0  0  0  0  0
    7.8069   12.0590    9.5122 H   0  0  0  0  0  0  0  0  0  0  0  0
    8.5937   12.2002   11.4913 C   0  0  0  0  0  0  0  0  0  0  0  0
    9.6088   12.3472   11.1515 H   0  0  0  0  0  0  0  0  0  0  0  0
    8.3129   12.1854   12.8470 C   0  0  0  0  0  0  0  0  0  0  0  0
    9.1088   12.3162   13.5651 H   0  0  0  0  0  0  0  0  0  0  0  0
    7.0080   12.0126   13.2793 C   0  0  0  0  0  0  0  0  0  0  0  0
    6.7840   12.0119   14.3361 H   0  0  0  0  0  0  0  0  0  0  0  0
    5.9916   11.8433   12.3588 C   0  0  0  0  0  0  0  0  0  0  0  0
    4.9692   11.7151   12.6882 H   0  0  0  0  0  0  0  0  0  0  0  0
    3.9825   10.2944   10.6419 C   0  0  0  0  0  0  0  0  0  0  0  0
    2.6699   10.4721   11.0571 C   0  0  0  0  0  0  0  0  0  0  0  0
    2.1866   11.4231   10.8818 H   0  0  0  0  0  0  0  0  0  0  0  0
    1.9912    9.4340   11.6717 C   0  0  0  0  0  0  0  0  0  0  0  0
    0.9676    9.5722   11.9875 H   0  0  0  0  0  0  0  0  0  0  0  0
    2.6232    8.2199   11.8780 C   0  0  0  0  0  0  0  0  0  0  0  0
    2.0938    7.4078   12.3549 H   0  0  0  0  0  0  0  0  0  0  0  0
    3.9388    8.0437   11.4765 C   0  0  0  0  0  0  0  0  0  0  0  0
    4.4333    7.0976   11.6446 H   0  0  0  0  0  0  0  0  0  0  0  0
    4.6203    9.0770   10.8627 C   0  0  0  0  0  0  0  0  0  0  0  0
    5.6505    8.9447   10.5605 H   0  0  0  0  0  0  0  0  0  0  0  0
    4.7826   13.6381    5.9901 C   0  0  0  0  0  0  0  0  0  0  0  0
    5.0054   13.1435    5.0302 H   0  0  0  0  0  0  0  0  0  0  0  0
    5.5962   14.3387    6.2160 H   0  0  0  0  0  0  0  0  0  0  0  0
    3.4572   14.3908    5.9040 C   0  0  0  0  0  0  0  0  0  0  0  0
    2.6459   13.6942    5.6653 H   0  0  0  0  0  0  0  0  0  0  0  0
    3.4962   15.1593    5.1317 H   0  0  0  0  0  0  0  0  0  0  0  0
    3.7502   16.7607    7.6224 C   0  0  0  0  0  0  0  0  0  0  0  0
    4.0428   17.5370    6.5090 C   0  0  0  0  0  0  0  0  0  0  0  0
    3.9295   17.1443    5.5089 H   0  0  0  0  0  0  0  0  0  0  0  0
    4.4965   18.8353    6.6680 C   0  0  0  0  0  0  0  0  0  0  0  0
    4.7282   19.4307    5.7963 H   0  0  0  0  0  0  0  0  0  0  0  0
    4.6525   19.3719    7.9341 C   0  0  0  0  0  0  0  0  0  0  0  0
    5.0049   20.3863    8.0503 H   0  0  0  0  0  0  0  0  0  0  0  0
    4.3594   18.6035    9.0495 C   0  0  0  0  0  0  0  0  0  0  0  0
    4.4826   19.0173   10.0394 H   0  0  0  0  0  0  0  0  0  0  0  0
    3.9140   17.3052    8.8931 C   0  0  0  0  0  0  0  0  0  0  0  0
    3.7002   16.6820    9.7523 H   0  0  0  0  0  0  0  0  0  0  0  0
    1.3031   15.4690    7.4766 C   0  0  0  0  0  0  0  0  0  0  0  0
    0.7653   16.0689    6.3432 C   0  0  0  0  0  0  0  0  0  0  0  0
    1.3948   16.2928    5.4940 H   0  0  0  0  0  0  0  0  0  0  0  0
   -0.5809   16.3803    6.3021 C   0  0  0  0  0  0  0  0  0  0  0  0
   -0.9993   16.8396    5.4178 H   0  0  0  0  0  0  0  0  0  0  0  0
   -1.3937   16.1037    7.3898 C   0  0  0  0  0  0  0  0  0  0  0  0
   -2.4461   16.3443    7.3498 H   0  0  0  0  0  0  0  0  0  0  0  0
   -0.8578   15.5184    8.5244 C   0  0  0  0  0  0  0  0  0  0  0  0
   -1.4910   15.3015    9.3720 H   0  0  0  0  0  0  0  0  0  0  0  0
    0.4885   15.2046    8.5698 C   0  0  0  0  0  0  0  0  0  0  0  0
    0.9199   14.7339    9.4432 H   0  0  0  0  0  0  0  0  0  0  0  0
    3.2692   13.9783   10.2329 H   0  0  0  0  0  0  0  0  0  0  0  0
    3.8960   12.0450    6.8671 H   0  0  0  0  0  0  0  0  0  0  0  0
    5.0942   14.2933    9.2912 H   0  0  0  0  0  0  0  0  0  0  0  0
  1 64  1  0  0  0  0
  1  3  1  0  0  0  0
  1 62  1  0  0  0  0
  2  1  1  0  0  0  0
  3 23  1  0  0  0  0
  3 12  1  0  0  0  0
  4 40  1  0  0  0  0
  4  1  1  0  0  0  0
  5  6  1  0  0  0  0
  5  1  1  0  0  0  0
  6  7  1  0  0  0  0
  6  9  1  0  0  0  0
  8  6  1  0  0  0  0
  9 10  1  0  0  0  0
  9  3  1  0  0  0  0
 11  9  1  0  0  0  0
 12 21  1  0  0  0  0
 13 12  2  0  0  0  0
 13 15  1  0  0  0  0
 14 13  1  0  0  0  0
 15 17  2  0  0  0  0
 16 15  1  0  0  0  0
 17 19  1  0  0  0  0
 17 18  1  0  0  0  0
 19 20  1  0  0  0  0
 21 22  1  0  0  0  0
 21 19  2  0  0  0  0
 23 32  2  0  0  0  0
 23 24  1  0  0  0  0
 24 26  2  0  0  0  0
 25 24  1  0  0  0  0
 26 28  1  0  0  0  0
 26 27  1  0  0  0  0
 28 29  1  0  0  0  0
 30 31  1  0  0  0  0
 30 28  2  0  0  0  0
 32 30  1  0  0  0  0
 33 32  1  0  0  0  0
 34 36  1  0  0  0  0
 34  5  1  0  0  0  0
 35 34  1  0  0  0  0
 37 34  1  0  0  0  0
 37  4  1  0  0  0  0
 38 37  1  0  0  0  0
 39 37  1  0  0  0  0
 40 49  1  0  0  0  0
 41 43  1  0  0  0  0
 41 40  2  0  0  0  0
 42 41  1  0  0  0  0
 43 45  2  0  0  0  0
 44 43  1  0  0  0  0
 45 46  1  0  0  0  0
 45 47  1  0  0  0  0
 47 48  1  0  0  0  0
 49 47  2  0  0  0  0
 49 50  1  0  0  0  0
 51  4  1  0  0  0  0
 51 60  1  0  0  0  0
 52 51  2  0  0  0  0
 53 52  1  0  0  0  0
 54 52  1  0  0  0  0
 54 56  2  0  0  0  0
 55 54  1  0  0  0  0
 56 58  1  0  0  0  0
 57 56  1  0  0  0  0
 58 60  2  0  0  0  0
 58 59  1  0  0  0  0
 60 61  1  0  0  0  0
 63  5  1  0  0  0  0
M  END
$$$$
