CSD_code = KITREN | q = 0 | S = 0 | Stoichiometry = C18H19ClN2NiS | MND = 4
 OpenBabel04212202063D

 42 45  0  0  1  0  0  0  0  0999 V2000
    0.4114    1.6973    4.4507 Ni  0  0  1  0  0  0  0  0  0  0  0  0
    2.0223    1.3177    3.1331 S   0  0  0  0  0  0  0  0  0  0  0  0
   -0.1141   -0.2833    4.2113 Cl  0  0  0  0  0  0  0  0  0  0  0  0
    0.8396    3.5302    4.8747 N   0  0  2  0  0  0  0  0  0  0  0  0
   -1.2760    1.9529    5.6078 N   0  0  0  0  0  4  0  0  0  0  0  0
   -1.5008    1.0942    6.1145 H   0  0  0  0  0  0  0  0  0  0  0  0
    2.8021    3.9264    3.5416 C   0  0  0  0  0  0  0  0  0  0  0  0
    3.5434    4.6806    3.3161 H   0  0  0  0  0  0  0  0  0  0  0  0
   -2.4267    2.3278    4.8288 C   0  0  0  0  0  0  0  0  0  0  0  0
   -0.1517    4.1013    5.7814 C   0  0  0  0  0  0  0  0  0  0  0  0
   -0.8942    4.6685    5.2022 H   0  0  0  0  0  0  0  0  0  0  0  0
    0.3147    4.7816    6.5024 H   0  0  0  0  0  0  0  0  0  0  0  0
    4.1889    2.4833    2.1221 C   0  0  0  0  0  0  0  0  0  0  0  0
    1.7631    4.3324    4.4048 C   0  0  2  0  0  3  0  0  0  0  0  0
   -0.8584    2.9912    6.5556 C   0  0  0  0  0  0  0  0  0  0  0  0
   -0.1571    2.5429    7.2655 H   0  0  0  0  0  0  0  0  0  0  0  0
   -1.7107    3.4078    7.1114 H   0  0  0  0  0  0  0  0  0  0  0  0
    1.7813    5.7922    4.7844 C   0  0  0  0  0  0  0  0  0  0  0  0
    0.8097    6.2498    4.6031 H   0  0  0  0  0  0  0  0  0  0  0  0
    2.5284    6.3272    4.2062 H   0  0  0  0  0  0  0  0  0  0  0  0
    2.0224    5.9121    5.8410 H   0  0  0  0  0  0  0  0  0  0  0  0
    3.0112    2.6905    2.9815 C   0  0  0  0  0  0  0  0  0  0  0  0
   -2.2513    2.7101    3.5069 C   0  0  0  0  0  0  0  0  0  0  0  0
   -1.2458    2.6797    3.0786 H   0  0  0  0  0  0  0  0  0  0  0  0
    4.9274    1.3056    2.2139 C   0  0  0  0  0  0  0  0  0  0  0  0
    4.6273    0.5506    2.9244 H   0  0  0  0  0  0  0  0  0  0  0  0
   -3.7005    2.3107    5.3810 C   0  0  0  0  0  0  0  0  0  0  0  0
   -3.8432    1.9923    6.4045 H   0  0  0  0  0  0  0  0  0  0  0  0
   -3.3400    3.0848    2.7409 C   0  0  0  0  0  0  0  0  0  0  0  0
   -3.1997    3.3737    1.7104 H   0  0  0  0  0  0  0  0  0  0  0  0
   -4.7880    2.6867    4.6123 C   0  0  0  0  0  0  0  0  0  0  0  0
   -5.7789    2.6677    5.0410 H   0  0  0  0  0  0  0  0  0  0  0  0
    4.5766    3.4502    1.1966 C   0  0  0  0  0  0  0  0  0  0  0  0
    3.9931    4.3527    1.0880 H   0  0  0  0  0  0  0  0  0  0  0  0
   -4.6089    3.0789    3.2962 C   0  0  0  0  0  0  0  0  0  0  0  0
   -5.4607    3.3688    2.6999 H   0  0  0  0  0  0  0  0  0  0  0  0
    6.4192    2.0788    0.5021 C   0  0  0  0  0  0  0  0  0  0  0  0
    7.2842    1.9234   -0.1256 H   0  0  0  0  0  0  0  0  0  0  0  0
    6.0370    1.1093    1.4143 C   0  0  0  0  0  0  0  0  0  0  0  0
    6.6044    0.1945    1.5010 H   0  0  0  0  0  0  0  0  0  0  0  0
    5.6822    3.2462    0.3923 C   0  0  0  0  0  0  0  0  0  0  0  0
    5.9677    4.0004   -0.3266 H   0  0  0  0  0  0  0  0  0  0  0  0
  1  3  1  1  0  0  0
  1  4  1  0  0  0  0
  1  5  1  0  0  0  0
  2  1  1  0  0  0  0
  4 10  1  6  0  0  0
  5  6  1  0  0  0  0
  5 15  1  0  0  0  0
  7 14  1  0  0  0  0
  8  7  1  0  0  0  0
  9 27  1  0  0  0  0
  9  5  1  0  0  0  0
 10 12  1  0  0  0  0
 10 15  1  0  0  0  0
 11 10  1  0  0  0  0
 13 25  1  0  0  0  0
 13 22  1  0  0  0  0
 14 18  1  1  0  0  0
 14  4  1  0  0  0  0
 15 17  1  0  0  0  0
 15 16  1  0  0  0  0
 18 21  1  0  0  0  0
 19 18  1  0  0  0  0
 20 18  1  0  0  0  0
 22  2  1  0  0  0  0
 22  7  2  0  0  0  0
 23  9  2  0  0  0  0
 24 23  1  0  0  0  0
 25 26  1  0  0  0  0
 27 28  1  0  0  0  0
 29 35  2  0  0  0  0
 29 23  1  0  0  0  0
 30 29  1  0  0  0  0
 31 32  1  0  0  0  0
 31 27  2  0  0  0  0
 33 13  2  0  0  0  0
 34 33  1  0  0  0  0
 35 31  1  0  0  0  0
 36 35  1  0  0  0  0
 37 39  1  0  0  0  0
 38 37  1  0  0  0  0
 39 40  1  0  0  0  0
 39 25  2  0  0  0  0
 41 37  2  0  0  0  0
 41 33  1  0  0  0  0
 42 41  1  0  0  0  0
M  END
$$$$
