CSD_code = KITREM | q = 0 | S = 0 | Stoichiometry = C12H9AuCl3N3 | MND = 4
 OpenBabel04212202063D

 28 30  0  0  0  0  0  0  0  0999 V2000
    4.9721   -0.5677    7.6351 Au  0  0  0  0  0  0  0  0  0  0  0  0
    7.2009   -0.9006    8.0986 Cl  0  0  0  0  0  0  0  0  0  0  0  0
    5.3822    1.1123    6.2135 Cl  0  0  0  0  0  0  0  0  0  0  0  0
    2.7082   -0.2830    7.5404 Cl  0  0  0  0  0  0  0  0  0  0  0  0
    4.6484   -4.2759    9.3939 C   0  0  0  0  0  0  0  0  0  0  0  0
    4.8015   -5.3285    9.2869 H   0  0  0  0  0  0  0  0  0  0  0  0
    6.3096   -4.7430    6.9124 C   0  0  0  0  0  0  0  0  0  0  0  0
    6.4868   -5.4851    7.6738 H   0  0  0  0  0  0  0  0  0  0  0  0
    6.8736   -4.8623    5.6505 C   0  0  0  0  0  0  0  0  0  0  0  0
    7.4863   -5.7192    5.4142 H   0  0  0  0  0  0  0  0  0  0  0  0
    6.6549   -3.8684    4.7105 C   0  0  0  0  0  0  0  0  0  0  0  0
    7.0875   -3.9278    3.7255 H   0  0  0  0  0  0  0  0  0  0  0  0
    4.1049   -2.2305   10.0407 N   0  0  0  0  0  0  0  0  0  0  0  0
    4.9592   -3.3691    8.4232 N   0  0  0  0  0  0  0  0  0  0  0  0
    5.5449   -3.6149    7.1689 C   0  0  0  0  0  0  0  0  0  0  0  0
    4.6354   -2.1238    8.8164 C   0  0  0  0  0  0  0  0  0  0  0  0
    5.3279   -2.6670    6.2665 N   0  0  0  0  0  0  0  0  0  0  0  0
    3.5775   -3.9078   11.7055 C   0  0  0  0  0  0  0  0  0  0  0  0
    3.5782   -4.9434   12.0037 H   0  0  0  0  0  0  0  0  0  0  0  0
    4.0974   -3.5685   10.4352 C   0  0  0  0  0  0  0  0  0  0  0  0
    3.0953   -2.9188   12.5022 C   0  0  0  0  0  0  0  0  0  0  0  0
    2.6924   -3.1453   13.4761 H   0  0  0  0  0  0  0  0  0  0  0  0
    5.8715   -2.7806    5.0697 C   0  0  0  0  0  0  0  0  0  0  0  0
    5.6680   -1.9664    4.3895 H   0  0  0  0  0  0  0  0  0  0  0  0
    3.6111   -1.2430   10.8457 C   0  0  0  0  0  0  0  0  0  0  0  0
    3.6378   -0.2431   10.4440 H   0  0  0  0  0  0  0  0  0  0  0  0
    3.1104   -1.5677   12.0595 C   0  0  0  0  0  0  0  0  0  0  0  0
    2.7161   -0.7947   12.6976 H   0  0  0  0  0  0  0  0  0  0  0  0
  1  2  1  0  0  0  0
  1 16  2  0  0  0  0
  3  1  1  0  0  0  0
  4  1  1  0  0  0  0
  5 20  2  0  0  0  0
  6  5  1  0  0  0  0
  7 15  1  0  0  0  0
  7  8  1  0  0  0  0
  9  7  2  0  0  0  0
 10  9  1  0  0  0  0
 11 23  2  0  0  0  0
 11  9  1  0  0  0  0
 12 11  1  0  0  0  0
 13 20  1  0  0  0  0
 13 25  1  0  0  0  0
 14 16  1  0  0  0  0
 14  5  1  0  0  0  0
 15 14  1  0  0  0  0
 16 13  1  0  0  0  0
 17 15  2  0  0  0  0
 18 19  1  0  0  0  0
 18 21  2  0  0  0  0
 20 18  1  0  0  0  0
 21 22  1  0  0  0  0
 23 17  1  0  0  0  0
 24 23  1  0  0  0  0
 25 27  2  0  0  0  0
 26 25  1  0  0  0  0
 27 21  1  0  0  0  0
 27 28  1  0  0  0  0
M  END
$$$$
