CSD_code = KITSUB | q = 0 | S = 0 | Stoichiometry = C10H27Cl3N3O2PSi2Ti | MND = 6
 OpenBabel04212202063D

 49 49  0  0  0  0  0  0  0  0999 V2000
    3.4193    7.6870    4.6928 Ti  0  0  0  0  0  0  0  0  0  0  0  0
    2.6295    5.7162    5.1971 Cl  0  0  0  0  0  0  0  0  0  0  0  0
    5.3290    7.4294    5.8130 Cl  0  0  0  0  0  0  0  0  0  0  0  0
    4.3305    6.9932    2.7767 Cl  0  0  0  0  0  0  0  0  0  0  0  0
    1.2495    8.9976    5.2188 P   0  0  0  0  0  4  0  0  0  0  0  0
    2.6410    8.7955    7.8604 Si  0  0  0  0  0  0  0  0  0  0  0  0
    0.9906    8.3229    2.3122 Si  0  0  0  0  0  0  0  0  0  0  0  0
    2.5240    8.6675    6.1359 N   0  0  0  0  0  0  0  0  0  0  0  0
    1.8141    8.4165    3.8336 N   0  0  0  0  0  0  0  0  0  0  0  0
   -0.1608    8.4382    5.6981 O   0  0  0  0  0  0  0  0  0  0  0  0
   -0.3461    7.0329    5.8072 C   0  0  0  0  0  0  0  0  0  0  0  0
   -1.4014    6.8828    6.0371 H   0  0  0  0  0  0  0  0  0  0  0  0
    0.2744    6.6212    6.6072 H   0  0  0  0  0  0  0  0  0  0  0  0
   -0.0884    6.5318    4.8700 H   0  0  0  0  0  0  0  0  0  0  0  0
    0.8075   10.5305    5.2029 O   0  0  0  0  0  0  0  0  0  0  0  0
    1.8090   11.4801    4.8694 C   0  0  0  0  0  0  0  0  0  0  0  0
    1.3623   12.4635    5.0173 H   0  0  0  0  0  0  0  0  0  0  0  0
    2.1197   11.3576    3.8286 H   0  0  0  0  0  0  0  0  0  0  0  0
    2.6831   11.3572    5.5152 H   0  0  0  0  0  0  0  0  0  0  0  0
    4.3633    9.8015    4.1120 N   0  0  0  0  0  2  0  0  0  0  0  0
    5.4354    9.5904    3.7525 C   0  0  0  0  0  2  0  0  0  0  0  0
    6.7632    9.3272    3.3088 C   0  0  0  0  0  0  0  0  0  0  0  0
    7.2281   10.2346    2.9263 H   0  0  0  0  0  0  0  0  0  0  0  0
    6.7129    8.5660    2.5277 H   0  0  0  0  0  0  0  0  0  0  0  0
    7.3343    8.9306    4.1498 H   0  0  0  0  0  0  0  0  0  0  0  0
    1.0212    9.5247    8.5594 C   0  0  0  0  0  0  0  0  0  0  0  0
    0.6507   10.3229    7.9235 H   0  0  0  0  0  0  0  0  0  0  0  0
    1.1722    9.9279    9.5550 H   0  0  0  0  0  0  0  0  0  0  0  0
    0.2400    8.7737    8.6238 H   0  0  0  0  0  0  0  0  0  0  0  0
    4.1178    9.9650    8.2011 C   0  0  0  0  0  0  0  0  0  0  0  0
    4.9811    9.6577    7.6154 H   0  0  0  0  0  0  0  0  0  0  0  0
    4.3970    9.9295    9.2483 H   0  0  0  0  0  0  0  0  0  0  0  0
    3.8943   11.0000    7.9543 H   0  0  0  0  0  0  0  0  0  0  0  0
    2.9591    7.0416    8.5510 C   0  0  0  0  0  0  0  0  0  0  0  0
    3.8246    6.5990    8.0616 H   0  0  0  0  0  0  0  0  0  0  0  0
    2.1182    6.3699    8.3901 H   0  0  0  0  0  0  0  0  0  0  0  0
    3.1616    7.0715    9.6165 H   0  0  0  0  0  0  0  0  0  0  0  0
   -0.6953    9.2078    2.4371 C   0  0  0  0  0  0  0  0  0  0  0  0
   -1.3041    8.7899    3.2325 H   0  0  0  0  0  0  0  0  0  0  0  0
   -1.2507    9.1212    1.5093 H   0  0  0  0  0  0  0  0  0  0  0  0
   -0.5682   10.2645    2.6511 H   0  0  0  0  0  0  0  0  0  0  0  0
    2.1107    9.2017    1.0340 C   0  0  0  0  0  0  0  0  0  0  0  0
    3.0889    8.7289    1.0082 H   0  0  0  0  0  0  0  0  0  0  0  0
    2.2558   10.2545    1.2646 H   0  0  0  0  0  0  0  0  0  0  0  0
    1.6819    9.1358    0.0400 H   0  0  0  0  0  0  0  0  0  0  0  0
    0.7645    6.4648    1.9086 C   0  0  0  0  0  0  0  0  0  0  0  0
    1.5944    5.8861    2.3140 H   0  0  0  0  0  0  0  0  0  0  0  0
    0.7454    6.3036    0.8361 H   0  0  0  0  0  0  0  0  0  0  0  0
   -0.1571    6.0562    2.3164 H   0  0  0  0  0  0  0  0  0  0  0  0
  1  2  1  0  0  0  0
  1  3  1  0  0  0  0
  1  8  1  0  0  0  0
  4  1  1  0  0  0  0
  5 10  1  0  0  0  0
  5  8  1  0  0  0  0
  6 30  1  0  0  0  0
  6 34  1  0  0  0  0
  6 26  1  0  0  0  0
  7 38  1  0  0  0  0
  7  9  1  0  0  0  0
  8  6  1  0  0  0  0
  9  1  1  0  0  0  0
  9  5  1  0  0  0  0
 10 11  1  0  0  0  0
 11 12  1  0  0  0  0
 11 13  1  0  0  0  0
 14 11  1  0  0  0  0
 15  5  1  0  0  0  0
 16 17  1  0  0  0  0
 16 15  1  0  0  0  0
 16 19  1  0  0  0  0
 18 16  1  0  0  0  0
 20  1  1  0  0  0  0
 21 20  1  0  0  0  0
 22 21  1  0  0  0  0
 22 25  1  0  0  0  0
 23 22  1  0  0  0  0
 24 22  1  0  0  0  0
 26 29  1  0  0  0  0
 26 28  1  0  0  0  0
 27 26  1  0  0  0  0
 30 32  1  0  0  0  0
 31 30  1  0  0  0  0
 33 30  1  0  0  0  0
 34 37  1  0  0  0  0
 35 34  1  0  0  0  0
 36 34  1  0  0  0  0
 38 41  1  0  0  0  0
 38 39  1  0  0  0  0
 40 38  1  0  0  0  0
 42 44  1  0  0  0  0
 42  7  1  0  0  0  0
 43 42  1  0  0  0  0
 45 42  1  0  0  0  0
 46  7  1  0  0  0  0
 46 47  1  0  0  0  0
 46 49  1  0  0  0  0
 48 46  1  0  0  0  0
M  END
$$$$
