CSD_code = KITTIQ | q = 0 | S = 0 | Stoichiometry = C10H27Cl3N3O2PSi2Zr | MND = 6
 OpenBabel04212202063D

 49 49  0  0  0  0  0  0  0  0999 V2000
    3.4880   15.2948    4.4290 Zr  0  0  0  0  0  0  0  0  0  0  0  0
    2.6582   16.2904    1.2414 Si  0  0  0  0  0  0  0  0  0  0  0  0
    2.6013   13.2207    3.8856 Cl  0  0  0  0  0  0  0  0  0  0  0  0
    0.7315   18.1656    3.9039 O   0  0  0  0  0  0  0  0  0  0  0  0
    2.5030   16.4038    2.9550 N   0  0  0  0  0  0  0  0  0  0  0  0
    1.7365   19.1024    4.2597 C   0  0  0  0  0  0  0  0  0  0  0  0
    1.3032   20.0922    4.1180 H   0  0  0  0  0  0  0  0  0  0  0  0
    2.6168   18.9760    3.6220 H   0  0  0  0  0  0  0  0  0  0  0  0
    2.0333   18.9639    5.3029 H   0  0  0  0  0  0  0  0  0  0  0  0
    1.2064   16.6378    3.8723 P   0  0  0  0  0  4  0  0  0  0  0  0
    5.5086   14.9552    3.2674 Cl  0  0  0  0  0  0  0  0  0  0  0  0
    0.9751   15.7694    6.7787 Si  0  0  0  0  0  0  0  0  0  0  0  0
   -0.1838   16.0440    3.3686 O   0  0  0  0  0  0  0  0  0  0  0  0
    1.7542   16.0890    5.2760 N   0  0  0  0  0  0  0  0  0  0  0  0
   -0.3428   14.6349    3.2789 C   0  0  0  0  0  0  0  0  0  0  0  0
   -1.4049   14.4591    3.1054 H   0  0  0  0  0  0  0  0  0  0  0  0
   -0.0249   14.1443    4.2034 H   0  0  0  0  0  0  0  0  0  0  0  0
    0.2423   14.2302    2.4492 H   0  0  0  0  0  0  0  0  0  0  0  0
    4.4630   14.4957    6.4204 Cl  0  0  0  0  0  0  0  0  0  0  0  0
    4.5120   17.3442    5.0547 N   0  0  0  0  0  2  0  0  0  0  0  0
    4.1945   17.3614    0.8378 C   0  0  0  0  0  0  0  0  0  0  0  0
    4.0046   18.4226    0.9744 H   0  0  0  0  0  0  0  0  0  0  0  0
    4.5074   17.2135   -0.1898 H   0  0  0  0  0  0  0  0  0  0  0  0
    5.0260   17.0819    1.4826 H   0  0  0  0  0  0  0  0  0  0  0  0
    2.9800   14.4628    0.7680 C   0  0  0  0  0  0  0  0  0  0  0  0
    3.8483   14.0809    1.3060 H   0  0  0  0  0  0  0  0  0  0  0  0
    3.1862   14.3636   -0.2931 H   0  0  0  0  0  0  0  0  0  0  0  0
    2.1421   13.8090    1.0037 H   0  0  0  0  0  0  0  0  0  0  0  0
    1.0950   16.9601    0.3757 C   0  0  0  0  0  0  0  0  0  0  0  0
    0.7584   17.8737    0.8556 H   0  0  0  0  0  0  0  0  0  0  0  0
    0.2756   16.2500    0.4235 H   0  0  0  0  0  0  0  0  0  0  0  0
    1.2844   17.1776   -0.6695 H   0  0  0  0  0  0  0  0  0  0  0  0
    2.0838   16.6256    8.0860 C   0  0  0  0  0  0  0  0  0  0  0  0
    3.1162   16.3004    7.9705 H   0  0  0  0  0  0  0  0  0  0  0  0
    1.7662   16.3713    9.0912 H   0  0  0  0  0  0  0  0  0  0  0  0
    2.0614   17.7088    7.9977 H   0  0  0  0  0  0  0  0  0  0  0  0
    0.9537   13.8695    7.0316 C   0  0  0  0  0  0  0  0  0  0  0  0
    0.0840   13.3935    6.5846 H   0  0  0  0  0  0  0  0  0  0  0  0
    0.9514   13.6199    8.0874 H   0  0  0  0  0  0  0  0  0  0  0  0
    1.8427   13.4152    6.5898 H   0  0  0  0  0  0  0  0  0  0  0  0
   -0.7922   16.4868    6.7993 C   0  0  0  0  0  0  0  0  0  0  0  0
   -1.4133   16.0288    6.0363 H   0  0  0  0  0  0  0  0  0  0  0  0
   -0.7750   17.5539    6.6021 H   0  0  0  0  0  0  0  0  0  0  0  0
   -1.2714   16.3313    7.7595 H   0  0  0  0  0  0  0  0  0  0  0  0
    5.5771   17.0472    5.3805 C   0  0  0  0  0  2  0  0  0  0  0  0
    6.8961   16.7031    5.7861 C   0  0  0  0  0  0  0  0  0  0  0  0
    7.4029   16.2361    4.9386 H   0  0  0  0  0  0  0  0  0  0  0  0
    6.8226   15.9731    6.5956 H   0  0  0  0  0  0  0  0  0  0  0  0
    7.4400   17.5872    6.1165 H   0  0  0  0  0  0  0  0  0  0  0  0
  1 20  1  0  0  0  0
  1 14  1  0  0  0  0
  1 19  1  0  0  0  0
  2  5  1  0  0  0  0
  3  1  1  0  0  0  0
  4  6  1  0  0  0  0
  5 10  1  0  0  0  0
  5  1  1  0  0  0  0
  6  9  1  0  0  0  0
  7  6  1  0  0  0  0
  8  6  1  0  0  0  0
 10  4  1  0  0  0  0
 10 14  1  0  0  0  0
 11  1  1  0  0  0  0
 12 41  1  0  0  0  0
 12 37  1  0  0  0  0
 12 33  1  0  0  0  0
 13 10  1  0  0  0  0
 14 12  1  0  0  0  0
 15 13  1  0  0  0  0
 15 17  1  0  0  0  0
 16 15  1  0  0  0  0
 18 15  1  0  0  0  0
 20 45  1  0  0  0  0
 21 22  1  0  0  0  0
 21  2  1  0  0  0  0
 21 24  1  0  0  0  0
 23 21  1  0  0  0  0
 25 28  1  0  0  0  0
 25  2  1  0  0  0  0
 25 26  1  0  0  0  0
 27 25  1  0  0  0  0
 29 31  1  0  0  0  0
 29 30  1  0  0  0  0
 29  2  1  0  0  0  0
 32 29  1  0  0  0  0
 33 35  1  0  0  0  0
 34 33  1  0  0  0  0
 36 33  1  0  0  0  0
 37 39  1  0  0  0  0
 38 37  1  0  0  0  0
 40 37  1  0  0  0  0
 41 44  1  0  0  0  0
 42 41  1  0  0  0  0
 43 41  1  0  0  0  0
 45 46  1  0  0  0  0
 46 49  1  0  0  0  0
 46 48  1  0  0  0  0
 47 46  1  0  0  0  0
M  END
$$$$
