CSD_code = KITXUG | q = 0 | S = 0 | Stoichiometry = C26H11ClF15OsPS3 | MND = 5
 OpenBabel04212202063D

 58 61  0  0  0  0  0  0  0  0999 V2000
    2.0278   -2.5992    4.0267 Os  0  0  0  0  0  0  0  0  0  0  0  0
   -0.3044   -2.8823    3.8042 Cl  0  0  0  0  0  0  0  0  0  0  0  0
    4.3453   -2.3349    4.2729 P   0  0  0  0  0  4  0  0  0  0  0  0
    5.1822   -1.2116    3.1148 C   0  0  0  0  0  0  0  0  0  0  0  0
    4.4556   -0.5535    2.1292 C   0  0  0  0  0  0  0  0  0  0  0  0
    5.0938    0.3041    1.2505 C   0  0  0  0  0  0  0  0  0  0  0  0
    6.4594    0.5090    1.3499 C   0  0  0  0  0  0  0  0  0  0  0  0
    7.1884   -0.1447    2.3309 C   0  0  0  0  0  0  0  0  0  0  0  0
    6.5554   -1.0020    3.2110 C   0  0  0  0  0  0  0  0  0  0  0  0
    4.8326   -1.7157    5.9181 C   0  0  0  0  0  0  0  0  0  0  0  0
    5.2720   -3.8990    4.1226 C   0  0  0  0  0  0  0  0  0  0  0  0
    1.8688   -0.3773    4.4476 S   0  0  0  0  0  0  0  0  0  0  0  0
    0.1794   -0.0601    4.8058 C   0  0  0  0  0  0  0  0  0  0  0  0
   -0.5976    0.8043    4.0400 C   0  0  0  0  0  0  0  0  0  0  0  0
   -0.0612    1.4260    2.9921 F   0  0  0  0  0  0  0  0  0  0  0  0
   -1.9339    1.0253    4.3609 C   0  0  0  0  0  0  0  0  0  0  0  0
   -2.6694    1.8590    3.6259 F   0  0  0  0  0  0  0  0  0  0  0  0
   -2.5047    0.3775    5.4528 C   0  0  0  0  0  0  0  0  0  0  0  0
   -3.7838    0.5874    5.7577 F   0  0  0  0  0  0  0  0  0  0  0  0
   -1.7362   -0.4866    6.2333 C   0  0  0  0  0  0  0  0  0  0  0  0
   -2.2806   -1.1077    7.2789 F   0  0  0  0  0  0  0  0  0  0  0  0
   -0.4048   -0.6849    5.9086 C   0  0  0  0  0  0  0  0  0  0  0  0
    0.3530   -1.5222    6.6275 F   0  0  0  0  0  0  0  0  0  0  0  0
    2.1512   -3.9637    5.8245 S   0  0  0  0  0  0  0  0  0  0  0  0
    0.6518   -4.8719    5.8921 C   0  0  0  0  0  0  0  0  0  0  0  0
   -0.1956   -4.8275    6.9956 C   0  0  0  0  0  0  0  0  0  0  0  0
    0.1278   -4.0864    8.0527 F   0  0  0  0  0  0  0  0  0  0  0  0
   -1.3794   -5.5598    7.0075 C   0  0  0  0  0  0  0  0  0  0  0  0
   -2.1825   -5.5149    8.0697 F   0  0  0  0  0  0  0  0  0  0  0  0
   -1.7241   -6.3448    5.9109 C   0  0  0  0  0  0  0  0  0  0  0  0
   -2.8573   -7.0436    5.9219 F   0  0  0  0  0  0  0  0  0  0  0  0
   -0.8775   -6.4095    4.8039 C   0  0  0  0  0  0  0  0  0  0  0  0
   -1.2019   -7.1664    3.7566 F   0  0  0  0  0  0  0  0  0  0  0  0
    0.3022   -5.6842    4.8124 C   0  0  0  0  0  0  0  0  0  0  0  0
    1.1278   -5.7192    3.7593 F   0  0  0  0  0  0  0  0  0  0  0  0
    2.4935   -3.5442    2.0178 S   0  0  0  0  0  0  0  0  0  0  0  0
    0.9973   -3.4879    1.1016 C   0  0  0  0  0  0  0  0  0  0  0  0
    0.4293   -4.6188    0.5224 C   0  0  0  0  0  0  0  0  0  0  0  0
    1.0239   -5.8023    0.6535 F   0  0  0  0  0  0  0  0  0  0  0  0
   -0.7574   -4.5229   -0.1995 C   0  0  0  0  0  0  0  0  0  0  0  0
   -1.2916   -5.6105   -0.7538 F   0  0  0  0  0  0  0  0  0  0  0  0
   -1.3870   -3.2904   -0.3474 C   0  0  0  0  0  0  0  0  0  0  0  0
   -2.5221   -3.2000   -1.0377 F   0  0  0  0  0  0  0  0  0  0  0  0
   -0.8249   -2.1463    0.2203 C   0  0  0  0  0  0  0  0  0  0  0  0
   -1.4221   -0.9642    0.0771 F   0  0  0  0  0  0  0  0  0  0  0  0
    0.3602   -2.2587    0.9261 C   0  0  0  0  0  0  0  0  0  0  0  0
    0.9169   -1.1799    1.5011 F   0  0  0  0  0  0  0  0  0  0  0  0
    3.3879   -0.7093    2.0548 H   0  0  0  0  0  0  0  0  0  0  0  0
    4.5226    0.8137    0.4898 H   0  0  0  0  0  0  0  0  0  0  0  0
    6.9577    1.1784    0.6652 H   0  0  0  0  0  0  0  0  0  0  0  0
    8.2534    0.0154    2.4100 H   0  0  0  0  0  0  0  0  0  0  0  0
    7.1327   -1.5058    3.9730 H   0  0  0  0  0  0  0  0  0  0  0  0
    4.4251   -0.7148    6.0535 H   0  0  0  0  0  0  0  0  0  0  0  0
    5.9177   -1.6850    6.0041 H   0  0  0  0  0  0  0  0  0  0  0  0
    4.4199   -2.3776    6.6787 H   0  0  0  0  0  0  0  0  0  0  0  0
    5.1042   -4.3188    3.1317 H   0  0  0  0  0  0  0  0  0  0  0  0
    4.9044   -4.5956    4.8751 H   0  0  0  0  0  0  0  0  0  0  0  0
    6.3363   -3.7222    4.2710 H   0  0  0  0  0  0  0  0  0  0  0  0
  1  3  1  0  0  0  0
  1 12  1  0  0  0  0
  1 24  1  0  0  0  0
  2  1  1  0  0  0  0
  3 10  1  0  0  0  0
  4  9  1  0  0  0  0
  4  3  1  0  0  0  0
  5  4  2  0  0  0  0
  6  7  2  0  0  0  0
  6  5  1  0  0  0  0
  7  8  1  0  0  0  0
  8 51  1  0  0  0  0
  8  9  2  0  0  0  0
  9 52  1  0  0  0  0
 10 54  1  0  0  0  0
 10 53  1  0  0  0  0
 10 55  1  0  0  0  0
 11 58  1  0  0  0  0
 11  3  1  0  0  0  0
 11 57  1  0  0  0  0
 12 13  1  0  0  0  0
 13 22  1  0  0  0  0
 14 16  1  0  0  0  0
 14 13  2  0  0  0  0
 15 14  1  0  0  0  0
 16 18  2  0  0  0  0
 17 16  1  0  0  0  0
 18 19  1  0  0  0  0
 18 20  1  0  0  0  0
 20 21  1  0  0  0  0
 22 20  2  0  0  0  0
 22 23  1  0  0  0  0
 24 25  1  0  0  0  0
 25 26  1  0  0  0  0
 26 28  2  0  0  0  0
 26 27  1  0  0  0  0
 28 29  1  0  0  0  0
 30 31  1  0  0  0  0
 30 28  1  0  0  0  0
 32 34  1  0  0  0  0
 32 30  2  0  0  0  0
 33 32  1  0  0  0  0
 34 25  2  0  0  0  0
 35 34  1  0  0  0  0
 36  1  1  0  0  0  0
 37 36  1  0  0  0  0
 38 39  1  0  0  0  0
 38 37  2  0  0  0  0
 40 38  1  0  0  0  0
 41 40  1  0  0  0  0
 42 40  2  0  0  0  0
 42 44  1  0  0  0  0
 43 42  1  0  0  0  0
 44 46  2  0  0  0  0
 45 44  1  0  0  0  0
 46 37  1  0  0  0  0
 46 47  1  0  0  0  0
 48  5  1  0  0  0  0
 49  6  1  0  0  0  0
 50  7  1  0  0  0  0
 56 11  1  0  0  0  0
M  END
$$$$
