CSD_code = KIVDIE | q = 0 | S = 0 | Stoichiometry = C10H8Cl2CrN2O2 | MND = 6
 OpenBabel04212202063D

 25 27  0  0  1  0  0  0  0  0999 V2000
    2.1705    2.8208    2.2805 Cr  0  0  0  0  0  0  0  0  0  0  0  0
    0.1459    3.2115    3.0533 Cl  0  0  0  0  0  0  0  0  0  0  0  0
    4.2452    3.5000    1.9869 Cl  0  0  0  0  0  0  0  0  0  0  0  0
    2.4720    1.5125    3.0799 O   0  0  0  0  0  1  0  0  0  0  0  0
    1.7979    2.5712    0.7836 O   0  0  0  0  0  1  0  0  0  0  0  0
    1.9177    5.0467    1.8974 N   0  0  0  0  0  0  0  0  0  0  0  0
    2.5814    3.9936    4.1826 N   0  0  0  0  0  0  0  0  0  0  0  0
    1.5770    5.4764    0.6948 C   0  0  0  0  0  3  0  0  0  0  0  0
    1.4321    4.7085   -0.0537 H   0  0  0  0  0  0  0  0  0  0  0  0
    1.4143    6.8221    0.4044 C   0  0  0  0  0  0  0  0  0  0  0  0
    1.1370    7.1312   -0.5901 H   0  0  0  0  0  0  0  0  0  0  0  0
    1.6163    7.7451    1.4175 C   0  0  0  0  0  0  0  0  0  0  0  0
    1.4992    8.8024    1.2335 H   0  0  0  0  0  0  0  0  0  0  0  0
    1.9727    7.2914    2.6758 C   0  0  0  0  0  0  0  0  0  0  0  0
    2.1334    7.9939    3.4766 H   0  0  0  0  0  0  0  0  0  0  0  0
    2.1185    5.9217    2.8874 C   0  0  0  0  0  0  0  0  0  0  0  0
    2.4948    5.3272    4.1772 C   0  0  2  0  0  3  0  0  0  0  0  0
    2.7505    6.0681    5.3295 C   0  0  0  0  0  0  0  0  0  0  0  0
    2.6816    7.1431    5.3211 H   0  0  0  0  0  0  0  0  0  0  0  0
    3.0974    5.4053    6.4942 C   0  0  0  0  0  0  0  0  0  0  0  0
    3.3002    5.9617    7.3968 H   0  0  0  0  0  0  0  0  0  0  0  0
    3.1792    4.0226    6.4796 C   0  0  0  0  0  0  0  0  0  0  0  0
    3.4445    3.4658    7.3634 H   0  0  0  0  0  0  0  0  0  0  0  0
    2.9111    3.3575    5.2933 C   0  0  0  0  0  0  0  0  0  0  0  0
    2.9595    2.2789    5.2192 H   0  0  0  0  0  0  0  0  0  0  0  0
  1  2  1  0  0  0  0
  1  4  1  0  0  0  0
  1  7  1  0  0  0  0
  3  1  1  0  0  0  0
  5  1  1  0  0  0  0
  6  1  1  0  0  0  0
  6 16  1  0  0  0  0
  7 24  1  0  0  0  0
  8  6  1  0  0  0  0
  9  8  1  0  0  0  0
 10  8  1  0  0  0  0
 10 12  2  0  0  0  0
 11 10  1  0  0  0  0
 12 14  1  0  0  0  0
 13 12  1  0  0  0  0
 14 16  2  0  0  0  0
 14 15  1  0  0  0  0
 17 16  1  6  0  0  0
 17  7  1  0  0  0  0
 17 18  1  0  0  0  0
 18 20  2  0  0  0  0
 19 18  1  0  0  0  0
 20 21  1  0  0  0  0
 22 20  1  0  0  0  0
 22 23  1  0  0  0  0
 24 22  2  0  0  0  0
 25 24  1  0  0  0  0
M  END
$$$$
