CSD_code = KIVKUV | q = 0 | S = 0 | Stoichiometry = C10H7Br2N3PtS | MND = 4
 OpenBabel04212202063D

 24 27  0  0  0  0  0  0  0  0999 V2000
    0.7005    5.4329    1.1027 Pt  0  0  0  0  0  0  0  0  0  0  0  0
    2.9527    5.5735    1.7574 Br  0  0  0  0  0  0  0  0  0  0  0  0
    0.0930    4.5415    3.2104 Br  0  0  0  0  0  0  0  0  0  0  0  0
   -3.6967    5.0950   -0.0946 S   0  0  0  0  0  0  0  0  0  0  0  0
   -1.2232    5.3465    0.4304 N   0  0  0  0  0  0  0  0  0  0  0  0
    0.9739    6.2012   -0.8173 N   0  0  0  0  0  0  0  0  0  0  0  0
   -0.0114    6.7450   -2.7370 N   0  0  0  0  0  0  0  0  0  0  0  0
   -2.3436    4.9513    0.9530 C   0  0  0  0  0  3  0  0  0  0  0  0
   -2.6672    5.7310   -1.3113 C   0  0  0  0  0  3  0  0  0  0  0  0
   -1.3783    5.7957   -0.8581 C   0  0  0  0  0  0  0  0  0  0  0  0
   -0.1705    6.2455   -1.4836 C   0  0  0  0  0  0  0  0  0  0  0  0
    1.3214    7.0411   -2.8853 C   0  0  0  0  0  0  0  0  0  0  0  0
    1.9406    6.6928   -1.6613 C   0  0  0  0  0  0  0  0  0  0  0  0
    3.3114    6.8790   -1.4955 C   0  0  0  0  0  0  0  0  0  0  0  0
    4.0122    7.4060   -2.5583 C   0  0  0  0  0  0  0  0  0  0  0  0
    3.3907    7.7463   -3.7630 C   0  0  0  0  0  0  0  0  0  0  0  0
    2.0353    7.5703   -3.9488 C   0  0  0  0  0  0  0  0  0  0  0  0
   -2.4320    4.5660    1.9520 H   0  0  0  0  0  0  0  0  0  0  0  0
   -3.0541    6.0150   -2.2683 H   0  0  0  0  0  0  0  0  0  0  0  0
   -0.7334    6.8736   -3.4249 H   0  0  0  0  0  0  0  0  0  0  0  0
    3.7977    6.6192   -0.5706 H   0  0  0  0  0  0  0  0  0  0  0  0
    5.0749    7.5616   -2.4583 H   0  0  0  0  0  0  0  0  0  0  0  0
    3.9850    8.1560   -4.5652 H   0  0  0  0  0  0  0  0  0  0  0  0
    1.5482    7.8306   -4.8757 H   0  0  0  0  0  0  0  0  0  0  0  0
  1  2  1  0  0  0  0
  1  3  1  0  0  0  0
  4  8  1  0  0  0  0
  5  8  1  0  0  0  0
  5  1  1  0  0  0  0
  6  1  1  0  0  0  0
  7 11  1  0  0  0  0
  8 18  1  0  0  0  0
  9 10  1  0  0  0  0
  9  4  1  0  0  0  0
 10  5  1  0  0  0  0
 11 10  2  0  0  0  0
 11  6  1  0  0  0  0
 12  7  1  0  0  0  0
 12 13  1  0  0  0  0
 13 14  2  0  0  0  0
 13  6  1  0  0  0  0
 14 21  1  0  0  0  0
 15 22  1  0  0  0  0
 15 14  1  0  0  0  0
 16 15  2  0  0  0  0
 17 16  1  0  0  0  0
 17 12  2  0  0  0  0
 19  9  1  0  0  0  0
 20  7  1  0  0  0  0
 23 16  1  0  0  0  0
 24 17  1  0  0  0  0
M  END
$$$$
