CSD_code = KIVTEQ | q = 0 | S = 0 | Stoichiometry = C23H30ClN4Rh | MND = 5
 OpenBabel04212202063D

 59 60  0  0  1  0  0  0  0  0999 V2000
    1.1272    2.6996    7.4293 Rh  0  0  0  0  0  0  0  0  0  0  0  0
   -0.7729    3.2250    8.5895 Cl  0  0  0  0  0 15  0  0  0  0  0  0
    3.6104    0.5425    4.9671 N   0  0  0  0  0  0  0  0  0  0  0  0
    3.5051    2.6386    5.5801 N   0  0  0  0  0  0  0  0  0  0  0  0
    2.7773    4.9282    5.2339 C   0  0  0  0  0  0  0  0  0  0  0  0
    0.4459    4.1837    5.6539 N   0  0  0  0  0  0  0  0  0  0  0  0
    2.6060    0.7222    5.8410 N   0  0  0  0  0  0  0  0  0  0  0  0
    5.4584    3.1676    3.2513 C   0  0  0  0  0  0  0  0  0  0  0  0
    4.7451    3.9679    3.3778 H   0  0  0  0  0  0  0  0  0  0  0  0
    2.5141    1.9995    6.2687 C   0  0  2  0  0  3  0  0  0  0  0  0
    6.1935    0.9190    3.6956 C   0  0  0  0  0  0  0  0  0  0  0  0
    6.0377   -0.0220    4.1995 H   0  0  0  0  0  0  0  0  0  0  0  0
    4.9705    4.4643    6.1629 C   0  0  0  0  0  0  0  0  0  0  0  0
    5.7035    3.7369    6.4798 H   0  0  0  0  0  0  0  0  0  0  0  0
    5.2827    1.9538    3.9126 C   0  0  0  0  0  0  0  0  0  0  0  0
    1.7216   -0.3854    6.1897 C   0  0  0  0  0  0  0  0  0  0  0  0
    4.1617    1.7086    4.8031 C   0  0  0  0  0  0  0  0  0  0  0  0
    6.5411    3.3454    2.4100 C   0  0  0  0  0  0  0  0  0  0  0  0
    6.6705    4.2898    1.9025 H   0  0  0  0  0  0  0  0  0  0  0  0
    7.4520    2.3214    2.2131 C   0  0  0  0  0  0  0  0  0  0  0  0
    8.2971    2.4684    1.5574 H   0  0  0  0  0  0  0  0  0  0  0  0
    3.7503    4.0224    5.6648 C   0  0  0  0  0  0  0  0  0  0  0  0
    5.2330    5.8175    6.2475 C   0  0  0  0  0  0  0  0  0  0  0  0
    6.1782    6.1591    6.6403 H   0  0  0  0  0  0  0  0  0  0  0  0
    7.2706    1.1049    2.8523 C   0  0  0  0  0  0  0  0  0  0  0  0
    7.9731    0.3006    2.6926 H   0  0  0  0  0  0  0  0  0  0  0  0
    2.3660    3.6447    8.8427 C   0  0  0  0  0  0  0  0  0  0  0  0
    3.3320    3.9572    8.4540 H   0  0  0  0  0  0  0  0  0  0  0  0
    1.7958    4.4330    9.3258 H   0  0  0  0  0  0  0  0  0  0  0  0
    3.0701    6.2844    5.3210 C   0  0  0  0  0  0  0  0  0  0  0  0
    2.3404    7.0032    4.9777 H   0  0  0  0  0  0  0  0  0  0  0  0
    0.0740    5.4309    6.3219 C   0  0  0  0  0  0  0  0  0  0  0  0
    0.9414    5.8492    6.8301 H   0  0  0  0  0  0  0  0  0  0  0  0
   -0.6896    5.2174    7.0671 H   0  0  0  0  0  0  0  0  0  0  0  0
   -0.3169    6.1628    5.5998 H   0  0  0  0  0  0  0  0  0  0  0  0
    4.2783    6.7285    5.8267 C   0  0  0  0  0  0  0  0  0  0  0  0
    4.4771    7.7876    5.8881 H   0  0  0  0  0  0  0  0  0  0  0  0
    1.4740    4.4607    4.6401 C   0  0  0  0  0  0  0  0  0  0  0  0
    1.1061    5.2318    3.9410 H   0  0  0  0  0  0  0  0  0  0  0  0
    1.6448    3.5423    4.0672 H   0  0  0  0  0  0  0  0  0  0  0  0
    2.1727    2.3134    9.2448 C   0  0  0  0  0  3  0  0  0  0  0  0
    1.4740    2.1017   10.0477 H   0  0  0  0  0  0  0  0  0  0  0  0
    3.0087    1.6226    9.1797 H   0  0  0  0  0  0  0  0  0  0  0  0
   -0.7391    3.6295    5.0074 C   0  0  0  0  0  0  0  0  0  0  0  0
   -1.1823    4.3445    4.2981 H   0  0  0  0  0  0  0  0  0  0  0  0
   -1.4758    3.3902    5.7737 H   0  0  0  0  0  0  0  0  0  0  0  0
   -0.4822    2.7190    4.4649 H   0  0  0  0  0  0  0  0  0  0  0  0
    1.9318   -1.5043    5.1702 C   0  0  0  0  0  0  0  0  0  0  0  0
    1.7551   -1.1414    4.1609 H   0  0  0  0  0  0  0  0  0  0  0  0
    1.2440   -2.3196    5.3761 H   0  0  0  0  0  0  0  0  0  0  0  0
    2.9503   -1.8774    5.2221 H   0  0  0  0  0  0  0  0  0  0  0  0
    0.2715    0.1057    6.1475 C   0  0  0  0  0  0  0  0  0  0  0  0
    0.1333    0.9797    6.8234 H   0  0  0  0  0  0  0  0  0  0  0  0
   -0.3948   -0.6834    6.4861 H   0  0  0  0  0  0  0  0  0  0  0  0
   -0.0108    0.3862    5.1338 H   0  0  0  0  0  0  0  0  0  0  0  0
    2.0631   -0.8783    7.5978 C   0  0  0  0  0  0  0  0  0  0  0  0
    3.1273   -1.0876    7.6799 H   0  0  0  0  0  0  0  0  0  0  0  0
    1.5117   -1.7887    7.8159 H   0  0  0  0  0  0  0  0  0  0  0  0
    1.7893   -0.1201    8.3289 H   0  0  0  0  0  0  0  0  0  0  0  0
  1 27  1  0  0  0  0
  3  7  1  0  0  0  0
  4 22  1  0  0  0  0
  4 10  1  0  0  0  0
  5 30  2  0  0  0  0
  5 22  1  0  0  0  0
  6 32  1  0  0  0  0
  7 16  1  0  0  0  0
  7 10  1  0  0  0  0
  8  9  1  0  0  0  0
  8 15  1  0  0  0  0
 10  1  1  6  0  0  0
 11 15  2  0  0  0  0
 11 12  1  0  0  0  0
 13 23  1  0  0  0  0
 13 14  1  0  0  0  0
 15 17  1  0  0  0  0
 16 56  1  0  0  0  0
 17  3  2  0  0  0  0
 17  4  1  0  0  0  0
 18  8  2  0  0  0  0
 19 18  1  0  0  0  0
 20 18  1  0  0  0  0
 20 25  2  0  0  0  0
 21 20  1  0  0  0  0
 22 13  2  0  0  0  0
 23 24  1  0  0  0  0
 25 11  1  0  0  0  0
 26 25  1  0  0  0  0
 27 41  1  0  0  0  0
 27 29  1  0  0  0  0
 28 27  1  0  0  0  0
 30 36  1  0  0  0  0
 31 30  1  0  0  0  0
 32 33  1  0  0  0  0
 32 34  1  0  0  0  0
 35 32  1  0  0  0  0
 36 37  1  0  0  0  0
 36 23  2  0  0  0  0
 38  5  1  0  0  0  0
 38  6  1  0  0  0  0
 39 38  1  0  0  0  0
 40 38  1  0  0  0  0
 41 42  1  0  0  0  0
 43 41  1  0  0  0  0
 44  6  1  0  0  0  0
 44 46  1  0  0  0  0
 45 44  1  0  0  0  0
 47 44  1  0  0  0  0
 48 51  1  0  0  0  0
 48 50  1  0  0  0  0
 48 16  1  0  0  0  0
 49 48  1  0  0  0  0
 52 16  1  0  0  0  0
 52 54  1  0  0  0  0
 52 53  1  0  0  0  0
 55 52  1  0  0  0  0
 56 57  1  0  0  0  0
 56 58  1  0  0  0  0
 56 59  1  0  0  0  0
M  END
$$$$
