CSD_code = KIWDOJ | q = 0 | S = 0 | Stoichiometry = C15H15BClN6OReS | MND = 6
 OpenBabel04212202063D

 41 46  0  0  1  0  0  0  0  0999 V2000
    2.1597    3.2492    1.8452 Re  0  0  0  0  0  0  0  0  0  0  0  0
    3.9155    3.1754    3.4557 S   0  0  0  0  0  0  0  0  0  0  0  0
    2.3612    1.0257    1.4593 Cl  0  0  0  0  0  0  0  0  0  0  0  0
    0.8712    3.4515    2.8829 O   0  0  0  0  0  1  0  0  0  0  0  0
    3.7441    3.4539    0.3212 N   0  0  0  0  0  0  0  0  0  0  0  0
    1.0052    3.3213   -0.0155 N   0  0  0  0  0  0  0  0  0  0  0  0
    2.3889    5.3556    1.6748 N   0  0  0  0  0  0  0  0  0  0  0  0
    3.6408    4.3063   -0.7074 N   0  0  1  0  0  0  0  0  0  0  0  0
    1.1922    4.2902   -0.9133 N   0  0  2  0  0  0  0  0  0  0  0  0
    2.3438    5.9934    0.5024 N   0  0  1  0  0  0  0  0  0  0  0  0
    3.7767    1.6176    4.2714 C   0  0  0  0  0  0  0  0  0  0  0  0
    4.9312    0.9079    4.5780 C   0  0  0  0  0  0  0  0  0  0  0  0
    4.8352   -0.2952    5.2522 C   0  0  0  0  0  0  0  0  0  0  0  0
    3.5954   -0.7903    5.6217 C   0  0  0  0  0  0  0  0  0  0  0  0
    2.4469   -0.0731    5.3246 C   0  0  0  0  0  0  0  0  0  0  0  0
    2.5319    1.1316    4.6543 C   0  0  0  0  0  0  0  0  0  0  0  0
    4.7107    4.1866   -1.5004 C   0  0  0  0  0  3  0  0  0  0  0  0
    5.5408    3.2200   -0.9674 C   0  0  0  0  0  0  0  0  0  0  0  0
    4.8866    2.7891    0.1815 C   0  0  0  0  0  0  0  0  0  0  0  0
    0.2394    4.2111   -1.8502 C   0  0  0  0  0  3  0  0  0  0  0  0
   -0.5950    3.1565   -1.5358 C   0  0  0  0  0  0  0  0  0  0  0  0
   -0.0658    2.6253   -0.3625 C   0  0  0  0  0  0  0  0  0  0  0  0
    2.3488    7.3136    0.7182 C   0  0  0  0  0  3  0  0  0  0  0  0
    2.3886    7.5335    2.0811 C   0  0  0  0  0  0  0  0  0  0  0  0
    2.4151    6.2615    2.6435 C   0  0  0  0  0  0  0  0  0  0  0  0
    2.4127    5.2192   -0.8250 B   0  0  1  0  0  0  0  0  0  0  0  0
    5.8918    1.3040    4.2847 H   0  0  0  0  0  0  0  0  0  0  0  0
    5.7320   -0.8510    5.4844 H   0  0  0  0  0  0  0  0  0  0  0  0
    3.5237   -1.7354    6.1395 H   0  0  0  0  0  0  0  0  0  0  0  0
    1.4794   -0.4560    5.6135 H   0  0  0  0  0  0  0  0  0  0  0  0
    1.6420    1.7007    4.4144 H   0  0  0  0  0  0  0  0  0  0  0  0
    4.8159    4.7861   -2.3817 H   0  0  0  0  0  0  0  0  0  0  0  0
    6.4787    2.8765   -1.3507 H   0  0  0  0  0  0  0  0  0  0  0  0
    5.1813    2.0430    0.8945 H   0  0  0  0  0  0  0  0  0  0  0  0
    0.2130    4.8964   -2.6728 H   0  0  0  0  0  0  0  0  0  0  0  0
   -1.4572    2.8204   -2.0726 H   0  0  0  0  0  0  0  0  0  0  0  0
   -0.3966    1.7953    0.2303 H   0  0  0  0  0  0  0  0  0  0  0  0
    2.3271    8.0082   -0.0968 H   0  0  0  0  0  0  0  0  0  0  0  0
    2.3975    8.4730    2.5925 H   0  0  0  0  0  0  0  0  0  0  0  0
    2.4494    5.9580    3.6714 H   0  0  0  0  0  0  0  0  0  0  0  0
    2.4795    5.9433   -1.7533 H   0  0  0  0  0  0  0  0  0  0  0  0
  1  4  1  0  0  0  0
  1  2  1  0  0  0  0
  2 11  1  0  0  0  0
  3  1  1  0  0  0  0
  5  1  1  0  0  0  0
  6  1  1  0  0  0  0
  7  1  1  0  0  0  0
  7 25  1  0  0  0  0
  8 17  1  6  0  0  0
  8  5  1  0  0  0  0
  9 20  1  6  0  0  0
  9 26  1  0  0  0  0
  9  6  1  0  0  0  0
 10 23  1  1  0  0  0
 10  7  1  0  0  0  0
 11 12  2  0  0  0  0
 11 16  1  0  0  0  0
 12 13  1  0  0  0  0
 13 28  1  0  0  0  0
 13 14  2  0  0  0  0
 14 29  1  0  0  0  0
 15 30  1  0  0  0  0
 15 14  1  0  0  0  0
 16 15  2  0  0  0  0
 17 18  1  0  0  0  0
 18 19  2  0  0  0  0
 19  5  1  0  0  0  0
 19 34  1  0  0  0  0
 20 21  1  0  0  0  0
 21 22  2  0  0  0  0
 22  6  1  0  0  0  0
 22 37  1  0  0  0  0
 23 24  1  0  0  0  0
 24 39  1  0  0  0  0
 24 25  2  0  0  0  0
 25 40  1  0  0  0  0
 26 41  1  6  0  0  0
 26  8  1  0  0  0  0
 26 10  1  0  0  0  0
 27 12  1  0  0  0  0
 31 16  1  0  0  0  0
 32 17  1  0  0  0  0
 33 18  1  0  0  0  0
 35 20  1  0  0  0  0
 36 21  1  0  0  0  0
 38 23  1  0  0  0  0
M  END
$$$$
