CSD_code = KIWLUY | q = 0 | S = 0 | Stoichiometry = C15H9Cl2N3O2Ru | MND = 6
 OpenBabel04212202063D

 32 36  0  0  1  0  0  0  0  0999 V2000
    5.7488   11.1611   -4.1583 Ru  0  0  0  0  0  0  0  0  0  0  0  0
    4.9260   11.5840   -6.3359 Cl  0  0  0  0  0  0  0  0  0  0  0  0
    6.5221   10.4965   -2.0227 Cl  0  0  0  0  0  0  0  0  0  0  0  0
    3.1796   12.0944   -2.9735 O   0  0  0  0  0  0  0  0  0  0  0  0
    6.4842   14.0403   -3.7005 O   0  0  0  0  0  1  0  0  0  0  0  0
    7.5515   10.3826   -5.0232 N   0  0  0  0  0  0  0  0  0  0  0  0
    5.3194    9.3092   -4.4652 N   0  0  0  0  0  0  0  0  0  0  0  0
    3.3107    9.8781   -3.5805 N   0  0  0  0  0  0  0  0  0  0  0  0
    3.9152   11.2914   -3.4478 C   0  0  0  0  0  0  0  0  0  0  0  0
    6.1868   12.9535   -3.8671 C   0  0  0  0  0  2  0  0  0  0  0  0
    8.6793   11.0306   -5.2831 C   0  0  0  0  0  3  0  0  0  0  0  0
    9.7840   10.4205   -5.8506 C   0  0  0  0  0  0  0  0  0  0  0  0
    9.7144    9.0680   -6.1635 C   0  0  0  0  0  0  0  0  0  0  0  0
    8.5466    8.3842   -5.8976 C   0  0  0  0  0  0  0  0  0  0  0  0
    7.4687    9.0649   -5.3235 C   0  0  0  0  0  0  0  0  0  0  0  0
    6.1935    8.4457   -5.0045 C   0  0  2  0  0  3  0  0  0  0  0  0
    5.8197    7.1038   -5.2012 C   0  0  0  0  0  0  0  0  0  0  0  0
    4.5653    6.6755   -4.8449 C   0  0  0  0  0  0  0  0  0  0  0  0
    3.6417    7.5871   -4.2766 C   0  0  0  0  0  0  0  0  0  0  0  0
    2.3305    7.3049   -3.8647 C   0  0  0  0  0  0  0  0  0  0  0  0
    1.5515    8.3188   -3.3248 C   0  0  0  0  0  0  0  0  0  0  0  0
    2.0631    9.5956   -3.1927 C   0  0  0  0  0  3  0  0  0  0  0  0
    4.1027    8.9166   -4.1138 C   0  0  0  0  0  0  0  0  0  0  0  0
    8.6973   12.0820   -5.0258 H   0  0  0  0  0  0  0  0  0  0  0  0
   10.6777   10.9915   -6.0427 H   0  0  0  0  0  0  0  0  0  0  0  0
   10.5577    8.5608   -6.6067 H   0  0  0  0  0  0  0  0  0  0  0  0
    8.4611    7.3348   -6.1291 H   0  0  0  0  0  0  0  0  0  0  0  0
    6.5219    6.4096   -5.6336 H   0  0  0  0  0  0  0  0  0  0  0  0
    4.2680    5.6491   -4.9912 H   0  0  0  0  0  0  0  0  0  0  0  0
    1.9406    6.3047   -3.9714 H   0  0  0  0  0  0  0  0  0  0  0  0
    0.5419    8.1190   -3.0043 H   0  0  0  0  0  0  0  0  0  0  0  0
    1.5079   10.4266   -2.7802 H   0  0  0  0  0  0  0  0  0  0  0  0
  1 10  1  0  0  0  0
  1  9  1  0  0  0  0
  1  3  1  0  0  0  0
  2  1  1  0  0  0  0
  6  1  1  0  0  0  0
  7  1  1  0  0  0  0
  7 23  1  0  0  0  0
  8  9  1  0  0  0  0
  8 22  1  0  0  0  0
  9  4  2  0  0  0  0
 10  5  1  0  0  0  0
 11 24  1  0  0  0  0
 11  6  1  0  0  0  0
 12 11  1  0  0  0  0
 13 14  1  0  0  0  0
 13 12  2  0  0  0  0
 14 15  2  0  0  0  0
 15  6  1  0  0  0  0
 16 15  1  6  0  0  0
 16  7  1  0  0  0  0
 17 16  1  0  0  0  0
 17 18  2  0  0  0  0
 18 19  1  0  0  0  0
 19 23  2  0  0  0  0
 19 20  1  0  0  0  0
 20 21  2  0  0  0  0
 21 22  1  0  0  0  0
 21 31  1  0  0  0  0
 22 32  1  0  0  0  0
 23  8  1  0  0  0  0
 25 12  1  0  0  0  0
 26 13  1  0  0  0  0
 27 14  1  0  0  0  0
 28 17  1  0  0  0  0
 29 18  1  0  0  0  0
 30 20  1  0  0  0  0
M  END
$$$$
