CSD_code = KIWNIO | q = 0 | S = 0 | Stoichiometry = C14H16Cl2N2Zn | MND = 4
 OpenBabel04212202063D

 35 37  0  0  1  0  0  0  0  0999 V2000
    0.4800   11.9953    9.8587 Zn  0  0  0  0  0  0  0  0  0  0  0  0
   -1.3124   12.4373    8.6816 Cl  0  0  0  0  0  0  0  0  0  0  0  0
    2.0658   13.1737   10.8652 Cl  0  0  0  0  0  0  0  0  0  0  0  0
    1.5511   10.4137    8.8928 N   0  0  0  0  0  0  0  0  0  0  0  0
    0.3542   10.3815   11.3435 N   0  0  0  0  0  4  0  0  0  0  0  0
   -0.3462    9.6913   11.0729 H   0  0  0  0  0  0  0  0  0  0  0  0
    1.8574   10.2868    7.6089 C   0  0  0  0  0  3  0  0  0  0  0  0
    1.4115   11.0122    6.9437 H   0  0  0  0  0  0  0  0  0  0  0  0
    2.6916    9.2868    7.1410 C   0  0  0  0  0  0  0  0  0  0  0  0
    2.9191    9.2147    6.0900 H   0  0  0  0  0  0  0  0  0  0  0  0
    3.2215    8.3876    8.0548 C   0  0  0  0  0  0  0  0  0  0  0  0
    3.8771    7.5940    7.7300 H   0  0  0  0  0  0  0  0  0  0  0  0
    2.8903    8.5200    9.3921 C   0  0  0  0  0  0  0  0  0  0  0  0
    3.2795    7.8380   10.1321 H   0  0  0  0  0  0  0  0  0  0  0  0
    2.0452    9.5543    9.7784 C   0  0  0  0  0  0  0  0  0  0  0  0
    1.6788    9.7793   11.2167 C   0  0  0  0  0  0  0  0  0  0  0  0
    1.7658    8.8423   11.7829 H   0  0  0  0  0  0  0  0  0  0  0  0
    2.3975   10.5011   11.6246 H   0  0  0  0  0  0  0  0  0  0  0  0
    0.0602   10.8138   12.7197 C   0  0  1  0  0  0  0  0  0  0  0  0
    0.8308   11.5453   12.9868 H   0  0  0  0  0  0  0  0  0  0  0  0
   -1.2999   11.5048   12.7478 C   0  0  0  0  0  0  0  0  0  0  0  0
   -1.3008   12.3492   12.0584 H   0  0  0  0  0  0  0  0  0  0  0  0
   -1.5070   11.8725   13.7493 H   0  0  0  0  0  0  0  0  0  0  0  0
   -2.0930   10.8183   12.4596 H   0  0  0  0  0  0  0  0  0  0  0  0
    0.1024    9.6595   13.6972 C   0  0  0  0  0  0  0  0  0  0  0  0
   -0.6832    8.5292   13.5008 C   0  0  0  0  0  0  0  0  0  0  0  0
   -1.3433    8.4661   12.6461 H   0  0  0  0  0  0  0  0  0  0  0  0
   -0.6395    7.4770   14.3978 C   0  0  0  0  0  0  0  0  0  0  0  0
   -1.2560    6.6055   14.2330 H   0  0  0  0  0  0  0  0  0  0  0  0
    0.1881    7.5422   15.5058 C   0  0  0  0  0  0  0  0  0  0  0  0
    0.2204    6.7213   16.2063 H   0  0  0  0  0  0  0  0  0  0  0  0
    0.9717    8.6646   15.7117 C   0  0  0  0  0  0  0  0  0  0  0  0
    1.6190    8.7222   16.5739 H   0  0  0  0  0  0  0  0  0  0  0  0
    0.9307    9.7142   14.8105 C   0  0  0  0  0  0  0  0  0  0  0  0
    1.5454   10.5879   14.9714 H   0  0  0  0  0  0  0  0  0  0  0  0
  1  3  1  0  0  0  0
  1  5  1  0  0  0  0
  2  1  1  0  0  0  0
  4 15  1  0  0  0  0
  4  1  1  0  0  0  0
  5 19  1  0  0  0  0
  6  5  1  0  0  0  0
  7  4  1  0  0  0  0
  8  7  1  0  0  0  0
  9  7  1  0  0  0  0
  9 11  2  0  0  0  0
 10  9  1  0  0  0  0
 11 13  1  0  0  0  0
 12 11  1  0  0  0  0
 13 15  2  0  0  0  0
 13 14  1  0  0  0  0
 15 16  1  0  0  0  0
 16  5  1  0  0  0  0
 16 18  1  0  0  0  0
 16 17  1  0  0  0  0
 19 21  1  0  0  0  0
 19 20  1  1  0  0  0
 19 25  1  0  0  0  0
 21 23  1  0  0  0  0
 22 21  1  0  0  0  0
 24 21  1  0  0  0  0
 25 34  1  0  0  0  0
 26 25  2  0  0  0  0
 26 28  1  0  0  0  0
 27 26  1  0  0  0  0
 28 30  2  0  0  0  0
 29 28  1  0  0  0  0
 30 32  1  0  0  0  0
 30 31  1  0  0  0  0
 32 33  1  0  0  0  0
 34 35  1  0  0  0  0
 34 32  2  0  0  0  0
M  END
$$$$
