CSD_code = KIWNOT | q = 0 | S = 0 | Stoichiometry = C28H28Cl2O2P2W | MND = 7
 OpenBabel04212202063D

 63 63  0  0  1  0  0  0  0  0999 V2000
   -0.9662    5.3400    8.0797 W   0  0  0  0  0  0  0  0  0  0  0  0
    0.9304    3.9330    7.7183 Cl  0  0  0  0  0 15  0  0  0  0  0  0
   -1.7319    3.3604    9.1795 Cl  0  0  0  0  0 15  0  0  0  0  0  0
    0.1180    6.1833    5.9938 P   0  0  0  0  0  0  0  0  0  0  0  0
   -3.2706    3.8470    6.7276 P   0  0  0  0  0  0  0  0  0  0  0  0
   -0.2870    6.2405    9.3143 O   0  0  0  0  0  1  0  0  0  0  0  0
   -1.8887    4.3394    6.3591 O   0  0  0  0  0  0  0  0  0  0  0  0
   -2.4604    6.8384    7.5974 C   0  0  0  0  0  3  0  0  0  0  0  0
   -2.9993    5.8767    8.5524 C   0  0  1  0  0  0  0  0  0  0  0  0
   -4.0457    4.8891    8.0446 C   0  0  0  0  0  0  0  0  0  0  0  0
    0.7976    4.9704    4.7877 C   0  0  0  0  0  0  0  0  0  0  0  0
   -4.2660    4.0639    5.2039 C   0  0  0  0  0  0  0  0  0  0  0  0
   -4.8172    5.2950    4.8742 C   0  0  0  0  0  0  0  0  0  0  0  0
   -5.4608    5.4710    3.6621 C   0  0  0  0  0  0  0  0  0  0  0  0
   -5.5508    4.4199    2.7651 C   0  0  0  0  0  0  0  0  0  0  0  0
   -4.9911    3.1932    3.0819 C   0  0  0  0  0  0  0  0  0  0  0  0
   -4.3488    3.0169    4.2947 C   0  0  0  0  0  0  0  0  0  0  0  0
   -3.3083    2.0592    7.0093 C   0  0  0  0  0  0  0  0  0  0  0  0
   -2.1407    1.3304    6.8231 C   0  0  0  0  0  0  0  0  0  0  0  0
   -2.1576   -0.0389    7.0094 C   0  0  0  0  0  0  0  0  0  0  0  0
   -3.3340   -0.6730    7.3779 C   0  0  0  0  0  0  0  0  0  0  0  0
   -4.4974    0.0580    7.5590 C   0  0  0  0  0  0  0  0  0  0  0  0
   -4.4892    1.4285    7.3722 C   0  0  0  0  0  0  0  0  0  0  0  0
   -0.8884    7.2350    4.8897 C   0  0  0  0  0  0  0  0  0  0  0  0
   -0.9456    8.6108    5.0935 C   0  0  0  0  0  0  0  0  0  0  0  0
   -1.7782    9.3963    4.3181 C   0  0  0  0  0  0  0  0  0  0  0  0
   -2.5750    8.8151    3.3442 C   0  0  0  0  0  0  0  0  0  0  0  0
   -2.5406    7.4439    3.1518 C   0  0  0  0  0  0  0  0  0  0  0  0
   -1.7053    6.6558    3.9229 C   0  0  0  0  0  0  0  0  0  0  0  0
    1.5771    7.2195    6.3125 C   0  0  0  0  0  0  0  0  0  0  0  0
    2.0209    7.3640    7.6221 C   0  0  0  0  0  0  0  0  0  0  0  0
    3.1556    8.1133    7.8854 C   0  0  0  0  0  0  0  0  0  0  0  0
    3.8439    8.7203    6.8479 C   0  0  0  0  0  0  0  0  0  0  0  0
    3.3966    8.5846    5.5425 C   0  0  0  0  0  0  0  0  0  0  0  0
    2.2673    7.8352    5.2719 C   0  0  0  0  0  0  0  0  0  0  0  0
   -2.9431    6.8565    6.6135 H   0  0  0  0  0  0  0  0  0  0  0  0
   -2.3186    7.8504    7.9838 H   0  0  0  0  0  0  0  0  0  0  0  0
   -3.2491    6.2651    9.5456 H   0  0  0  0  0  0  0  0  0  0  0  0
   -4.3636    4.2207    8.8501 H   0  0  0  0  0  0  0  0  0  0  0  0
   -4.9405    5.3791    7.6428 H   0  0  0  0  0  0  0  0  0  0  0  0
    1.7107    4.5491    5.2052 H   0  0  0  0  0  0  0  0  0  0  0  0
    0.0818    4.1625    4.6381 H   0  0  0  0  0  0  0  0  0  0  0  0
    1.0042    5.4681    3.8404 H   0  0  0  0  0  0  0  0  0  0  0  0
   -4.7430    6.1265    5.5603 H   0  0  0  0  0  0  0  0  0  0  0  0
   -5.8903    6.4315    3.4183 H   0  0  0  0  0  0  0  0  0  0  0  0
   -6.0534    4.5570    1.8192 H   0  0  0  0  0  0  0  0  0  0  0  0
   -5.0535    2.3726    2.3826 H   0  0  0  0  0  0  0  0  0  0  0  0
   -3.9091    2.0609    4.5429 H   0  0  0  0  0  0  0  0  0  0  0  0
   -1.2249    1.8490    6.5664 H   0  0  0  0  0  0  0  0  0  0  0  0
   -1.2514   -0.6108    6.8785 H   0  0  0  0  0  0  0  0  0  0  0  0
   -3.3433   -1.7419    7.5314 H   0  0  0  0  0  0  0  0  0  0  0  0
   -5.4101   -0.4403    7.8506 H   0  0  0  0  0  0  0  0  0  0  0  0
   -5.3891    2.0122    7.5080 H   0  0  0  0  0  0  0  0  0  0  0  0
   -0.3318    9.0568    5.8639 H   0  0  0  0  0  0  0  0  0  0  0  0
   -1.8110   10.4641    4.4761 H   0  0  0  0  0  0  0  0  0  0  0  0
   -3.2264    9.4298    2.7407 H   0  0  0  0  0  0  0  0  0  0  0  0
   -3.1687    6.9843    2.4023 H   0  0  0  0  0  0  0  0  0  0  0  0
   -1.6976    5.5841    3.7815 H   0  0  0  0  0  0  0  0  0  0  0  0
    1.4648    6.8894    8.4298 H   0  0  0  0  0  0  0  0  0  0  0  0
    3.5025    8.2232    8.9016 H   0  0  0  0  0  0  0  0  0  0  0  0
    4.7294    9.3031    7.0542 H   0  0  0  0  0  0  0  0  0  0  0  0
    3.9310    9.0632    4.7348 H   0  0  0  0  0  0  0  0  0  0  0  0
    1.9120    7.7358    4.2554 H   0  0  0  0  0  0  0  0  0  0  0  0
  1  9  1  0  0  0  0
  1  6  1  0  0  0  0
  4 30  1  0  0  0  0
  5 18  1  0  0  0  0
  5 10  1  0  0  0  0
  7  5  2  0  0  0  0
  8 37  1  0  0  0  0
  8  9  1  0  0  0  0
  9 38  1  1  0  0  0
 10  9  1  0  0  0  0
 10 39  1  0  0  0  0
 11 41  1  0  0  0  0
 11  4  1  0  0  0  0
 12  5  1  0  0  0  0
 13 12  1  0  0  0  0
 13 44  1  0  0  0  0
 14 13  2  0  0  0  0
 15 16  2  0  0  0  0
 15 14  1  0  0  0  0
 16 17  1  0  0  0  0
 17 48  1  0  0  0  0
 17 12  2  0  0  0  0
 18 23  1  0  0  0  0
 19 18  2  0  0  0  0
 19 20  1  0  0  0  0
 20 21  2  0  0  0  0
 21 51  1  0  0  0  0
 21 22  1  0  0  0  0
 22 52  1  0  0  0  0
 23 53  1  0  0  0  0
 23 22  2  0  0  0  0
 24 25  1  0  0  0  0
 24  4  1  0  0  0  0
 25 54  1  0  0  0  0
 26 55  1  0  0  0  0
 26 25  2  0  0  0  0
 27 26  1  0  0  0  0
 28 27  2  0  0  0  0
 28 29  1  0  0  0  0
 29 24  2  0  0  0  0
 30 31  1  0  0  0  0
 31 32  2  0  0  0  0
 31 59  1  0  0  0  0
 32 60  1  0  0  0  0
 33 61  1  0  0  0  0
 33 32  1  0  0  0  0
 34 33  2  0  0  0  0
 35 34  1  0  0  0  0
 35 30  2  0  0  0  0
 36  8  1  0  0  0  0
 40 10  1  0  0  0  0
 42 11  1  0  0  0  0
 43 11  1  0  0  0  0
 45 14  1  0  0  0  0
 46 15  1  0  0  0  0
 47 16  1  0  0  0  0
 49 19  1  0  0  0  0
 50 20  1  0  0  0  0
 56 27  1  0  0  0  0
 57 28  1  0  0  0  0
 58 29  1  0  0  0  0
 62 34  1  0  0  0  0
 63 35  1  0  0  0  0
M  END
$$$$
