CSD_code = KIWSEP | q = 0 | S = 0 | Stoichiometry = C32H12Cl2N12Zn | MND = 6
 OpenBabel04212202063D

 59 68  0  0  0  0  0  0  0  0999 V2000
    5.4759    4.2949   20.8197 Zn  0  0  0  0  0  0  0  0  0  0  0  0
    4.6599    5.6161   22.5385 Cl  0  0  0  0  0  0  0  0  0  0  0  0
    5.7736    2.6961   19.3239 N   0  0  0  0  0  0  0  0  0  0  0  0
    6.8701    1.9967   19.1345 C   0  0  0  0  0  0  0  0  0  0  0  0
    7.4258    1.7449   20.0269 H   0  0  0  0  0  0  0  0  0  0  0  0
    7.3168    1.6009   17.8733 C   0  0  0  0  0  0  0  0  0  0  0  0
    8.2332    1.0412   17.7740 H   0  0  0  0  0  0  0  0  0  0  0  0
    6.5737    1.9502   16.7683 C   0  0  0  0  0  0  0  0  0  0  0  0
    6.8703    1.6828   15.7658 H   0  0  0  0  0  0  0  0  0  0  0  0
    5.3974    2.6859   16.9558 C   0  0  0  0  0  0  0  0  0  0  0  0
    4.5680    3.1028   15.8544 C   0  0  0  0  0  0  0  0  0  0  0  0
    3.4036    3.8787   16.0900 C   0  0  0  0  0  0  0  0  0  0  0  0
    3.0474    4.2621   17.4323 C   0  0  0  0  0  0  0  0  0  0  0  0
    1.9329    5.0631   17.7116 C   0  0  0  0  0  0  0  0  0  0  0  0
    1.3125    5.3996   16.8952 H   0  0  0  0  0  0  0  0  0  0  0  0
    1.6751    5.4045   19.0204 C   0  0  0  0  0  0  0  0  0  0  0  0
    0.8333    6.0263   19.2795 H   0  0  0  0  0  0  0  0  0  0  0  0
    2.5393    4.9514   20.0179 C   0  0  0  0  0  0  0  0  0  0  0  0
    2.3940    5.2201   21.0556 H   0  0  0  0  0  0  0  0  0  0  0  0
    3.5916    4.2003   19.7654 N   0  0  0  0  0  0  0  0  0  0  0  0
    5.0398    3.0501   18.2655 C   0  0  0  0  0  0  0  0  0  0  0  0
    3.8583    3.8502   18.5033 C   0  0  0  0  0  0  0  0  0  0  0  0
    4.9100    2.7474   14.6179 N   0  0  0  0  0  0  0  0  0  0  0  0
    2.6262    4.2634   15.0805 N   0  0  0  0  0  0  0  0  0  0  0  0
    4.1423    3.1429   13.6182 C   0  0  0  0  0  0  0  0  0  0  0  0
    2.9743    3.9153   13.8546 C   0  0  0  0  0  0  0  0  0  0  0  0
    4.4969    2.7698   12.2954 C   0  0  0  0  0  0  0  0  0  0  0  0
    2.1513    4.3169   12.7702 C   0  0  0  0  0  0  0  0  0  0  0  0
    4.7551    2.4786   11.2189 N   0  0  0  0  0  0  0  0  0  0  0  0
    1.5040    4.6212   11.8764 N   0  0  0  0  0  0  0  0  0  0  0  0
    6.2896    5.6229   19.1081 Cl  0  0  0  0  0  0  0  0  0  0  0  0
    5.1774    2.6882   22.3063 N   0  0  0  0  0  0  0  0  0  0  0  0
    4.0830    1.9838   22.4885 C   0  0  0  0  0  0  0  0  0  0  0  0
    3.5338    1.7302   21.5925 H   0  0  0  0  0  0  0  0  0  0  0  0
    3.6306    1.5844   23.7465 C   0  0  0  0  0  0  0  0  0  0  0  0
    2.7164    1.0202   23.8396 H   0  0  0  0  0  0  0  0  0  0  0  0
    4.3651    1.9366   24.8563 C   0  0  0  0  0  0  0  0  0  0  0  0
    4.0634    1.6674   25.8568 H   0  0  0  0  0  0  0  0  0  0  0  0
    5.5391    2.6779   24.6767 C   0  0  0  0  0  0  0  0  0  0  0  0
    6.3587    3.0997   25.7836 C   0  0  0  0  0  0  0  0  0  0  0  0
    7.5206    3.8815   25.5558 C   0  0  0  0  0  0  0  0  0  0  0  0
    7.8858    4.2637   24.2155 C   0  0  0  0  0  0  0  0  0  0  0  0
    8.9996    5.0679   23.9431 C   0  0  0  0  0  0  0  0  0  0  0  0
    9.6131    5.4076   24.7635 H   0  0  0  0  0  0  0  0  0  0  0  0
    9.2657    5.4085   22.6358 C   0  0  0  0  0  0  0  0  0  0  0  0
   10.1074    6.0325   22.3818 H   0  0  0  0  0  0  0  0  0  0  0  0
    8.4096    4.9521   21.6328 C   0  0  0  0  0  0  0  0  0  0  0  0
    8.5614    5.2203   20.5959 H   0  0  0  0  0  0  0  0  0  0  0  0
    7.3577    4.1983   21.8787 N   0  0  0  0  0  0  0  0  0  0  0  0
    5.9033    3.0443   23.3695 C   0  0  0  0  0  0  0  0  0  0  0  0
    7.0837    3.8483   23.1393 C   0  0  0  0  0  0  0  0  0  0  0  0
    6.0096    2.7435   27.0179 N   0  0  0  0  0  0  0  0  0  0  0  0
    8.2868    4.2741   26.5708 N   0  0  0  0  0  0  0  0  0  0  0  0
    6.7667    3.1458   28.0229 C   0  0  0  0  0  0  0  0  0  0  0  0
    7.9303    3.9272   27.7947 C   0  0  0  0  0  0  0  0  0  0  0  0
    6.4049    2.7711   29.3433 C   0  0  0  0  0  0  0  0  0  0  0  0
    8.7399    4.3391   28.8852 C   0  0  0  0  0  0  0  0  0  0  0  0
    6.1408    2.4784   30.4181 N   0  0  0  0  0  0  0  0  0  0  0  0
    9.3756    4.6526   29.7840 N   0  0  0  0  0  0  0  0  0  0  0  0
  1 49  1  0  0  0  0
  1 32  1  0  0  0  0
  1  2  1  0  0  0  0
  3  1  1  0  0  0  0
  4  3  1  0  0  0  0
  4  5  1  0  0  0  0
  6  4  2  0  0  0  0
  7  6  1  0  0  0  0
  8 10  2  0  0  0  0
  8  6  1  0  0  0  0
  9  8  1  0  0  0  0
 10 21  1  0  0  0  0
 11 12  1  0  0  0  0
 11 10  1  0  0  0  0
 12 13  1  0  0  0  0
 13 14  2  0  0  0  0
 13 22  1  0  0  0  0
 14 16  1  0  0  0  0
 15 14  1  0  0  0  0
 16 17  1  0  0  0  0
 16 18  2  0  0  0  0
 18 19  1  0  0  0  0
 20 18  1  0  0  0  0
 20  1  1  0  0  0  0
 21 22  2  0  0  0  0
 21  3  1  0  0  0  0
 22 20  1  0  0  0  0
 23 11  2  0  0  0  0
 24 12  2  0  0  0  0
 25 26  2  0  0  0  0
 25 23  1  0  0  0  0
 26 24  1  0  0  0  0
 27 25  1  0  0  0  0
 28 26  1  0  0  0  0
 29 27  3  0  0  0  0
 30 28  3  0  0  0  0
 31  1  1  0  0  0  0
 32 33  1  0  0  0  0
 32 50  1  0  0  0  0
 33 35  2  0  0  0  0
 34 33  1  0  0  0  0
 35 36  1  0  0  0  0
 35 37  1  0  0  0  0
 37 38  1  0  0  0  0
 39 37  2  0  0  0  0
 39 40  1  0  0  0  0
 40 52  1  0  0  0  0
 41 40  2  0  0  0  0
 41 53  1  0  0  0  0
 42 41  1  0  0  0  0
 43 42  2  0  0  0  0
 43 44  1  0  0  0  0
 45 43  1  0  0  0  0
 46 45  1  0  0  0  0
 47 49  1  0  0  0  0
 47 45  2  0  0  0  0
 48 47  1  0  0  0  0
 49 51  1  0  0  0  0
 50 39  1  0  0  0  0
 51 50  2  0  0  0  0
 51 42  1  0  0  0  0
 52 54  2  0  0  0  0
 53 55  2  0  0  0  0
 54 56  1  0  0  0  0
 55 54  1  0  0  0  0
 55 57  1  0  0  0  0
 56 58  3  0  0  0  0
 57 59  3  0  0  0  0
M  END
$$$$
