CSD_code = KIWXAS | q = 1 | S = 0 | Stoichiometry = C17H24ClFeN4O(1+) | MND = 6
 OpenBabel04212202063D

 48 52  0  0  1  0  0  0  0  0999 V2000
    2.4597    4.7659   15.7520 C   0  0  0  0  0  0  0  0  0  0  0  0
    1.8887    4.3501   16.5896 H   0  0  0  0  0  0  0  0  0  0  0  0
    2.6515    5.8206   15.9732 H   0  0  0  0  0  0  0  0  0  0  0  0
    3.7681    4.0337   15.5899 C   0  0  2  0  0  3  0  0  0  0  0  0
    4.8440    4.1799   16.4497 C   0  0  0  0  0  0  0  0  0  0  0  0
    4.7607    4.8146   17.3165 H   0  0  0  0  0  0  0  0  0  0  0  0
    6.0246    3.5098   16.1641 C   0  0  0  0  0  0  0  0  0  0  0  0
    6.8734    3.5934   16.8228 H   0  0  0  0  0  0  0  0  0  0  0  0
    6.1141    2.7704   14.9913 C   0  0  0  0  0  0  0  0  0  0  0  0
    7.0368    2.2925   14.7058 H   0  0  0  0  0  0  0  0  0  0  0  0
    5.0011    2.6815   14.1762 C   0  0  0  0  0  0  0  0  0  0  0  0
    4.9744    2.0774   12.8048 C   0  0  0  0  0  0  0  0  0  0  0  0
    5.2633    2.8734   12.1125 H   0  0  0  0  0  0  0  0  0  0  0  0
    5.6799    1.2465   12.6949 H   0  0  0  0  0  0  0  0  0  0  0  0
    3.2789    0.4060   13.1351 C   0  0  0  0  0  0  0  0  0  0  0  0
    3.8672    0.3360   14.0511 H   0  0  0  0  0  0  0  0  0  0  0  0
    3.5381   -0.4469   12.4983 H   0  0  0  0  0  0  0  0  0  0  0  0
    1.7996    0.3795   13.4856 C   0  0  0  0  0  0  0  0  0  0  0  0
    1.2109    0.4300   12.5689 H   0  0  0  0  0  0  0  0  0  0  0  0
    1.5434   -0.5497   14.0081 H   0  0  0  0  0  0  0  0  0  0  0  0
    1.8061    1.3086   15.7018 C   0  0  0  0  0  0  0  0  0  0  0  0
    1.2387    0.4615   16.1005 H   0  0  0  0  0  0  0  0  0  0  0  0
    1.5686    2.1894   16.2892 H   0  0  0  0  0  0  0  0  0  0  0  0
    2.8663    1.0999   15.8128 H   0  0  0  0  0  0  0  0  0  0  0  0
    3.4454    1.5810   11.0262 C   0  0  0  0  0  0  0  0  0  0  0  0
    3.5842    2.5691   10.5955 H   0  0  0  0  0  0  0  0  0  0  0  0
    2.4438    1.2365   10.7823 H   0  0  0  0  0  0  0  0  0  0  0  0
    4.1748    0.8933   10.5879 H   0  0  0  0  0  0  0  0  0  0  0  0
    0.0673    1.9029   14.1767 C   0  0  0  0  0  0  0  0  0  0  0  0
   -0.1438    2.7083   14.8848 H   0  0  0  0  0  0  0  0  0  0  0  0
   -0.5850    1.0528   14.4113 H   0  0  0  0  0  0  0  0  0  0  0  0
   -0.1895    2.4247   12.7948 C   0  0  1  0  0  3  0  0  0  0  0  0
   -1.4212    2.3389   12.1699 C   0  0  0  0  0  0  0  0  0  0  0  0
   -2.2469    1.8577   12.6696 H   0  0  0  0  0  0  0  0  0  0  0  0
   -1.5735    2.8883   10.9051 C   0  0  0  0  0  0  0  0  0  0  0  0
   -2.5230    2.8393   10.3970 H   0  0  0  0  0  0  0  0  0  0  0  0
   -0.4781    3.5010   10.3170 C   0  0  0  0  0  0  0  0  0  0  0  0
   -0.5473    3.9488    9.3397 H   0  0  0  0  0  0  0  0  0  0  0  0
    0.7201    3.5330   11.0067 C   0  0  0  0  0  0  0  0  0  0  0  0
    1.5937    4.0122   10.5964 H   0  0  0  0  0  0  0  0  0  0  0  0
    3.8380    3.2492   14.5121 N   0  0  0  0  0  0  0  0  0  0  0  0
    3.5998    1.6778   12.4718 N   0  0  2  0  0  4  0  0  0  0  0  0
    1.4830    1.5555   14.3047 N   0  0  2  0  0  4  0  0  0  0  0  0
    0.8705    3.0065   12.2197 N   0  0  0  0  0  0  0  0  0  0  0  0
    1.6416    4.6419   14.5949 O   0  0  0  0  0  0  0  0  0  0  0  0
    3.2800    4.7520   12.2426 Cl  0  0  0  0  0  0  0  0  0  0  0  0
    2.4135    3.0860   13.3630 Fe  0  0  0  0  0  0  0  0  0  0  0  0
    1.9663    5.2847   13.9318 H   0  0  0  0  0  0  0  0  0  0  0  0
  1  3  1  0  0  0  0
  1  2  1  0  0  0  0
  4  1  1  6  0  0  0
  4  5  1  0  0  0  0
  5  6  1  0  0  0  0
  7  5  2  0  0  0  0
  7  8  1  0  0  0  0
  9  7  1  0  0  0  0
 10  9  1  0  0  0  0
 11 41  1  0  0  0  0
 11  9  2  0  0  0  0
 12 11  1  0  0  0  0
 13 12  1  0  0  0  0
 14 12  1  0  0  0  0
 15 18  1  0  0  0  0
 15 16  1  0  0  0  0
 17 15  1  0  0  0  0
 18 20  1  0  0  0  0
 18 43  1  0  0  0  0
 19 18  1  0  0  0  0
 21 24  1  0  0  0  0
 21 22  1  0  0  0  0
 21 23  1  0  0  0  0
 26 25  1  0  0  0  0
 27 25  1  0  0  0  0
 28 25  1  0  0  0  0
 29 43  1  0  0  0  0
 29 31  1  0  0  0  0
 29 30  1  0  0  0  0
 32 33  1  1  0  0  0
 32 29  1  0  0  0  0
 33 34  1  0  0  0  0
 35 33  2  0  0  0  0
 36 35  1  0  0  0  0
 37 35  1  0  0  0  0
 37 39  2  0  0  0  0
 38 37  1  0  0  0  0
 39 44  1  0  0  0  0
 40 39  1  0  0  0  0
 41  4  1  0  0  0  0
 42 25  1  6  0  0  0
 42 12  1  0  0  0  0
 42 15  1  0  0  0  0
 42 47  1  0  0  0  0
 43 21  1  1  0  0  0
 44 32  1  0  0  0  0
 44 47  1  0  0  0  0
 45  1  1  0  0  0  0
 46 47  1  0  0  0  0
 47 43  1  0  0  0  0
 47 41  1  0  0  0  0
 48 45  1  0  0  0  0
M  END
$$$$
