CSD_code = KIWYIB | q = 0 | S = 0 | Stoichiometry = C18H22I2N4OPd | MND = 4
 OpenBabel04212202063D

 48 50  0  0  0  0  0  0  0  0999 V2000
   -0.3261    6.8081    6.5066 Pd  0  0  0  0  0  0  0  0  0  0  0  0
    1.7801    5.2296    6.3582 I   0  0  0  0  0  0  0  0  0  0  0  0
   -2.5691    8.1128    6.8045 I   0  0  0  0  0  0  0  0  0  0  0  0
    1.0199    7.7518   10.2719 N   0  0  0  0  0  0  0  0  0  0  0  0
   -1.0473    5.9709    4.8270 N   0  0  0  0  0  0  0  0  0  0  0  0
    1.1054    8.9466    9.7578 N   0  0  0  0  0  2  0  0  0  0  0  0
    0.3131    7.5683    8.1996 C   0  0  0  0  0  0  0  0  0  0  0  0
    0.6698    8.8373    8.5188 N   0  0  0  0  0  0  0  0  0  0  0  0
    0.5307    6.8646    9.3788 C   0  0  0  0  0  0  0  0  0  0  0  0
    0.4422   10.0028    7.7399 C   0  0  0  0  0  0  0  0  0  0  0  0
   -0.6842    5.3726   10.8246 O   0  0  0  0  0  0  0  0  0  0  0  0
   -1.5578    5.6902   10.5667 H   0  0  0  0  0  0  0  0  0  0  0  0
    0.9822   10.1177    6.4568 C   0  0  0  0  0  0  0  0  0  0  0  0
    0.1801    5.4490    9.7108 C   0  0  0  0  0  0  0  0  0  0  0  0
   -0.2763    4.9879    8.8164 H   0  0  0  0  0  0  0  0  0  0  0  0
    1.0756    4.8782    9.9763 H   0  0  0  0  0  0  0  0  0  0  0  0
    0.6968   11.2586    5.7219 C   0  0  0  0  0  0  0  0  0  0  0  0
    1.1078   11.3546    4.7270 H   0  0  0  0  0  0  0  0  0  0  0  0
   -1.0152   10.8597    9.6201 C   0  0  0  0  0  0  0  0  0  0  0  0
   -1.5803    9.9292    9.6718 H   0  0  0  0  0  0  0  0  0  0  0  0
   -0.2648   10.8546   10.4084 H   0  0  0  0  0  0  0  0  0  0  0  0
   -1.7034   11.6810    9.7966 H   0  0  0  0  0  0  0  0  0  0  0  0
    1.8283    9.0403    5.8507 C   0  0  0  0  0  0  0  0  0  0  0  0
    2.4292    9.4383    5.0363 H   0  0  0  0  0  0  0  0  0  0  0  0
    2.4949    8.5831    6.5837 H   0  0  0  0  0  0  0  0  0  0  0  0
    1.1729    8.2496    5.4253 H   0  0  0  0  0  0  0  0  0  0  0  0
   -0.6330   12.1244    7.5005 C   0  0  0  0  0  0  0  0  0  0  0  0
   -1.2753   12.8948    7.9003 H   0  0  0  0  0  0  0  0  0  0  0  0
   -0.3769   11.0032    8.2732 C   0  0  0  0  0  0  0  0  0  0  0  0
   -1.0237    6.5423    3.6290 C   0  0  0  0  0  3  0  0  0  0  0  0
   -0.5419    7.5159    3.5599 H   0  0  0  0  0  0  0  0  0  0  0  0
   -0.1053   12.2711    6.2267 C   0  0  0  0  0  0  0  0  0  0  0  0
   -1.6423    4.7908    4.9745 C   0  0  0  0  0  0  0  0  0  0  0  0
   -1.6372    4.3647    5.9803 H   0  0  0  0  0  0  0  0  0  0  0  0
    1.4335    7.4930   11.6191 C   0  0  0  0  0  0  0  0  0  0  0  0
    0.6944    6.8579   12.1074 H   0  0  0  0  0  0  0  0  0  0  0  0
    2.3970    6.9796   11.6197 H   0  0  0  0  0  0  0  0  0  0  0  0
    1.5283    8.4441   12.1382 H   0  0  0  0  0  0  0  0  0  0  0  0
   -2.2076    4.7130    2.6618 C   0  0  0  0  0  0  0  0  0  0  0  0
   -2.6597    4.2210    1.8144 H   0  0  0  0  0  0  0  0  0  0  0  0
   -1.5895    5.9449    2.5165 C   0  0  0  0  0  0  0  0  0  0  0  0
   -1.5472    6.4401    1.5595 H   0  0  0  0  0  0  0  0  0  0  0  0
   -2.2372    4.1265    3.9182 C   0  0  0  0  0  0  0  0  0  0  0  0
   -2.7106    3.1711    4.0787 H   0  0  0  0  0  0  0  0  0  0  0  0
   -0.3973   13.4831    5.3987 C   0  0  0  0  0  0  0  0  0  0  0  0
   -1.0014   14.1971    5.9515 H   0  0  0  0  0  0  0  0  0  0  0  0
    0.5297   13.9676    5.0948 H   0  0  0  0  0  0  0  0  0  0  0  0
   -0.9360   13.1990    4.4957 H   0  0  0  0  0  0  0  0  0  0  0  0
  1  3  1  0  0  0  0
  1  7  1  0  0  0  0
  2  1  1  0  0  0  0
  4 35  1  0  0  0  0
  5 33  1  0  0  0  0
  5  1  1  0  0  0  0
  6  4  1  0  0  0  0
  7  8  1  0  0  0  0
  7  9  2  0  0  0  0
  8  6  1  0  0  0  0
  9 14  1  0  0  0  0
  9  4  1  0  0  0  0
 10 29  1  0  0  0  0
 10  8  1  0  0  0  0
 12 11  1  0  0  0  0
 13 10  2  0  0  0  0
 14 16  1  0  0  0  0
 14 11  1  0  0  0  0
 15 14  1  0  0  0  0
 17 32  2  0  0  0  0
 17 13  1  0  0  0  0
 18 17  1  0  0  0  0
 19 20  1  0  0  0  0
 19 22  1  0  0  0  0
 19 21  1  0  0  0  0
 23 13  1  0  0  0  0
 23 25  1  0  0  0  0
 24 23  1  0  0  0  0
 26 23  1  0  0  0  0
 27 28  1  0  0  0  0
 27 29  2  0  0  0  0
 29 19  1  0  0  0  0
 30  5  1  0  0  0  0
 31 30  1  0  0  0  0
 32 27  1  0  0  0  0
 33 34  1  0  0  0  0
 35 37  1  0  0  0  0
 35 36  1  0  0  0  0
 35 38  1  0  0  0  0
 39 43  1  0  0  0  0
 40 39  1  0  0  0  0
 41 39  2  0  0  0  0
 41 30  1  0  0  0  0
 42 41  1  0  0  0  0
 43 44  1  0  0  0  0
 43 33  2  0  0  0  0
 45 46  1  0  0  0  0
 45 32  1  0  0  0  0
 47 45  1  0  0  0  0
 48 45  1  0  0  0  0
M  END
$$$$
