CSD_code = KIXSAM | q = 0 | S = 0 | Stoichiometry = C12H10BrMnN2O5 | MND = 6
 OpenBabel04212202063D

 31 32  0  0  0  0  0  0  0  0999 V2000
   10.2807    8.5181    4.9345 Mn  0  0  0  0  0  0  0  0  0  0  0  0
    8.5631    9.0879    3.2505 Br  0  0  0  0  0  0  0  0  0  0  0  0
    8.7974    7.5163    5.9043 N   0  0  0  0  0  0  0  0  0  0  0  0
   10.4035    6.7376    4.0086 N   0  0  0  0  0  0  0  0  0  0  0  0
   11.4947    8.0797    6.1520 C   0  0  0  0  0  2  0  0  0  0  0  0
   12.2946    7.7926    6.9276 O   0  0  0  0  0  1  0  0  0  0  0  0
   11.4822    9.3494    3.9063 C   0  0  0  0  0  2  0  0  0  0  0  0
   12.2243    9.9359    3.2540 O   0  0  0  0  0  1  0  0  0  0  0  0
    9.9531   10.0977    5.7084 C   0  0  0  0  0  2  0  0  0  0  0  0
    9.7538   11.1344    6.1572 O   0  0  0  0  0  1  0  0  0  0  0  0
   11.3234    6.3443    2.9685 C   0  0  0  0  0  0  0  0  0  0  0  0
   11.2866    7.0949    2.1713 H   0  0  0  0  0  0  0  0  0  0  0  0
   11.0339    5.3692    2.5552 H   0  0  0  0  0  0  0  0  0  0  0  0
   12.7551    6.2557    3.5046 C   0  0  0  0  0  0  0  0  0  0  0  0
   13.4356    5.9698    2.7008 H   0  0  0  0  0  0  0  0  0  0  0  0
   13.0926    7.2201    3.8939 H   0  0  0  0  0  0  0  0  0  0  0  0
   12.8755    5.2383    4.6172 C   0  0  0  0  0  0  0  0  0  0  0  0
   11.9886    4.5290    5.0130 O   0  0  0  0  0  0  0  0  0  0  0  0
   14.1077    5.2152    5.1206 O   0  0  0  0  0  0  0  0  0  0  0  0
   14.1774    4.5771    5.8488 H   0  0  0  0  0  0  0  0  0  0  0  0
    7.9776    7.9473    6.8599 C   0  0  0  0  0  3  0  0  0  0  0  0
    8.1618    8.9395    7.2528 H   0  0  0  0  0  0  0  0  0  0  0  0
    6.9232    7.1939    7.3452 C   0  0  0  0  0  0  0  0  0  0  0  0
    6.2877    7.6003    8.1153 H   0  0  0  0  0  0  0  0  0  0  0  0
    6.6978    5.9251    6.8253 C   0  0  0  0  0  0  0  0  0  0  0  0
    5.8807    5.3183    7.1831 H   0  0  0  0  0  0  0  0  0  0  0  0
    7.5425    5.4633    5.8366 C   0  0  0  0  0  0  0  0  0  0  0  0
    7.4143    4.4886    5.3932 H   0  0  0  0  0  0  0  0  0  0  0  0
    8.5814    6.2845    5.3972 C   0  0  0  0  0  0  0  0  0  0  0  0
    9.4996    5.8999    4.3563 C   0  0  0  0  0  3  0  0  0  0  0  0
    9.3971    4.9241    3.8878 H   0  0  0  0  0  0  0  0  0  0  0  0
  1  9  1  0  0  0  0
  1  3  1  0  0  0  0
  1  5  1  0  0  0  0
  2  1  1  0  0  0  0
  3 21  1  0  0  0  0
  4 30  1  0  0  0  0
  4  1  1  0  0  0  0
  5  6  1  0  0  0  0
  7  1  1  0  0  0  0
  8  7  1  0  0  0  0
  9 10  1  0  0  0  0
 11 14  1  0  0  0  0
 11  4  1  0  0  0  0
 12 11  1  0  0  0  0
 13 11  1  0  0  0  0
 14 16  1  0  0  0  0
 14 17  1  0  0  0  0
 15 14  1  0  0  0  0
 17 18  2  0  0  0  0
 17 19  1  0  0  0  0
 19 20  1  0  0  0  0
 21 22  1  0  0  0  0
 21 23  1  0  0  0  0
 23 24  1  0  0  0  0
 25 26  1  0  0  0  0
 25 23  2  0  0  0  0
 27 25  1  0  0  0  0
 28 27  1  0  0  0  0
 29 27  2  0  0  0  0
 29  3  1  0  0  0  0
 30 29  1  0  0  0  0
 31 30  1  0  0  0  0
M  END
$$$$
