CSD_code = KIXVOD | q = 0 | S = 0 | Stoichiometry = C19H17Cl2FeN5 | MND = 6
 OpenBabel04212202063D

 44 49  0  0  1  0  0  0  0  0999 V2000
    4.8421    2.7019   10.1715 Fe  0  0  0  0  0  0  0  0  0  0  0  0
    4.9959    4.5193   11.3531 Cl  0  0  0  0  0  0  0  0  0  0  0  0
    5.7729    3.7867    8.4855 Cl  0  0  0  0  0  0  0  0  0  0  0  0
    6.5555    1.9973   10.6125 N   0  0  0  0  0  0  0  0  0  0  0  0
    4.6059    1.0999    9.0289 N   0  0  1  0  0  4  0  0  0  0  0  0
    4.2223    1.6384   11.5962 N   0  0  0  0  0  0  0  0  0  0  0  0
    3.1215    3.1262    9.5788 N   0  0  0  0  0  0  0  0  0  0  0  0
    2.0855    4.5031   12.6244 N   0  0  0  0  0  0  0  0  0  0  0  0
    7.3542    2.3547   11.6129 C   0  0  0  0  0  3  0  0  0  0  0  0
    7.0678    3.2618   12.1247 H   0  0  0  0  0  0  0  0  0  0  0  0
    8.4781    1.6292   11.9629 C   0  0  0  0  0  0  0  0  0  0  0  0
    9.1008    1.9614   12.7775 H   0  0  0  0  0  0  0  0  0  0  0  0
    8.7838    0.4812   11.2488 C   0  0  0  0  0  0  0  0  0  0  0  0
    9.6491   -0.1140   11.4963 H   0  0  0  0  0  0  0  0  0  0  0  0
    7.9582    0.1180   10.1939 C   0  0  0  0  0  0  0  0  0  0  0  0
    8.1706   -0.7576    9.5997 H   0  0  0  0  0  0  0  0  0  0  0  0
    6.8598    0.9045    9.8974 C   0  0  0  0  0  0  0  0  0  0  0  0
    5.9637    0.6621    8.7155 C   0  0  0  0  0  0  0  0  0  0  0  0
    6.3377    1.3159    7.9209 H   0  0  0  0  0  0  0  0  0  0  0  0
    6.0048   -0.3817    8.3790 H   0  0  0  0  0  0  0  0  0  0  0  0
    3.8511    0.1018    9.7887 C   0  0  0  0  0  0  0  0  0  0  0  0
    4.1875   -0.9166    9.5575 H   0  0  0  0  0  0  0  0  0  0  0  0
    2.7943    0.1747    9.5108 H   0  0  0  0  0  0  0  0  0  0  0  0
    3.9445    0.3691   11.2636 C   0  0  2  0  0  3  0  0  0  0  0  0
    3.7141   -0.6147   12.2070 C   0  0  0  0  0  0  0  0  0  0  0  0
    3.5026   -1.6241   11.8877 H   0  0  0  0  0  0  0  0  0  0  0  0
    3.7514   -0.2841   13.5539 C   0  0  0  0  0  0  0  0  0  0  0  0
    3.5739   -1.0335   14.3090 H   0  0  0  0  0  0  0  0  0  0  0  0
    4.0169    1.0342   13.8944 C   0  0  0  0  0  0  0  0  0  0  0  0
    4.0438    1.3498   14.9242 H   0  0  0  0  0  0  0  0  0  0  0  0
    4.2508    1.9542   12.8926 C   0  0  0  0  0  0  0  0  0  0  0  0
    4.4541    2.9922   13.1052 H   0  0  0  0  0  0  0  0  0  0  0  0
    3.8410    1.5930    7.8791 C   0  0  0  0  0  0  0  0  0  0  0  0
    3.3656    0.7833    7.3104 H   0  0  0  0  0  0  0  0  0  0  0  0
    4.5293    2.1422    7.2305 H   0  0  0  0  0  0  0  0  0  0  0  0
    2.8271    2.5853    8.3837 C   0  0  2  0  0  3  0  0  0  0  0  0
    1.6904    2.9186    7.6757 C   0  0  0  0  0  0  0  0  0  0  0  0
    1.5072    2.4691    6.7121 H   0  0  0  0  0  0  0  0  0  0  0  0
    0.8035    3.8489    8.2119 C   0  0  0  0  0  0  0  0  0  0  0  0
   -0.0706    4.1569    7.6608 H   0  0  0  0  0  0  0  0  0  0  0  0
    1.0513    4.3348    9.4795 C   0  0  0  0  0  0  0  0  0  0  0  0
    0.3717    5.0134    9.9701 H   0  0  0  0  0  0  0  0  0  0  0  0
    2.2105    3.9321   10.1478 C   0  0  0  0  0  0  0  0  0  0  0  0
    2.3196    4.2942   11.5174 C   0  0  0  0  0  0  0  0  0  0  0  0
  1  4  1  0  0  0  0
  1  2  1  0  0  0  0
  1  6  1  0  0  0  0
  3  1  1  0  0  0  0
  4  9  1  0  0  0  0
  5 33  1  6  0  0  0
  5 21  1  0  0  0  0
  5  1  1  0  0  0  0
  6 31  1  0  0  0  0
  7 43  1  0  0  0  0
  7  1  1  0  0  0  0
  9 11  1  0  0  0  0
  9 10  1  0  0  0  0
 11 12  1  0  0  0  0
 13 14  1  0  0  0  0
 13 11  2  0  0  0  0
 15 13  1  0  0  0  0
 16 15  1  0  0  0  0
 17 15  2  0  0  0  0
 17  4  1  0  0  0  0
 18  5  1  0  0  0  0
 18 17  1  0  0  0  0
 19 18  1  0  0  0  0
 20 18  1  0  0  0  0
 21 24  1  0  0  0  0
 22 21  1  0  0  0  0
 23 21  1  0  0  0  0
 24  6  1  0  0  0  0
 24 25  1  1  0  0  0
 25 27  2  0  0  0  0
 26 25  1  0  0  0  0
 27 29  1  0  0  0  0
 27 28  1  0  0  0  0
 29 30  1  0  0  0  0
 31 32  1  0  0  0  0
 31 29  2  0  0  0  0
 33 36  1  0  0  0  0
 34 33  1  0  0  0  0
 35 33  1  0  0  0  0
 36 37  1  6  0  0  0
 36  7  1  0  0  0  0
 37 39  2  0  0  0  0
 38 37  1  0  0  0  0
 39 41  1  0  0  0  0
 40 39  1  0  0  0  0
 41 42  1  0  0  0  0
 41 43  2  0  0  0  0
 43 44  1  0  0  0  0
 44  8  3  0  0  0  0
M  END
$$$$
