CSD_code = KIYBIE | q = 0 | S = 0 | Stoichiometry = C8H8Cl2HgN2S2 | MND = 4
 OpenBabel04212202063D

 23 24  0  0  1  0  0  0  0  0999 V2000
    4.0317    1.3838    3.9194 Hg  0  0  0  0  0  0  0  0  0  0  0  0
    7.4047    4.3630    6.0867 S   0  0  0  0  0  0  0  0  0  0  0  0
    3.5979    1.7113    1.7068 Cl  0  0  0  0  0  0  0  0  0  0  0  0
    3.2949    0.8057    5.9928 Cl  0  0  0  0  0  0  0  0  0  0  0  0
    5.8836    2.8134    4.7623 N   0  0  0  0  0  0  0  0  0  0  0  0
    6.2043    0.2905    3.5954 N   0  0  0  0  0  0  0  0  0  0  0  0
    7.1217    2.2303    4.7391 C   0  0  0  0  0  0  0  0  0  0  0  0
    5.8581    3.9222    5.4235 C   0  0  0  0  0  0  0  0  0  0  0  0
    8.0771    2.9396    5.4083 C   0  0  0  0  0  0  0  0  0  0  0  0
    9.1122    2.7051    5.5467 H   0  0  0  0  0  0  0  0  0  0  0  0
    4.6569    4.7588    5.6263 C   0  0  0  0  0  0  0  0  0  0  0  0
    4.8254    5.7698    5.2579 H   0  0  0  0  0  0  0  0  0  0  0  0
    4.4159    4.8189    6.6872 H   0  0  0  0  0  0  0  0  0  0  0  0
    3.8115    4.3160    5.0973 H   0  0  0  0  0  0  0  0  0  0  0  0
    8.2111   -1.1010    2.8934 S   0  0  0  0  0  0  0  0  0  0  0  0
    7.3022    0.9710    4.0425 C   0  0  0  0  0  0  0  0  0  0  0  0
    8.4870    0.3562    3.7527 C   0  0  0  0  0  0  0  0  0  0  0  0
    9.4822    0.6768    3.9812 H   0  0  0  0  0  0  0  0  0  0  0  0
    6.5025   -0.8030    2.9734 C   0  0  2  0  0  3  0  0  0  0  0  0
    5.5097   -1.7187    2.3738 C   0  0  0  0  0  0  0  0  0  0  0  0
    4.8966   -1.1681    1.6578 H   0  0  0  0  0  0  0  0  0  0  0  0
    4.8455   -2.1049    3.1485 H   0  0  0  0  0  0  0  0  0  0  0  0
    5.9994   -2.5483    1.8714 H   0  0  0  0  0  0  0  0  0  0  0  0
  1  4  1  0  0  0  0
  3  1  1  0  0  0  0
  5  8  2  0  0  0  0
  6  1  1  0  0  0  0
  6 16  1  0  0  0  0
  7  5  1  0  0  0  0
  7  9  2  0  0  0  0
  8 11  1  0  0  0  0
  8  2  1  0  0  0  0
  9 10  1  0  0  0  0
  9  2  1  0  0  0  0
 11 13  1  0  0  0  0
 12 11  1  0  0  0  0
 14 11  1  0  0  0  0
 15 19  1  0  0  0  0
 15 17  1  0  0  0  0
 16  7  1  0  0  0  0
 17 18  1  0  0  0  0
 17 16  2  0  0  0  0
 19 20  1  6  0  0  0
 19  6  1  0  0  0  0
 20 22  1  0  0  0  0
 21 20  1  0  0  0  0
 23 20  1  0  0  0  0
M  END
$$$$
