CSD_code = KIYSOA | q = 0 | S = 0 | Stoichiometry = C13H14AuClN2O2 | MND = 2
 OpenBabel04212202063D

 33 34  0  0  1  0  0  0  0  0999 V2000
    9.6043    3.9517    4.8765 Au  0  0  0  0  0  0  0  0  0  0  0  0
    9.5495    2.3998    3.2722 Cl  0  0  0  0  0  0  0  0  0  0  0  0
    8.8683    5.2702    7.4935 N   0  0  0  0  0  0  0  0  0  0  0  0
    9.5453    5.2997    6.3420 C   0  0  2  0  0  3  0  0  0  0  0  0
   10.1561    6.5201    6.3181 N   0  0  0  0  0  0  0  0  0  0  0  0
    9.8441    7.2353    7.4587 C   0  0  0  0  0  0  0  0  0  0  0  0
    9.0317    6.4450    8.1887 C   0  0  0  0  0  0  0  0  0  0  0  0
    8.0134    4.1903    7.9284 C   0  0  0  0  0  0  0  0  0  0  0  0
    6.5629    4.5586    7.7240 C   0  0  0  0  0  0  0  0  0  0  0  0
    5.7369    4.8357    8.8036 C   0  0  0  0  0  0  0  0  0  0  0  0
    4.4159    5.1954    8.5966 C   0  0  0  0  0  0  0  0  0  0  0  0
    3.9165    5.2884    7.3093 C   0  0  0  0  0  0  0  0  0  0  0  0
    4.7386    5.0157    6.2279 C   0  0  0  0  0  0  0  0  0  0  0  0
    6.0568    4.6521    6.4333 C   0  0  0  0  0  0  0  0  0  0  0  0
   10.9786    6.9447    5.2637 C   0  0  0  0  0  0  0  0  0  0  0  0
   11.2042    6.2796    4.2960 O   0  0  0  0  0  0  0  0  0  0  0  0
   11.4516    8.1607    5.5012 O   0  0  0  0  0  0  0  0  0  0  0  0
   12.3092    8.7014    4.4833 C   0  0  0  0  0  0  0  0  0  0  0  0
   12.7534   10.0821    4.9234 C   0  0  0  0  0  0  0  0  0  0  0  0
   10.2264    8.2180    7.6345 H   0  0  0  0  0  0  0  0  0  0  0  0
    8.5592    6.6175    9.1337 H   0  0  0  0  0  0  0  0  0  0  0  0
    8.2126    3.9844    8.9836 H   0  0  0  0  0  0  0  0  0  0  0  0
    8.2684    3.3116    7.3296 H   0  0  0  0  0  0  0  0  0  0  0  0
    6.1217    4.7598    9.8111 H   0  0  0  0  0  0  0  0  0  0  0  0
    3.7776    5.4029    9.4424 H   0  0  0  0  0  0  0  0  0  0  0  0
    2.8866    5.5694    7.1485 H   0  0  0  0  0  0  0  0  0  0  0  0
    4.3518    5.0815    5.2224 H   0  0  0  0  0  0  0  0  0  0  0  0
    6.7007    4.4303    5.5934 H   0  0  0  0  0  0  0  0  0  0  0  0
   11.7524    8.7378    3.5415 H   0  0  0  0  0  0  0  0  0  0  0  0
   13.1612    8.0268    4.3508 H   0  0  0  0  0  0  0  0  0  0  0  0
   13.4082   10.5067    4.1687 H   0  0  0  0  0  0  0  0  0  0  0  0
   11.8925   10.7326    5.0518 H   0  0  0  0  0  0  0  0  0  0  0  0
   13.2910   10.0229    5.8658 H   0  0  0  0  0  0  0  0  0  0  0  0
  2  1  1  0  0  0  0
  3  8  1  0  0  0  0
  3  7  1  0  0  0  0
  4  1  1  6  0  0  0
  4  3  1  0  0  0  0
  5  4  1  0  0  0  0
  5  6  1  0  0  0  0
  6 20  1  0  0  0  0
  6  7  2  0  0  0  0
  7 21  1  0  0  0  0
  8 22  1  0  0  0  0
  9  8  1  0  0  0  0
  9 10  1  0  0  0  0
 10 24  1  0  0  0  0
 11 10  2  0  0  0  0
 11 25  1  0  0  0  0
 12 11  1  0  0  0  0
 13 14  1  0  0  0  0
 13 12  2  0  0  0  0
 14  9  2  0  0  0  0
 15 17  1  0  0  0  0
 15  5  1  0  0  0  0
 16 15  2  0  0  0  0
 18 19  1  0  0  0  0
 18 17  1  0  0  0  0
 19 32  1  0  0  0  0
 19 33  1  0  0  0  0
 23  8  1  0  0  0  0
 26 12  1  0  0  0  0
 27 13  1  0  0  0  0
 28 14  1  0  0  0  0
 29 18  1  0  0  0  0
 30 18  1  0  0  0  0
 31 19  1  0  0  0  0
M  END
$$$$
