CSD_code = KIYWOG | q = 0 | S = 0 | Stoichiometry = C29H33Br2N5Pd | MND = 4
 OpenBabel04212202063D

 70 74  0  0  0  0  0  0  0  0999 V2000
    1.1455    3.4552    3.7526 Pd  0  0  0  0  0  0  0  0  0  0  0  0
    1.9230    2.5572    5.8957 Br  0  0  0  0  0  0  0  0  0  0  0  0
    0.5482    4.3892    1.5794 Br  0  0  0  0  0  0  0  0  0  0  0  0
   -1.4425    3.6921    5.4488 N   0  0  0  0  0  0  0  0  0  0  0  0
   -2.4498    2.9539    5.8623 N   0  0  0  0  0  2  0  0  0  0  0  0
   -2.4013    1.8674    5.1357 N   0  0  0  0  0  0  0  0  0  0  0  0
    3.5690    2.4391    2.4617 N   0  0  0  0  0  0  0  0  0  0  0  0
    4.0260    4.3618    3.3837 N   0  0  0  0  0  0  0  0  0  0  0  0
   -0.7349    3.1445    4.4374 C   0  0  0  0  0  0  0  0  0  0  0  0
   -1.3810    1.9177    4.2477 C   0  0  0  0  0  0  0  0  0  0  0  0
   -1.0223    0.8367    3.3294 C   0  0  0  0  0  0  0  0  0  0  0  0
   -0.7272   -0.4356    3.8160 C   0  0  0  0  0  0  0  0  0  0  0  0
   -0.7552   -0.6262    4.8793 H   0  0  0  0  0  0  0  0  0  0  0  0
   -0.3642   -1.4427    2.9408 C   0  0  0  0  0  0  0  0  0  0  0  0
   -0.1277   -2.4244    3.3247 H   0  0  0  0  0  0  0  0  0  0  0  0
   -0.3050   -1.1948    1.5787 C   0  0  0  0  0  0  0  0  0  0  0  0
   -0.0278   -1.9873    0.8986 H   0  0  0  0  0  0  0  0  0  0  0  0
   -0.5975    0.0686    1.0909 C   0  0  0  0  0  0  0  0  0  0  0  0
   -0.5548    0.2682    0.0308 H   0  0  0  0  0  0  0  0  0  0  0  0
   -0.9468    1.0873    1.9595 C   0  0  0  0  0  0  0  0  0  0  0  0
   -1.1799    2.0707    1.5777 H   0  0  0  0  0  0  0  0  0  0  0  0
   -3.3575    0.8181    5.3360 C   0  0  0  0  0  0  0  0  0  0  0  0
   -3.0174    0.1402    6.1215 H   0  0  0  0  0  0  0  0  0  0  0  0
   -3.4838    0.2611    4.4085 H   0  0  0  0  0  0  0  0  0  0  0  0
   -4.3027    1.2630    5.6429 H   0  0  0  0  0  0  0  0  0  0  0  0
   -1.1726    4.9508    6.1034 C   0  0  0  0  0  0  0  0  0  0  0  0
   -0.1575    4.9025    6.5197 H   0  0  0  0  0  0  0  0  0  0  0  0
   -1.8986    5.0490    6.9126 H   0  0  0  0  0  0  0  0  0  0  0  0
   -1.2856    6.0759    5.1075 C   0  0  0  0  0  0  0  0  0  0  0  0
   -2.4991    6.7127    4.8871 C   0  0  0  0  0  0  0  0  0  0  0  0
   -3.3665    6.4287    5.4664 H   0  0  0  0  0  0  0  0  0  0  0  0
   -2.5966    7.7042    3.9267 C   0  0  0  0  0  0  0  0  0  0  0  0
   -3.5433    8.1964    3.7587 H   0  0  0  0  0  0  0  0  0  0  0  0
   -1.4875    8.0576    3.1763 C   0  0  0  0  0  0  0  0  0  0  0  0
   -1.5689    8.8241    2.4205 H   0  0  0  0  0  0  0  0  0  0  0  0
   -0.2755    7.4234    3.3889 C   0  0  0  0  0  0  0  0  0  0  0  0
    0.5856    7.6860    2.7940 H   0  0  0  0  0  0  0  0  0  0  0  0
   -0.1773    6.4353    4.3524 C   0  0  0  0  0  0  0  0  0  0  0  0
    0.7759    5.9306    4.5311 H   0  0  0  0  0  0  0  0  0  0  0  0
    3.0488    3.4659    3.1593 C   0  0  0  0  0  0  0  0  0  0  0  0
    4.9040    2.6770    2.2136 C   0  0  0  0  0  0  0  0  0  0  0  0
    5.8870    1.9572    1.5498 C   0  0  0  0  0  0  0  0  0  0  0  0
    5.6877    0.9986    1.0993 H   0  0  0  0  0  0  0  0  0  0  0  0
    7.1508    2.5096    1.4779 C   0  0  0  0  0  0  0  0  0  0  0  0
    7.9338    1.9707    0.9663 H   0  0  0  0  0  0  0  0  0  0  0  0
    7.4359    3.7471    2.0466 C   0  0  0  0  0  0  0  0  0  0  0  0
    8.4339    4.1495    1.9634 H   0  0  0  0  0  0  0  0  0  0  0  0
    6.4689    4.4718    2.7153 C   0  0  0  0  0  0  0  0  0  0  0  0
    6.7086    5.4307    3.1449 H   0  0  0  0  0  0  0  0  0  0  0  0
    5.1976    3.9241    2.8028 C   0  0  0  0  0  0  0  0  0  0  0  0
    3.8063    5.5659    4.1644 C   0  0  0  0  0  0  0  0  0  0  0  0
    2.7625    5.4844    4.5209 H   0  0  0  0  0  0  0  0  0  0  0  0
    3.9247    6.8085    3.2864 C   0  0  0  0  0  0  0  0  0  0  0  0
    4.9405    6.9370    2.9218 H   0  0  0  0  0  0  0  0  0  0  0  0
    3.6450    7.6906    3.8566 H   0  0  0  0  0  0  0  0  0  0  0  0
    3.2584    6.7193    2.4300 H   0  0  0  0  0  0  0  0  0  0  0  0
    4.7098    5.5998    5.3935 C   0  0  0  0  0  0  0  0  0  0  0  0
    4.5771    4.6891    5.9744 H   0  0  0  0  0  0  0  0  0  0  0  0
    4.4401    6.4477    6.0178 H   0  0  0  0  0  0  0  0  0  0  0  0
    5.7571    5.6898    5.1208 H   0  0  0  0  0  0  0  0  0  0  0  0
    2.7787    1.2775    2.0828 C   0  0  0  0  0  0  0  0  0  0  0  0
    1.7511    1.4716    2.4664 H   0  0  0  0  0  0  0  0  0  0  0  0
    2.7022    1.1478    0.5648 C   0  0  0  0  0  0  0  0  0  0  0  0
    2.2719    2.0524    0.1393 H   0  0  0  0  0  0  0  0  0  0  0  0
    2.0659    0.3062    0.3063 H   0  0  0  0  0  0  0  0  0  0  0  0
    3.6846    0.9899    0.1289 H   0  0  0  0  0  0  0  0  0  0  0  0
    3.3033    0.0203    2.7721 C   0  0  0  0  0  0  0  0  0  0  0  0
    4.3036   -0.2335    2.4318 H   0  0  0  0  0  0  0  0  0  0  0  0
    2.6380   -0.8126    2.5595 H   0  0  0  0  0  0  0  0  0  0  0  0
    3.3307    0.1722    3.8499 H   0  0  0  0  0  0  0  0  0  0  0  0
  1  9  1  0  0  0  0
  1  2  1  0  0  0  0
  3  1  1  0  0  0  0
  4  5  1  0  0  0  0
  4 26  1  0  0  0  0
  6 22  1  0  0  0  0
  6  5  1  0  0  0  0
  7 40  1  0  0  0  0
  8 51  1  0  0  0  0
  9  4  1  0  0  0  0
 10  9  2  0  0  0  0
 10  6  1  0  0  0  0
 11 12  1  0  0  0  0
 11 10  1  0  0  0  0
 12 13  1  0  0  0  0
 14 15  1  0  0  0  0
 14 12  2  0  0  0  0
 16 14  1  0  0  0  0
 17 16  1  0  0  0  0
 18 16  2  0  0  0  0
 18 20  1  0  0  0  0
 19 18  1  0  0  0  0
 20 11  2  0  0  0  0
 21 20  1  0  0  0  0
 22 25  1  0  0  0  0
 22 23  1  0  0  0  0
 24 22  1  0  0  0  0
 26 27  1  0  0  0  0
 26 28  1  0  0  0  0
 29 26  1  0  0  0  0
 30 29  1  0  0  0  0
 30 31  1  0  0  0  0
 32 30  2  0  0  0  0
 33 32  1  0  0  0  0
 34 36  2  0  0  0  0
 34 32  1  0  0  0  0
 35 34  1  0  0  0  0
 36 38  1  0  0  0  0
 37 36  1  0  0  0  0
 38 39  1  0  0  0  0
 38 29  2  0  0  0  0
 40  8  1  0  0  0  0
 40  1  2  0  0  0  0
 41  7  1  0  0  0  0
 41 50  1  0  0  0  0
 42 41  2  0  0  0  0
 43 42  1  0  0  0  0
 44 42  1  0  0  0  0
 44 46  2  0  0  0  0
 45 44  1  0  0  0  0
 46 48  1  0  0  0  0
 47 46  1  0  0  0  0
 48 50  2  0  0  0  0
 48 49  1  0  0  0  0
 50  8  1  0  0  0  0
 51 52  1  0  0  0  0
 51 57  1  0  0  0  0
 53 55  1  0  0  0  0
 53 51  1  0  0  0  0
 54 53  1  0  0  0  0
 56 53  1  0  0  0  0
 57 58  1  0  0  0  0
 57 59  1  0  0  0  0
 60 57  1  0  0  0  0
 61  7  1  0  0  0  0
 61 62  1  0  0  0  0
 61 67  1  0  0  0  0
 63 61  1  0  0  0  0
 64 63  1  0  0  0  0
 65 63  1  0  0  0  0
 66 63  1  0  0  0  0
 67 70  1  0  0  0  0
 68 67  1  0  0  0  0
 69 67  1  0  0  0  0
M  END
$$$$
