CSD_code = KIYXEX | q = 0 | S = 0 | Stoichiometry = C16H14AuClN4O2 | MND = 2
 OpenBabel04212202063D

 38 40  0  0  0  0  0  0  0  0999 V2000
    3.1331    1.3561   11.8461 C   0  0  0  0  0  0  0  0  0  0  0  0
    3.2236    1.5950   13.2204 C   0  0  0  0  0  0  0  0  0  0  0  0
    2.4998    2.5738   14.0138 C   0  0  0  0  0  0  0  0  0  0  0  0
    1.1461    2.7958   13.7444 C   0  0  0  0  0  0  0  0  0  0  0  0
    0.6653    2.2353   12.9588 H   0  0  0  0  0  0  0  0  0  0  0  0
    0.4315    3.7195   14.4769 C   0  0  0  0  0  0  0  0  0  0  0  0
   -0.6149    3.8992   14.2846 H   0  0  0  0  0  0  0  0  0  0  0  0
    1.0721    4.4331   15.4836 C   0  0  0  0  0  0  0  0  0  0  0  0
    2.4226    4.2426   15.7487 C   0  0  0  0  0  0  0  0  0  0  0  0
    2.8956    4.8271   16.5229 H   0  0  0  0  0  0  0  0  0  0  0  0
    3.1320    3.3144   15.0158 C   0  0  0  0  0  0  0  0  0  0  0  0
    4.1878    3.1929   15.2004 H   0  0  0  0  0  0  0  0  0  0  0  0
    4.6477    1.2028    8.3761 C   0  0  0  0  0  0  0  0  0  0  0  0
    3.6809    0.8815    8.0203 H   0  0  0  0  0  0  0  0  0  0  0  0
    5.3796    2.1207    7.6424 C   0  0  0  0  0  0  0  0  0  0  0  0
    4.9721    2.5133    6.7240 H   0  0  0  0  0  0  0  0  0  0  0  0
    6.6186    2.5420    8.0932 C   0  0  0  0  0  0  0  0  0  0  0  0
    7.1852    3.2630    7.5236 H   0  0  0  0  0  0  0  0  0  0  0  0
    7.1321    2.0385    9.2770 C   0  0  0  0  0  0  0  0  0  0  0  0
    8.1000    2.3620    9.6302 H   0  0  0  0  0  0  0  0  0  0  0  0
    6.4030    1.1207   10.0113 C   0  0  0  0  0  0  0  0  0  0  0  0
    6.8003    0.7265   10.9370 H   0  0  0  0  0  0  0  0  0  0  0  0
    5.1571    0.6995    9.5645 C   0  0  0  0  0  0  0  0  0  0  0  0
    4.3572   -0.2675   10.4055 C   0  0  0  0  0  0  0  0  0  0  0  0
    3.4362   -0.5451    9.8884 H   0  0  0  0  0  0  0  0  0  0  0  0
    4.9411   -1.1616   10.6389 H   0  0  0  0  0  0  0  0  0  0  0  0
    4.5646    0.4933   15.0628 C   0  0  0  0  0  0  0  0  0  0  0  0
    4.8479   -0.5536   15.1611 H   0  0  0  0  0  0  0  0  0  0  0  0
    3.7535    0.7287   15.7498 H   0  0  0  0  0  0  0  0  0  0  0  0
    5.4329    1.1110   15.2991 H   0  0  0  0  0  0  0  0  0  0  0  0
    4.0124    0.3460   11.6628 N   0  0  0  0  0  0  0  0  0  0  0  0
    4.6097   -0.0445   12.7605 N   0  0  0  0  0  2  0  0  0  0  0  0
    4.1384    0.7154   13.7109 N   0  0  0  0  0  0  0  0  0  0  0  0
    0.3270    5.3881   16.2678 N   0  0  0  0  0  0  0  0  0  0  0  0
    0.9308    6.0005   17.1233 O   0  0  0  0  0  0  0  0  0  0  0  0
   -0.8541    5.5106   16.0299 O   0  0  0  0  0  0  0  0  0  0  0  0
    1.1455    3.3435    8.6916 Cl  0  0  0  0  0  0  0  0  0  0  0  0
    2.1658    2.2966   10.3895 Au  0  0  0  0  0  0  0  0  0  0  0  0
  1  2  2  0  0  0  0
  2 33  1  0  0  0  0
  2  3  1  0  0  0  0
  3 11  1  0  0  0  0
  4  3  2  0  0  0  0
  4  6  1  0  0  0  0
  5  4  1  0  0  0  0
  6  8  2  0  0  0  0
  7  6  1  0  0  0  0
  8  9  1  0  0  0  0
  8 34  1  0  0  0  0
  9 10  1  0  0  0  0
 11 12  1  0  0  0  0
 11  9  2  0  0  0  0
 13 23  1  0  0  0  0
 14 13  1  0  0  0  0
 15 17  1  0  0  0  0
 15 13  2  0  0  0  0
 16 15  1  0  0  0  0
 17 19  2  0  0  0  0
 18 17  1  0  0  0  0
 19 20  1  0  0  0  0
 19 21  1  0  0  0  0
 21 22  1  0  0  0  0
 23 21  2  0  0  0  0
 23 24  1  0  0  0  0
 24 26  1  0  0  0  0
 24 31  1  0  0  0  0
 25 24  1  0  0  0  0
 27 28  1  0  0  0  0
 27 30  1  0  0  0  0
 27 29  1  0  0  0  0
 31  1  1  0  0  0  0
 31 32  1  0  0  0  0
 32 33  1  0  0  0  0
 33 27  1  0  0  0  0
 34 35  2  0  0  0  0
 36 34  2  0  0  0  0
 37 38  1  0  0  0  0
 38  1  1  0  0  0  0
M  END
$$$$
