CSD_code = KIZDOM | q = 0 | S = 0 | Stoichiometry = C21H29Cl2N4PSTi | MND = 6
 OpenBabel04212202063D

 59 61  0  0  0  0  0  0  0  0999 V2000
    0.1849    0.4622   11.0267 Ti  0  0  0  0  0  0  0  0  0  0  0  0
    1.6639   -0.0569   12.7204 Cl  0  0  0  0  0  0  0  0  0  0  0  0
   -1.4565   -0.0123    9.4864 Cl  0  0  0  0  0  0  0  0  0  0  0  0
   -0.4497    1.9197   11.7181 N   0  0  0  0  0  2  0  0  0  0  0  0
   -0.5849    3.4997   11.7604 P   0  0  0  0  0  4  0  0  0  0  0  0
   -0.0875    4.4476   10.0911 S   0  0  0  0  0  1  0  0  0  0  0  0
   -2.3677    3.8702   12.1974 C   0  0  0  0  0  0  0  0  0  0  0  0
   -3.1918    3.2417   11.0811 C   0  0  0  0  0  0  0  0  0  0  0  0
   -2.6164    5.3636   12.3232 C   0  0  0  0  0  0  0  0  0  0  0  0
    0.4725    4.1400   13.1711 C   0  0  0  0  0  0  0  0  0  0  0  0
    0.1402    3.4115   14.4634 C   0  0  0  0  0  0  0  0  0  0  0  0
    1.9187    3.8904   12.7651 C   0  0  0  0  0  0  0  0  0  0  0  0
    1.4341    1.4769    9.8137 N   0  0  0  0  0  0  0  0  0  0  0  0
    0.9185    2.1924    8.8032 C   0  0  0  0  0  3  0  0  0  0  0  0
    1.7166    2.9496    7.9466 C   0  0  0  0  0  0  0  0  0  0  0  0
    3.0687    3.0394    8.1901 C   0  0  0  0  0  0  0  0  0  0  0  0
    3.5949    2.3420    9.2788 C   0  0  0  0  0  0  0  0  0  0  0  0
    2.7505    1.5769   10.0530 C   0  0  0  0  0  0  0  0  0  0  0  0
    1.2256   -1.3360    9.9320 N   0  0  0  0  0  0  0  0  0  0  0  0
    1.2134   -1.3951    8.6021 C   0  0  0  0  0  3  0  0  0  0  0  0
    1.5509   -2.5365    7.8920 C   0  0  0  0  0  0  0  0  0  0  0  0
    1.9169   -3.6758    8.5910 C   0  0  0  0  0  0  0  0  0  0  0  0
    1.9391   -3.6175    9.9746 C   0  0  0  0  0  0  0  0  0  0  0  0
    1.5889   -2.4294   10.5983 C   0  0  0  0  0  0  0  0  0  0  0  0
   -1.1135   -0.8106   12.2703 N   0  0  0  0  0  0  0  0  0  0  0  0
   -1.5632   -0.3161   13.4218 C   0  0  0  0  0  3  0  0  0  0  0  0
   -2.3883   -1.0318   14.2753 C   0  0  0  0  0  0  0  0  0  0  0  0
   -2.7629   -2.3183   13.9216 C   0  0  0  0  0  0  0  0  0  0  0  0
   -2.2993   -2.8315   12.7210 C   0  0  0  0  0  0  0  0  0  0  0  0
   -1.4817   -2.0416   11.9278 C   0  0  0  0  0  0  0  0  0  0  0  0
   -2.5868    3.3570   13.1418 H   0  0  0  0  0  0  0  0  0  0  0  0
   -4.2583    3.3066   11.2932 H   0  0  0  0  0  0  0  0  0  0  0  0
   -2.9892    3.7571   10.1423 H   0  0  0  0  0  0  0  0  0  0  0  0
   -2.9141    2.1900   10.9600 H   0  0  0  0  0  0  0  0  0  0  0  0
   -3.6828    5.5646   12.4206 H   0  0  0  0  0  0  0  0  0  0  0  0
   -2.1067    5.7763   13.1923 H   0  0  0  0  0  0  0  0  0  0  0  0
   -2.2478    5.8713   11.4326 H   0  0  0  0  0  0  0  0  0  0  0  0
    0.2935    5.2161   13.2691 H   0  0  0  0  0  0  0  0  0  0  0  0
    0.7846    3.7612   15.2696 H   0  0  0  0  0  0  0  0  0  0  0  0
   -0.8958    3.5717   14.7580 H   0  0  0  0  0  0  0  0  0  0  0  0
    0.3131    2.3431   14.3240 H   0  0  0  0  0  0  0  0  0  0  0  0
    2.6061    4.2642   13.5229 H   0  0  0  0  0  0  0  0  0  0  0  0
    2.0779    2.8155   12.6430 H   0  0  0  0  0  0  0  0  0  0  0  0
    2.1371    4.3848   11.8180 H   0  0  0  0  0  0  0  0  0  0  0  0
   -0.1452    2.0829    8.6183 H   0  0  0  0  0  0  0  0  0  0  0  0
    1.2533    3.4887    7.1366 H   0  0  0  0  0  0  0  0  0  0  0  0
    3.7095    3.6357    7.5588 H   0  0  0  0  0  0  0  0  0  0  0  0
    4.6458    2.3944    9.5162 H   0  0  0  0  0  0  0  0  0  0  0  0
    3.1325    1.0110   10.8993 H   0  0  0  0  0  0  0  0  0  0  0  0
    0.9069   -0.4968    8.0778 H   0  0  0  0  0  0  0  0  0  0  0  0
    1.5207   -2.5295    6.8140 H   0  0  0  0  0  0  0  0  0  0  0  0
    2.1796   -4.5846    8.0700 H   0  0  0  0  0  0  0  0  0  0  0  0
    2.2223   -4.4744   10.5657 H   0  0  0  0  0  0  0  0  0  0  0  0
    1.6163   -2.3437   11.6796 H   0  0  0  0  0  0  0  0  0  0  0  0
   -1.2455    0.6971   13.6529 H   0  0  0  0  0  0  0  0  0  0  0  0
   -2.7286   -0.5870   15.1972 H   0  0  0  0  0  0  0  0  0  0  0  0
   -3.4041   -2.9051   14.5624 H   0  0  0  0  0  0  0  0  0  0  0  0
   -2.5689   -3.8248   12.3979 H   0  0  0  0  0  0  0  0  0  0  0  0
   -1.1262   -2.4095   10.9704 H   0  0  0  0  0  0  0  0  0  0  0  0
  1  4  1  0  0  0  0
  1 25  1  0  0  0  0
  1  2  1  0  0  0  0
  3  1  1  0  0  0  0
  4  5  1  0  0  0  0
  5  7  1  0  0  0  0
  5 10  1  0  0  0  0
  6  5  1  0  0  0  0
  7  9  1  0  0  0  0
  7 31  1  0  0  0  0
  8 32  1  0  0  0  0
  8  7  1  0  0  0  0
  9 35  1  0  0  0  0
  9 36  1  0  0  0  0
 10 38  1  0  0  0  0
 10 11  1  0  0  0  0
 11 40  1  0  0  0  0
 11 39  1  0  0  0  0
 12 10  1  0  0  0  0
 12 42  1  0  0  0  0
 13 18  1  0  0  0  0
 13  1  1  0  0  0  0
 14 13  1  0  0  0  0
 15 16  2  0  0  0  0
 15 14  1  0  0  0  0
 16 17  1  0  0  0  0
 17 48  1  0  0  0  0
 17 18  2  0  0  0  0
 18 49  1  0  0  0  0
 19 24  1  0  0  0  0
 19  1  1  0  0  0  0
 20 19  1  0  0  0  0
 21 22  2  0  0  0  0
 21 20  1  0  0  0  0
 22 23  1  0  0  0  0
 23 53  1  0  0  0  0
 23 24  2  0  0  0  0
 24 54  1  0  0  0  0
 25 26  1  0  0  0  0
 26 55  1  0  0  0  0
 26 27  1  0  0  0  0
 27 56  1  0  0  0  0
 28 27  2  0  0  0  0
 28 57  1  0  0  0  0
 29 28  1  0  0  0  0
 30 25  1  0  0  0  0
 30 29  2  0  0  0  0
 33  8  1  0  0  0  0
 34  8  1  0  0  0  0
 37  9  1  0  0  0  0
 41 11  1  0  0  0  0
 43 12  1  0  0  0  0
 44 12  1  0  0  0  0
 45 14  1  0  0  0  0
 46 15  1  0  0  0  0
 47 16  1  0  0  0  0
 50 20  1  0  0  0  0
 51 21  1  0  0  0  0
 52 22  1  0  0  0  0
 58 29  1  0  0  0  0
 59 30  1  0  0  0  0
M  END
$$$$
