CSD_code = KIZVEW | q = 0 | S = 0 | Stoichiometry = C18H11BrMnN3O3 | MND = 6
 OpenBabel04212202063D

 37 40  0  0  1  0  0  0  0  0999 V2000
   -3.4122    2.7728   13.6879 Br  0  0  0  0  0  0  0  0  0  0  0  0
   -1.9523    0.7858   13.9404 Mn  0  0  0  0  0  0  0  0  0  0  0  0
   -1.9595    1.4478   16.8000 O   0  0  0  0  0  1  0  0  0  0  0  0
    0.3423    2.6074   13.9436 O   0  0  0  0  0  1  0  0  0  0  0  0
   -0.0963   -1.4566   14.2044 O   0  0  0  0  0  1  0  0  0  0  0  0
   -2.1008    0.5612   11.9468 N   0  0  0  0  0  0  0  0  0  0  0  0
   -3.7480   -0.3011   13.7986 N   0  0  0  0  0  0  0  0  0  0  0  0
   -4.7037   -0.2490   17.1362 N   0  0  0  0  0  0  0  0  0  0  0  0
   -2.0013    1.1143   15.7014 C   0  0  0  0  0  2  0  0  0  0  0  0
   -0.5500    1.8845   13.9075 C   0  0  0  0  0  2  0  0  0  0  0  0
   -0.8650   -0.6029   14.0995 C   0  0  0  0  0  2  0  0  0  0  0  0
   -1.1826    0.9044   11.0425 C   0  0  0  0  0  3  0  0  0  0  0  0
   -0.2336    1.2610   11.4236 H   0  0  0  0  0  0  0  0  0  0  0  0
   -1.3936    0.8284    9.6792 C   0  0  0  0  0  0  0  0  0  0  0  0
   -0.6147    1.1303    8.9982 H   0  0  0  0  0  0  0  0  0  0  0  0
   -2.6153    0.3613    9.2162 C   0  0  0  0  0  0  0  0  0  0  0  0
   -2.8162    0.2838    8.1591 H   0  0  0  0  0  0  0  0  0  0  0  0
   -3.5714   -0.0040   10.1427 C   0  0  0  0  0  0  0  0  0  0  0  0
   -4.5250   -0.3822    9.8139 H   0  0  0  0  0  0  0  0  0  0  0  0
   -3.2929    0.1154   11.5041 C   0  0  0  0  0  0  0  0  0  0  0  0
   -4.2533   -0.2471   12.5506 C   0  0  2  0  0  3  0  0  0  0  0  0
   -5.5995   -0.4898   12.2877 C   0  0  0  0  0  0  0  0  0  0  0  0
   -5.9851   -0.3998   11.2862 H   0  0  0  0  0  0  0  0  0  0  0  0
   -6.4501   -0.7916   13.3352 C   0  0  0  0  0  0  0  0  0  0  0  0
   -7.5041   -0.9423   13.1605 H   0  0  0  0  0  0  0  0  0  0  0  0
   -5.9187   -0.8961   14.6065 C   0  0  0  0  0  0  0  0  0  0  0  0
   -6.5267   -1.1352   15.4633 H   0  0  0  0  0  0  0  0  0  0  0  0
   -4.5590   -0.6632   14.7973 C   0  0  0  0  0  0  0  0  0  0  0  0
   -4.0119   -0.8272   16.1605 C   0  0  0  0  0  0  0  0  0  0  0  0
   -2.8749   -1.6001   16.3986 C   0  0  0  0  0  0  0  0  0  0  0  0
   -2.3847   -2.1205   15.5896 H   0  0  0  0  0  0  0  0  0  0  0  0
   -2.4167   -1.7083   17.7013 C   0  0  0  0  0  0  0  0  0  0  0  0
   -1.5370   -2.2949   17.9214 H   0  0  0  0  0  0  0  0  0  0  0  0
   -3.1020   -1.0490   18.7088 C   0  0  0  0  0  0  0  0  0  0  0  0
   -2.7638   -1.0886   19.7319 H   0  0  0  0  0  0  0  0  0  0  0  0
   -4.2507   -0.3466   18.3703 C   0  0  0  0  0  0  0  0  0  0  0  0
   -4.8406    0.1629   19.1204 H   0  0  0  0  0  0  0  0  0  0  0  0
  1  2  1  0  0  0  0
  2 11  1  0  0  0  0
  2  9  1  0  0  0  0
  6  2  1  0  0  0  0
  7  2  1  0  0  0  0
  7 28  1  0  0  0  0
  8 36  1  0  0  0  0
  9  3  1  0  0  0  0
 10  2  1  0  0  0  0
 10  4  1  0  0  0  0
 11  5  1  0  0  0  0
 12 13  1  0  0  0  0
 12  6  1  0  0  0  0
 14 12  1  0  0  0  0
 15 14  1  0  0  0  0
 16 14  2  0  0  0  0
 16 18  1  0  0  0  0
 17 16  1  0  0  0  0
 18 20  2  0  0  0  0
 19 18  1  0  0  0  0
 20  6  1  0  0  0  0
 21 20  1  1  0  0  0
 21  7  1  0  0  0  0
 22 21  1  0  0  0  0
 22 24  2  0  0  0  0
 23 22  1  0  0  0  0
 24 26  1  0  0  0  0
 25 24  1  0  0  0  0
 26 28  2  0  0  0  0
 26 27  1  0  0  0  0
 28 29  1  0  0  0  0
 29 30  1  0  0  0  0
 29  8  2  0  0  0  0
 30 32  2  0  0  0  0
 31 30  1  0  0  0  0
 32 33  1  0  0  0  0
 32 34  1  0  0  0  0
 34 35  1  0  0  0  0
 36 34  2  0  0  0  0
 36 37  1  0  0  0  0
M  END
$$$$
