CSD_code = KIZVUK | q = 0 | S = 0 | Stoichiometry = C14H17Cl4NSeW | MND = 7
 OpenBabel04212202063D

 38 33  0  0  0  0  0  0  0  0999 V2000
    3.8156   -0.2810   14.3853 W   0  0  0  0  0  0  0  0  0  0  0  0
    3.6660    1.6235   11.1087 Se  0  0  0  0  0  0  0  0  0  0  0  0
    6.0349    0.5844   14.2723 Cl  0  0  0  0  0 15  0  0  0  0  0  0
    3.7644    0.8358   16.4909 Cl  0  0  0  0  0 15  0  0  0  0  0  0
    4.2851   -2.0278   12.8121 Cl  0  0  0  0  0 15  0  0  0  0  0  0
    2.0610   -1.7546   15.0743 Cl  0  0  0  0  0 15  0  0  0  0  0  0
    4.8786   -1.7115   15.6522 N   0  0  0  0  0  0  0  0  0  0  0  0
    3.3337    0.9336   12.7728 C   0  0  0  0  0  3  0  0  0  0  0  0
    2.3672    1.0143   13.6974 C   0  0  0  0  0  0  0  0  0  0  0  0
    1.1089    1.6837   13.8784 C   0  0  0  0  0  0  0  0  0  0  0  0
    0.4061    1.5169   15.0781 C   0  0  0  0  0  0  0  0  0  0  0  0
   -0.8053    2.1511   15.2644 C   0  0  0  0  0  0  0  0  0  0  0  0
   -1.3324    2.9540   14.2633 C   0  0  0  0  0  0  0  0  0  0  0  0
   -0.6434    3.1247   13.0714 C   0  0  0  0  0  0  0  0  0  0  0  0
    0.5699    2.4974   12.8757 C   0  0  0  0  0  0  0  0  0  0  0  0
    5.4183    0.7689   10.7692 C   0  0  0  0  0  0  0  0  0  0  0  0
    6.5870    1.7247   10.9294 C   0  0  0  0  0  0  0  0  0  0  0  0
    6.5112    2.9559   10.0287 C   0  0  0  0  0  0  0  0  0  0  0  0
    6.4959    2.6186    8.5428 C   0  0  0  0  0  0  0  0  0  0  0  0
    5.3362   -2.5092   16.3378 C   0  0  0  0  0  0  0  0  0  0  0  0
    5.9005   -3.4973   17.1886 C   0  0  0  0  0  0  0  0  0  0  0  0
    0.8309    0.8865   15.8484 H   0  0  0  0  0  0  0  0  0  0  0  0
   -1.3445    2.0214   16.1909 H   0  0  0  0  0  0  0  0  0  0  0  0
   -2.2815    3.4475   14.4113 H   0  0  0  0  0  0  0  0  0  0  0  0
   -1.0566    3.7499   12.2938 H   0  0  0  0  0  0  0  0  0  0  0  0
    1.1163    2.6235   11.9485 H   0  0  0  0  0  0  0  0  0  0  0  0
    5.4842   -0.0503   11.4894 H   0  0  0  0  0  0  0  0  0  0  0  0
    5.3713    0.3591    9.7611 H   0  0  0  0  0  0  0  0  0  0  0  0
    6.6403    2.0465   11.9716 H   0  0  0  0  0  0  0  0  0  0  0  0
    7.5016    1.1678   10.7096 H   0  0  0  0  0  0  0  0  0  0  0  0
    5.6060    3.5206   10.2765 H   0  0  0  0  0  0  0  0  0  0  0  0
    7.3701    3.5941   10.2451 H   0  0  0  0  0  0  0  0  0  0  0  0
    6.5607    3.5281    7.9504 H   0  0  0  0  0  0  0  0  0  0  0  0
    7.3392    1.9811    8.2854 H   0  0  0  0  0  0  0  0  0  0  0  0
    5.5746    2.1076    8.2712 H   0  0  0  0  0  0  0  0  0  0  0  0
    6.3954   -3.0120   18.0303 H   0  0  0  0  0  0  0  0  0  0  0  0
    5.1071   -4.1478   17.5579 H   0  0  0  0  0  0  0  0  0  0  0  0
    6.6259   -4.0885   16.6293 H   0  0  0  0  0  0  0  0  0  0  0  0
  2  8  1  0  0  0  0
  7 20  3  0  0  0  0
  8  9  2  0  0  0  0
  9 10  1  0  0  0  0
  9  1  1  0  0  0  0
 10 11  1  0  0  0  0
 11 12  2  0  0  0  0
 11 22  1  0  0  0  0
 12 23  1  0  0  0  0
 13 24  1  0  0  0  0
 13 12  1  0  0  0  0
 14 13  2  0  0  0  0
 15 14  1  0  0  0  0
 15 10  2  0  0  0  0
 16 17  1  0  0  0  0
 16  2  1  0  0  0  0
 16 27  1  0  0  0  0
 17 29  1  0  0  0  0
 18 32  1  0  0  0  0
 18 31  1  0  0  0  0
 18 17  1  0  0  0  0
 19 18  1  0  0  0  0
 20 21  1  0  0  0  0
 21 37  1  0  0  0  0
 21 36  1  0  0  0  0
 25 14  1  0  0  0  0
 26 15  1  0  0  0  0
 28 16  1  0  0  0  0
 30 17  1  0  0  0  0
 33 19  1  0  0  0  0
 34 19  1  0  0  0  0
 35 19  1  0  0  0  0
 38 21  1  0  0  0  0
M  END
$$$$
