CSD_code = KOBTAX | q = 0 | S = 0 | Stoichiometry = C13H18BrN3Pd | MND = 4
 OpenBabel04212202063D

 36 38  0  0  0  0  0  0  0  0999 V2000
    1.3748    0.1370   12.6165 Pd  0  0  0  0  0  0  0  0  0  0  0  0
    2.7783    0.2713   14.5940 Br  0  0  0  0  0  0  0  0  0  0  0  0
   -1.3299   -0.1185    8.8085 C   0  0  0  0  0  0  0  0  0  0  0  0
   -1.6595   -0.8826    9.9338 C   0  0  0  0  0  0  0  0  0  0  0  0
   -2.5330   -1.5192    9.9089 H   0  0  0  0  0  0  0  0  0  0  0  0
   -0.8609   -0.7978   11.0597 C   0  0  0  0  0  0  0  0  0  0  0  0
    0.2576    0.0304   11.0423 C   0  0  0  0  0  0  0  0  0  0  0  0
    0.5922    0.7848    9.9215 C   0  0  0  0  0  0  0  0  0  0  0  0
   -0.2089    0.7196    8.7962 C   0  0  0  0  0  0  0  0  0  0  0  0
    0.0164    1.2957    7.9097 H   0  0  0  0  0  0  0  0  0  0  0  0
    1.8726    1.5715   10.0538 C   0  0  0  0  0  0  0  0  0  0  0  0
    1.8074    2.5617    9.5805 H   0  0  0  0  0  0  0  0  0  0  0  0
    2.6715    1.0129    9.5509 H   0  0  0  0  0  0  0  0  0  0  0  0
    2.2388    1.7152   11.4872 N   0  0  0  0  0  4  0  0  0  0  0  0
    1.5566    2.8815   12.0611 C   0  0  0  0  0  0  0  0  0  0  0  0
    0.4768    2.7997   11.8969 H   0  0  0  0  0  0  0  0  0  0  0  0
    1.7539    2.9296   13.1379 H   0  0  0  0  0  0  0  0  0  0  0  0
    1.9160    3.8102   11.5971 H   0  0  0  0  0  0  0  0  0  0  0  0
    3.6853    1.8781   11.6260 C   0  0  0  0  0  0  0  0  0  0  0  0
    3.9386    2.0461   12.6737 H   0  0  0  0  0  0  0  0  0  0  0  0
    4.0436    2.7299   11.0341 H   0  0  0  0  0  0  0  0  0  0  0  0
    4.1927    0.9699   11.2929 H   0  0  0  0  0  0  0  0  0  0  0  0
   -1.1113   -1.4874   12.3779 C   0  0  0  0  0  0  0  0  0  0  0  0
   -1.4705   -2.5186   12.2500 H   0  0  0  0  0  0  0  0  0  0  0  0
   -1.8868   -0.9284   12.9155 H   0  0  0  0  0  0  0  0  0  0  0  0
    0.1245   -1.4769   13.2039 N   0  0  0  0  0  4  0  0  0  0  0  0
   -0.2163   -1.5313   14.6249 C   0  0  0  0  0  0  0  0  0  0  0  0
   -0.8373   -2.4082   14.8471 H   0  0  0  0  0  0  0  0  0  0  0  0
    0.6957   -1.5861   15.2208 H   0  0  0  0  0  0  0  0  0  0  0  0
   -0.7572   -0.6261   14.9101 H   0  0  0  0  0  0  0  0  0  0  0  0
    0.9657   -2.6289   12.8569 C   0  0  0  0  0  0  0  0  0  0  0  0
    1.1659   -2.6328   11.7801 H   0  0  0  0  0  0  0  0  0  0  0  0
    0.4681   -3.5701   13.1275 H   0  0  0  0  0  0  0  0  0  0  0  0
    1.9157   -2.5670   13.3995 H   0  0  0  0  0  0  0  0  0  0  0  0
   -2.1471   -0.1944    7.6596 C   0  0  0  0  0  0  0  0  0  0  0  0
   -2.8115   -0.2552    6.7266 N   0  0  0  0  0  0  0  0  0  0  0  0
  1 26  1  0  0  0  0
  1  2  1  0  0  0  0
  3  4  1  0  0  0  0
  4  6  2  0  0  0  0
  5  4  1  0  0  0  0
  6 23  1  0  0  0  0
  7  6  1  0  0  0  0
  7  1  1  0  0  0  0
  8 11  1  0  0  0  0
  8  7  2  0  0  0  0
  9  3  2  0  0  0  0
  9  8  1  0  0  0  0
 10  9  1  0  0  0  0
 11 14  1  0  0  0  0
 12 11  1  0  0  0  0
 13 11  1  0  0  0  0
 14 19  1  0  0  0  0
 14 15  1  0  0  0  0
 14  1  1  0  0  0  0
 15 17  1  0  0  0  0
 16 15  1  0  0  0  0
 18 15  1  0  0  0  0
 19 20  1  0  0  0  0
 21 19  1  0  0  0  0
 22 19  1  0  0  0  0
 23 25  1  0  0  0  0
 23 26  1  0  0  0  0
 24 23  1  0  0  0  0
 26 27  1  0  0  0  0
 27 28  1  0  0  0  0
 27 30  1  0  0  0  0
 27 29  1  0  0  0  0
 31 33  1  0  0  0  0
 31 26  1  0  0  0  0
 31 34  1  0  0  0  0
 32 31  1  0  0  0  0
 35  3  1  0  0  0  0
 36 35  3  0  0  0  0
M  END
$$$$
