CSD_code = KOCFUE | q = 0 | S = 0 | Stoichiometry = C38H28Cl2OTi | MND = 8
 OpenBabel04212202063D

 70 78  0  0  1  0  0  0  0  0999 V2000
    5.0947   11.2186    3.0550 Ti  0  0  0  0  0  0  0  0  0  0  0  0
    5.2723   13.3916    3.1586 Cl  0  0  0  0  0  0  0  0  0  0  0  0
    3.3837   10.9975    4.3889 Cl  0  0  0  0  0  0  0  0  0  0  0  0
    6.3147   10.7693    4.0780 O   0  0  0  0  0  0  0  0  0  0  0  0
    6.1218   10.3113    1.1948 C   0  0  0  0  0  0  0  0  0  0  0  0
    7.1751   10.1408    1.0179 H   0  0  0  0  0  0  0  0  0  0  0  0
    5.2106    9.3608    1.7290 C   0  0  2  0  0  0  0  0  0  0  0  0
    3.8755    9.8706    1.5910 C   0  0  1  0  0  3  0  0  0  0  0  0
    3.9837   11.1934    1.0430 C   0  0  2  0  0  0  0  0  0  0  0  0
    5.3628   11.4186    0.7300 C   0  0  0  0  0  0  0  0  0  0  0  0
    5.4615    8.1218    2.4214 C   0  0  0  0  0  0  0  0  0  0  0  0
    6.7645    7.6933    2.7050 C   0  0  0  0  0  0  0  0  0  0  0  0
    7.6040    8.2593    2.3269 H   0  0  0  0  0  0  0  0  0  0  0  0
    6.9868    6.5810    3.4829 C   0  0  0  0  0  0  0  0  0  0  0  0
    7.9956    6.2692    3.7068 H   0  0  0  0  0  0  0  0  0  0  0  0
    5.9043    5.8780    3.9988 C   0  0  0  0  0  0  0  0  0  0  0  0
    6.0728    5.0205    4.6330 H   0  0  0  0  0  0  0  0  0  0  0  0
    4.6161    6.2663    3.7026 C   0  0  0  0  0  0  0  0  0  0  0  0
    3.8003    5.7030    4.1265 H   0  0  0  0  0  0  0  0  0  0  0  0
    4.3530    7.3775    2.8924 C   0  0  0  0  0  0  0  0  0  0  0  0
    3.0048    7.7503    2.4838 C   0  0  0  0  0  0  0  0  0  0  0  0
    1.9207    6.8861    2.6764 C   0  0  0  0  0  0  0  0  0  0  0  0
    2.0640    5.9515    3.1946 H   0  0  0  0  0  0  0  0  0  0  0  0
    0.6666    7.1769    2.1886 C   0  0  0  0  0  0  0  0  0  0  0  0
   -0.1496    6.4907    2.3585 H   0  0  0  0  0  0  0  0  0  0  0  0
    0.4637    8.3298    1.4404 C   0  0  0  0  0  0  0  0  0  0  0  0
   -0.5035    8.5322    1.0054 H   0  0  0  0  0  0  0  0  0  0  0  0
    1.5046    9.2070    1.2436 C   0  0  0  0  0  0  0  0  0  0  0  0
    1.3595   10.0767    0.6215 H   0  0  0  0  0  0  0  0  0  0  0  0
    2.7678    8.9693    1.8004 C   0  0  0  0  0  0  0  0  0  0  0  0
    3.0503   12.2882    0.8972 C   0  0  0  0  0  0  0  0  0  0  0  0
    1.8296   12.3166    1.5881 C   0  0  0  0  0  0  0  0  0  0  0  0
    1.5861   11.5131    2.2689 H   0  0  0  0  0  0  0  0  0  0  0  0
    0.9688   13.3818    1.4611 C   0  0  0  0  0  0  0  0  0  0  0  0
    0.0382   13.3915    2.0083 H   0  0  0  0  0  0  0  0  0  0  0  0
    1.3127   14.4538    0.6459 C   0  0  0  0  0  0  0  0  0  0  0  0
    0.6384   15.2904    0.5392 H   0  0  0  0  0  0  0  0  0  0  0  0
    2.5346   14.4733    0.0128 C   0  0  0  0  0  0  0  0  0  0  0  0
    2.8018   15.3493   -0.5559 H   0  0  0  0  0  0  0  0  0  0  0  0
    3.4425   13.4138    0.1298 C   0  0  0  0  0  0  0  0  0  0  0  0
    4.7845   13.5003   -0.4295 C   0  0  0  0  0  0  0  0  0  0  0  0
    5.1708   14.5258   -1.3005 C   0  0  0  0  0  0  0  0  0  0  0  0
    4.4401   15.2316   -1.6621 H   0  0  0  0  0  0  0  0  0  0  0  0
    6.4736   14.6586   -1.7256 C   0  0  0  0  0  0  0  0  0  0  0  0
    6.7401   15.4615   -2.3969 H   0  0  0  0  0  0  0  0  0  0  0  0
    7.4485   13.7689   -1.2888 C   0  0  0  0  0  0  0  0  0  0  0  0
    8.4732   13.8871   -1.6083 H   0  0  0  0  0  0  0  0  0  0  0  0
    7.0950   12.7289   -0.4619 C   0  0  0  0  0  0  0  0  0  0  0  0
    7.8442   12.0214   -0.1377 H   0  0  0  0  0  0  0  0  0  0  0  0
    5.7704   12.5642   -0.0403 C   0  0  0  0  0  0  0  0  0  0  0  0
    7.3675   10.1965    4.6432 C   0  0  0  0  0  0  0  0  0  0  0  0
    8.6648   10.5456    4.2394 C   0  0  0  0  0  0  0  0  0  0  0  0
    9.7390    9.8818    4.8139 C   0  0  0  0  0  0  0  0  0  0  0  0
   10.7391   10.1472    4.5013 H   0  0  0  0  0  0  0  0  0  0  0  0
    9.5596    8.8975    5.7737 C   0  0  0  0  0  0  0  0  0  0  0  0
    8.2650    8.5869    6.1805 C   0  0  0  0  0  0  0  0  0  0  0  0
    8.1154    7.8330    6.9400 H   0  0  0  0  0  0  0  0  0  0  0  0
    7.1651    9.2219    5.6387 C   0  0  0  0  0  0  0  0  0  0  0  0
    8.8721   11.6246    3.2148 C   0  0  0  0  0  0  0  0  0  0  0  0
    9.3025   11.2099    2.3024 H   0  0  0  0  0  0  0  0  0  0  0  0
    9.5675   12.3713    3.5958 H   0  0  0  0  0  0  0  0  0  0  0  0
    7.9243   12.1197    2.9740 H   0  0  0  0  0  0  0  0  0  0  0  0
   10.7279    8.1811    6.3799 C   0  0  0  0  0  0  0  0  0  0  0  0
   10.7342    8.3143    7.4605 H   0  0  0  0  0  0  0  0  0  0  0  0
   11.6660    8.5544    5.9783 H   0  0  0  0  0  0  0  0  0  0  0  0
   10.6638    7.1126    6.1787 H   0  0  0  0  0  0  0  0  0  0  0  0
    5.7624    8.9346    6.0757 C   0  0  0  0  0  0  0  0  0  0  0  0
    5.1242    8.7345    5.2098 H   0  0  0  0  0  0  0  0  0  0  0  0
    5.3488    9.8067    6.5885 H   0  0  0  0  0  0  0  0  0  0  0  0
    5.7307    8.0818    6.7482 H   0  0  0  0  0  0  0  0  0  0  0  0
  1  2  1  0  0  0  0
  1  4  1  0  0  0  0
  1  3  1  0  0  0  0
  4 51  1  0  0  0  0
  6  5  1  0  0  0  0
  7  5  1  6  0  0  0
  7 11  1  0  0  0  0
  7  1  1  0  0  0  0
  8  7  1  0  0  0  0
  8 30  1  6  0  0  0
  9 10  1  6  0  0  0
  9  8  1  0  0  0  0
  9  1  1  0  0  0  0
 10  5  2  0  0  0  0
 11 12  2  0  0  0  0
 11 20  1  0  0  0  0
 12 14  1  0  0  0  0
 13 12  1  0  0  0  0
 14 15  1  0  0  0  0
 14 16  2  0  0  0  0
 16 17  1  0  0  0  0
 18 16  1  0  0  0  0
 18 19  1  0  0  0  0
 20 18  2  0  0  0  0
 21 22  1  0  0  0  0
 21 20  1  0  0  0  0
 22 23  1  0  0  0  0
 24 25  1  0  0  0  0
 24 22  2  0  0  0  0
 26 24  1  0  0  0  0
 27 26  1  0  0  0  0
 28 26  2  0  0  0  0
 28 30  1  0  0  0  0
 29 28  1  0  0  0  0
 30 21  2  0  0  0  0
 31  9  1  0  0  0  0
 31 32  1  0  0  0  0
 32 33  1  0  0  0  0
 34 32  2  0  0  0  0
 34 35  1  0  0  0  0
 36 34  1  0  0  0  0
 37 36  1  0  0  0  0
 38 40  1  0  0  0  0
 38 36  2  0  0  0  0
 39 38  1  0  0  0  0
 40 31  2  0  0  0  0
 41 50  1  0  0  0  0
 41 40  1  0  0  0  0
 42 41  2  0  0  0  0
 43 42  1  0  0  0  0
 44 42  1  0  0  0  0
 44 46  2  0  0  0  0
 45 44  1  0  0  0  0
 46 48  1  0  0  0  0
 47 46  1  0  0  0  0
 48 49  1  0  0  0  0
 48 50  2  0  0  0  0
 50 10  1  0  0  0  0
 51 58  1  0  0  0  0
 52 51  2  0  0  0  0
 52 53  1  0  0  0  0
 53 55  2  0  0  0  0
 54 53  1  0  0  0  0
 55 56  1  0  0  0  0
 55 63  1  0  0  0  0
 56 57  1  0  0  0  0
 58 67  1  0  0  0  0
 58 56  2  0  0  0  0
 59 61  1  0  0  0  0
 59 52  1  0  0  0  0
 60 59  1  0  0  0  0
 62 59  1  0  0  0  0
 63 64  1  0  0  0  0
 65 63  1  0  0  0  0
 66 63  1  0  0  0  0
 67 69  1  0  0  0  0
 67 70  1  0  0  0  0
 68 67  1  0  0  0  0
M  END
$$$$
