CSD_code = KOCRIE | q = 0 | S = 0 | Stoichiometry = C17H29Cl2NSiTi | MND = 8
 OpenBabel04212202063D

 51 53  0  0  1  0  0  0  0  0999 V2000
   -0.3912    0.8830    3.8973 Ti  0  0  0  0  0  0  0  0  0  0  0  0
   -2.1949   -1.1590    2.9412 Si  0  0  0  0  0  0  0  0  0  0  0  0
   -0.6978    2.9308    4.5725 Cl  0  0  0  0  0  0  0  0  0  0  0  0
    1.5259    1.1321    2.8918 Cl  0  0  0  0  0  0  0  0  0  0  0  0
   -1.6199    0.4325    2.5559 N   0  0  0  0  0  0  0  0  0  0  0  0
   -1.2081   -1.0807    4.5659 C   0  0  1  0  0  3  0  0  0  0  0  0
    0.2135   -1.1988    4.5693 C   0  0  1  0  0  3  0  0  0  0  0  0
    0.7417   -0.3556    5.5832 C   0  0  0  0  0  0  0  0  0  0  0  0
   -0.3399    0.3278    6.1931 C   0  0  0  0  0  0  0  0  0  0  0  0
   -1.5348   -0.0835    5.5425 C   0  0  1  0  0  0  0  0  0  0  0  0
    1.0492   -2.1419    3.7588 C   0  0  0  0  0  0  0  0  0  0  0  0
    0.5043   -2.5010    2.8901 H   0  0  0  0  0  0  0  0  0  0  0  0
    1.3422   -3.0015    4.3673 H   0  0  0  0  0  0  0  0  0  0  0  0
    1.9597   -1.6462    3.4178 H   0  0  0  0  0  0  0  0  0  0  0  0
    2.1838   -0.3018    5.9887 C   0  0  0  0  0  0  0  0  0  0  0  0
    2.3474    0.4507    6.7571 H   0  0  0  0  0  0  0  0  0  0  0  0
    2.8190   -0.0673    5.1320 H   0  0  0  0  0  0  0  0  0  0  0  0
    2.4966   -1.2709    6.3828 H   0  0  0  0  0  0  0  0  0  0  0  0
   -0.2432    1.2321    7.3863 C   0  0  0  0  0  0  0  0  0  0  0  0
   -1.1379    1.8446    7.4858 H   0  0  0  0  0  0  0  0  0  0  0  0
    0.6174    1.8977    7.3072 H   0  0  0  0  0  0  0  0  0  0  0  0
   -0.1325    0.6375    8.2968 H   0  0  0  0  0  0  0  0  0  0  0  0
   -2.9104    0.3904    5.9097 C   0  0  0  0  0  0  0  0  0  0  0  0
   -3.6098    0.2116    5.0960 H   0  0  0  0  0  0  0  0  0  0  0  0
   -2.9018    1.4612    6.1244 H   0  0  0  0  0  0  0  0  0  0  0  0
   -3.2705   -0.1319    6.7996 H   0  0  0  0  0  0  0  0  0  0  0  0
   -4.0698   -1.5774    3.0763 C   0  0  0  0  0  0  0  0  0  0  0  0
   -4.4644   -1.6163    4.0889 H   0  0  0  0  0  0  0  0  0  0  0  0
   -4.6716   -0.8534    2.5276 H   0  0  0  0  0  0  0  0  0  0  0  0
   -4.1969   -2.9493    2.4166 C   0  0  0  0  0  0  0  0  0  0  0  0
   -3.9118   -3.7188    3.1362 H   0  0  0  0  0  0  0  0  0  0  0  0
   -5.2237   -3.1469    2.1022 H   0  0  0  0  0  0  0  0  0  0  0  0
   -3.2406   -3.0121    1.2310 C   0  0  0  0  0  0  0  0  0  0  0  0
   -3.5743   -2.3143    0.4612 H   0  0  0  0  0  0  0  0  0  0  0  0
   -3.2327   -4.0118    0.7921 H   0  0  0  0  0  0  0  0  0  0  0  0
   -1.8550   -2.6101    1.7279 C   0  0  0  0  0  0  0  0  0  0  0  0
   -1.1958   -2.3651    0.8975 H   0  0  0  0  0  0  0  0  0  0  0  0
   -1.4188   -3.4593    2.2529 H   0  0  0  0  0  0  0  0  0  0  0  0
   -2.1224    1.3606    1.5581 C   0  0  0  0  0  0  0  0  0  0  0  0
   -2.6548    0.6150    0.3280 C   0  0  0  0  0  0  0  0  0  0  0  0
   -3.5052   -0.0034    0.5983 H   0  0  0  0  0  0  0  0  0  0  0  0
   -1.8742   -0.0195   -0.0845 H   0  0  0  0  0  0  0  0  0  0  0  0
   -2.9701    1.3247   -0.4330 H   0  0  0  0  0  0  0  0  0  0  0  0
   -0.9926    2.2988    1.0980 C   0  0  0  0  0  0  0  0  0  0  0  0
   -0.6301    2.9095    1.9304 H   0  0  0  0  0  0  0  0  0  0  0  0
   -1.3567    2.9653    0.3182 H   0  0  0  0  0  0  0  0  0  0  0  0
   -0.1644    1.7111    0.6973 H   0  0  0  0  0  0  0  0  0  0  0  0
   -3.2552    2.1917    2.1875 C   0  0  0  0  0  0  0  0  0  0  0  0
   -2.8885    2.6916    3.0857 H   0  0  0  0  0  0  0  0  0  0  0  0
   -4.0825    1.5414    2.4646 H   0  0  0  0  0  0  0  0  0  0  0  0
   -3.6145    2.9406    1.4859 H   0  0  0  0  0  0  0  0  0  0  0  0
  1  3  1  0  0  0  0
  1 10  1  0  0  0  0
  2 27  1  0  0  0  0
  4  1  1  0  0  0  0
  5  2  1  0  0  0  0
  5  1  1  0  0  0  0
  6  2  1  6  0  0  0
  6  7  1  0  0  0  0
  6 10  1  0  0  0  0
  7 11  1  1  0  0  0
  7  8  1  0  0  0  0
  8 15  1  0  0  0  0
  8  9  2  0  0  0  0
  9 19  1  0  0  0  0
 10 23  1  1  0  0  0
 10  9  1  0  0  0  0
 11 13  1  0  0  0  0
 12 11  1  0  0  0  0
 14 11  1  0  0  0  0
 15 18  1  0  0  0  0
 15 16  1  0  0  0  0
 17 15  1  0  0  0  0
 19 20  1  0  0  0  0
 19 22  1  0  0  0  0
 21 19  1  0  0  0  0
 23 25  1  0  0  0  0
 23 26  1  0  0  0  0
 24 23  1  0  0  0  0
 27 28  1  0  0  0  0
 29 27  1  0  0  0  0
 30 27  1  0  0  0  0
 30 31  1  0  0  0  0
 32 30  1  0  0  0  0
 33 36  1  0  0  0  0
 33 30  1  0  0  0  0
 34 33  1  0  0  0  0
 35 33  1  0  0  0  0
 36 38  1  0  0  0  0
 36  2  1  0  0  0  0
 37 36  1  0  0  0  0
 39 48  1  0  0  0  0
 39  5  1  0  0  0  0
 40 41  1  0  0  0  0
 40 39  1  0  0  0  0
 42 40  1  0  0  0  0
 43 40  1  0  0  0  0
 44 39  1  0  0  0  0
 44 45  1  0  0  0  0
 46 44  1  0  0  0  0
 47 44  1  0  0  0  0
 48 50  1  0  0  0  0
 48 49  1  0  0  0  0
 51 48  1  0  0  0  0
M  END
$$$$
