CSD_code = KOCXOS | q = 0 | S = 0 | Stoichiometry = C28H26I2N2O4Zn | MND = 4
 OpenBabel04212202063D

 63 66  0  0  0  0  0  0  0  0999 V2000
   -0.6383   -0.9555   13.7736 C   0  0  0  0  0  0  0  0  0  0  0  0
   -0.9340   -2.1881   10.4068 C   0  0  0  0  0  0  0  0  0  0  0  0
    0.2059   -2.0604   13.4871 C   0  0  0  0  0  0  0  0  0  0  0  0
    0.9257   -1.9461   12.6892 H   0  0  0  0  0  0  0  0  0  0  0  0
   -1.8153   -2.8101   11.3298 C   0  0  0  0  0  0  0  0  0  0  0  0
   -2.5329   -2.1812   11.8371 H   0  0  0  0  0  0  0  0  0  0  0  0
    0.1167   -3.2278   14.1878 C   0  0  0  0  0  0  0  0  0  0  0  0
    0.7727   -4.0505   13.9427 H   0  0  0  0  0  0  0  0  0  0  0  0
   -1.7624   -4.1513   11.5747 C   0  0  0  0  0  0  0  0  0  0  0  0
   -2.4455   -4.5930   12.2858 H   0  0  0  0  0  0  0  0  0  0  0  0
   -0.8231   -3.3818   15.2207 C   0  0  0  0  0  0  0  0  0  0  0  0
   -0.8857   -4.3193   15.7510 H   0  0  0  0  0  0  0  0  0  0  0  0
   -0.8247   -4.9694   10.9225 C   0  0  0  0  0  0  0  0  0  0  0  0
   -0.7909   -6.0249   11.1437 H   0  0  0  0  0  0  0  0  0  0  0  0
   -1.6375   -2.3390   15.5536 C   0  0  0  0  0  0  0  0  0  0  0  0
   -2.3519   -2.4346   16.3595 H   0  0  0  0  0  0  0  0  0  0  0  0
    0.0245   -4.4240   10.0044 C   0  0  0  0  0  0  0  0  0  0  0  0
    0.7378   -5.0436    9.4789 H   0  0  0  0  0  0  0  0  0  0  0  0
   -1.5637   -1.1015   14.8739 C   0  0  0  0  0  0  0  0  0  0  0  0
   -0.0109   -3.0443    9.6976 C   0  0  0  0  0  0  0  0  0  0  0  0
   -2.3704   -0.0288   15.2866 C   0  0  0  0  0  0  0  0  0  0  0  0
   -3.0755   -0.1838   16.0966 H   0  0  0  0  0  0  0  0  0  0  0  0
    0.8331   -2.5283    8.7009 C   0  0  0  0  0  0  0  0  0  0  0  0
    1.5363   -3.1948    8.2126 H   0  0  0  0  0  0  0  0  0  0  0  0
   -2.9620    2.3334   15.0106 C   0  0  0  0  0  0  0  0  0  0  0  0
    1.5032   -0.5825    7.3693 C   0  0  0  0  0  0  0  0  0  0  0  0
   -4.1321    2.3984   15.7570 C   0  0  0  0  0  0  0  0  0  0  0  0
   -4.5502    1.4983   16.1797 H   0  0  0  0  0  0  0  0  0  0  0  0
    2.6666   -1.0600    6.7783 C   0  0  0  0  0  0  0  0  0  0  0  0
    3.0467   -2.0325    7.0491 H   0  0  0  0  0  0  0  0  0  0  0  0
   -4.7755    3.6082   15.9335 C   0  0  0  0  0  0  0  0  0  0  0  0
   -5.6868    3.6530   16.5085 H   0  0  0  0  0  0  0  0  0  0  0  0
    3.3514   -0.2805    5.8661 C   0  0  0  0  0  0  0  0  0  0  0  0
    4.2566   -0.6532    5.4138 H   0  0  0  0  0  0  0  0  0  0  0  0
   -4.2568    4.7549   15.3569 C   0  0  0  0  0  0  0  0  0  0  0  0
   -4.7650    5.6984   15.4825 H   0  0  0  0  0  0  0  0  0  0  0  0
    2.8813    0.9825    5.5490 C   0  0  0  0  0  0  0  0  0  0  0  0
    3.4218    1.5980    4.8469 H   0  0  0  0  0  0  0  0  0  0  0  0
   -3.0913    4.7097   14.6108 C   0  0  0  0  0  0  0  0  0  0  0  0
   -2.7125    5.6149   14.1656 H   0  0  0  0  0  0  0  0  0  0  0  0
    1.7235    1.4747    6.1270 C   0  0  0  0  0  0  0  0  0  0  0  0
    1.3831    2.4642    5.8700 H   0  0  0  0  0  0  0  0  0  0  0  0
   -2.4236    3.5062   14.4318 C   0  0  0  0  0  0  0  0  0  0  0  0
    1.0142    0.7021    7.0362 C   0  0  0  0  0  0  0  0  0  0  0  0
   -0.7121    4.4528   13.0732 C   0  0  0  0  0  0  0  0  0  0  0  0
    0.1899    4.0821   12.5889 H   0  0  0  0  0  0  0  0  0  0  0  0
   -0.4424    5.2515   13.7695 H   0  0  0  0  0  0  0  0  0  0  0  0
   -1.4038    4.8340   12.3172 H   0  0  0  0  0  0  0  0  0  0  0  0
   -0.6446    2.3660    7.4256 C   0  0  0  0  0  0  0  0  0  0  0  0
   -0.8919    2.5292    6.3731 H   0  0  0  0  0  0  0  0  0  0  0  0
    0.0699    3.1216    7.7630 H   0  0  0  0  0  0  0  0  0  0  0  0
   -1.5543    2.4323    8.0202 H   0  0  0  0  0  0  0  0  0  0  0  0
   -2.9840    1.9626   10.9998 I   0  0  0  0  0  0  0  0  0  0  0  0
    1.5562    1.7264   10.6590 I   0  0  0  0  0  0  0  0  0  0  0  0
   -2.2756    1.1607   14.7493 N   0  0  0  0  0  4  0  0  0  0  0  0
   -1.5478    1.2210   14.0114 H   0  0  0  0  0  0  0  0  0  0  0  0
    0.7764   -1.2777    8.3195 N   0  0  0  0  0  4  0  0  0  0  0  0
    0.0495   -0.7290    8.8181 H   0  0  0  0  0  0  0  0  0  0  0  0
   -0.5810    0.1233   13.0979 O   0  0  0  0  0  0  0  0  0  0  0  0
   -0.9574   -0.9303   10.2037 O   0  0  0  0  0  0  0  0  0  0  0  0
   -1.2650    3.3453   13.7525 O   0  0  0  0  0  0  0  0  0  0  0  0
   -0.1418    1.0637    7.6384 O   0  0  0  0  0  0  0  0  0  0  0  0
   -0.7388    0.8370   11.1957 Zn  0  0  0  0  0  0  0  0  0  0  0  0
  1 19  1  0  0  0  0
  2  5  1  0  0  0  0
  3  1  2  0  0  0  0
  3  7  1  0  0  0  0
  4  3  1  0  0  0  0
  5  9  2  0  0  0  0
  5  6  1  0  0  0  0
  7 11  2  0  0  0  0
  8  7  1  0  0  0  0
  9 10  1  0  0  0  0
 11 15  1  0  0  0  0
 11 12  1  0  0  0  0
 13 14  1  0  0  0  0
 13  9  1  0  0  0  0
 15 16  1  0  0  0  0
 17 13  2  0  0  0  0
 18 17  1  0  0  0  0
 19 21  1  0  0  0  0
 19 15  2  0  0  0  0
 20 17  1  0  0  0  0
 20  2  2  0  0  0  0
 21 22  1  0  0  0  0
 23 20  1  0  0  0  0
 24 23  1  0  0  0  0
 25 27  1  0  0  0  0
 26 57  1  0  0  0  0
 27 31  2  0  0  0  0
 27 28  1  0  0  0  0
 29 30  1  0  0  0  0
 29 26  2  0  0  0  0
 31 32  1  0  0  0  0
 33 29  1  0  0  0  0
 34 33  1  0  0  0  0
 35 36  1  0  0  0  0
 35 31  1  0  0  0  0
 37 33  2  0  0  0  0
 37 41  1  0  0  0  0
 38 37  1  0  0  0  0
 39 35  2  0  0  0  0
 40 39  1  0  0  0  0
 41 44  2  0  0  0  0
 42 41  1  0  0  0  0
 43 39  1  0  0  0  0
 43 25  2  0  0  0  0
 44 26  1  0  0  0  0
 44 62  1  0  0  0  0
 45 61  1  0  0  0  0
 45 47  1  0  0  0  0
 46 45  1  0  0  0  0
 48 45  1  0  0  0  0
 49 62  1  0  0  0  0
 49 51  1  0  0  0  0
 49 52  1  0  0  0  0
 50 49  1  0  0  0  0
 53 63  1  0  0  0  0
 54 63  1  0  0  0  0
 55 25  1  0  0  0  0
 55 21  2  0  0  0  0
 56 55  1  0  0  0  0
 57 23  2  0  0  0  0
 57 58  1  0  0  0  0
 59  1  1  0  0  0  0
 60  2  1  0  0  0  0
 60 63  1  0  0  0  0
 61 43  1  0  0  0  0
 63 59  1  0  0  0  0
M  END
$$$$
