CSD_code = KOCXIM | q = 0 | S = 0 | Stoichiometry = C28H26Cl2N2O4Zn | MND = 4
 OpenBabel04212202063D

 63 66  0  0  0  0  0  0  0  0999 V2000
    4.1705    1.4558   10.5547 Zn  0  0  0  0  0  0  0  0  0  0  0  0
    2.5281    1.7789    9.1101 Cl  0  0  0  0  0  0  0  0  0  0  0  0
    5.7317    2.9458   11.0349 Cl  0  0  0  0  0  0  0  0  0  0  0  0
    3.6235    1.1048   12.4856 O   0  0  0  0  0  0  0  0  0  0  0  0
    4.8091   -0.3061    9.7566 O   0  0  0  0  0  0  0  0  0  0  0  0
    7.1755    1.4286    7.9679 O   0  0  0  0  0  0  0  0  0  0  0  0
    1.2601    3.5776   12.0953 O   0  0  0  0  0  0  0  0  0  0  0  0
    5.8309   -0.7376    7.3893 N   0  0  0  0  0  4  0  0  0  0  0  0
    5.7648   -0.1877    8.2656 H   0  0  0  0  0  0  0  0  0  0  0  0
    2.6758    2.8624   14.1761 N   0  0  0  0  0  4  0  0  0  0  0  0
    2.7029    2.4282   13.2354 H   0  0  0  0  0  0  0  0  0  0  0  0
    3.9863   -1.2599    9.5334 C   0  0  0  0  0  0  0  0  0  0  0  0
    4.4826    0.7729   13.3731 C   0  0  0  0  0  0  0  0  0  0  0  0
    4.4425    1.3437   14.6987 C   0  0  0  0  0  0  0  0  0  0  0  0
    4.0758   -2.0538    8.3307 C   0  0  0  0  0  0  0  0  0  0  0  0
    4.9839   -1.7360    7.3146 C   0  0  0  0  0  0  0  0  0  0  0  0
    4.9706   -2.3367    6.4116 H   0  0  0  0  0  0  0  0  0  0  0  0
    5.5045   -0.1766   13.1140 C   0  0  0  0  0  0  0  0  0  0  0  0
    5.5689   -0.5736   12.1120 H   0  0  0  0  0  0  0  0  0  0  0  0
    2.9598   -1.5992   10.4519 C   0  0  0  0  0  0  0  0  0  0  0  0
    2.8618   -0.9843   11.3342 H   0  0  0  0  0  0  0  0  0  0  0  0
    3.5518    2.3740   15.0207 C   0  0  0  0  0  0  0  0  0  0  0  0
    3.6066    2.8035   16.0152 H   0  0  0  0  0  0  0  0  0  0  0  0
    3.1839   -3.1388    8.1463 C   0  0  0  0  0  0  0  0  0  0  0  0
    3.2749   -3.7229    7.2412 H   0  0  0  0  0  0  0  0  0  0  0  0
    6.9725   -0.9258    5.2279 C   0  0  0  0  0  0  0  0  0  0  0  0
    6.4320   -1.8240    4.9745 H   0  0  0  0  0  0  0  0  0  0  0  0
    5.3689    0.9010   15.6745 C   0  0  0  0  0  0  0  0  0  0  0  0
    5.3128    1.3359   16.6626 H   0  0  0  0  0  0  0  0  0  0  0  0
    7.8980   -0.4164    4.3365 C   0  0  0  0  0  0  0  0  0  0  0  0
    8.0699   -0.9174    3.3969 H   0  0  0  0  0  0  0  0  0  0  0  0
    7.4594    0.8840    6.7697 C   0  0  0  0  0  0  0  0  0  0  0  0
    6.7399   -0.2905    6.4428 C   0  0  0  0  0  0  0  0  0  0  0  0
    2.1149   -2.6467   10.2281 C   0  0  0  0  0  0  0  0  0  0  0  0
    1.3420   -2.8752   10.9476 H   0  0  0  0  0  0  0  0  0  0  0  0
    1.6064    4.5850   15.5537 C   0  0  0  0  0  0  0  0  0  0  0  0
    2.1749    4.2988   16.4243 H   0  0  0  0  0  0  0  0  0  0  0  0
    2.2290   -3.4377    9.0709 C   0  0  0  0  0  0  0  0  0  0  0  0
    1.5523   -4.2642    8.9181 H   0  0  0  0  0  0  0  0  0  0  0  0
    1.7859    3.9110   14.3506 C   0  0  0  0  0  0  0  0  0  0  0  0
    0.1221    5.3360   13.3304 C   0  0  0  0  0  0  0  0  0  0  0  0
   -0.4630    5.6418   12.4785 H   0  0  0  0  0  0  0  0  0  0  0  0
    8.3848    1.3807    5.8585 C   0  0  0  0  0  0  0  0  0  0  0  0
    8.9426    2.2745    6.0859 H   0  0  0  0  0  0  0  0  0  0  0  0
    6.3143   -0.0357   15.3825 C   0  0  0  0  0  0  0  0  0  0  0  0
    7.0170   -0.3633   16.1328 H   0  0  0  0  0  0  0  0  0  0  0  0
    8.5991    0.7340    4.6535 C   0  0  0  0  0  0  0  0  0  0  0  0
    9.3217    1.1352    3.9596 H   0  0  0  0  0  0  0  0  0  0  0  0
    1.0289    4.2881   13.2154 C   0  0  0  0  0  0  0  0  0  0  0  0
    7.8239    2.6241    8.3528 C   0  0  0  0  0  0  0  0  0  0  0  0
    7.6251    3.4274    7.6386 H   0  0  0  0  0  0  0  0  0  0  0  0
    8.9026    2.4721    8.4510 H   0  0  0  0  0  0  0  0  0  0  0  0
    7.3946    2.8844    9.3208 H   0  0  0  0  0  0  0  0  0  0  0  0
    6.3846   -0.5651   14.0814 C   0  0  0  0  0  0  0  0  0  0  0  0
    7.1516   -1.2896   13.8489 H   0  0  0  0  0  0  0  0  0  0  0  0
   -0.0385    5.9955   14.5367 C   0  0  0  0  0  0  0  0  0  0  0  0
   -0.7475    6.8062   14.6054 H   0  0  0  0  0  0  0  0  0  0  0  0
    0.5686    3.9173   10.9102 C   0  0  0  0  0  0  0  0  0  0  0  0
    0.9551    3.2396   10.1482 H   0  0  0  0  0  0  0  0  0  0  0  0
    0.7736    4.9502   10.6171 H   0  0  0  0  0  0  0  0  0  0  0  0
   -0.5088    3.7705   11.0281 H   0  0  0  0  0  0  0  0  0  0  0  0
    0.6983    5.6227   15.6474 C   0  0  0  0  0  0  0  0  0  0  0  0
    0.5678    6.1382   16.5858 H   0  0  0  0  0  0  0  0  0  0  0  0
  1  3  1  0  0  0  0
  1  4  1  0  0  0  0
  2  1  1  0  0  0  0
  4 13  1  0  0  0  0
  5  1  1  0  0  0  0
  6 50  1  0  0  0  0
  7 49  1  0  0  0  0
  8  9  1  0  0  0  0
 10 40  1  0  0  0  0
 10 22  2  0  0  0  0
 11 10  1  0  0  0  0
 12  5  1  0  0  0  0
 12 20  1  0  0  0  0
 13 14  1  0  0  0  0
 14 22  1  0  0  0  0
 14 28  2  0  0  0  0
 15 12  2  0  0  0  0
 16  8  2  0  0  0  0
 16 15  1  0  0  0  0
 17 16  1  0  0  0  0
 18 13  2  0  0  0  0
 18 54  1  0  0  0  0
 19 18  1  0  0  0  0
 20 21  1  0  0  0  0
 22 23  1  0  0  0  0
 24 15  1  0  0  0  0
 24 38  2  0  0  0  0
 25 24  1  0  0  0  0
 26 33  1  0  0  0  0
 27 26  1  0  0  0  0
 28 29  1  0  0  0  0
 30 47  1  0  0  0  0
 30 26  2  0  0  0  0
 31 30  1  0  0  0  0
 32  6  1  0  0  0  0
 33 32  2  0  0  0  0
 33  8  1  0  0  0  0
 34 20  2  0  0  0  0
 34 35  1  0  0  0  0
 36 62  1  0  0  0  0
 36 37  1  0  0  0  0
 38 34  1  0  0  0  0
 39 38  1  0  0  0  0
 40 36  2  0  0  0  0
 41 56  1  0  0  0  0
 42 41  1  0  0  0  0
 43 44  1  0  0  0  0
 43 32  1  0  0  0  0
 45 28  1  0  0  0  0
 45 46  1  0  0  0  0
 47 43  2  0  0  0  0
 48 47  1  0  0  0  0
 49 41  2  0  0  0  0
 49 40  1  0  0  0  0
 50 52  1  0  0  0  0
 50 53  1  0  0  0  0
 51 50  1  0  0  0  0
 54 45  2  0  0  0  0
 55 54  1  0  0  0  0
 56 57  1  0  0  0  0
 56 62  2  0  0  0  0
 58 61  1  0  0  0  0
 58  7  1  0  0  0  0
 59 58  1  0  0  0  0
 60 58  1  0  0  0  0
 62 63  1  0  0  0  0
M  END
$$$$
