CSD_code = KODBIP | q = 0 | S = 0 | Stoichiometry = C15H26Cl2N2Pt | MND = 4
 OpenBabel04212202063D

 46 50  0  0  1  0  0  0  0  0999 V2000
    4.9205    0.2428   11.0015 Pt  0  0  0  0  0  0  0  0  0  0  0  0
    5.4830   -0.3138   13.1205 Cl  0  0  0  0  0  0  0  0  0  0  0  0
    2.8981    0.7202   11.9017 Cl  0  0  0  0  0  0  0  0  0  0  0  0
    4.3255    0.6593    8.9615 N   0  0  2  0  0  4  0  0  0  0  0  0
    6.9952    0.2878   10.1947 N   0  0  2  0  0  4  0  0  0  0  0  0
    2.8612    0.6604    8.7841 C   0  0  0  0  0  0  0  0  0  0  0  0
    2.4294    1.3687    9.4929 H   0  0  0  0  0  0  0  0  0  0  0  0
    2.6289    0.9932    7.7605 H   0  0  0  0  0  0  0  0  0  0  0  0
    2.2483   -0.7143    9.0309 C   0  0  0  0  0  0  0  0  0  0  0  0
    1.1754   -0.6536    8.8481 H   0  0  0  0  0  0  0  0  0  0  0  0
    2.3980   -0.9743   10.0807 H   0  0  0  0  0  0  0  0  0  0  0  0
    2.8913   -1.7787    8.1528 C   0  0  0  0  0  0  0  0  0  0  0  0
    2.6407   -1.6118    7.1014 H   0  0  0  0  0  0  0  0  0  0  0  0
    2.5247   -2.7666    8.4319 H   0  0  0  0  0  0  0  0  0  0  0  0
    4.4004   -1.6976    8.3418 C   0  0  0  0  0  0  0  0  0  0  0  0
    4.6334   -1.8928    9.3964 H   0  0  0  0  0  0  0  0  0  0  0  0
    4.9147   -2.4353    7.7237 H   0  0  0  0  0  0  0  0  0  0  0  0
    4.8735   -0.2902    7.9781 C   0  0  2  0  0  0  0  0  0  0  0  0
    4.4489   -0.0342    6.9906 H   0  0  0  0  0  0  0  0  0  0  0  0
    6.3946   -0.1956    7.8122 C   0  0  2  0  0  0  0  0  0  0  0  0
    6.6694   -0.8866    7.0069 H   0  0  0  0  0  0  0  0  0  0  0  0
    7.2133   -0.5875    9.0412 C   0  0  0  0  0  0  0  0  0  0  0  0
    8.2700   -0.5760    8.7434 H   0  0  0  0  0  0  0  0  0  0  0  0
    6.9686   -1.6079    9.3466 H   0  0  0  0  0  0  0  0  0  0  0  0
    7.9082   -0.0876   11.2904 C   0  0  0  0  0  0  0  0  0  0  0  0
    7.7927   -1.1589   11.4672 H   0  0  0  0  0  0  0  0  0  0  0  0
    7.5721    0.4277   12.1927 H   0  0  0  0  0  0  0  0  0  0  0  0
    9.3745    0.2717   11.0698 C   0  0  0  0  0  0  0  0  0  0  0  0
    9.9346   -0.0394   11.9517 H   0  0  0  0  0  0  0  0  0  0  0  0
    9.7996   -0.2500   10.2097 H   0  0  0  0  0  0  0  0  0  0  0  0
    9.4759    1.7773   10.8722 C   0  0  0  0  0  0  0  0  0  0  0  0
   10.5098    2.0823   10.7009 H   0  0  0  0  0  0  0  0  0  0  0  0
    9.1169    2.2867   11.7685 H   0  0  0  0  0  0  0  0  0  0  0  0
    8.6150    2.1604    9.6759 C   0  0  0  0  0  0  0  0  0  0  0  0
    9.0456    1.7071    8.7823 H   0  0  0  0  0  0  0  0  0  0  0  0
    8.6277    3.2429    9.5349 H   0  0  0  0  0  0  0  0  0  0  0  0
    7.1504    1.7197    9.8585 C   0  0  1  0  0  0  0  0  0  0  0  0
    6.7509    2.2787   10.7186 H   0  0  0  0  0  0  0  0  0  0  0  0
    6.3482    2.1090    8.6011 C   0  0  2  0  0  0  0  0  0  0  0  0
    6.5827    3.1573    8.3859 H   0  0  0  0  0  0  0  0  0  0  0  0
    4.8254    2.0232    8.7488 C   0  0  0  0  0  0  0  0  0  0  0  0
    4.4855    2.6390    9.5889 H   0  0  0  0  0  0  0  0  0  0  0  0
    4.3837    2.4376    7.8278 H   0  0  0  0  0  0  0  0  0  0  0  0
    6.7479    1.2329    7.4170 C   0  0  0  0  0  0  0  0  0  0  0  0
    7.8087    1.3227    7.1859 H   0  0  0  0  0  0  0  0  0  0  0  0
    6.1940    1.5329    6.5248 H   0  0  0  0  0  0  0  0  0  0  0  0
  1  3  1  0  0  0  0
  1  2  1  0  0  0  0
  4 41  1  6  0  0  0
  4  1  1  0  0  0  0
  5 22  1  6  0  0  0
  5  1  1  0  0  0  0
  5 25  1  0  0  0  0
  6  4  1  0  0  0  0
  6  9  1  0  0  0  0
  6  7  1  0  0  0  0
  8  6  1  0  0  0  0
  9 11  1  0  0  0  0
 10  9  1  0  0  0  0
 12 15  1  0  0  0  0
 12 14  1  0  0  0  0
 12  9  1  0  0  0  0
 13 12  1  0  0  0  0
 15 16  1  0  0  0  0
 17 15  1  0  0  0  0
 18 19  1  6  0  0  0
 18 15  1  0  0  0  0
 18  4  1  0  0  0  0
 20 21  1  6  0  0  0
 20 18  1  0  0  0  0
 20 22  1  0  0  0  0
 22 24  1  0  0  0  0
 23 22  1  0  0  0  0
 25 26  1  0  0  0  0
 25 27  1  0  0  0  0
 28 25  1  0  0  0  0
 28 29  1  0  0  0  0
 30 28  1  0  0  0  0
 31 28  1  0  0  0  0
 31 33  1  0  0  0  0
 32 31  1  0  0  0  0
 34 37  1  0  0  0  0
 34 31  1  0  0  0  0
 35 34  1  0  0  0  0
 36 34  1  0  0  0  0
 37  5  1  0  0  0  0
 37 38  1  1  0  0  0
 39 40  1  6  0  0  0
 39 41  1  0  0  0  0
 39 37  1  0  0  0  0
 41 42  1  0  0  0  0
 43 41  1  0  0  0  0
 44 20  1  0  0  0  0
 44 39  1  0  0  0  0
 45 44  1  0  0  0  0
 46 44  1  0  0  0  0
M  END
$$$$
