CSD_code = KODCOV | q = 0 | S = 0 | Stoichiometry = C20H32BClN6OW | MND = 6
 OpenBabel04212202063D

 62 66  0  0  1  0  0  0  0  0999 V2000
    3.3177    3.1871    3.0953 W   0  0  0  0  0  0  0  0  0  0  0  0
    2.8318    3.9011    0.8903 Cl  0  0  0  0  0  0  0  0  0  0  0  0
    4.3122    4.4944    3.4411 O   0  0  0  0  0  1  0  0  0  0  0  0
    4.0965   -0.1354    3.2673 B   0  0  1  0  0  0  0  0  0  0  0  0
    3.9162    1.9028    4.7192 N   0  0  1  0  0  0  0  0  0  0  0  0
    4.2043    0.5823    4.6236 N   0  0  0  0  0  0  0  0  0  0  0  0
    2.1904    1.2794    2.4348 N   0  0  1  0  0  0  0  0  0  0  0  0
    2.6720    0.0446    2.7319 N   0  0  0  0  0  0  0  0  0  0  0  0
    4.8831    1.9420    2.1360 N   0  0  2  0  0  0  0  0  0  0  0  0
    5.0371    0.6120    2.3084 N   0  0  0  0  0  0  0  0  0  0  0  0
    4.2568    2.3026    5.9515 C   0  0  2  0  0  3  0  0  0  0  0  0
    4.7529    1.2111    6.6649 C   0  0  0  0  0  0  0  0  0  0  0  0
    4.7059    0.1381    5.7923 C   0  0  0  0  0  0  0  0  0  0  0  0
    4.0741    3.7089    6.3791 C   0  0  0  0  0  0  0  0  0  0  0  0
    5.1128   -1.2697    6.0353 C   0  0  0  0  0  0  0  0  0  0  0  0
    5.8661    2.3700    1.3447 C   0  0  2  0  0  3  0  0  0  0  0  0
    6.6679    1.2803    0.9885 C   0  0  0  0  0  0  0  0  0  0  0  0
    6.1110    0.1822    1.6174 C   0  0  0  0  0  0  0  0  0  0  0  0
    6.0313    3.7983    0.9725 C   0  0  0  0  0  0  0  0  0  0  0  0
    6.5556   -1.2352    1.5842 C   0  0  0  0  0  0  0  0  0  0  0  0
    1.0199    1.1052    1.8098 C   0  0  2  0  0  3  0  0  0  0  0  0
    0.7411   -0.2610    1.7226 C   0  0  0  0  0  0  0  0  0  0  0  0
    1.8122   -0.9021    2.3131 C   0  0  0  0  0  0  0  0  0  0  0  0
    0.1849    2.2037    1.2633 C   0  0  0  0  0  0  0  0  0  0  0  0
    2.0292   -2.3609    2.4943 C   0  0  0  0  0  0  0  0  0  0  0  0
    1.5897    3.7642    3.9315 C   0  0  0  0  0  3  0  0  0  0  0  0
    1.0426    5.1371    4.2563 C   0  0  0  0  0  0  0  0  0  0  0  0
   -0.0495    5.4543    3.2118 C   0  0  0  0  0  0  0  0  0  0  0  0
    2.1158    6.2236    4.1454 C   0  0  0  0  0  0  0  0  0  0  0  0
    0.3965    5.1871    5.6507 C   0  0  0  0  0  0  0  0  0  0  0  0
    4.3860   -1.2723    3.3597 H   0  0  0  0  0  0  0  0  0  0  0  0
    5.1015    1.2050    7.6771 H   0  0  0  0  0  0  0  0  0  0  0  0
    4.5019    3.8723    7.3644 H   0  0  0  0  0  0  0  0  0  0  0  0
    3.0080    3.9456    6.3909 H   0  0  0  0  0  0  0  0  0  0  0  0
    4.5454    4.3710    5.6465 H   0  0  0  0  0  0  0  0  0  0  0  0
    5.4155   -1.3851    7.0722 H   0  0  0  0  0  0  0  0  0  0  0  0
    5.9476   -1.5460    5.3934 H   0  0  0  0  0  0  0  0  0  0  0  0
    4.2890   -1.9501    5.8288 H   0  0  0  0  0  0  0  0  0  0  0  0
    7.5337    1.2960    0.3586 H   0  0  0  0  0  0  0  0  0  0  0  0
    7.0869    4.0350    0.8545 H   0  0  0  0  0  0  0  0  0  0  0  0
    5.5946    4.4354    1.7506 H   0  0  0  0  0  0  0  0  0  0  0  0
    5.5176    4.0096    0.0340 H   0  0  0  0  0  0  0  0  0  0  0  0
    7.4226   -1.3275    0.9359 H   0  0  0  0  0  0  0  0  0  0  0  0
    5.7624   -1.8779    1.2061 H   0  0  0  0  0  0  0  0  0  0  0  0
    6.8238   -1.5798    2.5817 H   0  0  0  0  0  0  0  0  0  0  0  0
   -0.1237   -0.7139    1.2828 H   0  0  0  0  0  0  0  0  0  0  0  0
   -0.8568    1.8918    1.2239 H   0  0  0  0  0  0  0  0  0  0  0  0
    0.5183    2.4501    0.2550 H   0  0  0  0  0  0  0  0  0  0  0  0
    0.2864    3.1030    1.8663 H   0  0  0  0  0  0  0  0  0  0  0  0
    1.1534   -2.9014    2.1458 H   0  0  0  0  0  0  0  0  0  0  0  0
    2.1978   -2.5979    3.5430 H   0  0  0  0  0  0  0  0  0  0  0  0
    2.8960   -2.6964    1.9276 H   0  0  0  0  0  0  0  0  0  0  0  0
    0.7705    3.0420    4.1313 H   0  0  0  0  0  0  0  0  0  0  0  0
   -0.4610    6.4467    3.3880 H   0  0  0  0  0  0  0  0  0  0  0  0
   -0.8636    4.7333    3.2669 H   0  0  0  0  0  0  0  0  0  0  0  0
    0.3808    5.4318    2.2117 H   0  0  0  0  0  0  0  0  0  0  0  0
    2.8666    6.1077    4.9236 H   0  0  0  0  0  0  0  0  0  0  0  0
    1.6696    7.2127    4.2379 H   0  0  0  0  0  0  0  0  0  0  0  0
    2.6137    6.1466    3.1745 H   0  0  0  0  0  0  0  0  0  0  0  0
   -0.0499    6.1643    5.8262 H   0  0  0  0  0  0  0  0  0  0  0  0
    1.1362    5.0084    6.4286 H   0  0  0  0  0  0  0  0  0  0  0  0
   -0.3834    4.4328    5.7407 H   0  0  0  0  0  0  0  0  0  0  0  0
  1  3  1  0  0  0  0
  1 26  1  0  0  0  0
  1  5  1  0  0  0  0
  2  1  1  0  0  0  0
  4 31  1  1  0  0  0
  4  6  1  0  0  0  0
  5  6  1  6  0  0  0
  5 11  1  0  0  0  0
  6 13  1  0  0  0  0
  7  8  1  1  0  0  0
  7  1  1  0  0  0  0
  8  4  1  0  0  0  0
  9 10  1  1  0  0  0
  9  1  1  0  0  0  0
 10  4  1  0  0  0  0
 11 14  1  1  0  0  0
 11 12  1  0  0  0  0
 12 32  1  0  0  0  0
 13 15  1  0  0  0  0
 13 12  2  0  0  0  0
 14 34  1  0  0  0  0
 14 33  1  0  0  0  0
 15 36  1  0  0  0  0
 16 19  1  1  0  0  0
 16  9  1  0  0  0  0
 17 16  1  0  0  0  0
 17 18  2  0  0  0  0
 18 10  1  0  0  0  0
 19 41  1  0  0  0  0
 20 18  1  0  0  0  0
 20 45  1  0  0  0  0
 21 24  1  6  0  0  0
 21  7  1  0  0  0  0
 22 21  1  0  0  0  0
 22 23  2  0  0  0  0
 23 25  1  0  0  0  0
 23  8  1  0  0  0  0
 24 49  1  0  0  0  0
 25 51  1  0  0  0  0
 26 53  1  0  0  0  0
 26 27  1  0  0  0  0
 27 30  1  0  0  0  0
 28 55  1  0  0  0  0
 28 54  1  0  0  0  0
 28 27  1  0  0  0  0
 29 58  1  0  0  0  0
 29 27  1  0  0  0  0
 29 57  1  0  0  0  0
 30 62  1  0  0  0  0
 30 60  1  0  0  0  0
 30 61  1  0  0  0  0
 35 14  1  0  0  0  0
 37 15  1  0  0  0  0
 38 15  1  0  0  0  0
 39 17  1  0  0  0  0
 40 19  1  0  0  0  0
 42 19  1  0  0  0  0
 43 20  1  0  0  0  0
 44 20  1  0  0  0  0
 46 22  1  0  0  0  0
 47 24  1  0  0  0  0
 48 24  1  0  0  0  0
 50 25  1  0  0  0  0
 52 25  1  0  0  0  0
 56 28  1  0  0  0  0
 59 29  1  0  0  0  0
M  END
$$$$
