CSD_code = KODGAL | q = 0 | S = 0 | Stoichiometry = C10H24Cl4P2Ti | MND = 6
 OpenBabel04212202063D

 41 41  0  0  0  0  0  0  0  0999 V2000
   -1.1049    2.7935    4.1382 Ti  0  0  0  0  0  0  0  0  0  0  0  0
    0.6927    2.3679    2.8438 Cl  0  0  0  0  0  0  0  0  0  0  0  0
   -0.1436    4.1528    5.5313 Cl  0  0  0  0  0  0  0  0  0  0  0  0
   -0.2223    0.8338    5.4780 P   0  0  0  0  0  4  0  0  0  0  0  0
   -0.5771    0.8434    7.2897 C   0  0  0  0  0  0  0  0  0  0  0  0
   -0.1480    1.7760    7.6740 H   0  0  0  0  0  0  0  0  0  0  0  0
   -1.6653    0.9302    7.3752 H   0  0  0  0  0  0  0  0  0  0  0  0
   -0.0716   -0.3514    8.0902 C   0  0  0  0  0  0  0  0  0  0  0  0
   -0.4645   -1.2850    7.6946 H   0  0  0  0  0  0  0  0  0  0  0  0
   -0.4023   -0.2589    9.1226 H   0  0  0  0  0  0  0  0  0  0  0  0
    1.0142   -0.3998    8.0919 H   0  0  0  0  0  0  0  0  0  0  0  0
    1.5583    0.3673    5.3631 C   0  0  0  0  0  0  0  0  0  0  0  0
    1.7378   -0.5507    5.9305 H   0  0  0  0  0  0  0  0  0  0  0  0
    1.7702    0.1808    4.3063 H   0  0  0  0  0  0  0  0  0  0  0  0
    2.4307    1.5141    5.8607 C   0  0  0  0  0  0  0  0  0  0  0  0
    2.2041    2.4201    5.2971 H   0  0  0  0  0  0  0  0  0  0  0  0
    2.2548    1.7129    6.9162 H   0  0  0  0  0  0  0  0  0  0  0  0
    3.4842    1.2795    5.7245 H   0  0  0  0  0  0  0  0  0  0  0  0
   -1.0587   -0.7177    4.9012 C   0  0  0  0  0  0  0  0  0  0  0  0
   -0.5117   -1.5969    5.2565 H   0  0  0  0  0  0  0  0  0  0  0  0
   -2.0620   -0.7180    5.3408 H   0  0  0  0  0  0  0  0  0  0  0  0
   -2.9028    2.3667    5.4314 Cl  0  0  0  0  0  0  0  0  0  0  0  0
   -2.0659    4.1526    2.7445 Cl  0  0  0  0  0  0  0  0  0  0  0  0
   -1.1513   -0.7177    3.3747 C   0  0  0  0  0  0  0  0  0  0  0  0
   -1.9878    0.8338    2.7981 P   0  0  0  0  0  4  0  0  0  0  0  0
   -1.6329    0.8434    0.9863 C   0  0  0  0  0  0  0  0  0  0  0  0
   -2.0620    1.7760    0.6020 H   0  0  0  0  0  0  0  0  0  0  0  0
   -0.5447    0.9302    0.9008 H   0  0  0  0  0  0  0  0  0  0  0  0
   -2.1383   -0.3514    0.1857 C   0  0  0  0  0  0  0  0  0  0  0  0
   -1.7455   -1.2850    0.5813 H   0  0  0  0  0  0  0  0  0  0  0  0
   -1.8077   -0.2588   -0.8466 H   0  0  0  0  0  0  0  0  0  0  0  0
   -3.2241   -0.3997    0.1840 H   0  0  0  0  0  0  0  0  0  0  0  0
   -3.7683    0.3673    2.9128 C   0  0  0  0  0  0  0  0  0  0  0  0
   -3.9478   -0.5507    2.3455 H   0  0  0  0  0  0  0  0  0  0  0  0
   -3.9802    0.1808    3.9697 H   0  0  0  0  0  0  0  0  0  0  0  0
   -4.6407    1.5141    2.4153 C   0  0  0  0  0  0  0  0  0  0  0  0
   -4.4140    2.4201    2.9788 H   0  0  0  0  0  0  0  0  0  0  0  0
   -4.4648    1.7129    1.3597 H   0  0  0  0  0  0  0  0  0  0  0  0
   -5.6942    1.2795    2.5514 H   0  0  0  0  0  0  0  0  0  0  0  0
   -1.6982   -1.5969    3.0194 H   0  0  0  0  0  0  0  0  0  0  0  0
   -0.1479   -0.7179    2.9351 H   0  0  0  0  0  0  0  0  0  0  0  0
  1 22  1  0  0  0  0
  1  4  1  0  0  0  0
  1  3  1  0  0  0  0
  2  1  1  0  0  0  0
  4  5  1  0  0  0  0
  5  7  1  0  0  0  0
  5  6  1  0  0  0  0
  5  8  1  0  0  0  0
  8 11  1  0  0  0  0
  8 10  1  0  0  0  0
  9  8  1  0  0  0  0
 12  4  1  0  0  0  0
 12 15  1  0  0  0  0
 12 13  1  0  0  0  0
 14 12  1  0  0  0  0
 15 17  1  0  0  0  0
 16 15  1  0  0  0  0
 18 15  1  0  0  0  0
 19 20  1  0  0  0  0
 19 21  1  0  0  0  0
 19  4  1  0  0  0  0
 23  1  1  0  0  0  0
 24 19  1  0  0  0  0
 25 33  1  0  0  0  0
 25 24  1  0  0  0  0
 25  1  1  0  0  0  0
 26 25  1  0  0  0  0
 27 26  1  0  0  0  0
 28 26  1  0  0  0  0
 29 30  1  0  0  0  0
 29 26  1  0  0  0  0
 31 29  1  0  0  0  0
 32 29  1  0  0  0  0
 33 35  1  0  0  0  0
 34 33  1  0  0  0  0
 36 39  1  0  0  0  0
 36 33  1  0  0  0  0
 36 37  1  0  0  0  0
 38 36  1  0  0  0  0
 40 24  1  0  0  0  0
 41 24  1  0  0  0  0
M  END
$$$$
