CSD_code = KOGGUJ | q = 1 | S = 0 | Stoichiometry = C22H17ClN5ORu(1+) | MND = 6
 OpenBabel04212202063D

 47 52  0  0  1  0  0  0  0  0999 V2000
    6.7374    4.8064   12.0989 Ru  0  0  0  0  0  0  0  0  0  0  0  0
    7.6352    6.6926   13.1840 Cl  0  0  0  0  0  0  0  0  0  0  0  0
    9.5475    4.4005   11.1379 O   0  0  0  0  0  1  0  0  0  0  0  0
    4.9946    5.3329   13.0214 N   0  0  0  0  0  0  0  0  0  0  0  0
    6.0823    4.1779   14.7132 N   0  0  0  0  0  0  0  0  0  0  0  0
    6.9329    3.9140   13.8001 N   0  0  0  0  0  0  0  0  0  0  0  0
    6.3534    5.8425   10.3458 N   0  0  0  0  0  0  0  0  0  0  0  0
    5.7468    3.3906   11.0041 N   0  0  0  0  0  0  0  0  0  0  0  0
    8.4642    4.4572   11.4751 C   0  0  0  0  0  2  0  0  0  0  0  0
    5.0406    4.9577   14.3216 C   0  0  0  0  0  0  0  0  0  0  0  0
    4.0632    5.3441   15.2453 C   0  0  0  0  0  0  0  0  0  0  0  0
    3.0319    6.1512   14.8159 C   0  0  0  0  0  0  0  0  0  0  0  0
    2.9960    6.5417   13.4800 C   0  0  0  0  0  0  0  0  0  0  0  0
    3.9943    6.1119   12.6247 C   0  0  0  0  0  0  0  0  0  0  0  0
    8.0407    3.1851   14.2322 C   0  0  0  0  0  0  0  0  0  0  0  0
    8.6763    2.2892   13.3664 C   0  0  0  0  0  0  0  0  0  0  0  0
    9.7904    1.5964   13.7955 C   0  0  0  0  0  0  0  0  0  0  0  0
   10.2864    1.7926   15.0773 C   0  0  0  0  0  0  0  0  0  0  0  0
    9.6506    2.6701   15.9428 C   0  0  0  0  0  0  0  0  0  0  0  0
    8.5253    3.3566   15.5333 C   0  0  0  0  0  0  0  0  0  0  0  0
    6.7031    7.1020   10.1079 C   0  0  0  0  0  3  0  0  0  0  0  0
    6.4485    7.7302    8.8996 C   0  0  0  0  0  0  0  0  0  0  0  0
    5.8104    7.0156    7.8970 C   0  0  0  0  0  0  0  0  0  0  0  0
    5.4384    5.7050    8.1448 C   0  0  0  0  0  0  0  0  0  0  0  0
    5.7181    5.1375    9.3870 C   0  0  0  0  0  0  0  0  0  0  0  0
    5.3481    3.7700    9.7698 C   0  0  2  0  0  3  0  0  0  0  0  0
    4.6166    2.9073    8.9545 C   0  0  0  0  0  0  0  0  0  0  0  0
    4.2847    1.6458    9.4140 C   0  0  0  0  0  0  0  0  0  0  0  0
    4.6860    1.2765   10.6907 C   0  0  0  0  0  0  0  0  0  0  0  0
    5.4128    2.1774   11.4467 C   0  0  0  0  0  0  0  0  0  0  0  0
    4.1574    5.0141   16.2662 H   0  0  0  0  0  0  0  0  0  0  0  0
    2.2684    6.4803   15.5029 H   0  0  0  0  0  0  0  0  0  0  0  0
    2.2090    7.1768   13.1082 H   0  0  0  0  0  0  0  0  0  0  0  0
    3.9884    6.4067   11.5817 H   0  0  0  0  0  0  0  0  0  0  0  0
    8.2728    2.1152   12.3765 H   0  0  0  0  0  0  0  0  0  0  0  0
   10.2755    0.8998   13.1298 H   0  0  0  0  0  0  0  0  0  0  0  0
   11.1674    1.2597   15.3994 H   0  0  0  0  0  0  0  0  0  0  0  0
   10.0364    2.8227   16.9386 H   0  0  0  0  0  0  0  0  0  0  0  0
    8.0265    4.0584   16.1835 H   0  0  0  0  0  0  0  0  0  0  0  0
    7.2029    7.6186   10.9200 H   0  0  0  0  0  0  0  0  0  0  0  0
    6.7513    8.7537    8.7519 H   0  0  0  0  0  0  0  0  0  0  0  0
    5.6054    7.4678    6.9396 H   0  0  0  0  0  0  0  0  0  0  0  0
    4.9428    5.1329    7.3785 H   0  0  0  0  0  0  0  0  0  0  0  0
    4.3070    3.2198    7.9714 H   0  0  0  0  0  0  0  0  0  0  0  0
    3.7222    0.9673    8.7931 H   0  0  0  0  0  0  0  0  0  0  0  0
    4.4430    0.3076   11.0948 H   0  0  0  0  0  0  0  0  0  0  0  0
    5.7426    1.9161   12.4458 H   0  0  0  0  0  0  0  0  0  0  0  0
  1  4  1  0  0  0  0
  1  2  1  0  0  0  0
  1  6  1  0  0  0  0
  3  9  1  0  0  0  0
  4 10  1  0  0  0  0
  6 15  1  0  0  0  0
  6  5  1  0  0  0  0
  7  1  1  0  0  0  0
  8 30  1  0  0  0  0
  8  1  1  0  0  0  0
  9  1  1  0  0  0  0
 10  5  2  0  0  0  0
 10 11  1  0  0  0  0
 11 31  1  0  0  0  0
 12 11  2  0  0  0  0
 12 32  1  0  0  0  0
 13 12  1  0  0  0  0
 14  4  1  0  0  0  0
 14 13  2  0  0  0  0
 15 20  1  0  0  0  0
 16 17  1  0  0  0  0
 16 15  2  0  0  0  0
 17 18  2  0  0  0  0
 18 37  1  0  0  0  0
 18 19  1  0  0  0  0
 19 38  1  0  0  0  0
 20 19  2  0  0  0  0
 20 39  1  0  0  0  0
 21  7  1  0  0  0  0
 21 40  1  0  0  0  0
 22 21  1  0  0  0  0
 23 24  1  0  0  0  0
 23 22  2  0  0  0  0
 24 25  2  0  0  0  0
 25 26  1  0  0  0  0
 25  7  1  0  0  0  0
 26 27  1  1  0  0  0
 26  8  1  0  0  0  0
 27 28  2  0  0  0  0
 28 29  1  0  0  0  0
 29 46  1  0  0  0  0
 29 30  2  0  0  0  0
 30 47  1  0  0  0  0
 33 13  1  0  0  0  0
 34 14  1  0  0  0  0
 35 16  1  0  0  0  0
 36 17  1  0  0  0  0
 41 22  1  0  0  0  0
 42 23  1  0  0  0  0
 43 24  1  0  0  0  0
 44 27  1  0  0  0  0
 45 28  1  0  0  0  0
M  END
$$$$
