CSD_code = KOGKAT | q = 0 | S = 0 | Stoichiometry = C17H12ClN2O3Re | MND = 6
 OpenBabel04212202063D

 36 39  0  0  0  0  0  0  0  0999 V2000
    1.1323   14.0853    7.2813 Re  0  0  0  0  0  0  0  0  0  0  0  0
   -0.8396   12.8187    7.6945 Cl  0  0  0  0  0  0  0  0  0  0  0  0
    1.7242   13.7417   10.2916 O   0  0  0  0  0  1  0  0  0  0  0  0
   -0.5090   16.5398    8.1823 O   0  0  0  0  0  1  0  0  0  0  0  0
    3.7277   15.5604    6.4843 O   0  0  0  0  0  1  0  0  0  0  0  0
    1.8344   12.1093    6.5949 N   0  0  0  0  0  0  0  0  0  0  0  0
    0.3753   13.9322    5.2144 N   0  0  0  0  0  0  0  0  0  0  0  0
    2.6354   11.2515    7.2085 C   0  0  0  0  0  0  0  0  0  0  0  0
    2.6311    9.8827    6.8895 C   0  0  0  0  0  0  0  0  0  0  0  0
    3.2798    9.2188    7.4395 H   0  0  0  0  0  0  0  0  0  0  0  0
    1.8030    9.4054    5.9101 C   0  0  0  0  0  0  0  0  0  0  0  0
    1.7677    8.3540    5.6659 H   0  0  0  0  0  0  0  0  0  0  0  0
    0.9997   10.3117    5.1997 C   0  0  0  0  0  0  0  0  0  0  0  0
    1.0519   11.6675    5.5840 C   0  0  0  0  0  0  0  0  0  0  0  0
    0.1533    9.9085    4.1307 C   0  0  0  0  0  0  0  0  0  0  0  0
    0.1122    8.8580    3.8842 H   0  0  0  0  0  0  0  0  0  0  0  0
   -0.5717   10.8185    3.4396 C   0  0  0  0  0  0  0  0  0  0  0  0
   -1.2110   10.5190    2.6224 H   0  0  0  0  0  0  0  0  0  0  0  0
   -0.5070   12.2010    3.7655 C   0  0  0  0  0  0  0  0  0  0  0  0
    0.2812   12.6323    4.8524 C   0  0  0  0  0  0  0  0  0  0  0  0
   -1.2079   13.1805    3.0443 C   0  0  0  0  0  0  0  0  0  0  0  0
   -1.8446   12.8868    2.2229 H   0  0  0  0  0  0  0  0  0  0  0  0
   -1.0522   14.4952    3.3911 C   0  0  0  0  0  0  0  0  0  0  0  0
   -1.5573   15.2764    2.8445 H   0  0  0  0  0  0  0  0  0  0  0  0
   -0.2418   14.8482    4.4837 C   0  0  0  0  0  0  0  0  0  0  0  0
    3.5734   11.7355    8.2644 C   0  0  0  0  0  0  0  0  0  0  0  0
    4.4841   11.1406    8.2575 H   0  0  0  0  0  0  0  0  0  0  0  0
    3.1108   11.6303    9.2455 H   0  0  0  0  0  0  0  0  0  0  0  0
    3.8212   12.7855    8.1154 H   0  0  0  0  0  0  0  0  0  0  0  0
   -0.0805   16.2948    4.8158 C   0  0  0  0  0  0  0  0  0  0  0  0
   -0.8826   16.6114    5.4823 H   0  0  0  0  0  0  0  0  0  0  0  0
    0.8694   16.4769    5.3165 H   0  0  0  0  0  0  0  0  0  0  0  0
   -0.1385   16.8963    3.9115 H   0  0  0  0  0  0  0  0  0  0  0  0
    1.5774   13.8942    9.1658 C   0  0  0  0  0  2  0  0  0  0  0  0
    0.1524   15.6778    7.8194 C   0  0  0  0  0  2  0  0  0  0  0  0
    2.7589   15.0175    6.7925 C   0  0  0  0  0  2  0  0  0  0  0  0
  1  2  1  0  0  0  0
  1 35  1  0  0  0  0
  1 34  1  0  0  0  0
  5 36  1  0  0  0  0
  6  8  1  0  0  0  0
  6  1  1  0  0  0  0
  7  1  1  0  0  0  0
  8 26  1  0  0  0  0
  9  8  2  0  0  0  0
  9 10  1  0  0  0  0
 11  9  1  0  0  0  0
 12 11  1  0  0  0  0
 13 14  1  0  0  0  0
 13 11  2  0  0  0  0
 14  6  1  0  0  0  0
 15 13  1  0  0  0  0
 16 15  1  0  0  0  0
 17 19  1  0  0  0  0
 17 15  2  0  0  0  0
 18 17  1  0  0  0  0
 19 20  1  0  0  0  0
 20  7  1  0  0  0  0
 20 14  2  0  0  0  0
 21 23  1  0  0  0  0
 21 19  2  0  0  0  0
 22 21  1  0  0  0  0
 23 25  2  0  0  0  0
 24 23  1  0  0  0  0
 25 30  1  0  0  0  0
 25  7  1  0  0  0  0
 26 28  1  0  0  0  0
 27 26  1  0  0  0  0
 29 26  1  0  0  0  0
 30 32  1  0  0  0  0
 30 31  1  0  0  0  0
 33 30  1  0  0  0  0
 34  3  1  0  0  0  0
 35  4  1  0  0  0  0
 36  1  1  0  0  0  0
M  END
$$$$
