CSD_code = KOHLUP | q = 0 | S = 0 | Stoichiometry = C18H31BrNiO2P2 | MND = 4
 OpenBabel04212202063D

 55 57  0  0  0  0  0  0  0  0999 V2000
    6.7899   10.7642    3.7644 Ni  0  0  0  0  0  0  0  0  0  0  0  0
    4.6088   10.8199    3.3253 Br  0  0  0  0  0  0  0  0  0  0  0  0
    7.1230    8.7453    3.1773 P   0  0  0  0  0  4  0  0  0  0  0  0
    6.9696   12.7702    4.4542 P   0  0  0  0  0  4  0  0  0  0  0  0
    8.7227    8.4624    3.3797 O   0  0  0  0  0  0  0  0  0  0  0  0
    8.5350   12.9718    4.8887 O   0  0  0  0  0  0  0  0  0  0  0  0
    9.3819    9.5636    3.9025 C   0  0  0  0  0  0  0  0  0  0  0  0
    8.6362   10.7168    4.1361 C   0  0  0  0  0  0  0  0  0  0  0  0
   10.7393    9.5170    4.1765 C   0  0  0  0  0  0  0  0  0  0  0  0
   11.2918    8.6096    3.9894 H   0  0  0  0  0  0  0  0  0  0  0  0
   11.3598   10.6456    4.6874 C   0  0  0  0  0  0  0  0  0  0  0  0
   12.4171   10.6179    4.9017 H   0  0  0  0  0  0  0  0  0  0  0  0
   10.6470   11.8092    4.9282 C   0  0  0  0  0  0  0  0  0  0  0  0
   11.1282   12.6895    5.3246 H   0  0  0  0  0  0  0  0  0  0  0  0
    9.2894   11.8336    4.6524 C   0  0  0  0  0  0  0  0  0  0  0  0
    6.8967    8.0475    1.4806 C   0  0  0  0  0  0  0  0  0  0  0  0
    7.5286    7.1519    1.4334 H   0  0  0  0  0  0  0  0  0  0  0  0
    6.3466    7.5406    4.3546 C   0  0  0  0  0  0  0  0  0  0  0  0
    5.2760    7.5257    4.1238 H   0  0  0  0  0  0  0  0  0  0  0  0
    6.7688   13.9997    3.0800 C   0  0  0  0  0  0  0  0  0  0  0  0
    5.6945   14.0683    2.8782 H   0  0  0  0  0  0  0  0  0  0  0  0
    6.1400   13.4949    5.9386 C   0  0  0  0  0  0  0  0  0  0  0  0
    6.7465   14.3601    6.2341 H   0  0  0  0  0  0  0  0  0  0  0  0
    7.4209    9.0941    0.5000 C   0  0  0  0  0  0  0  0  0  0  0  0
    7.4029    8.7145   -0.5199 H   0  0  0  0  0  0  0  0  0  0  0  0
    8.4459    9.3747    0.7451 H   0  0  0  0  0  0  0  0  0  0  0  0
    6.7945    9.9863    0.5426 H   0  0  0  0  0  0  0  0  0  0  0  0
    5.4416    7.7040    1.1930 C   0  0  0  0  0  0  0  0  0  0  0  0
    4.8023    8.5673    1.3693 H   0  0  0  0  0  0  0  0  0  0  0  0
    5.0936    6.8855    1.8184 H   0  0  0  0  0  0  0  0  0  0  0  0
    5.3323    7.4056    0.1516 H   0  0  0  0  0  0  0  0  0  0  0  0
    6.9402    6.1446    4.2342 C   0  0  0  0  0  0  0  0  0  0  0  0
    8.0213    6.1821    4.3570 H   0  0  0  0  0  0  0  0  0  0  0  0
    6.7172    5.7011    3.2665 H   0  0  0  0  0  0  0  0  0  0  0  0
    6.5291    5.4985    5.0083 H   0  0  0  0  0  0  0  0  0  0  0  0
    6.5397    8.1269    5.7524 C   0  0  0  0  0  0  0  0  0  0  0  0
    5.9972    7.5504    6.4995 H   0  0  0  0  0  0  0  0  0  0  0  0
    6.1668    9.1588    5.7809 H   0  0  0  0  0  0  0  0  0  0  0  0
    7.5964    8.1360    6.0214 H   0  0  0  0  0  0  0  0  0  0  0  0
    7.4601   13.3908    1.8609 C   0  0  0  0  0  0  0  0  0  0  0  0
    7.2814   13.9873    0.9682 H   0  0  0  0  0  0  0  0  0  0  0  0
    7.0752   12.3794    1.6782 H   0  0  0  0  0  0  0  0  0  0  0  0
    8.5363   13.3246    2.0241 H   0  0  0  0  0  0  0  0  0  0  0  0
    7.3358   15.3667    3.4342 C   0  0  0  0  0  0  0  0  0  0  0  0
    8.3764   15.2762    3.7410 H   0  0  0  0  0  0  0  0  0  0  0  0
    6.7758   15.8307    4.2429 H   0  0  0  0  0  0  0  0  0  0  0  0
    7.2896   16.0236    2.5669 H   0  0  0  0  0  0  0  0  0  0  0  0
    6.1953   12.4343    7.0358 C   0  0  0  0  0  0  0  0  0  0  0  0
    5.8022   12.8238    7.9730 H   0  0  0  0  0  0  0  0  0  0  0  0
    7.2212   12.1042    7.2032 H   0  0  0  0  0  0  0  0  0  0  0  0
    5.5935   11.5717    6.7461 H   0  0  0  0  0  0  0  0  0  0  0  0
    4.7047   13.9095    5.6457 C   0  0  0  0  0  0  0  0  0  0  0  0
    4.1431   13.0761    5.2274 H   0  0  0  0  0  0  0  0  0  0  0  0
    4.6642   14.7381    4.9427 H   0  0  0  0  0  0  0  0  0  0  0  0
    4.2159   14.2220    6.5671 H   0  0  0  0  0  0  0  0  0  0  0  0
  1  8  1  0  0  0  0
  1  4  1  0  0  0  0
  2  1  1  0  0  0  0
  3  5  1  0  0  0  0
  3  1  1  0  0  0  0
  3 18  1  0  0  0  0
  4  6  1  0  0  0  0
  4 22  1  0  0  0  0
  5  7  1  0  0  0  0
  7  8  2  0  0  0  0
  7  9  1  0  0  0  0
  8 15  1  0  0  0  0
  9 11  2  0  0  0  0
 10  9  1  0  0  0  0
 11 12  1  0  0  0  0
 11 13  1  0  0  0  0
 13 14  1  0  0  0  0
 15  6  1  0  0  0  0
 15 13  2  0  0  0  0
 16  3  1  0  0  0  0
 17 16  1  0  0  0  0
 18 36  1  0  0  0  0
 19 18  1  0  0  0  0
 20 44  1  0  0  0  0
 20  4  1  0  0  0  0
 21 20  1  0  0  0  0
 22 23  1  0  0  0  0
 22 48  1  0  0  0  0
 24 27  1  0  0  0  0
 24 26  1  0  0  0  0
 24 16  1  0  0  0  0
 25 24  1  0  0  0  0
 28 29  1  0  0  0  0
 28 16  1  0  0  0  0
 28 30  1  0  0  0  0
 31 28  1  0  0  0  0
 32 18  1  0  0  0  0
 32 33  1  0  0  0  0
 32 35  1  0  0  0  0
 34 32  1  0  0  0  0
 36 38  1  0  0  0  0
 36 39  1  0  0  0  0
 36 37  1  0  0  0  0
 40 43  1  0  0  0  0
 40 20  1  0  0  0  0
 41 40  1  0  0  0  0
 42 40  1  0  0  0  0
 44 45  1  0  0  0  0
 44 46  1  0  0  0  0
 47 44  1  0  0  0  0
 48 50  1  0  0  0  0
 48 49  1  0  0  0  0
 51 48  1  0  0  0  0
 52 22  1  0  0  0  0
 52 55  1  0  0  0  0
 53 52  1  0  0  0  0
 54 52  1  0  0  0  0
M  END
$$$$
