CSD_code = KOHMAW | q = 0 | S = 0 | Stoichiometry = C15H33BrNiO2P2 | MND = 4
 OpenBabel04212202063D

 54 55  0  0  1  0  0  0  0  0999 V2000
    2.8913    1.7863    3.3133 Ni  0  0  1  0  0  0  0  0  0  0  0  0
    3.4882    3.8948    2.8771 Br  0  0  0  0  0  0  0  0  0  0  0  0
    3.5173    0.9921    1.4487 P   0  0  0  0  0  4  0  0  0  0  0  0
    2.2062    2.1581    5.2855 P   0  0  0  0  0  4  0  0  0  0  0  0
    3.3215   -0.6201    1.5322 O   0  0  0  0  0  0  0  0  0  0  0  0
    1.7969    0.7199    5.9246 O   0  0  0  0  0  0  0  0  0  0  0  0
    3.0298   -1.0939    2.8436 C   0  0  0  0  0  0  0  0  0  0  0  0
    3.9641   -1.3804    3.3432 H   0  0  0  0  0  0  0  0  0  0  0  0
    2.4234   -2.0009    2.7177 H   0  0  0  0  0  0  0  0  0  0  0  0
    2.2893   -0.0335    3.6602 C   0  0  1  0  0  0  0  0  0  0  0  0
    1.2510    0.0208    3.2804 H   0  0  0  0  0  0  0  0  0  0  0  0
    2.2236   -0.3938    5.1455 C   0  0  0  0  0  0  0  0  0  0  0  0
    1.4998   -1.1982    5.3327 H   0  0  0  0  0  0  0  0  0  0  0  0
    3.2043   -0.7335    5.5020 H   0  0  0  0  0  0  0  0  0  0  0  0
    5.3048    1.1939    0.9815 C   0  0  0  0  0  0  0  0  0  0  0  0
    5.4404    2.2456    0.7098 H   0  0  0  0  0  0  0  0  0  0  0  0
    2.5609    1.3490   -0.0956 C   0  0  0  0  0  0  0  0  0  0  0  0
    2.7652    0.5205   -0.7846 H   0  0  0  0  0  0  0  0  0  0  0  0
    0.6392    3.0945    5.5896 C   0  0  0  0  0  0  0  0  0  0  0  0
    0.2714    2.7699    6.5705 H   0  0  0  0  0  0  0  0  0  0  0  0
    3.4390    2.8439    6.4959 C   0  0  0  0  0  0  0  0  0  0  0  0
    3.5942    3.8929    6.2240 H   0  0  0  0  0  0  0  0  0  0  0  0
    6.1300    0.9059    2.2330 C   0  0  0  0  0  0  0  0  0  0  0  0
    6.0414   -0.1423    2.5180 H   0  0  0  0  0  0  0  0  0  0  0  0
    5.7777    1.5256    3.0623 H   0  0  0  0  0  0  0  0  0  0  0  0
    7.1822    1.1294    2.0673 H   0  0  0  0  0  0  0  0  0  0  0  0
    5.6969    0.2845   -0.1739 C   0  0  0  0  0  0  0  0  0  0  0  0
    6.7715    0.3397   -0.3419 H   0  0  0  0  0  0  0  0  0  0  0  0
    5.1936    0.5711   -1.0941 H   0  0  0  0  0  0  0  0  0  0  0  0
    5.4367   -0.7477    0.0546 H   0  0  0  0  0  0  0  0  0  0  0  0
    2.9492    2.6833   -0.7187 C   0  0  0  0  0  0  0  0  0  0  0  0
    2.2839    2.9094   -1.5507 H   0  0  0  0  0  0  0  0  0  0  0  0
    3.9685    2.6669   -1.0961 H   0  0  0  0  0  0  0  0  0  0  0  0
    2.8675    3.4863    0.0115 H   0  0  0  0  0  0  0  0  0  0  0  0
    1.0839    1.3364    0.2905 C   0  0  0  0  0  0  0  0  0  0  0  0
    0.8920    2.1062    1.0420 H   0  0  0  0  0  0  0  0  0  0  0  0
    0.8022    0.3671    0.7008 H   0  0  0  0  0  0  0  0  0  0  0  0
    0.4530    1.5398   -0.5731 H   0  0  0  0  0  0  0  0  0  0  0  0
   -0.3470    2.6611    4.5076 C   0  0  0  0  0  0  0  0  0  0  0  0
   -1.3040    3.1660    4.6269 H   0  0  0  0  0  0  0  0  0  0  0  0
   -0.5178    1.5859    4.5517 H   0  0  0  0  0  0  0  0  0  0  0  0
    0.0517    2.9141    3.5223 H   0  0  0  0  0  0  0  0  0  0  0  0
    0.8519    4.6022    5.5596 C   0  0  0  0  0  0  0  0  0  0  0  0
    1.3333    4.9036    4.6310 H   0  0  0  0  0  0  0  0  0  0  0  0
    1.4705    4.9356    6.3889 H   0  0  0  0  0  0  0  0  0  0  0  0
   -0.1083    5.1114    5.6274 H   0  0  0  0  0  0  0  0  0  0  0  0
    2.9527    2.7262    7.9330 C   0  0  0  0  0  0  0  0  0  0  0  0
    2.6736    1.6970    8.1528 H   0  0  0  0  0  0  0  0  0  0  0  0
    2.0904    3.3631    8.1146 H   0  0  0  0  0  0  0  0  0  0  0  0
    3.7453    3.0219    8.6189 H   0  0  0  0  0  0  0  0  0  0  0  0
    4.7468    2.0871    6.2778 C   0  0  0  0  0  0  0  0  0  0  0  0
    5.5571    2.5323    6.8520 H   0  0  0  0  0  0  0  0  0  0  0  0
    5.0230    2.1177    5.2197 H   0  0  0  0  0  0  0  0  0  0  0  0
    4.6421    1.0455    6.5806 H   0  0  0  0  0  0  0  0  0  0  0  0
  1  2  1  6  0  0  0
  1 10  1  0  0  0  0
  1  4  1  0  0  0  0
  3  5  1  0  0  0  0
  3  1  1  0  0  0  0
  4 19  1  0  0  0  0
  4  6  1  0  0  0  0
  4 21  1  0  0  0  0
  5  7  1  0  0  0  0
  7  8  1  0  0  0  0
  7 10  1  0  0  0  0
  9  7  1  0  0  0  0
 10 11  1  6  0  0  0
 10 12  1  0  0  0  0
 12 13  1  0  0  0  0
 12 14  1  0  0  0  0
 12  6  1  0  0  0  0
 15  3  1  0  0  0  0
 15 23  1  0  0  0  0
 16 15  1  0  0  0  0
 17 35  1  0  0  0  0
 17  3  1  0  0  0  0
 18 17  1  0  0  0  0
 19 20  1  0  0  0  0
 21 47  1  0  0  0  0
 22 21  1  0  0  0  0
 23 24  1  0  0  0  0
 23 25  1  0  0  0  0
 26 23  1  0  0  0  0
 27 30  1  0  0  0  0
 27 15  1  0  0  0  0
 28 27  1  0  0  0  0
 29 27  1  0  0  0  0
 31 17  1  0  0  0  0
 31 34  1  0  0  0  0
 32 31  1  0  0  0  0
 33 31  1  0  0  0  0
 35 37  1  0  0  0  0
 35 36  1  0  0  0  0
 38 35  1  0  0  0  0
 39 41  1  0  0  0  0
 39 40  1  0  0  0  0
 39 19  1  0  0  0  0
 42 39  1  0  0  0  0
 43 19  1  0  0  0  0
 43 46  1  0  0  0  0
 43 45  1  0  0  0  0
 44 43  1  0  0  0  0
 47 49  1  0  0  0  0
 47 48  1  0  0  0  0
 47 50  1  0  0  0  0
 51 21  1  0  0  0  0
 51 54  1  0  0  0  0
 51 52  1  0  0  0  0
 53 51  1  0  0  0  0
M  END
$$$$
