CSD_code = KOHSUW | q = 0 | S = 0 | Stoichiometry = C6H13BrN3O2Re | MND = 6
 OpenBabel04212202063D

 26 27  0  0  0  0  0  0  0  0999 V2000
    4.4202    1.9279    4.2984 Re  0  0  0  0  0  0  0  0  0  0  0  0
    3.3724    1.2633    6.5319 Br  0  0  0  0  0  0  0  0  0  0  0  0
    6.2108    2.2579    4.9057 C   0  0  0  0  0  2  0  0  0  0  0  0
    4.0641    3.8123    4.3572 C   0  0  0  0  0  2  0  0  0  0  0  0
    2.3298    2.0579    2.0392 C   0  0  0  0  0  0  0  0  0  0  0  0
    2.4463    3.1431    2.1141 H   0  0  0  0  0  0  0  0  0  0  0  0
    1.3771    1.8439    1.5347 H   0  0  0  0  0  0  0  0  0  0  0  0
    3.4833    1.4772    1.2088 C   0  0  0  0  0  0  0  0  0  0  0  0
    3.2657    0.4267    0.9925 H   0  0  0  0  0  0  0  0  0  0  0  0
    3.5464    2.0048    0.2512 H   0  0  0  0  0  0  0  0  0  0  0  0
    5.5930    0.3690    1.8189 C   0  0  0  0  0  0  0  0  0  0  0  0
    6.5894    0.6238    2.1902 H   0  0  0  0  0  0  0  0  0  0  0  0
    5.6791    0.0465    0.7718 H   0  0  0  0  0  0  0  0  0  0  0  0
    5.0299   -0.7812    2.6691 C   0  0  0  0  0  0  0  0  0  0  0  0
    4.0551   -1.0903    2.2766 H   0  0  0  0  0  0  0  0  0  0  0  0
    5.7013   -1.6457    2.5864 H   0  0  0  0  0  0  0  0  0  0  0  0
    2.3929    1.5033    3.3912 N   0  0  0  0  0  4  0  0  0  0  0  0
    2.1586    0.5089    3.3793 H   0  0  0  0  0  0  0  0  0  0  0  0
    1.6986    1.9493    3.9923 H   0  0  0  0  0  0  0  0  0  0  0  0
    4.7483    1.5585    1.9551 N   0  0  0  0  0  4  0  0  0  0  0  0
    5.2689    2.3788    1.6527 H   0  0  0  0  0  0  0  0  0  0  0  0
    4.8665   -0.3250    4.0490 N   0  0  0  0  0  4  0  0  0  0  0  0
    5.7431   -0.4345    4.5598 H   0  0  0  0  0  0  0  0  0  0  0  0
    4.1822   -0.8876    4.5554 H   0  0  0  0  0  0  0  0  0  0  0  0
    7.3111    2.4197    5.2285 O   0  0  0  0  0  1  0  0  0  0  0  0
    3.8280    4.9453    4.3454 O   0  0  0  0  0  1  0  0  0  0  0  0
  1  4  1  0  0  0  0
  1  3  1  0  0  0  0
  1  2  1  0  0  0  0
  3 25  1  0  0  0  0
  5  6  1  0  0  0  0
  5 17  1  0  0  0  0
  7  5  1  0  0  0  0
  8 20  1  0  0  0  0
  8  5  1  0  0  0  0
  9  8  1  0  0  0  0
 10  8  1  0  0  0  0
 11 20  1  0  0  0  0
 11 12  1  0  0  0  0
 11 14  1  0  0  0  0
 13 11  1  0  0  0  0
 14 22  1  0  0  0  0
 15 14  1  0  0  0  0
 16 14  1  0  0  0  0
 17 19  1  0  0  0  0
 17  1  1  0  0  0  0
 18 17  1  0  0  0  0
 20  1  1  0  0  0  0
 21 20  1  0  0  0  0
 22  1  1  0  0  0  0
 22 24  1  0  0  0  0
 22 23  1  0  0  0  0
 26  4  1  0  0  0  0
M  END
$$$$
