CSD_code = KOHSEI | q = 0 | S = 0 | Stoichiometry = C21H30AuClN2O2 | MND = 2
 OpenBabel04212202063D

 57 58  0  0  1  0  0  0  0  0999 V2000
    5.9946   -2.3414   18.0732 Au  0  0  0  0  0  0  0  0  0  0  0  0
   -1.3023    8.6148   12.9520 C   0  0  0  0  0  0  0  0  0  0  0  0
   -2.3329    8.5218   13.2860 H   0  0  0  0  0  0  0  0  0  0  0  0
   -1.2639    8.4565   11.8745 H   0  0  0  0  0  0  0  0  0  0  0  0
   -0.9594    9.6315   13.1443 H   0  0  0  0  0  0  0  0  0  0  0  0
   -0.4197    7.6380   13.6461 C   0  0  0  0  0  0  0  0  0  0  0  0
    0.6237    7.6714   13.3640 H   0  0  0  0  0  0  0  0  0  0  0  0
   -0.8411    6.7541   14.5494 C   0  0  0  0  0  0  0  0  0  0  0  0
   -1.8964    6.7178   14.7906 H   0  0  0  0  0  0  0  0  0  0  0  0
   -0.0159    5.7771   15.2340 C   0  0  0  0  0  0  0  0  0  0  0  0
   -0.5597    4.9692   15.7094 H   0  0  0  0  0  0  0  0  0  0  0  0
    1.3107    5.8063   15.3421 C   0  0  0  0  0  0  0  0  0  0  0  0
    1.8949    6.5971   14.8978 H   0  0  0  0  0  0  0  0  0  0  0  0
    2.1169    4.7340   16.0051 C   0  0  0  0  0  0  0  0  0  0  0  0
    2.7343    5.1538   16.8144 H   0  0  0  0  0  0  0  0  0  0  0  0
    1.4619    3.9571   16.4214 H   0  0  0  0  0  0  0  0  0  0  0  0
   -0.5477    6.4237    9.5752 C   0  0  0  0  0  0  0  0  0  0  0  0
    0.0253    7.3407    9.6969 H   0  0  0  0  0  0  0  0  0  0  0  0
   -1.5820    6.6224    9.8468 H   0  0  0  0  0  0  0  0  0  0  0  0
   -0.5183    6.1427    8.5245 H   0  0  0  0  0  0  0  0  0  0  0  0
    0.0314    5.3131   10.4430 C   0  0  0  0  0  0  0  0  0  0  0  0
   -0.0244    5.6052   11.4945 H   0  0  0  0  0  0  0  0  0  0  0  0
   -0.5682    4.4084   10.3197 H   0  0  0  0  0  0  0  0  0  0  0  0
    1.4837    5.0091   10.0816 C   0  0  0  0  0  0  0  0  0  0  0  0
    2.0787    5.9179   10.1974 H   0  0  0  0  0  0  0  0  0  0  0  0
    1.5416    4.7079    9.0326 H   0  0  0  0  0  0  0  0  0  0  0  0
    2.0686    3.9104   10.9635 C   0  0  0  0  0  0  0  0  0  0  0  0
    1.9821    4.2068   12.0103 H   0  0  0  0  0  0  0  0  0  0  0  0
    1.4968    2.9894   10.8259 H   0  0  0  0  0  0  0  0  0  0  0  0
    3.5422    3.6448   10.6577 C   0  0  0  0  0  0  0  0  0  0  0  0
    4.0979    4.5805   10.7319 H   0  0  0  0  0  0  0  0  0  0  0  0
    3.6607    3.2520    9.6465 H   0  0  0  0  0  0  0  0  0  0  0  0
    4.1425    2.6514   11.6504 C   0  0  0  0  0  0  0  0  0  0  0  0
    3.6138    1.6896   11.5979 H   0  0  0  0  0  0  0  0  0  0  0  0
    5.2055    2.4821   11.4273 H   0  0  0  0  0  0  0  0  0  0  0  0
    3.5944    3.0195   15.2179 C   0  0  0  0  0  0  0  0  0  0  0  0
    3.7029    2.3833   16.4383 C   0  0  0  0  0  0  0  0  0  0  0  0
    3.2811    2.8011   17.3368 H   0  0  0  0  0  0  0  0  0  0  0  0
    4.3805    1.1668   16.4621 C   0  0  0  0  0  0  0  0  0  0  0  0
    4.9235    0.6061   15.3038 C   0  0  0  0  0  0  0  0  0  0  0  0
    4.8253    1.2422   14.0689 C   0  0  0  0  0  0  0  0  0  0  0  0
    5.2502    0.8052   13.1810 H   0  0  0  0  0  0  0  0  0  0  0  0
    4.1666    2.4548   14.0353 C   0  0  0  0  0  0  0  0  0  0  0  0
    4.2791    0.4937   18.8509 C   0  0  0  0  0  0  0  0  0  0  0  0
    4.6332   -0.3496   19.4422 H   0  0  0  0  0  0  0  0  0  0  0  0
    3.1928    0.5621   18.9337 H   0  0  0  0  0  0  0  0  0  0  0  0
    4.7236    1.4148   19.2325 H   0  0  0  0  0  0  0  0  0  0  0  0
    5.3441   -0.7730   17.0106 C   0  0  2  0  0  3  0  0  0  0  0  0
    6.1783   -1.4747   14.7888 C   0  0  0  0  0  0  0  0  0  0  0  0
    7.0243   -0.9692   14.3195 H   0  0  0  0  0  0  0  0  0  0  0  0
    5.4936   -1.8183   14.0111 H   0  0  0  0  0  0  0  0  0  0  0  0
    6.5393   -2.3316   15.3557 H   0  0  0  0  0  0  0  0  0  0  0  0
    6.7214   -4.1008   19.2627 Cl  0  0  0  0  0  0  0  0  0  0  0  0
    4.6614    0.2882   17.4836 N   0  0  0  0  0  0  0  0  0  0  0  0
    5.5027   -0.5824   15.6861 N   0  0  0  0  0  0  0  0  0  0  0  0
    2.9520    4.1876   14.9959 O   0  0  0  0  0  0  0  0  0  0  0  0
    3.9893    3.2180   12.9351 O   0  0  0  0  0  0  0  0  0  0  0  0
  1 53  1  0  0  0  0
  2  5  1  0  0  0  0
  2  3  1  0  0  0  0
  2  6  1  0  0  0  0
  4  2  1  0  0  0  0
  6  8  2  0  0  0  0
  7  6  1  0  0  0  0
  8  9  1  0  0  0  0
  8 10  1  0  0  0  0
 10 12  2  0  0  0  0
 10 11  1  0  0  0  0
 12 14  1  0  0  0  0
 13 12  1  0  0  0  0
 14 16  1  0  0  0  0
 14 15  1  0  0  0  0
 17 18  1  0  0  0  0
 17 19  1  0  0  0  0
 17 21  1  0  0  0  0
 20 17  1  0  0  0  0
 21 22  1  0  0  0  0
 23 21  1  0  0  0  0
 24 25  1  0  0  0  0
 24 21  1  0  0  0  0
 24 27  1  0  0  0  0
 26 24  1  0  0  0  0
 27 28  1  0  0  0  0
 29 27  1  0  0  0  0
 30 31  1  0  0  0  0
 30 27  1  0  0  0  0
 30 33  1  0  0  0  0
 32 30  1  0  0  0  0
 33 57  1  0  0  0  0
 34 33  1  0  0  0  0
 35 33  1  0  0  0  0
 36 37  1  0  0  0  0
 37 39  2  0  0  0  0
 37 38  1  0  0  0  0
 39 54  1  0  0  0  0
 40 55  1  0  0  0  0
 40 39  1  0  0  0  0
 41 40  2  0  0  0  0
 42 41  1  0  0  0  0
 43 41  1  0  0  0  0
 43 36  2  0  0  0  0
 44 46  1  0  0  0  0
 44 47  1  0  0  0  0
 44 45  1  0  0  0  0
 48 54  1  0  0  0  0
 48  1  1  6  0  0  0
 49 52  1  0  0  0  0
 49 55  1  0  0  0  0
 50 49  1  0  0  0  0
 51 49  1  0  0  0  0
 54 44  1  0  0  0  0
 55 48  1  0  0  0  0
 56 36  1  0  0  0  0
 56 14  1  0  0  0  0
 57 43  1  0  0  0  0
M  END
$$$$
