CSD_code = KOHTAD | q = 0 | S = 0 | Stoichiometry = C30H28Br2N4O2Pt | MND = 4
 OpenBabel04212202063D

 67 72  0  0  1  0  0  0  0  0999 V2000
   11.5693   -0.0001   -0.0000 Pt  0  0  0  0  0  0  0  0  0  0  0  0
   10.4913   -1.9725    1.0060 Br  0  0  0  0  0  0  0  0  0  0  0  0
    7.7500    1.5830   -0.3239 O   0  0  0  0  0  0  0  0  0  0  0  0
    9.8557    0.9913   -0.0069 N   0  0  0  0  0  0  0  0  0  0  0  0
    8.2879    2.6263    0.5063 N   0  0  0  0  0  0  0  0  0  0  0  0
    8.7380    0.7226   -0.5844 C   0  0  1  0  0  3  0  0  0  0  0  0
    8.4504   -0.3964   -1.4644 C   0  0  0  0  0  0  0  0  0  0  0  0
    7.1473   -0.8879   -1.5341 C   0  0  0  0  0  0  0  0  0  0  0  0
    6.8645   -1.9657   -2.3494 C   0  0  0  0  0  0  0  0  0  0  0  0
    7.8693   -2.5448   -3.1082 C   0  0  0  0  0  0  0  0  0  0  0  0
    9.1600   -2.0430   -3.0560 C   0  0  0  0  0  0  0  0  0  0  0  0
    9.4588   -0.9736   -2.2348 C   0  0  0  0  0  0  0  0  0  0  0  0
    9.6614    2.1824    0.8071 C   0  0  1  0  0  0  0  0  0  0  0  0
    9.7877    1.8711    2.2817 C   0  0  0  0  0  0  0  0  0  0  0  0
   10.5269    2.7100    3.1042 C   0  0  0  0  0  0  0  0  0  0  0  0
   10.6176    2.4470    4.4599 C   0  0  0  0  0  0  0  0  0  0  0  0
    9.9816    1.3406    4.9974 C   0  0  0  0  0  0  0  0  0  0  0  0
    9.2382    0.5063    4.1805 C   0  0  0  0  0  0  0  0  0  0  0  0
    9.1297    0.7761    2.8282 C   0  0  0  0  0  0  0  0  0  0  0  0
    8.2138    3.8803   -0.2102 C   0  0  0  0  0  0  0  0  0  0  0  0
    6.3773   -0.4297   -0.9330 H   0  0  0  0  0  0  0  0  0  0  0  0
    5.8592   -2.3565   -2.3920 H   0  0  0  0  0  0  0  0  0  0  0  0
    7.6456   -3.3882   -3.7442 H   0  0  0  0  0  0  0  0  0  0  0  0
    9.9387   -2.4831   -3.6577 H   0  0  0  0  0  0  0  0  0  0  0  0
   10.4684   -0.5693   -2.2113 H   0  0  0  0  0  0  0  0  0  0  0  0
   10.3943    2.9529    0.5228 H   0  0  0  0  0  0  0  0  0  0  0  0
   11.0303    3.5663    2.6779 H   0  0  0  0  0  0  0  0  0  0  0  0
   11.1835    3.1083    5.1006 H   0  0  0  0  0  0  0  0  0  0  0  0
   10.0625    1.1316    6.0538 H   0  0  0  0  0  0  0  0  0  0  0  0
    8.7399   -0.3575    4.5929 H   0  0  0  0  0  0  0  0  0  0  0  0
    8.5359    0.1278    2.2011 H   0  0  0  0  0  0  0  0  0  0  0  0
    7.1780    4.0398   -0.5023 H   0  0  0  0  0  0  0  0  0  0  0  0
    8.8564    3.9048   -1.0993 H   0  0  0  0  0  0  0  0  0  0  0  0
    8.5159    4.6632    0.4814 H   0  0  0  0  0  0  0  0  0  0  0  0
   12.6473    1.9724   -1.0062 Br  0  0  0  0  0  0  0  0  0  0  0  0
   15.3888   -1.5828    0.3237 O   0  0  0  0  0  0  0  0  0  0  0  0
   13.2830   -0.9914    0.0069 N   0  0  0  0  0  0  0  0  0  0  0  0
   14.8509   -2.6263   -0.5063 N   0  0  0  0  0  0  0  0  0  0  0  0
   14.4007   -0.7226    0.5842 C   0  0  2  0  0  3  0  0  0  0  0  0
   14.6883    0.3965    1.4643 C   0  0  0  0  0  0  0  0  0  0  0  0
   15.9915    0.8878    1.5341 C   0  0  0  0  0  0  0  0  0  0  0  0
   16.2745    1.9655    2.3494 C   0  0  0  0  0  0  0  0  0  0  0  0
   15.2697    2.5447    3.1082 C   0  0  0  0  0  0  0  0  0  0  0  0
   13.9790    2.0430    3.0560 C   0  0  0  0  0  0  0  0  0  0  0  0
   13.6800    0.9737    2.2346 C   0  0  0  0  0  0  0  0  0  0  0  0
   13.4774   -2.1825   -0.8071 C   0  0  2  0  0  0  0  0  0  0  0  0
   13.3510   -1.8711   -2.2817 C   0  0  0  0  0  0  0  0  0  0  0  0
   12.6118   -2.7100   -3.1042 C   0  0  0  0  0  0  0  0  0  0  0  0
   12.5212   -2.4470   -4.4599 C   0  0  0  0  0  0  0  0  0  0  0  0
   13.1571   -1.3406   -4.9974 C   0  0  0  0  0  0  0  0  0  0  0  0
   13.9006   -0.5063   -4.1806 C   0  0  0  0  0  0  0  0  0  0  0  0
   14.0091   -0.7761   -2.8283 C   0  0  0  0  0  0  0  0  0  0  0  0
   14.9250   -3.8801    0.2105 C   0  0  0  0  0  0  0  0  0  0  0  0
   16.7615    0.4295    0.9330 H   0  0  0  0  0  0  0  0  0  0  0  0
   17.2798    2.3562    2.3921 H   0  0  0  0  0  0  0  0  0  0  0  0
   15.4934    3.3881    3.7443 H   0  0  0  0  0  0  0  0  0  0  0  0
   13.2002    2.4832    3.6577 H   0  0  0  0  0  0  0  0  0  0  0  0
   12.6704    0.5695    2.2111 H   0  0  0  0  0  0  0  0  0  0  0  0
   12.7445   -2.9529   -0.5229 H   0  0  0  0  0  0  0  0  0  0  0  0
   12.1085   -3.5663   -2.6780 H   0  0  0  0  0  0  0  0  0  0  0  0
   11.9553   -3.1083   -5.1007 H   0  0  0  0  0  0  0  0  0  0  0  0
   13.0763   -1.1316   -6.0538 H   0  0  0  0  0  0  0  0  0  0  0  0
   14.3988    0.3575   -4.5929 H   0  0  0  0  0  0  0  0  0  0  0  0
   14.6029   -0.1278   -2.2011 H   0  0  0  0  0  0  0  0  0  0  0  0
   15.9607   -4.0394    0.5029 H   0  0  0  0  0  0  0  0  0  0  0  0
   14.2822   -3.9045    1.0994 H   0  0  0  0  0  0  0  0  0  0  0  0
   14.6231   -4.6633   -0.4810 H   0  0  0  0  0  0  0  0  0  0  0  0
  1 37  1  0  0  0  0
  1  2  1  0  0  0  0
  3  5  1  0  0  0  0
  4  1  1  0  0  0  0
  4 13  1  0  0  0  0
  5 13  1  0  0  0  0
  6  7  1  1  0  0  0
  6  3  1  0  0  0  0
  6  4  1  0  0  0  0
  8  7  1  0  0  0  0
  8 21  1  0  0  0  0
  9  8  2  0  0  0  0
 10 11  2  0  0  0  0
 10  9  1  0  0  0  0
 11 12  1  0  0  0  0
 12 25  1  0  0  0  0
 12  7  2  0  0  0  0
 13 26  1  6  0  0  0
 13 14  1  0  0  0  0
 14 19  2  0  0  0  0
 14 15  1  0  0  0  0
 15 16  2  0  0  0  0
 16 17  1  0  0  0  0
 16 28  1  0  0  0  0
 17 29  1  0  0  0  0
 18 30  1  0  0  0  0
 18 17  2  0  0  0  0
 19 18  1  0  0  0  0
 20 34  1  0  0  0  0
 20  5  1  0  0  0  0
 22  9  1  0  0  0  0
 23 10  1  0  0  0  0
 24 11  1  0  0  0  0
 27 15  1  0  0  0  0
 31 19  1  0  0  0  0
 32 20  1  0  0  0  0
 33 20  1  0  0  0  0
 35  1  1  0  0  0  0
 36 39  1  0  0  0  0
 37 39  1  0  0  0  0
 38 53  1  0  0  0  0
 38 36  1  0  0  0  0
 39 40  1  6  0  0  0
 40 41  2  0  0  0  0
 40 45  1  0  0  0  0
 41 42  1  0  0  0  0
 42 55  1  0  0  0  0
 42 43  2  0  0  0  0
 43 56  1  0  0  0  0
 44 43  1  0  0  0  0
 44 57  1  0  0  0  0
 45 44  2  0  0  0  0
 46 59  1  1  0  0  0
 46 38  1  0  0  0  0
 46 37  1  0  0  0  0
 47 46  1  0  0  0  0
 48 60  1  0  0  0  0
 48 47  2  0  0  0  0
 49 48  1  0  0  0  0
 50 49  2  0  0  0  0
 50 51  1  0  0  0  0
 51 52  2  0  0  0  0
 52 47  1  0  0  0  0
 52 64  1  0  0  0  0
 53 65  1  0  0  0  0
 53 66  1  0  0  0  0
 54 41  1  0  0  0  0
 58 45  1  0  0  0  0
 61 49  1  0  0  0  0
 62 50  1  0  0  0  0
 63 51  1  0  0  0  0
 67 53  1  0  0  0  0
M  END
$$$$
