CSD_code = KOJKUS | q = 0 | S = 0 | Stoichiometry = C19H27ClN6OPRh | MND = 4
 OpenBabel04212202063D

 56 59  0  0  1  0  0  0  0  0999 V2000
   10.8959    4.3561    3.4755 Rh  0  0  1  0  0  0  0  0  0  0  0  0
   11.9349    5.7138    4.9124 P   0  0  0  0  0  4  0  0  0  0  0  0
    9.5096    3.2049    2.1085 Cl  0  0  0  0  0  0  0  0  0  0  0  0
    9.5873    5.8785    3.4215 N   0  0  2  0  0  0  0  0  0  0  0  0
    9.6963    5.3841    6.3595 N   0  0  0  0  0  0  0  0  0  0  0  0
    9.4836    6.7176    4.4637 N   0  0  0  0  0  0  0  0  0  0  0  0
   10.4862    7.6168    6.4361 N   0  0  0  0  0  0  0  0  0  0  0  0
    9.9156    4.1436    5.9186 N   0  0  0  0  0  0  0  0  0  0  0  0
   12.8249    2.1088    3.2038 O   0  0  0  0  0  1  0  0  0  0  0  0
   10.3044    6.4585    5.6205 C   0  0  0  0  0  0  0  0  0  0  0  0
   10.7337    7.4705    7.7403 N   0  0  0  0  0  0  0  0  0  0  0  0
    8.6359    6.2041    2.5669 C   0  0  0  0  0  3  0  0  0  0  0  0
    8.5202    5.6644    1.6460 H   0  0  0  0  0  0  0  0  0  0  0  0
    8.4282    7.5500    4.3022 C   0  0  0  0  0  0  0  0  0  0  0  0
    8.1511    8.2694    5.0464 H   0  0  0  0  0  0  0  0  0  0  0  0
    7.8748    7.2622    3.0800 C   0  0  0  0  0  0  0  0  0  0  0  0
    7.0357    7.7413    2.6202 H   0  0  0  0  0  0  0  0  0  0  0  0
   10.5922    8.9127    6.0537 C   0  0  0  0  0  0  0  0  0  0  0  0
   10.4468    9.2252    5.0401 H   0  0  0  0  0  0  0  0  0  0  0  0
   13.1569    3.8320    6.5371 C   0  0  0  0  0  0  0  0  0  0  0  0
   12.2477    3.2571    6.3445 H   0  0  0  0  0  0  0  0  0  0  0  0
   13.8675    3.5927    5.7420 H   0  0  0  0  0  0  0  0  0  0  0  0
   12.7737    7.2624    4.3599 C   0  0  0  0  0  0  0  0  0  0  0  0
   12.0953    7.8242    3.7096 H   0  0  0  0  0  0  0  0  0  0  0  0
   13.0579    7.8916    5.2093 H   0  0  0  0  0  0  0  0  0  0  0  0
   13.7434    3.4294    7.8869 C   0  0  0  0  0  0  0  0  0  0  0  0
   14.6541    4.0036    8.0760 H   0  0  0  0  0  0  0  0  0  0  0  0
   13.0283    3.6721    8.6767 H   0  0  0  0  0  0  0  0  0  0  0  0
   12.8233    5.3224    6.4809 C   0  0  0  0  0  0  0  0  0  0  0  0
   13.7398    5.9179    6.5235 H   0  0  0  0  0  0  0  0  0  0  0  0
   12.1910    5.6052    7.3297 H   0  0  0  0  0  0  0  0  0  0  0  0
    8.7461    5.4083    7.3203 C   0  0  0  0  0  0  0  0  0  0  0  0
    8.4375    6.3181    7.7919 H   0  0  0  0  0  0  0  0  0  0  0  0
   12.0901    2.9777    3.3394 C   0  0  0  0  0  2  0  0  0  0  0  0
   14.0634    1.9404    7.9307 C   0  0  0  0  0  0  0  0  0  0  0  0
   13.1634    1.3551    7.7590 H   0  0  0  0  0  0  0  0  0  0  0  0
   14.4761    1.6643    8.8981 H   0  0  0  0  0  0  0  0  0  0  0  0
   14.7877    1.6841    7.1612 H   0  0  0  0  0  0  0  0  0  0  0  0
    9.1274    3.3563    6.6189 C   0  0  0  0  0  0  0  0  0  0  0  0
    9.1299    2.2979    6.4512 H   0  0  0  0  0  0  0  0  0  0  0  0
   13.9994    6.8315    3.5546 C   0  0  0  0  0  0  0  0  0  0  0  0
   13.6629    6.1880    2.7341 H   0  0  0  0  0  0  0  0  0  0  0  0
   14.6598    6.2320    4.1883 H   0  0  0  0  0  0  0  0  0  0  0  0
   10.9010    9.6332    7.1814 C   0  0  0  0  0  0  0  0  0  0  0  0
   11.0481   10.6901    7.2582 H   0  0  0  0  0  0  0  0  0  0  0  0
   14.7743    8.0203    2.9935 C   0  0  0  0  0  0  0  0  0  0  0  0
   14.1122    8.6148    2.3596 H   0  0  0  0  0  0  0  0  0  0  0  0
   15.1074    8.6582    3.8164 H   0  0  0  0  0  0  0  0  0  0  0  0
    8.3659    4.1059    7.5278 C   0  0  0  0  0  0  0  0  0  0  0  0
    7.6418    3.7446    8.2280 H   0  0  0  0  0  0  0  0  0  0  0  0
   10.9777    8.6782    8.2042 C   0  0  0  0  0  0  0  0  0  0  0  0
   11.1959    8.8208    9.2431 H   0  0  0  0  0  0  0  0  0  0  0  0
   15.9802    7.5670    2.1802 C   0  0  0  0  0  0  0  0  0  0  0  0
   15.6630    6.9429    1.3483 H   0  0  0  0  0  0  0  0  0  0  0  0
   16.6632    6.9897    2.7993 H   0  0  0  0  0  0  0  0  0  0  0  0
   16.5176    8.4244    1.7827 H   0  0  0  0  0  0  0  0  0  0  0  0
  1  3  1  1  0  0  0
  1  2  1  0  0  0  0
  2 10  1  0  0  0  0
  2 29  1  0  0  0  0
  4 12  1  1  0  0  0
  4  1  1  0  0  0  0
  4  6  1  0  0  0  0
  5 32  1  0  0  0  0
  6 10  1  0  0  0  0
  7 11  1  0  0  0  0
  8  5  1  0  0  0  0
  8 39  2  0  0  0  0
  9 34  1  0  0  0  0
 10  5  1  0  0  0  0
 10  7  1  0  0  0  0
 11 51  2  0  0  0  0
 12 16  1  0  0  0  0
 13 12  1  0  0  0  0
 14  6  1  0  0  0  0
 14 15  1  0  0  0  0
 16 14  2  0  0  0  0
 17 16  1  0  0  0  0
 18  7  1  0  0  0  0
 18 44  2  0  0  0  0
 19 18  1  0  0  0  0
 20 26  1  0  0  0  0
 21 20  1  0  0  0  0
 22 20  1  0  0  0  0
 23  2  1  0  0  0  0
 23 25  1  0  0  0  0
 24 23  1  0  0  0  0
 26 35  1  0  0  0  0
 26 27  1  0  0  0  0
 26 28  1  0  0  0  0
 29 30  1  0  0  0  0
 29 20  1  0  0  0  0
 29 31  1  0  0  0  0
 32 49  2  0  0  0  0
 32 33  1  0  0  0  0
 34  1  1  0  0  0  0
 35 37  1  0  0  0  0
 36 35  1  0  0  0  0
 38 35  1  0  0  0  0
 39 49  1  0  0  0  0
 40 39  1  0  0  0  0
 41 43  1  0  0  0  0
 41 23  1  0  0  0  0
 42 41  1  0  0  0  0
 44 45  1  0  0  0  0
 44 51  1  0  0  0  0
 46 41  1  0  0  0  0
 46 48  1  0  0  0  0
 47 46  1  0  0  0  0
 49 50  1  0  0  0  0
 51 52  1  0  0  0  0
 53 55  1  0  0  0  0
 53 46  1  0  0  0  0
 54 53  1  0  0  0  0
 56 53  1  0  0  0  0
M  END
$$$$
