CSD_code = KOJPEH | q = 0 | S = 0 | Stoichiometry = C27H21BrCuNS2 | MND = 4
 OpenBabel04212202063D

 53 59  0  0  1  0  0  0  0  0999 V2000
    7.9687    3.1525   12.8177 Br  0  0  0  0  0  0  0  0  0  0  0  0
    8.4166    2.5775   10.6521 Cu  0  0  1  0  0  0  0  0  0  0  0  0
   10.4508    3.1607    9.3773 S   0  0  2  0  0  3  0  0  0  0  0  0
    8.0347    0.1978   10.0906 S   0  0  2  0  0  3  0  0  0  0  0  0
    7.1498    3.2849    9.2407 N   0  0  0  0  0  0  0  0  0  0  0  0
    5.9535    2.8254    9.6637 C   0  0  0  0  0  0  0  0  0  0  0  0
   11.2526    4.5480   10.1838 C   0  0  0  0  0  0  0  0  0  0  0  0
    7.3854    4.6128    9.2733 C   0  0  2  0  0  3  0  0  0  0  0  0
    9.3980   -0.4559    7.7415 C   0  0  0  0  0  0  0  0  0  0  0  0
    8.4489   -0.5495    7.2368 H   0  0  0  0  0  0  0  0  0  0  0  0
    5.6751    1.4390    9.5205 C   0  0  0  0  0  0  0  0  0  0  0  0
    9.4651   -0.1201    9.0847 C   0  0  0  0  0  0  0  0  0  0  0  0
    4.4931    0.9359    9.9969 C   0  0  0  0  0  0  0  0  0  0  0  0
    4.2865   -0.1203    9.9032 H   0  0  0  0  0  0  0  0  0  0  0  0
    5.2793    5.0331   10.3843 C   0  0  0  0  0  0  0  0  0  0  0  0
    4.5797    5.6990   10.8683 H   0  0  0  0  0  0  0  0  0  0  0  0
   10.6976   -0.0472    9.7261 C   0  0  0  0  0  0  0  0  0  0  0  0
   10.7352    0.2032   10.7757 H   0  0  0  0  0  0  0  0  0  0  0  0
    4.9800    3.6761   10.2671 C   0  0  0  0  0  0  0  0  0  0  0  0
    8.6000    5.0960    8.7143 C   0  0  0  0  0  0  0  0  0  0  0  0
    6.4764    5.5339    9.8739 C   0  0  0  0  0  0  0  0  0  0  0  0
    9.5417    4.1290    8.0904 C   0  0  0  0  0  0  0  0  0  0  0  0
   10.2945    4.6265    7.4806 H   0  0  0  0  0  0  0  0  0  0  0  0
    9.0178    3.3711    7.5091 H   0  0  0  0  0  0  0  0  0  0  0  0
   12.5086    4.9205    9.7303 C   0  0  0  0  0  0  0  0  0  0  0  0
   12.9835    4.3506    8.9459 H   0  0  0  0  0  0  0  0  0  0  0  0
   10.6235    5.2517   11.1954 C   0  0  0  0  0  0  0  0  0  0  0  0
    9.6553    4.9486   11.5604 H   0  0  0  0  0  0  0  0  0  0  0  0
   11.2594    6.3482   11.7526 C   0  0  0  0  0  0  0  0  0  0  0  0
   10.7705    6.8942   12.5443 H   0  0  0  0  0  0  0  0  0  0  0  0
    6.6991    0.5703    8.8701 C   0  0  0  0  0  0  0  0  0  0  0  0
    7.1721    1.0973    8.0420 H   0  0  0  0  0  0  0  0  0  0  0  0
    6.2720   -0.3784    8.5470 H   0  0  0  0  0  0  0  0  0  0  0  0
    8.9052    6.4290    8.8144 C   0  0  0  0  0  0  0  0  0  0  0  0
    9.8375    6.7954    8.4086 H   0  0  0  0  0  0  0  0  0  0  0  0
   10.5690   -0.6840    7.0383 C   0  0  0  0  0  0  0  0  0  0  0  0
   10.5134   -0.9382    5.9897 H   0  0  0  0  0  0  0  0  0  0  0  0
    3.5431    1.7699   10.6118 C   0  0  0  0  0  0  0  0  0  0  0  0
    2.6283    1.3346   10.9839 H   0  0  0  0  0  0  0  0  0  0  0  0
    3.7750    3.1068   10.7420 C   0  0  0  0  0  0  0  0  0  0  0  0
    3.0544    3.7543   11.2186 H   0  0  0  0  0  0  0  0  0  0  0  0
    8.0248    7.3317    9.4355 C   0  0  0  0  0  0  0  0  0  0  0  0
    8.3052    8.3718    9.5026 H   0  0  0  0  0  0  0  0  0  0  0  0
   11.8577   -0.2873    9.0177 C   0  0  0  0  0  0  0  0  0  0  0  0
   12.8108   -0.2245    9.5203 H   0  0  0  0  0  0  0  0  0  0  0  0
   11.7975   -0.5978    7.6685 C   0  0  0  0  0  0  0  0  0  0  0  0
   12.7046   -0.7780    7.1117 H   0  0  0  0  0  0  0  0  0  0  0  0
   12.5095    6.7336   11.3002 C   0  0  0  0  0  0  0  0  0  0  0  0
   13.0016    7.5897   11.7371 H   0  0  0  0  0  0  0  0  0  0  0  0
    6.8373    6.9003    9.9475 C   0  0  0  0  0  0  0  0  0  0  0  0
    6.1552    7.5859   10.4275 H   0  0  0  0  0  0  0  0  0  0  0  0
   13.1354    6.0181   10.2917 C   0  0  0  0  0  0  0  0  0  0  0  0
   14.1133    6.3134    9.9415 H   0  0  0  0  0  0  0  0  0  0  0  0
  2  1  1  1  0  0  0
  3  7  1  1  0  0  0
  3  2  1  0  0  0  0
  4 12  1  6  0  0  0
  4  2  1  0  0  0  0
  5  8  1  0  0  0  0
  5  6  1  0  0  0  0
  5  2  1  0  0  0  0
  6 19  1  0  0  0  0
  7 27  1  0  0  0  0
  8 20  1  1  0  0  0
  8 21  1  0  0  0  0
  9 12  1  0  0  0  0
 10  9  1  0  0  0  0
 11  6  2  0  0  0  0
 11 13  1  0  0  0  0
 12 17  2  0  0  0  0
 13 38  2  0  0  0  0
 14 13  1  0  0  0  0
 15 16  1  0  0  0  0
 17 18  1  0  0  0  0
 19 15  1  0  0  0  0
 19 40  2  0  0  0  0
 20 34  2  0  0  0  0
 21 50  1  0  0  0  0
 21 15  2  0  0  0  0
 22 20  1  0  0  0  0
 22  3  1  0  0  0  0
 23 22  1  0  0  0  0
 24 22  1  0  0  0  0
 25  7  2  0  0  0  0
 25 52  1  0  0  0  0
 26 25  1  0  0  0  0
 27 28  1  0  0  0  0
 27 29  2  0  0  0  0
 29 30  1  0  0  0  0
 31 11  1  0  0  0  0
 31  4  1  0  0  0  0
 32 31  1  0  0  0  0
 33 31  1  0  0  0  0
 34 42  1  0  0  0  0
 35 34  1  0  0  0  0
 36 46  1  0  0  0  0
 36  9  2  0  0  0  0
 37 36  1  0  0  0  0
 38 40  1  0  0  0  0
 38 39  1  0  0  0  0
 40 41  1  0  0  0  0
 42 43  1  0  0  0  0
 42 50  2  0  0  0  0
 44 45  1  0  0  0  0
 44 17  1  0  0  0  0
 46 44  2  0  0  0  0
 47 46  1  0  0  0  0
 48 49  1  0  0  0  0
 48 29  1  0  0  0  0
 50 51  1  0  0  0  0
 52 48  2  0  0  0  0
 53 52  1  0  0  0  0
M  END
$$$$
