CSD_code = KOJQIM | q = 0 | S = 0 | Stoichiometry = C28H28Cl2RuS4 | MND = 6
 OpenBabel04212202063D

 63 68  0  0  0  0  0  0  0  0999 V2000
    5.3967    4.0340    3.5377 Ru  0  0  0  0  0  0  0  0  0  0  0  0
    7.2849    2.6996    4.1557 Cl  0  0  0  0  0  0  0  0  0  0  0  0
    3.4047    5.2240    2.9507 Cl  0  0  0  0  0  0  0  0  0  0  0  0
    4.8068    2.1214    2.1716 S   0  0  2  0  0  3  0  0  0  0  0  0
    6.3509    4.8959    1.5585 S   0  0  2  0  0  3  0  0  0  0  0  0
    6.3023    5.7332    4.9018 S   0  0  2  0  0  3  0  0  0  0  0  0
    4.1396    3.4088    5.5133 S   0  0  2  0  0  3  0  0  0  0  0  0
    5.6636    2.4847    0.5833 C   0  0  0  0  0  0  0  0  0  0  0  0
    5.9096    1.5264    0.1239 H   0  0  0  0  0  0  0  0  0  0  0  0
    4.9719    3.0512   -0.0423 H   0  0  0  0  0  0  0  0  0  0  0  0
    6.9107    3.2956    0.8567 C   0  0  0  0  0  0  0  0  0  0  0  0
    7.4587    3.5055   -0.0626 H   0  0  0  0  0  0  0  0  0  0  0  0
    7.5532    2.8085    1.5945 H   0  0  0  0  0  0  0  0  0  0  0  0
    3.0897    2.0896    1.6920 C   0  0  0  0  0  0  0  0  0  0  0  0
    2.1517    2.3094    2.6919 C   0  0  0  0  0  0  0  0  0  0  0  0
    2.4830    2.5249    3.6974 H   0  0  0  0  0  0  0  0  0  0  0  0
    0.8042    2.2748    2.3903 C   0  0  0  0  0  0  0  0  0  0  0  0
    0.0804    2.4672    3.1673 H   0  0  0  0  0  0  0  0  0  0  0  0
    0.3876    2.0067    1.0969 C   0  0  0  0  0  0  0  0  0  0  0  0
   -0.6651    1.9906    0.8579 H   0  0  0  0  0  0  0  0  0  0  0  0
    1.3255    1.7526    0.1120 C   0  0  0  0  0  0  0  0  0  0  0  0
    1.0080    1.5266   -0.8954 H   0  0  0  0  0  0  0  0  0  0  0  0
    2.6787    1.7827    0.4043 C   0  0  0  0  0  0  0  0  0  0  0  0
    3.3928    1.5616   -0.3736 H   0  0  0  0  0  0  0  0  0  0  0  0
    7.9167    5.7288    1.7805 C   0  0  0  0  0  0  0  0  0  0  0  0
    8.1169    6.8894    1.0489 C   0  0  0  0  0  0  0  0  0  0  0  0
    7.3464    7.2372    0.3779 H   0  0  0  0  0  0  0  0  0  0  0  0
    9.2983    7.5922    1.2012 C   0  0  0  0  0  0  0  0  0  0  0  0
    9.4583    8.4994    0.6382 H   0  0  0  0  0  0  0  0  0  0  0  0
   10.2702    7.1312    2.0736 C   0  0  0  0  0  0  0  0  0  0  0  0
   11.1924    7.6810    2.1911 H   0  0  0  0  0  0  0  0  0  0  0  0
   10.0592    5.9703    2.7992 C   0  0  0  0  0  0  0  0  0  0  0  0
   10.8135    5.6129    3.4837 H   0  0  0  0  0  0  0  0  0  0  0  0
    8.8778    5.2627    2.6614 C   0  0  0  0  0  0  0  0  0  0  0  0
    8.6943    4.3706    3.2446 H   0  0  0  0  0  0  0  0  0  0  0  0
    4.8000    6.0443    5.9084 C   0  0  0  0  0  0  0  0  0  0  0  0
    5.0103    6.8814    6.5752 H   0  0  0  0  0  0  0  0  0  0  0  0
    3.9793    6.2818    5.2268 H   0  0  0  0  0  0  0  0  0  0  0  0
    4.5290    4.7748    6.6845 C   0  0  0  0  0  0  0  0  0  0  0  0
    3.6655    4.8914    7.3406 H   0  0  0  0  0  0  0  0  0  0  0  0
    5.4133    4.4805    7.2519 H   0  0  0  0  0  0  0  0  0  0  0  0
    6.4962    7.3189    4.1003 C   0  0  0  0  0  0  0  0  0  0  0  0
    5.5591    7.8081    3.2059 C   0  0  0  0  0  0  0  0  0  0  0  0
    4.6786    7.2267    2.9682 H   0  0  0  0  0  0  0  0  0  0  0  0
    5.7825    9.0356    2.6070 C   0  0  0  0  0  0  0  0  0  0  0  0
    5.0564    9.4238    1.9087 H   0  0  0  0  0  0  0  0  0  0  0  0
    6.9302    9.7568    2.8924 C   0  0  0  0  0  0  0  0  0  0  0  0
    7.0999   10.7116    2.4170 H   0  0  0  0  0  0  0  0  0  0  0  0
    7.8644    9.2537    3.7828 C   0  0  0  0  0  0  0  0  0  0  0  0
    8.7620    9.8117    4.0033 H   0  0  0  0  0  0  0  0  0  0  0  0
    7.6488    8.0315    4.3933 C   0  0  0  0  0  0  0  0  0  0  0  0
    8.3687    7.6216    5.0851 H   0  0  0  0  0  0  0  0  0  0  0  0
    4.7947    1.9782    6.3522 C   0  0  0  0  0  0  0  0  0  0  0  0
    5.1049    0.8738    5.5700 C   0  0  0  0  0  0  0  0  0  0  0  0
    4.9766    0.9246    4.4986 H   0  0  0  0  0  0  0  0  0  0  0  0
    5.5977   -0.2722    6.1634 C   0  0  0  0  0  0  0  0  0  0  0  0
    5.8577   -1.1198    5.5482 H   0  0  0  0  0  0  0  0  0  0  0  0
    5.7678   -0.3265    7.5369 C   0  0  0  0  0  0  0  0  0  0  0  0
    6.1641   -1.2175    8.0000 H   0  0  0  0  0  0  0  0  0  0  0  0
    5.4214    0.7635    8.3156 C   0  0  0  0  0  0  0  0  0  0  0  0
    5.5342    0.7225    9.3889 H   0  0  0  0  0  0  0  0  0  0  0  0
    4.9247    1.9163    7.7309 C   0  0  0  0  0  0  0  0  0  0  0  0
    4.6411    2.7474    8.3576 H   0  0  0  0  0  0  0  0  0  0  0  0
  1  2  1  0  0  0  0
  1  6  1  0  0  0  0
  1  7  1  0  0  0  0
  3  1  1  0  0  0  0
  4 14  1  6  0  0  0
  4  1  1  0  0  0  0
  5 25  1  1  0  0  0
  5  1  1  0  0  0  0
  6 42  1  6  0  0  0
  6 36  1  0  0  0  0
  7 53  1  1  0  0  0
  7 39  1  0  0  0  0
  8 11  1  0  0  0  0
  8  4  1  0  0  0  0
  9  8  1  0  0  0  0
 10  8  1  0  0  0  0
 11  5  1  0  0  0  0
 11 13  1  0  0  0  0
 12 11  1  0  0  0  0
 14 15  1  0  0  0  0
 15 16  1  0  0  0  0
 17 15  2  0  0  0  0
 17 18  1  0  0  0  0
 19 17  1  0  0  0  0
 20 19  1  0  0  0  0
 21 23  1  0  0  0  0
 21 19  2  0  0  0  0
 22 21  1  0  0  0  0
 23 14  2  0  0  0  0
 24 23  1  0  0  0  0
 25 34  1  0  0  0  0
 26 28  1  0  0  0  0
 26 25  2  0  0  0  0
 27 26  1  0  0  0  0
 28 30  2  0  0  0  0
 29 28  1  0  0  0  0
 30 31  1  0  0  0  0
 30 32  1  0  0  0  0
 32 33  1  0  0  0  0
 34 32  2  0  0  0  0
 34 35  1  0  0  0  0
 36 37  1  0  0  0  0
 36 39  1  0  0  0  0
 38 36  1  0  0  0  0
 39 41  1  0  0  0  0
 39 40  1  0  0  0  0
 42 51  1  0  0  0  0
 43 42  2  0  0  0  0
 44 43  1  0  0  0  0
 45 47  2  0  0  0  0
 45 43  1  0  0  0  0
 46 45  1  0  0  0  0
 47 49  1  0  0  0  0
 48 47  1  0  0  0  0
 49 50  1  0  0  0  0
 49 51  2  0  0  0  0
 51 52  1  0  0  0  0
 53 62  1  0  0  0  0
 54 56  1  0  0  0  0
 54 53  2  0  0  0  0
 55 54  1  0  0  0  0
 56 58  2  0  0  0  0
 57 56  1  0  0  0  0
 58 59  1  0  0  0  0
 58 60  1  0  0  0  0
 60 61  1  0  0  0  0
 62 60  2  0  0  0  0
 62 63  1  0  0  0  0
M  END
$$$$
