CSD_code = KOJZEQ | q = 0 | S = 0 | Stoichiometry = C14H20Cl2N2O2PdS2 | MND = 4
 OpenBabel04212202063D

 43 45  0  0  0  0  0  0  0  0999 V2000
    7.9129    7.4839    3.7878 Pd  0  0  0  0  0  0  0  0  0  0  0  0
    6.3452    7.9520    2.1276 S   0  0  2  0  0  3  0  0  0  0  0  0
    6.2011    7.0486    5.3085 S   0  0  2  0  0  3  0  0  0  0  0  0
    9.4017    7.0245    5.3882 Cl  0  0  0  0  0  0  0  0  0  0  0  0
    9.5406    7.9140    2.3201 Cl  0  0  0  0  0  0  0  0  0  0  0  0
    3.5780   11.6326    1.2299 O   0  0  0  0  0  0  0  0  0  0  0  0
    3.2959    3.4236    5.9673 O   0  0  0  0  0  0  0  0  0  0  0  0
    6.2967    5.2405    4.9444 C   0  0  0  0  0  0  0  0  0  0  0  0
    3.8696    3.6537    7.1745 N   0  0  0  0  0  0  0  0  0  0  0  0
    6.4482    9.7589    2.4959 C   0  0  0  0  0  0  0  0  0  0  0  0
    5.1720    4.5163    5.5689 C   0  0  0  0  0  0  0  0  0  0  0  0
    4.0663    3.9406    4.9966 C   0  0  0  0  0  0  0  0  0  0  0  0
    5.3931   10.5037    1.7809 C   0  0  0  0  0  0  0  0  0  0  0  0
    4.2424   11.3862    0.0736 N   0  0  0  0  0  0  0  0  0  0  0  0
    4.9840    4.2975    6.9700 C   0  0  0  0  0  0  0  0  0  0  0  0
    4.2569   11.1039    2.2609 C   0  0  0  0  0  0  0  0  0  0  0  0
    4.6798    7.5578    4.4100 C   0  0  0  0  0  0  0  0  0  0  0  0
    4.7426    7.4786    2.8946 C   0  0  0  0  0  0  0  0  0  0  0  0
    5.3232   10.7207    0.3687 C   0  0  0  0  0  0  0  0  0  0  0  0
    5.8923    4.7134    8.0618 C   0  0  0  0  0  0  0  0  0  0  0  0
    3.7031   11.2764    3.6272 C   0  0  0  0  0  0  0  0  0  0  0  0
    6.3076   10.2819   -0.6453 C   0  0  0  0  0  0  0  0  0  0  0  0
    3.6214    3.7825    3.5894 C   0  0  0  0  0  0  0  0  0  0  0  0
    7.2750   10.7413   -0.4471 H   0  0  0  0  0  0  0  0  0  0  0  0
    6.8627    4.2341    7.9405 H   0  0  0  0  0  0  0  0  0  0  0  0
    6.3382    5.0956    3.8583 H   0  0  0  0  0  0  0  0  0  0  0  0
    3.1543    2.8083    3.4671 H   0  0  0  0  0  0  0  0  0  0  0  0
    5.9674   10.5725   -1.6340 H   0  0  0  0  0  0  0  0  0  0  0  0
    6.0473    5.7909    8.0353 H   0  0  0  0  0  0  0  0  0  0  0  0
    6.4372    9.2015   -0.6043 H   0  0  0  0  0  0  0  0  0  0  0  0
    7.2554    4.9580    5.3932 H   0  0  0  0  0  0  0  0  0  0  0  0
    3.2521   12.2622    3.7108 H   0  0  0  0  0  0  0  0  0  0  0  0
    4.4675    3.8609    2.9116 H   0  0  0  0  0  0  0  0  0  0  0  0
    6.4043    9.9060    3.5817 H   0  0  0  0  0  0  0  0  0  0  0  0
    7.4459   10.0203    2.1264 H   0  0  0  0  0  0  0  0  0  0  0  0
    2.8815    4.5407    3.3310 H   0  0  0  0  0  0  0  0  0  0  0  0
    2.9257   10.5376    3.8244 H   0  0  0  0  0  0  0  0  0  0  0  0
    5.4675    4.4281    9.0188 H   0  0  0  0  0  0  0  0  0  0  0  0
    4.5185    8.5840    4.7418 H   0  0  0  0  0  0  0  0  0  0  0  0
    4.5860    6.4562    2.5494 H   0  0  0  0  0  0  0  0  0  0  0  0
    3.9784    8.1166    2.4477 H   0  0  0  0  0  0  0  0  0  0  0  0
    3.8662    6.9382    4.7907 H   0  0  0  0  0  0  0  0  0  0  0  0
    4.4890   11.1784    4.3716 H   0  0  0  0  0  0  0  0  0  0  0  0
  1  3  1  0  0  0  0
  1  4  1  0  0  0  0
  2 10  1  1  0  0  0
  2 18  1  0  0  0  0
  2  1  1  0  0  0  0
  3  8  1  6  0  0  0
  5  1  1  0  0  0  0
  6 16  1  0  0  0  0
  7  9  1  0  0  0  0
  8 31  1  0  0  0  0
  8 11  1  0  0  0  0
 10 34  1  0  0  0  0
 11 15  1  0  0  0  0
 12 11  2  0  0  0  0
 12  7  1  0  0  0  0
 13 16  2  0  0  0  0
 13 10  1  0  0  0  0
 14 19  2  0  0  0  0
 14  6  1  0  0  0  0
 15  9  2  0  0  0  0
 15 20  1  0  0  0  0
 16 21  1  0  0  0  0
 17 39  1  0  0  0  0
 17 42  1  0  0  0  0
 17  3  1  0  0  0  0
 18 17  1  0  0  0  0
 19 13  1  0  0  0  0
 20 38  1  0  0  0  0
 21 32  1  0  0  0  0
 21 37  1  0  0  0  0
 21 43  1  0  0  0  0
 22 30  1  0  0  0  0
 22 24  1  0  0  0  0
 22 19  1  0  0  0  0
 23 12  1  0  0  0  0
 25 20  1  0  0  0  0
 26  8  1  0  0  0  0
 27 23  1  0  0  0  0
 28 22  1  0  0  0  0
 29 20  1  0  0  0  0
 33 23  1  0  0  0  0
 35 10  1  0  0  0  0
 36 23  1  0  0  0  0
 40 18  1  0  0  0  0
 41 18  1  0  0  0  0
M  END
$$$$
