CSD_code = KOKDOE | q = 0 | S = 0 | Stoichiometry = C14H20B2Cl2N2Ti | MND = 12
 OpenBabel04212202063D

 41 43  0  0  1  0  0  0  0  0999 V2000
   14.4847    6.7748    6.3631 Ti  0  0  0  0  0  0  0  0  0  0  0  0
   12.7819   10.1401    8.6762 N   0  0  0  0  0  0  0  0  0  0  0  0
   13.4979   11.3238    8.2504 C   0  0  0  0  0  0  0  0  0  0  0  0
   13.6534   11.2995    7.1754 H   0  0  0  0  0  0  0  0  0  0  0  0
   14.4678   11.3970    8.7533 H   0  0  0  0  0  0  0  0  0  0  0  0
   12.9190   12.2182    8.5006 H   0  0  0  0  0  0  0  0  0  0  0  0
   12.5927    8.9974    7.9114 B   0  0  0  0  0  0  0  0  0  0  0  0
   16.5184    7.2129    7.1972 Cl  0  0  0  0  0  0  0  0  0  0  0  0
   10.5017    7.3115    8.6585 N   0  0  0  0  0  0  0  0  0  0  0  0
   12.3179   10.2700   10.0401 C   0  0  0  0  0  0  0  0  0  0  0  0
   11.8301    9.3525   10.3560 H   0  0  0  0  0  0  0  0  0  0  0  0
   11.6146   11.1041   10.1349 H   0  0  0  0  0  0  0  0  0  0  0  0
   13.1621   10.4657   10.7080 H   0  0  0  0  0  0  0  0  0  0  0  0
   11.8140    7.5667    8.2973 B   0  0  0  0  0  0  0  0  0  0  0  0
   15.3961    5.5283    4.7389 Cl  0  0  0  0  0  0  0  0  0  0  0  0
    9.5032    8.3407    8.8488 C   0  0  0  0  0  0  0  0  0  0  0  0
    9.9271    9.3142    8.6214 H   0  0  0  0  0  0  0  0  0  0  0  0
    9.1357    8.3390    9.8800 H   0  0  0  0  0  0  0  0  0  0  0  0
    8.6485    8.1657    8.1883 H   0  0  0  0  0  0  0  0  0  0  0  0
    9.9495    5.9922    8.8839 C   0  0  0  0  0  0  0  0  0  0  0  0
   10.7320    5.2430    8.8002 H   0  0  0  0  0  0  0  0  0  0  0  0
    9.1635    5.7723    8.1546 H   0  0  0  0  0  0  0  0  0  0  0  0
    9.5083    5.9328    9.8834 H   0  0  0  0  0  0  0  0  0  0  0  0
   13.3142    8.7892    6.5288 C   0  0  0  0  0  0  0  0  0  0  0  0
   12.7548    8.0184    5.4584 C   0  0  1  0  0  0  0  0  0  0  0  0
   11.7155    7.7188    5.3921 H   0  0  0  0  0  0  0  0  0  0  0  0
   13.6931    7.9208    4.4180 C   0  0  0  0  0  0  0  0  0  0  0  0
   13.5284    7.4813    3.4421 H   0  0  0  0  0  0  0  0  0  0  0  0
   14.8650    8.5900    4.8337 C   0  0  0  0  0  0  0  0  0  0  0  0
   15.7641    8.7208    4.2438 H   0  0  0  0  0  0  0  0  0  0  0  0
   14.6242    9.1371    6.1090 C   0  0  0  0  0  0  0  0  0  0  0  0
   15.3305    9.7467    6.6582 H   0  0  0  0  0  0  0  0  0  0  0  0
   12.7826    6.3675    7.9513 C   0  0  0  0  0  0  0  0  0  0  0  0
   12.6383    5.4034    6.9140 C   0  0  0  0  0  0  0  0  0  0  0  0
   11.7513    5.2518    6.3100 H   0  0  0  0  0  0  0  0  0  0  0  0
   13.7574    4.5452    6.9239 C   0  0  0  0  0  0  0  0  0  0  0  0
   13.8850    3.6591    6.3155 H   0  0  0  0  0  0  0  0  0  0  0  0
   14.6380    4.9942    7.9230 C   0  0  0  0  0  0  0  0  0  0  0  0
   15.5610    4.5124    8.2214 H   0  0  0  0  0  0  0  0  0  0  0  0
   14.0507    6.1276    8.5387 C   0  0  1  0  0  0  0  0  0  0  0  0
   14.4455    6.6381    9.4104 H   0  0  0  0  0  0  0  0  0  0  0  0
  1  8  1  0  0  0  0
  1 40  1  0  0  0  0
  2 10  1  0  0  0  0
  3  6  1  0  0  0  0
  3  2  1  0  0  0  0
  3  5  1  0  0  0  0
  4  3  1  0  0  0  0
  7 14  1  0  0  0  0
  7  2  1  0  0  0  0
  9 16  1  0  0  0  0
  9 20  1  0  0  0  0
 10 12  1  0  0  0  0
 10 11  1  0  0  0  0
 10 13  1  0  0  0  0
 14  9  1  0  0  0  0
 15  1  1  0  0  0  0
 16 18  1  0  0  0  0
 17 16  1  0  0  0  0
 19 16  1  0  0  0  0
 20 23  1  0  0  0  0
 21 20  1  0  0  0  0
 22 20  1  0  0  0  0
 24  7  1  0  0  0  0
 25 26  1  6  0  0  0
 25  1  1  0  0  0  0
 25 24  1  0  0  0  0
 27 29  2  0  0  0  0
 27 25  1  0  0  0  0
 28 27  1  0  0  0  0
 29 31  1  0  0  0  0
 30 29  1  0  0  0  0
 31 24  2  0  0  0  0
 31 32  1  0  0  0  0
 33 14  1  0  0  0  0
 33 40  1  0  0  0  0
 34 36  1  0  0  0  0
 34 33  2  0  0  0  0
 35 34  1  0  0  0  0
 36 38  2  0  0  0  0
 37 36  1  0  0  0  0
 38 39  1  0  0  0  0
 38 40  1  0  0  0  0
 40 41  1  1  0  0  0
M  END
$$$$
