CSD_code = KOKQIL | q = 0 | S = 0 | Stoichiometry = C29H24AgClN2O2 | MND = 2
 OpenBabel04212202063D

 59 63  0  0  1  0  0  0  0  0999 V2000
    2.6454   11.9648    1.8522 Ag  0  0  0  0  0  0  0  0  0  0  0  0
    4.4472   13.2898    1.8140 Cl  0  0  0  0  0  0  0  0  0  0  0  0
   -1.7718    3.4569    2.1592 O   0  0  0  0  0  0  0  0  0  0  0  0
   -6.8194   10.2461    1.9053 O   0  0  0  0  0  0  0  0  0  0  0  0
    0.8901    9.3616    1.9853 N   0  0  0  0  0  0  0  0  0  0  0  0
   -0.3728   11.0922    1.8693 N   0  0  0  0  0  0  0  0  0  0  0  0
    0.9233   10.7101    1.9014 C   0  0  1  0  0  3  0  0  0  0  0  0
   -0.4095    8.8950    2.0090 C   0  0  0  0  0  0  0  0  0  0  0  0
   -1.2163   10.0001    1.9295 C   0  0  0  0  0  0  0  0  0  0  0  0
    2.0492    8.5725    2.1422 C   0  0  0  0  0  0  0  0  0  0  0  0
    3.1276    8.7489    1.2819 C   0  0  0  0  0  0  0  0  0  0  0  0
    3.0541    9.4525    0.4616 H   0  0  0  0  0  0  0  0  0  0  0  0
    4.2746    7.9947    1.4600 C   0  0  0  0  0  0  0  0  0  0  0  0
    5.1115    8.1340    0.7935 H   0  0  0  0  0  0  0  0  0  0  0  0
    4.3458    7.0652    2.4838 C   0  0  0  0  0  0  0  0  0  0  0  0
    5.2415    6.4786    2.6191 H   0  0  0  0  0  0  0  0  0  0  0  0
    3.2683    6.8897    3.3362 C   0  0  0  0  0  0  0  0  0  0  0  0
    3.3225    6.1692    4.1380 H   0  0  0  0  0  0  0  0  0  0  0  0
    2.1208    7.6438    3.1735 C   0  0  0  0  0  0  0  0  0  0  0  0
    1.2852    7.5215    3.8462 H   0  0  0  0  0  0  0  0  0  0  0  0
   -0.7747   12.4305    1.6749 C   0  0  0  0  0  0  0  0  0  0  0  0
   -0.2385   13.4371    2.4708 C   0  0  0  0  0  0  0  0  0  0  0  0
    0.4439   13.1847    3.2734 H   0  0  0  0  0  0  0  0  0  0  0  0
   -0.6103   14.7525    2.2523 C   0  0  0  0  0  0  0  0  0  0  0  0
   -0.1911   15.5330    2.8683 H   0  0  0  0  0  0  0  0  0  0  0  0
   -1.5158   15.0641    1.2522 C   0  0  0  0  0  0  0  0  0  0  0  0
   -1.8026   16.0910    1.0844 H   0  0  0  0  0  0  0  0  0  0  0  0
   -2.0512   14.0583    0.4647 C   0  0  0  0  0  0  0  0  0  0  0  0
   -2.7532   14.2985   -0.3194 H   0  0  0  0  0  0  0  0  0  0  0  0
   -1.6808   12.7418    0.6680 C   0  0  0  0  0  0  0  0  0  0  0  0
   -2.0833   11.9571    0.0451 H   0  0  0  0  0  0  0  0  0  0  0  0
   -0.7716    7.4848    2.0721 C   0  0  0  0  0  0  0  0  0  0  0  0
   -0.1094    6.5392    1.2870 C   0  0  0  0  0  0  0  0  0  0  0  0
    0.6807    6.8501    0.6198 H   0  0  0  0  0  0  0  0  0  0  0  0
   -0.4677    5.2122    1.3420 C   0  0  0  0  0  0  0  0  0  0  0  0
    0.0356    4.4757    0.7364 H   0  0  0  0  0  0  0  0  0  0  0  0
   -1.4993    4.7869    2.1828 C   0  0  0  0  0  0  0  0  0  0  0  0
   -2.1638    5.7263    2.9659 C   0  0  0  0  0  0  0  0  0  0  0  0
   -2.9640    5.4342    3.6269 H   0  0  0  0  0  0  0  0  0  0  0  0
   -1.7992    7.0584    2.9067 C   0  0  0  0  0  0  0  0  0  0  0  0
   -2.3175    7.7784    3.5223 H   0  0  0  0  0  0  0  0  0  0  0  0
   -2.6707   10.0918    1.9383 C   0  0  0  0  0  0  0  0  0  0  0  0
   -3.3211   11.0432    2.7171 C   0  0  0  0  0  0  0  0  0  0  0  0
   -2.7465   11.7218    3.3304 H   0  0  0  0  0  0  0  0  0  0  0  0
   -4.7012   11.1280    2.7348 C   0  0  0  0  0  0  0  0  0  0  0  0
   -5.1680   11.8777    3.3535 H   0  0  0  0  0  0  0  0  0  0  0  0
   -5.4626   10.2534    1.9663 C   0  0  0  0  0  0  0  0  0  0  0  0
   -4.8123    9.2931    1.1861 C   0  0  0  0  0  0  0  0  0  0  0  0
   -5.4144    8.6221    0.5945 H   0  0  0  0  0  0  0  0  0  0  0  0
   -3.4393    9.2136    1.1721 C   0  0  0  0  0  0  0  0  0  0  0  0
   -2.9484    8.4721    0.5602 H   0  0  0  0  0  0  0  0  0  0  0  0
   -2.8105    2.9641    2.9712 C   0  0  0  0  0  0  0  0  0  0  0  0
   -2.6061    3.1342    4.0331 H   0  0  0  0  0  0  0  0  0  0  0  0
   -2.8499    1.8930    2.7802 H   0  0  0  0  0  0  0  0  0  0  0  0
   -3.7734    3.4137    2.7087 H   0  0  0  0  0  0  0  0  0  0  0  0
   -7.5355   11.1946    2.6596 C   0  0  0  0  0  0  0  0  0  0  0  0
   -7.3556   11.0738    3.7326 H   0  0  0  0  0  0  0  0  0  0  0  0
   -8.5866   11.0055    2.4483 H   0  0  0  0  0  0  0  0  0  0  0  0
   -7.2851   12.2175    2.3611 H   0  0  0  0  0  0  0  0  0  0  0  0
  2  1  1  0  0  0  0
  3 37  1  0  0  0  0
  3 52  1  0  0  0  0
  4 47  1  0  0  0  0
  4 56  1  0  0  0  0
  5  8  1  0  0  0  0
  5 10  1  0  0  0  0
  6  7  1  0  0  0  0
  6  9  1  0  0  0  0
  7  1  1  1  0  0  0
  7  5  1  0  0  0  0
  8 32  1  0  0  0  0
  9 42  1  0  0  0  0
  9  8  2  0  0  0  0
 10 19  1  0  0  0  0
 11 13  1  0  0  0  0
 11 10  2  0  0  0  0
 12 11  1  0  0  0  0
 13 15  2  0  0  0  0
 14 13  1  0  0  0  0
 15 16  1  0  0  0  0
 15 17  1  0  0  0  0
 17 18  1  0  0  0  0
 19 17  2  0  0  0  0
 19 20  1  0  0  0  0
 21  6  1  0  0  0  0
 21 22  1  0  0  0  0
 22 23  1  0  0  0  0
 24 22  2  0  0  0  0
 24 25  1  0  0  0  0
 26 24  1  0  0  0  0
 27 26  1  0  0  0  0
 28 30  1  0  0  0  0
 28 26  2  0  0  0  0
 29 28  1  0  0  0  0
 30 21  2  0  0  0  0
 31 30  1  0  0  0  0
 32 40  1  0  0  0  0
 33 35  1  0  0  0  0
 33 32  2  0  0  0  0
 34 33  1  0  0  0  0
 35 37  2  0  0  0  0
 36 35  1  0  0  0  0
 37 38  1  0  0  0  0
 38 39  1  0  0  0  0
 40 38  2  0  0  0  0
 40 41  1  0  0  0  0
 42 43  1  0  0  0  0
 43 45  2  0  0  0  0
 43 44  1  0  0  0  0
 45 46  1  0  0  0  0
 47 45  1  0  0  0  0
 48 47  2  0  0  0  0
 49 48  1  0  0  0  0
 50 48  1  0  0  0  0
 50 42  2  0  0  0  0
 51 50  1  0  0  0  0
 52 53  1  0  0  0  0
 54 52  1  0  0  0  0
 55 52  1  0  0  0  0
 56 57  1  0  0  0  0
 58 56  1  0  0  0  0
 59 56  1  0  0  0  0
M  END
$$$$
