CSD_code = KOLHEA | q = 0 | S = 0 | Stoichiometry = C18H16BrN4O4Re | MND = 6
 OpenBabel04212202063D

 44 47  0  0  0  0  0  0  0  0999 V2000
    1.9800    5.6689    0.3250 C   0  0  0  0  0  0  0  0  0  0  0  0
    1.8060    4.6518   -0.6328 C   0  0  0  0  0  0  0  0  0  0  0  0
    2.1146    3.6463   -0.3824 H   0  0  0  0  0  0  0  0  0  0  0  0
    1.2746    4.9384   -1.8606 C   0  0  0  0  0  0  0  0  0  0  0  0
    1.1456    4.1490   -2.5850 H   0  0  0  0  0  0  0  0  0  0  0  0
    0.8950    6.2477   -2.1903 C   0  0  0  0  0  0  0  0  0  0  0  0
    0.4648    6.4493   -3.1592 H   0  0  0  0  0  0  0  0  0  0  0  0
    1.0805    7.2624   -1.2924 C   0  0  0  0  0  3  0  0  0  0  0  0
    0.8092    8.2785   -1.5375 H   0  0  0  0  0  0  0  0  0  0  0  0
    1.6366    7.0045   -0.0250 C   0  0  0  0  0  0  0  0  0  0  0  0
    1.8728    8.0249    0.9194 C   0  0  0  0  0  0  0  0  0  0  0  0
    1.6023    9.0425    0.6823 H   0  0  0  0  0  0  0  0  0  0  0  0
    2.4487    7.7149    2.1175 C   0  0  0  0  0  0  0  0  0  0  0  0
    2.6529    8.4692    2.8583 H   0  0  0  0  0  0  0  0  0  0  0  0
    2.7359    6.3659    2.3887 C   0  0  0  0  0  0  0  0  0  0  0  0
    3.8134    6.7038    4.6329 C   0  0  0  0  0  3  0  0  0  0  0  0
    3.8131    7.7709    4.6752 H   0  0  0  0  0  0  0  0  0  0  0  0
    4.2647    5.7604    5.5258 C   0  0  0  0  0  0  0  0  0  0  0  0
    4.9374    5.9327    6.8381 C   0  0  0  0  0  0  0  0  0  0  0  0
    4.4437    5.2932    7.5720 H   0  0  0  0  0  0  0  0  0  0  0  0
    4.8462    6.9718    7.1592 H   0  0  0  0  0  0  0  0  0  0  0  0
    6.4154    5.5357    6.7450 C   0  0  0  0  0  0  0  0  0  0  0  0
    6.4668    4.4971    6.4105 H   0  0  0  0  0  0  0  0  0  0  0  0
    6.9109    6.1599    5.9952 H   0  0  0  0  0  0  0  0  0  0  0  0
    7.1203    5.7003    8.0896 C   0  0  0  0  0  0  0  0  0  0  0  0
    7.0119    6.7315    8.4313 H   0  0  0  0  0  0  0  0  0  0  0  0
    6.6575    5.0455    8.8299 H   0  0  0  0  0  0  0  0  0  0  0  0
    8.6147    5.3734    8.0124 C   0  0  0  0  0  0  0  0  0  0  0  0
    9.0768    5.9520    7.1973 H   0  0  0  0  0  0  0  0  0  0  0  0
    9.1012    5.6539    8.9498 H   0  0  0  0  0  0  0  0  0  0  0  0
    4.1085    2.7662    1.7004 C   0  0  0  0  0  2  0  0  0  0  0  0
    1.2809    2.3321    1.4976 C   0  0  0  0  0  2  0  0  0  0  0  0
    2.5667    1.8806    3.9161 C   0  0  0  0  0  2  0  0  0  0  0  0
    2.4839    5.3720    1.5508 N   0  0  0  0  0  0  0  0  0  0  0  0
    3.3110    5.9880    3.5924 N   0  0  0  0  0  0  0  0  0  0  0  0
    3.4637    4.6817    3.8634 N   0  0  0  0  0  0  0  0  0  0  0  0
    4.0268    4.5389    4.9949 N   0  0  0  0  0  0  0  0  0  0  0  0
    8.8822    4.0030    7.8561 O   0  0  0  0  0  0  0  0  0  0  0  0
    8.4446    3.6865    7.0575 H   0  0  0  0  0  0  0  0  0  0  0  0
    5.0534    2.4452    1.1343 O   0  0  0  0  0  1  0  0  0  0  0  0
    0.4612    1.7994    0.9033 O   0  0  0  0  0  1  0  0  0  0  0  0
    2.5670    1.0891    4.7369 O   0  0  0  0  0  1  0  0  0  0  0  0
    0.3772    4.3276    3.7071 Br  0  0  0  0  0  0  0  0  0  0  0  0
    2.5076    3.3485    2.6301 Re  0  0  0  0  0  0  0  0  0  0  0  0
  1 34  1  0  0  0  0
  2  3  1  0  0  0  0
  2  1  2  0  0  0  0
  4  2  1  0  0  0  0
  5  4  1  0  0  0  0
  6  4  2  0  0  0  0
  6  8  1  0  0  0  0
  7  6  1  0  0  0  0
  8 10  1  0  0  0  0
  9  8  1  0  0  0  0
 10  1  1  0  0  0  0
 10 11  2  0  0  0  0
 11 13  1  0  0  0  0
 12 11  1  0  0  0  0
 13 15  2  0  0  0  0
 13 14  1  0  0  0  0
 15 35  1  0  0  0  0
 16 17  1  0  0  0  0
 16 18  1  0  0  0  0
 18 19  1  0  0  0  0
 19 21  1  0  0  0  0
 19 20  1  0  0  0  0
 22 19  1  0  0  0  0
 22 25  1  0  0  0  0
 23 22  1  0  0  0  0
 24 22  1  0  0  0  0
 25 26  1  0  0  0  0
 25 27  1  0  0  0  0
 28 25  1  0  0  0  0
 28 30  1  0  0  0  0
 29 28  1  0  0  0  0
 31 44  1  0  0  0  0
 32 44  1  0  0  0  0
 33 42  1  0  0  0  0
 34 15  1  0  0  0  0
 34 44  1  0  0  0  0
 35 36  1  0  0  0  0
 35 16  1  0  0  0  0
 36 37  1  0  0  0  0
 37 18  2  0  0  0  0
 38 28  1  0  0  0  0
 39 38  1  0  0  0  0
 40 31  1  0  0  0  0
 41 32  1  0  0  0  0
 44 43  1  0  0  0  0
 44 36  1  0  0  0  0
 44 33  1  0  0  0  0
M  END
$$$$
