CSD_code = KOLTUD | q = -1 | S = 0 | Stoichiometry = C13H18ClCoN5O7S(1-) | MND = 6
 OpenBabel04212202063D

 46 48  0  0  0  0  0  0  0  0999 V2000
    3.7224    8.0505    4.6732 Co  0  0  0  0  0  0  0  0  0  0  0  0
    4.7149    8.0199    2.7187 Cl  0  0  0  0  0  0  0  0  0  0  0  0
    1.0134    8.0923   10.6367 S   0  0  0  0  0  0  0  0  0  0  0  0
    2.2990    7.8299   11.2757 O   0  0  0  0  0  1  0  0  0  0  0  0
    0.4686    9.4175   10.8726 O   0  0  0  0  0  1  0  0  0  0  0  0
    0.0574    7.0017   10.7087 O   0  0  0  0  0  1  0  0  0  0  0  0
    4.6203    5.3332    5.1044 O   0  0  0  0  0  0  0  0  0  0  0  0
    3.6976    5.2941    4.6290 H   0  0  0  0  0  0  0  0  0  0  0  0
    2.8781   10.7657    4.1390 O   0  0  0  0  0  0  0  0  0  0  0  0
    3.8096   10.8034    4.6023 H   0  0  0  0  0  0  0  0  0  0  0  0
    2.3477    5.6812    4.0424 O   0  0  0  0  0  1  0  0  0  0  0  0
    5.0718   10.4216    5.3488 O   0  0  0  0  0  1  0  0  0  0  0  0
    5.1264    9.1369    5.3340 N   0  0  0  0  0  0  0  0  0  0  0  0
    2.8357    8.0769    6.4280 N   0  0  0  0  0  0  0  0  0  0  0  0
    2.3473    6.9638    3.9547 N   0  0  0  0  0  0  0  0  0  0  0  0
    4.8756    6.6595    5.2245 N   0  0  0  0  0  0  0  0  0  0  0  0
    2.6159    9.4401    4.0316 N   0  0  0  0  0  0  0  0  0  0  0  0
    2.3600    6.9528    6.9754 C   0  0  0  0  0  3  0  0  0  0  0  0
    2.4714    6.0383    6.4095 H   0  0  0  0  0  0  0  0  0  0  0  0
    2.0824    9.2741    8.3486 C   0  0  0  0  0  0  0  0  0  0  0  0
    1.9786   10.2016    8.8880 H   0  0  0  0  0  0  0  0  0  0  0  0
    6.1524    8.4776    5.7838 C   0  0  0  0  0  0  0  0  0  0  0  0
    2.6956    9.2181    7.1116 C   0  0  0  0  0  0  0  0  0  0  0  0
    3.0944   10.1180    6.6644 H   0  0  0  0  0  0  0  0  0  0  0  0
    1.7363    6.9313    8.2082 C   0  0  0  0  0  0  0  0  0  0  0  0
    1.3603    6.0164    8.6363 H   0  0  0  0  0  0  0  0  0  0  0  0
    6.0068    7.0490    5.7082 C   0  0  0  0  0  0  0  0  0  0  0  0
    1.5855    8.1129    8.9070 C   0  0  0  0  0  0  0  0  0  0  0  0
    1.5600    9.0487    3.4010 C   0  0  0  0  0  0  0  0  0  0  0  0
    1.3940    7.6213    3.3632 C   0  0  0  0  0  0  0  0  0  0  0  0
    7.0809    6.1162    6.1582 C   0  0  0  0  0  0  0  0  0  0  0  0
    6.7627    5.0900    5.9963 H   0  0  0  0  0  0  0  0  0  0  0  0
    7.2874    6.2691    7.2161 H   0  0  0  0  0  0  0  0  0  0  0  0
    7.9955    6.3041    5.5986 H   0  0  0  0  0  0  0  0  0  0  0  0
    7.3719    9.1436    6.3361 C   0  0  0  0  0  0  0  0  0  0  0  0
    7.2446   10.2203    6.2483 H   0  0  0  0  0  0  0  0  0  0  0  0
    8.2598    8.8406    5.7836 H   0  0  0  0  0  0  0  0  0  0  0  0
    7.5084    8.8841    7.3853 H   0  0  0  0  0  0  0  0  0  0  0  0
    0.2281    6.9535    2.7065 C   0  0  0  0  0  0  0  0  0  0  0  0
    0.3465    5.8772    2.8102 H   0  0  0  0  0  0  0  0  0  0  0  0
    0.1850    7.2086    1.6487 H   0  0  0  0  0  0  0  0  0  0  0  0
   -0.7057    7.2587    3.1769 H   0  0  0  0  0  0  0  0  0  0  0  0
    0.5831    9.9799    2.7638 C   0  0  0  0  0  0  0  0  0  0  0  0
    0.9239   11.0042    2.8881 H   0  0  0  0  0  0  0  0  0  0  0  0
   -0.3968    9.8660    3.2248 H   0  0  0  0  0  0  0  0  0  0  0  0
    0.4922    9.7544    1.7029 H   0  0  0  0  0  0  0  0  0  0  0  0
  1 16  1  0  0  0  0
  1 13  1  0  0  0  0
  1 14  1  0  0  0  0
  2  1  1  0  0  0  0
  3  6  1  0  0  0  0
  3  5  1  0  0  0  0
  3  4  1  0  0  0  0
  7 16  1  0  0  0  0
  8  7  1  0  0  0  0
  9 10  1  0  0  0  0
 13 12  1  0  0  0  0
 13 22  1  0  0  0  0
 14 18  1  0  0  0  0
 14 23  1  0  0  0  0
 15 11  1  0  0  0  0
 15  1  1  0  0  0  0
 16 27  1  0  0  0  0
 17  9  1  0  0  0  0
 17  1  1  0  0  0  0
 18 25  1  0  0  0  0
 19 18  1  0  0  0  0
 20 21  1  0  0  0  0
 20 28  1  0  0  0  0
 22 35  1  0  0  0  0
 23 20  2  0  0  0  0
 24 23  1  0  0  0  0
 25 26  1  0  0  0  0
 25 28  2  0  0  0  0
 27 22  2  0  0  0  0
 27 31  1  0  0  0  0
 28  3  1  0  0  0  0
 29 17  1  0  0  0  0
 30 29  2  0  0  0  0
 30 15  1  0  0  0  0
 31 33  1  0  0  0  0
 32 31  1  0  0  0  0
 34 31  1  0  0  0  0
 35 38  1  0  0  0  0
 36 35  1  0  0  0  0
 37 35  1  0  0  0  0
 39 40  1  0  0  0  0
 39 42  1  0  0  0  0
 39 30  1  0  0  0  0
 41 39  1  0  0  0  0
 43 44  1  0  0  0  0
 43 45  1  0  0  0  0
 43 29  1  0  0  0  0
 46 43  1  0  0  0  0
M  END
$$$$
