CSD_code = KOMFIB | q = 0 | S = 0 | Stoichiometry = C33H28Cl3PRuS4 | MND = 6
 OpenBabel04212202063D

 70 77  0  0  0  0  0  0  0  0999 V2000
    3.4358   12.7588    5.1138 Ru  0  0  0  0  0  0  0  0  0  0  0  0
    3.5292   12.3557    7.4621 Cl  0  0  0  0  0  0  0  0  0  0  0  0
    1.3586   13.9865    5.0842 S   0  0  0  0  0  0  0  0  0  0  0  0
    3.6765   13.3485    2.8645 S   0  0  1  0  0  3  0  0  0  0  0  0
    4.5609   14.7347    5.6635 S   0  0  1  0  0  3  0  0  0  0  0  0
    5.4688   11.6691    5.3652 S   0  0  1  0  0  3  0  0  0  0  0  0
    6.0242   10.7957    3.8375 C   0  0  0  0  0  0  0  0  0  0  0  0
    5.1277   10.3023    3.4544 H   0  0  0  0  0  0  0  0  0  0  0  0
    6.6541   11.8758    2.5934 Cl  0  0  0  0  0  0  0  0  0  0  0  0
    7.2106    9.5245    4.2035 Cl  0  0  0  0  0  0  0  0  0  0  0  0
    2.1112   14.0852    2.4283 C   0  0  0  0  0  0  0  0  0  0  0  0
    1.8853   14.3674    1.0910 C   0  0  0  0  0  0  0  0  0  0  0  0
    2.6523   14.1310    0.3675 H   0  0  0  0  0  0  0  0  0  0  0  0
    0.6945   14.9444    0.6993 C   0  0  0  0  0  0  0  0  0  0  0  0
    0.5176   15.1689   -0.3410 H   0  0  0  0  0  0  0  0  0  0  0  0
   -0.2726   15.2277    1.6580 C   0  0  0  0  0  0  0  0  0  0  0  0
   -1.2075   15.6781    1.3589 H   0  0  0  0  0  0  0  0  0  0  0  0
   -0.0539   14.9343    2.9839 C   0  0  0  0  0  0  0  0  0  0  0  0
   -0.8013   15.1451    3.7327 H   0  0  0  0  0  0  0  0  0  0  0  0
    1.1456   14.3438    3.4029 C   0  0  0  0  0  0  0  0  0  0  0  0
    6.2874   14.2923    5.5701 C   0  0  0  0  0  0  0  0  0  0  0  0
    7.2402   15.2951    5.6794 C   0  0  0  0  0  0  0  0  0  0  0  0
    6.9206   16.3187    5.8055 H   0  0  0  0  0  0  0  0  0  0  0  0
    8.5851   14.9791    5.6339 C   0  0  0  0  0  0  0  0  0  0  0  0
    9.3224   15.7633    5.7105 H   0  0  0  0  0  0  0  0  0  0  0  0
    8.9829   13.6561    5.5120 C   0  0  0  0  0  0  0  0  0  0  0  0
   10.0322   13.4054    5.4914 H   0  0  0  0  0  0  0  0  0  0  0  0
    8.0392   12.6490    5.4361 C   0  0  0  0  0  0  0  0  0  0  0  0
    8.3446   11.6176    5.3635 H   0  0  0  0  0  0  0  0  0  0  0  0
    6.6881   12.9672    5.4458 C   0  0  0  0  0  0  0  0  0  0  0  0
    4.6997   14.8815    2.9063 C   0  0  0  0  0  0  0  0  0  0  0  0
    4.4717   15.4246    1.9890 H   0  0  0  0  0  0  0  0  0  0  0  0
    5.7376   14.5436    2.8854 H   0  0  0  0  0  0  0  0  0  0  0  0
    4.4155   15.7201    4.1274 C   0  0  0  0  0  0  0  0  0  0  0  0
    5.0981   16.5669    4.1998 H   0  0  0  0  0  0  0  0  0  0  0  0
    3.3829   16.0767    4.1336 H   0  0  0  0  0  0  0  0  0  0  0  0
    2.1235   10.9260    4.7195 P   0  0  0  0  0  4  0  0  0  0  0  0
    3.7379    9.1076    5.9325 C   0  0  0  0  0  0  0  0  0  0  0  0
    3.7358    9.8674    6.7058 H   0  0  0  0  0  0  0  0  0  0  0  0
    4.4508    7.9351    6.0919 C   0  0  0  0  0  0  0  0  0  0  0  0
    5.0239    7.7713    6.9923 H   0  0  0  0  0  0  0  0  0  0  0  0
    4.4301    6.9719    5.0947 C   0  0  0  0  0  0  0  0  0  0  0  0
    4.9941    6.0582    5.2123 H   0  0  0  0  0  0  0  0  0  0  0  0
    3.6789    7.1765    3.9498 C   0  0  0  0  0  0  0  0  0  0  0  0
    3.6507    6.4198    3.1789 H   0  0  0  0  0  0  0  0  0  0  0  0
    2.9571    8.3473    3.7850 C   0  0  0  0  0  0  0  0  0  0  0  0
    2.3636    8.4930    2.8932 H   0  0  0  0  0  0  0  0  0  0  0  0
    2.9975    9.3262    4.7708 C   0  0  0  0  0  0  0  0  0  0  0  0
    0.0095   11.3807    2.9443 C   0  0  0  0  0  0  0  0  0  0  0  0
   -0.5930   11.5371    3.8279 H   0  0  0  0  0  0  0  0  0  0  0  0
   -0.5311   11.5739    1.6858 C   0  0  0  0  0  0  0  0  0  0  0  0
   -1.5629   11.8769    1.5874 H   0  0  0  0  0  0  0  0  0  0  0  0
    0.2479   11.3910    0.5560 C   0  0  0  0  0  0  0  0  0  0  0  0
   -0.1773   11.5432   -0.4249 H   0  0  0  0  0  0  0  0  0  0  0  0
    1.5783   11.0255    0.6843 C   0  0  0  0  0  0  0  0  0  0  0  0
    2.1920   10.8933   -0.1950 H   0  0  0  0  0  0  0  0  0  0  0  0
    2.1264   10.8449    1.9396 C   0  0  0  0  0  0  0  0  0  0  0  0
    3.1744   10.5910    2.0421 H   0  0  0  0  0  0  0  0  0  0  0  0
    1.3404   11.0001    3.0802 C   0  0  0  0  0  0  0  0  0  0  0  0
   -0.0088    9.3762    5.5439 C   0  0  0  0  0  0  0  0  0  0  0  0
    0.2573    8.7547    4.6987 H   0  0  0  0  0  0  0  0  0  0  0  0
   -1.0739    9.0358    6.3536 C   0  0  0  0  0  0  0  0  0  0  0  0
   -1.6458    8.1431    6.1441 H   0  0  0  0  0  0  0  0  0  0  0  0
   -1.4069    9.8377    7.4355 C   0  0  0  0  0  0  0  0  0  0  0  0
   -2.2402    9.5670    8.0678 H   0  0  0  0  0  0  0  0  0  0  0  0
   -0.6722   10.9789    7.7060 C   0  0  0  0  0  0  0  0  0  0  0  0
   -0.9284   11.6008    8.5506 H   0  0  0  0  0  0  0  0  0  0  0  0
    0.3964   11.3291    6.8978 C   0  0  0  0  0  0  0  0  0  0  0  0
    0.9792   12.2138    7.1100 H   0  0  0  0  0  0  0  0  0  0  0  0
    0.7272   10.5298    5.8127 C   0  0  0  0  0  0  0  0  0  0  0  0
  1  6  1  0  0  0  0
  1  5  1  0  0  0  0
  1  2  1  0  0  0  0
  3  1  1  0  0  0  0
  4 11  1  1  0  0  0
  4 31  1  0  0  0  0
  4  1  1  0  0  0  0
  5 21  1  6  0  0  0
  6  7  1  6  0  0  0
  6 30  1  0  0  0  0
  7 10  1  0  0  0  0
  8  7  1  0  0  0  0
  9  7  1  0  0  0  0
 11 20  1  0  0  0  0
 12 11  2  0  0  0  0
 13 12  1  0  0  0  0
 14 12  1  0  0  0  0
 14 16  2  0  0  0  0
 15 14  1  0  0  0  0
 16 18  1  0  0  0  0
 17 16  1  0  0  0  0
 18 20  2  0  0  0  0
 18 19  1  0  0  0  0
 20  3  1  0  0  0  0
 21 22  1  0  0  0  0
 22 23  1  0  0  0  0
 24 22  2  0  0  0  0
 24 25  1  0  0  0  0
 26 24  1  0  0  0  0
 27 26  1  0  0  0  0
 28 30  1  0  0  0  0
 28 26  2  0  0  0  0
 29 28  1  0  0  0  0
 30 21  2  0  0  0  0
 31 34  1  0  0  0  0
 32 31  1  0  0  0  0
 33 31  1  0  0  0  0
 34 36  1  0  0  0  0
 34 35  1  0  0  0  0
 34  5  1  0  0  0  0
 37 48  1  0  0  0  0
 37  1  1  0  0  0  0
 37 70  1  0  0  0  0
 38 40  1  0  0  0  0
 38 39  1  0  0  0  0
 40 41  1  0  0  0  0
 42 43  1  0  0  0  0
 42 40  2  0  0  0  0
 44 42  1  0  0  0  0
 45 44  1  0  0  0  0
 46 44  2  0  0  0  0
 46 48  1  0  0  0  0
 47 46  1  0  0  0  0
 48 38  2  0  0  0  0
 49 59  1  0  0  0  0
 49 50  1  0  0  0  0
 51 49  2  0  0  0  0
 52 51  1  0  0  0  0
 53 55  2  0  0  0  0
 53 51  1  0  0  0  0
 54 53  1  0  0  0  0
 55 57  1  0  0  0  0
 56 55  1  0  0  0  0
 57 58  1  0  0  0  0
 57 59  2  0  0  0  0
 59 37  1  0  0  0  0
 60 70  2  0  0  0  0
 60 62  1  0  0  0  0
 61 60  1  0  0  0  0
 62 64  2  0  0  0  0
 63 62  1  0  0  0  0
 64 66  1  0  0  0  0
 64 65  1  0  0  0  0
 66 67  1  0  0  0  0
 68 69  1  0  0  0  0
 68 66  2  0  0  0  0
 70 68  1  0  0  0  0
M  END
$$$$
