CSD_code = KOMHEZ | q = 0 | S = 0 | Stoichiometry = C28H30Br2NiP2 | MND = 4
 OpenBabel04212202063D

 63 66  0  0  0  0  0  0  0  0999 V2000
   -1.7423    1.3875    4.4143 Ni  0  0  0  0  0  0  0  0  0  0  0  0
   -1.6901    2.9081    2.7361 Br  0  0  0  0  0  0  0  0  0  0  0  0
   -0.7732   -0.0223    5.7793 P   0  0  0  0  0  4  0  0  0  0  0  0
   -0.2453   -1.5566    4.9339 C   0  0  0  0  0  0  0  0  0  0  0  0
    0.4430   -1.3710    3.7363 C   0  0  0  0  0  0  0  0  0  0  0  0
    0.8962   -2.4528    3.0074 C   0  0  0  0  0  0  0  0  0  0  0  0
    0.6552   -3.7392    3.4640 C   0  0  0  0  0  0  0  0  0  0  0  0
   -0.0412   -3.9313    4.6444 C   0  0  0  0  0  0  0  0  0  0  0  0
   -0.4944   -2.8480    5.3778 C   0  0  0  0  0  0  0  0  0  0  0  0
    0.8941    0.6640    6.0867 C   0  0  0  0  0  0  0  0  0  0  0  0
    1.7523    0.1478    7.0512 C   0  0  0  0  0  0  0  0  0  0  0  0
    3.0214    0.6766    7.1982 C   0  0  0  0  0  0  0  0  0  0  0  0
    3.4502    1.7095    6.3804 C   0  0  0  0  0  0  0  0  0  0  0  0
    2.6075    2.2148    5.4052 C   0  0  0  0  0  0  0  0  0  0  0  0
    1.3364    1.6924    5.2600 C   0  0  0  0  0  0  0  0  0  0  0  0
   -1.3416   -0.6377    7.4209 C   0  0  0  0  0  0  0  0  0  0  0  0
   -1.5243    0.4473    8.4742 C   0  0  0  0  0  0  0  0  0  0  0  0
    0.6307   -0.3624    3.3820 H   0  0  0  0  0  0  0  0  0  0  0  0
    1.4368   -2.2956    2.0850 H   0  0  0  0  0  0  0  0  0  0  0  0
    1.0070   -4.5889    2.8980 H   0  0  0  0  0  0  0  0  0  0  0  0
   -0.2375   -4.9325    4.9991 H   0  0  0  0  0  0  0  0  0  0  0  0
   -1.0504   -3.0225    6.2865 H   0  0  0  0  0  0  0  0  0  0  0  0
    1.4376   -0.6626    7.6922 H   0  0  0  0  0  0  0  0  0  0  0  0
    3.6796    0.2791    7.9571 H   0  0  0  0  0  0  0  0  0  0  0  0
    4.4413    2.1195    6.5047 H   0  0  0  0  0  0  0  0  0  0  0  0
    2.9337    3.0185    4.7628 H   0  0  0  0  0  0  0  0  0  0  0  0
    0.6749    2.1069    4.4998 H   0  0  0  0  0  0  0  0  0  0  0  0
   -2.2831   -1.1720    7.2581 H   0  0  0  0  0  0  0  0  0  0  0  0
   -0.5942   -1.3643    7.7555 H   0  0  0  0  0  0  0  0  0  0  0  0
   -1.7117   -0.0107    9.4439 H   0  0  0  0  0  0  0  0  0  0  0  0
   -2.3630    1.0944    8.2338 H   0  0  0  0  0  0  0  0  0  0  0  0
   -0.6343    1.0696    8.5503 H   0  0  0  0  0  0  0  0  0  0  0  0
   -1.7948    2.9082    6.0923 Br  0  0  0  0  0  0  0  0  0  0  0  0
   -2.7112   -0.0224    3.0491 P   0  0  0  0  0  4  0  0  0  0  0  0
   -3.2394   -1.5567    3.8945 C   0  0  0  0  0  0  0  0  0  0  0  0
   -4.3785    0.6638    2.7414 C   0  0  0  0  0  0  0  0  0  0  0  0
   -2.1426   -0.6375    1.4076 C   0  0  0  0  0  0  0  0  0  0  0  0
   -3.9270   -1.3711    5.0924 C   0  0  0  0  0  0  0  0  0  0  0  0
   -2.9911   -2.8482    3.4502 C   0  0  0  0  0  0  0  0  0  0  0  0
   -5.2363    0.1478    1.7764 C   0  0  0  0  0  0  0  0  0  0  0  0
   -4.8212    1.6919    3.5682 C   0  0  0  0  0  0  0  0  0  0  0  0
   -1.9608    0.4478    0.3544 C   0  0  0  0  0  0  0  0  0  0  0  0
   -1.2007   -1.1712    1.5702 H   0  0  0  0  0  0  0  0  0  0  0  0
   -2.8896   -1.3645    1.0730 H   0  0  0  0  0  0  0  0  0  0  0  0
   -4.3803   -2.4528    5.8214 C   0  0  0  0  0  0  0  0  0  0  0  0
   -4.1140   -0.3624    5.4471 H   0  0  0  0  0  0  0  0  0  0  0  0
   -3.4445   -3.9314    4.1836 C   0  0  0  0  0  0  0  0  0  0  0  0
   -2.4358   -3.0228    2.5411 H   0  0  0  0  0  0  0  0  0  0  0  0
   -6.5054    0.6765    1.6290 C   0  0  0  0  0  0  0  0  0  0  0  0
   -4.9214   -0.6625    1.1355 H   0  0  0  0  0  0  0  0  0  0  0  0
   -6.0924    2.2141    3.4226 C   0  0  0  0  0  0  0  0  0  0  0  0
   -4.1600    2.1064    4.3286 H   0  0  0  0  0  0  0  0  0  0  0  0
   -1.7755   -0.0100   -0.6159 H   0  0  0  0  0  0  0  0  0  0  0  0
   -1.1211    1.0940    0.5935 H   0  0  0  0  0  0  0  0  0  0  0  0
   -2.8504    1.0709    0.2800 H   0  0  0  0  0  0  0  0  0  0  0  0
   -4.1401   -3.7392    5.3644 C   0  0  0  0  0  0  0  0  0  0  0  0
   -4.9203   -2.2955    6.7441 H   0  0  0  0  0  0  0  0  0  0  0  0
   -3.2489   -4.9326    3.8285 H   0  0  0  0  0  0  0  0  0  0  0  0
   -6.9346    1.7091    2.4470 C   0  0  0  0  0  0  0  0  0  0  0  0
   -7.1633    0.2791    0.8698 H   0  0  0  0  0  0  0  0  0  0  0  0
   -6.4188    3.0178    4.0651 H   0  0  0  0  0  0  0  0  0  0  0  0
   -4.4919   -4.5888    5.9304 H   0  0  0  0  0  0  0  0  0  0  0  0
   -7.9258    2.1190    2.3224 H   0  0  0  0  0  0  0  0  0  0  0  0
  1  3  1  0  0  0  0
  1 33  1  0  0  0  0
  2  1  1  0  0  0  0
  3 10  1  0  0  0  0
  3 16  1  0  0  0  0
  4  9  1  0  0  0  0
  4  3  1  0  0  0  0
  5  4  2  0  0  0  0
  6  7  2  0  0  0  0
  6  5  1  0  0  0  0
  7  8  1  0  0  0  0
  8 21  1  0  0  0  0
  8  9  2  0  0  0  0
  9 22  1  0  0  0  0
 10 11  1  0  0  0  0
 11 12  2  0  0  0  0
 11 23  1  0  0  0  0
 12 24  1  0  0  0  0
 13 25  1  0  0  0  0
 13 12  1  0  0  0  0
 14 13  2  0  0  0  0
 15 14  1  0  0  0  0
 15 10  2  0  0  0  0
 16 29  1  0  0  0  0
 16 17  1  0  0  0  0
 17 32  1  0  0  0  0
 17 30  1  0  0  0  0
 18  5  1  0  0  0  0
 19  6  1  0  0  0  0
 20  7  1  0  0  0  0
 26 14  1  0  0  0  0
 27 15  1  0  0  0  0
 28 16  1  0  0  0  0
 31 17  1  0  0  0  0
 34 35  1  0  0  0  0
 34  1  1  0  0  0  0
 35 38  1  0  0  0  0
 36 34  1  0  0  0  0
 36 41  1  0  0  0  0
 37 43  1  0  0  0  0
 37 34  1  0  0  0  0
 38 46  1  0  0  0  0
 38 45  2  0  0  0  0
 39 35  2  0  0  0  0
 39 47  1  0  0  0  0
 40 36  2  0  0  0  0
 41 52  1  0  0  0  0
 42 54  1  0  0  0  0
 42 37  1  0  0  0  0
 44 37  1  0  0  0  0
 45 57  1  0  0  0  0
 47 56  2  0  0  0  0
 48 39  1  0  0  0  0
 49 40  1  0  0  0  0
 49 59  2  0  0  0  0
 50 40  1  0  0  0  0
 51 41  2  0  0  0  0
 51 61  1  0  0  0  0
 53 42  1  0  0  0  0
 55 42  1  0  0  0  0
 56 45  1  0  0  0  0
 56 62  1  0  0  0  0
 58 47  1  0  0  0  0
 59 51  1  0  0  0  0
 60 49  1  0  0  0  0
 63 59  1  0  0  0  0
M  END
$$$$
