CSD_code = KOMKIJ | q = 0 | S = 0 | Stoichiometry = C16H14Cl2HgN4O2S | MND = 4
 OpenBabel04212202063D

 40 42  0  0  1  0  0  0  0  0999 V2000
    0.5292    8.9249    4.3881 Hg  0  0  0  0  0  0  0  0  0  0  0  0
   -0.9573   10.4269    5.1836 Cl  0  0  0  0  0  0  0  0  0  0  0  0
    2.4400    8.2801    3.2486 Cl  0  0  0  0  0  0  0  0  0  0  0  0
   -0.4110    4.7003    0.6465 S   0  0  0  0  0  0  0  0  0  0  0  0
   -3.2320    5.2779    1.6173 O   0  0  0  0  0  0  0  0  0  0  0  0
   -3.0705    7.4115    0.9203 O   0  0  0  0  0  0  0  0  0  0  0  0
    1.0974    7.0943    6.1054 N   0  0  0  0  0  0  0  0  0  0  0  0
   -0.4105    6.8357    3.7945 N   0  0  0  0  0  0  0  0  0  0  0  0
   -0.8066    6.5662    2.5493 N   0  0  0  0  0  0  0  0  0  0  0  0
    0.5961    4.9939    3.1793 N   0  0  0  0  0  0  0  0  0  0  0  0
   -1.5949    5.8874   -0.0467 C   0  0  0  0  0  0  0  0  0  0  0  0
   -1.0844    6.8196   -0.2810 H   0  0  0  0  0  0  0  0  0  0  0  0
   -1.9839    5.4242   -0.9535 H   0  0  0  0  0  0  0  0  0  0  0  0
   -2.7208    6.1361    0.9505 C   0  0  0  0  0  0  0  0  0  0  0  0
   -4.0210    7.8460    1.8881 C   0  0  0  0  0  0  0  0  0  0  0  0
   -4.7572    7.0625    2.0753 H   0  0  0  0  0  0  0  0  0  0  0  0
   -4.4947    8.7362    1.4818 H   0  0  0  0  0  0  0  0  0  0  0  0
   -3.4963    8.0850    2.8154 H   0  0  0  0  0  0  0  0  0  0  0  0
    1.5991    7.1689    7.3268 C   0  0  0  0  0  0  0  0  0  0  0  0
    1.6258    8.1572    7.7651 H   0  0  0  0  0  0  0  0  0  0  0  0
    2.0692    6.0634    8.0207 C   0  0  0  0  0  0  0  0  0  0  0  0
    2.4777    6.1769    9.0118 H   0  0  0  0  0  0  0  0  0  0  0  0
    1.9965    4.8213    7.4110 C   0  0  0  0  0  0  0  0  0  0  0  0
    2.3425    3.9340    7.9197 H   0  0  0  0  0  0  0  0  0  0  0  0
    1.4657    4.7304    6.1360 C   0  0  0  0  0  0  0  0  0  0  0  0
    1.3761    3.7765    5.6411 H   0  0  0  0  0  0  0  0  0  0  0  0
    1.0336    5.8970    5.5078 C   0  0  0  0  0  0  0  0  0  0  0  0
    0.4368    5.9026    4.1838 C   0  0  2  0  0  3  0  0  0  0  0  0
   -0.2054    5.4632    2.1770 C   0  0  0  0  0  0  0  0  0  0  0  0
    1.5435    3.9503    3.0761 C   0  0  0  0  0  0  0  0  0  0  0  0
    2.8869    4.2469    3.2729 C   0  0  0  0  0  0  0  0  0  0  0  0
    3.1818    5.2620    3.4947 H   0  0  0  0  0  0  0  0  0  0  0  0
    3.8213    3.2341    3.1584 C   0  0  0  0  0  0  0  0  0  0  0  0
    4.8669    3.4558    3.3057 H   0  0  0  0  0  0  0  0  0  0  0  0
    3.4183    1.9453    2.8454 C   0  0  0  0  0  0  0  0  0  0  0  0
    4.1526    1.1595    2.7548 H   0  0  0  0  0  0  0  0  0  0  0  0
    2.0779    1.6639    2.6394 C   0  0  0  0  0  0  0  0  0  0  0  0
    1.7658    0.6619    2.3888 H   0  0  0  0  0  0  0  0  0  0  0  0
    1.1299    2.6661    2.7524 C   0  0  0  0  0  0  0  0  0  0  0  0
    0.0825    2.4602    2.5942 H   0  0  0  0  0  0  0  0  0  0  0  0
  1  2  1  0  0  0  0
  3  1  1  0  0  0  0
  4 29  1  0  0  0  0
  6 14  1  0  0  0  0
  6 15  1  0  0  0  0
  7 19  1  0  0  0  0
  8 28  1  0  0  0  0
  8  1  1  0  0  0  0
  9  8  1  0  0  0  0
 10 28  1  0  0  0  0
 11  4  1  0  0  0  0
 11 14  1  0  0  0  0
 12 11  1  0  0  0  0
 13 11  1  0  0  0  0
 14  5  2  0  0  0  0
 15 16  1  0  0  0  0
 15 18  1  0  0  0  0
 17 15  1  0  0  0  0
 19 20  1  0  0  0  0
 19 21  2  0  0  0  0
 21 22  1  0  0  0  0
 23 24  1  0  0  0  0
 23 21  1  0  0  0  0
 25 23  2  0  0  0  0
 26 25  1  0  0  0  0
 27  7  2  0  0  0  0
 27 25  1  0  0  0  0
 28 27  1  1  0  0  0
 29  9  2  0  0  0  0
 29 10  1  0  0  0  0
 30 10  1  0  0  0  0
 30 31  1  0  0  0  0
 31 32  1  0  0  0  0
 33 31  2  0  0  0  0
 33 34  1  0  0  0  0
 35 33  1  0  0  0  0
 36 35  1  0  0  0  0
 37 39  1  0  0  0  0
 37 35  2  0  0  0  0
 38 37  1  0  0  0  0
 39 30  2  0  0  0  0
 40 39  1  0  0  0  0
M  END
$$$$
