CSD_code = KOMKAY | q = 1 | S = 0 | Stoichiometry = C12H23ClN5Zn(1+) | MND = 5
 OpenBabel04212202063D

 42 46  0  0  1  0  0  0  0  0999 V2000
   12.1806    2.0356    1.6077 Zn  0  0  0  0  0  0  0  0  0  0  0  0
   11.8090    3.8788    0.5011 N   0  0  2  0  0  4  0  0  0  0  0  0
   11.5944    3.4264   -0.8715 C   0  0  2  0  0  0  0  0  0  0  0  0
   10.1566    2.8869   -1.0026 C   0  0  0  0  0  0  0  0  0  0  0  0
    9.8475    1.5992   -0.2301 C   0  0  0  0  0  0  0  0  0  0  0  0
   10.1484    1.6561    1.2087 N   0  0  2  0  0  4  0  0  0  0  0  0
    9.1775    2.4357    1.9925 C   0  0  0  0  0  0  0  0  0  0  0  0
    9.6402    2.6389    3.4379 C   0  0  0  0  0  0  0  0  0  0  0  0
   10.6532    3.7700    3.6334 C   0  0  0  0  0  0  0  0  0  0  0  0
   12.0187    3.3663    3.2645 N   0  0  2  0  0  4  0  0  0  0  0  0
   12.9822    4.4793    3.2606 C   0  0  0  0  0  0  0  0  0  0  0  0
   12.8213    5.4453    2.0841 C   0  0  0  0  0  0  0  0  0  0  0  0
   12.9295    4.7980    0.7057 C   0  0  0  0  0  0  0  0  0  0  0  0
   13.1171    1.6241   -0.1663 N   0  0  0  0  0  0  0  0  0  0  0  0
   13.9698    0.7780   -0.6949 C   0  0  0  0  0  3  0  0  0  0  0  0
   14.0389    0.9549   -2.0212 N   0  0  0  0  0  0  0  0  0  0  0  0
   13.1872    1.9684   -2.3550 C   0  0  0  0  0  0  0  0  0  0  0  0
   12.6139    2.3786   -1.1853 C   0  0  0  0  0  0  0  0  0  0  0  0
   12.7097    0.3013    2.8089 Cl  0  0  0  0  0  0  0  0  0  0  0  0
   10.9698    4.3703    0.7943 H   0  0  0  0  0  0  0  0  0  0  0  0
   11.7077    4.2590   -1.5855 H   0  0  0  0  0  0  0  0  0  0  0  0
    9.4681    3.6788   -0.7013 H   0  0  0  0  0  0  0  0  0  0  0  0
    9.9632    2.6802   -2.0561 H   0  0  0  0  0  0  0  0  0  0  0  0
    8.7874    1.3611   -0.3899 H   0  0  0  0  0  0  0  0  0  0  0  0
   10.4415    0.7851   -0.6514 H   0  0  0  0  0  0  0  0  0  0  0  0
   10.0828    0.6988    1.5566 H   0  0  0  0  0  0  0  0  0  0  0  0
    8.2061    1.9256    1.9941 H   0  0  0  0  0  0  0  0  0  0  0  0
    9.0345    3.4080    1.5163 H   0  0  0  0  0  0  0  0  0  0  0  0
    8.7610    2.8745    4.0385 H   0  0  0  0  0  0  0  0  0  0  0  0
   10.0603    1.7060    3.8185 H   0  0  0  0  0  0  0  0  0  0  0  0
   10.3576    4.6273    3.0253 H   0  0  0  0  0  0  0  0  0  0  0  0
   10.6328    4.0904    4.6824 H   0  0  0  0  0  0  0  0  0  0  0  0
   12.3258    2.7203    3.9926 H   0  0  0  0  0  0  0  0  0  0  0  0
   12.9013    5.0558    4.1915 H   0  0  0  0  0  0  0  0  0  0  0  0
   13.9815    4.0386    3.2180 H   0  0  0  0  0  0  0  0  0  0  0  0
   11.8674    5.9724    2.1573 H   0  0  0  0  0  0  0  0  0  0  0  0
   13.6065    6.1968    2.1742 H   0  0  0  0  0  0  0  0  0  0  0  0
   13.8672    4.2432    0.6208 H   0  0  0  0  0  0  0  0  0  0  0  0
   12.9296    5.5869   -0.0604 H   0  0  0  0  0  0  0  0  0  0  0  0
   14.5270    0.0489   -0.1413 H   0  0  0  0  0  0  0  0  0  0  0  0
   14.6199    0.4393   -2.6650 H   0  0  0  0  0  0  0  0  0  0  0  0
   13.0592    2.3072   -3.3618 H   0  0  0  0  0  0  0  0  0  0  0  0
  1 19  1  0  0  0  0
  1 10  1  0  0  0  0
  2 13  1  0  0  0  0
  2 20  1  1  0  0  0
  2  1  1  0  0  0  0
  3 21  1  6  0  0  0
  3  2  1  0  0  0  0
  4  3  1  0  0  0  0
  4 22  1  0  0  0  0
  4  5  1  0  0  0  0
  5  6  1  0  0  0  0
  6 26  1  1  0  0  0
  6  1  1  0  0  0  0
  6  7  1  0  0  0  0
  7 27  1  0  0  0  0
  7  8  1  0  0  0  0
  8  9  1  0  0  0  0
  8 30  1  0  0  0  0
  8 29  1  0  0  0  0
  9 32  1  0  0  0  0
 10  9  1  0  0  0  0
 10 33  1  1  0  0  0
 11 10  1  0  0  0  0
 11 34  1  0  0  0  0
 12 36  1  0  0  0  0
 12 37  1  0  0  0  0
 12 11  1  0  0  0  0
 13 12  1  0  0  0  0
 14  1  1  0  0  0  0
 15 14  1  0  0  0  0
 15 40  1  0  0  0  0
 16 15  1  0  0  0  0
 17 16  1  0  0  0  0
 17 18  2  0  0  0  0
 18  3  1  0  0  0  0
 18 14  1  0  0  0  0
 23  4  1  0  0  0  0
 24  5  1  0  0  0  0
 25  5  1  0  0  0  0
 28  7  1  0  0  0  0
 31  9  1  0  0  0  0
 35 11  1  0  0  0  0
 38 13  1  0  0  0  0
 39 13  1  0  0  0  0
 41 16  1  0  0  0  0
 42 17  1  0  0  0  0
M  END
$$$$
