CSD_code = KOMNEF | q = 0 | S = 0 | Stoichiometry = C9H27Cl3P3Tc | MND = 6
 OpenBabel04212202063D

 43 42  0  0  0  0  0  0  0  0999 V2000
    3.5799    3.4831    6.7909 Tc  0  0  0  0  0  0  0  0  0  0  0  0
    5.1560    3.4839    5.1589 Cl  0  0  0  0  0  0  0  0  0  0  0  0
    5.0894    3.4836    8.5787 Cl  0  0  0  0  0  0  0  0  0  0  0  0
    1.6429    3.4836    5.5494 Cl  0  0  0  0  0  0  0  0  0  0  0  0
    2.1723    3.4836    8.7694 P   0  0  0  0  0  4  0  0  0  0  0  0
    3.6260    5.8641    6.5792 P   0  0  0  0  0  4  0  0  0  0  0  0
    0.3567    3.4835    8.5324 C   0  0  0  0  0  0  0  0  0  0  0  0
    2.3731    4.8639    9.9607 C   0  0  0  0  0  0  0  0  0  0  0  0
    2.0193    6.7459    6.6267 C   0  0  0  0  0  0  0  0  0  0  0  0
    4.2433    6.4811    4.9738 C   0  0  0  0  0  0  0  0  0  0  0  0
    4.6638    6.8369    7.7286 C   0  0  0  0  0  0  0  0  0  0  0  0
   -0.1579    3.4835    9.4926 H   0  0  0  0  0  0  0  0  0  0  0  0
    0.0749    2.6045    7.9564 H   0  0  0  0  0  0  0  0  0  0  0  0
    1.7164    4.7089   10.8164 H   0  0  0  0  0  0  0  0  0  0  0  0
    2.1345    5.8140    9.4894 H   0  0  0  0  0  0  0  0  0  0  0  0
    3.4107    4.8724   10.2895 H   0  0  0  0  0  0  0  0  0  0  0  0
    2.1702    7.8118    6.4602 H   0  0  0  0  0  0  0  0  0  0  0  0
    1.5201    6.5928    7.5800 H   0  0  0  0  0  0  0  0  0  0  0  0
    1.3902    6.3354    5.8385 H   0  0  0  0  0  0  0  0  0  0  0  0
    4.1287    7.5642    4.9237 H   0  0  0  0  0  0  0  0  0  0  0  0
    3.6733    6.0115    4.1724 H   0  0  0  0  0  0  0  0  0  0  0  0
    5.2918    6.2134    4.8593 H   0  0  0  0  0  0  0  0  0  0  0  0
    4.6358    7.8936    7.4648 H   0  0  0  0  0  0  0  0  0  0  0  0
    5.6847    6.4648    7.6534 H   0  0  0  0  0  0  0  0  0  0  0  0
    4.3262    6.6974    8.7522 H   0  0  0  0  0  0  0  0  0  0  0  0
    3.6259    1.1028    6.5794 P   0  0  0  0  0  4  0  0  0  0  0  0
    2.3731    2.1032    9.9607 C   0  0  0  0  0  0  0  0  0  0  0  0
    0.0749    4.3624    7.9564 H   0  0  0  0  0  0  0  0  0  0  0  0
    2.0192    0.2209    6.6268 C   0  0  0  0  0  0  0  0  0  0  0  0
    4.2434    0.4862    4.9739 C   0  0  0  0  0  0  0  0  0  0  0  0
    4.6636    0.1299    7.7288 C   0  0  0  0  0  0  0  0  0  0  0  0
    1.7164    2.2581   10.8164 H   0  0  0  0  0  0  0  0  0  0  0  0
    2.1345    1.1530    9.4894 H   0  0  0  0  0  0  0  0  0  0  0  0
    3.4107    2.0946   10.2895 H   0  0  0  0  0  0  0  0  0  0  0  0
    2.1701   -0.8450    6.4602 H   0  0  0  0  0  0  0  0  0  0  0  0
    1.5199    0.3738    7.5802 H   0  0  0  0  0  0  0  0  0  0  0  0
    1.3900    0.6314    5.8386 H   0  0  0  0  0  0  0  0  0  0  0  0
    4.1289   -0.5969    4.9236 H   0  0  0  0  0  0  0  0  0  0  0  0
    3.6733    0.9559    4.1726 H   0  0  0  0  0  0  0  0  0  0  0  0
    5.2918    0.7542    4.8595 H   0  0  0  0  0  0  0  0  0  0  0  0
    4.6356   -0.9268    7.4649 H   0  0  0  0  0  0  0  0  0  0  0  0
    5.6845    0.5020    7.6536 H   0  0  0  0  0  0  0  0  0  0  0  0
    4.3261    0.2692    8.7524 H   0  0  0  0  0  0  0  0  0  0  0  0
  1  3  1  0  0  0  0
  1  5  1  0  0  0  0
  2  1  1  0  0  0  0
  4  1  1  0  0  0  0
  5 27  1  0  0  0  0
  5  8  1  0  0  0  0
  6  9  1  0  0  0  0
  6  1  1  0  0  0  0
  6 11  1  0  0  0  0
  7  5  1  0  0  0  0
  7 12  1  0  0  0  0
  8 16  1  0  0  0  0
  8 14  1  0  0  0  0
  9 18  1  0  0  0  0
 10  6  1  0  0  0  0
 11 25  1  0  0  0  0
 13  7  1  0  0  0  0
 15  8  1  0  0  0  0
 17  9  1  0  0  0  0
 19  9  1  0  0  0  0
 20 10  1  0  0  0  0
 21 10  1  0  0  0  0
 22 10  1  0  0  0  0
 23 11  1  0  0  0  0
 24 11  1  0  0  0  0
 26 29  1  0  0  0  0
 26  1  1  0  0  0  0
 26 31  1  0  0  0  0
 27 34  1  0  0  0  0
 27 32  1  0  0  0  0
 28  7  1  0  0  0  0
 29 36  1  0  0  0  0
 30 26  1  0  0  0  0
 31 43  1  0  0  0  0
 33 27  1  0  0  0  0
 35 29  1  0  0  0  0
 37 29  1  0  0  0  0
 38 30  1  0  0  0  0
 39 30  1  0  0  0  0
 40 30  1  0  0  0  0
 41 31  1  0  0  0  0
 42 31  1  0  0  0  0
M  END
$$$$
