CSD_code = KOPQIR | q = 0 | S = 0 | Stoichiometry = C24H29ClIrN | MND = 8
 OpenBabel04212202063D

 56 59  0  0  1  0  0  0  0  0999 V2000
    8.8363    8.9187   10.8043 C   0  0  0  0  0  0  0  0  0  0  0  0
    7.8664    9.7706   10.3511 C   0  0  0  0  0  0  0  0  0  0  0  0
    6.9975    9.9912   10.9535 H   0  0  0  0  0  0  0  0  0  0  0  0
    7.9663   10.4065    9.0930 C   0  0  0  0  0  0  0  0  0  0  0  0
    6.9563   11.2676    8.6165 C   0  0  0  0  0  0  0  0  0  0  0  0
    6.0859   11.4365    9.2345 H   0  0  0  0  0  0  0  0  0  0  0  0
    7.0724   11.8819    7.4011 C   0  0  0  0  0  0  0  0  0  0  0  0
    6.2937   12.5421    7.0474 H   0  0  0  0  0  0  0  0  0  0  0  0
    8.2052   11.6644    6.5994 C   0  0  0  0  0  0  0  0  0  0  0  0
    8.2797   12.1592    5.6421 H   0  0  0  0  0  0  0  0  0  0  0  0
    9.2029   10.8373    7.0300 C   0  0  0  0  0  0  0  0  0  0  0  0
   10.0784   10.6662    6.4197 H   0  0  0  0  0  0  0  0  0  0  0  0
    9.1144   10.1872    8.2811 C   0  0  0  0  0  0  0  0  0  0  0  0
   10.1256    9.3388    8.7564 C   0  0  0  0  0  0  0  0  0  0  0  0
   11.0151    9.1847    8.1610 H   0  0  0  0  0  0  0  0  0  0  0  0
    9.9903    8.7168    9.9804 C   0  0  0  0  0  0  0  0  0  0  0  0
   10.9520    7.8373   10.5691 C   0  0  0  0  0  3  0  0  0  0  0  0
   11.8916    7.6013   10.0761 H   0  0  0  0  0  0  0  0  0  0  0  0
   11.5811    6.4518   12.3773 C   0  0  0  0  0  0  0  0  0  0  0  0
   12.3526    6.1239   11.6687 H   0  0  0  0  0  0  0  0  0  0  0  0
   11.0379    5.5719   12.7312 H   0  0  0  0  0  0  0  0  0  0  0  0
   12.2507    7.1447   13.5710 C   0  0  0  0  0  0  0  0  0  0  0  0
   12.7972    6.3910   14.1420 H   0  0  0  0  0  0  0  0  0  0  0  0
   11.4775    7.5745   14.2091 H   0  0  0  0  0  0  0  0  0  0  0  0
   13.1926    8.2548   13.1275 C   0  0  0  0  0  0  0  0  0  0  0  0
   13.9552    7.8724   12.4509 H   0  0  0  0  0  0  0  0  0  0  0  0
   13.6854    8.6927   13.9912 H   0  0  0  0  0  0  0  0  0  0  0  0
   12.6315    9.0398   12.6271 H   0  0  0  0  0  0  0  0  0  0  0  0
    7.9576    7.4700   14.6741 C   0  0  0  0  0  0  0  0  0  0  0  0
    8.3336    6.2407   14.1330 C   0  0  0  0  0  0  0  0  0  0  0  0
    7.6757    6.0994   12.8508 C   0  0  2  0  0  0  0  0  0  0  0  0
    6.7869    7.2085   12.6836 C   0  0  2  0  0  3  0  0  0  0  0  0
    7.0447    8.1193   13.7488 C   0  0  1  0  0  0  0  0  0  0  0  0
    8.3396    8.0363   16.0012 C   0  0  0  0  0  0  0  0  0  0  0  0
    7.4499    8.1872   16.6139 H   0  0  0  0  0  0  0  0  0  0  0  0
    8.8281    9.0029   15.8746 H   0  0  0  0  0  0  0  0  0  0  0  0
    9.0186    7.3717   16.5298 H   0  0  0  0  0  0  0  0  0  0  0  0
    9.1482    5.1868   14.8161 C   0  0  0  0  0  0  0  0  0  0  0  0
   10.0310    5.6093   15.2942 H   0  0  0  0  0  0  0  0  0  0  0  0
    9.4686    4.4191   14.1150 H   0  0  0  0  0  0  0  0  0  0  0  0
    8.5485    4.7007   15.5886 H   0  0  0  0  0  0  0  0  0  0  0  0
    7.6343    4.8429   12.0381 C   0  0  0  0  0  0  0  0  0  0  0  0
    6.9114    4.1453   12.4667 H   0  0  0  0  0  0  0  0  0  0  0  0
    8.6043    4.3490   12.0143 H   0  0  0  0  0  0  0  0  0  0  0  0
    7.3356    5.0557   11.0142 H   0  0  0  0  0  0  0  0  0  0  0  0
    5.7057    7.2976   11.6523 C   0  0  0  0  0  0  0  0  0  0  0  0
    6.0776    7.0495   10.6600 H   0  0  0  0  0  0  0  0  0  0  0  0
    5.2805    8.2963   11.6157 H   0  0  0  0  0  0  0  0  0  0  0  0
    4.9076    6.5964   11.9030 H   0  0  0  0  0  0  0  0  0  0  0  0
    6.2601    9.3458   14.1002 C   0  0  0  0  0  0  0  0  0  0  0  0
    5.5165    9.1090   14.8641 H   0  0  0  0  0  0  0  0  0  0  0  0
    5.7433    9.7471   13.2320 H   0  0  0  0  0  0  0  0  0  0  0  0
    6.9186   10.1180   14.4930 H   0  0  0  0  0  0  0  0  0  0  0  0
    9.9732    9.8756   13.3526 Cl  0  0  0  0  0 15  0  0  0  0  0  0
   10.6443    7.3286   11.7163 N   0  0  0  0  0  0  0  0  0  0  0  0
    8.9023    7.9424   12.5789 Ir  0  0  2  0  0  0  0  0  0  0  0  0
  2  1  1  0  0  0  0
  2  3  1  0  0  0  0
  4  2  2  0  0  0  0
  5  4  1  0  0  0  0
  5  6  1  0  0  0  0
  7  5  2  0  0  0  0
  8  7  1  0  0  0  0
  9 11  2  0  0  0  0
  9  7  1  0  0  0  0
 10  9  1  0  0  0  0
 11 13  1  0  0  0  0
 12 11  1  0  0  0  0
 13 14  2  0  0  0  0
 13  4  1  0  0  0  0
 14 16  1  0  0  0  0
 15 14  1  0  0  0  0
 16 17  1  0  0  0  0
 16  1  2  0  0  0  0
 17 55  1  0  0  0  0
 18 17  1  0  0  0  0
 19 21  1  0  0  0  0
 19 22  1  0  0  0  0
 20 19  1  0  0  0  0
 22 23  1  0  0  0  0
 22 24  1  0  0  0  0
 25 22  1  0  0  0  0
 25 27  1  0  0  0  0
 26 25  1  0  0  0  0
 28 25  1  0  0  0  0
 29 34  1  0  0  0  0
 30 29  2  0  0  0  0
 30 38  1  0  0  0  0
 31 42  1  6  0  0  0
 31 30  1  0  0  0  0
 32 46  1  1  0  0  0
 32 31  1  0  0  0  0
 32 33  1  0  0  0  0
 33 50  1  1  0  0  0
 33 29  1  0  0  0  0
 34 37  1  0  0  0  0
 34 35  1  0  0  0  0
 36 34  1  0  0  0  0
 38 39  1  0  0  0  0
 38 41  1  0  0  0  0
 40 38  1  0  0  0  0
 42 43  1  0  0  0  0
 44 42  1  0  0  0  0
 45 42  1  0  0  0  0
 46 49  1  0  0  0  0
 47 46  1  0  0  0  0
 48 46  1  0  0  0  0
 50 53  1  0  0  0  0
 50 51  1  0  0  0  0
 52 50  1  0  0  0  0
 55 19  1  0  0  0  0
 55 56  1  0  0  0  0
 56  1  1  6  0  0  0
 56 31  1  0  0  0  0
 56 33  1  0  0  0  0
M  END
$$$$
