CSD_code = KOPRAL | q = 0 | S = 0 | Stoichiometry = C13H21Cl2N3O2RuS2 | MND = 6
 OpenBabel04212202063D

 44 46  0  0  1  0  0  0  0  0999 V2000
    5.2448   10.2196   10.7815 Ru  0  0  0  0  0  0  0  0  0  0  0  0
    7.1667    9.0310   10.1697 Cl  0  0  0  0  0  0  0  0  0  0  0  0
    6.5752   11.5637   12.1857 Cl  0  0  0  0  0  0  0  0  0  0  0  0
    5.6974   11.5415    9.0074 S   0  0  0  0  0  0  0  0  0  0  0  0
    4.9700    8.9249   12.6292 S   0  0  0  0  0  0  0  0  0  0  0  0
    4.7081   12.5876    8.7718 O   0  0  0  0  0  1  0  0  0  0  0  0
    3.9899    7.8576   12.4792 O   0  0  0  0  0  1  0  0  0  0  0  0
    4.0138    8.9570    9.8118 N   0  0  0  0  0  0  0  0  0  0  0  0
    3.0212   12.3339   11.5200 N   0  0  0  0  0  0  0  0  0  0  0  0
    3.4809   11.1747   11.0900 N   0  0  1  0  0  0  0  0  0  0  0  0
    4.3682    7.8393    9.1920 C   0  0  0  0  0  3  0  0  0  0  0  0
    5.4298    7.7066    9.0259 H   0  0  0  0  0  0  0  0  0  0  0  0
    3.4520    6.8840    8.7918 C   0  0  0  0  0  0  0  0  0  0  0  0
    3.7932    5.9890    8.2975 H   0  0  0  0  0  0  0  0  0  0  0  0
    2.1049    7.0938    9.0513 C   0  0  0  0  0  0  0  0  0  0  0  0
    1.3659    6.3618    8.7639 H   0  0  0  0  0  0  0  0  0  0  0  0
    1.7289    8.2572    9.6946 C   0  0  0  0  0  0  0  0  0  0  0  0
    0.6965    8.4612    9.9280 H   0  0  0  0  0  0  0  0  0  0  0  0
    2.7091    9.1719   10.0676 C   0  0  0  0  0  0  0  0  0  0  0  0
    2.4311   10.4377   10.7043 C   0  0  2  0  0  3  0  0  0  0  0  0
    1.2512   11.1664   10.9276 C   0  0  0  0  0  0  0  0  0  0  0  0
    0.2448   10.8594   10.7345 H   0  0  0  0  0  0  0  0  0  0  0  0
    1.6777   12.3697   11.4392 C   0  0  0  0  0  0  0  0  0  0  0  0
    1.1180   13.2319   11.7405 H   0  0  0  0  0  0  0  0  0  0  0  0
    3.8910   13.4211   11.8622 C   0  0  0  0  0  0  0  0  0  0  0  0
    4.1883   13.9424   10.9487 H   0  0  0  0  0  0  0  0  0  0  0  0
    4.7934   13.0283   12.3372 H   0  0  0  0  0  0  0  0  0  0  0  0
    3.3757   14.1070   12.5306 H   0  0  0  0  0  0  0  0  0  0  0  0
    5.9031   10.6380    7.4428 C   0  0  0  0  0  0  0  0  0  0  0  0
    6.1992   11.3341    6.6672 H   0  0  0  0  0  0  0  0  0  0  0  0
    4.9486   10.1827    7.1984 H   0  0  0  0  0  0  0  0  0  0  0  0
    6.6589    9.8792    7.6142 H   0  0  0  0  0  0  0  0  0  0  0  0
    7.3297   12.3260    9.0572 C   0  0  0  0  0  0  0  0  0  0  0  0
    7.4654   12.9168    8.1595 H   0  0  0  0  0  0  0  0  0  0  0  0
    8.0596   11.5273    9.1388 H   0  0  0  0  0  0  0  0  0  0  0  0
    7.3642   12.9517    9.9441 H   0  0  0  0  0  0  0  0  0  0  0  0
    6.4919    8.2001   13.2926 C   0  0  0  0  0  0  0  0  0  0  0  0
    6.2489    7.6166   14.1723 H   0  0  0  0  0  0  0  0  0  0  0  0
    7.1647    9.0213   13.5168 H   0  0  0  0  0  0  0  0  0  0  0  0
    6.9181    7.5723   12.5160 H   0  0  0  0  0  0  0  0  0  0  0  0
    4.4758    9.8672   14.1086 C   0  0  0  0  0  0  0  0  0  0  0  0
    4.4573    9.1959   14.9588 H   0  0  0  0  0  0  0  0  0  0  0  0
    3.4827   10.2644   13.9239 H   0  0  0  0  0  0  0  0  0  0  0  0
    5.1947   10.6688   14.2400 H   0  0  0  0  0  0  0  0  0  0  0  0
  1 10  1  0  0  0  0
  1  3  1  0  0  0  0
  1  5  1  0  0  0  0
  2  1  1  0  0  0  0
  4 33  1  0  0  0  0
  4  1  1  0  0  0  0
  5 37  1  0  0  0  0
  5 41  1  0  0  0  0
  6  4  1  0  0  0  0
  7  5  1  0  0  0  0
  8 19  1  0  0  0  0
  8  1  1  0  0  0  0
  9 25  1  0  0  0  0
 10  9  1  6  0  0  0
 11  8  1  0  0  0  0
 12 11  1  0  0  0  0
 13 15  2  0  0  0  0
 13 11  1  0  0  0  0
 14 13  1  0  0  0  0
 15 17  1  0  0  0  0
 16 15  1  0  0  0  0
 17 18  1  0  0  0  0
 17 19  2  0  0  0  0
 20 19  1  6  0  0  0
 20 21  1  0  0  0  0
 20 10  1  0  0  0  0
 21 23  2  0  0  0  0
 22 21  1  0  0  0  0
 23  9  1  0  0  0  0
 23 24  1  0  0  0  0
 25 27  1  0  0  0  0
 25 28  1  0  0  0  0
 26 25  1  0  0  0  0
 29 32  1  0  0  0  0
 29  4  1  0  0  0  0
 30 29  1  0  0  0  0
 31 29  1  0  0  0  0
 33 35  1  0  0  0  0
 33 36  1  0  0  0  0
 34 33  1  0  0  0  0
 37 39  1  0  0  0  0
 37 38  1  0  0  0  0
 40 37  1  0  0  0  0
 41 44  1  0  0  0  0
 41 42  1  0  0  0  0
 43 41  1  0  0  0  0
M  END
$$$$
