CSD_code = KOQWUK | q = 1 | S = 0 | Stoichiometry = C24H18ClN4NiO(1+) | MND = 6
 OpenBabel04212202063D

 49 55  0  0  0  0  0  0  0  0999 V2000
    3.9156    5.6647    3.4301 Ni  0  0  0  0  0  0  0  0  0  0  0  0
    4.5943    4.5723    1.7575 Cl  0  0  0  0  0  0  0  0  0  0  0  0
    5.8539    4.6710    4.5935 O   0  0  0  0  0  0  0  0  0  0  0  0
    2.1765    6.7424    2.2875 N   0  0  0  0  0  0  0  0  0  0  0  0
    2.5740    4.3655    3.5766 N   0  0  0  0  0  0  0  0  0  0  0  0
    5.2026    7.0575    3.1975 N   0  0  0  0  0  0  0  0  0  0  0  0
    3.4307    6.5937    5.1335 N   0  0  0  0  0  0  0  0  0  0  0  0
    2.0200    7.8652    1.6246 C   0  0  0  0  0  0  0  0  0  0  0  0
    2.8092    8.5988    1.7287 H   0  0  0  0  0  0  0  0  0  0  0  0
    0.9072    8.1345    0.8203 C   0  0  0  0  0  0  0  0  0  0  0  0
    0.8393    9.0728    0.2938 H   0  0  0  0  0  0  0  0  0  0  0  0
   -0.0849    7.1901    0.7231 C   0  0  0  0  0  0  0  0  0  0  0  0
   -0.9645    7.3611    0.1205 H   0  0  0  0  0  0  0  0  0  0  0  0
    0.0520    5.9776    1.4210 C   0  0  0  0  0  0  0  0  0  0  0  0
    1.2236    5.7959    2.1879 C   0  0  0  0  0  0  0  0  0  0  0  0
   -0.9301    4.9474    1.3795 C   0  0  0  0  0  0  0  0  0  0  0  0
   -1.8175    5.1112    0.7872 H   0  0  0  0  0  0  0  0  0  0  0  0
   -0.7544    3.7925    2.0641 C   0  0  0  0  0  0  0  0  0  0  0  0
   -1.4992    3.0120    2.0352 H   0  0  0  0  0  0  0  0  0  0  0  0
    1.4254    4.5580    2.8914 C   0  0  0  0  0  0  0  0  0  0  0  0
    0.4241    3.5615    2.8311 C   0  0  0  0  0  0  0  0  0  0  0  0
    0.6445    2.3612    3.5252 C   0  0  0  0  0  0  0  0  0  0  0  0
   -0.0991    1.5796    3.4895 H   0  0  0  0  0  0  0  0  0  0  0  0
    1.8123    2.2012    4.2304 C   0  0  0  0  0  0  0  0  0  0  0  0
    2.0195    1.2937    4.7739 H   0  0  0  0  0  0  0  0  0  0  0  0
    2.7554    3.2291    4.2225 C   0  0  0  0  0  0  0  0  0  0  0  0
    3.6911    3.1104    4.7531 H   0  0  0  0  0  0  0  0  0  0  0  0
    6.0717    7.2686    2.2293 C   0  0  0  0  0  0  0  0  0  0  0  0
    6.0990    6.5412    1.4279 H   0  0  0  0  0  0  0  0  0  0  0  0
    6.9364    8.3681    2.2148 C   0  0  0  0  0  0  0  0  0  0  0  0
    7.6263    8.4824    1.3943 H   0  0  0  0  0  0  0  0  0  0  0  0
    6.8985    9.2774    3.2431 C   0  0  0  0  0  0  0  0  0  0  0  0
    7.5564   10.1331    3.2621 H   0  0  0  0  0  0  0  0  0  0  0  0
    5.9817    9.0775    4.2891 C   0  0  0  0  0  0  0  0  0  0  0  0
    5.1488    7.9417    4.2170 C   0  0  0  0  0  0  0  0  0  0  0  0
    5.8589    9.9561    5.4050 C   0  0  0  0  0  0  0  0  0  0  0  0
    6.5051   10.8196    5.4433 H   0  0  0  0  0  0  0  0  0  0  0  0
    4.9615    9.7183    6.3926 C   0  0  0  0  0  0  0  0  0  0  0  0
    4.8765   10.3870    7.2354 H   0  0  0  0  0  0  0  0  0  0  0  0
    4.2016    7.6931    5.2566 C   0  0  0  0  0  0  0  0  0  0  0  0
    4.1056    8.5799    6.3496 C   0  0  0  0  0  0  0  0  0  0  0  0
    3.1589    8.2802    7.3429 C   0  0  0  0  0  0  0  0  0  0  0  0
    3.0530    8.9302    8.1983 H   0  0  0  0  0  0  0  0  0  0  0  0
    2.3825    7.1551    7.2022 C   0  0  0  0  0  0  0  0  0  0  0  0
    1.6460    6.8905    7.9438 H   0  0  0  0  0  0  0  0  0  0  0  0
    2.5508    6.3389    6.0797 C   0  0  0  0  0  0  0  0  0  0  0  0
    1.9400    5.4529    5.9659 H   0  0  0  0  0  0  0  0  0  0  0  0
    6.2399    4.2838    3.7956 H   0  0  0  0  0  0  0  0  0  0  0  0
    5.8825    3.9981    5.2778 H   0  0  0  0  0  0  0  0  0  0  0  0
  1  5  1  0  0  0  0
  1  7  1  0  0  0  0
  2  1  1  0  0  0  0
  3 49  1  0  0  0  0
  4  1  1  0  0  0  0
  5 26  1  0  0  0  0
  6  1  1  0  0  0  0
  6 35  1  0  0  0  0
  7 40  1  0  0  0  0
  7 46  1  0  0  0  0
  8  9  1  0  0  0  0
  8  4  1  0  0  0  0
 10  8  2  0  0  0  0
 11 10  1  0  0  0  0
 12 10  1  0  0  0  0
 12 14  2  0  0  0  0
 13 12  1  0  0  0  0
 14 15  1  0  0  0  0
 15  4  1  0  0  0  0
 15 20  2  0  0  0  0
 16 14  1  0  0  0  0
 16 18  2  0  0  0  0
 17 16  1  0  0  0  0
 18 21  1  0  0  0  0
 19 18  1  0  0  0  0
 20  5  1  0  0  0  0
 21 20  1  0  0  0  0
 21 22  2  0  0  0  0
 22 24  1  0  0  0  0
 23 22  1  0  0  0  0
 24 25  1  0  0  0  0
 26 24  2  0  0  0  0
 26 27  1  0  0  0  0
 28  6  1  0  0  0  0
 29 28  1  0  0  0  0
 30 28  2  0  0  0  0
 30 32  1  0  0  0  0
 31 30  1  0  0  0  0
 32 33  1  0  0  0  0
 32 34  2  0  0  0  0
 34 36  1  0  0  0  0
 35 34  1  0  0  0  0
 35 40  2  0  0  0  0
 36 37  1  0  0  0  0
 36 38  2  0  0  0  0
 38 39  1  0  0  0  0
 40 41  1  0  0  0  0
 41 38  1  0  0  0  0
 41 42  2  0  0  0  0
 42 43  1  0  0  0  0
 44 42  1  0  0  0  0
 44 45  1  0  0  0  0
 46 44  2  0  0  0  0
 47 46  1  0  0  0  0
 48  3  1  0  0  0  0
M  END
$$$$
