CSD_code = KORREO | q = 0 | S = 0 | Stoichiometry = C9H20ClF6OP2RhSi2 | MND = 4
 OpenBabel04212202063D

 42 41  0  0  0  0  0  0  0  0999 V2000
    0.6075    4.1085    5.9417 Rh  0  0  0  0  0  0  0  0  0  0  0  0
   -0.8168    5.8838    5.7707 P   0  0  0  0  0  4  0  0  0  0  0  0
    2.3341    2.6591    6.2743 P   0  0  0  0  0  4  0  0  0  0  0  0
    2.0699    7.6022    2.8258 Si  0  0  0  0  0  0  0  0  0  0  0  0
    5.3500    5.0062    3.8739 Si  0  0  0  0  0  0  0  0  0  0  0  0
    1.7637    5.4426    7.3100 Cl  0  0  0  0  0  0  0  0  0  0  0  0
   -0.3564    2.9983    4.8611 C   0  0  0  0  0  2  0  0  0  0  0  0
   -0.9683    2.2954    4.1820 O   0  0  0  0  0  1  0  0  0  0  0  0
    0.0760    7.2096    4.8441 C   0  0  0  0  0  0  0  0  0  0  0  0
    0.6380    6.6236    3.5384 C   0  0  0  0  0  0  0  0  0  0  0  0
    3.9523    3.4109    5.7931 C   0  0  0  0  0  0  0  0  0  0  0  0
    3.7605    4.2590    4.5286 C   0  0  0  0  0  0  0  0  0  0  0  0
   -2.3962    5.7713    4.8397 C   0  0  0  0  0  0  0  0  0  0  0  0
   -1.3633    6.7886    7.2637 C   0  0  0  0  0  0  0  0  0  0  0  0
    2.6871    2.1185    7.9867 C   0  0  0  0  0  0  0  0  0  0  0  0
    2.4026    1.0542    5.3832 C   0  0  0  0  0  0  0  0  0  0  0  0
    3.3305    7.6470    3.7844 F   0  0  0  0  0  0  0  0  0  0  0  0
    1.7305    9.1288    2.5502 F   0  0  0  0  0  0  0  0  0  0  0  0
    2.5969    7.0440    1.4389 F   0  0  0  0  0  0  0  0  0  0  0  0
    6.0272    6.1019    4.7945 F   0  0  0  0  0  0  0  0  0  0  0  0
    6.4933    3.9087    3.7142 F   0  0  0  0  0  0  0  0  0  0  0  0
    5.2378    5.6476    2.4286 F   0  0  0  0  0  0  0  0  0  0  0  0
    0.8875    7.5418    5.4968 H   0  0  0  0  0  0  0  0  0  0  0  0
   -0.5786    8.0610    4.6464 H   0  0  0  0  0  0  0  0  0  0  0  0
    0.9713    5.5928    3.7567 H   0  0  0  0  0  0  0  0  0  0  0  0
   -0.1688    6.5271    2.8088 H   0  0  0  0  0  0  0  0  0  0  0  0
    4.6927    2.6222    5.6386 H   0  0  0  0  0  0  0  0  0  0  0  0
    4.2833    4.0477    6.6154 H   0  0  0  0  0  0  0  0  0  0  0  0
    3.2891    3.6465    3.7530 H   0  0  0  0  0  0  0  0  0  0  0  0
    3.0474    5.0531    4.7811 H   0  0  0  0  0  0  0  0  0  0  0  0
   -2.2162    5.3505    3.8529 H   0  0  0  0  0  0  0  0  0  0  0  0
   -2.8592    6.7522    4.7418 H   0  0  0  0  0  0  0  0  0  0  0  0
   -3.0720    5.1058    5.3739 H   0  0  0  0  0  0  0  0  0  0  0  0
   -2.0360    6.1552    7.8408 H   0  0  0  0  0  0  0  0  0  0  0  0
   -1.8769    7.7076    6.9832 H   0  0  0  0  0  0  0  0  0  0  0  0
   -0.4920    7.0206    7.8726 H   0  0  0  0  0  0  0  0  0  0  0  0
    2.7466    2.9977    8.6256 H   0  0  0  0  0  0  0  0  0  0  0  0
    3.6281    1.5702    8.0233 H   0  0  0  0  0  0  0  0  0  0  0  0
    1.8769    1.4812    8.3389 H   0  0  0  0  0  0  0  0  0  0  0  0
    2.3896    1.2275    4.3089 H   0  0  0  0  0  0  0  0  0  0  0  0
    1.5251    0.4652    5.6436 H   0  0  0  0  0  0  0  0  0  0  0  0
    3.3014    0.5006    5.6509 H   0  0  0  0  0  0  0  0  0  0  0  0
  1  3  1  0  0  0  0
  1  6  1  0  0  0  0
  2  1  1  0  0  0  0
  2 14  1  0  0  0  0
  3 15  1  0  0  0  0
  4 10  1  0  0  0  0
  4 17  1  0  0  0  0
  5 12  1  0  0  0  0
  5 20  1  0  0  0  0
  7  1  1  0  0  0  0
  8  7  1  0  0  0  0
  9 23  1  0  0  0  0
  9  2  1  0  0  0  0
 10 25  1  0  0  0  0
 10  9  1  0  0  0  0
 11  3  1  0  0  0  0
 11 28  1  0  0  0  0
 12 30  1  0  0  0  0
 12 11  1  0  0  0  0
 13 33  1  0  0  0  0
 13  2  1  0  0  0  0
 14 34  1  0  0  0  0
 14 36  1  0  0  0  0
 15 38  1  0  0  0  0
 15 39  1  0  0  0  0
 15 37  1  0  0  0  0
 16 41  1  0  0  0  0
 16 42  1  0  0  0  0
 16  3  1  0  0  0  0
 18  4  1  0  0  0  0
 19  4  1  0  0  0  0
 21  5  1  0  0  0  0
 22  5  1  0  0  0  0
 24  9  1  0  0  0  0
 26 10  1  0  0  0  0
 27 11  1  0  0  0  0
 29 12  1  0  0  0  0
 31 13  1  0  0  0  0
 32 13  1  0  0  0  0
 35 14  1  0  0  0  0
 40 16  1  0  0  0  0
M  END
$$$$
