CSD_code = KOSJIL | q = 0 | S = 0 | Stoichiometry = C22H18Cl2N6NiO2 | MND = 6
 OpenBabel04212202063D

 51 56  0  0  1  0  0  0  0  0999 V2000
   -0.0001    0.0005    0.0002 Ni  0  0  0  0  0  0  0  0  0  0  0  0
    1.4016    1.2130    0.4143 N   0  0  0  0  0  0  0  0  0  0  0  0
    2.5382    1.3803   -0.2799 C   0  0  2  0  0  3  0  0  0  0  0  0
    3.3226    2.4502   -0.1960 N   0  0  0  0  0  0  0  0  0  0  0  0
    2.9905    3.4069    0.6472 C   0  0  0  0  0  0  0  0  0  0  0  0
    1.8671    3.3033    1.4529 C   0  0  0  0  0  0  0  0  0  0  0  0
    1.0901    2.1702    1.2892 C   0  0  0  0  0  0  0  0  0  0  0  0
    3.0020    0.4475   -1.1696 N   0  0  0  0  0  0  0  0  0  0  0  0
    2.5155   -0.8195   -1.4122 C   0  0  2  0  0  3  0  0  0  0  0  0
    1.7503   -1.3849   -0.6541 O   0  0  0  0  0  0  0  0  0  0  0  0
    3.0316   -1.4608   -2.6428 C   0  0  0  0  0  0  0  0  0  0  0  0
    3.3743   -0.7281   -3.7767 C   0  0  0  0  0  0  0  0  0  0  0  0
    3.8109   -1.3850   -4.9129 C   0  0  0  0  0  0  0  0  0  0  0  0
    3.9140   -2.7670   -4.9265 C   0  0  0  0  0  0  0  0  0  0  0  0
    3.5592   -3.5009   -3.8056 C   0  0  0  0  0  0  0  0  0  0  0  0
    3.1104   -2.8522   -2.6711 C   0  0  0  0  0  0  0  0  0  0  0  0
    0.0050   -0.7798    2.0317 Cl  0  0  0  0  0  0  0  0  0  0  0  0
    3.6508    4.2632    0.6718 H   0  0  0  0  0  0  0  0  0  0  0  0
    1.5972    4.0636    2.1653 H   0  0  0  0  0  0  0  0  0  0  0  0
    0.1917    2.0210    1.8737 H   0  0  0  0  0  0  0  0  0  0  0  0
    3.7626    0.7937   -1.7398 H   0  0  0  0  0  0  0  0  0  0  0  0
    3.2539    0.3447   -3.7907 H   0  0  0  0  0  0  0  0  0  0  0  0
    4.0669   -0.8168   -5.7944 H   0  0  0  0  0  0  0  0  0  0  0  0
    4.2611   -3.2729   -5.8153 H   0  0  0  0  0  0  0  0  0  0  0  0
    3.6274   -4.5783   -3.8201 H   0  0  0  0  0  0  0  0  0  0  0  0
    2.8207   -3.4055   -1.7904 H   0  0  0  0  0  0  0  0  0  0  0  0
   -1.4015   -1.2124   -0.4143 N   0  0  0  0  0  0  0  0  0  0  0  0
   -1.7512    1.3856    0.6538 O   0  0  0  0  0  0  0  0  0  0  0  0
   -0.0069    0.7762   -2.0330 Cl  0  0  0  0  0  0  0  0  0  0  0  0
   -2.5382   -1.3799    0.2798 C   0  0  1  0  0  3  0  0  0  0  0  0
   -1.0900   -2.1694   -1.2896 C   0  0  0  0  0  0  0  0  0  0  0  0
   -2.5159    0.8199    1.4121 C   0  0  2  0  0  3  0  0  0  0  0  0
   -3.3225   -2.4499    0.1958 N   0  0  0  0  0  0  0  0  0  0  0  0
   -3.0021   -0.4473    1.1696 N   0  0  0  0  0  0  0  0  0  0  0  0
   -1.8672   -3.3025   -1.4536 C   0  0  0  0  0  0  0  0  0  0  0  0
   -0.1918   -2.0200   -1.8743 H   0  0  0  0  0  0  0  0  0  0  0  0
   -3.0316    1.4608    2.6430 C   0  0  0  0  0  0  0  0  0  0  0  0
   -2.9905   -3.4063   -0.6477 C   0  0  0  0  0  0  0  0  0  0  0  0
   -3.7625   -0.7937    1.7399 H   0  0  0  0  0  0  0  0  0  0  0  0
   -1.5973   -4.0627   -2.1661 H   0  0  0  0  0  0  0  0  0  0  0  0
   -3.3737    0.7278    3.7770 C   0  0  0  0  0  0  0  0  0  0  0  0
   -3.1105    2.8522    2.6716 C   0  0  0  0  0  0  0  0  0  0  0  0
   -3.6508   -4.2626   -0.6724 H   0  0  0  0  0  0  0  0  0  0  0  0
   -3.8103    1.3844    4.9133 C   0  0  0  0  0  0  0  0  0  0  0  0
   -3.2533   -0.3450    3.7908 H   0  0  0  0  0  0  0  0  0  0  0  0
   -3.5591    3.5005    3.8063 C   0  0  0  0  0  0  0  0  0  0  0  0
   -2.8210    3.4056    1.7909 H   0  0  0  0  0  0  0  0  0  0  0  0
   -3.9136    2.7664    4.9272 C   0  0  0  0  0  0  0  0  0  0  0  0
   -4.0660    0.8160    5.7948 H   0  0  0  0  0  0  0  0  0  0  0  0
   -3.6273    4.5779    3.8210 H   0  0  0  0  0  0  0  0  0  0  0  0
   -4.2605    3.2721    5.8161 H   0  0  0  0  0  0  0  0  0  0  0  0
  1  2  1  0  0  0  0
  1 28  1  0  0  0  0
  1 17  1  0  0  0  0
  2  7  1  0  0  0  0
  3  4  1  6  0  0  0
  3  2  1  0  0  0  0
  4  5  2  0  0  0  0
  5 18  1  0  0  0  0
  5  6  1  0  0  0  0
  6 19  1  0  0  0  0
  7  6  2  0  0  0  0
  7 20  1  0  0  0  0
  8  3  1  0  0  0  0
  9 11  1  1  0  0  0
  9  8  1  0  0  0  0
  9 10  1  0  0  0  0
 10  1  1  0  0  0  0
 12 11  2  0  0  0  0
 13 12  1  0  0  0  0
 14 13  2  0  0  0  0
 14 15  1  0  0  0  0
 15 16  2  0  0  0  0
 16 11  1  0  0  0  0
 16 26  1  0  0  0  0
 21  8  1  0  0  0  0
 22 12  1  0  0  0  0
 23 13  1  0  0  0  0
 24 14  1  0  0  0  0
 25 15  1  0  0  0  0
 27  1  1  0  0  0  0
 27 30  1  0  0  0  0
 28 32  1  0  0  0  0
 29  1  1  0  0  0  0
 30 33  1  1  0  0  0
 30 34  1  0  0  0  0
 31 27  1  0  0  0  0
 32 37  1  6  0  0  0
 34 32  1  0  0  0  0
 34 39  1  0  0  0  0
 35 31  2  0  0  0  0
 35 38  1  0  0  0  0
 36 31  1  0  0  0  0
 37 42  2  0  0  0  0
 37 41  1  0  0  0  0
 38 33  2  0  0  0  0
 40 35  1  0  0  0  0
 41 45  1  0  0  0  0
 41 44  2  0  0  0  0
 42 46  1  0  0  0  0
 43 38  1  0  0  0  0
 44 48  1  0  0  0  0
 44 49  1  0  0  0  0
 46 50  1  0  0  0  0
 46 48  2  0  0  0  0
 47 42  1  0  0  0  0
 48 51  1  0  0  0  0
M  END
$$$$
