CSD_code = KOTVIY | q = 0 | S = 0 | Stoichiometry = C12H21Cl2N3Ti | MND = 5
 OpenBabel04212202063D

 39 40  0  0  0  0  0  0  0  0999 V2000
    2.3572    0.3726    0.2586 Ti  0  0  0  0  0  0  0  0  0  0  0  0
    0.2981    0.3109    1.0599 Cl  0  0  0  0  0  0  0  0  0  0  0  0
    2.5900   -1.8320    0.1837 Cl  0  0  0  0  0  0  0  0  0  0  0  0
    3.4996    0.8615    1.4362 N   0  0  0  0  0  2  0  0  0  0  0  0
    3.5746    0.5199   -1.5768 N   0  0  0  0  0  4  0  0  0  0  0  0
    1.9560    2.4191   -0.3383 N   0  0  0  0  0  4  0  0  0  0  0  0
    3.8781    0.6328    2.6928 C   0  0  0  0  0  0  0  0  0  0  0  0
    3.1254   -0.2427    3.5150 C   0  0  0  0  0  0  0  0  0  0  0  0
    3.5081   -0.4903    4.8119 C   0  0  0  0  0  0  0  0  0  0  0  0
    4.6374    0.1179    5.3474 C   0  0  0  0  0  0  0  0  0  0  0  0
    5.3851    0.9796    4.5609 C   0  0  0  0  0  0  0  0  0  0  0  0
    5.0202    1.2384    3.2572 C   0  0  0  0  0  0  0  0  0  0  0  0
    4.9239    0.1337   -1.1485 C   0  0  0  0  0  0  0  0  0  0  0  0
    3.1233   -0.4187   -2.6068 C   0  0  0  0  0  0  0  0  0  0  0  0
    0.7931    2.5390   -1.2171 C   0  0  0  0  0  0  0  0  0  0  0  0
    1.7189    3.2378    0.8543 C   0  0  0  0  0  0  0  0  0  0  0  0
    3.5811    1.8917   -2.1035 C   0  0  0  0  0  0  0  0  0  0  0  0
    3.1787    2.8729   -1.0020 C   0  0  0  0  0  0  0  0  0  0  0  0
    5.6074    1.9100    2.6423 H   0  0  0  0  0  0  0  0  0  0  0  0
    2.2414   -0.7093    3.0824 H   0  0  0  0  0  0  0  0  0  0  0  0
    2.9225   -1.1636    5.4230 H   0  0  0  0  0  0  0  0  0  0  0  0
    2.8760    1.9676   -2.9375 H   0  0  0  0  0  0  0  0  0  0  0  0
    3.9672    2.9042   -0.2424 H   0  0  0  0  0  0  0  0  0  0  0  0
    3.0489    3.8827   -1.4277 H   0  0  0  0  0  0  0  0  0  0  0  0
    2.0901   -0.2047   -2.8947 H   0  0  0  0  0  0  0  0  0  0  0  0
    3.1636   -1.4344   -2.2086 H   0  0  0  0  0  0  0  0  0  0  0  0
    5.2865    0.8367   -0.3972 H   0  0  0  0  0  0  0  0  0  0  0  0
    5.6137    0.1129   -2.0052 H   0  0  0  0  0  0  0  0  0  0  0  0
    6.2653    1.4555    4.9720 H   0  0  0  0  0  0  0  0  0  0  0  0
    4.9293   -0.0798    6.3680 H   0  0  0  0  0  0  0  0  0  0  0  0
    3.7610   -0.3596   -3.5008 H   0  0  0  0  0  0  0  0  0  0  0  0
    4.5736    2.1598   -2.4934 H   0  0  0  0  0  0  0  0  0  0  0  0
    0.8245    2.8773    1.3642 H   0  0  0  0  0  0  0  0  0  0  0  0
    2.5626    3.1329    1.5391 H   0  0  0  0  0  0  0  0  0  0  0  0
    1.5868    4.2943    0.5818 H   0  0  0  0  0  0  0  0  0  0  0  0
    0.8768    1.8765   -2.0806 H   0  0  0  0  0  0  0  0  0  0  0  0
    0.6742    3.5729   -1.5740 H   0  0  0  0  0  0  0  0  0  0  0  0
   -0.0999    2.2525   -0.6588 H   0  0  0  0  0  0  0  0  0  0  0  0
    4.8831   -0.8559   -0.6884 H   0  0  0  0  0  0  0  0  0  0  0  0
  1  2  1  0  0  0  0
  1  4  1  0  0  0  0
  3  1  1  0  0  0  0
  4  7  1  0  0  0  0
  5 13  1  0  0  0  0
  5  1  1  0  0  0  0
  6  1  1  0  0  0  0
  6 16  1  0  0  0  0
  7 12  2  0  0  0  0
  7  8  1  0  0  0  0
  8  9  2  0  0  0  0
  9 10  1  0  0  0  0
  9 21  1  0  0  0  0
 10 30  1  0  0  0  0
 11 29  1  0  0  0  0
 11 10  2  0  0  0  0
 12 11  1  0  0  0  0
 13 39  1  0  0  0  0
 13 27  1  0  0  0  0
 14 26  1  0  0  0  0
 14  5  1  0  0  0  0
 15 38  1  0  0  0  0
 15  6  1  0  0  0  0
 16 33  1  0  0  0  0
 16 34  1  0  0  0  0
 17  5  1  0  0  0  0
 17 18  1  0  0  0  0
 18  6  1  0  0  0  0
 18 23  1  0  0  0  0
 19 12  1  0  0  0  0
 20  8  1  0  0  0  0
 22 17  1  0  0  0  0
 24 18  1  0  0  0  0
 25 14  1  0  0  0  0
 28 13  1  0  0  0  0
 31 14  1  0  0  0  0
 32 17  1  0  0  0  0
 35 16  1  0  0  0  0
 36 15  1  0  0  0  0
 37 15  1  0  0  0  0
M  END
$$$$
