CSD_code = KOVTEU | q = 0 | S = 0 | Stoichiometry = C13H19Cl2N2O2ReSi | MND = 6
 OpenBabel04212202063D

 40 41  0  0  0  0  0  0  0  0999 V2000
    2.7567    4.4818    0.3444 Re  0  0  0  0  0  0  0  0  0  0  0  0
    3.9656    3.6854   -1.5276 Cl  0  0  0  0  0  0  0  0  0  0  0  0
    1.5258    4.9988    2.3128 Cl  0  0  0  0  0  0  0  0  0  0  0  0
    2.4849    1.2563    1.4634 Si  0  0  0  0  0  0  0  0  0  0  0  0
    2.8089    6.0602   -0.1279 O   0  0  0  0  0  1  0  0  0  0  0  0
    2.6780    2.7539    0.8924 O   0  0  0  0  0  0  0  0  0  0  0  0
    4.5886    4.6671    1.4613 N   0  0  0  0  0  0  0  0  0  0  0  0
    0.9063    4.1414   -0.6990 N   0  0  0  0  0  0  0  0  0  0  0  0
    5.5088    3.7061    1.4167 C   0  0  0  0  0  3  0  0  0  0  0  0
    6.6737    3.7633    2.1600 C   0  0  0  0  0  0  0  0  0  0  0  0
    6.8950    4.8585    2.9800 C   0  0  0  0  0  0  0  0  0  0  0  0
    5.9365    5.8596    3.0148 C   0  0  0  0  0  0  0  0  0  0  0  0
    4.7978    5.7276    2.2413 C   0  0  0  0  0  0  0  0  0  0  0  0
   -0.0692    5.0490   -0.6554 C   0  0  0  0  0  3  0  0  0  0  0  0
   -1.2910    4.8473   -1.2707 C   0  0  0  0  0  0  0  0  0  0  0  0
   -1.5132    3.6637   -1.9576 C   0  0  0  0  0  0  0  0  0  0  0  0
   -0.4915    2.7284   -2.0042 C   0  0  0  0  0  0  0  0  0  0  0  0
    0.7021    3.0056   -1.3630 C   0  0  0  0  0  0  0  0  0  0  0  0
    3.6707    1.0304    2.9465 C   0  0  0  0  0  0  0  0  0  0  0  0
    2.9118    0.0262    0.0618 C   0  0  0  0  0  0  0  0  0  0  0  0
    0.6652    1.0715    2.0122 C   0  0  0  0  0  0  0  0  0  0  0  0
    5.3077    2.8767    0.7522 H   0  0  0  0  0  0  0  0  0  0  0  0
    7.3922    2.9623    2.0913 H   0  0  0  0  0  0  0  0  0  0  0  0
    7.7926    4.9313    3.5750 H   0  0  0  0  0  0  0  0  0  0  0  0
    6.0629    6.7330    3.6339 H   0  0  0  0  0  0  0  0  0  0  0  0
    4.0206    6.4800    2.2470 H   0  0  0  0  0  0  0  0  0  0  0  0
    0.1420    5.9538   -0.1014 H   0  0  0  0  0  0  0  0  0  0  0  0
   -2.0526    5.6075   -1.2069 H   0  0  0  0  0  0  0  0  0  0  0  0
   -2.4572    3.4763   -2.4462 H   0  0  0  0  0  0  0  0  0  0  0  0
   -0.6108    1.7956   -2.5317 H   0  0  0  0  0  0  0  0  0  0  0  0
    1.5270    2.3067   -1.3895 H   0  0  0  0  0  0  0  0  0  0  0  0
    3.5843    1.8592    3.6440 H   0  0  0  0  0  0  0  0  0  0  0  0
    3.4329    0.1185    3.4842 H   0  0  0  0  0  0  0  0  0  0  0  0
    4.7095    0.9663    2.6335 H   0  0  0  0  0  0  0  0  0  0  0  0
    3.6460    0.4438   -0.6223 H   0  0  0  0  0  0  0  0  0  0  0  0
    3.3196   -0.8935    0.4677 H   0  0  0  0  0  0  0  0  0  0  0  0
    2.0343   -0.2397   -0.5213 H   0  0  0  0  0  0  0  0  0  0  0  0
   -0.0184    1.0978    1.1666 H   0  0  0  0  0  0  0  0  0  0  0  0
    0.5085    0.1346    2.5361 H   0  0  0  0  0  0  0  0  0  0  0  0
    0.3875    1.8812    2.6813 H   0  0  0  0  0  0  0  0  0  0  0  0
  1  6  1  0  0  0  0
  1  7  1  0  0  0  0
  1  3  1  0  0  0  0
  2  1  1  0  0  0  0
  4 21  1  0  0  0  0
  4 19  1  0  0  0  0
  5  1  1  0  0  0  0
  6  4  1  0  0  0  0
  7 13  1  0  0  0  0
  8 14  1  0  0  0  0
  8  1  1  0  0  0  0
  9  7  1  0  0  0  0
  9 10  1  0  0  0  0
 10 11  2  0  0  0  0
 11 12  1  0  0  0  0
 11 24  1  0  0  0  0
 12 25  1  0  0  0  0
 13 26  1  0  0  0  0
 13 12  2  0  0  0  0
 14 27  1  0  0  0  0
 15 28  1  0  0  0  0
 15 14  1  0  0  0  0
 16 15  2  0  0  0  0
 17 16  1  0  0  0  0
 17 18  2  0  0  0  0
 18  8  1  0  0  0  0
 19 33  1  0  0  0  0
 19 32  1  0  0  0  0
 20 36  1  0  0  0  0
 20  4  1  0  0  0  0
 21 39  1  0  0  0  0
 21 40  1  0  0  0  0
 22  9  1  0  0  0  0
 23 10  1  0  0  0  0
 29 16  1  0  0  0  0
 30 17  1  0  0  0  0
 31 18  1  0  0  0  0
 34 19  1  0  0  0  0
 35 20  1  0  0  0  0
 37 20  1  0  0  0  0
 38 21  1  0  0  0  0
M  END
$$$$
