CSD_code = KOVXIE | q = 0 | S = 0 | Stoichiometry = C14H32Br2FeP2 | MND = 4
 OpenBabel04212202063D

 51 51  0  0  0  0  0  0  0  0999 V2000
    8.0659   14.1148    0.3018 Br  0  0  0  0  0  0  0  0  0  0  0  0
    4.8139   12.9081   -1.6948 Br  0  0  0  0  0  0  0  0  0  0  0  0
    6.5279   12.6229   -0.3010 Fe  0  0  0  0  0  0  0  0  0  0  0  0
    5.5939   11.6976    1.4138 P   0  0  0  0  0  4  0  0  0  0  0  0
    7.5668   10.7524   -0.6431 P   0  0  0  0  0  4  0  0  0  0  0  0
    5.5221    9.8946    0.9903 C   0  0  0  0  0  0  0  0  0  0  0  0
    5.1559    9.2895    1.8224 H   0  0  0  0  0  0  0  0  0  0  0  0
    4.8126    9.8150    0.1618 H   0  0  0  0  0  0  0  0  0  0  0  0
    3.8564   12.1144    1.9637 C   0  0  0  0  0  0  0  0  0  0  0  0
    3.7948   11.8678    3.0312 H   0  0  0  0  0  0  0  0  0  0  0  0
    6.9071    9.4575    0.5201 C   0  0  0  0  0  0  0  0  0  0  0  0
    6.8738    8.4820    0.0275 H   0  0  0  0  0  0  0  0  0  0  0  0
    7.5869    9.3898    1.3722 H   0  0  0  0  0  0  0  0  0  0  0  0
    3.6417   13.6186    1.7836 C   0  0  0  0  0  0  0  0  0  0  0  0
    2.7410   13.9394    2.3042 H   0  0  0  0  0  0  0  0  0  0  0  0
    3.5197   13.8546    0.7286 H   0  0  0  0  0  0  0  0  0  0  0  0
    4.4838   14.1926    2.1682 H   0  0  0  0  0  0  0  0  0  0  0  0
    6.5256   13.0686    3.6705 C   0  0  0  0  0  0  0  0  0  0  0  0
    7.2513   13.1157    4.4806 H   0  0  0  0  0  0  0  0  0  0  0  0
    5.5422   13.2779    4.0857 H   0  0  0  0  0  0  0  0  0  0  0  0
    6.7822   13.8438    2.9509 H   0  0  0  0  0  0  0  0  0  0  0  0
    9.4263   10.6151   -0.4223 C   0  0  0  0  0  0  0  0  0  0  0  0
    9.8327   11.3862   -1.0913 H   0  0  0  0  0  0  0  0  0  0  0  0
    7.3357    9.9546   -2.3186 C   0  0  0  0  0  0  0  0  0  0  0  0
    7.9704    9.0618   -2.3400 H   0  0  0  0  0  0  0  0  0  0  0  0
    9.8363   10.9867    1.0016 C   0  0  0  0  0  0  0  0  0  0  0  0
   10.9146   11.1276    1.0466 H   0  0  0  0  0  0  0  0  0  0  0  0
    9.5753   10.1994    1.7064 H   0  0  0  0  0  0  0  0  0  0  0  0
    9.3694   11.9171    1.3134 H   0  0  0  0  0  0  0  0  0  0  0  0
    6.5665   11.6909    3.0144 C   0  0  0  0  0  0  0  0  0  0  0  0
    7.5991   11.5103    2.6891 H   0  0  0  0  0  0  0  0  0  0  0  0
    6.1674   10.6028    4.0078 C   0  0  0  0  0  0  0  0  0  0  0  0
    6.7142   10.7526    4.9375 H   0  0  0  0  0  0  0  0  0  0  0  0
    6.4092    9.6093    3.6385 H   0  0  0  0  0  0  0  0  0  0  0  0
    5.1045   10.6391    4.2381 H   0  0  0  0  0  0  0  0  0  0  0  0
    2.7858   11.3367    1.2059 C   0  0  0  0  0  0  0  0  0  0  0  0
    1.8026   11.7124    1.4852 H   0  0  0  0  0  0  0  0  0  0  0  0
    2.8198   10.2747    1.4373 H   0  0  0  0  0  0  0  0  0  0  0  0
    2.9008   11.4711    0.1320 H   0  0  0  0  0  0  0  0  0  0  0  0
   10.0231    9.2587   -0.7961 C   0  0  0  0  0  0  0  0  0  0  0  0
   11.0601    9.2248   -0.4656 H   0  0  0  0  0  0  0  0  0  0  0  0
   10.0174    9.0901   -1.8697 H   0  0  0  0  0  0  0  0  0  0  0  0
    9.4885    8.4470   -0.3060 H   0  0  0  0  0  0  0  0  0  0  0  0
    5.8973    9.5201   -2.5767 C   0  0  0  0  0  0  0  0  0  0  0  0
    5.8231    9.0978   -3.5776 H   0  0  0  0  0  0  0  0  0  0  0  0
    5.2144   10.3629   -2.5220 H   0  0  0  0  0  0  0  0  0  0  0  0
    5.5751    8.7593   -1.8690 H   0  0  0  0  0  0  0  0  0  0  0  0
    7.8003   10.9512   -3.3773 C   0  0  0  0  0  0  0  0  0  0  0  0
    7.6937   10.5289   -4.3748 H   0  0  0  0  0  0  0  0  0  0  0  0
    8.8440   11.2267   -3.2317 H   0  0  0  0  0  0  0  0  0  0  0  0
    7.1948   11.8565   -3.3303 H   0  0  0  0  0  0  0  0  0  0  0  0
  2  3  1  0  0  0  0
  3  1  1  0  0  0  0
  3  4  1  0  0  0  0
  4  9  1  0  0  0  0
  4 30  1  0  0  0  0
  5 22  1  0  0  0  0
  5  3  1  0  0  0  0
  5 11  1  0  0  0  0
  6  4  1  0  0  0  0
  6  7  1  0  0  0  0
  8  6  1  0  0  0  0
  9 10  1  0  0  0  0
 11  6  1  0  0  0  0
 11 13  1  0  0  0  0
 12 11  1  0  0  0  0
 14  9  1  0  0  0  0
 14 17  1  0  0  0  0
 14 15  1  0  0  0  0
 16 14  1  0  0  0  0
 18 20  1  0  0  0  0
 18 19  1  0  0  0  0
 21 18  1  0  0  0  0
 22 26  1  0  0  0  0
 23 22  1  0  0  0  0
 24  5  1  0  0  0  0
 25 24  1  0  0  0  0
 26 27  1  0  0  0  0
 26 29  1  0  0  0  0
 26 28  1  0  0  0  0
 30 18  1  0  0  0  0
 30 32  1  0  0  0  0
 31 30  1  0  0  0  0
 32 35  1  0  0  0  0
 32 33  1  0  0  0  0
 34 32  1  0  0  0  0
 36 38  1  0  0  0  0
 36 37  1  0  0  0  0
 36  9  1  0  0  0  0
 39 36  1  0  0  0  0
 40 41  1  0  0  0  0
 40 22  1  0  0  0  0
 40 43  1  0  0  0  0
 42 40  1  0  0  0  0
 44 46  1  0  0  0  0
 44 24  1  0  0  0  0
 44 47  1  0  0  0  0
 45 44  1  0  0  0  0
 48 51  1  0  0  0  0
 48 50  1  0  0  0  0
 48 24  1  0  0  0  0
 49 48  1  0  0  0  0
M  END
$$$$
