CSD_code = KOWHAF | q = 0 | S = 0 | Stoichiometry = C28H34Cl2NiP2 | MND = 4
 OpenBabel04212202063D

 67 71  0  0  0  0  0  0  0  0999 V2000
   -0.0002    3.1368    2.4234 Ni  0  0  0  0  0  0  0  0  0  0  0  0
   -1.6810    3.0572    1.0606 P   0  0  0  0  0  4  0  0  0  0  0  0
    1.3978    3.0550    0.8724 Cl  0  0  0  0  0  0  0  0  0  0  0  0
   -1.4184    6.2662    1.7972 C   0  0  0  0  0  0  0  0  0  0  0  0
   -2.4095    5.7037    1.0193 C   0  0  0  0  0  0  0  0  0  0  0  0
   -2.9136    6.4122   -0.0794 C   0  0  0  0  0  0  0  0  0  0  0  0
   -2.5102    7.6983   -0.3066 C   0  0  0  0  0  0  0  0  0  0  0  0
   -1.3584    9.7191    0.4332 C   0  0  0  0  0  0  0  0  0  0  0  0
   -0.6647   10.3682    1.3971 C   0  0  0  0  0  0  0  0  0  0  0  0
   -0.9543    7.5760    1.5746 C   0  0  0  0  0  0  0  0  0  0  0  0
   -1.5843    8.3237    0.5435 C   0  0  0  0  0  0  0  0  0  0  0  0
   -0.0000    8.2406    2.4232 C   0  0  0  0  0  0  0  0  0  0  0  0
    0.0000    9.6483    2.4232 C   0  0  0  0  0  0  0  0  0  0  0  0
   -2.9617    4.3523    1.3489 C   0  0  0  0  0  0  0  0  0  0  0  0
   -2.6689    1.5156    1.2525 C   0  0  0  0  0  0  0  0  0  0  0  0
   -1.7888    0.2922    1.0284 C   0  0  0  0  0  0  0  0  0  0  0  0
   -1.3608    3.1878   -0.7525 C   0  0  0  0  0  0  0  0  0  0  0  0
   -2.5423    2.9288   -1.6766 C   0  0  0  0  0  0  0  0  0  0  0  0
   -1.0627    5.7089    2.6570 H   0  0  0  0  0  0  0  0  0  0  0  0
   -3.6600    5.9567   -0.7145 H   0  0  0  0  0  0  0  0  0  0  0  0
   -2.9411    8.2723   -1.1146 H   0  0  0  0  0  0  0  0  0  0  0  0
   -1.8192   10.2549   -0.3841 H   0  0  0  0  0  0  0  0  0  0  0  0
   -0.5777   11.4452    1.3916 H   0  0  0  0  0  0  0  0  0  0  0  0
   -3.2318    4.2934    2.4066 H   0  0  0  0  0  0  0  0  0  0  0  0
   -3.8434    4.1252    0.7452 H   0  0  0  0  0  0  0  0  0  0  0  0
   -3.5137    1.5341    0.5600 H   0  0  0  0  0  0  0  0  0  0  0  0
   -3.0567    1.5171    2.2744 H   0  0  0  0  0  0  0  0  0  0  0  0
   -2.3287   -0.6248    1.2560 H   0  0  0  0  0  0  0  0  0  0  0  0
   -1.4382    0.2433   -0.0008 H   0  0  0  0  0  0  0  0  0  0  0  0
   -0.9149    0.3482    1.6808 H   0  0  0  0  0  0  0  0  0  0  0  0
   -0.5452    2.4980   -0.9832 H   0  0  0  0  0  0  0  0  0  0  0  0
   -0.9710    4.1996   -0.9063 H   0  0  0  0  0  0  0  0  0  0  0  0
   -2.2444    3.1262   -2.7047 H   0  0  0  0  0  0  0  0  0  0  0  0
   -2.8725    1.8944   -1.6180 H   0  0  0  0  0  0  0  0  0  0  0  0
   -3.3841    3.5758   -1.4432 H   0  0  0  0  0  0  0  0  0  0  0  0
    1.6810    3.0572    3.7858 P   0  0  0  0  0  4  0  0  0  0  0  0
   -1.3980    3.0550    3.9746 Cl  0  0  0  0  0  0  0  0  0  0  0  0
    0.9543    7.5760    3.2720 C   0  0  0  0  0  0  0  0  0  0  0  0
    0.6648   10.3682    3.4492 C   0  0  0  0  0  0  0  0  0  0  0  0
    2.9617    4.3523    3.4977 C   0  0  0  0  0  0  0  0  0  0  0  0
    2.6689    1.5155    3.5940 C   0  0  0  0  0  0  0  0  0  0  0  0
    1.3608    3.1877    5.5990 C   0  0  0  0  0  0  0  0  0  0  0  0
    1.4183    6.2662    3.0494 C   0  0  0  0  0  0  0  0  0  0  0  0
    1.5842    8.3237    4.3030 C   0  0  0  0  0  0  0  0  0  0  0  0
    1.3585    9.7191    4.4132 C   0  0  0  0  0  0  0  0  0  0  0  0
    0.5779   11.4453    3.4547 H   0  0  0  0  0  0  0  0  0  0  0  0
    2.4094    5.7037    3.8273 C   0  0  0  0  0  0  0  0  0  0  0  0
    3.2318    4.2935    2.4399 H   0  0  0  0  0  0  0  0  0  0  0  0
    3.8434    4.1253    4.1013 H   0  0  0  0  0  0  0  0  0  0  0  0
    1.7888    0.2922    3.8180 C   0  0  0  0  0  0  0  0  0  0  0  0
    3.5137    1.5341    4.2865 H   0  0  0  0  0  0  0  0  0  0  0  0
    3.0567    1.5171    2.5721 H   0  0  0  0  0  0  0  0  0  0  0  0
    2.5423    2.9287    6.5230 C   0  0  0  0  0  0  0  0  0  0  0  0
    0.5452    2.4979    5.8297 H   0  0  0  0  0  0  0  0  0  0  0  0
    0.9709    4.1995    5.7528 H   0  0  0  0  0  0  0  0  0  0  0  0
    1.0625    5.7088    2.1896 H   0  0  0  0  0  0  0  0  0  0  0  0
    2.5102    7.6983    5.1531 C   0  0  0  0  0  0  0  0  0  0  0  0
    1.8192   10.2550    5.2305 H   0  0  0  0  0  0  0  0  0  0  0  0
    2.9135    6.4122    4.9260 C   0  0  0  0  0  0  0  0  0  0  0  0
    2.3288   -0.6248    3.5904 H   0  0  0  0  0  0  0  0  0  0  0  0
    1.4383    0.2433    4.8472 H   0  0  0  0  0  0  0  0  0  0  0  0
    0.9150    0.3482    3.1657 H   0  0  0  0  0  0  0  0  0  0  0  0
    2.2444    3.1261    7.5512 H   0  0  0  0  0  0  0  0  0  0  0  0
    2.8725    1.8943    6.4644 H   0  0  0  0  0  0  0  0  0  0  0  0
    3.3841    3.5758    6.2896 H   0  0  0  0  0  0  0  0  0  0  0  0
    2.9411    8.2723    5.9611 H   0  0  0  0  0  0  0  0  0  0  0  0
    3.6599    5.9567    5.5611 H   0  0  0  0  0  0  0  0  0  0  0  0
  1 36  1  0  0  0  0
  1 37  1  0  0  0  0
  2 15  1  0  0  0  0
  2 14  1  0  0  0  0
  2  1  1  0  0  0  0
  3  1  1  0  0  0  0
  4 19  1  0  0  0  0
  5 14  1  0  0  0  0
  5  4  2  0  0  0  0
  6  5  1  0  0  0  0
  7  6  2  0  0  0  0
  7 11  1  0  0  0  0
  8 11  2  0  0  0  0
  8  9  1  0  0  0  0
  9 13  2  0  0  0  0
 10  4  1  0  0  0  0
 10 12  2  0  0  0  0
 11 10  1  0  0  0  0
 12 38  1  0  0  0  0
 13 12  1  0  0  0  0
 13 39  1  0  0  0  0
 14 24  1  0  0  0  0
 15 27  1  0  0  0  0
 16 15  1  0  0  0  0
 16 28  1  0  0  0  0
 16 30  1  0  0  0  0
 17  2  1  0  0  0  0
 18 34  1  0  0  0  0
 18 35  1  0  0  0  0
 18 17  1  0  0  0  0
 20  6  1  0  0  0  0
 21  7  1  0  0  0  0
 22  8  1  0  0  0  0
 23  9  1  0  0  0  0
 25 14  1  0  0  0  0
 26 15  1  0  0  0  0
 29 16  1  0  0  0  0
 31 17  1  0  0  0  0
 32 17  1  0  0  0  0
 33 18  1  0  0  0  0
 36 42  1  0  0  0  0
 38 44  1  0  0  0  0
 39 46  1  0  0  0  0
 39 45  2  0  0  0  0
 40 36  1  0  0  0  0
 40 47  1  0  0  0  0
 40 49  1  0  0  0  0
 41 36  1  0  0  0  0
 41 50  1  0  0  0  0
 41 51  1  0  0  0  0
 42 55  1  0  0  0  0
 42 54  1  0  0  0  0
 42 53  1  0  0  0  0
 43 38  2  0  0  0  0
 43 47  1  0  0  0  0
 44 45  1  0  0  0  0
 44 57  2  0  0  0  0
 45 58  1  0  0  0  0
 47 59  2  0  0  0  0
 48 40  1  0  0  0  0
 50 61  1  0  0  0  0
 52 41  1  0  0  0  0
 53 63  1  0  0  0  0
 56 43  1  0  0  0  0
 57 66  1  0  0  0  0
 59 57  1  0  0  0  0
 59 67  1  0  0  0  0
 60 50  1  0  0  0  0
 62 50  1  0  0  0  0
 64 53  1  0  0  0  0
 65 53  1  0  0  0  0
M  END
$$$$
