CSD_code = KOXQIZ | q = 0 | S = 0 | Stoichiometry = C10H20Cl2N4S2Zn | MND = 4
 OpenBabel04212202063D

 39 40  0  0  1  0  0  0  0  0999 V2000
    7.6784    5.8418   10.0044 Zn  0  0  0  0  0  0  0  0  0  0  0  0
    6.3788    6.7262   11.6390 Cl  0  0  0  0  0  0  0  0  0  0  0  0
    8.5165    7.3789    8.5596 Cl  0  0  0  0  0  0  0  0  0  0  0  0
    9.5355    4.5131   11.1657 S   0  0  0  0  0  0  0  0  0  0  0  0
    6.5302    4.0522    8.6007 S   0  0  0  0  0  0  0  0  0  0  0  0
    9.8825    3.8798   13.7212 N   0  0  0  0  0  0  0  0  0  0  0  0
    7.9012    4.7366   13.2996 N   0  0  0  0  0  0  0  0  0  0  0  0
    7.2421    5.3700   12.8210 H   0  0  0  0  0  0  0  0  0  0  0  0
    7.0156    3.2623    6.1122 N   0  0  0  0  0  0  0  0  0  0  0  0
    8.1188    5.0746    6.6753 N   0  0  0  0  0  0  0  0  0  0  0  0
    8.3714    5.9131    7.2202 H   0  0  0  0  0  0  0  0  0  0  0  0
    9.0737    4.3887   12.7785 C   0  0  2  0  0  3  0  0  0  0  0  0
    7.8944    4.5732   14.7394 C   0  0  0  0  0  0  0  0  0  0  0  0
    7.0108    4.0108   15.0487 H   0  0  0  0  0  0  0  0  0  0  0  0
    7.8750    5.5500   15.2332 H   0  0  0  0  0  0  0  0  0  0  0  0
    9.2059    3.8142   15.0037 C   0  0  0  0  0  0  0  0  0  0  0  0
    9.8189    4.2843   15.7777 H   0  0  0  0  0  0  0  0  0  0  0  0
    9.0242    2.7719   15.2882 H   0  0  0  0  0  0  0  0  0  0  0  0
   11.1544    3.2502   13.4862 C   0  0  0  0  0  0  0  0  0  0  0  0
   11.7839    3.4258   14.3630 H   0  0  0  0  0  0  0  0  0  0  0  0
   11.6034    3.7401   12.6193 H   0  0  0  0  0  0  0  0  0  0  0  0
   11.0200    1.7542   13.2139 C   0  0  0  0  0  0  0  0  0  0  0  0
   10.5874    1.2385   14.0681 H   0  0  0  0  0  0  0  0  0  0  0  0
   11.9984    1.3287   13.0119 H   0  0  0  0  0  0  0  0  0  0  0  0
   10.3851    1.5961   12.3463 H   0  0  0  0  0  0  0  0  0  0  0  0
    7.2536    4.1563    7.0837 C   0  0  2  0  0  3  0  0  0  0  0  0
    8.4986    4.8815    5.2921 C   0  0  0  0  0  0  0  0  0  0  0  0
    9.5803    4.7395    5.2164 H   0  0  0  0  0  0  0  0  0  0  0  0
    8.2224    5.7559    4.6964 H   0  0  0  0  0  0  0  0  0  0  0  0
    7.7116    3.6207    4.8900 C   0  0  0  0  0  0  0  0  0  0  0  0
    6.9970    3.8175    4.0844 H   0  0  0  0  0  0  0  0  0  0  0  0
    8.3668    2.8007    4.5789 H   0  0  0  0  0  0  0  0  0  0  0  0
    6.0838    2.1688    6.1814 C   0  0  0  0  0  0  0  0  0  0  0  0
    6.0255    1.8568    7.2266 H   0  0  0  0  0  0  0  0  0  0  0  0
    6.4830    1.3453    5.5825 H   0  0  0  0  0  0  0  0  0  0  0  0
    4.6940    2.5648    5.6898 C   0  0  0  0  0  0  0  0  0  0  0  0
    4.3118    3.3834    6.2934 H   0  0  0  0  0  0  0  0  0  0  0  0
    4.0174    1.7204    5.7807 H   0  0  0  0  0  0  0  0  0  0  0  0
    4.7219    2.8764    4.6483 H   0  0  0  0  0  0  0  0  0  0  0  0
  1  4  1  0  0  0  0
  1  2  1  0  0  0  0
  3  1  1  0  0  0  0
  5  1  1  0  0  0  0
  6 16  1  0  0  0  0
  7 13  1  0  0  0  0
  8  7  1  0  0  0  0
  9 33  1  0  0  0  0
  9 26  1  0  0  0  0
 10 26  1  0  0  0  0
 10 11  1  0  0  0  0
 12  4  1  6  0  0  0
 12  7  1  0  0  0  0
 12  6  1  0  0  0  0
 13 16  1  0  0  0  0
 13 14  1  0  0  0  0
 13 15  1  0  0  0  0
 16 18  1  0  0  0  0
 16 17  1  0  0  0  0
 19  6  1  0  0  0  0
 19 20  1  0  0  0  0
 21 19  1  0  0  0  0
 22 19  1  0  0  0  0
 22 23  1  0  0  0  0
 24 22  1  0  0  0  0
 25 22  1  0  0  0  0
 26  5  1  1  0  0  0
 27 10  1  0  0  0  0
 28 27  1  0  0  0  0
 29 27  1  0  0  0  0
 30 27  1  0  0  0  0
 30  9  1  0  0  0  0
 31 30  1  0  0  0  0
 32 30  1  0  0  0  0
 33 34  1  0  0  0  0
 35 33  1  0  0  0  0
 36 38  1  0  0  0  0
 36 33  1  0  0  0  0
 36 37  1  0  0  0  0
 39 36  1  0  0  0  0
M  END
$$$$
