CSD_code = KOXQAR | q = 0 | S = 0 | Stoichiometry = C12H8AuCl3N2 | MND = 4
 OpenBabel04212202063D

 26 28  0  0  0  0  0  0  0  0999 V2000
    5.2725    1.4859    2.4887 C   0  0  0  0  0  0  0  0  0  0  0  0
    4.0889    2.1468    2.8757 C   0  0  0  0  0  0  0  0  0  0  0  0
    4.0786    3.2277    2.8836 H   0  0  0  0  0  0  0  0  0  0  0  0
    2.9844    1.4285    3.2301 C   0  0  0  0  0  0  0  0  0  0  0  0
    2.0829    1.9434    3.5243 H   0  0  0  0  0  0  0  0  0  0  0  0
    2.9974    0.0163    3.2190 C   0  0  0  0  0  0  0  0  0  0  0  0
    2.1043   -0.5179    3.5043 H   0  0  0  0  0  0  0  0  0  0  0  0
    4.1195   -0.6626    2.8546 C   0  0  0  0  0  0  0  0  0  0  0  0
    4.1633   -1.7397    2.8361 H   0  0  0  0  0  0  0  0  0  0  0  0
    5.2902    0.0431    2.4799 C   0  0  0  0  0  0  0  0  0  0  0  0
    6.3747    2.1510    2.1306 N   0  0  0  0  0  0  0  0  0  0  0  0
    6.3747   -0.6269    2.1305 N   0  0  0  0  0  0  0  0  0  0  0  0
    5.6172    4.1161   -0.0268 Cl  0  0  0  0  0  0  0  0  0  0  0  0
    6.3746    6.4442    2.1299 Cl  0  0  0  0  0  0  0  0  0  0  0  0
    6.3744    4.2135    2.1307 Au  0  0  0  0  0  0  0  0  0  0  0  0
    7.4770    1.4859    1.7725 C   0  0  0  0  0  0  0  0  0  0  0  0
    8.6606    2.1468    1.3856 C   0  0  0  0  0  0  0  0  0  0  0  0
    8.6710    3.2277    1.3778 H   0  0  0  0  0  0  0  0  0  0  0  0
    9.7651    1.4285    1.0312 C   0  0  0  0  0  0  0  0  0  0  0  0
   10.6666    1.9434    0.7370 H   0  0  0  0  0  0  0  0  0  0  0  0
    9.7521    0.0163    1.0421 C   0  0  0  0  0  0  0  0  0  0  0  0
   10.6452   -0.5179    0.7568 H   0  0  0  0  0  0  0  0  0  0  0  0
    8.6300   -0.6626    1.4065 C   0  0  0  0  0  3  0  0  0  0  0  0
    8.5861   -1.7397    1.4249 H   0  0  0  0  0  0  0  0  0  0  0  0
    7.4593    0.0431    1.7812 C   0  0  0  0  0  0  0  0  0  0  0  0
    7.1325    4.1153    4.2880 Cl  0  0  0  0  0  0  0  0  0  0  0  0
  1  2  1  0  0  0  0
  2  3  1  0  0  0  0
  2  4  2  0  0  0  0
  4  5  1  0  0  0  0
  6  4  1  0  0  0  0
  6  7  1  0  0  0  0
  8  6  2  0  0  0  0
  9  8  1  0  0  0  0
 10  1  2  0  0  0  0
 10  8  1  0  0  0  0
 11 15  1  0  0  0  0
 11  1  1  0  0  0  0
 12 10  1  0  0  0  0
 13 15  1  0  0  0  0
 14 15  1  0  0  0  0
 15 26  1  0  0  0  0
 16 25  1  0  0  0  0
 16 11  1  0  0  0  0
 17 16  2  0  0  0  0
 18 17  1  0  0  0  0
 19 21  2  0  0  0  0
 19 17  1  0  0  0  0
 20 19  1  0  0  0  0
 21 23  1  0  0  0  0
 22 21  1  0  0  0  0
 23 24  1  0  0  0  0
 23 25  1  0  0  0  0
 25 12  2  0  0  0  0
M  END
$$$$
