CSD_code = KOXQEV | q = 0 | S = 0 | Stoichiometry = C8H6AuCl3N2 | MND = 4
 OpenBabel04212202063D

 20 21  0  0  1  0  0  0  0  0999 V2000
   -1.9722    3.6626   12.6415 Au  0  0  0  0  0  0  0  0  0  0  0  0
   -4.2214    3.3633   12.9707 Cl  0  0  0  0  0  0  0  0  0  0  0  0
    0.3020    3.8600   12.4539 Cl  0  0  0  0  0  0  0  0  0  0  0  0
   -2.2973    4.5151   10.6153 Cl  0  0  0  0  0  0  0  0  0  0  0  0
   -1.9959    3.5342   15.6364 C   0  0  2  0  0  3  0  0  0  0  0  0
   -1.6557    2.8583   14.5154 N   0  0  0  0  0  0  0  0  0  0  0  0
   -1.2657    1.6721   16.9878 N   0  0  0  0  0  0  0  0  0  0  0  0
   -2.5365    4.8296   15.5957 C   0  0  0  0  0  0  0  0  0  0  0  0
   -2.6853    5.3030   14.6366 H   0  0  0  0  0  0  0  0  0  0  0  0
   -2.1492    3.5889   18.0843 C   0  0  0  0  0  0  0  0  0  0  0  0
   -1.9863    3.0877   19.0249 H   0  0  0  0  0  0  0  0  0  0  0  0
   -0.9412    1.0665   15.8830 C   0  0  0  0  0  0  0  0  0  0  0  0
   -0.5135    0.0780   15.9643 H   0  0  0  0  0  0  0  0  0  0  0  0
   -2.6818    4.8452   18.0074 C   0  0  0  0  0  0  0  0  0  0  0  0
   -2.9593    5.3735   18.9065 H   0  0  0  0  0  0  0  0  0  0  0  0
   -1.1358    1.6586   14.6199 C   0  0  0  0  0  0  0  0  0  0  0  0
   -0.8575    1.1464   13.7121 H   0  0  0  0  0  0  0  0  0  0  0  0
   -2.8731    5.4663   16.7600 C   0  0  0  0  0  0  0  0  0  0  0  0
   -3.2928    6.4596   16.7234 H   0  0  0  0  0  0  0  0  0  0  0  0
   -1.7912    2.9017   16.9064 C   0  0  0  0  0  0  0  0  0  0  0  0
  1  2  1  0  0  0  0
  1  6  1  0  0  0  0
  3  1  1  0  0  0  0
  4  1  1  0  0  0  0
  5  8  1  1  0  0  0
  5 20  1  0  0  0  0
  6 16  1  0  0  0  0
  6  5  1  0  0  0  0
  8 18  2  0  0  0  0
  9  8  1  0  0  0  0
 10 11  1  0  0  0  0
 12 13  1  0  0  0  0
 12  7  1  0  0  0  0
 14 10  2  0  0  0  0
 14 15  1  0  0  0  0
 16 12  2  0  0  0  0
 17 16  1  0  0  0  0
 18 14  1  0  0  0  0
 19 18  1  0  0  0  0
 20  7  2  0  0  0  0
 20 10  1  0  0  0  0
M  END
$$$$
