CSD_code = KOXRIA | q = 0 | S = 0 | Stoichiometry = C8H16I2N4S2Zn | MND = 4
 OpenBabel04212202063D

 33 34  0  0  1  0  0  0  0  0999 V2000
    0.8098    4.4455    7.8715 C   0  0  2  0  0  3  0  0  0  0  0  0
    2.5917    4.1322    9.3044 C   0  0  0  0  0  0  0  0  0  0  0  0
    2.5995    4.2442   10.3919 H   0  0  0  0  0  0  0  0  0  0  0  0
    3.6043    4.3229    8.9287 H   0  0  0  0  0  0  0  0  0  0  0  0
    2.0544    2.7659    8.8506 C   0  0  0  0  0  0  0  0  0  0  0  0
    2.8333    2.1264    8.4293 H   0  0  0  0  0  0  0  0  0  0  0  0
    1.5650    2.2259    9.6678 H   0  0  0  0  0  0  0  0  0  0  0  0
    1.7715    6.4761    8.9113 C   0  0  0  0  0  0  0  0  0  0  0  0
    2.7295    6.8424    8.5323 H   0  0  0  0  0  0  0  0  0  0  0  0
    1.6986    6.7071    9.9758 H   0  0  0  0  0  0  0  0  0  0  0  0
    0.9625    6.9726    8.3790 H   0  0  0  0  0  0  0  0  0  0  0  0
    0.1523    1.9122    4.0170 C   0  0  2  0  0  3  0  0  0  0  0  0
    1.5956    0.3697    4.9778 C   0  0  0  0  0  0  0  0  0  0  0  0
    1.6123    0.0872    6.0339 H   0  0  0  0  0  0  0  0  0  0  0  0
    2.5847    0.1879    4.5445 H   0  0  0  0  0  0  0  0  0  0  0  0
    0.4804   -0.3591    4.2078 C   0  0  0  0  0  0  0  0  0  0  0  0
    0.8679   -1.0319    3.4384 H   0  0  0  0  0  0  0  0  0  0  0  0
   -0.1722   -0.9268    4.8800 H   0  0  0  0  0  0  0  0  0  0  0  0
   -1.4762    0.4661    2.8646 C   0  0  0  0  0  0  0  0  0  0  0  0
   -2.2080   -0.0392    3.5010 H   0  0  0  0  0  0  0  0  0  0  0  0
   -1.2630   -0.1628    1.9991 H   0  0  0  0  0  0  0  0  0  0  0  0
   -1.8867    1.4160    2.5247 H   0  0  0  0  0  0  0  0  0  0  0  0
    1.6549    5.0634    8.7080 N   0  0  0  0  0  0  0  0  0  0  0  0
    1.0935    3.1259    7.8228 N   0  0  0  0  0  0  0  0  0  0  0  0
    0.3744    2.4565    7.5598 H   0  0  0  0  0  0  0  0  0  0  0  0
    1.2134    1.7576    4.8274 N   0  0  0  0  0  0  0  0  0  0  0  0
    1.7545    2.5318    5.1695 H   0  0  0  0  0  0  0  0  0  0  0  0
   -0.2697    0.7209    3.5940 N   0  0  0  0  0  0  0  0  0  0  0  0
   -0.3610    5.2407    6.9916 S   0  0  0  0  0  0  0  0  0  0  0  0
   -0.4961    3.3970    3.5988 S   0  0  0  0  0  0  0  0  0  0  0  0
   -2.0465    3.5837    5.7576 Zn  0  0  0  0  0  0  0  0  0  0  0  0
   -4.2333    4.6917    5.2290 I   0  0  0  0  0  0  0  0  0  0  0  0
   -1.7852    1.2418    6.9272 I   0  0  0  0  0  0  0  0  0  0  0  0
  1 29  1  6  0  0  0
  1 23  1  0  0  0  0
  2  3  1  0  0  0  0
  4  2  1  0  0  0  0
  5  2  1  0  0  0  0
  5  7  1  0  0  0  0
  6  5  1  0  0  0  0
  8 10  1  0  0  0  0
  9  8  1  0  0  0  0
 11  8  1  0  0  0  0
 12 30  1  6  0  0  0
 12 26  1  0  0  0  0
 13 14  1  0  0  0  0
 15 13  1  0  0  0  0
 16 18  1  0  0  0  0
 16 13  1  0  0  0  0
 17 16  1  0  0  0  0
 19 20  1  0  0  0  0
 19 28  1  0  0  0  0
 21 19  1  0  0  0  0
 22 19  1  0  0  0  0
 23  8  1  0  0  0  0
 23  2  1  0  0  0  0
 24  1  1  0  0  0  0
 24  5  1  0  0  0  0
 25 24  1  0  0  0  0
 26 13  1  0  0  0  0
 26 27  1  0  0  0  0
 28 12  1  0  0  0  0
 28 16  1  0  0  0  0
 30 31  1  0  0  0  0
 31 33  1  0  0  0  0
 31 29  1  0  0  0  0
 32 31  1  0  0  0  0
M  END
$$$$
