CSD_code = KOXVUQ | q = 0 | S = 0 | Stoichiometry = C15H10AuCl2N | MND = 4
 OpenBabel04212202063D

 29 32  0  0  0  0  0  0  0  0999 V2000
    2.1700    3.1632    4.5796 C   0  0  0  0  0  3  0  0  0  0  0  0
    1.7529    4.0511    5.0268 H   0  0  0  0  0  0  0  0  0  0  0  0
    1.9216    1.9143    5.1052 C   0  0  0  0  0  0  0  0  0  0  0  0
    1.2792    1.8098    5.9633 H   0  0  0  0  0  0  0  0  0  0  0  0
    2.5190    0.8164    4.5002 C   0  0  0  0  0  0  0  0  0  0  0  0
    2.3522   -0.1814    4.8765 H   0  0  0  0  0  0  0  0  0  0  0  0
    3.3173    1.0191    3.3953 C   0  0  0  0  0  0  0  0  0  0  0  0
    3.7494    0.1758    2.8831 H   0  0  0  0  0  0  0  0  0  0  0  0
    3.5500    2.3148    2.9117 C   0  0  0  0  0  0  0  0  0  0  0  0
    4.3174    2.4882    1.6777 C   0  0  0  0  0  0  0  0  0  0  0  0
    5.2297    1.5168    1.3052 C   0  0  0  0  0  0  0  0  0  0  0  0
    5.5495    0.7746    2.0206 H   0  0  0  0  0  0  0  0  0  0  0  0
    5.7621    1.4681    0.0160 C   0  0  0  0  0  0  0  0  0  0  0  0
    6.4885    0.7087   -0.2296 H   0  0  0  0  0  0  0  0  0  0  0  0
    5.3073    2.3365   -0.9382 C   0  0  0  0  0  3  0  0  0  0  0  0
    5.6334    2.2509   -1.9641 H   0  0  0  0  0  0  0  0  0  0  0  0
    4.4249    3.3799   -0.5972 C   0  0  0  0  0  0  0  0  0  0  0  0
    3.9608    4.2891   -1.5699 C   0  0  0  0  0  0  0  0  0  0  0  0
    4.2617    4.1429   -2.5968 H   0  0  0  0  0  0  0  0  0  0  0  0
    3.1608    5.3363   -1.2160 C   0  0  0  0  0  0  0  0  0  0  0  0
    2.7820    6.0214   -1.9586 H   0  0  0  0  0  0  0  0  0  0  0  0
    2.8954    5.5843    0.1402 C   0  0  0  0  0  0  0  0  0  0  0  0
    2.3757    6.4894    0.4095 H   0  0  0  0  0  0  0  0  0  0  0  0
    3.3399    4.7278    1.1104 C   0  0  0  0  0  0  0  0  0  0  0  0
    4.0161    3.5422    0.7598 C   0  0  0  0  0  0  0  0  0  0  0  0
    2.9647    3.3527    3.5254 N   0  0  0  0  0  0  0  0  0  0  0  0
    3.6513    5.7406    5.3080 Cl  0  0  0  0  0  0  0  0  0  0  0  0
    4.0023    7.3190    2.4232 Cl  0  0  0  0  0  0  0  0  0  0  0  0
    3.4378    5.2579    3.0376 Au  0  0  0  0  0  0  0  0  0  0  0  0
  1  2  1  0  0  0  0
  1  3  1  0  0  0  0
  3  4  1  0  0  0  0
  5  6  1  0  0  0  0
  5  3  2  0  0  0  0
  7  5  1  0  0  0  0
  8  7  1  0  0  0  0
  9  7  2  0  0  0  0
  9 26  1  0  0  0  0
 10  9  1  0  0  0  0
 11 10  1  0  0  0  0
 11 12  1  0  0  0  0
 13 11  2  0  0  0  0
 14 13  1  0  0  0  0
 15 17  1  0  0  0  0
 15 13  1  0  0  0  0
 16 15  1  0  0  0  0
 17 25  1  0  0  0  0
 18 20  1  0  0  0  0
 18 17  2  0  0  0  0
 19 18  1  0  0  0  0
 20 22  2  0  0  0  0
 21 20  1  0  0  0  0
 22 23  1  0  0  0  0
 22 24  1  0  0  0  0
 24 29  2  0  0  0  0
 25 24  1  0  0  0  0
 25 10  2  0  0  0  0
 26  1  1  0  0  0  0
 28 29  1  0  0  0  0
 29 26  1  0  0  0  0
 29 27  1  0  0  0  0
M  END
$$$$
