CSD_code = KOXWAX | q = 0 | S = 0 | Stoichiometry = C20H15ClN2Pd | MND = 4
 OpenBabel04212202063D

 39 43  0  0  0  0  0  0  0  0999 V2000
    6.9635    5.8837    5.4338 Pd  0  0  2  0  0  0  0  0  0  0  0  0
    9.2691    5.5620    5.5690 Cl  0  0  0  0  0  0  0  0  0  0  0  0
    7.7773    5.2567    2.6918 C   0  0  0  0  0  0  0  0  0  0  0  0
    8.7671    5.2266    3.1371 H   0  0  0  0  0  0  0  0  0  0  0  0
    7.6091    5.1827    1.3198 C   0  0  0  0  0  0  0  0  0  0  0  0
    8.4656    5.0749    0.6744 H   0  0  0  0  0  0  0  0  0  0  0  0
    6.3258    5.2966    0.8057 C   0  0  0  0  0  0  0  0  0  0  0  0
    6.1586    5.3083   -0.2611 H   0  0  0  0  0  0  0  0  0  0  0  0
    5.2607    5.4085    1.6787 C   0  0  0  0  0  0  0  0  0  0  0  0
    4.2634    5.5545    1.2986 H   0  0  0  0  0  0  0  0  0  0  0  0
    5.4839    5.3912    3.0582 C   0  0  0  0  0  0  0  0  0  0  0  0
    4.4646    5.5383    4.0916 C   0  0  0  0  0  0  0  0  0  0  0  0
    4.9668    6.0203    5.3051 C   0  0  0  0  0  0  0  0  0  0  0  0
    4.0500    6.4189    6.2986 C   0  0  0  0  0  0  0  0  0  0  0  0
    4.4149    6.8233    7.2372 H   0  0  0  0  0  0  0  0  0  0  0  0
    2.6996    6.3462    6.0852 C   0  0  0  0  0  0  0  0  0  0  0  0
    2.0052    6.7141    6.8287 H   0  0  0  0  0  0  0  0  0  0  0  0
    2.1797    5.7373    4.9241 C   0  0  0  0  0  0  0  0  0  0  0  0
    3.0735    5.2700    3.9223 C   0  0  0  0  0  0  0  0  0  0  0  0
    2.5358    4.4976    2.8719 C   0  0  0  0  0  0  0  0  0  0  0  0
    3.2004    4.0082    2.1773 H   0  0  0  0  0  0  0  0  0  0  0  0
    1.1862    4.2980    2.7579 C   0  0  0  0  0  0  0  0  0  0  0  0
    0.7969    3.6959    1.9495 H   0  0  0  0  0  0  0  0  0  0  0  0
    0.3004    4.8532    3.6905 C   0  0  0  0  0  0  0  0  0  0  0  0
   -0.7628    4.7031    3.5737 H   0  0  0  0  0  0  0  0  0  0  0  0
    0.7930    5.5408    4.7638 C   0  0  0  0  0  0  0  0  0  0  0  0
    0.1269    5.9264    5.5228 H   0  0  0  0  0  0  0  0  0  0  0  0
    7.4826    7.7322    7.5577 C   0  0  0  0  0  3  0  0  0  0  0  0
    7.3705    8.4471    6.7444 H   0  0  0  0  0  0  0  0  0  0  0  0
    7.9617    8.1200    8.7965 C   0  0  0  0  0  0  0  0  0  0  0  0
    8.2337    9.1487    8.9722 H   0  0  0  0  0  0  0  0  0  0  0  0
    8.0953    7.1653    9.7934 C   0  0  0  0  0  0  0  0  0  0  0  0
    8.4751    7.4340   10.7672 H   0  0  0  0  0  0  0  0  0  0  0  0
    7.7365    5.8562    9.5083 C   0  0  0  0  0  0  0  0  0  0  0  0
    7.8302    5.0802   10.2514 H   0  0  0  0  0  0  0  0  0  0  0  0
    7.2653    5.5512    8.2439 C   0  0  0  0  0  0  0  0  0  0  0  0
    6.9827    4.5348    7.9733 H   0  0  0  0  0  0  0  0  0  0  0  0
    6.7541    5.3708    3.5331 N   0  0  0  0  0  0  0  0  0  0  0  0
    7.1439    6.4718    7.2876 N   0  0  0  0  0  0  0  0  0  0  0  0
  1  2  1  1  0  0  0
  1 39  1  0  0  0  0
  3  4  1  0  0  0  0
  3 38  1  0  0  0  0
  5  3  2  0  0  0  0
  6  5  1  0  0  0  0
  7  5  1  0  0  0  0
  7  9  2  0  0  0  0
  8  7  1  0  0  0  0
  9 11  1  0  0  0  0
 10  9  1  0  0  0  0
 11 38  1  0  0  0  0
 11 12  2  0  0  0  0
 12 13  1  0  0  0  0
 13  1  2  0  0  0  0
 13 14  1  0  0  0  0
 14 15  1  0  0  0  0
 16 14  2  0  0  0  0
 16 17  1  0  0  0  0
 18 16  1  0  0  0  0
 19 12  1  0  0  0  0
 19 18  2  0  0  0  0
 20 19  1  0  0  0  0
 21 20  1  0  0  0  0
 22 20  2  0  0  0  0
 22 24  1  0  0  0  0
 23 22  1  0  0  0  0
 24 26  2  0  0  0  0
 25 24  1  0  0  0  0
 26 18  1  0  0  0  0
 26 27  1  0  0  0  0
 28 30  1  0  0  0  0
 29 28  1  0  0  0  0
 30 31  1  0  0  0  0
 30 32  2  0  0  0  0
 32 33  1  0  0  0  0
 34 32  1  0  0  0  0
 34 35  1  0  0  0  0
 36 34  2  0  0  0  0
 37 36  1  0  0  0  0
 38  1  1  0  0  0  0
 39 28  1  0  0  0  0
 39 36  1  0  0  0  0
M  END
$$$$
