CSD_code = KOXXEA | q = 0 | S = 0 | Stoichiometry = C22H28Cl2Ti | MND = 12
 OpenBabel04212202063D

 53 57  0  0  1  0  0  0  0  0999 V2000
    7.2716   11.5887   14.6723 Ti  0  0  0  0  0  0  0  0  0  0  0  0
    5.8940   10.2817   15.8246 Cl  0  0  0  0  0  0  0  0  0  0  0  0
    6.4925   13.4215   15.6774 Cl  0  0  0  0  0  0  0  0  0  0  0  0
    9.5573   11.3947   14.2262 C   0  0  0  0  0  0  0  0  0  0  0  0
    9.3993   12.4645   15.1377 C   0  0  0  0  0  0  0  0  0  0  0  0
    8.9365   11.9460   16.3717 C   0  0  0  0  0  0  0  0  0  0  0  0
    8.7549   10.5658   16.2205 C   0  0  0  0  0  0  0  0  0  0  0  0
    9.0825   10.2254   14.8864 C   0  0  1  0  0  0  0  0  0  0  0  0
    7.7769   11.8079   12.3779 C   0  0  0  0  0  0  0  0  0  0  0  0
    6.8076   12.7554   12.7910 C   0  0  1  0  0  0  0  0  0  0  0  0
    5.6132   12.0644   13.1210 C   0  0  0  0  0  0  0  0  0  0  0  0
    5.8455   10.6906   12.9346 C   0  0  0  0  0  0  0  0  0  0  0  0
    7.1781   10.5284   12.5147 C   0  0  0  0  0  0  0  0  0  0  0  0
    9.1637   12.0707   11.8201 C   0  0  0  0  0  0  0  0  0  0  0  0
    9.2860   11.3972   10.4357 C   0  0  0  0  0  0  0  0  0  0  0  0
    8.3216   11.9870    9.4102 C   0  0  0  0  0  0  0  0  0  0  0  0
    8.6261   13.4613    9.1927 C   0  0  0  0  0  0  0  0  0  0  0  0
    8.4566   14.1903   10.5175 C   0  0  0  0  0  0  0  0  0  0  0  0
    9.3596   13.5870   11.5987 C   0  0  0  0  0  0  0  0  0  0  0  0
   10.2247   11.4750   12.8642 C   0  0  0  0  0  0  0  0  0  0  0  0
   11.4889   12.3560   12.9754 C   0  0  0  0  0  0  0  0  0  0  0  0
   12.5125   11.7902   13.9581 C   0  0  0  0  0  0  0  0  0  0  0  0
   12.9786   10.4130   13.5102 C   0  0  0  0  0  0  0  0  0  0  0  0
   11.7692    9.4944   13.4171 C   0  0  0  0  0  0  0  0  0  0  0  0
   10.7243   10.0697   12.4576 C   0  0  0  0  0  0  0  0  0  0  0  0
    9.7059   13.4912   14.9875 H   0  0  0  0  0  0  0  0  0  0  0  0
    8.8095   12.5116   17.2857 H   0  0  0  0  0  0  0  0  0  0  0  0
    8.4754    9.8683   16.9996 H   0  0  0  0  0  0  0  0  0  0  0  0
    9.1077    9.2093   14.5158 H   0  0  0  0  0  0  0  0  0  0  0  0
    6.8936   13.8332   12.7885 H   0  0  0  0  0  0  0  0  0  0  0  0
    4.6672   12.5248   13.3796 H   0  0  0  0  0  0  0  0  0  0  0  0
    5.1132    9.9008   13.0367 H   0  0  0  0  0  0  0  0  0  0  0  0
    7.6080    9.5855   12.2068 H   0  0  0  0  0  0  0  0  0  0  0  0
    9.0921   10.3289   10.5105 H   0  0  0  0  0  0  0  0  0  0  0  0
   10.3034   11.5381   10.0648 H   0  0  0  0  0  0  0  0  0  0  0  0
    7.2945   11.8720    9.7627 H   0  0  0  0  0  0  0  0  0  0  0  0
    8.4204   11.4371    8.4720 H   0  0  0  0  0  0  0  0  0  0  0  0
    9.6496   13.5754    8.8274 H   0  0  0  0  0  0  0  0  0  0  0  0
    7.9534   13.8840    8.4445 H   0  0  0  0  0  0  0  0  0  0  0  0
    8.7169   15.2453   10.4039 H   0  0  0  0  0  0  0  0  0  0  0  0
    7.4067   14.1359   10.7996 H   0  0  0  0  0  0  0  0  0  0  0  0
   10.3842   13.7645   11.2736 H   0  0  0  0  0  0  0  0  0  0  0  0
    9.2020   14.1220   12.5386 H   0  0  0  0  0  0  0  0  0  0  0  0
   11.2330   13.3637   13.2960 H   0  0  0  0  0  0  0  0  0  0  0  0
   11.9594   12.4179   11.9916 H   0  0  0  0  0  0  0  0  0  0  0  0
   13.3616   12.4744   14.0179 H   0  0  0  0  0  0  0  0  0  0  0  0
   12.0672   11.7189   14.9525 H   0  0  0  0  0  0  0  0  0  0  0  0
   13.4664   10.4880   12.5353 H   0  0  0  0  0  0  0  0  0  0  0  0
   13.7041   10.0088   14.2183 H   0  0  0  0  0  0  0  0  0  0  0  0
   11.3522    9.3690   14.4163 H   0  0  0  0  0  0  0  0  0  0  0  0
   12.0712    8.5096   13.0527 H   0  0  0  0  0  0  0  0  0  0  0  0
   11.1965   10.1330   11.4775 H   0  0  0  0  0  0  0  0  0  0  0  0
    9.8901    9.3720   12.3815 H   0  0  0  0  0  0  0  0  0  0  0  0
  1  8  1  0  0  0  0
  1  3  1  0  0  0  0
  1  2  1  0  0  0  0
  4  8  1  0  0  0  0
  4  5  2  0  0  0  0
  5  6  1  0  0  0  0
  6 27  1  0  0  0  0
  7  6  2  0  0  0  0
  7 28  1  0  0  0  0
  8 29  1  6  0  0  0
  8  7  1  0  0  0  0
  9 13  2  0  0  0  0
  9 10  1  0  0  0  0
 10 30  1  6  0  0  0
 10 11  1  0  0  0  0
 10  1  1  0  0  0  0
 11 31  1  0  0  0  0
 12 32  1  0  0  0  0
 12 11  2  0  0  0  0
 13 12  1  0  0  0  0
 14  9  1  0  0  0  0
 14 20  1  0  0  0  0
 15 34  1  0  0  0  0
 15 14  1  0  0  0  0
 16 36  1  0  0  0  0
 16 15  1  0  0  0  0
 17 16  1  0  0  0  0
 17 18  1  0  0  0  0
 18 41  1  0  0  0  0
 18 19  1  0  0  0  0
 19 14  1  0  0  0  0
 19 43  1  0  0  0  0
 20 21  1  0  0  0  0
 20  4  1  0  0  0  0
 21 44  1  0  0  0  0
 21 22  1  0  0  0  0
 22 46  1  0  0  0  0
 22 47  1  0  0  0  0
 23 22  1  0  0  0  0
 23 49  1  0  0  0  0
 24 23  1  0  0  0  0
 24 50  1  0  0  0  0
 25 20  1  0  0  0  0
 25 24  1  0  0  0  0
 26  5  1  0  0  0  0
 33 13  1  0  0  0  0
 35 15  1  0  0  0  0
 37 16  1  0  0  0  0
 38 17  1  0  0  0  0
 39 17  1  0  0  0  0
 40 18  1  0  0  0  0
 42 19  1  0  0  0  0
 45 21  1  0  0  0  0
 48 23  1  0  0  0  0
 51 24  1  0  0  0  0
 52 25  1  0  0  0  0
 53 25  1  0  0  0  0
M  END
$$$$
