CSD_code = KOYCIK | q = 0 | S = 0 | Stoichiometry = C12H16AuClN2OS | MND = 2
 OpenBabel04212202063D

 34 34  0  0  1  0  0  0  0  0999 V2000
    1.5670   -0.0023    2.7356 Au  0  0  0  0  0  0  0  0  0  0  0  0
    1.6966   -0.7430    0.5016 S   0  0  0  0  0  0  0  0  0  0  0  0
    1.8674    0.3889    4.9492 Cl  0  0  0  0  0  0  0  0  0  0  0  0
    5.9267   -1.0685    1.0676 O   0  0  0  0  0  0  0  0  0  0  0  0
    3.8290   -1.7366    1.6966 N   0  0  0  0  0  0  0  0  0  0  0  0
    3.6010   -2.1851   -0.6032 N   0  0  0  0  0  0  0  0  0  0  0  0
    5.4201   -1.1529    3.3930 C   0  0  0  0  0  0  0  0  0  0  0  0
    4.7191   -1.8311    4.3900 C   0  0  0  0  0  0  0  0  0  0  0  0
    4.9886   -1.5709    5.7193 C   0  0  0  0  0  0  0  0  0  0  0  0
    5.9501   -0.6354    6.0667 C   0  0  0  0  0  0  0  0  0  0  0  0
    6.6672    0.0237    5.0815 C   0  0  0  0  0  0  0  0  0  0  0  0
    6.4093   -0.2369    3.7500 C   0  0  0  0  0  0  0  0  0  0  0  0
    5.1447   -1.3161    1.9521 C   0  0  0  0  0  0  0  0  0  0  0  0
    3.1533   -1.6144    0.5022 C   0  0  1  0  0  3  0  0  0  0  0  0
    2.8834   -2.0051   -1.8536 C   0  0  0  0  0  0  0  0  0  0  0  0
    1.7290   -2.9914   -2.0027 C   0  0  0  0  0  0  0  0  0  0  0  0
    4.6590   -3.1834   -0.6202 C   0  0  0  0  0  0  0  0  0  0  0  0
    5.8913   -2.7467   -1.4050 C   0  0  0  0  0  0  0  0  0  0  0  0
    3.2062   -1.5644    2.4930 H   0  0  0  0  0  0  0  0  0  0  0  0
    3.9788   -2.5775    4.1395 H   0  0  0  0  0  0  0  0  0  0  0  0
    4.4348   -2.0886    6.4866 H   0  0  0  0  0  0  0  0  0  0  0  0
    6.1391   -0.4202    7.1074 H   0  0  0  0  0  0  0  0  0  0  0  0
    7.4205    0.7484    5.3507 H   0  0  0  0  0  0  0  0  0  0  0  0
    6.9476    0.2748    2.9664 H   0  0  0  0  0  0  0  0  0  0  0  0
    2.4979   -0.9845   -1.8862 H   0  0  0  0  0  0  0  0  0  0  0  0
    3.5960   -2.1371   -2.6676 H   0  0  0  0  0  0  0  0  0  0  0  0
    1.2339   -2.8241   -2.9545 H   0  0  0  0  0  0  0  0  0  0  0  0
    1.0037   -2.8477   -1.2073 H   0  0  0  0  0  0  0  0  0  0  0  0
    2.0849   -4.0184   -1.9740 H   0  0  0  0  0  0  0  0  0  0  0  0
    4.9440   -3.4113    0.4065 H   0  0  0  0  0  0  0  0  0  0  0  0
    4.2387   -4.0898   -1.0696 H   0  0  0  0  0  0  0  0  0  0  0  0
    6.6446   -3.5265   -1.3366 H   0  0  0  0  0  0  0  0  0  0  0  0
    6.2973   -1.8345   -0.9800 H   0  0  0  0  0  0  0  0  0  0  0  0
    5.6639   -2.5836   -2.4549 H   0  0  0  0  0  0  0  0  0  0  0  0
  1  3  1  0  0  0  0
  2  1  1  0  0  0  0
  4 13  2  0  0  0  0
  5 13  1  0  0  0  0
  5 19  1  0  0  0  0
  6 14  1  0  0  0  0
  7 12  2  0  0  0  0
  7  8  1  0  0  0  0
  8  9  2  0  0  0  0
  9 10  1  0  0  0  0
  9 21  1  0  0  0  0
 10 22  1  0  0  0  0
 11 23  1  0  0  0  0
 11 10  2  0  0  0  0
 12 11  1  0  0  0  0
 13  7  1  0  0  0  0
 14  2  1  1  0  0  0
 14  5  1  0  0  0  0
 15  6  1  0  0  0  0
 16 29  1  0  0  0  0
 16 15  1  0  0  0  0
 16 28  1  0  0  0  0
 17  6  1  0  0  0  0
 17 30  1  0  0  0  0
 18 32  1  0  0  0  0
 18 33  1  0  0  0  0
 18 17  1  0  0  0  0
 20  8  1  0  0  0  0
 24 12  1  0  0  0  0
 25 15  1  0  0  0  0
 26 15  1  0  0  0  0
 27 16  1  0  0  0  0
 31 17  1  0  0  0  0
 34 18  1  0  0  0  0
M  END
$$$$
