CSD_code = KUBGEV | q = 0 | S = 0 | Stoichiometry = C33H28AgClN2 | MND = 2
 OpenBabel04212202063D

 65 71  0  0  1  0  0  0  0  0999 V2000
    8.9949   -3.9633    4.5350 Ag  0  0  0  0  0  0  0  0  0  0  0  0
    6.7863   -4.2927    4.1102 Cl  0  0  0  0  0  0  0  0  0  0  0  0
   11.6205   -2.9633    6.0287 N   0  0  0  0  0  0  0  0  0  0  0  0
   12.1410   -4.0342    4.2442 N   0  0  0  0  0  0  0  0  0  0  0  0
   11.0863   -3.6359    4.9881 C   0  0  2  0  0  3  0  0  0  0  0  0
   13.3123   -3.6020    4.7991 C   0  0  0  0  0  0  0  0  0  0  0  0
   14.2788   -3.7957    4.3847 H   0  0  0  0  0  0  0  0  0  0  0  0
   12.9837   -2.9191    5.9217 C   0  0  0  0  0  0  0  0  0  0  0  0
   13.6230   -2.4247    6.6221 H   0  0  0  0  0  0  0  0  0  0  0  0
   10.8164   -2.2998    7.0377 C   0  0  0  0  0  0  0  0  0  0  0  0
   10.3374   -0.9416    6.5496 C   0  0  0  0  0  0  0  0  0  0  0  0
   11.0862    0.1082    6.0673 C   0  0  0  0  0  0  0  0  0  0  0  0
   12.1579    0.0247    5.9508 H   0  0  0  0  0  0  0  0  0  0  0  0
   10.4319    1.2832    5.7180 C   0  0  0  0  0  0  0  0  0  0  0  0
   11.0013    2.1157    5.3320 H   0  0  0  0  0  0  0  0  0  0  0  0
    9.0584    1.3971    5.8608 C   0  0  0  0  0  0  0  0  0  0  0  0
    8.5711    2.3213    5.5870 H   0  0  0  0  0  0  0  0  0  0  0  0
    8.3013    0.3401    6.3418 C   0  0  0  0  0  0  0  0  0  0  0  0
    7.2305    0.4290    6.4399 H   0  0  0  0  0  0  0  0  0  0  0  0
    8.9468   -0.8364    6.6819 C   0  0  0  0  0  0  0  0  0  0  0  0
    8.4272   -2.1122    7.1547 C   0  0  0  0  0  0  0  0  0  0  0  0
    7.1276   -2.5193    7.4080 C   0  0  0  0  0  0  0  0  0  0  0  0
    6.3031   -1.8330    7.2926 H   0  0  0  0  0  0  0  0  0  0  0  0
    6.9052   -3.8318    7.7911 C   0  0  0  0  0  0  0  0  0  0  0  0
    5.8976   -4.1696    7.9788 H   0  0  0  0  0  0  0  0  0  0  0  0
    7.9589   -4.7244    7.9100 C   0  0  0  0  0  0  0  0  0  0  0  0
    7.7631   -5.7480    8.1924 H   0  0  0  0  0  0  0  0  0  0  0  0
    9.2677   -4.3232    7.6648 C   0  0  0  0  0  0  0  0  0  0  0  0
   10.0779   -5.0325    7.7560 H   0  0  0  0  0  0  0  0  0  0  0  0
    9.4990   -3.0102    7.2965 C   0  0  0  0  0  0  0  0  0  0  0  0
   11.5876   -2.0817    8.3566 C   0  0  0  0  0  0  0  0  0  0  0  0
   12.4316   -1.4165    8.1613 H   0  0  0  0  0  0  0  0  0  0  0  0
   10.9140   -1.5502    9.0325 H   0  0  0  0  0  0  0  0  0  0  0  0
   12.0728   -3.3568    9.0356 C   0  0  0  0  0  0  0  0  0  0  0  0
   12.7187   -3.1003    9.8727 H   0  0  0  0  0  0  0  0  0  0  0  0
   11.2331   -3.9287    9.4195 H   0  0  0  0  0  0  0  0  0  0  0  0
   12.6368   -3.9841    8.3487 H   0  0  0  0  0  0  0  0  0  0  0  0
   11.9648   -4.8270    3.0347 C   0  0  0  0  0  0  0  0  0  0  0  0
   11.1326   -6.0597    3.3401 C   0  0  0  0  0  0  0  0  0  0  0  0
   11.4283   -7.1034    4.1886 C   0  0  0  0  0  0  0  0  0  0  0  0
   12.3447   -7.1143    4.7625 H   0  0  0  0  0  0  0  0  0  0  0  0
   10.5181   -8.1488    4.2952 C   0  0  0  0  0  0  0  0  0  0  0  0
   10.7316   -8.9742    4.9583 H   0  0  0  0  0  0  0  0  0  0  0  0
    9.3431   -8.1430    3.5613 C   0  0  0  0  0  0  0  0  0  0  0  0
    8.6513   -8.9661    3.6602 H   0  0  0  0  0  0  0  0  0  0  0  0
    9.0393   -7.0947    2.7051 C   0  0  0  0  0  0  0  0  0  0  0  0
    8.1194   -7.0899    2.1424 H   0  0  0  0  0  0  0  0  0  0  0  0
    9.9374   -6.0447    2.6031 C   0  0  0  0  0  0  0  0  0  0  0  0
    9.9023   -4.8246    1.8001 C   0  0  0  0  0  0  0  0  0  0  0  0
    8.9609   -4.3537    0.8994 C   0  0  0  0  0  0  0  0  0  0  0  0
    8.0579   -4.9101    0.7045 H   0  0  0  0  0  0  0  0  0  0  0  0
    9.1985   -3.1408    0.2697 C   0  0  0  0  0  0  0  0  0  0  0  0
    8.4720   -2.7531   -0.4287 H   0  0  0  0  0  0  0  0  0  0  0  0
   10.3502   -2.4152    0.5271 C   0  0  0  0  0  0  0  0  0  0  0  0
   10.5110   -1.4703    0.0295 H   0  0  0  0  0  0  0  0  0  0  0  0
   11.3040   -2.8881    1.4212 C   0  0  0  0  0  0  0  0  0  0  0  0
   12.2009   -2.3173    1.6180 H   0  0  0  0  0  0  0  0  0  0  0  0
   11.0745   -4.0923    2.0486 C   0  0  0  0  0  0  0  0  0  0  0  0
   13.3121   -5.2030    2.4012 C   0  0  0  0  0  0  0  0  0  0  0  0
   13.8510   -4.2894    2.1396 H   0  0  0  0  0  0  0  0  0  0  0  0
   13.9036   -5.7651    3.1278 H   0  0  0  0  0  0  0  0  0  0  0  0
   13.1306   -6.0487    1.1457 C   0  0  0  0  0  0  0  0  0  0  0  0
   14.1014   -6.2946    0.7221 H   0  0  0  0  0  0  0  0  0  0  0  0
   12.6096   -6.9743    1.3781 H   0  0  0  0  0  0  0  0  0  0  0  0
   12.5538   -5.5081    0.3993 H   0  0  0  0  0  0  0  0  0  0  0  0
  2  1  1  0  0  0  0
  3 10  1  0  0  0  0
  4  6  1  0  0  0  0
  4  5  1  0  0  0  0
  5  1  1  6  0  0  0
  5  3  1  0  0  0  0
  6  8  2  0  0  0  0
  7  6  1  0  0  0  0
  8  3  1  0  0  0  0
  8  9  1  0  0  0  0
 10 30  1  0  0  0  0
 10 31  1  0  0  0  0
 11 20  1  0  0  0  0
 11 10  1  0  0  0  0
 12 11  2  0  0  0  0
 13 12  1  0  0  0  0
 14 16  2  0  0  0  0
 14 12  1  0  0  0  0
 15 14  1  0  0  0  0
 16 18  1  0  0  0  0
 17 16  1  0  0  0  0
 18 19  1  0  0  0  0
 18 20  2  0  0  0  0
 20 21  1  0  0  0  0
 21 30  2  0  0  0  0
 21 22  1  0  0  0  0
 22 24  2  0  0  0  0
 23 22  1  0  0  0  0
 24 26  1  0  0  0  0
 24 25  1  0  0  0  0
 26 27  1  0  0  0  0
 28 29  1  0  0  0  0
 28 26  2  0  0  0  0
 30 28  1  0  0  0  0
 31 33  1  0  0  0  0
 31 34  1  0  0  0  0
 32 31  1  0  0  0  0
 34 36  1  0  0  0  0
 34 35  1  0  0  0  0
 37 34  1  0  0  0  0
 38 39  1  0  0  0  0
 38  4  1  0  0  0  0
 39 40  1  0  0  0  0
 40 42  2  0  0  0  0
 40 41  1  0  0  0  0
 42 43  1  0  0  0  0
 44 45  1  0  0  0  0
 44 42  1  0  0  0  0
 46 44  2  0  0  0  0
 47 46  1  0  0  0  0
 48 46  1  0  0  0  0
 48 39  2  0  0  0  0
 49 58  1  0  0  0  0
 49 48  1  0  0  0  0
 50 49  2  0  0  0  0
 51 50  1  0  0  0  0
 52 54  2  0  0  0  0
 52 50  1  0  0  0  0
 53 52  1  0  0  0  0
 54 56  1  0  0  0  0
 55 54  1  0  0  0  0
 56 57  1  0  0  0  0
 56 58  2  0  0  0  0
 58 38  1  0  0  0  0
 59 38  1  0  0  0  0
 59 61  1  0  0  0  0
 60 59  1  0  0  0  0
 62 64  1  0  0  0  0
 62 59  1  0  0  0  0
 63 62  1  0  0  0  0
 65 62  1  0  0  0  0
M  END
$$$$
