CSD_code = KUBHOF | q = 1 | S = 0 | Stoichiometry = C19H28BrN2NiO3(1+) | MND = 6
 OpenBabel04212202063D

 54 54  0  0  0  0  0  0  0  0999 V2000
    3.1026    4.3311    2.1729 Br  0  0  0  0  0  0  0  0  0  0  0  0
    0.9990    3.8114    2.5950 Ni  0  0  0  0  0  0  0  0  0  0  0  0
    0.1065    5.6246    1.8375 O   0  0  0  0  0  0  0  0  0  0  0  0
    1.0735    5.4313    4.4433 O   0  0  0  0  0  0  0  0  0  0  0  0
    0.6704    3.1872    0.2752 O   0  0  0  0  0  0  0  0  0  0  0  0
   -0.8089    3.4669    2.8271 N   0  0  0  0  0  0  0  0  0  0  0  0
    1.2127    1.9990    3.1379 N   0  0  0  0  0  0  0  0  0  0  0  0
   -1.2407    5.7436    2.2736 C   0  0  0  0  0  0  0  0  0  0  0  0
   -1.7505    4.3629    2.5837 C   0  0  0  0  0  0  0  0  0  0  0  0
   -3.0956    4.0054    2.6198 C   0  0  0  0  0  0  0  0  0  0  0  0
   -3.4315    2.6883    2.8981 C   0  0  0  0  0  0  0  0  0  0  0  0
   -2.4317    1.7510    3.1163 C   0  0  0  0  0  0  0  0  0  0  0  0
   -1.1099    2.1812    3.0682 C   0  0  0  0  0  0  0  0  0  0  0  0
    0.0829    1.3879    3.2375 C   0  0  0  0  0  0  0  0  0  0  0  0
    2.4118    1.2791    3.2690 C   0  0  0  0  0  0  0  0  0  0  0  0
    2.7891    0.3470    2.2878 C   0  0  0  0  0  0  0  0  0  0  0  0
    3.9687   -0.3567    2.4822 C   0  0  0  0  0  0  0  0  0  0  0  0
    4.7523   -0.1534    3.6017 C   0  0  0  0  0  0  0  0  0  0  0  0
    4.3806    0.7858    4.5468 C   0  0  0  0  0  0  0  0  0  0  0  0
    3.2196    1.5230    4.3925 C   0  0  0  0  0  0  0  0  0  0  0  0
    2.0099    0.1645    1.0069 C   0  0  0  0  0  0  0  0  0  0  0  0
    1.5107   -1.2743    0.8590 C   0  0  0  0  0  0  0  0  0  0  0  0
    2.8918    0.5600   -0.1840 C   0  0  0  0  0  0  0  0  0  0  0  0
    2.7783    2.5185    5.4386 C   0  0  0  0  0  0  0  0  0  0  0  0
    2.1769    1.7785    6.6366 C   0  0  0  0  0  0  0  0  0  0  0  0
    3.9204    3.4361    5.8750 C   0  0  0  0  0  0  0  0  0  0  0  0
    0.5754    6.4585    1.9675 H   0  0  0  0  0  0  0  0  0  0  0  0
    1.9854    5.7458    4.3793 H   0  0  0  0  0  0  0  0  0  0  0  0
    0.9289    5.1867    5.3613 H   0  0  0  0  0  0  0  0  0  0  0  0
    0.3622    3.9494   -0.2250 H   0  0  0  0  0  0  0  0  0  0  0  0
    1.5446    2.9719   -0.0749 H   0  0  0  0  0  0  0  0  0  0  0  0
   -1.8476    6.2137    1.4886 H   0  0  0  0  0  0  0  0  0  0  0  0
   -1.3049    6.3556    3.1824 H   0  0  0  0  0  0  0  0  0  0  0  0
   -3.8570    4.7443    2.4295 H   0  0  0  0  0  0  0  0  0  0  0  0
   -4.4680    2.3914    2.9296 H   0  0  0  0  0  0  0  0  0  0  0  0
   -2.6634    0.7161    3.3079 H   0  0  0  0  0  0  0  0  0  0  0  0
    0.0318    0.3244    3.4535 H   0  0  0  0  0  0  0  0  0  0  0  0
    4.2815   -1.0737    1.7405 H   0  0  0  0  0  0  0  0  0  0  0  0
    5.6607   -0.7197    3.7331 H   0  0  0  0  0  0  0  0  0  0  0  0
    5.0017    0.9427    5.4128 H   0  0  0  0  0  0  0  0  0  0  0  0
    1.1362    0.8237    1.0080 H   0  0  0  0  0  0  0  0  0  0  0  0
    2.3416   -1.9716    0.8033 H   0  0  0  0  0  0  0  0  0  0  0  0
    0.9251   -1.3702   -0.0519 H   0  0  0  0  0  0  0  0  0  0  0  0
    0.8848   -1.5596    1.7023 H   0  0  0  0  0  0  0  0  0  0  0  0
    3.3475    1.5343   -0.0157 H   0  0  0  0  0  0  0  0  0  0  0  0
    2.2982    0.5922   -1.0945 H   0  0  0  0  0  0  0  0  0  0  0  0
    3.6922   -0.1594   -0.3294 H   0  0  0  0  0  0  0  0  0  0  0  0
    1.9882    3.1425    4.9926 H   0  0  0  0  0  0  0  0  0  0  0  0
    1.3248    1.1724    6.3331 H   0  0  0  0  0  0  0  0  0  0  0  0
    1.8458    2.4859    7.3934 H   0  0  0  0  0  0  0  0  0  0  0  0
    2.9183    1.1226    7.0849 H   0  0  0  0  0  0  0  0  0  0  0  0
    4.6811    2.8857    6.4196 H   0  0  0  0  0  0  0  0  0  0  0  0
    3.5434    4.2142    6.5356 H   0  0  0  0  0  0  0  0  0  0  0  0
    4.3845    3.9006    5.0084 H   0  0  0  0  0  0  0  0  0  0  0  0
  1  2  1  0  0  0  0
  2  6  1  0  0  0  0
  2  7  1  0  0  0  0
  3 27  1  0  0  0  0
  3  8  1  0  0  0  0
  4 29  1  0  0  0  0
  6 13  1  0  0  0  0
  7 14  1  0  0  0  0
  7 15  1  0  0  0  0
  8  9  1  0  0  0  0
  8 33  1  0  0  0  0
  9 10  2  0  0  0  0
  9  6  1  0  0  0  0
 10 11  1  0  0  0  0
 11 35  1  0  0  0  0
 11 12  2  0  0  0  0
 12 36  1  0  0  0  0
 13 12  1  0  0  0  0
 13 14  2  0  0  0  0
 14 37  1  0  0  0  0
 15 20  1  0  0  0  0
 16 17  1  0  0  0  0
 16 15  2  0  0  0  0
 17 18  2  0  0  0  0
 18 39  1  0  0  0  0
 18 19  1  0  0  0  0
 19 40  1  0  0  0  0
 20 19  2  0  0  0  0
 20 24  1  0  0  0  0
 21 41  1  0  0  0  0
 21 16  1  0  0  0  0
 22 21  1  0  0  0  0
 22 44  1  0  0  0  0
 23 45  1  0  0  0  0
 23 21  1  0  0  0  0
 24 26  1  0  0  0  0
 24 25  1  0  0  0  0
 25 51  1  0  0  0  0
 25 50  1  0  0  0  0
 26 52  1  0  0  0  0
 26 53  1  0  0  0  0
 28  4  1  0  0  0  0
 30  5  1  0  0  0  0
 31  5  1  0  0  0  0
 32  8  1  0  0  0  0
 34 10  1  0  0  0  0
 38 17  1  0  0  0  0
 42 22  1  0  0  0  0
 43 22  1  0  0  0  0
 46 23  1  0  0  0  0
 47 23  1  0  0  0  0
 48 24  1  0  0  0  0
 49 25  1  0  0  0  0
 54 26  1  0  0  0  0
M  END
$$$$
