CSD_code = KUCWOV | q = 0 | S = 0 | Stoichiometry = C33H31Cl2NP2Pt | MND = 4
 OpenBabel04212202063D

 70 75  0  0  0  0  0  0  0  0999 V2000
    2.1426    2.4901   17.4625 Pt  0  0  0  0  0  0  0  0  0  0  0  0
    3.8898    3.0739   18.8208 P   0  0  0  0  0  4  0  0  0  0  0  0
    0.6599    1.9612   15.8294 Cl  0  0  0  0  0  0  0  0  0  0  0  0
    0.5508    2.2665   19.0658 Cl  0  0  0  0  0  0  0  0  0  0  0  0
    3.9974    2.6617   16.1255 P   0  0  0  0  0  4  0  0  0  0  0  0
    4.9809    3.1827   17.4605 N   0  0  0  0  0  0  0  0  0  0  0  0
    6.3778    2.9260   17.5794 C   0  0  0  0  0  0  0  0  0  0  0  0
    4.6819    1.9349   19.9858 C   0  0  0  0  0  0  0  0  0  0  0  0
    4.6812    1.0753   15.5709 C   0  0  0  0  0  0  0  0  0  0  0  0
    4.3284    3.7791   14.7384 C   0  0  0  0  0  0  0  0  0  0  0  0
    3.9699    4.7247   19.5657 C   0  0  0  0  0  0  0  0  0  0  0  0
    6.8033    1.6039   17.6938 C   0  0  0  0  0  0  0  0  0  0  0  0
    6.0624    0.8181   17.7212 H   0  0  0  0  0  0  0  0  0  0  0  0
    5.8812    0.9768   14.8727 C   0  0  0  0  0  0  0  0  0  0  0  0
    6.4223    1.8725   14.5997 H   0  0  0  0  0  0  0  0  0  0  0  0
    8.1441    1.2919   17.7932 C   0  0  0  0  0  0  0  0  0  0  0  0
    8.4504    0.2605   17.8763 H   0  0  0  0  0  0  0  0  0  0  0  0
    7.3156    3.9620   17.6280 C   0  0  0  0  0  0  0  0  0  0  0  0
    3.9852    0.7687   20.2851 C   0  0  0  0  0  0  0  0  0  0  0  0
    3.0011    0.6217   19.8553 H   0  0  0  0  0  0  0  0  0  0  0  0
    3.9824   -0.0721   15.9296 C   0  0  0  0  0  0  0  0  0  0  0  0
    3.0426    0.0312   16.4673 H   0  0  0  0  0  0  0  0  0  0  0  0
    8.6617    3.6245   17.7236 C   0  0  0  0  0  0  0  0  0  0  0  0
    9.3988    4.4126   17.7509 H   0  0  0  0  0  0  0  0  0  0  0  0
    9.0810    2.3101   17.7930 C   0  0  0  0  0  0  0  0  0  0  0  0
   10.1339    2.0822   17.8639 H   0  0  0  0  0  0  0  0  0  0  0  0
    5.9442    2.1561   20.5301 C   0  0  0  0  0  0  0  0  0  0  0  0
    6.4901    3.0582   20.2926 H   0  0  0  0  0  0  0  0  0  0  0  0
    6.3726   -0.2711   14.5369 C   0  0  0  0  0  0  0  0  0  0  0  0
    7.3041   -0.3532   13.9966 H   0  0  0  0  0  0  0  0  0  0  0  0
    4.4779   -1.3172   15.5869 C   0  0  0  0  0  0  0  0  0  0  0  0
    3.9335   -2.2091   15.8578 H   0  0  0  0  0  0  0  0  0  0  0  0
    5.6732   -1.4148   14.8924 C   0  0  0  0  0  0  0  0  0  0  0  0
    6.0618   -2.3859   14.6235 H   0  0  0  0  0  0  0  0  0  0  0  0
    4.5450   -0.1721   21.1308 C   0  0  0  0  0  0  0  0  0  0  0  0
    4.0029   -1.0747   21.3691 H   0  0  0  0  0  0  0  0  0  0  0  0
    6.9071    5.4135   17.6167 C   0  0  0  0  0  0  0  0  0  0  0  0
    5.8025    0.0473   21.6699 C   0  0  0  0  0  0  0  0  0  0  0  0
    6.2428   -0.6870   22.3281 H   0  0  0  0  0  0  0  0  0  0  0  0
    4.5164    5.4847   12.5544 C   0  0  0  0  0  0  0  0  0  0  0  0
    4.5966    6.1467   11.7053 H   0  0  0  0  0  0  0  0  0  0  0  0
    4.1897    3.2803   13.4440 C   0  0  0  0  0  0  0  0  0  0  0  0
    3.9951    2.2276   13.2947 H   0  0  0  0  0  0  0  0  0  0  0  0
    4.5062    5.1451   14.9285 C   0  0  0  0  0  0  0  0  0  0  0  0
    4.5564    5.5423   15.9302 H   0  0  0  0  0  0  0  0  0  0  0  0
    3.4821    5.7567   18.7651 C   0  0  0  0  0  0  0  0  0  0  0  0
    3.1113    5.5157   17.7736 H   0  0  0  0  0  0  0  0  0  0  0  0
    6.4993    1.2079   21.3697 C   0  0  0  0  0  0  0  0  0  0  0  0
    7.4799    1.3747   21.7907 H   0  0  0  0  0  0  0  0  0  0  0  0
    4.2922    4.1308   12.3595 C   0  0  0  0  0  0  0  0  0  0  0  0
    4.1886    3.7384   11.3588 H   0  0  0  0  0  0  0  0  0  0  0  0
    4.6162    5.9907   13.8401 C   0  0  0  0  0  0  0  0  0  0  0  0
    4.7686    7.0487   13.9950 H   0  0  0  0  0  0  0  0  0  0  0  0
    4.3541    4.9901   20.8741 C   0  0  0  0  0  0  0  0  0  0  0  0
    4.6774    4.1864   21.5196 H   0  0  0  0  0  0  0  0  0  0  0  0
    7.4784    6.1341   16.3943 C   0  0  0  0  0  0  0  0  0  0  0  0
    7.1052    7.1550   16.3548 H   0  0  0  0  0  0  0  0  0  0  0  0
    7.1870    5.6231   15.4792 H   0  0  0  0  0  0  0  0  0  0  0  0
    8.5641    6.1699   16.4374 H   0  0  0  0  0  0  0  0  0  0  0  0
    3.4444    7.0515   19.2418 C   0  0  0  0  0  0  0  0  0  0  0  0
    3.0714    7.8498   18.6174 H   0  0  0  0  0  0  0  0  0  0  0  0
    3.8682    7.3194   20.5353 C   0  0  0  0  0  0  0  0  0  0  0  0
    3.8355    8.3298   20.9147 H   0  0  0  0  0  0  0  0  0  0  0  0
    7.3404    6.1099   18.9088 C   0  0  0  0  0  0  0  0  0  0  0  0
    6.9829    7.1372   18.9133 H   0  0  0  0  0  0  0  0  0  0  0  0
    8.4231    6.1224   19.0055 H   0  0  0  0  0  0  0  0  0  0  0  0
    6.9208    5.6030   19.7753 H   0  0  0  0  0  0  0  0  0  0  0  0
    4.3071    6.2897   21.3505 C   0  0  0  0  0  0  0  0  0  0  0  0
    4.6094    6.4974   22.3664 H   0  0  0  0  0  0  0  0  0  0  0  0
    5.8163    5.4572   17.5740 H   0  0  0  0  0  0  0  0  0  0  0  0
  1  2  1  0  0  0  0
  1  4  1  0  0  0  0
  2 11  1  0  0  0  0
  2  8  1  0  0  0  0
  3  1  1  0  0  0  0
  5  6  1  0  0  0  0
  5  1  1  0  0  0  0
  6  7  1  0  0  0  0
  6  2  1  0  0  0  0
  7 18  2  0  0  0  0
  7 12  1  0  0  0  0
  8 19  2  0  0  0  0
  8 27  1  0  0  0  0
  9 21  1  0  0  0  0
  9  5  1  0  0  0  0
 10 44  1  0  0  0  0
 10  5  1  0  0  0  0
 11 54  1  0  0  0  0
 12 13  1  0  0  0  0
 12 16  2  0  0  0  0
 14  9  2  0  0  0  0
 15 14  1  0  0  0  0
 16 17  1  0  0  0  0
 18 23  1  0  0  0  0
 19 35  1  0  0  0  0
 20 19  1  0  0  0  0
 21 22  1  0  0  0  0
 23 24  1  0  0  0  0
 23 25  2  0  0  0  0
 25 16  1  0  0  0  0
 25 26  1  0  0  0  0
 27 48  2  0  0  0  0
 28 27  1  0  0  0  0
 29 14  1  0  0  0  0
 29 33  2  0  0  0  0
 30 29  1  0  0  0  0
 31 32  1  0  0  0  0
 31 21  2  0  0  0  0
 33 31  1  0  0  0  0
 34 33  1  0  0  0  0
 35 36  1  0  0  0  0
 35 38  2  0  0  0  0
 37 18  1  0  0  0  0
 37 64  1  0  0  0  0
 38 39  1  0  0  0  0
 40 52  1  0  0  0  0
 41 40  1  0  0  0  0
 42 10  2  0  0  0  0
 43 42  1  0  0  0  0
 44 45  1  0  0  0  0
 46 60  1  0  0  0  0
 46 11  2  0  0  0  0
 47 46  1  0  0  0  0
 48 38  1  0  0  0  0
 48 49  1  0  0  0  0
 50 40  2  0  0  0  0
 50 42  1  0  0  0  0
 51 50  1  0  0  0  0
 52 53  1  0  0  0  0
 52 44  2  0  0  0  0
 54 68  2  0  0  0  0
 54 55  1  0  0  0  0
 56 59  1  0  0  0  0
 56 37  1  0  0  0  0
 57 56  1  0  0  0  0
 58 56  1  0  0  0  0
 60 62  2  0  0  0  0
 61 60  1  0  0  0  0
 62 63  1  0  0  0  0
 62 68  1  0  0  0  0
 64 65  1  0  0  0  0
 64 66  1  0  0  0  0
 64 67  1  0  0  0  0
 68 69  1  0  0  0  0
 70 37  1  0  0  0  0
M  END
$$$$
