CSD_code = KUDMEC | q = 0 | S = 0 | Stoichiometry = C12H8BrN3O4Os | MND = 6
 OpenBabel04212202063D

 29 32  0  0  1  0  0  0  0  0999 V2000
    8.8221    4.3515    3.3169 Os  0  0  0  0  0  0  0  0  0  0  0  0
    7.0953    5.9958    3.2454 Br  0  0  0  0  0  0  0  0  0  0  0  0
    8.5008    3.8326    1.4070 O   0  0  0  0  0  0  0  0  0  0  0  0
    8.6860    2.1922   -0.0705 O   0  0  0  0  0  0  0  0  0  0  0  0
    7.5527    2.7932    4.0356 O   0  0  0  0  0  0  0  0  0  0  0  0
    7.0802    1.5011    5.7980 O   0  0  0  0  0  0  0  0  0  0  0  0
   10.1353    5.3701    3.3143 N   0  0  0  0  0  1  0  0  0  0  0  0
    9.9970    2.5452    3.1848 N   0  0  0  0  0  0  0  0  0  0  0  0
    8.7487    4.5800    5.4810 N   0  0  0  0  0  0  0  0  0  0  0  0
    8.9084    2.6813    1.0102 C   0  0  0  0  0  0  0  0  0  0  0  0
    9.7444    1.9148    2.0395 C   0  0  2  0  0  3  0  0  0  0  0  0
   10.2077    0.6315    1.7875 C   0  0  0  0  0  0  0  0  0  0  0  0
    9.9648    0.1779    0.8389 H   0  0  0  0  0  0  0  0  0  0  0  0
   10.9447   -0.0106    2.7672 C   0  0  0  0  0  0  0  0  0  0  0  0
   11.3049   -1.0166    2.6150 H   0  0  0  0  0  0  0  0  0  0  0  0
   11.2106    0.6625    3.9527 C   0  0  0  0  0  0  0  0  0  0  0  0
   11.7852    0.2019    4.7401 H   0  0  0  0  0  0  0  0  0  0  0  0
   10.7186    1.9449    4.1229 C   0  0  0  0  0  0  0  0  0  0  0  0
   10.9077    2.5096    5.0265 H   0  0  0  0  0  0  0  0  0  0  0  0
    7.4881    2.5082    5.2673 C   0  0  0  0  0  0  0  0  0  0  0  0
    8.0556    3.6523    6.1394 C   0  0  2  0  0  3  0  0  0  0  0  0
    7.8301    3.7170    7.5053 C   0  0  0  0  0  0  0  0  0  0  0  0
    7.2657    2.9231    7.9693 H   0  0  0  0  0  0  0  0  0  0  0  0
    8.3241    4.8051    8.2030 C   0  0  0  0  0  0  0  0  0  0  0  0
    8.1515    4.9025    9.2639 H   0  0  0  0  0  0  0  0  0  0  0  0
    9.0384    5.7736    7.5082 C   0  0  0  0  0  0  0  0  0  0  0  0
    9.4351    6.6402    8.0115 H   0  0  0  0  0  0  0  0  0  0  0  0
    9.2355    5.6297    6.1474 C   0  0  0  0  0  0  0  0  0  0  0  0
    9.7840    6.3566    5.5605 H   0  0  0  0  0  0  0  0  0  0  0  0
  1  5  1  0  0  0  0
  1  9  1  0  0  0  0
  2  1  1  0  0  0  0
  3  1  1  0  0  0  0
  4 10  2  0  0  0  0
  5 20  1  0  0  0  0
  7  1  1  0  0  0  0
  8  1  1  0  0  0  0
  8 18  1  0  0  0  0
  9 21  1  0  0  0  0
  9 28  1  0  0  0  0
 10  3  1  0  0  0  0
 11 10  1  1  0  0  0
 11  8  1  0  0  0  0
 12 11  1  0  0  0  0
 12 14  2  0  0  0  0
 13 12  1  0  0  0  0
 14 16  1  0  0  0  0
 15 14  1  0  0  0  0
 16 18  2  0  0  0  0
 16 17  1  0  0  0  0
 18 19  1  0  0  0  0
 20  6  2  0  0  0  0
 21 20  1  6  0  0  0
 21 22  1  0  0  0  0
 22 23  1  0  0  0  0
 22 24  2  0  0  0  0
 24 25  1  0  0  0  0
 26 27  1  0  0  0  0
 26 24  1  0  0  0  0
 28 26  2  0  0  0  0
 29 28  1  0  0  0  0
M  END
$$$$
