CSD_code = KUDSAD | q = 0 | S = 0 | Stoichiometry = C14H13AuCl2N2 | MND = 4
 OpenBabel04212202063D

 32 34  0  0  0  0  0  0  0  0999 V2000
    7.9086    6.1519    5.3109 Au  0  0  0  0  0  0  0  0  0  0  0  0
    7.0676    6.8068    7.2819 Cl  0  0  0  0  0  0  0  0  0  0  0  0
    6.9210    7.9223    4.2016 Cl  0  0  0  0  0  0  0  0  0  0  0  0
    9.1675    4.1158    3.7905 N   0  0  0  0  0  0  0  0  0  0  0  0
    8.7696    5.3054    3.6403 N   0  0  0  0  0  0  0  0  0  0  0  0
    8.6089    4.4519    6.0879 C   0  0  0  0  0  0  0  0  0  0  0  0
    9.1152    3.6310    5.0475 C   0  0  0  0  0  0  0  0  0  0  0  0
    9.5883    2.3430    5.3350 C   0  0  0  0  0  0  0  0  0  0  0  0
    9.5637    1.8867    6.6323 C   0  0  0  0  0  0  0  0  0  0  0  0
    9.0728    2.6865    7.6656 C   0  0  0  0  0  0  0  0  0  0  0  0
    8.5914    3.9674    7.3700 C   0  0  0  0  0  0  0  0  0  0  0  0
    9.0286    2.1844    9.0687 C   0  0  0  0  0  0  0  0  0  0  0  0
    8.7896    5.8564    2.3734 C   0  0  0  0  0  0  0  0  0  0  0  0
    8.5660    5.0478    1.2516 C   0  0  0  0  0  0  0  0  0  0  0  0
    8.5424    5.6090   -0.0033 C   0  0  0  0  0  0  0  0  0  0  0  0
    8.7564    6.9767   -0.1826 C   0  0  0  0  0  0  0  0  0  0  0  0
    9.0163    7.7632    0.9355 C   0  0  0  0  0  0  0  0  0  0  0  0
    9.0319    7.2216    2.2036 C   0  0  0  0  0  0  0  0  0  0  0  0
    8.7293    7.5707   -1.5528 C   0  0  0  0  0  0  0  0  0  0  0  0
    9.9617    1.7354    4.5260 H   0  0  0  0  0  0  0  0  0  0  0  0
    9.9278    0.8952    6.8586 H   0  0  0  0  0  0  0  0  0  0  0  0
    8.2007    4.5871    8.1635 H   0  0  0  0  0  0  0  0  0  0  0  0
    9.7596    1.3956    9.2285 H   0  0  0  0  0  0  0  0  0  0  0  0
    9.2060    2.9923    9.7743 H   0  0  0  0  0  0  0  0  0  0  0  0
    8.0383    1.7771    9.2770 H   0  0  0  0  0  0  0  0  0  0  0  0
    8.3789    3.9951    1.4005 H   0  0  0  0  0  0  0  0  0  0  0  0
    8.3428    4.9857   -0.8627 H   0  0  0  0  0  0  0  0  0  0  0  0
    9.2028    8.8193    0.8125 H   0  0  0  0  0  0  0  0  0  0  0  0
    9.2553    7.8378    3.0582 H   0  0  0  0  0  0  0  0  0  0  0  0
    7.9219    7.1422   -2.1428 H   0  0  0  0  0  0  0  0  0  0  0  0
    8.6042    8.6491   -1.5083 H   0  0  0  0  0  0  0  0  0  0  0  0
    9.6664    7.3558   -2.0677 H   0  0  0  0  0  0  0  0  0  0  0  0
  1  6  2  0  0  0  0
  1  2  1  0  0  0  0
  3  1  1  0  0  0  0
  4  7  2  0  0  0  0
  5  4  1  0  0  0  0
  5  1  1  0  0  0  0
  6 11  1  0  0  0  0
  7  8  1  0  0  0  0
  7  6  1  0  0  0  0
  8  9  2  0  0  0  0
  9 21  1  0  0  0  0
  9 10  1  0  0  0  0
 10 12  1  0  0  0  0
 11 10  2  0  0  0  0
 11 22  1  0  0  0  0
 12 23  1  0  0  0  0
 12 25  1  0  0  0  0
 12 24  1  0  0  0  0
 13  5  1  0  0  0  0
 14 26  1  0  0  0  0
 14 13  2  0  0  0  0
 15 14  1  0  0  0  0
 16 15  2  0  0  0  0
 16 17  1  0  0  0  0
 17 18  2  0  0  0  0
 18 13  1  0  0  0  0
 18 29  1  0  0  0  0
 19 31  1  0  0  0  0
 19 16  1  0  0  0  0
 20  8  1  0  0  0  0
 27 15  1  0  0  0  0
 28 17  1  0  0  0  0
 30 19  1  0  0  0  0
 32 19  1  0  0  0  0
M  END
$$$$
