CSD_code = KUFDOG | q = 1 | S = 0 | Stoichiometry = C25H24ClN4Pt(1+) | MND = 4
 OpenBabel04212202063D

 55 60  0  0  0  0  0  0  0  0999 V2000
    0.8812    2.1068   10.3425 Pt  0  0  1  0  0  0  0  0  0  0  0  0
    2.4370    2.1698   11.9371 Cl  0  0  0  0  0  0  0  0  0  0  0  0
    1.4480    3.7335    9.3259 N   0  0  0  0  0  0  0  0  0  0  0  0
   -0.4423    2.0506    8.9820 N   0  0  0  0  0  0  0  0  0  0  0  0
   -0.0823    0.4625   10.9505 N   0  0  0  0  0  0  0  0  0  0  0  0
   -6.3501    1.8063    3.0092 N   0  0  0  0  0  0  0  0  0  0  0  0
    2.4578    4.5568    9.5922 C   0  0  0  0  0  3  0  0  0  0  0  0
    3.0510    4.3179   10.4664 H   0  0  0  0  0  0  0  0  0  0  0  0
    2.7448    5.6597    8.8053 C   0  0  0  0  0  0  0  0  0  0  0  0
    3.5733    6.2997    9.0598 H   0  0  0  0  0  0  0  0  0  0  0  0
    1.9510    5.9167    7.6976 C   0  0  0  0  0  0  0  0  0  0  0  0
    2.1468    6.7671    7.0637 H   0  0  0  0  0  0  0  0  0  0  0  0
    0.8978    5.0620    7.4159 C   0  0  0  0  0  0  0  0  0  0  0  0
    0.2655    5.2381    6.5613 H   0  0  0  0  0  0  0  0  0  0  0  0
    0.6570    3.9701    8.2418 C   0  0  0  0  0  0  0  0  0  0  0  0
   -0.4342    3.0067    8.0377 C   0  0  0  0  0  0  0  0  0  0  0  0
   -1.3850    2.9866    7.0354 C   0  0  0  0  0  0  0  0  0  0  0  0
   -1.3717    3.7299    6.2569 H   0  0  0  0  0  0  0  0  0  0  0  0
   -2.3601    1.9682    7.0105 C   0  0  0  0  0  0  0  0  0  0  0  0
   -3.3706    1.9247    5.9791 C   0  0  0  0  0  0  0  0  0  0  0  0
   -3.8071    3.0868    5.3240 C   0  0  0  0  0  0  0  0  0  0  0  0
   -3.4139    4.0481    5.6190 H   0  0  0  0  0  0  0  0  0  0  0  0
   -4.7733    3.0509    4.3540 C   0  0  0  0  0  0  0  0  0  0  0  0
   -5.0838    3.9847    3.9168 H   0  0  0  0  0  0  0  0  0  0  0  0
   -5.3783    1.8394    3.9518 C   0  0  0  0  0  0  0  0  0  0  0  0
   -6.6104    2.9511    2.1572 C   0  0  0  0  0  0  0  0  0  0  0  0
   -7.0892    0.5944    2.7200 C   0  0  0  0  0  0  0  0  0  0  0  0
   -4.9233    0.6713    4.6020 C   0  0  0  0  0  0  0  0  0  0  0  0
   -5.3065   -0.2941    4.3190 H   0  0  0  0  0  0  0  0  0  0  0  0
   -3.9670    0.7183    5.5817 C   0  0  0  0  0  0  0  0  0  0  0  0
   -3.6311   -0.2127    6.0131 H   0  0  0  0  0  0  0  0  0  0  0  0
   -2.3205    0.9937    8.0291 C   0  0  0  0  0  0  0  0  0  0  0  0
   -3.0680    0.2194    8.0538 H   0  0  0  0  0  0  0  0  0  0  0  0
   -1.3460    1.0562    9.0062 C   0  0  0  0  0  0  0  0  0  0  0  0
   -1.1345    0.1494   10.1433 C   0  0  0  0  0  0  0  0  0  0  0  0
   -1.9252   -0.9620   10.4113 C   0  0  0  0  0  0  0  0  0  0  0  0
   -2.7553   -1.1981    9.7659 H   0  0  0  0  0  0  0  0  0  0  0  0
   -1.6407   -1.7583   11.5085 C   0  0  0  0  0  0  0  0  0  0  0  0
   -2.2479   -2.6228   11.7262 H   0  0  0  0  0  0  0  0  0  0  0  0
   -0.5652   -1.4245   12.3180 C   0  0  0  0  0  0  0  0  0  0  0  0
    0.1872   -0.3054   12.0024 C   0  0  0  0  0  0  0  0  0  0  0  0
    1.0351   -0.0072   12.6067 H   0  0  0  0  0  0  0  0  0  0  0  0
   -6.4361   -0.2707    1.6418 C   0  0  0  0  0  0  0  0  0  0  0  0
   -5.4793    3.2213    1.1651 C   0  0  0  0  0  0  0  0  0  0  0  0
   -0.3095   -2.0172   13.1806 H   0  0  0  0  0  0  0  0  0  0  0  0
   -5.3435    2.3741    0.4987 H   0  0  0  0  0  0  0  0  0  0  0  0
   -7.2096    0.0225    3.6424 H   0  0  0  0  0  0  0  0  0  0  0  0
   -7.5291    2.7523    1.6038 H   0  0  0  0  0  0  0  0  0  0  0  0
   -6.7892    3.8380    2.7731 H   0  0  0  0  0  0  0  0  0  0  0  0
   -5.7205    4.0952    0.5663 H   0  0  0  0  0  0  0  0  0  0  0  0
   -4.5402    3.4012    1.6818 H   0  0  0  0  0  0  0  0  0  0  0  0
   -6.9942   -1.1959    1.5273 H   0  0  0  0  0  0  0  0  0  0  0  0
   -8.0905    0.8840    2.3902 H   0  0  0  0  0  0  0  0  0  0  0  0
   -5.4097   -0.5119    1.9075 H   0  0  0  0  0  0  0  0  0  0  0  0
   -6.4331    0.2454    0.6857 H   0  0  0  0  0  0  0  0  0  0  0  0
  1  5  1  0  0  0  0
  1  2  1  6  0  0  0
  3  7  1  0  0  0  0
  3  1  1  0  0  0  0
  4 34  1  0  0  0  0
  4  1  1  0  0  0  0
  5 41  1  0  0  0  0
  6 25  1  0  0  0  0
  7  8  1  0  0  0  0
  9 10  1  0  0  0  0
  9  7  1  0  0  0  0
 11  9  2  0  0  0  0
 12 11  1  0  0  0  0
 13 11  1  0  0  0  0
 13 15  2  0  0  0  0
 14 13  1  0  0  0  0
 15  3  1  0  0  0  0
 16 15  1  0  0  0  0
 16  4  1  0  0  0  0
 17 16  2  0  0  0  0
 18 17  1  0  0  0  0
 19 17  1  0  0  0  0
 19 32  2  0  0  0  0
 20 19  1  0  0  0  0
 21 22  1  0  0  0  0
 21 20  2  0  0  0  0
 23 21  1  0  0  0  0
 24 23  1  0  0  0  0
 25 23  2  0  0  0  0
 25 28  1  0  0  0  0
 26 49  1  0  0  0  0
 26  6  1  0  0  0  0
 27  6  1  0  0  0  0
 27 47  1  0  0  0  0
 28 30  2  0  0  0  0
 29 28  1  0  0  0  0
 30 20  1  0  0  0  0
 30 31  1  0  0  0  0
 32 33  1  0  0  0  0
 32 34  1  0  0  0  0
 34 35  2  0  0  0  0
 35 36  1  0  0  0  0
 35  5  1  0  0  0  0
 36 38  2  0  0  0  0
 37 36  1  0  0  0  0
 38 39  1  0  0  0  0
 38 40  1  0  0  0  0
 40 45  1  0  0  0  0
 41 40  2  0  0  0  0
 41 42  1  0  0  0  0
 43 54  1  0  0  0  0
 43 27  1  0  0  0  0
 44 51  1  0  0  0  0
 44 26  1  0  0  0  0
 46 44  1  0  0  0  0
 48 26  1  0  0  0  0
 50 44  1  0  0  0  0
 52 43  1  0  0  0  0
 53 27  1  0  0  0  0
 55 43  1  0  0  0  0
M  END
$$$$
