CSD_code = KUFSAG | q = 0 | S = 0 | Stoichiometry = C19H14Cl2NO3PRu | MND = 6
 OpenBabel04212202063D

 41 44  0  0  0  0  0  0  0  0999 V2000
    6.0094    4.6924    4.5074 Ru  0  0  0  0  0  0  0  0  0  0  0  0
    8.3485    4.3512    4.2999 Cl  0  0  0  0  0  0  0  0  0  0  0  0
    3.7175    4.9000    4.0546 Cl  0  0  0  0  0  0  0  0  0  0  0  0
    6.9449    3.1508    2.1604 P   0  0  0  0  0  4  0  0  0  0  0  0
    5.6127    2.8894    6.8683 O   0  0  0  0  0  1  0  0  0  0  0  0
    6.1007    7.1512    6.1958 O   0  0  0  0  0  1  0  0  0  0  0  0
    5.9953    2.8894    3.2755 O   0  0  0  0  0  0  0  0  0  0  0  0
    6.3153    5.6723    2.7274 N   0  0  0  0  0  0  0  0  0  0  0  0
    5.7645    3.6166    6.0101 C   0  0  0  0  0  2  0  0  0  0  0  0
    6.0729    6.2151    5.5428 C   0  0  0  0  0  2  0  0  0  0  0  0
    6.0577    6.9516    2.4723 C   0  0  0  0  0  3  0  0  0  0  0  0
    5.4976    7.4925    3.2253 H   0  0  0  0  0  0  0  0  0  0  0  0
    6.4672    7.5712    1.3036 C   0  0  0  0  0  0  0  0  0  0  0  0
    6.2425    8.6134    1.1439 H   0  0  0  0  0  0  0  0  0  0  0  0
    7.1625    6.8349    0.3557 C   0  0  0  0  0  0  0  0  0  0  0  0
    7.5016    7.2918   -0.5615 H   0  0  0  0  0  0  0  0  0  0  0  0
    7.3887    5.4913    0.6005 C   0  0  0  0  0  0  0  0  0  0  0  0
    7.8823    4.8591   -0.1222 H   0  0  0  0  0  0  0  0  0  0  0  0
    6.9595    4.9502    1.8033 C   0  0  0  0  0  0  0  0  0  0  0  0
    8.5368    2.2925    2.2149 C   0  0  0  0  0  0  0  0  0  0  0  0
    9.7066    2.7742    1.6474 C   0  0  0  0  0  0  0  0  0  0  0  0
    9.7251    3.7486    1.1821 H   0  0  0  0  0  0  0  0  0  0  0  0
   10.8540    2.0055    1.7180 C   0  0  0  0  0  0  0  0  0  0  0  0
   11.7733    2.3750    1.2884 H   0  0  0  0  0  0  0  0  0  0  0  0
   10.8292    0.7686    2.3437 C   0  0  0  0  0  0  0  0  0  0  0  0
   11.7311    0.1773    2.3986 H   0  0  0  0  0  0  0  0  0  0  0  0
    9.6563    0.2927    2.9071 C   0  0  0  0  0  0  0  0  0  0  0  0
    9.6412   -0.6677    3.4007 H   0  0  0  0  0  0  0  0  0  0  0  0
    8.5039    1.0542    2.8411 C   0  0  0  0  0  0  0  0  0  0  0  0
    7.5769    0.7116    3.2826 H   0  0  0  0  0  0  0  0  0  0  0  0
    6.1579    2.5591    0.6265 C   0  0  0  0  0  0  0  0  0  0  0  0
    6.8570    1.9776   -0.4219 C   0  0  0  0  0  0  0  0  0  0  0  0
    7.9255    1.8301   -0.3421 H   0  0  0  0  0  0  0  0  0  0  0  0
    6.1751    1.5756   -1.5569 C   0  0  0  0  0  0  0  0  0  0  0  0
    6.7140    1.1162   -2.3725 H   0  0  0  0  0  0  0  0  0  0  0  0
    4.8039    1.7572   -1.6456 C   0  0  0  0  0  0  0  0  0  0  0  0
    4.2770    1.4386   -2.5328 H   0  0  0  0  0  0  0  0  0  0  0  0
    4.1064    2.3404   -0.5992 C   0  0  0  0  0  0  0  0  0  0  0  0
    3.0378    2.4782   -0.6685 H   0  0  0  0  0  0  0  0  0  0  0  0
    4.7824    2.7442    0.5371 C   0  0  0  0  0  0  0  0  0  0  0  0
    4.2512    3.1913    1.3681 H   0  0  0  0  0  0  0  0  0  0  0  0
  1 10  1  0  0  0  0
  1  9  1  0  0  0  0
  2  1  1  0  0  0  0
  3  1  1  0  0  0  0
  4 20  1  0  0  0  0
  4  7  1  0  0  0  0
  7  1  1  0  0  0  0
  8  1  1  0  0  0  0
  9  5  1  0  0  0  0
 10  6  1  0  0  0  0
 11  8  1  0  0  0  0
 11 12  1  0  0  0  0
 13 11  1  0  0  0  0
 14 13  1  0  0  0  0
 15 17  1  0  0  0  0
 15 13  2  0  0  0  0
 16 15  1  0  0  0  0
 17 19  2  0  0  0  0
 18 17  1  0  0  0  0
 19  4  1  0  0  0  0
 19  8  1  0  0  0  0
 20 29  1  0  0  0  0
 21 23  1  0  0  0  0
 21 20  2  0  0  0  0
 22 21  1  0  0  0  0
 23 25  2  0  0  0  0
 24 23  1  0  0  0  0
 25 26  1  0  0  0  0
 25 27  1  0  0  0  0
 27 28  1  0  0  0  0
 29 27  2  0  0  0  0
 29 30  1  0  0  0  0
 31  4  1  0  0  0  0
 32 33  1  0  0  0  0
 32 31  2  0  0  0  0
 34 32  1  0  0  0  0
 35 34  1  0  0  0  0
 36 34  2  0  0  0  0
 36 38  1  0  0  0  0
 37 36  1  0  0  0  0
 38 40  2  0  0  0  0
 39 38  1  0  0  0  0
 40 31  1  0  0  0  0
 40 41  1  0  0  0  0
M  END
$$$$
