CSD_code = KUGGEA | q = 0 | S = 0 | Stoichiometry = C24H34BClN2PRh | MND = 6
 OpenBabel04212202063D

 64 65  0  0  1  0  0  0  0  0999 V2000
    2.8013    7.5352    2.1538 Rh  0  0  0  0  0  0  0  0  0  0  0  0
    4.0990    6.3065    0.6776 P   0  0  0  0  0  0  0  0  0  0  0  0
    3.5583    5.9741    3.6202 Cl  0  0  0  0  0 15  0  0  0  0  0  0
    6.3528    6.6301    2.4145 N   0  0  0  0  0  0  0  0  0  0  0  0
    5.7399    7.2375    2.9485 H   0  0  0  0  0  0  0  0  0  0  0  0
    7.6341    6.4930    2.9116 C   0  0  0  0  0  0  0  0  0  0  0  0
    9.3901    7.0530    4.4565 C   0  0  0  0  0  0  0  0  0  0  0  0
    9.7200    7.6270    5.3104 H   0  0  0  0  0  0  0  0  0  0  0  0
    0.2193    9.0515    1.4422 C   0  0  0  0  0  0  0  0  0  0  0  0
   -0.5731    8.8182    0.7279 H   0  0  0  0  0  0  0  0  0  0  0  0
    0.1982   10.1304    1.6024 H   0  0  0  0  0  0  0  0  0  0  0  0
    3.2295    4.6701    0.3321 C   0  0  0  0  0  0  0  0  0  0  0  0
    3.4495    4.3905   -0.7071 H   0  0  0  0  0  0  0  0  0  0  0  0
    2.2168    8.8469    3.7963 C   0  0  0  0  0  3  0  0  0  0  0  0
    2.8891    8.6013    4.6179 H   0  0  0  0  0  0  0  0  0  0  0  0
    6.7544    4.9997    0.7108 N   0  0  0  0  0  0  0  0  0  0  0  0
    6.5046    4.4313   -0.0856 H   0  0  0  0  0  0  0  0  0  0  0  0
    8.0811    7.2159    3.9973 C   0  0  0  0  0  0  0  0  0  0  0  0
    7.4110    7.9021    4.4941 H   0  0  0  0  0  0  0  0  0  0  0  0
    5.8543    5.8870    1.3361 B   0  0  0  0  0  0  0  0  0  0  0  0
    8.5037    5.5807    2.2613 C   0  0  0  0  0  0  0  0  0  0  0  0
    8.0579    4.8198    1.1514 C   0  0  0  0  0  0  0  0  0  0  0  0
    9.8304    5.4215    2.7318 C   0  0  0  0  0  0  0  0  0  0  0  0
    1.5547    8.6648    0.8423 C   0  0  0  0  0  3  0  0  0  0  0  0
    1.4747    8.1404   -0.1074 H   0  0  0  0  0  0  0  0  0  0  0  0
    3.4720    7.1332   -2.0031 C   0  0  0  0  0  0  0  0  0  0  0  0
    3.0375    8.0828   -1.7018 H   0  0  0  0  0  0  0  0  0  0  0  0
    2.6931    6.3742   -1.9951 H   0  0  0  0  0  0  0  0  0  0  0  0
    3.8302    7.2381   -3.0271 H   0  0  0  0  0  0  0  0  0  0  0  0
    3.6949    3.5474    1.2548 C   0  0  0  0  0  0  0  0  0  0  0  0
    3.5311    3.8224    2.2933 H   0  0  0  0  0  0  0  0  0  0  0  0
    4.7523    3.3310    1.1240 H   0  0  0  0  0  0  0  0  0  0  0  0
    3.1308    2.6391    1.0455 H   0  0  0  0  0  0  0  0  0  0  0  0
   10.6777    4.5062    2.0720 C   0  0  0  0  0  0  0  0  0  0  0  0
   11.6898    4.3854    2.4284 H   0  0  0  0  0  0  0  0  0  0  0  0
    5.6848    7.8501   -1.0659 C   0  0  0  0  0  0  0  0  0  0  0  0
    6.0046    8.0807   -2.0816 H   0  0  0  0  0  0  0  0  0  0  0  0
    6.5574    7.5439   -0.4923 H   0  0  0  0  0  0  0  0  0  0  0  0
    5.2918    8.7619   -0.6217 H   0  0  0  0  0  0  0  0  0  0  0  0
    1.7221    4.8770    0.4870 C   0  0  0  0  0  0  0  0  0  0  0  0
    1.1882    3.9374    0.3502 H   0  0  0  0  0  0  0  0  0  0  0  0
    1.3450    5.5950   -0.2392 H   0  0  0  0  0  0  0  0  0  0  0  0
    1.5071    5.2548    1.4920 H   0  0  0  0  0  0  0  0  0  0  0  0
    8.9151    3.9336    0.5358 C   0  0  0  0  0  0  0  0  0  0  0  0
    8.5735    3.3520   -0.3093 H   0  0  0  0  0  0  0  0  0  0  0  0
    4.6258    6.7511   -1.0833 C   0  0  0  0  0  0  0  0  0  0  0  0
    5.0906    5.8386   -1.4821 H   0  0  0  0  0  0  0  0  0  0  0  0
   10.2497    6.1820    3.8425 C   0  0  0  0  0  0  0  0  0  0  0  0
   11.2603    6.0610    4.2031 H   0  0  0  0  0  0  0  0  0  0  0  0
    1.1879    7.9649    3.5280 C   0  0  0  0  0  3  0  0  0  0  0  0
    1.0872    7.0923    4.1734 H   0  0  0  0  0  0  0  0  0  0  0  0
    2.7375    9.3612    1.0902 C   0  0  1  0  0  0  0  0  0  0  0  0
    3.4860    9.3753    0.2996 H   0  0  0  0  0  0  0  0  0  0  0  0
   10.2244    3.7834    1.0030 C   0  0  0  0  0  0  0  0  0  0  0  0
   10.8786    3.0824    0.5050 H   0  0  0  0  0  0  0  0  0  0  0  0
    2.8680   10.5375    2.0310 C   0  0  0  0  0  0  0  0  0  0  0  0
    2.4518   11.4326    1.5545 H   0  0  0  0  0  0  0  0  0  0  0  0
    3.9345   10.7238    2.1871 H   0  0  0  0  0  0  0  0  0  0  0  0
   -0.0651    8.3035    2.7574 C   0  0  0  0  0  0  0  0  0  0  0  0
   -0.7297    8.8973    3.3947 H   0  0  0  0  0  0  0  0  0  0  0  0
   -0.5858    7.3699    2.5295 H   0  0  0  0  0  0  0  0  0  0  0  0
    2.1978   10.3045    3.3978 C   0  0  0  0  0  0  0  0  0  0  0  0
    2.7279   10.8875    4.1537 H   0  0  0  0  0  0  0  0  0  0  0  0
    1.1659   10.6575    3.3835 H   0  0  0  0  0  0  0  0  0  0  0  0
  2 20  1  0  0  0  0
  4  6  1  0  0  0  0
  4  5  1  0  0  0  0
  6 18  1  0  0  0  0
  7  8  1  0  0  0  0
  9 11  1  0  0  0  0
  9 59  1  0  0  0  0
 10  9  1  0  0  0  0
 12 40  1  0  0  0  0
 12  2  1  0  0  0  0
 12 30  1  0  0  0  0
 13 12  1  0  0  0  0
 14 15  1  0  0  0  0
 16 22  1  0  0  0  0
 16 20  1  0  0  0  0
 17 16  1  0  0  0  0
 18  7  2  0  0  0  0
 18 19  1  0  0  0  0
 20  4  1  0  0  0  0
 21 23  1  0  0  0  0
 21  6  2  0  0  0  0
 22 21  1  0  0  0  0
 23 48  2  0  0  0  0
 24 52  1  0  0  0  0
 24  9  1  0  0  0  0
 25 24  1  0  0  0  0
 26 28  1  0  0  0  0
 26 27  1  0  0  0  0
 26 46  1  0  0  0  0
 29 26  1  0  0  0  0
 30 31  1  0  0  0  0
 32 30  1  0  0  0  0
 33 30  1  0  0  0  0
 34 35  1  0  0  0  0
 34 23  1  0  0  0  0
 36 39  1  0  0  0  0
 36 38  1  0  0  0  0
 37 36  1  0  0  0  0
 40 43  1  0  0  0  0
 41 40  1  0  0  0  0
 42 40  1  0  0  0  0
 44 54  1  0  0  0  0
 44 22  2  0  0  0  0
 45 44  1  0  0  0  0
 46 36  1  0  0  0  0
 46  2  1  0  0  0  0
 47 46  1  0  0  0  0
 48 49  1  0  0  0  0
 48  7  1  0  0  0  0
 50 14  1  0  0  0  0
 50 51  1  0  0  0  0
 52 53  1  6  0  0  0
 52 56  1  0  0  0  0
 52  1  1  0  0  0  0
 54 34  2  0  0  0  0
 55 54  1  0  0  0  0
 56 58  1  0  0  0  0
 56 62  1  0  0  0  0
 57 56  1  0  0  0  0
 59 60  1  0  0  0  0
 59 50  1  0  0  0  0
 61 59  1  0  0  0  0
 62 14  1  0  0  0  0
 62 63  1  0  0  0  0
 64 62  1  0  0  0  0
M  END
$$$$
