CSD_code = KUGVIS | q = 0 | S = 0 | Stoichiometry = C24H22ClCuN6S4 | MND = 3
 OpenBabel04212202063D

 58 61  0  0  1  0  0  0  0  0999 V2000
   15.0495   11.9665   -0.5435 C   0  0  0  0  0  0  0  0  0  0  0  0
   15.8527   11.7204   -1.2095 H   0  0  0  0  0  0  0  0  0  0  0  0
   14.6793   13.1964   -0.0922 C   0  0  0  0  0  0  0  0  0  0  0  0
   15.1795   14.1071   -0.3690 H   0  0  0  0  0  0  0  0  0  0  0  0
   13.5743   13.1440    0.7738 C   0  0  0  0  0  0  0  0  0  0  0  0
   13.1300   14.0066    1.2369 H   0  0  0  0  0  0  0  0  0  0  0  0
   13.1114   11.8662    0.9747 C   0  0  0  0  0  0  0  0  0  0  0  0
   12.0198   11.4530    1.7887 C   0  0  0  0  0  0  0  0  0  0  0  0
   11.4698   12.2302    2.3223 H   0  0  0  0  0  0  0  0  0  0  0  0
   10.3349    8.5503    2.7826 C   0  0  2  0  0  3  0  0  0  0  0  0
   11.1071    6.3305    1.8771 C   0  0  0  0  0  0  0  0  0  0  0  0
   12.0777    5.8342    1.0040 C   0  0  0  0  0  0  0  0  0  0  0  0
   12.7570    6.5213    0.5184 H   0  0  0  0  0  0  0  0  0  0  0  0
   12.1723    4.4792    0.7596 C   0  0  0  0  0  0  0  0  0  0  0  0
   12.9267    4.1101    0.0807 H   0  0  0  0  0  0  0  0  0  0  0  0
   11.3025    3.5975    1.3813 C   0  0  0  0  0  0  0  0  0  0  0  0
   11.3751    2.5375    1.1903 H   0  0  0  0  0  0  0  0  0  0  0  0
   10.3412    4.0870    2.2478 C   0  0  0  0  0  0  0  0  0  0  0  0
    9.6598    3.4078    2.7378 H   0  0  0  0  0  0  0  0  0  0  0  0
   10.2356    5.4433    2.5009 C   0  0  0  0  0  0  0  0  0  0  0  0
    9.4829    5.8068    3.1771 H   0  0  0  0  0  0  0  0  0  0  0  0
    5.2713   18.0663    6.9699 C   0  0  0  0  0  0  0  0  0  0  0  0
    4.6314   18.7433    7.5004 H   0  0  0  0  0  0  0  0  0  0  0  0
    6.2393   18.3636    6.0600 C   0  0  0  0  0  0  0  0  0  0  0  0
    6.4824   19.3659    5.7560 H   0  0  0  0  0  0  0  0  0  0  0  0
    6.8840   17.2183    5.5634 C   0  0  0  0  0  0  0  0  0  0  0  0
    7.6761   17.2400    4.8367 H   0  0  0  0  0  0  0  0  0  0  0  0
    6.3970   16.0529    6.1035 C   0  0  0  0  0  0  0  0  0  0  0  0
    6.8151   14.7211    5.8267 C   0  0  0  0  0  0  0  0  0  0  0  0
    7.6223   14.5874    5.1045 H   0  0  0  0  0  0  0  0  0  0  0  0
    6.0852   11.4239    6.7483 C   0  0  2  0  0  3  0  0  0  0  0  0
    4.2795   11.0270    8.4589 C   0  0  0  0  0  0  0  0  0  0  0  0
    4.2223    9.6378    8.5073 C   0  0  0  0  0  0  0  0  0  0  0  0
    4.8573    9.0461    7.8727 H   0  0  0  0  0  0  0  0  0  0  0  0
    3.3426    9.0190    9.3779 C   0  0  0  0  0  0  0  0  0  0  0  0
    3.3048    7.9404    9.4066 H   0  0  0  0  0  0  0  0  0  0  0  0
    2.5170    9.7618   10.2032 C   0  0  0  0  0  0  0  0  0  0  0  0
    1.8349    9.2685   10.8789 H   0  0  0  0  0  0  0  0  0  0  0  0
    2.5702   11.1458   10.1544 C   0  0  0  0  0  0  0  0  0  0  0  0
    1.9301   11.7375   10.7917 H   0  0  0  0  0  0  0  0  0  0  0  0
    3.4425   11.7753    9.2897 C   0  0  0  0  0  0  0  0  0  0  0  0
    3.4837   12.8552    9.2518 H   0  0  0  0  0  0  0  0  0  0  0  0
   11.7120   10.2132    1.8804 N   0  0  0  0  0  0  0  0  0  0  0  0
   10.6806    9.8525    2.6613 N   0  0  0  0  0  0  0  0  0  0  0  0
   10.1401   10.5672    3.1765 H   0  0  0  0  0  0  0  0  0  0  0  0
   11.0921    7.7114    2.0576 N   0  0  0  0  0  0  0  0  0  0  0  0
   11.8061    8.2200    1.5336 H   0  0  0  0  0  0  0  0  0  0  0  0
    6.2518   13.7324    6.4139 N   0  0  0  0  0  0  0  0  0  0  0  0
    6.6598   12.4840    6.1343 N   0  0  0  0  0  0  0  0  0  0  0  0
    7.4301   12.3228    5.4645 H   0  0  0  0  0  0  0  0  0  0  0  0
    5.1212   11.7548    7.6220 N   0  0  0  0  0  0  0  0  0  0  0  0
    5.0065   12.7685    7.6742 H   0  0  0  0  0  0  0  0  0  0  0  0
   14.0573   10.7130    0.0785 S   0  0  0  0  0  0  0  0  0  0  0  0
    9.0517    8.1249    3.7797 S   0  0  0  0  0  0  0  0  0  0  0  0
    6.6085    9.8707    6.3813 S   0  0  0  0  0  0  0  0  0  0  0  0
    5.1228   16.3792    7.2427 S   0  0  0  0  0  0  0  0  0  0  0  0
    9.0812   12.0981    4.1693 Cl  0  0  0  0  0  0  0  0  0  0  0  0
    8.2650   10.0720    4.7666 Cu  0  0  0  0  0  0  0  0  0  0  0  0
  1  3  2  0  0  0  0
  1 53  1  0  0  0  0
  2  1  1  0  0  0  0
  3  5  1  0  0  0  0
  4  3  1  0  0  0  0
  5  7  2  0  0  0  0
  5  6  1  0  0  0  0
  7  8  1  0  0  0  0
  8 43  2  0  0  0  0
  8  9  1  0  0  0  0
 10 54  1  6  0  0  0
 11 46  1  0  0  0  0
 11 20  1  0  0  0  0
 12 11  2  0  0  0  0
 13 12  1  0  0  0  0
 14 12  1  0  0  0  0
 14 16  2  0  0  0  0
 15 14  1  0  0  0  0
 16 18  1  0  0  0  0
 17 16  1  0  0  0  0
 18 20  2  0  0  0  0
 18 19  1  0  0  0  0
 20 21  1  0  0  0  0
 22 56  1  0  0  0  0
 22 23  1  0  0  0  0
 24 22  2  0  0  0  0
 25 24  1  0  0  0  0
 26 24  1  0  0  0  0
 26 28  2  0  0  0  0
 27 26  1  0  0  0  0
 28 56  1  0  0  0  0
 29 28  1  0  0  0  0
 29 48  2  0  0  0  0
 30 29  1  0  0  0  0
 31 55  1  1  0  0  0
 31 51  1  0  0  0  0
 32 33  2  0  0  0  0
 32 41  1  0  0  0  0
 33 35  1  0  0  0  0
 34 33  1  0  0  0  0
 35 36  1  0  0  0  0
 35 37  2  0  0  0  0
 37 38  1  0  0  0  0
 39 37  1  0  0  0  0
 39 40  1  0  0  0  0
 41 39  2  0  0  0  0
 42 41  1  0  0  0  0
 43 44  1  0  0  0  0
 44 10  1  0  0  0  0
 44 45  1  0  0  0  0
 46 10  1  0  0  0  0
 47 46  1  0  0  0  0
 49 48  1  0  0  0  0
 49 31  1  0  0  0  0
 50 49  1  0  0  0  0
 51 52  1  0  0  0  0
 51 32  1  0  0  0  0
 53  7  1  0  0  0  0
 54 58  1  0  0  0  0
 57 58  1  0  0  0  0
 58 55  1  0  0  0  0
M  END
$$$$
