CSD_code = KUHLEG | q = 0 | S = 0 | Stoichiometry = C16H22I2N4OPd | MND = 4
 OpenBabel04212202063D

 46 49  0  0  1  0  0  0  0  0999 V2000
    1.7475    6.4345    2.4514 Pd  0  0  0  0  0  0  0  0  0  0  0  0
    1.5317    4.4094    0.8216 I   0  0  0  0  0  0  0  0  0  0  0  0
    1.9376    8.4431    4.1127 I   0  0  0  0  0  0  0  0  0  0  0  0
   -3.0643    7.1011    3.5605 O   0  0  0  0  0  0  0  0  0  0  0  0
    0.5208    4.6091    4.4974 N   0  0  0  0  0  0  0  0  0  0  0  0
   -0.5764    4.3741    5.1882 N   0  0  0  0  0  2  0  0  0  0  0  0
   -1.4379    5.2584    4.7640 N   0  0  0  0  0  0  0  0  0  0  0  0
    3.0268    7.3376    1.2016 N   0  0  0  0  0  0  0  0  0  0  0  0
    0.3986    5.6335    3.6261 C   0  0  0  0  0  0  0  0  0  0  0  0
   -0.9151    6.0508    3.8095 C   0  0  0  0  0  0  0  0  0  0  0  0
   -1.7041    7.1542    3.1921 C   0  0  0  0  0  0  0  0  0  0  0  0
   -1.2601    8.1205    3.4949 H   0  0  0  0  0  0  0  0  0  0  0  0
   -1.6700    7.0860    2.0975 H   0  0  0  0  0  0  0  0  0  0  0  0
   -3.2237    6.8357    4.9381 C   0  0  1  0  0  0  0  0  0  0  0  0
   -2.5881    7.5254    5.5200 H   0  0  0  0  0  0  0  0  0  0  0  0
   -4.6800    7.0173    5.3459 C   0  0  0  0  0  0  0  0  0  0  0  0
   -5.2980    6.3492    4.7444 H   0  0  0  0  0  0  0  0  0  0  0  0
   -4.9849    8.0410    5.1300 H   0  0  0  0  0  0  0  0  0  0  0  0
   -4.8413    6.7070    6.8324 C   0  0  0  0  0  0  0  0  0  0  0  0
   -4.2625    7.4269    7.4150 H   0  0  0  0  0  0  0  0  0  0  0  0
   -5.8893    6.8160    7.1134 H   0  0  0  0  0  0  0  0  0  0  0  0
   -4.3656    5.2923    7.1592 C   0  0  0  0  0  0  0  0  0  0  0  0
   -4.9956    4.5678    6.6392 H   0  0  0  0  0  0  0  0  0  0  0  0
   -4.4597    5.1101    8.2302 H   0  0  0  0  0  0  0  0  0  0  0  0
   -2.9121    5.0928    6.7351 C   0  0  0  0  0  0  0  0  0  0  0  0
   -2.2630    5.7704    7.2942 H   0  0  0  0  0  0  0  0  0  0  0  0
   -2.5861    4.0711    6.9323 H   0  0  0  0  0  0  0  0  0  0  0  0
   -2.7885    5.3917    5.2469 C   0  0  2  0  0  0  0  0  0  0  0  0
   -3.4233    4.7027    4.6732 H   0  0  0  0  0  0  0  0  0  0  0  0
    1.6780    3.7651    4.6813 C   0  0  0  0  0  0  0  0  0  0  0  0
    1.7398    3.0776    3.8282 H   0  0  0  0  0  0  0  0  0  0  0  0
    1.5030    3.1894    5.5926 H   0  0  0  0  0  0  0  0  0  0  0  0
    2.9611    4.5839    4.7784 C   0  0  0  0  0  0  0  0  0  0  0  0
    3.8001    3.9198    4.9673 H   0  0  0  0  0  0  0  0  0  0  0  0
    2.8965    5.3112    5.5878 H   0  0  0  0  0  0  0  0  0  0  0  0
    3.1533    5.1180    3.8242 H   0  0  0  0  0  0  0  0  0  0  0  0
    4.3494    7.2299    1.2052 C   0  0  0  0  0  3  0  0  0  0  0  0
    4.7842    6.5766    1.9587 H   0  0  0  0  0  0  0  0  0  0  0  0
    5.1446    7.9121    0.3007 C   0  0  0  0  0  0  0  0  0  0  0  0
    6.2165    7.8002    0.3350 H   0  0  0  0  0  0  0  0  0  0  0  0
    4.5374    8.7319   -0.6372 C   0  0  0  0  0  0  0  0  0  0  0  0
    5.1290    9.2772   -1.3564 H   0  0  0  0  0  0  0  0  0  0  0  0
    3.1541    8.8394   -0.6343 C   0  0  0  0  0  0  0  0  0  0  0  0
    2.6403    9.4660   -1.3459 H   0  0  0  0  0  0  0  0  0  0  0  0
    2.4362    8.1237    0.3051 C   0  0  0  0  0  0  0  0  0  0  0  0
    1.3431    8.1761    0.3489 H   0  0  0  0  0  0  0  0  0  0  0  0
  1  9  1  0  0  0  0
  1  3  1  0  0  0  0
  2  1  1  0  0  0  0
  4 14  1  0  0  0  0
  5 30  1  0  0  0  0
  5  6  1  0  0  0  0
  7  6  1  0  0  0  0
  7 28  1  0  0  0  0
  8 37  1  0  0  0  0
  8  1  1  0  0  0  0
  9 10  2  0  0  0  0
  9  5  1  0  0  0  0
 10  7  1  0  0  0  0
 11 12  1  0  0  0  0
 11  4  1  0  0  0  0
 11 10  1  0  0  0  0
 13 11  1  0  0  0  0
 14 28  1  0  0  0  0
 14 16  1  0  0  0  0
 14 15  1  1  0  0  0
 16 19  1  0  0  0  0
 17 16  1  0  0  0  0
 18 16  1  0  0  0  0
 19 21  1  0  0  0  0
 19 22  1  0  0  0  0
 19 20  1  0  0  0  0
 22 24  1  0  0  0  0
 23 22  1  0  0  0  0
 25 27  1  0  0  0  0
 25 22  1  0  0  0  0
 25 26  1  0  0  0  0
 28 29  1  6  0  0  0
 28 25  1  0  0  0  0
 30 33  1  0  0  0  0
 30 32  1  0  0  0  0
 31 30  1  0  0  0  0
 33 34  1  0  0  0  0
 33 35  1  0  0  0  0
 36 33  1  0  0  0  0
 37 38  1  0  0  0  0
 39 40  1  0  0  0  0
 39 37  1  0  0  0  0
 41 43  1  0  0  0  0
 41 39  2  0  0  0  0
 42 41  1  0  0  0  0
 43 45  2  0  0  0  0
 44 43  1  0  0  0  0
 45 46  1  0  0  0  0
 45  8  1  0  0  0  0
M  END
$$$$
