CSD_code = KUHXAN | q = 0 | S = 0 | Stoichiometry = C19H18Cl3N4ORe | MND = 6
 OpenBabel04212202063D

 46 49  0  0  0  0  0  0  0  0999 V2000
    2.4754   14.8613    2.5838 Re  0  0  0  0  0  0  0  0  0  0  0  0
    1.6373   16.9127    2.0138 Cl  0  0  0  0  0  0  0  0  0  0  0  0
    1.0029   14.8509    4.4547 Cl  0  0  0  0  0  0  0  0  0  0  0  0
    3.3393   14.6887    0.4148 Cl  0  0  0  0  0  0  0  0  0  0  0  0
    7.8180   17.4676    6.6739 O   0  0  0  0  0  0  0  0  0  0  0  0
    0.7448   13.8800    1.6974 N   0  0  0  0  0  0  0  0  0  0  0  0
    2.8179   12.8573    2.9130 N   0  0  0  0  0  0  0  0  0  0  0  0
    7.3074   10.8966    5.5572 N   0  0  0  0  0  0  0  0  0  0  0  0
    3.8832   15.4263    3.4684 N   0  0  0  0  0  2  0  0  0  0  0  0
   -0.2819   14.4539    1.0875 C   0  0  0  0  0  3  0  0  0  0  0  0
   -1.3713   13.7371    0.6258 C   0  0  0  0  0  0  0  0  0  0  0  0
   -1.3943   12.3573    0.8046 C   0  0  0  0  0  0  0  0  0  0  0  0
   -0.3304   11.7500    1.4353 C   0  0  0  0  0  0  0  0  0  0  0  0
    0.7354   12.5418    1.8800 C   0  0  0  0  0  0  0  0  0  0  0  0
    1.8843   12.0239    2.5520 C   0  0  0  0  0  3  0  0  0  0  0  0
    3.9353   12.3585    3.5929 C   0  0  0  0  0  0  0  0  0  0  0  0
    3.8026   11.4476    4.6414 C   0  0  0  0  0  0  0  0  0  0  0  0
    4.9152   10.9892    5.3113 C   0  0  0  0  0  0  0  0  0  0  0  0
    6.1964   11.4081    4.9402 C   0  0  0  0  0  0  0  0  0  0  0  0
    6.3230   12.3149    3.8814 C   0  0  0  0  0  0  0  0  0  0  0  0
    5.2120   12.7878    3.2237 C   0  0  0  0  0  0  0  0  0  0  0  0
    4.8456   15.8798    4.2534 C   0  0  0  0  0  0  0  0  0  0  0  0
    6.1306   16.1939    3.7569 C   0  0  0  0  0  0  0  0  0  0  0  0
    7.0847   16.7091    4.5933 C   0  0  0  0  0  0  0  0  0  0  0  0
    6.8081   16.9391    5.9493 C   0  0  0  0  0  0  0  0  0  0  0  0
    5.5439   16.6184    6.4518 C   0  0  0  0  0  0  0  0  0  0  0  0
    4.5817   16.0926    5.6224 C   0  0  0  0  0  0  0  0  0  0  0  0
    7.5863   17.8149    8.0209 C   0  0  0  0  0  0  0  0  0  0  0  0
    5.3108   13.4704    2.3929 H   0  0  0  0  0  0  0  0  0  0  0  0
    2.8181   11.1396    4.9604 H   0  0  0  0  0  0  0  0  0  0  0  0
    8.0665   16.9654    4.2273 H   0  0  0  0  0  0  0  0  0  0  0  0
    1.9759   10.9591    2.7321 H   0  0  0  0  0  0  0  0  0  0  0  0
   -0.2237   15.5296    0.9719 H   0  0  0  0  0  0  0  0  0  0  0  0
    3.5976   15.8470    5.9900 H   0  0  0  0  0  0  0  0  0  0  0  0
    4.8013   10.2999    6.1350 H   0  0  0  0  0  0  0  0  0  0  0  0
    5.3032   16.7825    7.4901 H   0  0  0  0  0  0  0  0  0  0  0  0
    6.7818   18.5506    8.1097 H   0  0  0  0  0  0  0  0  0  0  0  0
    8.1775   11.3846    5.4298 H   0  0  0  0  0  0  0  0  0  0  0  0
    6.3296   16.0390    2.7084 H   0  0  0  0  0  0  0  0  0  0  0  0
   -0.3014   10.6840    1.5977 H   0  0  0  0  0  0  0  0  0  0  0  0
   -2.1840   14.2503    0.1386 H   0  0  0  0  0  0  0  0  0  0  0  0
   -2.2329   11.7735    0.4561 H   0  0  0  0  0  0  0  0  0  0  0  0
    7.3074   12.6414    3.5811 H   0  0  0  0  0  0  0  0  0  0  0  0
    7.1839   10.4380    6.4437 H   0  0  0  0  0  0  0  0  0  0  0  0
    8.5175   18.2541    8.3749 H   0  0  0  0  0  0  0  0  0  0  0  0
    7.3472   16.9363    8.6274 H   0  0  0  0  0  0  0  0  0  0  0  0
  1  7  1  0  0  0  0
  1  9  1  0  0  0  0
  1  3  1  0  0  0  0
  2  1  1  0  0  0  0
  4  1  1  0  0  0  0
  5 28  1  0  0  0  0
  6 14  1  0  0  0  0
  6  1  1  0  0  0  0
  7 16  1  0  0  0  0
  8 44  1  0  0  0  0
  9 22  1  0  0  0  0
 10  6  1  0  0  0  0
 11 12  2  0  0  0  0
 11 10  1  0  0  0  0
 12 13  1  0  0  0  0
 13 40  1  0  0  0  0
 13 14  2  0  0  0  0
 14 15  1  0  0  0  0
 15 32  1  0  0  0  0
 15  7  1  0  0  0  0
 16 17  1  0  0  0  0
 17 30  1  0  0  0  0
 17 18  2  0  0  0  0
 18 35  1  0  0  0  0
 19 18  1  0  0  0  0
 19  8  1  0  0  0  0
 20 19  2  0  0  0  0
 21 16  2  0  0  0  0
 21 20  1  0  0  0  0
 22 27  1  0  0  0  0
 23 22  2  0  0  0  0
 23 24  1  0  0  0  0
 24 25  2  0  0  0  0
 25 26  1  0  0  0  0
 25  5  1  0  0  0  0
 26 36  1  0  0  0  0
 27 34  1  0  0  0  0
 27 26  2  0  0  0  0
 28 37  1  0  0  0  0
 28 45  1  0  0  0  0
 28 46  1  0  0  0  0
 29 21  1  0  0  0  0
 31 24  1  0  0  0  0
 33 10  1  0  0  0  0
 38  8  1  0  0  0  0
 39 23  1  0  0  0  0
 41 11  1  0  0  0  0
 42 12  1  0  0  0  0
 43 20  1  0  0  0  0
M  END
$$$$
