CSD_code = KUJJEF | q = 0 | S = 0 | Stoichiometry = C23H21I2N2PPd | MND = 4
 OpenBabel04212202063D

 50 54  0  0  0  0  0  0  0  0999 V2000
    0.0207   11.2808    6.8666 C   0  0  0  0  0  0  0  0  0  0  0  0
    0.4828   10.5699    8.9132 C   0  0  0  0  0  0  0  0  0  0  0  0
    0.5895    9.8616    9.7084 H   0  0  0  0  0  0  0  0  0  0  0  0
    0.6719   11.9101    8.8940 C   0  0  0  0  0  0  0  0  0  0  0  0
    0.9793   12.5854    9.6654 H   0  0  0  0  0  0  0  0  0  0  0  0
   -0.2744    8.8650    7.2507 C   0  0  0  0  0  0  0  0  0  0  0  0
   -0.5405    8.8779    6.1857 H   0  0  0  0  0  0  0  0  0  0  0  0
   -1.1389    8.5191    7.8206 H   0  0  0  0  0  0  0  0  0  0  0  0
    0.5630    8.1823    7.4042 H   0  0  0  0  0  0  0  0  0  0  0  0
    0.4911   13.6733    7.1043 C   0  0  0  0  0  0  0  0  0  0  0  0
    0.1473   14.3847    7.8596 H   0  0  0  0  0  0  0  0  0  0  0  0
   -0.1777   13.7493    6.2204 H   0  0  0  0  0  0  0  0  0  0  0  0
    1.9212   13.9602    6.7171 C   0  0  0  0  0  0  0  0  0  0  0  0
    2.6369   14.9295    7.4077 C   0  0  0  0  0  0  0  0  0  0  0  0
    2.1474   15.4904    8.1912 H   0  0  0  0  0  0  0  0  0  0  0  0
    3.9598   15.1918    7.1007 C   0  0  0  0  0  0  0  0  0  0  0  0
    4.4980   15.9518    7.6461 H   0  0  0  0  0  0  0  0  0  0  0  0
    4.5881   14.4779    6.0936 C   0  0  0  0  0  0  0  0  0  0  0  0
    5.6210   14.6745    5.8492 H   0  0  0  0  0  0  0  0  0  0  0  0
    3.8860   13.5156    5.3946 C   0  0  0  0  0  0  0  0  0  0  0  0
    4.3684   12.9681    4.5962 H   0  0  0  0  0  0  0  0  0  0  0  0
    2.5531   13.2407    5.6981 C   0  0  0  0  0  0  0  0  0  0  0  0
    2.4868   10.4049    5.1433 C   0  0  0  0  0  0  0  0  0  0  0  0
    3.5412   10.2600    6.0348 C   0  0  0  0  0  0  0  0  0  0  0  0
    4.0063   11.1315    6.4750 H   0  0  0  0  0  0  0  0  0  0  0  0
    3.9913    8.9917    6.3635 C   0  0  0  0  0  0  0  0  0  0  0  0
    4.8100    8.8806    7.0595 H   0  0  0  0  0  0  0  0  0  0  0  0
    3.3995    7.8712    5.8053 C   0  0  0  0  0  0  0  0  0  0  0  0
    3.7596    6.8865    6.0634 H   0  0  0  0  0  0  0  0  0  0  0  0
    2.3399    8.0103    4.9203 C   0  0  0  0  0  0  0  0  0  0  0  0
    1.8731    7.1369    4.4897 H   0  0  0  0  0  0  0  0  0  0  0  0
    1.8756    9.2715    4.6002 C   0  0  0  0  0  0  0  0  0  0  0  0
    1.0332    9.3896    3.9120 H   0  0  0  0  0  0  0  0  0  0  0  0
    2.4281   12.3650    3.0435 C   0  0  0  0  0  0  0  0  0  0  0  0
    3.2135   11.4780    2.3192 C   0  0  0  0  0  0  0  0  0  0  0  0
    3.4622   10.5077    2.7278 H   0  0  0  0  0  0  0  0  0  0  0  0
    3.6727   11.8442    1.0657 C   0  0  0  0  0  0  0  0  0  0  0  0
    4.2817   11.1550    0.4995 H   0  0  0  0  0  0  0  0  0  0  0  0
    3.3457   13.0800    0.5348 C   0  0  0  0  0  0  0  0  0  0  0  0
    3.6989   13.3536   -0.4479 H   0  0  0  0  0  0  0  0  0  0  0  0
    2.5544   13.9624    1.2545 C   0  0  0  0  0  0  0  0  0  0  0  0
    2.2870   14.9198    0.8339 H   0  0  0  0  0  0  0  0  0  0  0  0
    2.0931   13.6058    2.5050 C   0  0  0  0  0  0  0  0  0  0  0  0
    1.4531   14.2754    3.0692 H   0  0  0  0  0  0  0  0  0  0  0  0
   -0.9904   11.6308    2.4335 I   0  0  0  0  0  0  0  0  0  0  0  0
   -2.9251   11.0135    5.6894 I   0  0  0  0  0  0  0  0  0  0  0  0
    0.3753   12.3302    7.6238 N   0  0  0  0  0  0  0  0  0  0  0  0
    0.0844   10.1988    7.6541 N   0  0  0  0  0  0  0  0  0  0  0  0
    1.7117   11.9809    4.6664 P   0  0  0  0  0  4  0  0  0  0  0  0
   -0.4700   11.4673    4.9591 Pd  0  0  0  0  0  0  0  0  0  0  0  0
  1 47  1  0  0  0  0
  1 48  1  0  0  0  0
  2  3  1  0  0  0  0
  4  2  2  0  0  0  0
  4  5  1  0  0  0  0
  6  9  1  0  0  0  0
  6 48  1  0  0  0  0
  6  8  1  0  0  0  0
  7  6  1  0  0  0  0
 10 47  1  0  0  0  0
 10 11  1  0  0  0  0
 12 10  1  0  0  0  0
 13 10  1  0  0  0  0
 13 14  1  0  0  0  0
 14 15  1  0  0  0  0
 16 14  2  0  0  0  0
 16 17  1  0  0  0  0
 18 16  1  0  0  0  0
 19 18  1  0  0  0  0
 20 22  1  0  0  0  0
 20 18  2  0  0  0  0
 21 20  1  0  0  0  0
 22 13  2  0  0  0  0
 23 24  1  0  0  0  0
 24 26  2  0  0  0  0
 24 25  1  0  0  0  0
 26 27  1  0  0  0  0
 28 29  1  0  0  0  0
 28 26  1  0  0  0  0
 30 28  2  0  0  0  0
 31 30  1  0  0  0  0
 32 30  1  0  0  0  0
 32 23  2  0  0  0  0
 33 32  1  0  0  0  0
 34 49  1  0  0  0  0
 35 36  1  0  0  0  0
 35 34  2  0  0  0  0
 37 35  1  0  0  0  0
 38 37  1  0  0  0  0
 39 37  2  0  0  0  0
 39 41  1  0  0  0  0
 40 39  1  0  0  0  0
 41 43  2  0  0  0  0
 42 41  1  0  0  0  0
 43 34  1  0  0  0  0
 43 44  1  0  0  0  0
 45 50  1  0  0  0  0
 47  4  1  0  0  0  0
 48  2  1  0  0  0  0
 49 50  1  0  0  0  0
 49 23  1  0  0  0  0
 49 22  1  0  0  0  0
 50 46  1  0  0  0  0
 50  1  2  0  0  0  0
M  END
$$$$
