CSD_code = KUJLIL | q = 0 | S = 0 | Stoichiometry = C27H23I2N3Pd | MND = 4
 OpenBabel04212202063D

 56 60  0  0  1  0  0  0  0  0999 V2000
    0.7561    1.0940    6.7026 Pd  0  0  0  0  0  0  0  0  0  0  0  0
   -0.2744    2.8345    5.0378 I   0  0  0  0  0  0  0  0  0  0  0  0
    1.7961   -0.5884    8.4202 I   0  0  0  0  0  0  0  0  0  0  0  0
    4.4604    2.6327    5.6516 N   0  0  0  0  0  0  0  0  0  0  0  0
    4.3707    3.1580    6.9031 N   0  0  0  0  0  0  0  0  0  0  0  0
   -1.0260    0.1830    6.8652 N   0  0  0  0  0  0  0  0  0  0  0  0
    2.5045    1.9806    6.5272 C   0  0  0  0  0  0  0  0  0  0  0  0
    3.3370    1.9210    5.4058 C   0  0  1  0  0  3  0  0  0  0  0  0
    3.1804    2.7847    7.4465 C   0  0  0  0  0  0  0  0  0  0  0  0
    2.9756    1.2608    4.1587 C   0  0  0  0  0  0  0  0  0  0  0  0
    2.2616    0.0568    4.2312 C   0  0  0  0  0  0  0  0  0  0  0  0
    2.1216   -0.4409    5.1962 H   0  0  0  0  0  0  0  0  0  0  0  0
    1.7913   -0.5415    3.0768 C   0  0  0  0  0  0  0  0  0  0  0  0
    1.2506   -1.4755    3.1376 H   0  0  0  0  0  0  0  0  0  0  0  0
    2.0073    0.0528    1.8436 C   0  0  0  0  0  0  0  0  0  0  0  0
    1.6256   -0.4097    0.9458 H   0  0  0  0  0  0  0  0  0  0  0  0
    2.7006    1.2482    1.7670 C   0  0  0  0  0  0  0  0  0  0  0  0
    2.8536    1.7245    0.8101 H   0  0  0  0  0  0  0  0  0  0  0  0
    3.1818    1.8528    2.9138 C   0  0  0  0  0  0  0  0  0  0  0  0
    3.6657    2.8156    2.8424 H   0  0  0  0  0  0  0  0  0  0  0  0
    2.7256    3.1014    8.7897 C   0  0  0  0  0  0  0  0  0  0  0  0
    3.6037    3.2961    9.8553 C   0  0  0  0  0  0  0  0  0  0  0  0
    4.6702    3.2464    9.6969 H   0  0  0  0  0  0  0  0  0  0  0  0
    3.1165    3.5104   11.1304 C   0  0  0  0  0  0  0  0  0  0  0  0
    3.8090    3.6489   11.9475 H   0  0  0  0  0  0  0  0  0  0  0  0
    1.7524    3.5323   11.3658 C   0  0  0  0  0  0  0  0  0  0  0  0
    1.3776    3.6925   12.3655 H   0  0  0  0  0  0  0  0  0  0  0  0
    0.8700    3.3389   10.3152 C   0  0  0  0  0  0  0  0  0  0  0  0
   -0.1951    3.3567   10.4965 H   0  0  0  0  0  0  0  0  0  0  0  0
    1.3465    3.1221    9.0369 C   0  0  0  0  0  0  0  0  0  0  0  0
    0.6366    2.9999    8.2083 H   0  0  0  0  0  0  0  0  0  0  0  0
    5.6074    2.8422    4.8185 C   0  0  0  0  0  0  0  0  0  0  0  0
    5.6315    3.8672    4.4367 H   0  0  0  0  0  0  0  0  0  0  0  0
    5.5557    2.1463    3.9837 H   0  0  0  0  0  0  0  0  0  0  0  0
    6.5264    2.6571    5.3758 H   0  0  0  0  0  0  0  0  0  0  0  0
    5.3058    4.0874    7.4102 C   0  0  0  0  0  0  0  0  0  0  0  0
    6.5854    3.6776    7.7683 C   0  0  0  0  0  0  0  0  0  0  0  0
    6.8661    2.6377    7.6816 H   0  0  0  0  0  0  0  0  0  0  0  0
    7.4783    4.6047    8.2752 C   0  0  0  0  0  0  0  0  0  0  0  0
    8.4709    4.2894    8.5581 H   0  0  0  0  0  0  0  0  0  0  0  0
    7.0961    5.9271    8.4312 C   0  0  0  0  0  0  0  0  0  0  0  0
    7.7957    6.6447    8.8312 H   0  0  0  0  0  0  0  0  0  0  0  0
    5.8158    6.3275    8.0855 C   0  0  0  0  0  0  0  0  0  0  0  0
    5.5152    7.3556    8.2149 H   0  0  0  0  0  0  0  0  0  0  0  0
    4.9165    5.4118    7.5704 C   0  0  0  0  0  0  0  0  0  0  0  0
    3.9144    5.7091    7.3003 H   0  0  0  0  0  0  0  0  0  0  0  0
   -1.4648   -0.6124    5.8952 C   0  0  0  0  0  3  0  0  0  0  0  0
   -0.8075   -0.7360    5.0346 H   0  0  0  0  0  0  0  0  0  0  0  0
   -2.6938   -1.2433    5.9587 C   0  0  0  0  0  0  0  0  0  0  0  0
   -3.0145   -1.8839    5.1523 H   0  0  0  0  0  0  0  0  0  0  0  0
   -3.4967   -1.0302    7.0688 C   0  0  0  0  0  0  0  0  0  0  0  0
   -4.4634   -1.5040    7.1480 H   0  0  0  0  0  0  0  0  0  0  0  0
   -3.0338   -0.1960    8.0748 C   0  0  0  0  0  0  0  0  0  0  0  0
   -3.6249   -0.0019    8.9559 H   0  0  0  0  0  0  0  0  0  0  0  0
   -1.7883    0.3883    7.9343 C   0  0  0  0  0  0  0  0  0  0  0  0
   -1.3777    1.0393    8.7062 H   0  0  0  0  0  0  0  0  0  0  0  0
  1  6  1  0  0  0  0
  1  3  1  0  0  0  0
  2  1  1  0  0  0  0
  4  5  1  0  0  0  0
  5 36  1  0  0  0  0
  5  9  1  0  0  0  0
  6 55  1  0  0  0  0
  7  1  1  0  0  0  0
  7  9  2  0  0  0  0
  8 10  1  6  0  0  0
  8  4  1  0  0  0  0
  8  7  1  0  0  0  0
  9 21  1  0  0  0  0
 10 11  1  0  0  0  0
 11 12  1  0  0  0  0
 13 14  1  0  0  0  0
 13 11  2  0  0  0  0
 15 13  1  0  0  0  0
 16 15  1  0  0  0  0
 17 15  2  0  0  0  0
 17 19  1  0  0  0  0
 18 17  1  0  0  0  0
 19 10  2  0  0  0  0
 20 19  1  0  0  0  0
 21 30  2  0  0  0  0
 21 22  1  0  0  0  0
 22 24  2  0  0  0  0
 23 22  1  0  0  0  0
 24 26  1  0  0  0  0
 24 25  1  0  0  0  0
 26 27  1  0  0  0  0
 28 29  1  0  0  0  0
 28 26  2  0  0  0  0
 30 28  1  0  0  0  0
 31 30  1  0  0  0  0
 32 35  1  0  0  0  0
 32  4  1  0  0  0  0
 33 32  1  0  0  0  0
 34 32  1  0  0  0  0
 36 45  2  0  0  0  0
 36 37  1  0  0  0  0
 37 39  2  0  0  0  0
 38 37  1  0  0  0  0
 39 41  1  0  0  0  0
 39 40  1  0  0  0  0
 41 42  1  0  0  0  0
 43 44  1  0  0  0  0
 43 41  2  0  0  0  0
 45 43  1  0  0  0  0
 46 45  1  0  0  0  0
 47 49  1  0  0  0  0
 47  6  1  0  0  0  0
 48 47  1  0  0  0  0
 49 51  2  0  0  0  0
 50 49  1  0  0  0  0
 51 52  1  0  0  0  0
 51 53  1  0  0  0  0
 53 54  1  0  0  0  0
 55 53  2  0  0  0  0
 55 56  1  0  0  0  0
M  END
$$$$
