CSD_code = KUJTEP | q = 0 | S = 0 | Stoichiometry = C17H14CdCl2N4 | MND = 4
 OpenBabel04212202063D

 38 42  0  0  0  0  0  0  0  0999 V2000
    7.6677    9.9919    7.0368 Cd  0  0  0  0  0  0  0  0  0  0  0  0
    8.8840    8.6085    5.5196 Cl  0  0  0  0  0  0  0  0  0  0  0  0
    6.3468   11.2063    5.4752 Cl  0  0  0  0  0  0  0  0  0  0  0  0
    9.1945   11.1022    8.0860 N   0  0  0  0  0  0  0  0  0  0  0  0
   10.8170   11.4845    9.6092 N   0  0  0  0  0  0  0  0  0  0  0  0
    6.6503    8.7246    8.4398 N   0  0  0  0  0  0  0  0  0  0  0  0
    6.3614    7.3981   10.2409 N   0  0  0  0  0  0  0  0  0  0  0  0
   10.2906   11.6211    7.4278 C   0  0  0  0  0  0  0  0  0  0  0  0
   10.5228   11.8727    6.0931 C   0  0  0  0  0  0  0  0  0  0  0  0
    9.7725   11.6669    5.3398 H   0  0  0  0  0  0  0  0  0  0  0  0
   11.7689   12.3950    5.7540 C   0  0  0  0  0  0  0  0  0  0  0  0
   11.9811   12.6126    4.7181 H   0  0  0  0  0  0  0  0  0  0  0  0
   12.7576   12.6477    6.7154 C   0  0  0  0  0  0  0  0  0  0  0  0
   13.7032   13.0552    6.3918 H   0  0  0  0  0  0  0  0  0  0  0  0
   12.5472   12.3966    8.0503 C   0  0  0  0  0  0  0  0  0  0  0  0
   13.2962   12.6004    8.7985 H   0  0  0  0  0  0  0  0  0  0  0  0
   11.2988   11.8661    8.4224 C   0  0  0  0  0  0  0  0  0  0  0  0
    9.5579   11.0512    9.3637 C   0  0  0  0  0  0  0  0  0  0  0  0
    5.3077    8.4382    8.5500 C   0  0  0  0  0  0  0  0  0  0  0  0
    4.2164    8.8718    7.8282 C   0  0  0  0  0  0  0  0  0  0  0  0
    4.3298    9.5502    6.9920 H   0  0  0  0  0  0  0  0  0  0  0  0
    2.9662    8.4063    8.2253 C   0  0  0  0  0  0  0  0  0  0  0  0
    2.0928    8.7077    7.6668 H   0  0  0  0  0  0  0  0  0  0  0  0
    2.8053    7.5575    9.3294 C   0  0  0  0  0  0  0  0  0  0  0  0
    1.8109    7.2278    9.5897 H   0  0  0  0  0  0  0  0  0  0  0  0
    3.8792    7.1303   10.0741 C   0  0  0  0  0  0  0  0  0  0  0  0
    3.7657    6.4618   10.9121 H   0  0  0  0  0  0  0  0  0  0  0  0
    5.1550    7.5804    9.6937 C   0  0  0  0  0  0  0  0  0  0  0  0
    7.2248    8.0673    9.4443 C   0  0  0  0  0  0  0  0  0  0  0  0
    8.6834   10.5523   10.4533 C   0  0  0  0  0  0  0  0  0  0  0  0
    7.6368   10.6286   10.1448 H   0  0  0  0  0  0  0  0  0  0  0  0
    8.8487   11.1804   11.3310 H   0  0  0  0  0  0  0  0  0  0  0  0
    9.0172    9.1013   10.8352 C   0  0  0  0  0  0  0  0  0  0  0  0
   10.0814    9.0321   11.0653 H   0  0  0  0  0  0  0  0  0  0  0  0
    8.4475    8.8345   11.7268 H   0  0  0  0  0  0  0  0  0  0  0  0
    8.6826    8.1003    9.7180 C   0  0  0  0  0  0  0  0  0  0  0  0
    9.2216    8.3591    8.8007 H   0  0  0  0  0  0  0  0  0  0  0  0
    8.9908    7.1063   10.0483 H   0  0  0  0  0  0  0  0  0  0  0  0
  1  4  1  0  0  0  0
  1  6  1  0  0  0  0
  2  1  1  0  0  0  0
  3  1  1  0  0  0  0
  4 18  1  0  0  0  0
  6 19  1  0  0  0  0
  6 29  1  0  0  0  0
  8  4  1  0  0  0  0
  8 17  1  0  0  0  0
  9  8  2  0  0  0  0
 10  9  1  0  0  0  0
 11  9  1  0  0  0  0
 11 13  2  0  0  0  0
 12 11  1  0  0  0  0
 13 15  1  0  0  0  0
 14 13  1  0  0  0  0
 15 17  2  0  0  0  0
 15 16  1  0  0  0  0
 17  5  1  0  0  0  0
 18  5  2  0  0  0  0
 18 30  1  0  0  0  0
 19 28  1  0  0  0  0
 20 22  1  0  0  0  0
 20 19  2  0  0  0  0
 21 20  1  0  0  0  0
 22 24  2  0  0  0  0
 23 22  1  0  0  0  0
 24 25  1  0  0  0  0
 24 26  1  0  0  0  0
 26 27  1  0  0  0  0
 28 26  2  0  0  0  0
 28  7  1  0  0  0  0
 29 36  1  0  0  0  0
 29  7  2  0  0  0  0
 30 33  1  0  0  0  0
 30 32  1  0  0  0  0
 31 30  1  0  0  0  0
 33 34  1  0  0  0  0
 33 35  1  0  0  0  0
 36 38  1  0  0  0  0
 36 33  1  0  0  0  0
 37 36  1  0  0  0  0
M  END
$$$$
