CSD_code = KUJVOB | q = 0 | S = 0 | Stoichiometry = C9H14Cl2HgN2S | MND = 5
 OpenBabel04212202063D

 29 28  0  0  0  0  0  0  0  0999 V2000
  -10.7087   -0.3881    3.1314 Hg  0  0  0  0  0  0  0  0  0  0  0  0
  -10.7221   -0.1002    0.8673 Cl  0  0  0  0  0  0  0  0  0  0  0  0
  -10.5474    1.1172    4.9083 Cl  0  0  0  0  0  0  0  0  0  0  0  0
  -13.3331   -1.5063    4.0936 S   0  0  0  0  0  0  0  0  0  0  0  0
   -8.4140   -1.3838    3.2583 N   0  0  0  0  0  0  0  0  0  0  0  0
  -10.3413   -2.3072    4.9980 N   0  0  0  0  0  0  0  0  0  0  0  0
  -10.3234   -3.2510    4.6132 H   0  0  0  0  0  0  0  0  0  0  0  0
   -7.5485   -1.2601    2.2597 C   0  0  0  0  0  0  0  0  0  0  0  0
   -7.9483   -0.8585    1.3381 H   0  0  0  0  0  0  0  0  0  0  0  0
   -6.2174   -1.6229    2.3745 C   0  0  0  0  0  0  0  0  0  0  0  0
   -5.5468   -1.5031    1.5392 H   0  0  0  0  0  0  0  0  0  0  0  0
   -5.7760   -2.1376    3.5833 C   0  0  0  0  0  0  0  0  0  0  0  0
   -4.7452   -2.4308    3.7155 H   0  0  0  0  0  0  0  0  0  0  0  0
   -6.6830   -2.2759    4.6199 C   0  0  0  0  0  0  0  0  0  0  0  0
   -6.3771   -2.6771    5.5740 H   0  0  0  0  0  0  0  0  0  0  0  0
   -8.0020   -1.8851    4.4206 C   0  0  0  0  0  0  0  0  0  0  0  0
   -9.0217   -1.9789    5.5227 C   0  0  0  0  0  0  0  0  0  0  0  0
   -8.6861   -2.6985    6.2853 H   0  0  0  0  0  0  0  0  0  0  0  0
   -9.0979   -0.9898    5.9908 H   0  0  0  0  0  0  0  0  0  0  0  0
  -11.3860   -2.2165    6.0073 C   0  0  0  0  0  0  0  0  0  0  0  0
  -11.4070   -1.1837    6.3664 H   0  0  0  0  0  0  0  0  0  0  0  0
  -11.1793   -2.8778    6.8659 H   0  0  0  0  0  0  0  0  0  0  0  0
  -12.7386   -2.6015    5.4307 C   0  0  0  0  0  0  0  0  0  0  0  0
  -13.5029   -2.5951    6.2069 H   0  0  0  0  0  0  0  0  0  0  0  0
  -12.6981   -3.5923    4.9769 H   0  0  0  0  0  0  0  0  0  0  0  0
  -13.8871   -0.0734    5.0634 C   0  0  0  0  0  0  0  0  0  0  0  0
  -14.5959   -0.4137    5.8127 H   0  0  0  0  0  0  0  0  0  0  0  0
  -14.3781    0.5936    4.3617 H   0  0  0  0  0  0  0  0  0  0  0  0
  -13.0356    0.4280    5.5146 H   0  0  0  0  0  0  0  0  0  0  0  0
  1  3  1  0  0  0  0
  2  1  1  0  0  0  0
  4 26  1  0  0  0  0
  4 23  1  0  0  0  0
  5 16  1  0  0  0  0
  6 17  1  0  0  0  0
  6 20  1  0  0  0  0
  7  6  1  0  0  0  0
  8 10  1  0  0  0  0
  8  5  2  0  0  0  0
  9  8  1  0  0  0  0
 10 12  2  0  0  0  0
 11 10  1  0  0  0  0
 12 13  1  0  0  0  0
 12 14  1  0  0  0  0
 14 15  1  0  0  0  0
 16 14  2  0  0  0  0
 16 17  1  0  0  0  0
 17 19  1  0  0  0  0
 17 18  1  0  0  0  0
 20 21  1  0  0  0  0
 20 22  1  0  0  0  0
 23 20  1  0  0  0  0
 23 24  1  0  0  0  0
 25 23  1  0  0  0  0
 26 29  1  0  0  0  0
 26 27  1  0  0  0  0
 28 26  1  0  0  0  0
M  END
$$$$
