CSD_code = KULGUU | q = 0 | S = 0 | Stoichiometry = C19H17ClN4O7Pt | MND = 4
 OpenBabel04212202063D

 49 52  0  0  0  0  0  0  0  0999 V2000
    2.7682    3.5571    7.1642 Pt  0  0  1  0  0  0  0  0  0  0  0  0
    2.8858    4.8554    9.0210 Cl  0  0  0  0  0  0  0  0  0  0  0  0
   -0.3818    2.8815    7.0568 N   0  0  0  0  0  0  0  0  0  0  0  0
    2.7033    6.5262    6.1572 N   0  0  0  0  0  0  0  0  0  0  0  0
    2.7574    2.3299    5.6028 N   0  0  0  0  0  0  0  0  0  0  0  0
    4.3367    2.3783    7.6776 N   0  0  0  0  0  0  0  0  0  0  0  0
    0.4615    2.2293    7.6532 O   0  0  0  0  0  0  0  0  0  0  0  0
   -1.3775    2.3844    6.5727 O   0  0  0  0  0  0  0  0  0  0  0  0
   -2.4460    4.6167    7.0566 O   0  0  0  0  0  0  0  0  0  0  0  0
   -2.0758    7.3557    6.1644 O   0  0  0  0  0  0  0  0  0  0  0  0
    0.5121    8.1852    5.6724 O   0  0  0  0  0  0  0  0  0  0  0  0
    2.9564    7.6790    6.4112 O   0  0  0  0  0  0  0  0  0  0  0  0
    3.5221    5.7268    5.7261 O   0  0  0  0  0  0  0  0  0  0  0  0
    1.1776    4.7048    6.6894 C   0  0  0  0  0  0  0  0  0  0  0  0
   -0.1461    4.2803    6.8501 C   0  0  0  0  0  0  0  0  0  0  0  0
   -1.2615    5.1466    6.7444 C   0  0  0  0  0  0  0  0  0  0  0  0
   -1.0221    6.4783    6.3602 C   0  0  0  0  0  0  0  0  0  0  0  0
    0.2880    6.9299    6.1559 C   0  0  0  0  0  0  0  0  0  0  0  0
    1.3605    6.0490    6.3414 C   0  0  0  0  0  0  0  0  0  0  0  0
   -3.6119    5.3989    7.2180 C   0  0  0  0  0  0  0  0  0  0  0  0
   -3.4299    6.2656    7.8550 H   0  0  0  0  0  0  0  0  0  0  0  0
   -4.3292    4.7302    7.6931 H   0  0  0  0  0  0  0  0  0  0  0  0
   -4.0101    5.7293    6.2567 H   0  0  0  0  0  0  0  0  0  0  0  0
   -2.3218    7.6851    4.8061 C   0  0  0  0  0  0  0  0  0  0  0  0
   -1.4478    8.1408    4.3362 H   0  0  0  0  0  0  0  0  0  0  0  0
   -3.1446    8.3970    4.8216 H   0  0  0  0  0  0  0  0  0  0  0  0
   -2.6140    6.7956    4.2366 H   0  0  0  0  0  0  0  0  0  0  0  0
    0.2854    9.2519    6.5850 C   0  0  0  0  0  0  0  0  0  0  0  0
   -0.7221    9.2122    7.0059 H   0  0  0  0  0  0  0  0  0  0  0  0
    0.4135   10.1621    6.0039 H   0  0  0  0  0  0  0  0  0  0  0  0
    1.0298    9.2201    7.3847 H   0  0  0  0  0  0  0  0  0  0  0  0
    3.6588    1.3236    5.6661 C   0  0  0  0  0  0  0  0  0  0  0  0
    3.7151    0.3489    4.6714 C   0  0  0  0  0  0  0  0  0  0  0  0
    4.4341   -0.4509    4.7355 H   0  0  0  0  0  0  0  0  0  0  0  0
    2.8419    0.4067    3.6023 C   0  0  0  0  0  0  0  0  0  0  0  0
    2.8699   -0.3450    2.8294 H   0  0  0  0  0  0  0  0  0  0  0  0
    1.9325    1.4552    3.5449 C   0  0  0  0  0  0  0  0  0  0  0  0
    1.2355    1.5449    2.7279 H   0  0  0  0  0  0  0  0  0  0  0  0
    1.9278    2.3899    4.5607 C   0  0  0  0  0  0  0  0  0  0  0  0
    1.2368    3.2215    4.5372 H   0  0  0  0  0  0  0  0  0  0  0  0
    4.5464    1.3526    6.8284 C   0  0  0  0  0  0  0  0  0  0  0  0
    5.5521    0.4178    7.0721 C   0  0  0  0  0  0  0  0  0  0  0  0
    5.7145   -0.4023    6.3924 H   0  0  0  0  0  0  0  0  0  0  0  0
    6.3436    0.5487    8.1985 C   0  0  0  0  0  0  0  0  0  0  0  0
    7.1248   -0.1677    8.4016 H   0  0  0  0  0  0  0  0  0  0  0  0
    6.1147    1.6140    9.0576 C   0  0  0  0  0  0  0  0  0  0  0  0
    6.7099    1.7535    9.9451 H   0  0  0  0  0  0  0  0  0  0  0  0
    5.0989    2.5047    8.7575 C   0  0  0  0  0  0  0  0  0  0  0  0
    4.8794    3.3501    9.3984 H   0  0  0  0  0  0  0  0  0  0  0  0
  1  6  1  0  0  0  0
  1  2  1  6  0  0  0
  3  7  2  0  0  0  0
  4 19  1  0  0  0  0
  4 12  2  0  0  0  0
  5 32  1  0  0  0  0
  5  1  1  0  0  0  0
  6 48  1  0  0  0  0
  8  3  2  0  0  0  0
  9 20  1  0  0  0  0
 10 17  1  0  0  0  0
 11 18  1  0  0  0  0
 11 28  1  0  0  0  0
 13  4  2  0  0  0  0
 14 15  1  0  0  0  0
 14  1  1  0  0  0  0
 15  3  1  0  0  0  0
 16 15  2  0  0  0  0
 16  9  1  0  0  0  0
 17 16  1  0  0  0  0
 18 19  1  0  0  0  0
 18 17  2  0  0  0  0
 19 14  2  0  0  0  0
 20 22  1  0  0  0  0
 20 21  1  0  0  0  0
 23 20  1  0  0  0  0
 24 26  1  0  0  0  0
 24 10  1  0  0  0  0
 25 24  1  0  0  0  0
 27 24  1  0  0  0  0
 28 29  1  0  0  0  0
 28 31  1  0  0  0  0
 30 28  1  0  0  0  0
 32 41  2  0  0  0  0
 33 34  1  0  0  0  0
 33 32  1  0  0  0  0
 35 33  2  0  0  0  0
 36 35  1  0  0  0  0
 37 35  1  0  0  0  0
 37 39  2  0  0  0  0
 38 37  1  0  0  0  0
 39  5  1  0  0  0  0
 40 39  1  0  0  0  0
 41 42  1  0  0  0  0
 41  6  1  0  0  0  0
 42 44  2  0  0  0  0
 43 42  1  0  0  0  0
 44 45  1  0  0  0  0
 44 46  1  0  0  0  0
 46 47  1  0  0  0  0
 48 46  2  0  0  0  0
 48 49  1  0  0  0  0
M  END
$$$$
