CSD_code = KULGED | q = 0 | S = 0 | Stoichiometry = C14H15ClN2OPd | MND = 4
 OpenBabel04212202063D

 34 36  0  0  1  0  0  0  0  0999 V2000
    1.1013    0.1245    7.4559 Pd  0  0  2  0  0  0  0  0  0  0  0  0
    1.4935   -2.0025    8.4081 Cl  0  0  0  0  0  0  0  0  0  0  0  0
    2.6677    0.2557    9.8917 O   0  0  0  0  0  0  0  0  0  0  0  0
    2.1398    0.9887    8.8553 N   0  0  0  0  0  0  0  0  0  0  0  0
    0.0525   -0.7249    6.0349 N   0  0  0  0  0  0  0  0  0  0  0  0
    0.9727    2.0229    6.8091 C   0  0  0  0  0  0  0  0  0  0  0  0
    0.3417    2.5712    5.7006 C   0  0  0  0  0  0  0  0  0  0  0  0
    0.4091    3.9349    5.4400 C   0  0  0  0  0  0  0  0  0  0  0  0
    1.1103    4.7777    6.2854 C   0  0  0  0  0  0  0  0  0  0  0  0
    1.7491    4.2641    7.3994 C   0  0  0  0  0  0  0  0  0  0  0  0
    1.6833    2.8986    7.6624 C   0  0  0  0  0  0  0  0  0  0  0  0
    2.3186    2.2620    8.8125 C   0  0  0  0  0  0  0  0  0  0  0  0
    3.0930    3.0161    9.8425 C   0  0  0  0  0  0  0  0  0  0  0  0
   -1.2060   -1.0860    6.3133 C   0  0  1  0  0  3  0  0  0  0  0  0
   -1.9271   -1.8892    5.4396 C   0  0  0  0  0  0  0  0  0  0  0  0
   -1.3322   -2.3291    4.2688 C   0  0  0  0  0  0  0  0  0  0  0  0
   -0.0256   -1.9487    3.9990 C   0  0  0  0  0  0  0  0  0  0  0  0
    0.6308   -1.1424    4.9108 C   0  0  0  0  0  0  0  0  0  0  0  0
   -1.7581   -0.5937    7.6138 C   0  0  0  0  0  0  0  0  0  0  0  0
    2.4145   -0.6872    9.6659 H   0  0  0  0  0  0  0  0  0  0  0  0
   -0.2158    1.9372    5.0189 H   0  0  0  0  0  0  0  0  0  0  0  0
   -0.0892    4.3396    4.5701 H   0  0  0  0  0  0  0  0  0  0  0  0
    1.1592    5.8363    6.0757 H   0  0  0  0  0  0  0  0  0  0  0  0
    2.2963    4.9226    8.0580 H   0  0  0  0  0  0  0  0  0  0  0  0
    2.4594    3.7693   10.3082 H   0  0  0  0  0  0  0  0  0  0  0  0
    3.9387    3.5204    9.3773 H   0  0  0  0  0  0  0  0  0  0  0  0
    3.4584    2.3330   10.6049 H   0  0  0  0  0  0  0  0  0  0  0  0
   -2.9394   -2.1717    5.6831 H   0  0  0  0  0  0  0  0  0  0  0  0
   -1.8753   -2.9590    3.5812 H   0  0  0  0  0  0  0  0  0  0  0  0
    0.4759   -2.2727    3.1014 H   0  0  0  0  0  0  0  0  0  0  0  0
    1.6548   -0.8154    4.7440 H   0  0  0  0  0  0  0  0  0  0  0  0
   -2.8176   -0.8170    7.7075 H   0  0  0  0  0  0  0  0  0  0  0  0
   -1.2190   -1.0829    8.4384 H   0  0  0  0  0  0  0  0  0  0  0  0
   -1.5996    0.4927    7.6970 H   0  0  0  0  0  0  0  0  0  0  0  0
  1  2  1  6  0  0  0
  1  4  1  0  0  0  0
  4  3  1  0  0  0  0
  5 14  1  0  0  0  0
  5  1  1  0  0  0  0
  6  1  2  0  0  0  0
  6 11  1  0  0  0  0
  7  6  1  0  0  0  0
  8  7  2  0  0  0  0
  8  9  1  0  0  0  0
  9 10  2  0  0  0  0
 10 11  1  0  0  0  0
 10 24  1  0  0  0  0
 11 12  2  0  0  0  0
 12  4  1  0  0  0  0
 12 13  1  0  0  0  0
 13 25  1  0  0  0  0
 13 27  1  0  0  0  0
 14 19  1  1  0  0  0
 15 28  1  0  0  0  0
 15 14  1  0  0  0  0
 16 15  2  0  0  0  0
 17 16  1  0  0  0  0
 17 18  2  0  0  0  0
 18  5  1  0  0  0  0
 19 34  1  0  0  0  0
 19 32  1  0  0  0  0
 19 33  1  0  0  0  0
 20  3  1  0  0  0  0
 21  7  1  0  0  0  0
 22  8  1  0  0  0  0
 23  9  1  0  0  0  0
 26 13  1  0  0  0  0
 29 16  1  0  0  0  0
 30 17  1  0  0  0  0
 31 18  1  0  0  0  0
M  END
$$$$
