CSD_code = KULGAZ | q = 0 | S = 0 | Stoichiometry = C15H18ClN3OPd | MND = 4
 OpenBabel04212202063D

 39 41  0  0  0  0  0  0  0  0999 V2000
    2.5827    3.4519    2.6624 Pd  0  0  2  0  0  0  0  0  0  0  0  0
    3.8043    1.6331    3.5285 Cl  0  0  0  0  0  0  0  0  0  0  0  0
    1.4545    0.8921    1.9121 O   0  0  0  0  0  0  0  0  0  0  0  0
    1.3069    2.2564    1.8169 N   0  0  0  0  0  0  0  0  0  0  0  0
    3.8661    4.6853    3.5093 N   0  0  0  0  0  0  0  0  0  0  0  0
    6.8728    6.5426    5.7227 N   0  0  0  0  0  0  0  0  0  0  0  0
    1.3742    4.8296    1.8377 C   0  0  0  0  0  0  0  0  0  0  0  0
    1.4162    6.2178    1.8538 C   0  0  0  0  0  0  0  0  0  0  0  0
    0.4426    6.9724    1.2098 C   0  0  0  0  0  0  0  0  0  0  0  0
   -0.5962    6.3521    0.5369 C   0  0  0  0  0  0  0  0  0  0  0  0
   -0.6692    4.9713    0.5012 C   0  0  0  0  0  0  0  0  0  0  0  0
    0.3053    4.2132    1.1443 C   0  0  0  0  0  0  0  0  0  0  0  0
    0.3176    2.7528    1.1601 C   0  0  0  0  0  0  0  0  0  0  0  0
   -0.7141    1.9160    0.4769 C   0  0  0  0  0  0  0  0  0  0  0  0
    3.5971    5.2906    4.6683 C   0  0  0  0  0  3  0  0  0  0  0  0
    4.5536    5.9180    5.4315 C   0  0  0  0  0  0  0  0  0  0  0  0
    5.8961    5.9409    5.0034 C   0  0  0  0  0  0  0  0  0  0  0  0
    6.1549    5.3010    3.7745 C   0  0  0  0  0  0  0  0  0  0  0  0
    5.1318    4.6973    3.0834 C   0  0  0  0  0  0  0  0  0  0  0  0
    8.2425    6.5040    5.2684 C   0  0  0  0  0  0  0  0  0  0  0  0
    6.5659    7.1789    6.9814 C   0  0  0  0  0  0  0  0  0  0  0  0
    2.2801    0.7858    2.4722 H   0  0  0  0  0  0  0  0  0  0  0  0
    2.2184    6.7333    2.3713 H   0  0  0  0  0  0  0  0  0  0  0  0
    0.4970    8.0521    1.2345 H   0  0  0  0  0  0  0  0  0  0  0  0
   -1.3498    6.9453    0.0393 H   0  0  0  0  0  0  0  0  0  0  0  0
   -1.4806    4.4887   -0.0241 H   0  0  0  0  0  0  0  0  0  0  0  0
    2.5590    5.2662    4.9922 H   0  0  0  0  0  0  0  0  0  0  0  0
    4.2548    6.3767    6.3580 H   0  0  0  0  0  0  0  0  0  0  0  0
    7.1483    5.2629    3.3628 H   0  0  0  0  0  0  0  0  0  0  0  0
    5.3259    4.1886    2.1409 H   0  0  0  0  0  0  0  0  0  0  0  0
   -0.7259    2.1353   -0.5896 H   0  0  0  0  0  0  0  0  0  0  0  0
   -0.4919    0.8621    0.6241 H   0  0  0  0  0  0  0  0  0  0  0  0
   -1.7006    2.1351    0.8826 H   0  0  0  0  0  0  0  0  0  0  0  0
    8.3500    7.0088    4.3041 H   0  0  0  0  0  0  0  0  0  0  0  0
    8.5948    5.4738    5.1669 H   0  0  0  0  0  0  0  0  0  0  0  0
    8.8787    7.0105    5.9890 H   0  0  0  0  0  0  0  0  0  0  0  0
    7.4685    7.6207    7.3948 H   0  0  0  0  0  0  0  0  0  0  0  0
    5.8288    7.9751    6.8463 H   0  0  0  0  0  0  0  0  0  0  0  0
    6.1753    6.4576    7.7052 H   0  0  0  0  0  0  0  0  0  0  0  0
  1  5  1  0  0  0  0
  1  2  1  1  0  0  0
  3 22  1  0  0  0  0
  4  3  1  0  0  0  0
  4  1  1  0  0  0  0
  5 15  1  0  0  0  0
  6 21  1  0  0  0  0
  7  8  1  0  0  0  0
  7  1  2  0  0  0  0
  8 23  1  0  0  0  0
  9 24  1  0  0  0  0
  9  8  2  0  0  0  0
 10  9  1  0  0  0  0
 11 10  2  0  0  0  0
 11 12  1  0  0  0  0
 12 13  2  0  0  0  0
 12  7  1  0  0  0  0
 13  4  1  0  0  0  0
 14 32  1  0  0  0  0
 14 33  1  0  0  0  0
 14 13  1  0  0  0  0
 15 27  1  0  0  0  0
 15 16  1  0  0  0  0
 16 28  1  0  0  0  0
 17 16  2  0  0  0  0
 17  6  1  0  0  0  0
 18 17  1  0  0  0  0
 19  5  1  0  0  0  0
 19 18  2  0  0  0  0
 20  6  1  0  0  0  0
 20 36  1  0  0  0  0
 21 37  1  0  0  0  0
 21 39  1  0  0  0  0
 25 10  1  0  0  0  0
 26 11  1  0  0  0  0
 29 18  1  0  0  0  0
 30 19  1  0  0  0  0
 31 14  1  0  0  0  0
 34 20  1  0  0  0  0
 35 20  1  0  0  0  0
 38 21  1  0  0  0  0
M  END
$$$$
