CSD_code = KULKEI | q = 0 | S = 0 | Stoichiometry = C18H18Cl2N4O14Pt | MND = 6
 OpenBabel04212202063D

 57 60  0  0  0  0  0  0  0  0999 V2000
   12.7791    6.4105    4.1969 Pt  0  0  0  0  0  0  0  0  0  0  0  0
   12.5800    7.9119    2.4495 Cl  0  0  0  0  0  0  0  0  0  0  0  0
   12.8614    8.3129    5.5091 Cl  0  0  0  0  0  0  0  0  0  0  0  0
   13.3256    4.6150    1.9755 N   0  0  0  0  0  0  0  0  0  0  0  0
   15.9861    7.5121    4.6925 N   0  0  0  0  0  0  0  0  0  0  0  0
   12.3317    5.2075    6.8069 N   0  0  0  0  0  0  0  0  0  0  0  0
    9.5113    7.1124    3.4501 N   0  0  0  0  0  0  0  0  0  0  0  0
   16.7409    8.4511    4.7571 O   0  0  0  0  0  0  0  0  0  0  0  0
   15.3557    7.0591    5.6255 O   0  0  0  0  0  0  0  0  0  0  0  0
   18.0177    7.3450    2.8785 O   0  0  0  0  0  0  0  0  0  0  0  0
   17.6346    6.1363    0.2975 O   0  0  0  0  0  0  0  0  0  0  0  0
   15.2988    4.4736    0.0781 O   0  0  0  0  0  0  0  0  0  0  0  0
   13.1288    3.8430    1.0730 O   0  0  0  0  0  1  0  0  0  0  0  0
   12.4971    4.7002    2.9179 O   0  0  0  0  0  0  0  0  0  0  0  0
   10.1887    6.4864    2.6611 O   0  0  0  0  0  0  0  0  0  0  0  0
    8.6890    7.9428    3.1507 O   0  0  0  0  0  0  0  0  0  0  0  0
    7.4662    7.2534    5.2511 O   0  0  0  0  0  0  0  0  0  0  0  0
    7.8934    6.7749    8.0525 O   0  0  0  0  0  0  0  0  0  0  0  0
   10.3430    5.4058    8.6843 O   0  0  0  0  0  0  0  0  0  0  0  0
   12.5709    4.7096    7.8765 O   0  0  0  0  0  1  0  0  0  0  0  0
   13.1646    5.1081    5.8698 O   0  0  0  0  0  0  0  0  0  0  0  0
   14.6028    6.2107    3.2039 C   0  0  0  0  0  0  0  0  0  0  0  0
   15.8134    6.8274    3.4326 C   0  0  0  0  0  0  0  0  0  0  0  0
   16.8907    6.7512    2.5121 C   0  0  0  0  0  0  0  0  0  0  0  0
   16.6897    6.0408    1.3115 C   0  0  0  0  0  0  0  0  0  0  0  0
   15.5250    5.2823    1.1051 C   0  0  0  0  0  0  0  0  0  0  0  0
   14.4888    5.3829    2.0757 C   0  0  0  0  0  0  0  0  0  0  0  0
   10.9620    6.3408    5.2180 C   0  0  0  0  0  0  0  0  0  0  0  0
    9.7134    6.7853    4.8422 C   0  0  0  0  0  0  0  0  0  0  0  0
    8.6286    6.8612    5.7536 C   0  0  0  0  0  0  0  0  0  0  0  0
    8.8609    6.4966    7.0951 C   0  0  0  0  0  0  0  0  0  0  0  0
   10.0752    5.9073    7.4857 C   0  0  0  0  0  0  0  0  0  0  0  0
   11.1173    5.8365    6.5188 C   0  0  0  0  0  0  0  0  0  0  0  0
   19.2629    7.0885    2.2564 C   0  0  0  0  0  0  0  0  0  0  0  0
   19.3965    6.0262    2.0475 H   0  0  0  0  0  0  0  0  0  0  0  0
   20.0061    7.4239    2.9792 H   0  0  0  0  0  0  0  0  0  0  0  0
   19.3786    7.6586    1.3333 H   0  0  0  0  0  0  0  0  0  0  0  0
   16.3194    4.0290   -0.7964 C   0  0  0  0  0  0  0  0  0  0  0  0
   16.5553    4.7760   -1.5561 H   0  0  0  0  0  0  0  0  0  0  0  0
   15.9004    3.1463   -1.2785 H   0  0  0  0  0  0  0  0  0  0  0  0
   17.2267    3.7631   -0.2529 H   0  0  0  0  0  0  0  0  0  0  0  0
    9.3431    5.1241    9.6459 C   0  0  0  0  0  0  0  0  0  0  0  0
    9.0401    6.0207   10.1891 H   0  0  0  0  0  0  0  0  0  0  0  0
    9.8174    4.4282   10.3373 H   0  0  0  0  0  0  0  0  0  0  0  0
    8.4670    4.6605    9.1909 H   0  0  0  0  0  0  0  0  0  0  0  0
    6.2327    7.0555    5.9166 C   0  0  0  0  0  0  0  0  0  0  0  0
    6.1833    6.0726    6.3873 H   0  0  0  0  0  0  0  0  0  0  0  0
    5.4808    7.1324    5.1317 H   0  0  0  0  0  0  0  0  0  0  0  0
    6.0489    7.8276    6.6653 H   0  0  0  0  0  0  0  0  0  0  0  0
    8.0303    8.0812    8.5945 C   0  0  0  0  0  0  0  0  0  0  0  0
    8.9958    8.2058    9.0948 H   0  0  0  0  0  0  0  0  0  0  0  0
    7.2232    8.1899    9.3165 H   0  0  0  0  0  0  0  0  0  0  0  0
    7.9414    8.8478    7.8186 H   0  0  0  0  0  0  0  0  0  0  0  0
   17.3936    7.2400   -0.5642 C   0  0  0  0  0  0  0  0  0  0  0  0
   16.4196    7.1565   -1.0565 H   0  0  0  0  0  0  0  0  0  0  0  0
   18.1874    7.2151   -1.3083 H   0  0  0  0  0  0  0  0  0  0  0  0
   17.4248    8.1881   -0.0184 H   0  0  0  0  0  0  0  0  0  0  0  0
  1 28  1  0  0  0  0
  1  3  1  0  0  0  0
  1 21  1  0  0  0  0
  2  1  1  0  0  0  0
  4 27  1  0  0  0  0
  4 14  1  0  0  0  0
  5  8  2  0  0  0  0
  5  9  2  0  0  0  0
  6 20  1  0  0  0  0
  7 29  1  0  0  0  0
 11 25  1  0  0  0  0
 12 26  1  0  0  0  0
 13  4  1  0  0  0  0
 14  1  1  0  0  0  0
 15  7  2  0  0  0  0
 16  7  2  0  0  0  0
 17 30  1  0  0  0  0
 17 46  1  0  0  0  0
 18 50  1  0  0  0  0
 19 42  1  0  0  0  0
 21  6  1  0  0  0  0
 22 23  1  0  0  0  0
 22  1  1  0  0  0  0
 23  5  1  0  0  0  0
 24 10  1  0  0  0  0
 24 23  2  0  0  0  0
 25 24  1  0  0  0  0
 26 25  2  0  0  0  0
 26 27  1  0  0  0  0
 27 22  2  0  0  0  0
 28 33  1  0  0  0  0
 29 28  2  0  0  0  0
 29 30  1  0  0  0  0
 30 31  2  0  0  0  0
 31 32  1  0  0  0  0
 31 18  1  0  0  0  0
 32 19  1  0  0  0  0
 33  6  1  0  0  0  0
 33 32  2  0  0  0  0
 34 10  1  0  0  0  0
 34 36  1  0  0  0  0
 35 34  1  0  0  0  0
 37 34  1  0  0  0  0
 38 41  1  0  0  0  0
 38 12  1  0  0  0  0
 39 38  1  0  0  0  0
 40 38  1  0  0  0  0
 42 43  1  0  0  0  0
 42 44  1  0  0  0  0
 45 42  1  0  0  0  0
 46 47  1  0  0  0  0
 46 49  1  0  0  0  0
 48 46  1  0  0  0  0
 50 51  1  0  0  0  0
 50 52  1  0  0  0  0
 53 50  1  0  0  0  0
 54 57  1  0  0  0  0
 54 11  1  0  0  0  0
 55 54  1  0  0  0  0
 56 54  1  0  0  0  0
M  END
$$$$
