CSD_code = KUMBEB | q = 0 | S = 0 | Stoichiometry = C20H32Cl2N2O2Si2Zr | MND = 6
 OpenBabel04212202063D

 61 62  0  0  0  0  0  0  0  0999 V2000
   -2.0629    4.8270   11.8600 Zr  0  0  0  0  0  0  0  0  0  0  0  0
   -3.3315    3.7206   10.1662 Cl  0  0  0  0  0  0  0  0  0  0  0  0
   -3.7128    6.5101   11.9748 Cl  0  0  0  0  0  0  0  0  0  0  0  0
   -0.2752    7.3588   12.0597 Si  0  0  0  0  0  0  0  0  0  0  0  0
    0.9258    4.7341   13.1658 Si  0  0  0  0  0  0  0  0  0  0  0  0
   -0.7923    5.2845    9.8888 O   0  0  0  0  0  0  0  0  0  0  0  0
   -0.8833    2.8387   11.8140 O   0  0  0  0  0  0  0  0  0  0  0  0
   -0.3209    5.7225   12.5600 N   0  0  0  0  0  0  0  0  0  0  0  0
   -2.8708    4.0473   13.5136 N   0  0  0  0  0  0  0  0  0  0  0  0
   -0.4213    4.5268    8.7403 C   0  0  0  0  0  0  0  0  0  0  0  0
   -0.1347    5.1929    7.9203 H   0  0  0  0  0  0  0  0  0  0  0  0
   -1.2397    3.8734    8.4161 H   0  0  0  0  0  0  0  0  0  0  0  0
    0.4454    3.9291    9.0304 H   0  0  0  0  0  0  0  0  0  0  0  0
   -1.5415    6.4431    9.6157 C   0  0  0  0  0  0  0  0  0  0  0  0
   -2.4191    6.5152    8.5406 C   0  0  0  0  0  0  0  0  0  0  0  0
   -2.5880    5.6600    7.9033 H   0  0  0  0  0  0  0  0  0  0  0  0
   -3.1135    7.6919    8.3076 C   0  0  0  0  0  0  0  0  0  0  0  0
   -3.8078    7.7424    7.4828 H   0  0  0  0  0  0  0  0  0  0  0  0
   -2.9186    8.7865    9.1299 C   0  0  0  0  0  0  0  0  0  0  0  0
   -3.4548    9.7048    8.9450 H   0  0  0  0  0  0  0  0  0  0  0  0
   -2.0541    8.6910   10.2063 C   0  0  0  0  0  0  0  0  0  0  0  0
   -1.9246    9.5384   10.8614 H   0  0  0  0  0  0  0  0  0  0  0  0
   -1.3557    7.5226   10.4821 C   0  0  0  0  0  0  0  0  0  0  0  0
   -1.0358    8.4803   13.4130 C   0  0  0  0  0  0  0  0  0  0  0  0
   -2.0967    8.2738   13.5305 H   0  0  0  0  0  0  0  0  0  0  0  0
   -0.9205    9.5345   13.1840 H   0  0  0  0  0  0  0  0  0  0  0  0
   -0.5508    8.2992   14.3672 H   0  0  0  0  0  0  0  0  0  0  0  0
    1.4505    8.0287   11.5720 C   0  0  0  0  0  0  0  0  0  0  0  0
    2.0815    8.0963   12.4496 H   0  0  0  0  0  0  0  0  0  0  0  0
    1.3838    9.0192   11.1355 H   0  0  0  0  0  0  0  0  0  0  0  0
    1.9482    7.3824   10.8570 H   0  0  0  0  0  0  0  0  0  0  0  0
    2.0077    5.5698   14.4977 C   0  0  0  0  0  0  0  0  0  0  0  0
    2.5718    6.3815   14.0547 H   0  0  0  0  0  0  0  0  0  0  0  0
    2.7192    4.8778   14.9344 H   0  0  0  0  0  0  0  0  0  0  0  0
    1.4085    5.9897   15.2981 H   0  0  0  0  0  0  0  0  0  0  0  0
    2.1297    4.0438   11.8301 C   0  0  0  0  0  0  0  0  0  0  0  0
    1.6083    3.4872   11.0564 H   0  0  0  0  0  0  0  0  0  0  0  0
    2.8692    3.3813   12.2694 H   0  0  0  0  0  0  0  0  0  0  0  0
    2.6652    4.8558   11.3495 H   0  0  0  0  0  0  0  0  0  0  0  0
    0.0550    3.2354   13.9592 C   0  0  0  0  0  0  0  0  0  0  0  0
    0.1878    2.8815   15.2937 C   0  0  0  0  0  0  0  0  0  0  0  0
    0.8346    3.4701   15.9254 H   0  0  0  0  0  0  0  0  0  0  0  0
   -0.4770    1.7889   15.8246 C   0  0  0  0  0  0  0  0  0  0  0  0
   -0.3570    1.5324   16.8666 H   0  0  0  0  0  0  0  0  0  0  0  0
   -1.2945    1.0246   15.0115 C   0  0  0  0  0  0  0  0  0  0  0  0
   -1.8176    0.1696   15.4130 H   0  0  0  0  0  0  0  0  0  0  0  0
   -1.4467    1.3496   13.6738 C   0  0  0  0  0  0  0  0  0  0  0  0
   -2.1015    0.7552   13.0551 H   0  0  0  0  0  0  0  0  0  0  0  0
   -0.7897    2.4628   13.1637 C   0  0  0  0  0  0  0  0  0  0  0  0
   -1.0824    1.7431   10.9175 C   0  0  0  0  0  0  0  0  0  0  0  0
   -0.4404    0.9036   11.2048 H   0  0  0  0  0  0  0  0  0  0  0  0
   -0.8091    2.0877    9.9204 H   0  0  0  0  0  0  0  0  0  0  0  0
   -2.1296    1.4272   10.8922 H   0  0  0  0  0  0  0  0  0  0  0  0
   -4.1923    3.4607   13.4300 C   0  0  0  0  0  0  0  0  0  0  0  0
   -4.4283    2.9054   14.3532 H   0  0  0  0  0  0  0  0  0  0  0  0
   -4.2371    2.7591   12.5888 H   0  0  0  0  0  0  0  0  0  0  0  0
   -4.9769    4.2308   13.2894 H   0  0  0  0  0  0  0  0  0  0  0  0
   -2.7670    4.9163   14.6695 C   0  0  0  0  0  0  0  0  0  0  0  0
   -3.5230    5.7252   14.6424 H   0  0  0  0  0  0  0  0  0  0  0  0
   -1.7669    5.3651   14.6959 H   0  0  0  0  0  0  0  0  0  0  0  0
   -2.9218    4.3411   15.5983 H   0  0  0  0  0  0  0  0  0  0  0  0
  1  3  1  0  0  0  0
  1  8  1  0  0  0  0
  1  9  1  0  0  0  0
  2  1  1  0  0  0  0
  4  8  1  0  0  0  0
  4 24  1  0  0  0  0
  5 40  1  0  0  0  0
  5 32  1  0  0  0  0
  7 49  1  0  0  0  0
  8  5  1  0  0  0  0
  9 58  1  0  0  0  0
 10 13  1  0  0  0  0
 10  6  1  0  0  0  0
 11 10  1  0  0  0  0
 12 10  1  0  0  0  0
 14  6  1  0  0  0  0
 14 23  1  0  0  0  0
 15 14  2  0  0  0  0
 16 15  1  0  0  0  0
 17 15  1  0  0  0  0
 17 19  2  0  0  0  0
 18 17  1  0  0  0  0
 19 21  1  0  0  0  0
 20 19  1  0  0  0  0
 21 23  2  0  0  0  0
 21 22  1  0  0  0  0
 23  4  1  0  0  0  0
 24 25  1  0  0  0  0
 24 27  1  0  0  0  0
 26 24  1  0  0  0  0
 28  4  1  0  0  0  0
 28 29  1  0  0  0  0
 30 28  1  0  0  0  0
 31 28  1  0  0  0  0
 32 34  1  0  0  0  0
 32 35  1  0  0  0  0
 33 32  1  0  0  0  0
 36 38  1  0  0  0  0
 36  5  1  0  0  0  0
 37 36  1  0  0  0  0
 39 36  1  0  0  0  0
 40 41  1  0  0  0  0
 41 43  2  0  0  0  0
 41 42  1  0  0  0  0
 43 44  1  0  0  0  0
 45 46  1  0  0  0  0
 45 43  1  0  0  0  0
 47 45  2  0  0  0  0
 48 47  1  0  0  0  0
 49 47  1  0  0  0  0
 49 40  2  0  0  0  0
 50 51  1  0  0  0  0
 50  7  1  0  0  0  0
 52 50  1  0  0  0  0
 53 50  1  0  0  0  0
 54  9  1  0  0  0  0
 54 55  1  0  0  0  0
 56 54  1  0  0  0  0
 57 54  1  0  0  0  0
 58 60  1  0  0  0  0
 58 61  1  0  0  0  0
 59 58  1  0  0  0  0
M  END
$$$$
