CSD_code = KUMBAX | q = 0 | S = 0 | Stoichiometry = C18H26Cl3NO2Si2Ti | MND = 4
 OpenBabel04212202063D

 53 54  0  0  0  0  0  0  0  0999 V2000
    9.9312    7.6389   14.0624 Ti  0  0  0  0  0  0  0  0  0  0  0  0
   11.8902    8.2681   14.7807 Cl  0  0  0  0  0  0  0  0  0  0  0  0
   10.6969    6.8234   12.2014 Cl  0  0  0  0  0  0  0  0  0  0  0  0
    9.5587    5.7231   15.0179 Cl  0  0  0  0  0  0  0  0  0  0  0  0
    9.1875   10.4350   13.6437 Si  0  0  0  0  0  0  0  0  0  0  0  0
    7.0310    8.2323   13.1273 Si  0  0  0  0  0  0  0  0  0  0  0  0
    9.2523    8.5781   16.1555 O   0  0  0  0  0  0  0  0  0  0  0  0
    8.4503    8.6537   10.6845 O   0  0  0  0  0  0  0  0  0  0  0  0
    8.6095    8.8052   13.5776 N   0  0  0  0  0  0  0  0  0  0  0  0
    9.8509   10.7607   15.4122 C   0  0  0  0  0  0  0  0  0  0  0  0
    9.8387    9.8074   16.4368 C   0  0  0  0  0  0  0  0  0  0  0  0
   10.3925   10.0967   17.6784 C   0  0  0  0  0  0  0  0  0  0  0  0
   10.4125    9.3595   18.4650 H   0  0  0  0  0  0  0  0  0  0  0  0
   10.9612   11.3372   17.9150 C   0  0  0  0  0  0  0  0  0  0  0  0
   11.3955   11.5445   18.8814 H   0  0  0  0  0  0  0  0  0  0  0  0
   10.9758   12.2950   16.9197 C   0  0  0  0  0  0  0  0  0  0  0  0
   11.4178   13.2630   17.1000 H   0  0  0  0  0  0  0  0  0  0  0  0
   10.4269   11.9946   15.6858 C   0  0  0  0  0  0  0  0  0  0  0  0
   10.4427   12.7381   14.9031 H   0  0  0  0  0  0  0  0  0  0  0  0
    8.8863    7.7819   17.2768 C   0  0  0  0  0  0  0  0  0  0  0  0
    9.7620    7.3108   17.7361 H   0  0  0  0  0  0  0  0  0  0  0  0
    8.2265    7.0001   16.8958 H   0  0  0  0  0  0  0  0  0  0  0  0
    8.3525    8.3885   18.0155 H   0  0  0  0  0  0  0  0  0  0  0  0
    7.8623   11.7561   13.2766 C   0  0  0  0  0  0  0  0  0  0  0  0
    7.0206   11.6803   13.9559 H   0  0  0  0  0  0  0  0  0  0  0  0
    7.4798   11.6479   12.2686 H   0  0  0  0  0  0  0  0  0  0  0  0
    8.2757   12.7538   13.3723 H   0  0  0  0  0  0  0  0  0  0  0  0
   10.6714   10.6037   12.4343 C   0  0  0  0  0  0  0  0  0  0  0  0
   11.0923    9.6211   12.2080 H   0  0  0  0  0  0  0  0  0  0  0  0
   11.4644   11.2135   12.8590 H   0  0  0  0  0  0  0  0  0  0  0  0
   10.3698   11.0610   11.4969 H   0  0  0  0  0  0  0  0  0  0  0  0
    5.8504    8.4627   14.6197 C   0  0  0  0  0  0  0  0  0  0  0  0
    5.7259    9.5103   14.8736 H   0  0  0  0  0  0  0  0  0  0  0  0
    6.2460    7.9551   15.4954 H   0  0  0  0  0  0  0  0  0  0  0  0
    4.8690    8.0492   14.4143 H   0  0  0  0  0  0  0  0  0  0  0  0
    7.1682    6.3710   12.7070 C   0  0  0  0  0  0  0  0  0  0  0  0
    8.0480    6.1761   12.0944 H   0  0  0  0  0  0  0  0  0  0  0  0
    6.2984    6.0314   12.1522 H   0  0  0  0  0  0  0  0  0  0  0  0
    7.2402    5.7647   13.6089 H   0  0  0  0  0  0  0  0  0  0  0  0
    6.3982    9.1979   11.6263 C   0  0  0  0  0  0  0  0  0  0  0  0
    7.2595    9.2900   10.5249 C   0  0  0  0  0  0  0  0  0  0  0  0
    6.8777    9.9906    9.3879 C   0  0  0  0  0  0  0  0  0  0  0  0
    7.5315   10.0695    8.5332 H   0  0  0  0  0  0  0  0  0  0  0  0
    5.6335   10.6004    9.3459 C   0  0  0  0  0  0  0  0  0  0  0  0
    5.3414   11.1436    8.4590 H   0  0  0  0  0  0  0  0  0  0  0  0
    4.7724   10.5160   10.4236 C   0  0  0  0  0  0  0  0  0  0  0  0
    3.8039   10.9911   10.3833 H   0  0  0  0  0  0  0  0  0  0  0  0
    5.1622    9.8162   11.5548 C   0  0  0  0  0  0  0  0  0  0  0  0
    4.4935    9.7471   12.3987 H   0  0  0  0  0  0  0  0  0  0  0  0
    9.3468    8.6119    9.5970 C   0  0  0  0  0  0  0  0  0  0  0  0
    8.8893    8.1351    8.7242 H   0  0  0  0  0  0  0  0  0  0  0  0
   10.1901    8.0135    9.9375 H   0  0  0  0  0  0  0  0  0  0  0  0
    9.6939    9.6139    9.3246 H   0  0  0  0  0  0  0  0  0  0  0  0
  1  2  1  0  0  0  0
  1  4  1  0  0  0  0
  3  1  1  0  0  0  0
  5 10  1  0  0  0  0
  6  9  1  0  0  0  0
  6 32  1  0  0  0  0
  7 11  1  0  0  0  0
  7 20  1  0  0  0  0
  9  5  1  0  0  0  0
  9  1  1  0  0  0  0
 10 18  2  0  0  0  0
 10 11  1  0  0  0  0
 11 12  2  0  0  0  0
 12 14  1  0  0  0  0
 12 13  1  0  0  0  0
 14 15  1  0  0  0  0
 16 17  1  0  0  0  0
 16 14  2  0  0  0  0
 18 16  1  0  0  0  0
 19 18  1  0  0  0  0
 20 21  1  0  0  0  0
 20 23  1  0  0  0  0
 22 20  1  0  0  0  0
 24 27  1  0  0  0  0
 24  5  1  0  0  0  0
 24 25  1  0  0  0  0
 26 24  1  0  0  0  0
 28 30  1  0  0  0  0
 28  5  1  0  0  0  0
 29 28  1  0  0  0  0
 31 28  1  0  0  0  0
 32 33  1  0  0  0  0
 32 34  1  0  0  0  0
 35 32  1  0  0  0  0
 36  6  1  0  0  0  0
 36 39  1  0  0  0  0
 37 36  1  0  0  0  0
 38 36  1  0  0  0  0
 40  6  1  0  0  0  0
 41  8  1  0  0  0  0
 41 40  2  0  0  0  0
 42 41  1  0  0  0  0
 43 42  1  0  0  0  0
 44 42  2  0  0  0  0
 44 46  1  0  0  0  0
 45 44  1  0  0  0  0
 46 48  2  0  0  0  0
 47 46  1  0  0  0  0
 48 40  1  0  0  0  0
 48 49  1  0  0  0  0
 50 52  1  0  0  0  0
 50  8  1  0  0  0  0
 51 50  1  0  0  0  0
 53 50  1  0  0  0  0
M  END
$$$$
