CSD_code = KUMFAA | q = 0 | S = 0 | Stoichiometry = C24H27ClNRh | MND = 8
 OpenBabel04212202063D

 54 57  0  0  1  0  0  0  0  0999 V2000
    2.7436    3.0370   13.8706 Rh  0  0  1  0  0  0  0  0  0  0  0  0
    4.7656    4.0914   13.5296 Cl  0  0  0  0  0 15  0  0  0  0  0  0
    3.6544    1.6822   15.0523 N   0  0  0  0  0  0  0  0  0  0  0  0
    3.3927    1.7202   12.5147 C   0  0  0  0  0  0  0  0  0  0  0  0
    3.3019    1.8127   11.1318 C   0  0  0  0  0  0  0  0  0  0  0  0
    2.8389    2.6730   10.6678 H   0  0  0  0  0  0  0  0  0  0  0  0
    3.8187    0.8125   10.3280 C   0  0  0  0  0  0  0  0  0  0  0  0
    3.7286    0.8956    9.2534 H   0  0  0  0  0  0  0  0  0  0  0  0
    4.4686   -0.3021   10.8643 C   0  0  0  0  0  0  0  0  0  0  0  0
    4.6043   -0.3902   12.2341 C   0  0  0  0  0  0  0  0  0  0  0  0
    5.1287   -1.2228   12.6826 H   0  0  0  0  0  0  0  0  0  0  0  0
    4.0755    0.6102   13.0561 C   0  0  0  0  0  0  0  0  0  0  0  0
    4.1996    0.6609   14.4745 C   0  0  0  0  0  3  0  0  0  0  0  0
    4.7600   -0.0781   15.0422 H   0  0  0  0  0  0  0  0  0  0  0  0
    3.7148    1.8547   16.4383 C   0  0  0  0  0  0  0  0  0  0  0  0
    3.3771    0.8166   17.3057 C   0  0  0  0  0  0  0  0  0  0  0  0
    3.0602   -0.1344   16.9007 H   0  0  0  0  0  0  0  0  0  0  0  0
    3.4194    1.0200   18.6729 C   0  0  0  0  0  0  0  0  0  0  0  0
    3.1470    0.2159   19.3407 H   0  0  0  0  0  0  0  0  0  0  0  0
    3.8091    2.2464   19.1851 C   0  0  0  0  0  0  0  0  0  0  0  0
    3.8438    2.3981   20.2535 H   0  0  0  0  0  0  0  0  0  0  0  0
    4.1522    3.2774   18.3237 C   0  0  0  0  0  0  0  0  0  0  0  0
    4.4626    4.2319   18.7223 H   0  0  0  0  0  0  0  0  0  0  0  0
    4.0996    3.0917   16.9563 C   0  0  0  0  0  0  0  0  0  0  0  0
    4.3725    3.8825   16.2699 H   0  0  0  0  0  0  0  0  0  0  0  0
    0.6215    2.9050   14.3920 C   0  0  2  0  0  0  0  0  0  0  0  0
    0.7145    3.3662   13.0411 C   0  0  2  0  0  3  0  0  0  0  0  0
    1.4508    4.5861   13.0638 C   0  0  1  0  0  0  0  0  0  0  0  0
    1.6315    4.9728   14.4578 C   0  0  0  0  0  0  0  0  0  0  0  0
    1.1149    3.9556   15.2650 C   0  0  0  0  0  0  0  0  0  0  0  0
   -0.1900    1.7324   14.8500 C   0  0  0  0  0  0  0  0  0  0  0  0
   -1.2270    2.0399   15.0016 H   0  0  0  0  0  0  0  0  0  0  0  0
    0.1858    1.3382   15.7924 H   0  0  0  0  0  0  0  0  0  0  0  0
   -0.1755    0.9355   14.1096 H   0  0  0  0  0  0  0  0  0  0  0  0
    0.0385    2.7277   11.8667 C   0  0  0  0  0  0  0  0  0  0  0  0
   -1.0384    2.8879   11.9472 H   0  0  0  0  0  0  0  0  0  0  0  0
    0.2205    1.6550   11.8318 H   0  0  0  0  0  0  0  0  0  0  0  0
    0.3774    3.1637   10.9312 H   0  0  0  0  0  0  0  0  0  0  0  0
    1.6864    5.5252   11.9198 C   0  0  0  0  0  0  0  0  0  0  0  0
    0.9607    6.3403   11.9560 H   0  0  0  0  0  0  0  0  0  0  0  0
    1.5867    5.0180   10.9632 H   0  0  0  0  0  0  0  0  0  0  0  0
    2.6850    5.9540   11.9786 H   0  0  0  0  0  0  0  0  0  0  0  0
    2.1895    6.2941   14.8797 C   0  0  0  0  0  0  0  0  0  0  0  0
    1.5353    7.0969   14.5359 H   0  0  0  0  0  0  0  0  0  0  0  0
    3.1745    6.4483   14.4399 H   0  0  0  0  0  0  0  0  0  0  0  0
    2.2790    6.3565   15.9613 H   0  0  0  0  0  0  0  0  0  0  0  0
    0.9229    3.9770   16.7495 C   0  0  0  0  0  0  0  0  0  0  0  0
   -0.0992    4.2883   16.9764 H   0  0  0  0  0  0  0  0  0  0  0  0
    1.6075    4.6724   17.2286 H   0  0  0  0  0  0  0  0  0  0  0  0
    1.0792    2.9925   17.1869 H   0  0  0  0  0  0  0  0  0  0  0  0
    5.0243   -1.3541    9.9515 C   0  0  0  0  0  0  0  0  0  0  0  0
    5.4291   -2.1877   10.5196 H   0  0  0  0  0  0  0  0  0  0  0  0
    5.8205   -0.9361    9.3363 H   0  0  0  0  0  0  0  0  0  0  0  0
    4.2496   -1.7288    9.2840 H   0  0  0  0  0  0  0  0  0  0  0  0
  1  4  1  6  0  0  0
  1 26  1  0  0  0  0
  1  3  1  0  0  0  0
  3 15  1  0  0  0  0
  4 12  1  0  0  0  0
  5  4  2  0  0  0  0
  6  5  1  0  0  0  0
  7  9  2  0  0  0  0
  7  5  1  0  0  0  0
  8  7  1  0  0  0  0
  9 10  1  0  0  0  0
 10 11  1  0  0  0  0
 10 12  2  0  0  0  0
 12 13  1  0  0  0  0
 13 14  1  0  0  0  0
 13  3  1  0  0  0  0
 15 24  2  0  0  0  0
 15 16  1  0  0  0  0
 16 18  2  0  0  0  0
 17 16  1  0  0  0  0
 18 20  1  0  0  0  0
 18 19  1  0  0  0  0
 20 21  1  0  0  0  0
 22 23  1  0  0  0  0
 22 20  2  0  0  0  0
 24 22  1  0  0  0  0
 25 24  1  0  0  0  0
 26 31  1  1  0  0  0
 26 30  1  0  0  0  0
 27 35  1  1  0  0  0
 27 28  1  0  0  0  0
 27 26  1  0  0  0  0
 28 39  1  6  0  0  0
 28  1  1  0  0  0  0
 28 29  1  0  0  0  0
 29 43  1  0  0  0  0
 29 30  2  0  0  0  0
 30 47  1  0  0  0  0
 31 32  1  0  0  0  0
 31 33  1  0  0  0  0
 34 31  1  0  0  0  0
 35 36  1  0  0  0  0
 37 35  1  0  0  0  0
 38 35  1  0  0  0  0
 39 40  1  0  0  0  0
 39 42  1  0  0  0  0
 41 39  1  0  0  0  0
 43 46  1  0  0  0  0
 44 43  1  0  0  0  0
 45 43  1  0  0  0  0
 47 48  1  0  0  0  0
 47 50  1  0  0  0  0
 47 49  1  0  0  0  0
 51 52  1  0  0  0  0
 51  9  1  0  0  0  0
 53 51  1  0  0  0  0
 54 51  1  0  0  0  0
M  END
$$$$
