CSD_code = KUMGEF | q = 0 | S = 0 | Stoichiometry = C22H25ClNRh | MND = 8
 OpenBabel04212202063D

 50 53  0  0  1  0  0  0  0  0999 V2000
    2.1669    5.6704    3.4679 Rh  0  0  1  0  0  0  0  0  0  0  0  0
    4.2650    4.7256    3.3444 Cl  0  0  0  0  0 15  0  0  0  0  0  0
    2.9700    7.3210    2.6554 N   0  0  0  0  0  0  0  0  0  0  0  0
    2.8182    6.6123    5.1026 C   0  0  0  0  0  0  0  0  0  0  0  0
    2.7810    6.1196    6.4007 C   0  0  0  0  0  0  0  0  0  0  0  0
    2.4058    5.1248    6.5977 H   0  0  0  0  0  0  0  0  0  0  0  0
    3.2438    6.8849    7.4552 C   0  0  0  0  0  0  0  0  0  0  0  0
    3.2028    6.4886    8.4607 H   0  0  0  0  0  0  0  0  0  0  0  0
    3.7730    8.1585    7.2507 C   0  0  0  0  0  0  0  0  0  0  0  0
    3.8543    8.6415    5.9591 C   0  0  0  0  0  0  0  0  0  0  0  0
    4.2880    9.6153    5.7817 H   0  0  0  0  0  0  0  0  0  0  0  0
    3.3924    7.8769    4.8861 C   0  0  0  0  0  0  0  0  0  0  0  0
    3.5065    8.2401    3.4892 C   0  0  1  0  0  3  0  0  0  0  0  0
    4.1413    9.3750    2.9827 C   0  0  0  0  0  0  0  0  0  0  0  0
    4.5644   10.0965    3.6625 H   0  0  0  0  0  0  0  0  0  0  0  0
    4.2346    9.5566    1.6192 C   0  0  0  0  0  0  0  0  0  0  0  0
    4.7213   10.4298    1.2119 H   0  0  0  0  0  0  0  0  0  0  0  0
    3.7066    8.5838    0.7775 C   0  0  0  0  0  0  0  0  0  0  0  0
    3.7775    8.6752   -0.2944 H   0  0  0  0  0  0  0  0  0  0  0  0
    3.0916    7.4837    1.3396 C   0  0  0  0  0  0  0  0  0  0  0  0
    2.6914    6.6963    0.7122 H   0  0  0  0  0  0  0  0  0  0  0  0
    0.0046    5.8040    3.0947 C   0  0  2  0  0  0  0  0  0  0  0  0
    0.1981    5.0259    4.2786 C   0  0  2  0  0  3  0  0  0  0  0  0
    0.9888    3.8974    3.9169 C   0  0  1  0  0  0  0  0  0  0  0  0
    1.1027    3.8805    2.4646 C   0  0  0  0  0  0  0  0  0  0  0  0
    0.4958    5.0362    1.9644 C   0  0  0  0  0  0  0  0  0  0  0  0
   -0.8929    6.9992    2.9903 C   0  0  0  0  0  0  0  0  0  0  0  0
   -1.9167    6.6739    2.7927 H   0  0  0  0  0  0  0  0  0  0  0  0
   -0.5862    7.6578    2.1796 H   0  0  0  0  0  0  0  0  0  0  0  0
   -0.8888    7.5688    3.9169 H   0  0  0  0  0  0  0  0  0  0  0  0
   -0.4385    5.3126    5.6042 C   0  0  0  0  0  0  0  0  0  0  0  0
   -1.5171    5.1682    5.5182 H   0  0  0  0  0  0  0  0  0  0  0  0
   -0.2573    6.3367    5.9260 H   0  0  0  0  0  0  0  0  0  0  0  0
   -0.0662    4.6413    6.3727 H   0  0  0  0  0  0  0  0  0  0  0  0
    1.3303    2.7151    4.7733 C   0  0  0  0  0  0  0  0  0  0  0  0
    0.6390    1.8957    4.5652 H   0  0  0  0  0  0  0  0  0  0  0  0
    1.2649    2.9587    5.8310 H   0  0  0  0  0  0  0  0  0  0  0  0
    2.3412    2.3717    4.5619 H   0  0  0  0  0  0  0  0  0  0  0  0
    1.6900    2.7392    1.6980 C   0  0  0  0  0  0  0  0  0  0  0  0
    1.1277    1.8279    1.9069 H   0  0  0  0  0  0  0  0  0  0  0  0
    2.7253    2.5738    1.9956 H   0  0  0  0  0  0  0  0  0  0  0  0
    1.6637    2.9271    0.6276 H   0  0  0  0  0  0  0  0  0  0  0  0
    0.2234    5.3675    0.5284 C   0  0  0  0  0  0  0  0  0  0  0  0
   -0.7551    4.9733    0.2450 H   0  0  0  0  0  0  0  0  0  0  0  0
    0.9677    4.9253   -0.1311 H   0  0  0  0  0  0  0  0  0  0  0  0
    0.2068    6.4439    0.3647 H   0  0  0  0  0  0  0  0  0  0  0  0
    4.2689    8.9606    8.4171 C   0  0  0  0  0  0  0  0  0  0  0  0
    4.5577    9.9619    8.1079 H   0  0  0  0  0  0  0  0  0  0  0  0
    5.1349    8.4750    8.8661 H   0  0  0  0  0  0  0  0  0  0  0  0
    3.4980    9.0396    9.1822 H   0  0  0  0  0  0  0  0  0  0  0  0
  1 24  1  0  0  0  0
  1  4  1  1  0  0  0
  3  1  1  0  0  0  0
  3 13  1  0  0  0  0
  4  5  1  0  0  0  0
  5  6  1  0  0  0  0
  5  7  2  0  0  0  0
  7  8  1  0  0  0  0
  9  7  1  0  0  0  0
  9 47  1  0  0  0  0
 10  9  2  0  0  0  0
 11 10  1  0  0  0  0
 12  4  2  0  0  0  0
 12 10  1  0  0  0  0
 13 14  1  6  0  0  0
 13 12  1  0  0  0  0
 14 15  1  0  0  0  0
 16 14  2  0  0  0  0
 17 16  1  0  0  0  0
 18 20  2  0  0  0  0
 18 16  1  0  0  0  0
 19 18  1  0  0  0  0
 20  3  1  0  0  0  0
 21 20  1  0  0  0  0
 22 27  1  6  0  0  0
 22  1  1  0  0  0  0
 22 23  1  0  0  0  0
 23 31  1  6  0  0  0
 24 23  1  0  0  0  0
 24 35  1  1  0  0  0
 25 24  1  0  0  0  0
 26 25  2  0  0  0  0
 26 22  1  0  0  0  0
 27 30  1  0  0  0  0
 28 27  1  0  0  0  0
 29 27  1  0  0  0  0
 31 33  1  0  0  0  0
 31 34  1  0  0  0  0
 32 31  1  0  0  0  0
 35 37  1  0  0  0  0
 36 35  1  0  0  0  0
 38 35  1  0  0  0  0
 39 40  1  0  0  0  0
 39 41  1  0  0  0  0
 39 25  1  0  0  0  0
 42 39  1  0  0  0  0
 43 26  1  0  0  0  0
 44 43  1  0  0  0  0
 45 43  1  0  0  0  0
 46 43  1  0  0  0  0
 47 49  1  0  0  0  0
 47 50  1  0  0  0  0
 48 47  1  0  0  0  0
M  END
$$$$
