CSD_code = KUMHEG | q = 0 | S = 0 | Stoichiometry = C24H27ClIrN | MND = 8
 OpenBabel04212202063D

 54 57  0  0  1  0  0  0  0  0999 V2000
    5.7739   12.7416    4.3543 Ir  0  0  1  0  0  0  0  0  0  0  0  0
    7.8340   11.6718    4.6768 Cl  0  0  0  0  0 15  0  0  0  0  0  0
    6.6475   13.9386    2.9676 N   0  0  0  0  0  0  0  0  0  0  0  0
    6.5056   14.2430    5.4948 C   0  0  0  0  0  0  0  0  0  0  0  0
    6.4569   14.3639    6.8779 C   0  0  0  0  0  0  0  0  0  0  0  0
    5.9872   13.5960    7.4740 H   0  0  0  0  0  0  0  0  0  0  0  0
    7.0181   15.4557    7.5151 C   0  0  0  0  0  0  0  0  0  0  0  0
    6.9604   15.5295    8.5924 H   0  0  0  0  0  0  0  0  0  0  0  0
    7.6720   16.4662    6.8056 C   0  0  0  0  0  0  0  0  0  0  0  0
    7.7573   16.3567    5.4333 C   0  0  0  0  0  0  0  0  0  0  0  0
    8.2751   17.1079    4.8533 H   0  0  0  0  0  0  0  0  0  0  0  0
    7.1832   15.2610    4.7807 C   0  0  0  0  0  0  0  0  0  0  0  0
    7.2332   15.0239    3.3767 C   0  0  0  0  0  3  0  0  0  0  0  0
    7.7575   15.6766    2.6850 H   0  0  0  0  0  0  0  0  0  0  0  0
    6.6143   13.6081    1.6081 C   0  0  0  0  0  0  0  0  0  0  0  0
    6.1604   14.5272    0.6634 C   0  0  0  0  0  0  0  0  0  0  0  0
    5.8373   15.5061    0.9884 H   0  0  0  0  0  0  0  0  0  0  0  0
    6.1012   14.1717   -0.6715 C   0  0  0  0  0  0  0  0  0  0  0  0
    5.7390   14.8841   -1.3983 H   0  0  0  0  0  0  0  0  0  0  0  0
    6.5033   12.9097   -1.0765 C   0  0  0  0  0  0  0  0  0  0  0  0
    6.4570   12.6377   -2.1203 H   0  0  0  0  0  0  0  0  0  0  0  0
    6.9631   11.9978   -0.1389 C   0  0  0  0  0  0  0  0  0  0  0  0
    7.2837   11.0159   -0.4540 H   0  0  0  0  0  0  0  0  0  0  0  0
    7.0133   12.3367    1.1991 C   0  0  0  0  0  0  0  0  0  0  0  0
    7.3759   11.6413    1.9411 H   0  0  0  0  0  0  0  0  0  0  0  0
    3.6081   12.7864    3.8875 C   0  0  2  0  0  0  0  0  0  0  0  0
    3.7562   12.5059    5.2842 C   0  0  2  0  0  3  0  0  0  0  0  0
    4.4840   11.2859    5.3906 C   0  0  1  0  0  0  0  0  0  0  0  0
    4.6067   10.7231    4.0537 C   0  0  0  0  0  0  0  0  0  0  0  0
    4.0631   11.6284    3.1449 C   0  0  0  0  0  0  0  0  0  0  0  0
    2.7794   13.8907    3.3107 C   0  0  0  0  0  0  0  0  0  0  0  0
    1.7385   13.5710    3.2274 H   0  0  0  0  0  0  0  0  0  0  0  0
    3.1273   14.1633    2.3158 H   0  0  0  0  0  0  0  0  0  0  0  0
    2.8143   14.7745    3.9439 H   0  0  0  0  0  0  0  0  0  0  0  0
    3.1283   13.2909    6.3932 C   0  0  0  0  0  0  0  0  0  0  0  0
    2.0556   13.0901    6.4153 H   0  0  0  0  0  0  0  0  0  0  0  0
    3.2715   14.3606    6.2550 H   0  0  0  0  0  0  0  0  0  0  0  0
    3.5454   13.0125    7.3567 H   0  0  0  0  0  0  0  0  0  0  0  0
    4.7538   10.5014    6.6375 C   0  0  0  0  0  0  0  0  0  0  0  0
    3.9936    9.7280    6.7657 H   0  0  0  0  0  0  0  0  0  0  0  0
    4.7439   11.1415    7.5162 H   0  0  0  0  0  0  0  0  0  0  0  0
    5.7265   10.0172    6.5782 H   0  0  0  0  0  0  0  0  0  0  0  0
    5.1707    9.3684    3.7811 C   0  0  0  0  0  0  0  0  0  0  0  0
    5.1705    9.1488    2.7163 H   0  0  0  0  0  0  0  0  0  0  0  0
    4.5818    8.6072    4.2947 H   0  0  0  0  0  0  0  0  0  0  0  0
    6.1956    9.3057    4.1475 H   0  0  0  0  0  0  0  0  0  0  0  0
    3.8565   11.4315    1.6780 C   0  0  0  0  0  0  0  0  0  0  0  0
    2.8435   11.0675    1.4928 H   0  0  0  0  0  0  0  0  0  0  0  0
    4.5592   10.7070    1.2731 H   0  0  0  0  0  0  0  0  0  0  0  0
    3.9825   12.3644    1.1311 H   0  0  0  0  0  0  0  0  0  0  0  0
    8.2794   17.6231    7.5410 C   0  0  0  0  0  0  0  0  0  0  0  0
    8.6981   18.3481    6.8479 H   0  0  0  0  0  0  0  0  0  0  0  0
    9.0743   17.2747    8.1994 H   0  0  0  0  0  0  0  0  0  0  0  0
    7.5309   18.1195    8.1569 H   0  0  0  0  0  0  0  0  0  0  0  0
  1 28  1  0  0  0  0
  1  4  1  1  0  0  0
  3 13  1  0  0  0  0
  3  1  1  0  0  0  0
  4  5  1  0  0  0  0
  5  6  1  0  0  0  0
  5  7  2  0  0  0  0
  7  8  1  0  0  0  0
  9  7  1  0  0  0  0
  9 51  1  0  0  0  0
 10  9  2  0  0  0  0
 11 10  1  0  0  0  0
 12 10  1  0  0  0  0
 12  4  2  0  0  0  0
 13 12  1  0  0  0  0
 14 13  1  0  0  0  0
 15  3  1  0  0  0  0
 16 17  1  0  0  0  0
 16 15  2  0  0  0  0
 18 16  1  0  0  0  0
 19 18  1  0  0  0  0
 20 18  2  0  0  0  0
 20 22  1  0  0  0  0
 21 20  1  0  0  0  0
 22 24  2  0  0  0  0
 23 22  1  0  0  0  0
 24 15  1  0  0  0  0
 24 25  1  0  0  0  0
 26 31  1  6  0  0  0
 26  1  1  0  0  0  0
 26 27  1  0  0  0  0
 27 28  1  0  0  0  0
 27 35  1  6  0  0  0
 28 39  1  1  0  0  0
 29 28  1  0  0  0  0
 30 26  1  0  0  0  0
 30 29  2  0  0  0  0
 31 34  1  0  0  0  0
 32 31  1  0  0  0  0
 33 31  1  0  0  0  0
 35 36  1  0  0  0  0
 35 38  1  0  0  0  0
 37 35  1  0  0  0  0
 39 40  1  0  0  0  0
 39 41  1  0  0  0  0
 42 39  1  0  0  0  0
 43 29  1  0  0  0  0
 43 46  1  0  0  0  0
 43 45  1  0  0  0  0
 44 43  1  0  0  0  0
 47 30  1  0  0  0  0
 48 47  1  0  0  0  0
 49 47  1  0  0  0  0
 50 47  1  0  0  0  0
 51 54  1  0  0  0  0
 51 53  1  0  0  0  0
 52 51  1  0  0  0  0
M  END
$$$$
