CSD_code = KUMJUY | q = 0 | S = 0 | Stoichiometry = C22H25ClIrN | MND = 8
 OpenBabel04212202063D

 50 53  0  0  1  0  0  0  0  0999 V2000
    3.5645    4.1373   11.3279 Ir  0  0  2  0  0  0  0  0  0  0  0  0
    1.5396    4.0465   10.1394 Cl  0  0  0  0  0 15  0  0  0  0  0  0
    3.6979    6.0920   10.7439 N   0  0  0  0  0  0  0  0  0  0  0  0
    2.5197    4.8379   12.9321 C   0  0  0  0  0  0  0  0  0  0  0  0
    1.4625    4.1088   13.4638 C   0  0  0  0  0  0  0  0  0  0  0  0
    1.1480    3.1931   12.9845 H   0  0  0  0  0  0  0  0  0  0  0  0
    0.7832    4.5440   14.5903 C   0  0  0  0  0  0  0  0  0  0  0  0
   -0.0370    3.9597   14.9818 H   0  0  0  0  0  0  0  0  0  0  0  0
    1.1494    5.7266   15.2059 C   0  0  0  0  0  0  0  0  0  0  0  0
    0.6216    6.0745   16.0817 H   0  0  0  0  0  0  0  0  0  0  0  0
    2.1979    6.4661   14.6894 C   0  0  0  0  0  0  0  0  0  0  0  0
    2.4916    7.3912   15.1673 H   0  0  0  0  0  0  0  0  0  0  0  0
    2.8838    6.0260   13.5673 C   0  0  0  0  0  0  0  0  0  0  0  0
    4.0498    6.8295   13.0337 C   0  0  0  0  0  0  0  0  0  0  0  0
    4.1639    7.7562   13.5960 H   0  0  0  0  0  0  0  0  0  0  0  0
    4.9604    6.2351   13.1540 H   0  0  0  0  0  0  0  0  0  0  0  0
    3.8742    7.1298   11.5774 C   0  0  1  0  0  3  0  0  0  0  0  0
    3.9006    8.4361   11.1074 C   0  0  0  0  0  0  0  0  0  0  0  0
    4.0294    9.2477   11.8065 H   0  0  0  0  0  0  0  0  0  0  0  0
    3.7641    8.6878    9.7536 C   0  0  0  0  0  0  0  0  0  0  0  0
    3.7805    9.6984    9.3758 H   0  0  0  0  0  0  0  0  0  0  0  0
    3.6100    7.6073    8.8988 C   0  0  0  0  0  0  0  0  0  0  0  0
    3.5060    7.7448    7.8348 H   0  0  0  0  0  0  0  0  0  0  0  0
    3.5787    6.3355    9.4337 C   0  0  0  0  0  0  0  0  0  0  0  0
    3.4308    5.4764    8.7952 H   0  0  0  0  0  0  0  0  0  0  0  0
    4.4949    2.2680   10.2386 C   0  0  0  0  0  0  0  0  0  0  0  0
    5.5186    3.2003   10.3706 C   0  0  0  0  0  0  0  0  0  0  0  0
    5.6658    3.5136   11.7815 C   0  0  2  0  0  0  0  0  0  0  0  0
    4.7816    2.6679   12.5163 C   0  0  1  0  0  3  0  0  0  0  0  0
    3.9630    1.9888   11.5642 C   0  0  1  0  0  0  0  0  0  0  0  0
    3.9971    1.6034    8.9983 C   0  0  0  0  0  0  0  0  0  0  0  0
    4.0956    0.5211    9.0887 H   0  0  0  0  0  0  0  0  0  0  0  0
    4.5530    1.9303    8.1227 H   0  0  0  0  0  0  0  0  0  0  0  0
    2.9424    1.8338    8.8450 H   0  0  0  0  0  0  0  0  0  0  0  0
    6.4050    3.7466    9.2965 C   0  0  0  0  0  0  0  0  0  0  0  0
    7.3695    3.2343    9.3076 H   0  0  0  0  0  0  0  0  0  0  0  0
    6.5922    4.8104    9.4429 H   0  0  0  0  0  0  0  0  0  0  0  0
    5.9601    3.6123    8.3129 H   0  0  0  0  0  0  0  0  0  0  0  0
    6.8318    4.2693   12.3408 C   0  0  0  0  0  0  0  0  0  0  0  0
    7.7321    3.6537   12.2818 H   0  0  0  0  0  0  0  0  0  0  0  0
    6.6717    4.5273   13.3856 H   0  0  0  0  0  0  0  0  0  0  0  0
    7.0197    5.1842   11.7794 H   0  0  0  0  0  0  0  0  0  0  0  0
    4.7733    2.4610   13.9989 C   0  0  0  0  0  0  0  0  0  0  0  0
    5.4198    1.6196   14.2554 H   0  0  0  0  0  0  0  0  0  0  0  0
    3.7699    2.2450   14.3578 H   0  0  0  0  0  0  0  0  0  0  0  0
    5.1339    3.3424   14.5237 H   0  0  0  0  0  0  0  0  0  0  0  0
    3.0105    0.8689   11.8508 C   0  0  0  0  0  0  0  0  0  0  0  0
    3.5153   -0.0920   11.7301 H   0  0  0  0  0  0  0  0  0  0  0  0
    2.1680    0.8992   11.1629 H   0  0  0  0  0  0  0  0  0  0  0  0
    2.6309    0.9308   12.8678 H   0  0  0  0  0  0  0  0  0  0  0  0
  1 30  1  0  0  0  0
  1 28  1  0  0  0  0
  1  4  1  1  0  0  0
  3  1  1  0  0  0  0
  3 17  1  0  0  0  0
  4  5  2  0  0  0  0
  4 13  1  0  0  0  0
  5  7  1  0  0  0  0
  6  5  1  0  0  0  0
  7  8  1  0  0  0  0
  7  9  2  0  0  0  0
  9 10  1  0  0  0  0
 11 12  1  0  0  0  0
 11  9  1  0  0  0  0
 13 11  2  0  0  0  0
 14 16  1  0  0  0  0
 14 13  1  0  0  0  0
 14 15  1  0  0  0  0
 17 18  1  6  0  0  0
 17 14  1  0  0  0  0
 18 19  1  0  0  0  0
 20 18  2  0  0  0  0
 21 20  1  0  0  0  0
 22 24  2  0  0  0  0
 22 20  1  0  0  0  0
 23 22  1  0  0  0  0
 24  3  1  0  0  0  0
 25 24  1  0  0  0  0
 26 27  2  0  0  0  0
 26 30  1  0  0  0  0
 27 28  1  0  0  0  0
 28 39  1  1  0  0  0
 28 29  1  0  0  0  0
 29 43  1  6  0  0  0
 30 47  1  1  0  0  0
 30 29  1  0  0  0  0
 31 32  1  0  0  0  0
 31 26  1  0  0  0  0
 33 31  1  0  0  0  0
 34 31  1  0  0  0  0
 35 36  1  0  0  0  0
 35 37  1  0  0  0  0
 35 27  1  0  0  0  0
 38 35  1  0  0  0  0
 39 41  1  0  0  0  0
 40 39  1  0  0  0  0
 42 39  1  0  0  0  0
 43 44  1  0  0  0  0
 43 45  1  0  0  0  0
 43 46  1  0  0  0  0
 47 50  1  0  0  0  0
 48 47  1  0  0  0  0
 49 47  1  0  0  0  0
M  END
$$$$
