CSD_code = KUMYIB | q = 1 | S = 0 | Stoichiometry = C12H12AuCl2N2O2(1+) | MND = 4
 OpenBabel04212202063D

 31 33  0  0  0  0  0  0  0  0999 V2000
   -0.9189    0.8394    3.1641 Au  0  0  0  0  0  0  0  0  0  0  0  0
   -1.3311    2.4286    1.6612 Cl  0  0  0  0  0  0  0  0  0  0  0  0
   -1.8439   -4.1435   -0.2817 O   0  0  0  0  0  0  0  0  0  0  0  0
   -1.2683   -0.7269    1.8903 N   0  0  0  0  0  0  0  0  0  0  0  0
   -1.1111   -1.9460    2.4563 C   0  0  0  0  0  0  0  0  0  0  0  0
   -1.3106   -3.0889    1.7135 C   0  0  0  0  0  0  0  0  0  0  0  0
   -1.1919   -4.0704    2.1405 H   0  0  0  0  0  0  0  0  0  0  0  0
   -1.6785   -3.0046    0.3546 C   0  0  0  0  0  0  0  0  0  0  0  0
   -1.8332   -1.7200   -0.1930 C   0  0  0  0  0  0  0  0  0  0  0  0
   -2.1144   -1.5690   -1.2216 H   0  0  0  0  0  0  0  0  0  0  0  0
   -1.6183   -0.6257    0.6114 C   0  0  0  0  0  0  0  0  0  0  0  0
   -1.7255    0.3816    0.2325 H   0  0  0  0  0  0  0  0  0  0  0  0
   -2.2045   -4.1516   -1.6562 C   0  0  0  0  0  0  0  0  0  0  0  0
   -3.1741   -3.6743   -1.8124 H   0  0  0  0  0  0  0  0  0  0  0  0
   -2.2680   -5.2022   -1.9322 H   0  0  0  0  0  0  0  0  0  0  0  0
   -1.4431   -3.6599   -2.2655 H   0  0  0  0  0  0  0  0  0  0  0  0
   -0.5035    2.4283    4.6671 Cl  0  0  0  0  0  0  0  0  0  0  0  0
    0.0086   -4.1434    6.6096 O   0  0  0  0  0  0  0  0  0  0  0  0
   -0.5672   -0.7268    4.4376 N   0  0  0  0  0  0  0  0  0  0  0  0
   -0.7243   -1.9460    3.8716 C   0  0  0  0  0  0  0  0  0  0  0  0
   -0.5248   -3.0889    4.6144 C   0  0  0  0  0  0  0  0  0  0  0  0
   -0.6435   -4.0703    4.1875 H   0  0  0  0  0  0  0  0  0  0  0  0
   -0.1568   -3.0046    5.9733 C   0  0  0  0  0  0  0  0  0  0  0  0
   -0.0021   -1.7200    6.5209 C   0  0  0  0  0  0  0  0  0  0  0  0
    0.2792   -1.5689    7.5494 H   0  0  0  0  0  0  0  0  0  0  0  0
   -0.2171   -0.6256    5.7165 C   0  0  0  0  0  0  0  0  0  0  0  0
   -0.1101    0.3817    6.0954 H   0  0  0  0  0  0  0  0  0  0  0  0
    0.3691   -4.1516    7.9841 C   0  0  0  0  0  0  0  0  0  0  0  0
    1.3387   -3.6743    8.1404 H   0  0  0  0  0  0  0  0  0  0  0  0
    0.4325   -5.2021    8.2602 H   0  0  0  0  0  0  0  0  0  0  0  0
   -0.3924   -3.6598    8.5934 H   0  0  0  0  0  0  0  0  0  0  0  0
  1 19  1  0  0  0  0
  1 17  1  0  0  0  0
  2  1  1  0  0  0  0
  3  8  1  0  0  0  0
  4  5  1  0  0  0  0
  4  1  1  0  0  0  0
  5 20  2  0  0  0  0
  6  7  1  0  0  0  0
  6  5  1  0  0  0  0
  8  6  2  0  0  0  0
  9  8  1  0  0  0  0
  9 11  2  0  0  0  0
 10  9  1  0  0  0  0
 11  4  1  0  0  0  0
 12 11  1  0  0  0  0
 13  3  1  0  0  0  0
 14 13  1  0  0  0  0
 15 13  1  0  0  0  0
 16 13  1  0  0  0  0
 18 28  1  0  0  0  0
 19 26  1  0  0  0  0
 20 19  1  0  0  0  0
 20 21  1  0  0  0  0
 21 23  2  0  0  0  0
 22 21  1  0  0  0  0
 23 24  1  0  0  0  0
 23 18  1  0  0  0  0
 24 25  1  0  0  0  0
 26 27  1  0  0  0  0
 26 24  2  0  0  0  0
 28 29  1  0  0  0  0
 28 30  1  0  0  0  0
 28 31  1  0  0  0  0
M  END
$$$$
