CSD_code = KUNBOK | q = 0 | S = 0 | Stoichiometry = C10H10Cl2N2Pd | MND = 4
 OpenBabel04212202063D

 25 26  0  0  0  0  0  0  0  0999 V2000
   -0.0217    1.9761    2.1603 Pd  0  0  0  0  0  0  0  0  0  0  0  0
    2.0238    1.9780    3.1828 Cl  0  0  0  0  0  0  0  0  0  0  0  0
   -0.0217    0.0445    2.1595 N   0  0  0  0  0  0  0  0  0  0  0  0
   -0.0213    3.9073    2.1596 N   0  0  0  0  0  0  0  0  0  0  0  0
    0.5953   -0.6267    1.1888 C   0  0  0  0  0  3  0  0  0  0  0  0
    0.6179   -2.0097    1.1511 C   0  0  0  0  0  0  0  0  0  0  0  0
   -0.0208   -2.7186    2.1575 C   0  0  0  0  0  0  0  0  0  0  0  0
    0.5378    4.5785    1.1543 C   0  0  0  0  0  3  0  0  0  0  0  0
    0.5584    5.9615    1.1155 C   0  0  0  0  0  0  0  0  0  0  0  0
   -0.0206    6.6703    2.1575 C   0  0  0  0  0  0  0  0  0  0  0  0
    1.0860   -0.0265    0.4224 H   0  0  0  0  0  0  0  0  0  0  0  0
    1.1260   -2.5199    0.3482 H   0  0  0  0  0  0  0  0  0  0  0  0
   -0.0208   -3.7979    2.1564 H   0  0  0  0  0  0  0  0  0  0  0  0
    0.9815    3.9784    0.3599 H   0  0  0  0  0  0  0  0  0  0  0  0
    1.0197    6.4715    0.2848 H   0  0  0  0  0  0  0  0  0  0  0  0
   -0.0203    7.7495    2.1568 H   0  0  0  0  0  0  0  0  0  0  0  0
   -2.0669    1.9764    1.1391 Cl  0  0  0  0  0  0  0  0  0  0  0  0
   -0.6379   -0.6285    3.1293 C   0  0  0  0  0  0  0  0  0  0  0  0
   -0.6597   -2.0117    3.1650 C   0  0  0  0  0  0  0  0  0  0  0  0
   -0.5802    4.5803    3.1637 C   0  0  0  0  0  0  0  0  0  0  0  0
   -0.6001    5.9633    3.2005 C   0  0  0  0  0  0  0  0  0  0  0  0
   -1.1285   -0.0299    3.8969 H   0  0  0  0  0  0  0  0  0  0  0  0
   -1.1679   -2.5233    3.9667 H   0  0  0  0  0  0  0  0  0  0  0  0
   -1.0245    3.9815    3.9589 H   0  0  0  0  0  0  0  0  0  0  0  0
   -1.0611    6.4748    4.0304 H   0  0  0  0  0  0  0  0  0  0  0  0
  1  2  1  0  0  0  0
  3  1  1  0  0  0  0
  3 18  1  0  0  0  0
  4  1  1  0  0  0  0
  4 20  1  0  0  0  0
  5  3  1  0  0  0  0
  6  5  1  0  0  0  0
  6  7  2  0  0  0  0
  7 19  1  0  0  0  0
  8  4  1  0  0  0  0
  9  8  1  0  0  0  0
  9 10  2  0  0  0  0
 10 21  1  0  0  0  0
 11  5  1  0  0  0  0
 12  6  1  0  0  0  0
 13  7  1  0  0  0  0
 14  8  1  0  0  0  0
 15  9  1  0  0  0  0
 16 10  1  0  0  0  0
 17  1  1  0  0  0  0
 18 19  2  0  0  0  0
 18 22  1  0  0  0  0
 19 23  1  0  0  0  0
 20 21  2  0  0  0  0
 20 24  1  0  0  0  0
 21 25  1  0  0  0  0
M  END
$$$$
