CSD_code = KUPJOW | q = 0 | S = 0 | Stoichiometry = C14H18Cl2Zr | MND = 12
 OpenBabel04212202063D

 35 35  0  0  1  0  0  0  0  0999 V2000
    1.2017    1.6688   13.3426 Zr  0  0  0  0  0  0  0  0  0  0  0  0
   -0.6638    1.5466   11.9435 Cl  0  0  0  0  0  0  0  0  0  0  0  0
   -0.1171    1.8013   15.2635 Cl  0  0  0  0  0  0  0  0  0  0  0  0
    1.1171   -0.7235   13.6080 C   0  0  1  0  0  0  0  0  0  0  0  0
    1.6203   -0.5172   12.2966 C   0  0  0  0  0  0  0  0  0  0  0  0
    1.1385   -0.8386   11.3797 H   0  0  0  0  0  0  0  0  0  0  0  0
    2.9063    0.0596   12.4017 C   0  0  0  0  0  0  0  0  0  0  0  0
    3.5905    0.2209   11.5776 H   0  0  0  0  0  0  0  0  0  0  0  0
    3.2099    0.2054   13.7751 C   0  0  0  0  0  0  0  0  0  0  0  0
    4.1673    0.5029   14.1853 H   0  0  0  0  0  0  0  0  0  0  0  0
    2.1094   -0.2771   14.5212 C   0  0  0  0  0  0  0  0  0  0  0  0
    2.0678   -0.3871   15.5995 H   0  0  0  0  0  0  0  0  0  0  0  0
   -0.2078   -1.3466   13.9528 C   0  0  0  0  0  0  0  0  0  0  0  0
   -0.9686   -0.9805   13.2545 H   0  0  0  0  0  0  0  0  0  0  0  0
   -0.4996   -1.0550   14.9673 H   0  0  0  0  0  0  0  0  0  0  0  0
   -0.1310   -2.8781   13.8706 C   0  0  0  0  0  0  0  0  0  0  0  0
    0.1463   -3.1686   12.8551 H   0  0  0  0  0  0  0  0  0  0  0  0
    0.6595   -3.2224   14.5416 H   0  0  0  0  0  0  0  0  0  0  0  0
   -1.4443   -3.5594   14.2534 C   0  0  0  0  0  0  0  0  0  0  0  0
   -1.2699   -4.6361   14.3190 H   0  0  0  0  0  0  0  0  0  0  0  0
   -1.7548   -3.2143   15.2418 H   0  0  0  0  0  0  0  0  0  0  0  0
   -2.5641   -3.3023   13.2516 C   0  0  0  0  0  0  0  0  0  0  0  0
   -3.4520   -3.8668   13.5267 H   0  0  0  0  0  0  0  0  0  0  0  0
   -2.2595   -3.6093   12.2534 H   0  0  0  0  0  0  0  0  0  0  0  0
   -2.8305   -2.2494   13.2222 H   0  0  0  0  0  0  0  0  0  0  0  0
    3.1113    3.1092   12.6773 C   0  0  0  0  0  0  0  0  0  0  0  0
    4.0794    2.7700   12.3303 H   0  0  0  0  0  0  0  0  0  0  0  0
    2.7873    3.4558   14.0113 C   0  0  0  0  0  3  0  0  0  0  0  0
    3.4580    3.4125   14.8621 H   0  0  0  0  0  0  0  0  0  0  0  0
    1.5113    4.0679   14.0015 C   0  0  0  0  0  0  0  0  0  0  0  0
    1.0269    4.5359   14.8500 H   0  0  0  0  0  0  0  0  0  0  0  0
    1.0330    4.0651   12.6763 C   0  0  0  0  0  0  0  0  0  0  0  0
    0.1137    4.5243   12.3312 H   0  0  0  0  0  0  0  0  0  0  0  0
    2.0164    3.4596   11.8544 C   0  0  0  0  0  0  0  0  0  0  0  0
    1.9877    3.4053   10.7716 H   0  0  0  0  0  0  0  0  0  0  0  0
  1  3  1  0  0  0  0
  2  1  1  0  0  0  0
  4  1  1  6  0  0  0
  4 13  1  0  0  0  0
  4 11  1  0  0  0  0
  5  7  2  0  0  0  0
  5  4  1  0  0  0  0
  6  5  1  0  0  0  0
  7  9  1  0  0  0  0
  8  7  1  0  0  0  0
  9 10  1  0  0  0  0
  9 11  2  0  0  0  0
 11 12  1  0  0  0  0
 13 15  1  0  0  0  0
 14 13  1  0  0  0  0
 16 13  1  0  0  0  0
 16 19  1  0  0  0  0
 16 18  1  0  0  0  0
 17 16  1  0  0  0  0
 19 20  1  0  0  0  0
 19 21  1  0  0  0  0
 22 23  1  0  0  0  0
 22 19  1  0  0  0  0
 24 22  1  0  0  0  0
 25 22  1  0  0  0  0
 26 28  1  0  0  0  0
 27 26  1  0  0  0  0
 28 29  1  0  0  0  0
 30 28  1  0  0  0  0
 30 31  1  0  0  0  0
 32 30  2  0  0  0  0
 33 32  1  0  0  0  0
 34 32  1  0  0  0  0
 34 26  2  0  0  0  0
 35 34  1  0  0  0  0
M  END
$$$$
