CSD_code = KUPMIR | q = 0 | S = 0 | Stoichiometry = C21H32Cl2N2P2W | MND = 7
 OpenBabel04212202063D

 60 57  0  0  0  0  0  0  0  0999 V2000
    4.1187    3.1726    1.5602 W   0  0  0  0  0  0  0  0  0  0  0  0
    5.8682    4.7290    1.6106 Cl  0  0  0  0  0 15  0  0  0  0  0  0
    5.8294    1.4189    1.6145 Cl  0  0  0  0  0 15  0  0  0  0  0  0
    4.4895    3.0739    4.0046 P   0  0  0  0  0  0  0  0  0  0  0  0
    4.5272    2.9382   -0.8635 P   0  0  0  0  0  0  0  0  0  0  0  0
    2.7955    1.9759    1.6113 N   0  0  0  0  0  2  0  0  0  0  0  0
    1.8131    1.2048    1.8157 N   0  0  0  0  0  0  0  0  0  0  0  0
    2.7884    4.7608    0.7689 C   0  0  0  0  0  3  0  0  0  0  0  0
    2.7788    4.8123    2.1965 C   0  0  0  0  0  0  0  0  0  0  0  0
    1.7572   -0.0622    1.6169 C   0  0  0  0  0  0  0  0  0  0  0  0
    2.8943   -0.8627    1.0524 C   0  0  0  0  0  0  0  0  0  0  0  0
    0.4936   -0.7767    1.9634 C   0  0  0  0  0  0  0  0  0  0  0  0
    6.1691    2.6225    4.5901 C   0  0  0  0  0  0  0  0  0  0  0  0
    4.1980    4.5131    5.1037 C   0  0  0  0  0  0  0  0  0  0  0  0
    3.2408    1.9408   -1.7029 C   0  0  0  0  0  0  0  0  0  0  0  0
    6.0382    2.0810   -1.4564 C   0  0  0  0  0  0  0  0  0  0  0  0
    3.4602    1.7505    4.7096 C   0  0  0  0  0  0  0  0  0  0  0  0
    3.7503    0.4439    4.3223 C   0  0  0  0  0  0  0  0  0  0  0  0
    2.9670   -0.6039    4.7664 C   0  0  0  0  0  0  0  0  0  0  0  0
    1.8751   -0.3588    5.5839 C   0  0  0  0  0  0  0  0  0  0  0  0
    1.5701    0.9393    5.9536 C   0  0  0  0  0  0  0  0  0  0  0  0
    2.3574    1.9918    5.5190 C   0  0  0  0  0  0  0  0  0  0  0  0
    4.6135    4.4598   -1.8635 C   0  0  0  0  0  0  0  0  0  0  0  0
    5.7628    5.2409   -1.7687 C   0  0  0  0  0  0  0  0  0  0  0  0
    5.8612    6.4292   -2.4676 C   0  0  0  0  0  0  0  0  0  0  0  0
    4.8115    6.8538   -3.2658 C   0  0  0  0  0  0  0  0  0  0  0  0
    3.6601    6.0897   -3.3531 C   0  0  0  0  0  0  0  0  0  0  0  0
    3.5566    4.9014   -2.6517 C   0  0  0  0  0  0  0  0  0  0  0  0
    3.2707    5.5945    0.2563 H   0  0  0  0  0  0  0  0  0  0  0  0
    1.8685    4.4425    0.2764 H   0  0  0  0  0  0  0  0  0  0  0  0
    3.2563    5.6822    2.6454 H   0  0  0  0  0  0  0  0  0  0  0  0
    1.8555    4.5219    2.6975 H   0  0  0  0  0  0  0  0  0  0  0  0
    3.0879   -1.7327    1.6771 H   0  0  0  0  0  0  0  0  0  0  0  0
    2.6496   -1.2211    0.0511 H   0  0  0  0  0  0  0  0  0  0  0  0
    3.7943   -0.2479    1.0082 H   0  0  0  0  0  0  0  0  0  0  0  0
    0.6819   -1.5075    2.7498 H   0  0  0  0  0  0  0  0  0  0  0  0
   -0.2534   -0.0697    2.3115 H   0  0  0  0  0  0  0  0  0  0  0  0
    0.1088   -1.3130    1.0960 H   0  0  0  0  0  0  0  0  0  0  0  0
    6.8573    3.3993    4.2520 H   0  0  0  0  0  0  0  0  0  0  0  0
    6.1832    2.5596    5.6786 H   0  0  0  0  0  0  0  0  0  0  0  0
    6.4806    1.6749    4.1550 H   0  0  0  0  0  0  0  0  0  0  0  0
    3.1852    4.8921    4.9935 H   0  0  0  0  0  0  0  0  0  0  0  0
    4.3806    4.2329    6.1410 H   0  0  0  0  0  0  0  0  0  0  0  0
    4.8983    5.2965    4.8117 H   0  0  0  0  0  0  0  0  0  0  0  0
    3.3200    0.9238   -1.3209 H   0  0  0  0  0  0  0  0  0  0  0  0
    2.2522    2.3225   -1.4532 H   0  0  0  0  0  0  0  0  0  0  0  0
    3.3904    1.9397   -2.7824 H   0  0  0  0  0  0  0  0  0  0  0  0
    6.9188    2.5339   -1.0019 H   0  0  0  0  0  0  0  0  0  0  0  0
    5.9974    1.0391   -1.1404 H   0  0  0  0  0  0  0  0  0  0  0  0
    6.1040    2.1484   -2.5430 H   0  0  0  0  0  0  0  0  0  0  0  0
    4.5844    0.2582    3.6585 H   0  0  0  0  0  0  0  0  0  0  0  0
    3.2053   -1.6159    4.4723 H   0  0  0  0  0  0  0  0  0  0  0  0
    1.2591   -1.1771    5.9275 H   0  0  0  0  0  0  0  0  0  0  0  0
    0.7134    1.1349    6.5823 H   0  0  0  0  0  0  0  0  0  0  0  0
    2.1051    3.0001    5.8108 H   0  0  0  0  0  0  0  0  0  0  0  0
    6.5738    4.9238   -1.1281 H   0  0  0  0  0  0  0  0  0  0  0  0
    6.7561    7.0285   -2.3856 H   0  0  0  0  0  0  0  0  0  0  0  0
    4.8873    7.7824   -3.8122 H   0  0  0  0  0  0  0  0  0  0  0  0
    2.8353    6.4231   -3.9665 H   0  0  0  0  0  0  0  0  0  0  0  0
    2.6474    4.3225   -2.7158 H   0  0  0  0  0  0  0  0  0  0  0  0
  1  6  1  0  0  0  0
  1  9  1  0  0  0  0
  4 13  1  0  0  0  0
  4 17  1  0  0  0  0
  4 14  1  0  0  0  0
  6  7  1  0  0  0  0
  8  9  1  0  0  0  0
  9 31  1  0  0  0  0
  9 32  1  0  0  0  0
 10  7  2  0  0  0  0
 10 12  1  0  0  0  0
 11 10  1  0  0  0  0
 11 33  1  0  0  0  0
 12 37  1  0  0  0  0
 12 36  1  0  0  0  0
 13 40  1  0  0  0  0
 14 43  1  0  0  0  0
 15 46  1  0  0  0  0
 15 45  1  0  0  0  0
 15  5  1  0  0  0  0
 16 49  1  0  0  0  0
 16 48  1  0  0  0  0
 16  5  1  0  0  0  0
 17 22  1  0  0  0  0
 18 17  2  0  0  0  0
 18 19  1  0  0  0  0
 19 20  2  0  0  0  0
 20 53  1  0  0  0  0
 20 21  1  0  0  0  0
 21 54  1  0  0  0  0
 22 55  1  0  0  0  0
 22 21  2  0  0  0  0
 23 24  1  0  0  0  0
 23  5  1  0  0  0  0
 24 56  1  0  0  0  0
 25 57  1  0  0  0  0
 25 24  2  0  0  0  0
 26 25  1  0  0  0  0
 27 26  2  0  0  0  0
 27 28  1  0  0  0  0
 28 23  2  0  0  0  0
 29  8  1  0  0  0  0
 30  8  1  0  0  0  0
 34 11  1  0  0  0  0
 35 11  1  0  0  0  0
 38 12  1  0  0  0  0
 39 13  1  0  0  0  0
 41 13  1  0  0  0  0
 42 14  1  0  0  0  0
 44 14  1  0  0  0  0
 47 15  1  0  0  0  0
 50 16  1  0  0  0  0
 51 18  1  0  0  0  0
 52 19  1  0  0  0  0
 58 26  1  0  0  0  0
 59 27  1  0  0  0  0
 60 28  1  0  0  0  0
M  END
$$$$
