CSD_code = KUPRAO | q = 0 | S = 0 | Stoichiometry = C10H18Cl2N2PdS2 | MND = 4
 OpenBabel04212202063D

 35 36  0  0  0  0  0  0  0  0999 V2000
    1.5771    0.0000    4.6450 Pd  0  0  0  0  0  0  0  0  0  0  0  0
   -0.3693   -1.1265    4.2468 Cl  0  0  0  0  0  0  0  0  0  0  0  0
   -0.6053    3.7615    5.7828 S   0  0  0  0  0  0  0  0  0  0  0  0
    0.5784    1.6555    4.6914 N   0  0  0  0  0  0  0  0  0  0  0  0
    0.5020    2.3037    5.9608 C   0  0  0  0  0  0  0  0  0  0  0  0
   -0.0663    2.1891    3.7426 C   0  0  0  0  0  3  0  0  0  0  0  0
   -0.8714    3.4295    3.9820 C   0  0  0  0  0  0  0  0  0  0  0  0
   -2.3489    3.1623    3.7056 C   0  0  0  0  0  0  0  0  0  0  0  0
   -0.3394    4.5911    3.1467 C   0  0  0  0  0  0  0  0  0  0  0  0
    1.5016    2.6337    6.2712 H   0  0  0  0  0  0  0  0  0  0  0  0
    0.0880    1.6178    6.7131 H   0  0  0  0  0  0  0  0  0  0  0  0
   -0.0527    1.7398    2.7541 H   0  0  0  0  0  0  0  0  0  0  0  0
   -2.9363    4.0362    3.9754 H   0  0  0  0  0  0  0  0  0  0  0  0
   -2.5018    2.9463    2.6502 H   0  0  0  0  0  0  0  0  0  0  0  0
   -2.6974    2.3138    4.2900 H   0  0  0  0  0  0  0  0  0  0  0  0
   -0.4501    4.3751    2.0859 H   0  0  0  0  0  0  0  0  0  0  0  0
   -0.8955    5.4952    3.3810 H   0  0  0  0  0  0  0  0  0  0  0  0
    0.7123    4.7654    3.3630 H   0  0  0  0  0  0  0  0  0  0  0  0
    3.5228    1.1272    5.0438 Cl  0  0  0  0  0  0  0  0  0  0  0  0
    2.5754   -1.6557    4.5989 N   0  0  0  0  0  0  0  0  0  0  0  0
    2.6519   -2.3039    3.3296 C   0  0  0  0  0  0  0  0  0  0  0  0
    3.2200   -2.1892    5.5478 C   0  0  0  0  0  3  0  0  0  0  0  0
    3.7593   -3.7616    3.5077 S   0  0  0  0  0  0  0  0  0  0  0  0
    1.6523   -2.6340    3.0192 H   0  0  0  0  0  0  0  0  0  0  0  0
    3.0658   -1.6179    2.5773 H   0  0  0  0  0  0  0  0  0  0  0  0
    4.0253   -3.4295    5.3084 C   0  0  0  0  0  0  0  0  0  0  0  0
    3.2064   -1.7398    6.5363 H   0  0  0  0  0  0  0  0  0  0  0  0
    5.5027   -3.1622    5.5850 C   0  0  0  0  0  0  0  0  0  0  0  0
    3.4931   -4.5911    6.1438 C   0  0  0  0  0  0  0  0  0  0  0  0
    6.0902   -4.0361    5.3150 H   0  0  0  0  0  0  0  0  0  0  0  0
    5.6555   -2.9464    6.6404 H   0  0  0  0  0  0  0  0  0  0  0  0
    5.8513   -2.3137    5.0007 H   0  0  0  0  0  0  0  0  0  0  0  0
    3.6037   -4.3751    7.2045 H   0  0  0  0  0  0  0  0  0  0  0  0
    4.0493   -5.4952    5.9096 H   0  0  0  0  0  0  0  0  0  0  0  0
    2.4415   -4.7654    5.9273 H   0  0  0  0  0  0  0  0  0  0  0  0
  1  4  1  0  0  0  0
  1 19  1  0  0  0  0
  2  1  1  0  0  0  0
  3  5  1  0  0  0  0
  4  5  1  0  0  0  0
  5 10  1  0  0  0  0
  5 11  1  0  0  0  0
  6  7  1  0  0  0  0
  6  4  1  0  0  0  0
  7  3  1  0  0  0  0
  8 13  1  0  0  0  0
  8  7  1  0  0  0  0
  8 15  1  0  0  0  0
  9 18  1  0  0  0  0
  9 17  1  0  0  0  0
  9  7  1  0  0  0  0
 12  6  1  0  0  0  0
 14  8  1  0  0  0  0
 16  9  1  0  0  0  0
 20  1  1  0  0  0  0
 20 22  1  0  0  0  0
 21 23  1  0  0  0  0
 21 20  1  0  0  0  0
 22 27  1  0  0  0  0
 23 26  1  0  0  0  0
 24 21  1  0  0  0  0
 25 21  1  0  0  0  0
 26 22  1  0  0  0  0
 26 28  1  0  0  0  0
 26 29  1  0  0  0  0
 28 31  1  0  0  0  0
 29 33  1  0  0  0  0
 30 28  1  0  0  0  0
 32 28  1  0  0  0  0
 34 29  1  0  0  0  0
 35 29  1  0  0  0  0
M  END
$$$$
