CSD_code = KUQBOO | q = 0 | S = 0 | Stoichiometry = C18H14ClHgPS | MND = 2
 OpenBabel04212202063D

 36 38  0  0  0  0  0  0  0  0999 V2000
    7.2896    0.8137    1.9491 Hg  0  0  0  0  0  0  0  0  0  0  0  0
    4.6254    1.8645    3.0764 P   0  0  0  0  0  4  0  0  0  0  0  0
    9.1607    1.3762    3.2160 Cl  0  0  0  0  0  0  0  0  0  0  0  0
    5.4145    3.0471    1.7229 S   0  0  0  0  0  1  0  0  0  0  0  0
    4.3611    0.1673    2.4543 C   0  0  0  0  0  0  0  0  0  0  0  0
    5.4720   -0.4759    1.8952 C   0  0  0  0  0  0  0  0  0  0  0  0
    5.2869   -1.7582    1.3895 C   0  0  0  0  0  0  0  0  0  0  0  0
    6.1160   -2.2953    0.9475 H   0  0  0  0  0  0  0  0  0  0  0  0
    4.0383   -2.3655    1.4377 C   0  0  0  0  0  0  0  0  0  0  0  0
    3.9153   -3.3583    1.0302 H   0  0  0  0  0  0  0  0  0  0  0  0
    2.9532   -1.7088    1.9915 C   0  0  0  0  0  0  0  0  0  0  0  0
    1.9841   -2.1846    2.0198 H   0  0  0  0  0  0  0  0  0  0  0  0
    3.1106   -0.4346    2.5072 C   0  0  0  0  0  0  0  0  0  0  0  0
    2.2734    0.0921    2.9459 H   0  0  0  0  0  0  0  0  0  0  0  0
    5.6888    1.7023    4.5469 C   0  0  0  0  0  0  0  0  0  0  0  0
    5.9110    0.4837    5.1836 C   0  0  0  0  0  0  0  0  0  0  0  0
    5.4111   -0.4120    4.8370 H   0  0  0  0  0  0  0  0  0  0  0  0
    6.7663    0.4350    6.2705 C   0  0  0  0  0  0  0  0  0  0  0  0
    6.9523   -0.5091    6.7607 H   0  0  0  0  0  0  0  0  0  0  0  0
    7.3890    1.5875    6.7216 C   0  0  0  0  0  0  0  0  0  0  0  0
    8.0671    1.5371    7.5601 H   0  0  0  0  0  0  0  0  0  0  0  0
    7.1540    2.8018    6.0964 C   0  0  0  0  0  0  0  0  0  0  0  0
    7.6431    3.6975    6.4479 H   0  0  0  0  0  0  0  0  0  0  0  0
    6.3068    2.8624    5.0068 C   0  0  0  0  0  0  0  0  0  0  0  0
    6.1252    3.7973    4.4915 H   0  0  0  0  0  0  0  0  0  0  0  0
    3.0340    2.4863    3.6729 C   0  0  0  0  0  0  0  0  0  0  0  0
    2.5711    2.1303    4.9359 C   0  0  0  0  0  0  0  0  0  0  0  0
    3.1687    1.4853    5.5661 H   0  0  0  0  0  0  0  0  0  0  0  0
    1.3498    2.6110    5.3705 C   0  0  0  0  0  0  0  0  0  0  0  0
    0.9851    2.3426    6.3509 H   0  0  0  0  0  0  0  0  0  0  0  0
    0.5964    3.4381    4.5511 C   0  0  0  0  0  0  0  0  0  0  0  0
   -0.3559    3.8116    4.8969 H   0  0  0  0  0  0  0  0  0  0  0  0
    1.0618    3.7922    3.2946 C   0  0  0  0  0  0  0  0  0  0  0  0
    0.4738    4.4392    2.6612 H   0  0  0  0  0  0  0  0  0  0  0  0
    2.2841    3.3198    2.8521 C   0  0  0  0  0  0  0  0  0  0  0  0
    2.6747    3.5942    1.8816 H   0  0  0  0  0  0  0  0  0  0  0  0
  1  3  1  0  0  0  0
  2 26  1  0  0  0  0
  2 15  1  0  0  0  0
  4  2  1  0  0  0  0
  5 13  1  0  0  0  0
  5  2  1  0  0  0  0
  6  1  1  0  0  0  0
  6  5  2  0  0  0  0
  7  9  2  0  0  0  0
  7  6  1  0  0  0  0
  8  7  1  0  0  0  0
  9 11  1  0  0  0  0
 10  9  1  0  0  0  0
 11 12  1  0  0  0  0
 11 13  2  0  0  0  0
 13 14  1  0  0  0  0
 15 24  2  0  0  0  0
 15 16  1  0  0  0  0
 16 18  2  0  0  0  0
 17 16  1  0  0  0  0
 18 20  1  0  0  0  0
 18 19  1  0  0  0  0
 20 21  1  0  0  0  0
 22 23  1  0  0  0  0
 22 20  2  0  0  0  0
 24 22  1  0  0  0  0
 25 24  1  0  0  0  0
 26 27  1  0  0  0  0
 27 29  2  0  0  0  0
 27 28  1  0  0  0  0
 29 30  1  0  0  0  0
 31 32  1  0  0  0  0
 31 29  1  0  0  0  0
 33 31  2  0  0  0  0
 34 33  1  0  0  0  0
 35 33  1  0  0  0  0
 35 26  2  0  0  0  0
 36 35  1  0  0  0  0
M  END
$$$$
