CSD_code = KUQMOZ | q = 0 | S = 0 | Stoichiometry = C18H21AuClP | MND = 2
 OpenBabel04212202063D

 42 44  0  0  0  0  0  0  0  0999 V2000
    1.4120    2.3417    1.9114 Au  0  0  0  0  0  0  0  0  0  0  0  0
    2.6261    1.5600    0.1660 Cl  0  0  0  0  0  0  0  0  0  0  0  0
    0.1999    3.1578    3.6087 P   0  0  0  0  0  4  0  0  0  0  0  0
   -1.5950    2.9309    3.4561 C   0  0  0  0  0  0  0  0  0  0  0  0
   -2.1095    2.5341    2.2267 C   0  0  0  0  0  0  0  0  0  0  0  0
   -1.4301    2.3494    1.4039 H   0  0  0  0  0  0  0  0  0  0  0  0
   -3.4744    2.3764    2.0672 C   0  0  0  0  0  0  0  0  0  0  0  0
   -3.8725    2.0684    1.1121 H   0  0  0  0  0  0  0  0  0  0  0  0
   -4.3264    2.6102    3.1342 C   0  0  0  0  0  0  0  0  0  0  0  0
   -5.3917    2.4852    3.0107 H   0  0  0  0  0  0  0  0  0  0  0  0
   -3.8149    2.9983    4.3629 C   0  0  0  0  0  0  0  0  0  0  0  0
   -4.4813    3.1744    5.1944 H   0  0  0  0  0  0  0  0  0  0  0  0
   -2.4520    3.1581    4.5289 C   0  0  0  0  0  0  0  0  0  0  0  0
   -2.0499    3.4490    5.4896 H   0  0  0  0  0  0  0  0  0  0  0  0
    0.5493    2.4426    5.2402 C   0  0  0  0  0  0  0  0  0  0  0  0
    0.8561    1.0838    5.2411 C   0  0  0  0  0  0  0  0  0  0  0  0
    0.8956    0.5548    4.2967 H   0  0  0  0  0  0  0  0  0  0  0  0
    1.1146    0.4270    6.4289 C   0  0  0  0  0  0  0  0  0  0  0  0
    1.3517   -0.6262    6.4228 H   0  0  0  0  0  0  0  0  0  0  0  0
    1.0764    1.1257    7.6251 C   0  0  0  0  0  0  0  0  0  0  0  0
    1.2838    0.6173    8.5546 H   0  0  0  0  0  0  0  0  0  0  0  0
    0.7782    2.4783    7.6293 C   0  0  0  0  0  0  0  0  0  0  0  0
    0.7529    3.0230    8.5618 H   0  0  0  0  0  0  0  0  0  0  0  0
    0.5124    3.1400    6.4433 C   0  0  0  0  0  0  0  0  0  0  0  0
    0.2849    4.1962    6.4630 H   0  0  0  0  0  0  0  0  0  0  0  0
    0.3754    4.9831    3.7877 C   0  0  0  0  0  0  0  0  0  0  0  0
   -0.2428    5.3351    4.6246 H   0  0  0  0  0  0  0  0  0  0  0  0
    1.8502    5.3044    4.0280 C   0  0  0  0  0  0  0  0  0  0  0  0
    2.1927    4.8475    4.9608 H   0  0  0  0  0  0  0  0  0  0  0  0
    2.4392    4.8705    3.2128 H   0  0  0  0  0  0  0  0  0  0  0  0
    2.0712    6.8136    4.0662 C   0  0  0  0  0  0  0  0  0  0  0  0
    1.5206    7.2418    4.9080 H   0  0  0  0  0  0  0  0  0  0  0  0
    3.1312    7.0241    4.2179 H   0  0  0  0  0  0  0  0  0  0  0  0
    1.5917    7.4531    2.7668 C   0  0  0  0  0  0  0  0  0  0  0  0
    1.7418    8.5334    2.8065 H   0  0  0  0  0  0  0  0  0  0  0  0
    2.1794    7.0623    1.9337 H   0  0  0  0  0  0  0  0  0  0  0  0
    0.1163    7.1421    2.5340 C   0  0  0  0  0  0  0  0  0  0  0  0
   -0.2160    7.5877    1.5950 H   0  0  0  0  0  0  0  0  0  0  0  0
   -0.4797    7.5773    3.3404 H   0  0  0  0  0  0  0  0  0  0  0  0
   -0.1125    5.6340    2.4930 C   0  0  0  0  0  0  0  0  0  0  0  0
    0.4380    5.2038    1.6495 H   0  0  0  0  0  0  0  0  0  0  0  0
   -1.1749    5.4187    2.3438 H   0  0  0  0  0  0  0  0  0  0  0  0
  1  3  1  0  0  0  0
  2  1  1  0  0  0  0
  3 26  1  0  0  0  0
  3 15  1  0  0  0  0
  4  3  1  0  0  0  0
  4 13  1  0  0  0  0
  5  4  2  0  0  0  0
  6  5  1  0  0  0  0
  7  5  1  0  0  0  0
  7  9  2  0  0  0  0
  8  7  1  0  0  0  0
  9 11  1  0  0  0  0
 10  9  1  0  0  0  0
 11 13  2  0  0  0  0
 11 12  1  0  0  0  0
 13 14  1  0  0  0  0
 15 16  2  0  0  0  0
 15 24  1  0  0  0  0
 16 18  1  0  0  0  0
 17 16  1  0  0  0  0
 18 20  2  0  0  0  0
 19 18  1  0  0  0  0
 20 22  1  0  0  0  0
 20 21  1  0  0  0  0
 22 23  1  0  0  0  0
 24 25  1  0  0  0  0
 24 22  2  0  0  0  0
 26 28  1  0  0  0  0
 26 27  1  0  0  0  0
 28 31  1  0  0  0  0
 28 29  1  0  0  0  0
 30 28  1  0  0  0  0
 31 33  1  0  0  0  0
 31 32  1  0  0  0  0
 34 35  1  0  0  0  0
 34 31  1  0  0  0  0
 36 34  1  0  0  0  0
 37 34  1  0  0  0  0
 37 39  1  0  0  0  0
 38 37  1  0  0  0  0
 40 37  1  0  0  0  0
 40 26  1  0  0  0  0
 41 40  1  0  0  0  0
 42 40  1  0  0  0  0
M  END
$$$$
