CSD_code = KUQQAP | q = 0 | S = 0 | Stoichiometry = C17H16Cl4NPTi | MND = 6
 OpenBabel04212202063D

 40 43  0  0  0  0  0  0  0  0999 V2000
    1.3576    1.8657    2.7848 Ti  0  0  0  0  0  0  0  0  0  0  0  0
    0.4070    5.0781    2.5939 C   0  0  0  0  0  0  0  0  0  0  0  0
   -0.6427    4.9171    2.8701 H   0  0  0  0  0  0  0  0  0  0  0  0
    0.6208    6.1504    2.5672 H   0  0  0  0  0  0  0  0  0  0  0  0
    0.6591    4.4336    1.2825 C   0  0  0  0  0  0  0  0  0  0  0  0
    1.1324    2.8339   -0.1926 C   0  0  0  0  0  0  0  0  0  0  0  0
    0.4330    2.0411   -0.4859 H   0  0  0  0  0  0  0  0  0  0  0  0
    2.1445    2.4264   -0.3231 H   0  0  0  0  0  0  0  0  0  0  0  0
    0.9201    4.1091   -0.9230 C   0  0  0  0  0  3  0  0  0  0  0  0
    0.9900    4.2036   -1.9897 H   0  0  0  0  0  0  0  0  0  0  0  0
    0.6383    5.0638   -0.0199 C   0  0  0  0  0  0  0  0  0  0  0  0
    0.4310    6.1029   -0.1924 H   0  0  0  0  0  0  0  0  0  0  0  0
    2.9018    5.2134    3.9731 C   0  0  0  0  0  0  0  0  0  0  0  0
    3.5287    5.4325    5.1966 C   0  0  0  0  0  0  0  0  0  0  0  0
    3.0802    5.0453    6.1016 H   0  0  0  0  0  0  0  0  0  0  0  0
    4.7166    6.1384    5.2491 C   0  0  0  0  0  0  0  0  0  0  0  0
    5.1977    6.3105    6.2005 H   0  0  0  0  0  0  0  0  0  0  0  0
    5.2943    6.6134    4.0830 C   0  0  0  0  0  0  0  0  0  0  0  0
    6.2244    7.1602    4.1252 H   0  0  0  0  0  0  0  0  0  0  0  0
    4.6881    6.3727    2.8601 C   0  0  0  0  0  0  0  0  0  0  0  0
    5.1492    6.7263    1.9499 H   0  0  0  0  0  0  0  0  0  0  0  0
    3.5001    5.6686    2.8007 C   0  0  0  0  0  0  0  0  0  0  0  0
    3.0436    5.4531    1.8429 H   0  0  0  0  0  0  0  0  0  0  0  0
    0.5170    4.6481    5.4095 C   0  0  0  0  0  0  0  0  0  0  0  0
    0.2914    5.9853    5.7272 C   0  0  0  0  0  0  0  0  0  0  0  0
    0.6605    6.7647    5.0748 H   0  0  0  0  0  0  0  0  0  0  0  0
   -0.3918    6.3097    6.8839 C   0  0  0  0  0  0  0  0  0  0  0  0
   -0.5693    7.3461    7.1311 H   0  0  0  0  0  0  0  0  0  0  0  0
   -0.8474    5.3072    7.7269 C   0  0  0  0  0  0  0  0  0  0  0  0
   -1.3814    5.5664    8.6290 H   0  0  0  0  0  0  0  0  0  0  0  0
   -0.6158    3.9775    7.4167 C   0  0  0  0  0  0  0  0  0  0  0  0
   -0.9679    3.1991    8.0766 H   0  0  0  0  0  0  0  0  0  0  0  0
    0.0673    3.6438    6.2594 C   0  0  0  0  0  0  0  0  0  0  0  0
    0.2535    2.6074    6.0045 H   0  0  0  0  0  0  0  0  0  0  0  0
    3.4813    2.3562    2.2131 Cl  0  0  0  0  0  0  0  0  0  0  0  0
   -0.8234    2.1922    3.2926 Cl  0  0  0  0  0  0  0  0  0  0  0  0
    1.8859    0.8747    4.6303 Cl  0  0  0  0  0  0  0  0  0  0  0  0
    1.0707    0.1241    1.5147 Cl  0  0  0  0  0  0  0  0  0  0  0  0
    0.9351    3.1701    1.1927 N   0  0  0  0  0  0  0  0  0  0  0  0
    1.4089    4.1771    3.8953 P   0  0  0  0  0  4  0  0  0  0  0  0
  1 36  1  0  0  0  0
  1 40  1  0  0  0  0
  1 37  1  0  0  0  0
  2  3  1  0  0  0  0
  2 40  1  0  0  0  0
  4  2  1  0  0  0  0
  5  2  1  0  0  0  0
  6 39  1  0  0  0  0
  7  6  1  0  0  0  0
  8  6  1  0  0  0  0
  9  6  1  0  0  0  0
  9 11  1  0  0  0  0
 10  9  1  0  0  0  0
 11  5  2  0  0  0  0
 12 11  1  0  0  0  0
 13 14  1  0  0  0  0
 14 16  2  0  0  0  0
 14 15  1  0  0  0  0
 16 17  1  0  0  0  0
 18 19  1  0  0  0  0
 18 16  1  0  0  0  0
 20 18  2  0  0  0  0
 21 20  1  0  0  0  0
 22 20  1  0  0  0  0
 22 13  2  0  0  0  0
 23 22  1  0  0  0  0
 24 25  2  0  0  0  0
 24 33  1  0  0  0  0
 25 27  1  0  0  0  0
 26 25  1  0  0  0  0
 27 28  1  0  0  0  0
 27 29  2  0  0  0  0
 29 30  1  0  0  0  0
 31 29  1  0  0  0  0
 31 32  1  0  0  0  0
 33 31  2  0  0  0  0
 34 33  1  0  0  0  0
 35  1  1  0  0  0  0
 38  1  1  0  0  0  0
 39  5  1  0  0  0  0
 39  1  1  0  0  0  0
 40 13  1  0  0  0  0
 40 24  1  0  0  0  0
M  END
$$$$
