CSD_code = KUQQIX | q = 0 | S = 0 | Stoichiometry = C16H13Cl2PZr | MND = 12
 OpenBabel04212202063D

 33 36  0  0  1  0  0  0  0  0999 V2000
    7.7697    3.0447    9.0883 Zr  0  0  0  0  0  0  0  0  0  0  0  0
    7.4204    4.1295    7.0641 Cl  0  0  0  0  0  0  0  0  0  0  0  0
    7.2885    0.9279    8.2686 Cl  0  0  0  0  0  0  0  0  0  0  0  0
    8.6041    3.5013   12.2626 P   0  0  2  0  0  0  0  0  0  0  0  0
    9.5539    3.3338   10.6916 C   0  0  2  0  0  0  0  0  0  0  0  0
    9.7632    4.3220    9.6836 C   0  0  0  0  0  0  0  0  0  0  0  0
    9.7647    5.3968    9.8318 H   0  0  0  0  0  0  0  0  0  0  0  0
   10.1728    3.6566    8.5070 C   0  0  0  0  0  0  0  0  0  0  0  0
   10.5250    4.1364    7.6013 H   0  0  0  0  0  0  0  0  0  0  0  0
   10.1666    2.2659    8.7534 C   0  0  0  0  0  0  0  0  0  0  0  0
   10.5053    1.4986    8.0667 H   0  0  0  0  0  0  0  0  0  0  0  0
    9.7707    2.0607   10.0947 C   0  0  0  0  0  0  0  0  0  0  0  0
    9.7498    1.1083   10.6156 H   0  0  0  0  0  0  0  0  0  0  0  0
    7.0378    3.6683   11.3050 C   0  0  1  0  0  0  0  0  0  0  0  0
    6.6448    4.7346   10.4417 C   0  0  0  0  0  0  0  0  0  0  0  0
    6.9744    5.7662   10.5075 H   0  0  0  0  0  0  0  0  0  0  0  0
    5.5968    4.2603    9.6217 C   0  0  0  0  0  0  0  0  0  0  0  0
    5.0026    4.8637    8.9456 H   0  0  0  0  0  0  0  0  0  0  0  0
    5.3718    2.8993    9.9245 C   0  0  0  0  0  0  0  0  0  0  0  0
    4.5821    2.2804    9.5144 H   0  0  0  0  0  0  0  0  0  0  0  0
    6.2684    2.5252   10.9510 C   0  0  0  0  0  0  0  0  0  0  0  0
    6.2884    1.5686   11.4642 H   0  0  0  0  0  0  0  0  0  0  0  0
    8.9315    5.2607   12.6368 C   0  0  0  0  0  0  0  0  0  0  0  0
   10.2291    5.7591   12.5668 C   0  0  0  0  0  0  0  0  0  0  0  0
   11.0288    5.1168   12.2243 H   0  0  0  0  0  0  0  0  0  0  0  0
   10.4916    7.0679   12.9280 C   0  0  0  0  0  0  0  0  0  0  0  0
   11.4987    7.4525   12.8600 H   0  0  0  0  0  0  0  0  0  0  0  0
    9.4669    7.8835   13.3800 C   0  0  0  0  0  0  0  0  0  0  0  0
    9.6730    8.9060   13.6590 H   0  0  0  0  0  0  0  0  0  0  0  0
    8.1796    7.3821   13.4845 C   0  0  0  0  0  0  0  0  0  0  0  0
    7.3821    8.0121   13.8506 H   0  0  0  0  0  0  0  0  0  0  0  0
    7.9128    6.0738   13.1246 C   0  0  0  0  0  0  0  0  0  0  0  0
    6.9113    5.6763   13.2163 H   0  0  0  0  0  0  0  0  0  0  0  0
  1  5  1  0  0  0  0
  1 14  1  0  0  0  0
  2  1  1  0  0  0  0
  3  1  1  0  0  0  0
  4 23  1  6  0  0  0
  5  6  1  6  0  0  0
  5  4  1  0  0  0  0
  6  7  1  0  0  0  0
  8 10  1  0  0  0  0
  8  6  2  0  0  0  0
  9  8  1  0  0  0  0
 10 12  2  0  0  0  0
 11 10  1  0  0  0  0
 12 13  1  0  0  0  0
 12  5  1  0  0  0  0
 14 15  1  1  0  0  0
 14  4  1  0  0  0  0
 15 16  1  0  0  0  0
 17 19  1  0  0  0  0
 17 15  2  0  0  0  0
 18 17  1  0  0  0  0
 19 21  2  0  0  0  0
 20 19  1  0  0  0  0
 21 14  1  0  0  0  0
 21 22  1  0  0  0  0
 23 32  1  0  0  0  0
 24 23  2  0  0  0  0
 24 26  1  0  0  0  0
 25 24  1  0  0  0  0
 26 28  2  0  0  0  0
 27 26  1  0  0  0  0
 28 30  1  0  0  0  0
 28 29  1  0  0  0  0
 30 31  1  0  0  0  0
 32 33  1  0  0  0  0
 32 30  2  0  0  0  0
M  END
$$$$
