CSD_code = KURNOC | q = 0 | S = 0 | Stoichiometry = C10H11ClN3O3Re | MND = 6
 OpenBabel04212202063D

 29 30  0  0  1  0  0  0  0  0999 V2000
   -9.6041  -15.8658   -2.5458 C   0  0  0  0  0  2  0  0  0  0  0  0
   -8.2044  -14.9220   -0.2616 C   0  0  0  0  0  2  0  0  0  0  0  0
   -8.0381  -13.4844   -2.6032 C   0  0  0  0  0  2  0  0  0  0  0  0
   -6.7112  -15.6355   -5.1520 C   0  0  2  0  0  3  0  0  0  0  0  0
   -5.7752  -16.4657   -5.8025 C   0  0  0  0  0  0  0  0  0  0  0  0
   -5.3946  -16.3404   -6.7955 H   0  0  0  0  0  0  0  0  0  0  0  0
   -5.4404  -17.4560   -4.9161 C   0  0  0  0  0  0  0  0  0  0  0  0
   -7.3755  -14.4223   -5.6848 C   0  0  0  0  0  0  0  0  0  0  0  0
   -7.4534  -14.4796   -6.7675 H   0  0  0  0  0  0  0  0  0  0  0  0
   -6.7908  -13.5391   -5.4270 H   0  0  0  0  0  0  0  0  0  0  0  0
   -8.3660  -14.3118   -5.2459 H   0  0  0  0  0  0  0  0  0  0  0  0
   -4.4785  -18.5641   -5.1376 C   0  0  0  0  0  0  0  0  0  0  0  0
   -4.9624  -19.5386   -5.0881 H   0  0  0  0  0  0  0  0  0  0  0  0
   -3.6649  -18.5391   -4.4149 H   0  0  0  0  0  0  0  0  0  0  0  0
   -4.0520  -18.4493   -6.1310 H   0  0  0  0  0  0  0  0  0  0  0  0
   -6.2667  -17.8549   -2.5579 C   0  0  1  0  0  3  0  0  0  0  0  0
   -5.4641  -19.0807   -2.2784 C   0  0  0  0  0  0  0  0  0  0  0  0
   -5.6687  -19.8626   -3.0062 H   0  0  0  0  0  0  0  0  0  0  0  0
   -5.7090  -19.4567   -1.2871 H   0  0  0  0  0  0  0  0  0  0  0  0
   -4.4009  -18.8486   -2.3007 H   0  0  0  0  0  0  0  0  0  0  0  0
   -5.4737  -14.8768   -1.7179 Cl  0  0  0  0  0  0  0  0  0  0  0  0
   -6.9303  -16.1009   -3.9417 N   0  0  1  0  0  0  0  0  0  0  0  0
   -6.1682  -17.2127   -3.7780 N   0  0  0  0  0  0  0  0  0  0  0  0
   -7.0818  -17.3324   -1.7224 N   0  0  0  0  0  0  0  0  0  0  0  0
   -7.1354  -17.8012   -0.8210 H   0  0  0  0  0  0  0  0  0  0  0  0
  -10.6738  -16.1893   -2.8181 O   0  0  0  0  0  1  0  0  0  0  0  0
   -8.3457  -14.7064    0.8526 O   0  0  0  0  0  1  0  0  0  0  0  0
   -8.0706  -12.3765   -2.8907 O   0  0  0  0  0  1  0  0  0  0  0  0
   -7.7836  -15.3520   -2.1130 Re  0  0  0  0  0  0  0  0  0  0  0  0
  1 29  1  0  0  0  0
  2 27  1  0  0  0  0
  3 29  1  0  0  0  0
  4  8  1  1  0  0  0
  4 22  1  0  0  0  0
  5  4  1  0  0  0  0
  5  7  2  0  0  0  0
  6  5  1  0  0  0  0
  7 23  1  0  0  0  0
  8 10  1  0  0  0  0
  8 11  1  0  0  0  0
  9  8  1  0  0  0  0
 12 13  1  0  0  0  0
 12  7  1  0  0  0  0
 12 14  1  0  0  0  0
 15 12  1  0  0  0  0
 16 17  1  6  0  0  0
 16 24  1  0  0  0  0
 17 19  1  0  0  0  0
 18 17  1  0  0  0  0
 20 17  1  0  0  0  0
 22 23  1  1  0  0  0
 22 29  1  0  0  0  0
 23 16  1  0  0  0  0
 24 25  1  0  0  0  0
 26  1  1  0  0  0  0
 28  3  1  0  0  0  0
 29 24  1  0  0  0  0
 29 21  1  0  0  0  0
 29  2  1  0  0  0  0
M  END
$$$$
