CSD_code = KUSFAG | q = 0 | S = 0 | Stoichiometry = C13H20Cl2N2O2Zn | MND = 4
 OpenBabel04212202063D

 40 41  0  0  0  0  0  0  0  0999 V2000
    1.5725    8.5460   16.0171 Zn  0  0  0  0  0  0  0  0  0  0  0  0
    1.1913    7.1579   14.2076 Cl  0  0  0  0  0  0  0  0  0  0  0  0
    2.8906   10.1314   15.2056 Cl  0  0  0  0  0  0  0  0  0  0  0  0
    2.7270    7.2676   17.0843 N   0  0  0  0  0  0  0  0  0  0  0  0
    4.1130    7.0613   14.1369 N   0  0  0  0  0  4  0  0  0  0  0  0
    3.0159    7.0978   14.1513 H   0  0  0  0  0  0  0  0  0  0  0  0
    4.3564    6.1168   13.8299 H   0  0  0  0  0  0  0  0  0  0  0  0
    0.2687    8.8748   17.2620 O   0  0  0  0  0  0  0  0  0  0  0  0
   -1.8445    9.0196   21.3776 O   0  0  0  0  0  0  0  0  0  0  0  0
    1.3274    7.6388   19.0421 C   0  0  0  0  0  0  0  0  0  0  0  0
    0.3080    8.4823   18.4865 C   0  0  0  0  0  0  0  0  0  0  0  0
   -0.7279    8.9007   19.3451 C   0  0  0  0  0  0  0  0  0  0  0  0
   -1.4995    9.5319   18.9341 H   0  0  0  0  0  0  0  0  0  0  0  0
   -0.7894    8.5412   20.6752 C   0  0  0  0  0  0  0  0  0  0  0  0
    0.2177    7.7194   21.2168 C   0  0  0  0  0  0  0  0  0  0  0  0
    0.1989    7.4221   22.2526 H   0  0  0  0  0  0  0  0  0  0  0  0
    1.2319    7.2939   20.4072 C   0  0  0  0  0  0  0  0  0  0  0  0
    2.0027    6.6599   20.8250 H   0  0  0  0  0  0  0  0  0  0  0  0
    2.4201    7.0958   18.3276 C   0  0  0  0  0  3  0  0  0  0  0  0
    3.0677    6.4365   18.9206 H   0  0  0  0  0  0  0  0  0  0  0  0
    3.8518    6.5224   16.5600 C   0  0  0  0  0  0  0  0  0  0  0  0
    3.4705    5.5924   16.1179 H   0  0  0  0  0  0  0  0  0  0  0  0
    4.5325    6.2506   17.3787 H   0  0  0  0  0  0  0  0  0  0  0  0
    4.6292    7.3053   15.4980 C   0  0  0  0  0  0  0  0  0  0  0  0
    4.5296    8.3759   15.6956 H   0  0  0  0  0  0  0  0  0  0  0  0
    5.6832    7.0238   15.5382 H   0  0  0  0  0  0  0  0  0  0  0  0
    4.5487    8.0387   13.1015 C   0  0  0  0  0  0  0  0  0  0  0  0
    4.2328    9.0229   13.4633 H   0  0  0  0  0  0  0  0  0  0  0  0
    3.8158    7.7007   11.8127 C   0  0  0  0  0  0  0  0  0  0  0  0
    4.1362    6.7368   11.4211 H   0  0  0  0  0  0  0  0  0  0  0  0
    4.0183    8.4585   11.0627 H   0  0  0  0  0  0  0  0  0  0  0  0
    2.7448    7.6710   11.9901 H   0  0  0  0  0  0  0  0  0  0  0  0
    6.0584    7.9945   12.9171 C   0  0  0  0  0  0  0  0  0  0  0  0
    6.3909    6.9874   12.6685 H   0  0  0  0  0  0  0  0  0  0  0  0
    6.5800    8.3339   13.8069 H   0  0  0  0  0  0  0  0  0  0  0  0
    6.3388    8.6520   12.1000 H   0  0  0  0  0  0  0  0  0  0  0  0
   -1.9699    8.6841   22.7392 C   0  0  0  0  0  0  0  0  0  0  0  0
   -2.0697    7.6031   22.8803 H   0  0  0  0  0  0  0  0  0  0  0  0
   -2.8803    9.1754   23.0792 H   0  0  0  0  0  0  0  0  0  0  0  0
   -1.1218    9.0520   23.3252 H   0  0  0  0  0  0  0  0  0  0  0  0
  1  4  1  0  0  0  0
  1  8  1  0  0  0  0
  2  1  1  0  0  0  0
  3  1  1  0  0  0  0
  4 19  1  0  0  0  0
  5  6  1  0  0  0  0
  5 24  1  0  0  0  0
  7  5  1  0  0  0  0
  8 11  1  0  0  0  0
  9 37  1  0  0  0  0
 10 17  1  0  0  0  0
 11 10  2  0  0  0  0
 11 12  1  0  0  0  0
 12 14  2  0  0  0  0
 13 12  1  0  0  0  0
 14 15  1  0  0  0  0
 14  9  1  0  0  0  0
 15 16  1  0  0  0  0
 17 18  1  0  0  0  0
 17 15  2  0  0  0  0
 19 20  1  0  0  0  0
 19 10  1  0  0  0  0
 21  4  1  0  0  0  0
 21 23  1  0  0  0  0
 22 21  1  0  0  0  0
 24 26  1  0  0  0  0
 24 25  1  0  0  0  0
 24 21  1  0  0  0  0
 27 28  1  0  0  0  0
 27  5  1  0  0  0  0
 29 32  1  0  0  0  0
 29 27  1  0  0  0  0
 30 29  1  0  0  0  0
 31 29  1  0  0  0  0
 33 27  1  0  0  0  0
 33 35  1  0  0  0  0
 34 33  1  0  0  0  0
 36 33  1  0  0  0  0
 37 38  1  0  0  0  0
 37 39  1  0  0  0  0
 37 40  1  0  0  0  0
M  END
$$$$
