CSD_code = KUSNAN | q = 1 | S = 0 | Stoichiometry = C19H42Cl2CoN4(1+) | MND = 6
 OpenBabel04212202063D

 68 71  0  0  1  0  0  0  0  0999 V2000
    1.8588    2.4205    0.8887 Co  0  0  0  0  0  0  0  0  0  0  0  0
    1.5561    1.0171   -0.8275 Cl  0  0  0  0  0  0  0  0  0  0  0  0
    2.1378    3.8193    2.5496 Cl  0  0  0  0  0  0  0  0  0  0  0  0
    3.3871    1.2409    1.4778 N   0  0  2  0  0  4  0  0  0  0  0  0
    2.9776    3.6476   -0.2718 N   0  0  1  0  0  4  0  0  0  0  0  0
    0.3011    3.4604    0.2440 N   0  0  2  0  0  4  0  0  0  0  0  0
    0.7097    1.2474    1.9921 N   0  0  2  0  0  4  0  0  0  0  0  0
    4.1568    3.1503   -0.9991 C   0  0  0  0  0  0  0  0  0  0  0  0
    2.0422    4.3397   -1.1729 C   0  0  0  0  0  0  0  0  0  0  0  0
    0.8007    4.6941   -0.3738 C   0  0  0  0  0  0  0  0  0  0  0  0
   -0.8343    3.7376    1.1303 C   0  0  0  0  0  0  0  0  0  0  0  0
   -1.4248    2.4614    1.7153 C   0  0  0  0  0  0  0  0  0  0  0  0
   -0.4616    1.7907    2.6860 C   0  0  0  0  0  0  0  0  0  0  0  0
    1.5822    0.5044    2.9093 C   0  0  0  0  0  0  0  0  0  0  0  0
    2.7840    0.0453    2.1000 C   0  0  0  0  0  0  0  0  0  0  0  0
    4.4884    1.7828    2.2988 C   0  0  0  0  0  0  0  0  0  0  0  0
    5.7886    1.0006    2.1130 C   0  0  0  0  0  0  0  0  0  0  0  0
    6.9099    1.5924    2.9685 C   0  0  0  0  0  0  0  0  0  0  0  0
    8.2766    0.9654    2.6788 C   0  0  0  0  0  0  0  0  0  0  0  0
    8.8606    1.3280    1.3112 C   0  0  0  0  0  0  0  0  0  0  0  0
    9.2814    2.7936    1.2120 C   0  0  0  0  0  0  0  0  0  0  0  0
    9.7178    3.2112   -0.1939 C   0  0  0  0  0  0  0  0  0  0  0  0
    8.6425    3.0697   -1.2753 C   0  0  0  0  0  0  0  0  0  0  0  0
    7.3308    3.7719   -0.9277 C   0  0  0  0  0  0  0  0  0  0  0  0
    6.3505    3.7463   -2.0999 C   0  0  0  0  0  0  0  0  0  0  0  0
    4.9519    4.2457   -1.7201 C   0  0  0  0  0  0  0  0  0  0  0  0
    3.8050    0.9355    0.5962 H   0  0  0  0  0  0  0  0  0  0  0  0
    3.3090    4.3469    0.4021 H   0  0  0  0  0  0  0  0  0  0  0  0
   -0.0374    2.8564   -0.5131 H   0  0  0  0  0  0  0  0  0  0  0  0
    0.3682    0.5795    1.2920 H   0  0  0  0  0  0  0  0  0  0  0  0
    3.8233    2.4013   -1.7205 H   0  0  0  0  0  0  0  0  0  0  0  0
    4.8229    2.6735   -0.2809 H   0  0  0  0  0  0  0  0  0  0  0  0
    1.7876    3.6556   -1.9870 H   0  0  0  0  0  0  0  0  0  0  0  0
    2.4899    5.2429   -1.5955 H   0  0  0  0  0  0  0  0  0  0  0  0
    0.0398    5.1510   -1.0156 H   0  0  0  0  0  0  0  0  0  0  0  0
    1.0550    5.3964    0.4250 H   0  0  0  0  0  0  0  0  0  0  0  0
   -0.4851    4.3850    1.9381 H   0  0  0  0  0  0  0  0  0  0  0  0
   -1.6079    4.2720    0.5669 H   0  0  0  0  0  0  0  0  0  0  0  0
   -2.3385    2.7165    2.2514 H   0  0  0  0  0  0  0  0  0  0  0  0
   -1.6908    1.7685    0.9129 H   0  0  0  0  0  0  0  0  0  0  0  0
   -0.1166    2.5167    3.4259 H   0  0  0  0  0  0  0  0  0  0  0  0
   -0.9782    0.9788    3.2112 H   0  0  0  0  0  0  0  0  0  0  0  0
    1.0560   -0.3465    3.3552 H   0  0  0  0  0  0  0  0  0  0  0  0
    1.8958    1.1825    3.7067 H   0  0  0  0  0  0  0  0  0  0  0  0
    3.5041   -0.4762    2.7342 H   0  0  0  0  0  0  0  0  0  0  0  0
    2.4522   -0.6353    1.3122 H   0  0  0  0  0  0  0  0  0  0  0  0
    4.6600    2.8257    2.0264 H   0  0  0  0  0  0  0  0  0  0  0  0
    4.1815    1.7743    3.3454 H   0  0  0  0  0  0  0  0  0  0  0  0
    5.6524   -0.0481    2.3836 H   0  0  0  0  0  0  0  0  0  0  0  0
    6.0763    1.0325    1.0593 H   0  0  0  0  0  0  0  0  0  0  0  0
    6.9592    2.6699    2.8057 H   0  0  0  0  0  0  0  0  0  0  0  0
    6.6675    1.4363    4.0212 H   0  0  0  0  0  0  0  0  0  0  0  0
    8.9744    1.2894    3.4525 H   0  0  0  0  0  0  0  0  0  0  0  0
    8.1867   -0.1208    2.7513 H   0  0  0  0  0  0  0  0  0  0  0  0
    9.7359    0.7015    1.1313 H   0  0  0  0  0  0  0  0  0  0  0  0
    8.1361    1.0941    0.5310 H   0  0  0  0  0  0  0  0  0  0  0  0
    8.4682    3.4433    1.5371 H   0  0  0  0  0  0  0  0  0  0  0  0
   10.1165    2.9634    1.8946 H   0  0  0  0  0  0  0  0  0  0  0  0
   10.0369    4.2549   -0.1529 H   0  0  0  0  0  0  0  0  0  0  0  0
   10.5827    2.6153   -0.4915 H   0  0  0  0  0  0  0  0  0  0  0  0
    9.0355    3.4943   -2.2013 H   0  0  0  0  0  0  0  0  0  0  0  0
    8.4449    2.0132   -1.4674 H   0  0  0  0  0  0  0  0  0  0  0  0
    6.8826    3.2835   -0.0611 H   0  0  0  0  0  0  0  0  0  0  0  0
    7.5378    4.8086   -0.6542 H   0  0  0  0  0  0  0  0  0  0  0  0
    6.7452    4.3750   -2.8987 H   0  0  0  0  0  0  0  0  0  0  0  0
    6.2731    2.7310   -2.4954 H   0  0  0  0  0  0  0  0  0  0  0  0
    4.4283    4.5514   -2.6260 H   0  0  0  0  0  0  0  0  0  0  0  0
    5.0521    5.1189   -1.0702 H   0  0  0  0  0  0  0  0  0  0  0  0
  1  4  1  0  0  0  0
  1  7  1  0  0  0  0
  1  3  1  0  0  0  0
  2  1  1  0  0  0  0
  4 27  1  6  0  0  0
  4 15  1  0  0  0  0
  4 16  1  0  0  0  0
  5 28  1  1  0  0  0
  5  1  1  0  0  0  0
  6 29  1  6  0  0  0
  6  1  1  0  0  0  0
  6 11  1  0  0  0  0
  7 30  1  6  0  0  0
  7 13  1  0  0  0  0
  7 14  1  0  0  0  0
  8 32  1  0  0  0  0
  8  5  1  0  0  0  0
  9 10  1  0  0  0  0
  9  5  1  0  0  0  0
 10  6  1  0  0  0  0
 10 36  1  0  0  0  0
 11 12  1  0  0  0  0
 11 37  1  0  0  0  0
 12 39  1  0  0  0  0
 12 13  1  0  0  0  0
 13 42  1  0  0  0  0
 13 41  1  0  0  0  0
 14 43  1  0  0  0  0
 14 44  1  0  0  0  0
 15 45  1  0  0  0  0
 15 14  1  0  0  0  0
 16 48  1  0  0  0  0
 17 16  1  0  0  0  0
 17 49  1  0  0  0  0
 17 18  1  0  0  0  0
 18 52  1  0  0  0  0
 19 54  1  0  0  0  0
 19 18  1  0  0  0  0
 19 53  1  0  0  0  0
 20 19  1  0  0  0  0
 21 20  1  0  0  0  0
 21 57  1  0  0  0  0
 21 58  1  0  0  0  0
 22 59  1  0  0  0  0
 22 21  1  0  0  0  0
 23 24  1  0  0  0  0
 23 22  1  0  0  0  0
 24 64  1  0  0  0  0
 24 63  1  0  0  0  0
 25 26  1  0  0  0  0
 25 24  1  0  0  0  0
 26 68  1  0  0  0  0
 26  8  1  0  0  0  0
 31  8  1  0  0  0  0
 33  9  1  0  0  0  0
 34  9  1  0  0  0  0
 35 10  1  0  0  0  0
 38 11  1  0  0  0  0
 40 12  1  0  0  0  0
 46 15  1  0  0  0  0
 47 16  1  0  0  0  0
 50 17  1  0  0  0  0
 51 18  1  0  0  0  0
 55 20  1  0  0  0  0
 56 20  1  0  0  0  0
 60 22  1  0  0  0  0
 61 23  1  0  0  0  0
 62 23  1  0  0  0  0
 65 25  1  0  0  0  0
 66 25  1  0  0  0  0
 67 26  1  0  0  0  0
M  END
$$$$
