CSD_code = KUSNAP | q = 0 | S = 0 | Stoichiometry = C15H19Cl4NO3Zr | MND = 6
 OpenBabel04212202063D

 43 45  0  0  1  0  0  0  0  0999 V2000
    6.2204   13.0306    2.5110 Zr  0  0  0  0  0  0  0  0  0  0  0  0
    4.8391   11.9977    1.0081 Cl  0  0  0  0  0  0  0  0  0  0  0  0
    4.4672   13.1694    4.1942 Cl  0  0  0  0  0  0  0  0  0  0  0  0
    5.8737   15.2057    1.8676 Cl  0  0  0  0  0  0  0  0  0  0  0  0
    8.2298   12.7003    1.3911 Cl  0  0  0  0  0  0  0  0  0  0  0  0
    6.5935   11.1809    3.6053 O   0  0  0  0  0  0  0  0  0  0  0  0
    7.3792   13.6436    4.1462 O   0  0  0  0  0  0  0  0  0  0  0  0
    6.0521   10.0597    5.4492 O   0  0  0  0  0  0  0  0  0  0  0  0
   10.4876   14.8302    6.9023 C   0  0  0  0  0  0  0  0  0  0  0  0
   11.0538   15.7333    6.7353 H   0  0  0  0  0  0  0  0  0  0  0  0
    8.1405   11.2991    7.5274 C   0  0  0  0  0  0  0  0  0  0  0  0
    8.1195   11.0018    8.5755 H   0  0  0  0  0  0  0  0  0  0  0  0
    8.5307   10.4736    6.9297 H   0  0  0  0  0  0  0  0  0  0  0  0
    6.0991    9.1638    7.6925 C   0  0  0  0  0  0  0  0  0  0  0  0
    5.4005    8.3718    7.4392 H   0  0  0  0  0  0  0  0  0  0  0  0
    5.9856    9.4088    8.7442 H   0  0  0  0  0  0  0  0  0  0  0  0
    7.1047    8.7972    7.5143 H   0  0  0  0  0  0  0  0  0  0  0  0
    9.1727   13.4406    8.3525 C   0  0  0  0  0  0  0  0  0  0  0  0
    8.7190   13.2609    9.3168 H   0  0  0  0  0  0  0  0  0  0  0  0
    9.9100   14.5933    8.1396 C   0  0  0  0  0  0  0  0  0  0  0  0
   10.0305   15.3082    8.9395 H   0  0  0  0  0  0  0  0  0  0  0  0
    4.3208   10.7874    6.9453 C   0  0  0  0  0  0  0  0  0  0  0  0
    4.1121   11.6370    6.2949 H   0  0  0  0  0  0  0  0  0  0  0  0
    4.0736   11.0435    7.9715 H   0  0  0  0  0  0  0  0  0  0  0  0
    3.6946    9.9575    6.6302 H   0  0  0  0  0  0  0  0  0  0  0  0
    6.5233   15.8620    5.4176 C   0  0  0  0  0  0  0  0  0  0  0  0
    7.4682   16.0770    4.9236 H   0  0  0  0  0  0  0  0  0  0  0  0
    6.2709   16.6860    6.0780 H   0  0  0  0  0  0  0  0  0  0  0  0
    5.7516   15.7702    4.6512 H   0  0  0  0  0  0  0  0  0  0  0  0
   10.3459   13.9012    5.8857 C   0  0  0  0  0  0  0  0  0  0  0  0
   10.7972   14.0729    4.9213 H   0  0  0  0  0  0  0  0  0  0  0  0
    9.6167   12.7438    6.1016 C   0  0  0  0  0  0  0  0  0  0  0  0
    9.5254   12.0192    5.3036 H   0  0  0  0  0  0  0  0  0  0  0  0
    6.7723   12.1355    5.7073 N   0  0  2  0  0  0  0  0  0  0  0  0
    6.4775   11.1155    4.8170 C   0  0  2  0  0  3  0  0  0  0  0  0
    6.7022   11.6175    7.0655 C   0  0  1  0  0  0  0  0  0  0  0  0
    6.2355   12.3414    7.7349 H   0  0  0  0  0  0  0  0  0  0  0  0
    5.7909   10.3863    6.8443 C   0  0  0  0  0  0  0  0  0  0  0  0
    6.9503   13.4394    5.2833 C   0  0  1  0  0  3  0  0  0  0  0  0
    9.0156   12.5084    7.3340 C   0  0  0  0  0  0  0  0  0  0  0  0
    6.6212   14.5636    6.2161 C   0  0  0  0  0  0  0  0  0  0  0  0
    7.3954   14.6448    6.9838 H   0  0  0  0  0  0  0  0  0  0  0  0
    5.6669   14.3436    6.6990 H   0  0  0  0  0  0  0  0  0  0  0  0
  1  6  1  0  0  0  0
  1  7  1  0  0  0  0
  1  3  1  0  0  0  0
  2  1  1  0  0  0  0
  4  1  1  0  0  0  0
  5  1  1  0  0  0  0
  6 35  1  0  0  0  0
  7 39  1  0  0  0  0
  8 38  1  0  0  0  0
  9 20  1  0  0  0  0
 10  9  1  0  0  0  0
 11 12  1  0  0  0  0
 13 11  1  0  0  0  0
 14 16  1  0  0  0  0
 15 14  1  0  0  0  0
 17 14  1  0  0  0  0
 18 19  1  0  0  0  0
 20 18  2  0  0  0  0
 20 21  1  0  0  0  0
 22 24  1  0  0  0  0
 23 22  1  0  0  0  0
 25 22  1  0  0  0  0
 26 28  1  0  0  0  0
 26 41  1  0  0  0  0
 27 26  1  0  0  0  0
 29 26  1  0  0  0  0
 30 32  1  0  0  0  0
 30  9  2  0  0  0  0
 31 30  1  0  0  0  0
 32 40  2  0  0  0  0
 33 32  1  0  0  0  0
 34 36  1  0  0  0  0
 35  8  1  0  0  0  0
 35 34  1  0  0  0  0
 36 11  1  0  0  0  0
 36 37  1  0  0  0  0
 38 22  1  0  0  0  0
 38 36  1  0  0  0  0
 38 14  1  0  0  0  0
 39 34  1  0  0  0  0
 39 41  1  0  0  0  0
 40 11  1  0  0  0  0
 40 18  1  0  0  0  0
 41 43  1  0  0  0  0
 41 42  1  0  0  0  0
M  END
$$$$
