CSD_code = KUSYII | q = 0 | S = 0 | Stoichiometry = C29H34AuClN3P | MND = 2
 OpenBabel04212202063D

 69 72  0  0  0  0  0  0  0  0999 V2000
    1.8032    8.5398   10.6682 Au  0  0  0  0  0  0  0  0  0  0  0  0
    3.8656    7.7019   11.0319 Cl  0  0  0  0  0  0  0  0  0  0  0  0
   -0.2592    9.2851   10.2296 P   0  0  0  0  0  4  0  0  0  0  0  0
   -1.5021   13.5898   11.1397 C   0  0  0  0  0  0  0  0  0  0  0  0
   -1.7805   14.6097   11.3599 H   0  0  0  0  0  0  0  0  0  0  0  0
   -1.4900    8.0584   15.8081 C   0  0  0  0  0  0  0  0  0  0  0  0
   -0.7821    8.8580   16.6949 C   0  0  0  0  0  0  0  0  0  0  0  0
   -0.1528    9.6280   16.2794 H   0  0  0  0  0  0  0  0  0  0  0  0
   -0.8857    8.6617   18.0661 C   0  0  0  0  0  0  0  0  0  0  0  0
   -0.7919   10.0301    6.2160 C   0  0  0  0  0  0  0  0  0  0  0  0
   -0.9060   10.8830    5.5633 H   0  0  0  0  0  0  0  0  0  0  0  0
   -3.2973    5.7115   18.2301 C   0  0  0  0  0  0  0  0  0  0  0  0
   -1.4852    8.3033   12.2282 N   0  0  0  0  0  0  0  0  0  0  0  0
   -0.4821    9.1964   13.8743 N   0  0  0  0  0  0  0  0  0  0  0  0
   -2.3118    7.0405   16.2880 C   0  0  0  0  0  0  0  0  0  0  0  0
   -2.8441    6.4281   15.5800 H   0  0  0  0  0  0  0  0  0  0  0  0
   -2.4073    4.7488   19.0288 C   0  0  0  0  0  0  0  0  0  0  0  0
   -3.0048    3.9350   19.4344 H   0  0  0  0  0  0  0  0  0  0  0  0
   -1.9169    5.2548   19.8556 H   0  0  0  0  0  0  0  0  0  0  0  0
   -1.6390    4.3260   18.3849 H   0  0  0  0  0  0  0  0  0  0  0  0
    1.3989    9.4143   18.6943 C   0  0  0  0  0  0  0  0  0  0  0  0
    1.7134    8.3828   18.8391 H   0  0  0  0  0  0  0  0  0  0  0  0
    1.9829   10.0493   19.3573 H   0  0  0  0  0  0  0  0  0  0  0  0
    1.6204    9.6962   17.6692 H   0  0  0  0  0  0  0  0  0  0  0  0
   -4.3566    6.3294   19.1534 C   0  0  0  0  0  0  0  0  0  0  0  0
   -4.9994    5.5506   19.5585 H   0  0  0  0  0  0  0  0  0  0  0  0
   -4.9743    7.0337   18.5996 H   0  0  0  0  0  0  0  0  0  0  0  0
   -3.9001    6.8581   19.9853 H   0  0  0  0  0  0  0  0  0  0  0  0
   -0.7529    8.7517    5.6863 C   0  0  0  0  0  0  0  0  0  0  0  0
   -0.8430    8.6047    4.6206 H   0  0  0  0  0  0  0  0  0  0  0  0
   -2.4069   12.7510   10.5082 C   0  0  0  0  0  0  0  0  0  0  0  0
   -3.3863   13.1172   10.2368 H   0  0  0  0  0  0  0  0  0  0  0  0
   -0.6777   10.2241    7.5819 C   0  0  0  0  0  0  0  0  0  0  0  0
   -0.6945   11.2257    7.9880 H   0  0  0  0  0  0  0  0  0  0  0  0
   -0.5697    9.1844   12.6011 N   0  0  0  0  0  0  0  0  0  0  0  0
   -4.0227    4.9021   17.1512 C   0  0  0  0  0  0  0  0  0  0  0  0
   -3.3142    4.4122   16.4870 H   0  0  0  0  0  0  0  0  0  0  0  0
   -4.6856    5.5355   16.5655 H   0  0  0  0  0  0  0  0  0  0  0  0
   -4.6275    4.1303   17.6230 H   0  0  0  0  0  0  0  0  0  0  0  0
   -0.2433   13.1249   11.4871 C   0  0  0  0  0  0  0  0  0  0  0  0
    0.4595   13.7809   11.9780 H   0  0  0  0  0  0  0  0  0  0  0  0
    0.1101   11.8180   11.2079 C   0  0  0  0  0  0  0  0  0  0  0  0
    1.0791   11.4252   11.4849 H   0  0  0  0  0  0  0  0  0  0  0  0
   -2.4293    6.8186   17.6490 C   0  0  0  0  0  0  0  0  0  0  0  0
   -1.3534    8.2940   14.3812 C   0  0  0  0  0  0  0  0  0  0  0  0
   -0.5329   11.0165   18.7780 C   0  0  0  0  0  0  0  0  0  0  0  0
   -0.3397   11.3313   17.7565 H   0  0  0  0  0  0  0  0  0  0  0  0
    0.0112   11.6787   19.4483 H   0  0  0  0  0  0  0  0  0  0  0  0
   -1.5978   11.1260   18.9741 H   0  0  0  0  0  0  0  0  0  0  0  0
   -0.7972   10.9767   10.5748 C   0  0  0  0  0  0  0  0  0  0  0  0
   -0.3155    9.2215   20.4812 C   0  0  0  0  0  0  0  0  0  0  0  0
   -1.3597    9.3416   20.7622 H   0  0  0  0  0  0  0  0  0  0  0  0
    0.2761    9.8947   21.0983 H   0  0  0  0  0  0  0  0  0  0  0  0
    0.0008    8.2042   20.7002 H   0  0  0  0  0  0  0  0  0  0  0  0
   -2.0582   11.4441   10.2191 C   0  0  0  0  0  0  0  0  0  0  0  0
   -2.7578   10.7954    9.7079 H   0  0  0  0  0  0  0  0  0  0  0  0
   -2.0148    7.7054   13.3070 C   0  0  0  0  0  0  0  0  0  0  0  0
   -2.7742    6.9559   13.2413 H   0  0  0  0  0  0  0  0  0  0  0  0
   -0.0969    9.5621   19.0045 C   0  0  0  0  0  0  0  0  0  0  0  0
   -1.7121    7.6421   18.5163 C   0  0  0  0  0  0  0  0  0  0  0  0
   -1.8060    7.4709   19.5750 H   0  0  0  0  0  0  0  0  0  0  0  0
   -1.6545    8.2066   10.8191 C   0  0  0  0  0  0  0  0  0  0  0  0
   -2.6325    8.5836   10.4917 H   0  0  0  0  0  0  0  0  0  0  0  0
   -1.5313    7.1777   10.4638 H   0  0  0  0  0  0  0  0  0  0  0  0
   -0.5388    9.1321    8.4310 C   0  0  0  0  0  0  0  0  0  0  0  0
   -0.5758    7.6607    6.5235 C   0  0  0  0  0  0  0  0  0  0  0  0
   -0.5181    6.6644    6.1109 H   0  0  0  0  0  0  0  0  0  0  0  0
   -0.4566    7.8514    7.8858 C   0  0  0  0  0  0  0  0  0  0  0  0
   -0.2768    7.0050    8.5374 H   0  0  0  0  0  0  0  0  0  0  0  0
  1  2  1  0  0  0  0
  3 50  1  0  0  0  0
  3  1  1  0  0  0  0
  3 62  1  0  0  0  0
  4  5  1  0  0  0  0
  4 40  1  0  0  0  0
  6 15  2  0  0  0  0
  6  7  1  0  0  0  0
  7  9  2  0  0  0  0
  8  7  1  0  0  0  0
  9 60  1  0  0  0  0
  9 59  1  0  0  0  0
 10 33  1  0  0  0  0
 11 10  1  0  0  0  0
 12 17  1  0  0  0  0
 12 25  1  0  0  0  0
 13 35  1  0  0  0  0
 13 57  1  0  0  0  0
 14 45  1  0  0  0  0
 15 44  1  0  0  0  0
 16 15  1  0  0  0  0
 17 18  1  0  0  0  0
 17 19  1  0  0  0  0
 20 17  1  0  0  0  0
 21 22  1  0  0  0  0
 21 59  1  0  0  0  0
 21 23  1  0  0  0  0
 24 21  1  0  0  0  0
 25 26  1  0  0  0  0
 25 28  1  0  0  0  0
 27 25  1  0  0  0  0
 29 10  2  0  0  0  0
 29 66  1  0  0  0  0
 30 29  1  0  0  0  0
 31  4  2  0  0  0  0
 32 31  1  0  0  0  0
 33 34  1  0  0  0  0
 33 65  2  0  0  0  0
 35 14  2  0  0  0  0
 36 39  1  0  0  0  0
 36 12  1  0  0  0  0
 37 36  1  0  0  0  0
 38 36  1  0  0  0  0
 40 41  1  0  0  0  0
 42 43  1  0  0  0  0
 42 40  2  0  0  0  0
 44 12  1  0  0  0  0
 44 60  2  0  0  0  0
 45  6  1  0  0  0  0
 46 49  1  0  0  0  0
 46 59  1  0  0  0  0
 46 48  1  0  0  0  0
 47 46  1  0  0  0  0
 50 42  1  0  0  0  0
 51 54  1  0  0  0  0
 51 52  1  0  0  0  0
 51 53  1  0  0  0  0
 55 31  1  0  0  0  0
 55 50  2  0  0  0  0
 56 55  1  0  0  0  0
 57 45  2  0  0  0  0
 58 57  1  0  0  0  0
 59 51  1  0  0  0  0
 60 61  1  0  0  0  0
 62 13  1  0  0  0  0
 63 62  1  0  0  0  0
 64 62  1  0  0  0  0
 65  3  1  0  0  0  0
 66 68  2  0  0  0  0
 67 66  1  0  0  0  0
 68 65  1  0  0  0  0
 68 69  1  0  0  0  0
M  END
$$$$
