CSD_code = KUTTOI | q = 0 | S = 0 | Stoichiometry = C24H18Br2N2O2Pd | MND = 4
 OpenBabel04212202063D

 49 52  0  0  0  0  0  0  0  0999 V2000
    0.0000   -0.0001    0.0000 Pd  0  0  0  0  0  0  0  0  0  0  0  0
   -0.9570    1.3433    1.8433 Br  0  0  0  0  0  0  0  0  0  0  0  0
    2.6550    1.6411   -3.0683 O   0  0  0  0  0  0  0  0  0  0  0  0
    1.7760    0.8097    0.2368 N   0  0  0  0  0  0  0  0  0  0  0  0
    2.3545    0.6063    1.4182 C   0  0  0  0  0  3  0  0  0  0  0  0
    3.6615    0.9712    1.6867 C   0  0  0  0  0  0  0  0  0  0  0  0
    4.4086    1.5719    0.6850 C   0  0  0  0  0  0  0  0  0  0  0  0
    3.8057    1.7855   -0.5401 C   0  0  0  0  0  0  0  0  0  0  0  0
    2.4827    1.3977   -0.7371 C   0  0  0  0  0  0  0  0  0  0  0  0
    1.9105    1.6336   -2.1124 C   0  0  0  0  0  0  0  0  0  0  0  0
    0.4654    1.9535   -2.2390 C   0  0  0  0  0  0  0  0  0  0  0  0
   -0.1730    1.6564   -3.4461 C   0  0  0  0  0  0  0  0  0  0  0  0
   -1.5007    1.9948   -3.6328 C   0  0  0  0  0  0  0  0  0  0  0  0
   -2.2041    2.6365   -2.6230 C   0  0  0  0  0  0  0  0  0  0  0  0
   -1.5716    2.9651   -1.4334 C   0  0  0  0  0  0  0  0  0  0  0  0
   -0.2379    2.6357   -1.2357 C   0  0  0  0  0  0  0  0  0  0  0  0
    1.7473    0.1383    2.1877 H   0  0  0  0  0  0  0  0  0  0  0  0
    4.0778    0.7797    2.6624 H   0  0  0  0  0  0  0  0  0  0  0  0
    5.4340    1.8620    0.8535 H   0  0  0  0  0  0  0  0  0  0  0  0
    4.3320    2.2364   -1.3669 H   0  0  0  0  0  0  0  0  0  0  0  0
    0.3896    1.1445   -4.2128 H   0  0  0  0  0  0  0  0  0  0  0  0
   -1.9883    1.7574   -4.5668 H   0  0  0  0  0  0  0  0  0  0  0  0
   -3.2427    2.8950   -2.7675 H   0  0  0  0  0  0  0  0  0  0  0  0
   -2.1088    3.4890   -0.6567 H   0  0  0  0  0  0  0  0  0  0  0  0
    0.2738    2.9926   -0.3471 H   0  0  0  0  0  0  0  0  0  0  0  0
    0.9568   -1.3435   -1.8434 Br  0  0  0  0  0  0  0  0  0  0  0  0
   -1.7760   -0.8096   -0.2368 N   0  0  0  0  0  0  0  0  0  0  0  0
   -2.3545   -0.6063   -1.4182 C   0  0  0  0  0  3  0  0  0  0  0  0
   -2.4827   -1.3977    0.7371 C   0  0  0  0  0  0  0  0  0  0  0  0
   -3.6615   -0.9712   -1.6867 C   0  0  0  0  0  0  0  0  0  0  0  0
   -1.7472   -0.1384   -2.1877 H   0  0  0  0  0  0  0  0  0  0  0  0
   -3.8057   -1.7855    0.5401 C   0  0  0  0  0  0  0  0  0  0  0  0
   -1.9104   -1.6335    2.1124 C   0  0  0  0  0  0  0  0  0  0  0  0
   -4.4086   -1.5718   -0.6850 C   0  0  0  0  0  0  0  0  0  0  0  0
   -4.0778   -0.7797   -2.6624 H   0  0  0  0  0  0  0  0  0  0  0  0
   -4.3320   -2.2364    1.3669 H   0  0  0  0  0  0  0  0  0  0  0  0
   -2.6550   -1.6411    3.0683 O   0  0  0  0  0  0  0  0  0  0  0  0
   -0.4653   -1.9535    2.2390 C   0  0  0  0  0  0  0  0  0  0  0  0
   -5.4340   -1.8620   -0.8535 H   0  0  0  0  0  0  0  0  0  0  0  0
    0.1730   -1.6564    3.4461 C   0  0  0  0  0  0  0  0  0  0  0  0
    0.2380   -2.6356    1.2357 C   0  0  0  0  0  0  0  0  0  0  0  0
    1.5007   -1.9948    3.6328 C   0  0  0  0  0  0  0  0  0  0  0  0
   -0.3895   -1.1445    4.2127 H   0  0  0  0  0  0  0  0  0  0  0  0
    1.5716   -2.9651    1.4334 C   0  0  0  0  0  0  0  0  0  0  0  0
   -0.2737   -2.9926    0.3471 H   0  0  0  0  0  0  0  0  0  0  0  0
    2.2041   -2.6366    2.6230 C   0  0  0  0  0  0  0  0  0  0  0  0
    1.9883   -1.7573    4.5668 H   0  0  0  0  0  0  0  0  0  0  0  0
    2.1088   -3.4891    0.6567 H   0  0  0  0  0  0  0  0  0  0  0  0
    3.2427   -2.8951    2.7676 H   0  0  0  0  0  0  0  0  0  0  0  0
  1  4  1  0  0  0  0
  1  2  1  0  0  0  0
  3 10  2  0  0  0  0
  4  5  1  0  0  0  0
  5  6  1  0  0  0  0
  5 17  1  0  0  0  0
  6 18  1  0  0  0  0
  7 19  1  0  0  0  0
  7  6  2  0  0  0  0
  8  7  1  0  0  0  0
  9  8  2  0  0  0  0
  9  4  1  0  0  0  0
 10  9  1  0  0  0  0
 11 10  1  0  0  0  0
 11 16  1  0  0  0  0
 12 11  2  0  0  0  0
 13 12  1  0  0  0  0
 13 14  2  0  0  0  0
 14 15  1  0  0  0  0
 15 16  2  0  0  0  0
 15 24  1  0  0  0  0
 16 25  1  0  0  0  0
 20  8  1  0  0  0  0
 21 12  1  0  0  0  0
 22 13  1  0  0  0  0
 23 14  1  0  0  0  0
 26  1  1  0  0  0  0
 27  1  1  0  0  0  0
 27 29  1  0  0  0  0
 28 27  1  0  0  0  0
 29 33  1  0  0  0  0
 30 28  1  0  0  0  0
 30 34  2  0  0  0  0
 31 28  1  0  0  0  0
 32 29  2  0  0  0  0
 32 36  1  0  0  0  0
 33 38  1  0  0  0  0
 33 37  2  0  0  0  0
 34 32  1  0  0  0  0
 35 30  1  0  0  0  0
 38 40  1  0  0  0  0
 39 34  1  0  0  0  0
 40 42  2  0  0  0  0
 40 43  1  0  0  0  0
 41 44  1  0  0  0  0
 41 38  2  0  0  0  0
 42 47  1  0  0  0  0
 44 46  2  0  0  0  0
 45 41  1  0  0  0  0
 46 49  1  0  0  0  0
 46 42  1  0  0  0  0
 48 44  1  0  0  0  0
M  END
$$$$
