CSD_code = KUVSUP | q = 0 | S = 0 | Stoichiometry = C20H19ClN2O4Pd | MND = 4
 OpenBabel04212202063D

 47 50  0  0  0  0  0  0  0  0999 V2000
    8.9923    7.8092    5.3842 Pd  0  0  1  0  0  0  0  0  0  0  0  0
   10.7123    6.7623    4.4694 Cl  0  0  0  0  0  0  0  0  0  0  0  0
   10.0925    8.7050    6.9374 N   0  0  0  0  0  0  0  0  0  0  0  0
    7.5279    8.7975    6.3039 N   0  0  0  0  0  0  0  0  0  0  0  0
   11.3920    8.5826    7.1753 C   0  0  0  0  0  0  0  0  0  0  0  0
   11.9950    9.1313    8.2951 C   0  0  0  0  0  0  0  0  0  0  0  0
   11.2049    9.8300    9.1971 C   0  0  0  0  0  0  0  0  0  0  0  0
    9.8499    9.9542    8.9502 C   0  0  0  0  0  0  0  0  0  0  0  0
    9.3078    9.3769    7.8001 C   0  0  0  0  0  0  0  0  0  0  0  0
    6.2519    8.8308    5.9201 C   0  0  0  0  0  0  0  0  0  0  0  0
    5.2704    9.4966    6.6289 C   0  0  0  0  0  0  0  0  0  0  0  0
    5.6223   10.1648    7.7947 C   0  0  0  0  0  0  0  0  0  0  0  0
    6.9435   10.1366    8.1964 C   0  0  0  0  0  0  0  0  0  0  0  0
    7.8869    9.4445    7.4360 C   0  0  0  0  0  0  0  0  0  0  0  0
    7.8403    6.8799    4.0616 C   0  0  0  0  0  0  0  0  0  0  0  0
    7.3344    5.6789    4.5407 C   0  0  0  0  0  0  0  0  0  0  0  0
    6.5043    4.8459    3.7758 C   0  0  0  0  0  0  0  0  0  0  0  0
    6.2036    5.2501    2.4514 C   0  0  0  0  0  0  0  0  0  0  0  0
    6.6914    6.4516    1.9773 C   0  0  0  0  0  0  0  0  0  0  0  0
    7.5025    7.2759    2.7676 C   0  0  0  0  0  0  0  0  0  0  0  0
    8.4903    4.2503    6.0418 C   0  0  0  0  0  0  0  0  0  0  0  0
    5.1198    2.8572    3.8338 C   0  0  0  0  0  0  0  0  0  0  0  0
    5.1505    4.7766    0.3607 C   0  0  0  0  0  0  0  0  0  0  0  0
    8.0037    8.5458    2.2652 C   0  0  0  0  0  0  0  0  0  0  0  0
    7.6567    5.3899    5.8692 O   0  0  0  0  0  0  0  0  0  0  0  0
    6.0778    3.7190    4.4061 O   0  0  0  0  0  0  0  0  0  0  0  0
    5.4207    4.4107    1.6914 O   0  0  0  0  0  0  0  0  0  0  0  0
    7.7537    9.0534    1.1977 O   0  0  0  0  0  0  0  0  0  0  0  0
   11.9556    8.0229    6.4355 H   0  0  0  0  0  0  0  0  0  0  0  0
   13.0542    9.0127    8.4556 H   0  0  0  0  0  0  0  0  0  0  0  0
   11.6375   10.2710   10.0825 H   0  0  0  0  0  0  0  0  0  0  0  0
    9.2263   10.4898    9.6469 H   0  0  0  0  0  0  0  0  0  0  0  0
    6.0121    8.2989    5.0079 H   0  0  0  0  0  0  0  0  0  0  0  0
    4.2525    9.4922    6.2747 H   0  0  0  0  0  0  0  0  0  0  0  0
    4.8838   10.6958    8.3750 H   0  0  0  0  0  0  0  0  0  0  0  0
    7.2398   10.6510    9.0957 H   0  0  0  0  0  0  0  0  0  0  0  0
    6.4728    6.7920    0.9780 H   0  0  0  0  0  0  0  0  0  0  0  0
    8.6531    4.1586    7.1148 H   0  0  0  0  0  0  0  0  0  0  0  0
    8.0042    3.3485    5.6633 H   0  0  0  0  0  0  0  0  0  0  0  0
    9.4498    4.3989    5.5337 H   0  0  0  0  0  0  0  0  0  0  0  0
    4.9136    2.1153    4.6059 H   0  0  0  0  0  0  0  0  0  0  0  0
    4.1996    3.3875    3.5825 H   0  0  0  0  0  0  0  0  0  0  0  0
    5.5041    2.3595    2.9422 H   0  0  0  0  0  0  0  0  0  0  0  0
    4.5530    3.9617   -0.0463 H   0  0  0  0  0  0  0  0  0  0  0  0
    4.5776    5.7077    0.3058 H   0  0  0  0  0  0  0  0  0  0  0  0
    6.0699    4.8797   -0.2234 H   0  0  0  0  0  0  0  0  0  0  0  0
    8.6787    9.0650    3.0140 H   0  0  0  0  0  0  0  0  0  0  0  0
  1  2  1  6  0  0  0
  1  4  1  0  0  0  0
  1  3  1  0  0  0  0
  3  5  1  0  0  0  0
  3  9  1  0  0  0  0
  4 14  1  0  0  0  0
  5  6  2  0  0  0  0
  6 30  1  0  0  0  0
  6  7  1  0  0  0  0
  7 31  1  0  0  0  0
  8  7  2  0  0  0  0
  8 32  1  0  0  0  0
  9  8  1  0  0  0  0
 10  4  1  0  0  0  0
 10 11  2  0  0  0  0
 11 12  1  0  0  0  0
 12 13  2  0  0  0  0
 12 35  1  0  0  0  0
 13 36  1  0  0  0  0
 14  9  2  0  0  0  0
 14 13  1  0  0  0  0
 15 16  1  0  0  0  0
 15  1  1  0  0  0  0
 16 25  1  0  0  0  0
 17 26  1  0  0  0  0
 17 16  2  0  0  0  0
 18 17  1  0  0  0  0
 19 18  2  0  0  0  0
 19 20  1  0  0  0  0
 20 15  2  0  0  0  0
 21 38  1  0  0  0  0
 22 26  1  0  0  0  0
 22 41  1  0  0  0  0
 23 27  1  0  0  0  0
 24 20  1  0  0  0  0
 24 47  1  0  0  0  0
 25 21  1  0  0  0  0
 27 18  1  0  0  0  0
 28 24  2  0  0  0  0
 29  5  1  0  0  0  0
 33 10  1  0  0  0  0
 34 11  1  0  0  0  0
 37 19  1  0  0  0  0
 39 21  1  0  0  0  0
 40 21  1  0  0  0  0
 42 22  1  0  0  0  0
 43 22  1  0  0  0  0
 44 23  1  0  0  0  0
 45 23  1  0  0  0  0
 46 23  1  0  0  0  0
M  END
$$$$
