CSD_code = KUWGUF | q = 0 | S = 0 | Stoichiometry = C30H29ClN2Pd | MND = 4
 OpenBabel04212202063D

 63 67  0  0  0  0  0  0  0  0999 V2000
   10.0706    5.8617   13.6601 Pd  0  0  0  0  0  0  0  0  0  0  0  0
    9.6947    4.3169   15.2648 Cl  0  0  0  0  0  0  0  0  0  0  0  0
   10.1925    6.8942   11.9547 N   0  0  0  0  0  0  0  0  0  0  0  0
    7.9919    6.5667   13.9272 N   0  0  0  0  0  0  0  0  0  0  0  0
   11.9163    5.0251   13.3641 C   0  0  0  0  0  0  0  0  0  0  0  0
   11.8350    3.9345   13.3026 H   0  0  0  0  0  0  0  0  0  0  0  0
   12.5369    5.2782   14.2332 H   0  0  0  0  0  0  0  0  0  0  0  0
   12.4116    5.3955   12.4583 H   0  0  0  0  0  0  0  0  0  0  0  0
   11.4240    8.6032   13.9060 C   0  0  0  0  0  0  0  0  0  0  0  0
   10.3509    8.5167   14.0604 H   0  0  0  0  0  0  0  0  0  0  0  0
   12.2327    9.1184   14.9026 C   0  0  0  0  0  0  0  0  0  0  0  0
   11.8015    9.3847   15.8559 H   0  0  0  0  0  0  0  0  0  0  0  0
   13.5882    9.3027   14.6763 C   0  0  0  0  0  0  0  0  0  0  0  0
   14.2194    9.6921   15.4612 H   0  0  0  0  0  0  0  0  0  0  0  0
   14.1310    8.9978   13.4391 C   0  0  0  0  0  0  0  0  0  0  0  0
   15.1852    9.1472   13.2588 H   0  0  0  0  0  0  0  0  0  0  0  0
   13.3265    8.5010   12.4302 C   0  0  0  0  0  0  0  0  0  0  0  0
   13.7519    8.2564   11.4674 H   0  0  0  0  0  0  0  0  0  0  0  0
   11.9695    8.2845   12.6596 C   0  0  0  0  0  0  0  0  0  0  0  0
   11.1114    7.7176   11.6087 C   0  0  0  0  0  3  0  0  0  0  0  0
   11.4093    8.1449   10.2252 C   0  0  0  0  0  0  0  0  0  0  0  0
   11.6921    7.2128    9.2286 C   0  0  0  0  0  0  0  0  0  0  0  0
   11.6912    6.1589    9.4678 H   0  0  0  0  0  0  0  0  0  0  0  0
   12.0081    7.6347    7.9499 C   0  0  0  0  0  0  0  0  0  0  0  0
   12.2331    6.9054    7.1860 H   0  0  0  0  0  0  0  0  0  0  0  0
   12.0383    8.9866    7.6503 C   0  0  0  0  0  0  0  0  0  0  0  0
   12.2811    9.3133    6.6504 H   0  0  0  0  0  0  0  0  0  0  0  0
   11.7655    9.9192    8.6383 C   0  0  0  0  0  0  0  0  0  0  0  0
   11.7961   10.9740    8.4093 H   0  0  0  0  0  0  0  0  0  0  0  0
   11.4611    9.5034    9.9208 C   0  0  0  0  0  0  0  0  0  0  0  0
   11.2527   10.2276   10.6952 H   0  0  0  0  0  0  0  0  0  0  0  0
    9.2300    6.3648   11.0188 C   0  0  0  0  0  0  0  0  0  0  0  0
    9.3973    5.2794   10.9316 H   0  0  0  0  0  0  0  0  0  0  0  0
    9.3436    6.8213   10.0247 H   0  0  0  0  0  0  0  0  0  0  0  0
    7.7863    6.6090   11.4893 C   0  0  0  0  0  0  0  0  0  0  0  0
    7.1204    6.2638   10.6956 H   0  0  0  0  0  0  0  0  0  0  0  0
    7.6318    7.6845   11.6178 H   0  0  0  0  0  0  0  0  0  0  0  0
    7.3982    5.8941   12.7919 C   0  0  0  0  0  0  0  0  0  0  0  0
    6.3016    5.8594   12.8677 H   0  0  0  0  0  0  0  0  0  0  0  0
    7.7733    4.8529   12.7745 H   0  0  0  0  0  0  0  0  0  0  0  0
    4.8305    6.9382   14.7964 C   0  0  0  0  0  0  0  0  0  0  0  0
    4.9527    7.8981   14.3123 H   0  0  0  0  0  0  0  0  0  0  0  0
    3.5651    6.4200   15.0102 C   0  0  0  0  0  0  0  0  0  0  0  0
    2.6966    6.9781   14.6915 H   0  0  0  0  0  0  0  0  0  0  0  0
    3.4140    5.1912   15.6307 C   0  0  0  0  0  0  0  0  0  0  0  0
    2.4251    4.7900   15.7969 H   0  0  0  0  0  0  0  0  0  0  0  0
    4.5300    4.4770   16.0359 C   0  0  0  0  0  0  0  0  0  0  0  0
    4.4130    3.5176   16.5171 H   0  0  0  0  0  0  0  0  0  0  0  0
    5.7979    4.9889   15.8261 C   0  0  0  0  0  0  0  0  0  0  0  0
    6.6780    4.4401   16.1286 H   0  0  0  0  0  0  0  0  0  0  0  0
    5.9509    6.2245   15.2072 C   0  0  0  0  0  0  0  0  0  0  0  0
    7.3334    6.7376   15.0066 C   0  0  0  0  0  3  0  0  0  0  0  0
    7.9131    7.4553   16.1532 C   0  0  0  0  0  0  0  0  0  0  0  0
    7.0678    8.1447   17.0257 C   0  0  0  0  0  0  0  0  0  0  0  0
    6.0027    8.1564   16.8454 H   0  0  0  0  0  0  0  0  0  0  0  0
    7.5819    8.8224   18.1139 C   0  0  0  0  0  0  0  0  0  0  0  0
    6.9155    9.3565   18.7755 H   0  0  0  0  0  0  0  0  0  0  0  0
    8.9439    8.8034   18.3664 C   0  0  0  0  0  0  0  0  0  0  0  0
    9.3417    9.3165   19.2297 H   0  0  0  0  0  0  0  0  0  0  0  0
    9.7891    8.1109   17.5149 C   0  0  0  0  0  0  0  0  0  0  0  0
   10.8481    8.0694   17.7234 H   0  0  0  0  0  0  0  0  0  0  0  0
    9.2852    7.4504   16.4097 C   0  0  0  0  0  0  0  0  0  0  0  0
    9.9605    6.8721   15.7727 H   0  0  0  0  0  0  0  0  0  0  0  0
  1  4  1  0  0  0  0
  1  2  1  0  0  0  0
  3  1  1  0  0  0  0
  4 52  1  0  0  0  0
  5  1  1  0  0  0  0
  5  7  1  0  0  0  0
  6  5  1  0  0  0  0
  8  5  1  0  0  0  0
  9 10  1  0  0  0  0
  9 11  1  0  0  0  0
 11 12  1  0  0  0  0
 13 11  2  0  0  0  0
 13 14  1  0  0  0  0
 15 13  1  0  0  0  0
 16 15  1  0  0  0  0
 17 19  1  0  0  0  0
 17 15  2  0  0  0  0
 18 17  1  0  0  0  0
 19  9  2  0  0  0  0
 20  3  1  0  0  0  0
 20 19  1  0  0  0  0
 21 20  1  0  0  0  0
 22 23  1  0  0  0  0
 22 21  2  0  0  0  0
 24 22  1  0  0  0  0
 25 24  1  0  0  0  0
 26 24  2  0  0  0  0
 26 28  1  0  0  0  0
 27 26  1  0  0  0  0
 28 30  2  0  0  0  0
 29 28  1  0  0  0  0
 30 21  1  0  0  0  0
 30 31  1  0  0  0  0
 32 35  1  0  0  0  0
 32  3  1  0  0  0  0
 33 32  1  0  0  0  0
 34 32  1  0  0  0  0
 35 37  1  0  0  0  0
 35 38  1  0  0  0  0
 36 35  1  0  0  0  0
 38 39  1  0  0  0  0
 38  4  1  0  0  0  0
 40 38  1  0  0  0  0
 41 43  2  0  0  0  0
 41 51  1  0  0  0  0
 42 41  1  0  0  0  0
 43 45  1  0  0  0  0
 44 43  1  0  0  0  0
 45 46  1  0  0  0  0
 45 47  2  0  0  0  0
 47 48  1  0  0  0  0
 49 47  1  0  0  0  0
 49 50  1  0  0  0  0
 51 49  2  0  0  0  0
 52 51  1  0  0  0  0
 52 53  1  0  0  0  0
 53 62  2  0  0  0  0
 53 54  1  0  0  0  0
 54 56  2  0  0  0  0
 55 54  1  0  0  0  0
 56 58  1  0  0  0  0
 56 57  1  0  0  0  0
 58 59  1  0  0  0  0
 60 61  1  0  0  0  0
 60 58  2  0  0  0  0
 62 60  1  0  0  0  0
 63 62  1  0  0  0  0
M  END
$$$$
