CSD_code = KUWTEC | q = 0 | S = 0 | Stoichiometry = C12H14Cl2N6S4Zn | MND = 4
 OpenBabel04212202063D

 39 40  0  0  0  0  0  0  0  0999 V2000
    9.0657    5.5987    8.4255 C   0  0  0  0  0  0  0  0  0  0  0  0
    9.5920    8.5043    6.6058 C   0  0  0  0  0  0  0  0  0  0  0  0
    8.9877    9.3553    5.6203 C   0  0  0  0  0  0  0  0  0  0  0  0
    9.5861   10.4953    5.1451 C   0  0  0  0  0  0  0  0  0  0  0  0
    7.7113    9.1444    5.0190 C   0  0  0  0  0  0  0  0  0  0  0  0
    7.3893   10.1080    4.1284 C   0  0  0  0  0  0  0  0  0  0  0  0
   14.7640    5.6624   11.9952 C   0  0  0  0  0  0  0  0  0  0  0  0
   14.5076    8.5083   13.9648 C   0  0  0  0  0  0  0  0  0  0  0  0
   15.2910    9.4345   14.7320 C   0  0  0  0  0  0  0  0  0  0  0  0
   14.7552   10.5205   15.3770 C   0  0  0  0  0  0  0  0  0  0  0  0
   16.7017    9.3525   14.9276 C   0  0  0  0  0  0  0  0  0  0  0  0
   17.1798   10.3547   15.6974 C   0  0  0  0  0  0  0  0  0  0  0  0
    7.8890    5.2392    7.9036 N   0  0  0  0  0  4  0  0  0  0  0  0
    9.6394    6.7089    7.9598 N   0  0  0  0  0  0  0  0  0  0  0  0
    9.0029    7.4482    7.0189 N   0  0  0  0  0  0  0  0  0  0  0  0
   16.0816    5.4622   12.0873 N   0  0  0  0  0  4  0  0  0  0  0  0
   14.2435    6.6985   12.6560 N   0  0  0  0  0  0  0  0  0  0  0  0
   15.0542    7.5262   13.3570 N   0  0  0  0  0  0  0  0  0  0  0  0
    9.7590    4.6215    9.6173 S   0  0  0  0  0  0  0  0  0  0  0  0
    8.6245   11.3045    3.9894 S   0  0  0  0  0  0  0  0  0  0  0  0
   13.8296    4.5892   11.0856 S   0  0  0  0  0  0  0  0  0  0  0  0
   15.9343   11.4324   16.2099 S   0  0  0  0  0  0  0  0  0  0  0  0
   11.1739    6.9721   12.5676 Cl  0  0  0  0  0  0  0  0  0  0  0  0
   12.3205    7.5655    9.1660 Cl  0  0  0  0  0  0  0  0  0  0  0  0
   11.7050    5.9205   10.6310 Zn  0  0  0  0  0  0  0  0  0  0  0  0
    7.4219    4.4174    8.2411 H   0  0  0  0  0  0  0  0  0  0  0  0
    7.4867    5.8309    7.1930 H   0  0  0  0  0  0  0  0  0  0  0  0
   10.5708    8.7990    6.9893 H   0  0  0  0  0  0  0  0  0  0  0  0
   10.5661    7.0238    8.3120 H   0  0  0  0  0  0  0  0  0  0  0  0
   10.5416   10.8950    5.4213 H   0  0  0  0  0  0  0  0  0  0  0  0
   16.5089    4.7075   11.5820 H   0  0  0  0  0  0  0  0  0  0  0  0
   16.6212    6.1092   12.6416 H   0  0  0  0  0  0  0  0  0  0  0  0
    7.0866    8.3059    5.2620 H   0  0  0  0  0  0  0  0  0  0  0  0
   13.2168    6.8569   12.6713 H   0  0  0  0  0  0  0  0  0  0  0  0
    6.5009   10.2023    3.5364 H   0  0  0  0  0  0  0  0  0  0  0  0
   13.4296    8.6772   13.9232 H   0  0  0  0  0  0  0  0  0  0  0  0
   13.7280   10.8260   15.4002 H   0  0  0  0  0  0  0  0  0  0  0  0
   17.3012    8.5695   14.5038 H   0  0  0  0  0  0  0  0  0  0  0  0
   18.1895   10.5380   16.0059 H   0  0  0  0  0  0  0  0  0  0  0  0
  1 19  1  0  0  0  0
  2 28  1  0  0  0  0
  2 15  2  0  0  0  0
  3  2  1  0  0  0  0
  4 30  1  0  0  0  0
  4  3  2  0  0  0  0
  5 33  1  0  0  0  0
  5  3  1  0  0  0  0
  6  5  2  0  0  0  0
  7 16  2  0  0  0  0
  7 17  1  0  0  0  0
  8  9  1  0  0  0  0
  9 11  1  0  0  0  0
  9 10  2  0  0  0  0
 10 37  1  0  0  0  0
 10 22  1  0  0  0  0
 11 12  2  0  0  0  0
 12 39  1  0  0  0  0
 12 22  1  0  0  0  0
 13 26  1  0  0  0  0
 13  1  2  0  0  0  0
 14 29  1  0  0  0  0
 14  1  1  0  0  0  0
 15 14  1  0  0  0  0
 16 32  1  0  0  0  0
 17 34  1  0  0  0  0
 17 18  1  0  0  0  0
 18  8  2  0  0  0  0
 19 25  1  0  0  0  0
 20  6  1  0  0  0  0
 20  4  1  0  0  0  0
 21  7  1  0  0  0  0
 24 25  1  0  0  0  0
 25 21  1  0  0  0  0
 25 23  1  0  0  0  0
 27 13  1  0  0  0  0
 31 16  1  0  0  0  0
 35  6  1  0  0  0  0
 36  8  1  0  0  0  0
 38 11  1  0  0  0  0
M  END
$$$$
