CSD_code = KUXRUR | q = 0 | S = 0 | Stoichiometry = C20H23ClN2Pd | MND = 4
 OpenBabel04212202063D

 47 50  0  0  1  0  0  0  0  0999 V2000
    6.2022    5.4143   19.3865 Pd  0  0  1  0  0  0  0  0  0  0  0  0
    5.7700    3.5975   20.5614 Cl  0  0  0  0  0  0  0  0  0  0  0  0
    5.9084    4.5103   17.6191 C   0  0  0  0  0  0  0  0  0  0  0  0
    5.6286    3.1833   17.3082 C   0  0  0  0  0  0  0  0  0  0  0  0
    5.6340    2.4333   18.0880 H   0  0  0  0  0  0  0  0  0  0  0  0
    5.3406    2.8053   16.0047 C   0  0  0  0  0  0  0  0  0  0  0  0
    5.1325    1.7682   15.7833 H   0  0  0  0  0  0  0  0  0  0  0  0
    5.3068    3.7464   14.9913 C   0  0  0  0  0  0  0  0  0  0  0  0
    5.0697    3.4510   13.9793 H   0  0  0  0  0  0  0  0  0  0  0  0
    5.5785    5.0726   15.2783 C   0  0  0  0  0  0  0  0  0  0  0  0
    5.5518    5.8151   14.4913 H   0  0  0  0  0  0  0  0  0  0  0  0
    5.8812    5.4516   16.5779 C   0  0  0  0  0  0  0  0  0  0  0  0
    6.2490    6.8830   16.9068 C   0  0  1  0  0  0  0  0  0  0  0  0
    5.5611    7.5790   16.4032 H   0  0  0  0  0  0  0  0  0  0  0  0
    6.2230    7.0322   18.3465 N   0  0  0  0  0  0  0  0  0  0  0  0
    6.0918    8.1678   18.9655 C   0  0  0  0  0  0  0  0  0  0  0  0
    6.3317    8.1298   20.4040 C   0  0  0  0  0  0  0  0  0  0  0  0
    6.4297    6.9536   20.9238 N   0  0  0  0  0  0  0  0  0  0  0  0
    6.9456    6.6543   22.2373 C   0  0  2  0  0  0  0  0  0  0  0  0
    7.5075    7.5015   22.6665 H   0  0  0  0  0  0  0  0  0  0  0  0
    7.9069    5.4865   22.0360 C   0  0  0  0  0  0  0  0  0  0  0  0
    8.0051    4.4324   22.9315 C   0  0  0  0  0  0  0  0  0  0  0  0
    7.4181    4.4254   23.8355 H   0  0  0  0  0  0  0  0  0  0  0  0
    8.8382    3.3584   22.6666 C   0  0  0  0  0  0  0  0  0  0  0  0
    8.8898    2.5412   23.3704 H   0  0  0  0  0  0  0  0  0  0  0  0
    9.5810    3.3158   21.5015 C   0  0  0  0  0  0  0  0  0  0  0  0
   10.2094    2.4646   21.2871 H   0  0  0  0  0  0  0  0  0  0  0  0
    9.5167    4.3742   20.6112 C   0  0  0  0  0  0  0  0  0  0  0  0
   10.1119    4.3626   19.7090 H   0  0  0  0  0  0  0  0  0  0  0  0
    8.6913    5.4570   20.8758 C   0  0  0  0  0  0  0  0  0  0  0  0
    8.7226    6.3186   20.2068 H   0  0  0  0  0  0  0  0  0  0  0  0
    7.6880    7.1536   16.4376 C   0  0  0  0  0  0  0  0  0  0  0  0
    7.9845    8.1777   16.6578 H   0  0  0  0  0  0  0  0  0  0  0  0
    7.7684    6.9805   15.3681 H   0  0  0  0  0  0  0  0  0  0  0  0
    8.3590    6.4672   16.9560 H   0  0  0  0  0  0  0  0  0  0  0  0
    5.8283    9.4930   18.3078 C   0  0  0  0  0  0  0  0  0  0  0  0
    5.6184    9.3851   17.2485 H   0  0  0  0  0  0  0  0  0  0  0  0
    6.6911   10.1497   18.4189 H   0  0  0  0  0  0  0  0  0  0  0  0
    4.9728    9.9789   18.7755 H   0  0  0  0  0  0  0  0  0  0  0  0
    6.5353    9.4252   21.1404 C   0  0  0  0  0  0  0  0  0  0  0  0
    6.5421    9.2749   22.2159 H   0  0  0  0  0  0  0  0  0  0  0  0
    5.7333   10.1197   20.9014 H   0  0  0  0  0  0  0  0  0  0  0  0
    7.4785    9.8860   20.8459 H   0  0  0  0  0  0  0  0  0  0  0  0
    5.7583    6.3056   23.1403 C   0  0  0  0  0  0  0  0  0  0  0  0
    5.0384    7.1231   23.1304 H   0  0  0  0  0  0  0  0  0  0  0  0
    6.0807    6.1433   24.1645 H   0  0  0  0  0  0  0  0  0  0  0  0
    5.2756    5.4065   22.7592 H   0  0  0  0  0  0  0  0  0  0  0  0
  1  2  1  1  0  0  0
  1 18  1  0  0  0  0
  3  1  1  0  0  0  0
  4  3  1  0  0  0  0
  4  5  1  0  0  0  0
  6  4  2  0  0  0  0
  7  6  1  0  0  0  0
  8 10  2  0  0  0  0
  8  6  1  0  0  0  0
  9  8  1  0  0  0  0
 10 12  1  0  0  0  0
 11 10  1  0  0  0  0
 12 13  1  0  0  0  0
 12  3  2  0  0  0  0
 13 14  1  6  0  0  0
 13 15  1  0  0  0  0
 15 16  1  0  0  0  0
 15  1  1  0  0  0  0
 16 17  2  0  0  0  0
 17 18  1  0  0  0  0
 17 40  1  0  0  0  0
 18 19  1  0  0  0  0
 19 20  1  1  0  0  0
 19 44  1  0  0  0  0
 21 19  1  0  0  0  0
 21 22  1  0  0  0  0
 22 23  1  0  0  0  0
 24 22  2  0  0  0  0
 24 25  1  0  0  0  0
 26 24  1  0  0  0  0
 27 26  1  0  0  0  0
 28 30  1  0  0  0  0
 28 26  2  0  0  0  0
 29 28  1  0  0  0  0
 30 21  2  0  0  0  0
 31 30  1  0  0  0  0
 32 33  1  0  0  0  0
 32 13  1  0  0  0  0
 32 35  1  0  0  0  0
 34 32  1  0  0  0  0
 36 38  1  0  0  0  0
 36 39  1  0  0  0  0
 36 16  1  0  0  0  0
 37 36  1  0  0  0  0
 40 41  1  0  0  0  0
 42 40  1  0  0  0  0
 43 40  1  0  0  0  0
 44 46  1  0  0  0  0
 45 44  1  0  0  0  0
 47 44  1  0  0  0  0
M  END
$$$$
