CSD_code = KUYGER | q = 0 | S = 0 | Stoichiometry = C18H13BrN2O2Zn | MND = 5
 OpenBabel04212202063D

 37 41  0  0  1  0  0  0  0  0999 V2000
    0.4003    4.1360    9.4305 Zn  0  0  2  0  0  0  0  0  0  0  0  0
   -0.6839    5.1691   11.1717 Br  0  0  0  0  0  0  0  0  0  0  0  0
    2.1746    4.6717    8.9541 O   0  0  0  0  0  0  0  0  0  0  0  0
   -1.6553    2.6501    9.5246 O   0  0  0  0  0  0  0  0  0  0  0  0
   -2.5553    2.9585    9.6964 H   0  0  0  0  0  0  0  0  0  0  0  0
   -0.0502    4.4572    7.4471 N   0  0  0  0  0  0  0  0  0  0  0  0
    0.9471    2.1561   10.0246 N   0  0  0  0  0  0  0  0  0  0  0  0
    1.1017    4.8235    6.8529 C   0  0  0  0  0  0  0  0  0  0  0  0
    2.2646    4.9240    7.6908 C   0  0  0  0  0  0  0  0  0  0  0  0
    3.4583    5.3004    7.0764 C   0  0  0  0  0  0  0  0  0  0  0  0
    4.3427    5.3862    7.6891 H   0  0  0  0  0  0  0  0  0  0  0  0
    3.5178    5.5730    5.7145 C   0  0  0  0  0  0  0  0  0  0  0  0
    4.4663    5.8641    5.2856 H   0  0  0  0  0  0  0  0  0  0  0  0
    2.4085    5.4861    4.9067 C   0  0  0  0  0  3  0  0  0  0  0  0
    2.4671    5.7060    3.8517 H   0  0  0  0  0  0  0  0  0  0  0  0
    1.1763    5.1123    5.4624 C   0  0  0  0  0  0  0  0  0  0  0  0
   -0.0208    5.0034    4.7263 C   0  0  0  0  0  0  0  0  0  0  0  0
   -0.0086    5.2165    3.6668 H   0  0  0  0  0  0  0  0  0  0  0  0
   -1.1780    4.6344    5.3599 C   0  0  0  0  0  0  0  0  0  0  0  0
   -2.1098    4.5475    4.8232 H   0  0  0  0  0  0  0  0  0  0  0  0
   -1.1487    4.3655    6.7329 C   0  0  0  0  0  0  0  0  0  0  0  0
   -2.0464    4.0692    7.2568 H   0  0  0  0  0  0  0  0  0  0  0  0
    0.0205    1.3152   10.5357 C   0  0  2  0  0  3  0  0  0  0  0  0
   -1.3540    1.6037   10.3325 C   0  0  0  0  0  0  0  0  0  0  0  0
   -2.3118    0.8245   10.9345 C   0  0  0  0  0  0  0  0  0  0  0  0
   -3.3570    1.0699   10.8110 H   0  0  0  0  0  0  0  0  0  0  0  0
   -1.9468   -0.2855   11.7065 C   0  0  0  0  0  0  0  0  0  0  0  0
   -2.7231   -0.8788   12.1643 H   0  0  0  0  0  0  0  0  0  0  0  0
   -0.6322   -0.6219   11.8728 C   0  0  0  0  0  0  0  0  0  0  0  0
   -0.3484   -1.4855   12.4542 H   0  0  0  0  0  0  0  0  0  0  0  0
    0.3788    0.1724   11.2976 C   0  0  0  0  0  0  0  0  0  0  0  0
    1.7551   -0.0936   11.4521 C   0  0  0  0  0  0  0  0  0  0  0  0
    2.0642   -0.9593   12.0199 H   0  0  0  0  0  0  0  0  0  0  0  0
    2.6707    0.7533   10.8892 C   0  0  0  0  0  0  0  0  0  0  0  0
    3.7309    0.5817   10.9860 H   0  0  0  0  0  0  0  0  0  0  0  0
    2.2175    1.8839   10.1947 C   0  0  0  0  0  0  0  0  0  0  0  0
    2.9143    2.5966    9.7774 H   0  0  0  0  0  0  0  0  0  0  0  0
  1  7  1  0  0  0  0
  1  2  1  1  0  0  0
  3  1  1  0  0  0  0
  4  5  1  0  0  0  0
  4 24  1  0  0  0  0
  6  1  1  0  0  0  0
  7 36  1  0  0  0  0
  7 23  1  0  0  0  0
  8  6  1  0  0  0  0
  8  9  2  0  0  0  0
  9  3  1  0  0  0  0
 10 11  1  0  0  0  0
 10  9  1  0  0  0  0
 12 10  2  0  0  0  0
 13 12  1  0  0  0  0
 14 16  1  0  0  0  0
 14 12  1  0  0  0  0
 15 14  1  0  0  0  0
 16  8  1  0  0  0  0
 17 19  1  0  0  0  0
 17 16  2  0  0  0  0
 18 17  1  0  0  0  0
 19 21  2  0  0  0  0
 20 19  1  0  0  0  0
 21 22  1  0  0  0  0
 21  6  1  0  0  0  0
 23 24  1  1  0  0  0
 23 31  1  0  0  0  0
 24 25  2  0  0  0  0
 25 27  1  0  0  0  0
 26 25  1  0  0  0  0
 27 29  2  0  0  0  0
 27 28  1  0  0  0  0
 29 30  1  0  0  0  0
 31 32  2  0  0  0  0
 31 29  1  0  0  0  0
 32 33  1  0  0  0  0
 34 35  1  0  0  0  0
 34 32  1  0  0  0  0
 36 34  2  0  0  0  0
 37 36  1  0  0  0  0
M  END
$$$$
