CSD_code = KUYMUO | q = 0 | S = 0 | Stoichiometry = C28H29Cl2N3OPd | MND = 4
 OpenBabel04212202063D

 64 68  0  0  0  0  0  0  0  0999 V2000
    5.0207   20.0465   10.3414 C   0  0  0  0  0  0  0  0  0  0  0  0
    4.3112   19.2820   10.0361 H   0  0  0  0  0  0  0  0  0  0  0  0
    5.7786   19.9493   11.4903 C   0  0  0  0  0  0  0  0  0  0  0  0
    5.6560   19.0919   12.1342 H   0  0  0  0  0  0  0  0  0  0  0  0
    6.7075   20.9308   11.8453 C   0  0  0  0  0  0  0  0  0  0  0  0
    7.2750   20.8070   12.7550 H   0  0  0  0  0  0  0  0  0  0  0  0
    6.9277   22.0545   11.0698 C   0  0  0  0  0  0  0  0  0  0  0  0
    7.6464   22.8093   11.3430 H   0  0  0  0  0  0  0  0  0  0  0  0
    6.1702   22.1589    9.9164 C   0  0  0  0  0  0  0  0  0  0  0  0
    5.2323   21.1759    9.5594 C   0  0  0  0  0  0  0  0  0  0  0  0
    5.2101   22.7042    8.0817 C   0  0  0  0  0  3  0  0  0  0  0  0
    4.9971   23.3174    7.2243 H   0  0  0  0  0  0  0  0  0  0  0  0
    1.3721   19.5782    7.3788 C   0  0  0  0  0  0  0  0  0  0  0  0
   -0.1625   17.9804    7.2026 C   0  0  0  0  0  0  0  0  0  0  0  0
   -0.6299   17.0370    7.3980 H   0  0  0  0  0  0  0  0  0  0  0  0
   -0.5625   19.0227    6.4386 C   0  0  0  0  0  0  0  0  0  0  0  0
   -1.4223   19.1382    5.8112 H   0  0  0  0  0  0  0  0  0  0  0  0
    0.3010   21.3034    5.9944 C   0  0  0  0  0  0  0  0  0  0  0  0
   -0.7392   22.1393    6.4125 C   0  0  0  0  0  0  0  0  0  0  0  0
   -0.8484   23.3951    5.8405 C   0  0  0  0  0  0  0  0  0  0  0  0
   -1.6442   24.0509    6.1626 H   0  0  0  0  0  0  0  0  0  0  0  0
    0.0551   23.8422    4.8858 C   0  0  0  0  0  0  0  0  0  0  0  0
    1.0981   23.0083    4.5192 C   0  0  0  0  0  0  0  0  0  0  0  0
    1.8255   23.3526    3.7977 H   0  0  0  0  0  0  0  0  0  0  0  0
    1.2453   21.7388    5.0638 C   0  0  0  0  0  0  0  0  0  0  0  0
   -1.6648   21.7256    7.5158 C   0  0  0  0  0  0  0  0  0  0  0  0
   -2.2810   20.8715    7.2397 H   0  0  0  0  0  0  0  0  0  0  0  0
   -2.3195   22.5500    7.7842 H   0  0  0  0  0  0  0  0  0  0  0  0
   -1.0736   21.4575    8.3911 H   0  0  0  0  0  0  0  0  0  0  0  0
   -0.0762   25.2162    4.3033 C   0  0  0  0  0  0  0  0  0  0  0  0
    0.3325   25.9509    4.9973 H   0  0  0  0  0  0  0  0  0  0  0  0
   -1.1212   25.4649    4.1314 H   0  0  0  0  0  0  0  0  0  0  0  0
    0.4663   25.2961    3.3645 H   0  0  0  0  0  0  0  0  0  0  0  0
    2.4196   20.8932    4.6686 C   0  0  0  0  0  0  0  0  0  0  0  0
    3.2364   21.0272    5.4054 H   0  0  0  0  0  0  0  0  0  0  0  0
    2.7971   21.1966    3.6946 H   0  0  0  0  0  0  0  0  0  0  0  0
    2.1654   19.8333    4.6341 H   0  0  0  0  0  0  0  0  0  0  0  0
    1.8080   17.5320    8.6514 C   0  0  0  0  0  0  0  0  0  0  0  0
    1.9659   17.9241    9.9839 C   0  0  0  0  0  0  0  0  0  0  0  0
    2.7339   17.1247   10.8183 C   0  0  0  0  0  0  0  0  0  0  0  0
    2.8668   17.4193   11.8500 H   0  0  0  0  0  0  0  0  0  0  0  0
    3.3375   15.9621   10.3594 C   0  0  0  0  0  0  0  0  0  0  0  0
    3.1629   15.6012    9.0328 C   0  0  0  0  0  0  0  0  0  0  0  0
    3.6413   14.7083    8.6579 H   0  0  0  0  0  0  0  0  0  0  0  0
    2.4081   16.3715    8.1605 C   0  0  0  0  0  0  0  0  0  0  0  0
    1.3309   19.1777   10.5093 C   0  0  0  0  0  0  0  0  0  0  0  0
    1.3881   19.2071   11.5944 H   0  0  0  0  0  0  0  0  0  0  0  0
    0.2844   19.2412   10.2116 H   0  0  0  0  0  0  0  0  0  0  0  0
    1.8448   20.0692   10.1144 H   0  0  0  0  0  0  0  0  0  0  0  0
    4.1607   15.1253   11.2907 C   0  0  0  0  0  0  0  0  0  0  0  0
    4.9483   15.7248   11.7443 H   0  0  0  0  0  0  0  0  0  0  0  0
    4.6184   14.2924   10.7640 H   0  0  0  0  0  0  0  0  0  0  0  0
    3.5388   14.7296   12.0933 H   0  0  0  0  0  0  0  0  0  0  0  0
    2.3154   16.0072    6.7122 C   0  0  0  0  0  0  0  0  0  0  0  0
    1.2855   15.9495    6.3660 H   0  0  0  0  0  0  0  0  0  0  0  0
    2.8004   15.0527    6.5287 H   0  0  0  0  0  0  0  0  0  0  0  0
    2.8313   16.7742    6.1337 H   0  0  0  0  0  0  0  0  0  0  0  0
    1.7862   22.3370    8.6352 Cl  0  0  0  0  0  0  0  0  0  0  0  0
    4.2878   18.8476    7.0268 Cl  0  0  0  0  0  0  0  0  0  0  0  0
    4.6531   21.5780    8.3756 N   0  0  0  0  0  0  0  0  0  0  0  0
    1.0291   18.3416    7.7778 N   0  0  0  0  0  0  0  0  0  0  0  0
    0.3934   19.9994    6.5591 N   0  0  0  0  0  0  0  0  0  0  0  0
    6.1385   23.1206    8.9535 O   0  0  0  0  0  0  0  0  0  0  0  0
    2.9843   20.5492    7.8339 Pd  0  0  0  0  0  0  0  0  0  0  0  0
  1  3  1  0  0  0  0
  2  1  1  0  0  0  0
  3  5  2  0  0  0  0
  3  4  1  0  0  0  0
  5  6  1  0  0  0  0
  7  8  1  0  0  0  0
  7  5  1  0  0  0  0
  9  7  2  0  0  0  0
 10  9  1  0  0  0  0
 10  1  2  0  0  0  0
 11 60  1  0  0  0  0
 11 63  1  0  0  0  0
 12 11  1  0  0  0  0
 13 61  1  0  0  0  0
 13 64  2  0  0  0  0
 14 15  1  0  0  0  0
 14 61  1  0  0  0  0
 16 62  1  0  0  0  0
 16 14  2  0  0  0  0
 17 16  1  0  0  0  0
 18 19  1  0  0  0  0
 18 62  1  0  0  0  0
 19 26  1  0  0  0  0
 20 21  1  0  0  0  0
 20 19  2  0  0  0  0
 22 20  1  0  0  0  0
 23 22  2  0  0  0  0
 23 25  1  0  0  0  0
 24 23  1  0  0  0  0
 25 18  2  0  0  0  0
 26 28  1  0  0  0  0
 26 29  1  0  0  0  0
 27 26  1  0  0  0  0
 30 22  1  0  0  0  0
 30 31  1  0  0  0  0
 32 30  1  0  0  0  0
 33 30  1  0  0  0  0
 34 25  1  0  0  0  0
 34 35  1  0  0  0  0
 36 34  1  0  0  0  0
 37 34  1  0  0  0  0
 38 39  1  0  0  0  0
 39 46  1  0  0  0  0
 39 40  2  0  0  0  0
 40 41  1  0  0  0  0
 42 40  1  0  0  0  0
 42 50  1  0  0  0  0
 43 42  2  0  0  0  0
 44 43  1  0  0  0  0
 45 38  2  0  0  0  0
 45 43  1  0  0  0  0
 46 47  1  0  0  0  0
 48 46  1  0  0  0  0
 49 46  1  0  0  0  0
 50 51  1  0  0  0  0
 50 53  1  0  0  0  0
 52 50  1  0  0  0  0
 54 45  1  0  0  0  0
 55 54  1  0  0  0  0
 56 54  1  0  0  0  0
 57 54  1  0  0  0  0
 59 64  1  0  0  0  0
 60 10  1  0  0  0  0
 61 38  1  0  0  0  0
 62 13  1  0  0  0  0
 63  9  1  0  0  0  0
 64 60  1  0  0  0  0
 64 58  1  0  0  0  0
M  END
$$$$
