CSD_code = KUYMIC | q = 0 | S = 0 | Stoichiometry = C28H29Cl2N3PdS | MND = 4
 OpenBabel04212202063D

 64 68  0  0  0  0  0  0  0  0999 V2000
   11.7444    3.5109    3.7190 Pd  0  0  0  0  0  0  0  0  0  0  0  0
   10.6354    4.8942    2.2651 Cl  0  0  0  0  0  0  0  0  0  0  0  0
   12.8276    2.0093    5.0739 Cl  0  0  0  0  0  0  0  0  0  0  0  0
   11.9618    0.7964    0.0622 S   0  0  0  0  0  0  0  0  0  0  0  0
   12.1071    2.2976    2.1398 N   0  0  0  0  0  0  0  0  0  0  0  0
   10.1983    5.0885    5.6681 N   0  0  0  0  0  0  0  0  0  0  0  0
   12.3123    5.2311    6.0500 N   0  0  0  0  0  0  0  0  0  0  0  0
   14.4451    3.0552    2.0802 C   0  0  0  0  0  0  0  0  0  0  0  0
   14.3381    3.6299    2.9999 H   0  0  0  0  0  0  0  0  0  0  0  0
   15.6380    2.9831    1.3952 C   0  0  0  0  0  0  0  0  0  0  0  0
   16.4964    3.5238    1.7631 H   0  0  0  0  0  0  0  0  0  0  0  0
   15.7573    2.2173    0.2346 C   0  0  0  0  0  0  0  0  0  0  0  0
   16.7052    2.1805   -0.2806 H   0  0  0  0  0  0  0  0  0  0  0  0
   14.6891    1.5012   -0.2686 C   0  0  0  0  0  0  0  0  0  0  0  0
   14.7826    0.9071   -1.1637 H   0  0  0  0  0  0  0  0  0  0  0  0
   13.4847    1.5650    0.4142 C   0  0  0  0  0  0  0  0  0  0  0  0
   13.3569    2.3384    1.5827 C   0  0  0  0  0  0  0  0  0  0  0  0
   11.2967    1.5551    1.4721 C   0  0  0  0  0  3  0  0  0  0  0  0
   10.2640    1.4001    1.7361 H   0  0  0  0  0  0  0  0  0  0  0  0
   11.4024    4.6925    5.2212 C   0  0  0  0  0  0  0  0  0  0  0  0
   11.6815    5.9596    7.0253 C   0  0  0  0  0  0  0  0  0  0  0  0
   12.2202    6.4880    7.7851 H   0  0  0  0  0  0  0  0  0  0  0  0
   10.3529    5.8717    6.7838 C   0  0  0  0  0  0  0  0  0  0  0  0
    9.5183    6.2760    7.3189 H   0  0  0  0  0  0  0  0  0  0  0  0
    8.9610    4.8364    5.0098 C   0  0  0  0  0  0  0  0  0  0  0  0
    8.2729    5.9154    4.4458 C   0  0  0  0  0  0  0  0  0  0  0  0
    7.0587    5.6732    3.8271 C   0  0  0  0  0  0  0  0  0  0  0  0
    6.5226    6.4985    3.3816 H   0  0  0  0  0  0  0  0  0  0  0  0
    6.5273    4.3932    3.7397 C   0  0  0  0  0  0  0  0  0  0  0  0
    7.2478    3.3387    4.2745 C   0  0  0  0  0  0  0  0  0  0  0  0
    6.8600    2.3331    4.1917 H   0  0  0  0  0  0  0  0  0  0  0  0
    8.4684    3.5350    4.9086 C   0  0  0  0  0  0  0  0  0  0  0  0
    8.8713    7.2889    4.4318 C   0  0  0  0  0  0  0  0  0  0  0  0
    9.0001    7.6934    5.4344 H   0  0  0  0  0  0  0  0  0  0  0  0
    8.2403    7.9673    3.8647 H   0  0  0  0  0  0  0  0  0  0  0  0
    9.8476    7.2435    3.9494 H   0  0  0  0  0  0  0  0  0  0  0  0
    5.2196    4.1653    3.0453 C   0  0  0  0  0  0  0  0  0  0  0  0
    4.4853    4.9060    3.3562 H   0  0  0  0  0  0  0  0  0  0  0  0
    4.8315    3.1724    3.2580 H   0  0  0  0  0  0  0  0  0  0  0  0
    5.3518    4.2591    1.9675 H   0  0  0  0  0  0  0  0  0  0  0  0
    9.2313    2.3561    5.4359 C   0  0  0  0  0  0  0  0  0  0  0  0
    9.9862    2.0376    4.6911 H   0  0  0  0  0  0  0  0  0  0  0  0
    8.5625    1.5166    5.6127 H   0  0  0  0  0  0  0  0  0  0  0  0
    9.7538    2.5924    6.3632 H   0  0  0  0  0  0  0  0  0  0  0  0
   13.7169    5.0487    5.9114 C   0  0  0  0  0  0  0  0  0  0  0  0
   14.3660    5.6137    4.8110 C   0  0  0  0  0  0  0  0  0  0  0  0
   15.7318    5.4030    4.6721 C   0  0  0  0  0  0  0  0  0  0  0  0
   16.2418    5.8316    3.8207 H   0  0  0  0  0  0  0  0  0  0  0  0
   16.4478    4.6548    5.5932 C   0  0  0  0  0  0  0  0  0  0  0  0
   15.7757    4.1165    6.6820 C   0  0  0  0  0  0  0  0  0  0  0  0
   16.3233    3.5237    7.3998 H   0  0  0  0  0  0  0  0  0  0  0  0
   14.4135    4.2964    6.8599 C   0  0  0  0  0  0  0  0  0  0  0  0
   13.6186    6.4320    3.7995 C   0  0  0  0  0  0  0  0  0  0  0  0
   12.9770    5.7924    3.1747 H   0  0  0  0  0  0  0  0  0  0  0  0
   14.3126    6.9552    3.1466 H   0  0  0  0  0  0  0  0  0  0  0  0
   12.9772    7.1653    4.2881 H   0  0  0  0  0  0  0  0  0  0  0  0
   17.9134    4.4043    5.4099 C   0  0  0  0  0  0  0  0  0  0  0  0
   18.0710    3.3878    5.0491 H   0  0  0  0  0  0  0  0  0  0  0  0
   18.4435    4.5077    6.3543 H   0  0  0  0  0  0  0  0  0  0  0  0
   18.3414    5.0952    4.6877 H   0  0  0  0  0  0  0  0  0  0  0  0
   13.6993    3.6334    7.9951 C   0  0  0  0  0  0  0  0  0  0  0  0
   14.4093    3.1576    8.6654 H   0  0  0  0  0  0  0  0  0  0  0  0
   13.0431    2.8651    7.5849 H   0  0  0  0  0  0  0  0  0  0  0  0
   13.0931    4.3343    8.5653 H   0  0  0  0  0  0  0  0  0  0  0  0
  1  3  1  0  0  0  0
  1 20  2  0  0  0  0
  2  1  1  0  0  0  0
  4 16  1  0  0  0  0
  4 18  1  0  0  0  0
  5  1  1  0  0  0  0
  6 23  1  0  0  0  0
  7 21  1  0  0  0  0
  8  9  1  0  0  0  0
 10 11  1  0  0  0  0
 10  8  2  0  0  0  0
 12 10  1  0  0  0  0
 13 12  1  0  0  0  0
 14 12  2  0  0  0  0
 14 16  1  0  0  0  0
 15 14  1  0  0  0  0
 16 17  2  0  0  0  0
 17  8  1  0  0  0  0
 17  5  1  0  0  0  0
 18 19  1  0  0  0  0
 18  5  1  0  0  0  0
 20  6  1  0  0  0  0
 20  7  1  0  0  0  0
 21 22  1  0  0  0  0
 23 21  2  0  0  0  0
 23 24  1  0  0  0  0
 25  6  1  0  0  0  0
 26 25  2  0  0  0  0
 27 26  1  0  0  0  0
 28 27  1  0  0  0  0
 29 27  2  0  0  0  0
 29 30  1  0  0  0  0
 30 32  2  0  0  0  0
 31 30  1  0  0  0  0
 32 25  1  0  0  0  0
 32 41  1  0  0  0  0
 33 26  1  0  0  0  0
 33 34  1  0  0  0  0
 35 33  1  0  0  0  0
 36 33  1  0  0  0  0
 37 39  1  0  0  0  0
 37 38  1  0  0  0  0
 37 29  1  0  0  0  0
 40 37  1  0  0  0  0
 41 43  1  0  0  0  0
 41 44  1  0  0  0  0
 42 41  1  0  0  0  0
 45  7  1  0  0  0  0
 45 52  1  0  0  0  0
 46 45  2  0  0  0  0
 47 46  1  0  0  0  0
 47 49  2  0  0  0  0
 48 47  1  0  0  0  0
 49 50  1  0  0  0  0
 50 52  2  0  0  0  0
 50 51  1  0  0  0  0
 52 61  1  0  0  0  0
 53 56  1  0  0  0  0
 53 46  1  0  0  0  0
 54 53  1  0  0  0  0
 55 53  1  0  0  0  0
 57 49  1  0  0  0  0
 57 59  1  0  0  0  0
 58 57  1  0  0  0  0
 60 57  1  0  0  0  0
 61 64  1  0  0  0  0
 61 62  1  0  0  0  0
 63 61  1  0  0  0  0
M  END
$$$$
