CSD_code = KUYZAH | q = 0 | S = 0 | Stoichiometry = C21H39Br2FeNO2P2 | MND = 5
 OpenBabel04212202063D

 68 70  0  0  1  0  0  0  0  0999 V2000
    7.8539   10.0620   12.1357 Fe  0  0  0  0  0  0  0  0  0  0  0  0
    9.1938   10.9708   13.7657 Br  0  0  0  0  0  0  0  0  0  0  0  0
    7.6432   11.9094   10.7202 Br  0  0  0  0  0  0  0  0  0  0  0  0
    5.9093   10.4190   13.2275 P   0  0  0  0  0  4  0  0  0  0  0  0
    9.5314    9.3052   10.8616 P   0  0  0  0  0  4  0  0  0  0  0  0
    4.9617    9.3722   12.3426 O   0  0  0  0  0  0  0  0  0  0  0  0
    8.6295    8.5427    9.6955 O   0  0  0  0  0  0  0  0  0  0  0  0
    6.7930    8.9578   11.0177 N   0  0  0  0  0  0  0  0  0  0  0  0
    5.4780    8.7963   11.2462 C   0  0  1  0  0  3  0  0  0  0  0  0
    4.6565    8.0538   10.4145 C   0  0  0  0  0  0  0  0  0  0  0  0
    3.6120    7.9639   10.6584 H   0  0  0  0  0  0  0  0  0  0  0  0
    5.2072    7.4660    9.2873 C   0  0  0  0  0  0  0  0  0  0  0  0
    4.5920    6.8915    8.6149 H   0  0  0  0  0  0  0  0  0  0  0  0
    6.5600    7.6294    9.0349 C   0  0  0  0  0  0  0  0  0  0  0  0
    7.0410    7.1999    8.1731 H   0  0  0  0  0  0  0  0  0  0  0  0
    7.3148    8.3807    9.9191 C   0  0  0  0  0  0  0  0  0  0  0  0
    4.7848   11.9463   13.1842 C   0  0  0  0  0  0  0  0  0  0  0  0
    3.5580   11.8688   14.0907 C   0  0  0  0  0  0  0  0  0  0  0  0
    2.9445   12.7518   13.9118 H   0  0  0  0  0  0  0  0  0  0  0  0
    3.8223   11.8657   15.1436 H   0  0  0  0  0  0  0  0  0  0  0  0
    2.9566   10.9934   13.8584 H   0  0  0  0  0  0  0  0  0  0  0  0
    4.2728   12.1318   11.7531 C   0  0  0  0  0  0  0  0  0  0  0  0
    3.5828   11.3342   11.4824 H   0  0  0  0  0  0  0  0  0  0  0  0
    5.0794   12.1583   11.0284 H   0  0  0  0  0  0  0  0  0  0  0  0
    3.7408   13.0790   11.6857 H   0  0  0  0  0  0  0  0  0  0  0  0
    5.6690   13.1240   13.5946 C   0  0  0  0  0  0  0  0  0  0  0  0
    5.0817   14.0399   13.6214 H   0  0  0  0  0  0  0  0  0  0  0  0
    6.4781   13.2665   12.8831 H   0  0  0  0  0  0  0  0  0  0  0  0
    6.1039   12.9662   14.5797 H   0  0  0  0  0  0  0  0  0  0  0  0
    5.7294    9.5377   14.9066 C   0  0  0  0  0  0  0  0  0  0  0  0
    6.6994    8.3556   14.8079 C   0  0  0  0  0  0  0  0  0  0  0  0
    7.7267    8.7130   14.7615 H   0  0  0  0  0  0  0  0  0  0  0  0
    6.4775    7.7364   13.9362 H   0  0  0  0  0  0  0  0  0  0  0  0
    6.6198    7.7245   15.6920 H   0  0  0  0  0  0  0  0  0  0  0  0
    6.1991   10.4507   16.0360 C   0  0  0  0  0  0  0  0  0  0  0  0
    5.5088   11.2714   16.2092 H   0  0  0  0  0  0  0  0  0  0  0  0
    7.1810   10.8665   15.8174 H   0  0  0  0  0  0  0  0  0  0  0  0
    6.2748    9.8776   16.9595 H   0  0  0  0  0  0  0  0  0  0  0  0
    4.3337    8.9773   15.1867 C   0  0  0  0  0  0  0  0  0  0  0  0
    4.4118    8.1894   15.9356 H   0  0  0  0  0  0  0  0  0  0  0  0
    3.8959    8.5439   14.2902 H   0  0  0  0  0  0  0  0  0  0  0  0
    3.6602    9.7307   15.5780 H   0  0  0  0  0  0  0  0  0  0  0  0
   10.7887   10.1758    9.7490 C   0  0  0  0  0  0  0  0  0  0  0  0
   11.3304   11.3276   10.5970 C   0  0  0  0  0  0  0  0  0  0  0  0
   12.1057   11.8630   10.0526 H   0  0  0  0  0  0  0  0  0  0  0  0
   11.7558   10.9626   11.5310 H   0  0  0  0  0  0  0  0  0  0  0  0
   10.5402   12.0351   10.8365 H   0  0  0  0  0  0  0  0  0  0  0  0
   11.9373    9.2831    9.2834 C   0  0  0  0  0  0  0  0  0  0  0  0
   12.5800    9.8680    8.6257 H   0  0  0  0  0  0  0  0  0  0  0  0
   11.5659    8.4338    8.7159 H   0  0  0  0  0  0  0  0  0  0  0  0
   12.5495    8.9344   10.1093 H   0  0  0  0  0  0  0  0  0  0  0  0
   10.0923   10.7110    8.4964 C   0  0  0  0  0  0  0  0  0  0  0  0
    9.2691   11.3746    8.7377 H   0  0  0  0  0  0  0  0  0  0  0  0
    9.7166    9.8939    7.8833 H   0  0  0  0  0  0  0  0  0  0  0  0
   10.8124   11.2769    7.9076 H   0  0  0  0  0  0  0  0  0  0  0  0
   10.3015    7.7537   11.6627 C   0  0  0  0  0  0  0  0  0  0  0  0
   11.4055    8.1535   12.6373 C   0  0  0  0  0  0  0  0  0  0  0  0
   11.7234    7.2823   13.2094 H   0  0  0  0  0  0  0  0  0  0  0  0
   11.0560    8.9087   13.3386 H   0  0  0  0  0  0  0  0  0  0  0  0
   12.2761    8.5497   12.1219 H   0  0  0  0  0  0  0  0  0  0  0  0
   10.7793    6.6778   10.6869 C   0  0  0  0  0  0  0  0  0  0  0  0
   10.1259    6.6163    9.8185 H   0  0  0  0  0  0  0  0  0  0  0  0
   10.7616    5.7100   11.1880 H   0  0  0  0  0  0  0  0  0  0  0  0
   11.7953    6.8529   10.3507 H   0  0  0  0  0  0  0  0  0  0  0  0
    9.1291    7.1773   12.4646 C   0  0  0  0  0  0  0  0  0  0  0  0
    8.3397    6.8093   11.8075 H   0  0  0  0  0  0  0  0  0  0  0  0
    8.7140    7.9405   13.1259 H   0  0  0  0  0  0  0  0  0  0  0  0
    9.4611    6.3471   13.0867 H   0  0  0  0  0  0  0  0  0  0  0  0
  1  4  1  0  0  0  0
  1  2  1  0  0  0  0
  3  1  1  0  0  0  0
  4 30  1  0  0  0  0
  5 56  1  0  0  0  0
  5  1  1  0  0  0  0
  6  4  1  0  0  0  0
  7 16  1  0  0  0  0
  7  5  1  0  0  0  0
  8  9  1  0  0  0  0
  8  1  1  0  0  0  0
  9 10  1  1  0  0  0
  9  6  1  0  0  0  0
 10 11  1  0  0  0  0
 12 10  2  0  0  0  0
 13 12  1  0  0  0  0
 14 12  1  0  0  0  0
 14 16  2  0  0  0  0
 15 14  1  0  0  0  0
 16  8  1  0  0  0  0
 17  4  1  0  0  0  0
 17 26  1  0  0  0  0
 17 18  1  0  0  0  0
 18 20  1  0  0  0  0
 19 18  1  0  0  0  0
 21 18  1  0  0  0  0
 22 17  1  0  0  0  0
 23 22  1  0  0  0  0
 24 22  1  0  0  0  0
 25 22  1  0  0  0  0
 26 27  1  0  0  0  0
 26 29  1  0  0  0  0
 28 26  1  0  0  0  0
 30 39  1  0  0  0  0
 30 35  1  0  0  0  0
 31 30  1  0  0  0  0
 31 34  1  0  0  0  0
 32 31  1  0  0  0  0
 33 31  1  0  0  0  0
 35 36  1  0  0  0  0
 35 38  1  0  0  0  0
 37 35  1  0  0  0  0
 39 42  1  0  0  0  0
 39 40  1  0  0  0  0
 41 39  1  0  0  0  0
 43 44  1  0  0  0  0
 43  5  1  0  0  0  0
 44 47  1  0  0  0  0
 44 46  1  0  0  0  0
 45 44  1  0  0  0  0
 48 43  1  0  0  0  0
 48 51  1  0  0  0  0
 49 48  1  0  0  0  0
 50 48  1  0  0  0  0
 52 53  1  0  0  0  0
 52 43  1  0  0  0  0
 54 52  1  0  0  0  0
 55 52  1  0  0  0  0
 56 65  1  0  0  0  0
 56 57  1  0  0  0  0
 57 58  1  0  0  0  0
 57 59  1  0  0  0  0
 60 57  1  0  0  0  0
 61 63  1  0  0  0  0
 61 56  1  0  0  0  0
 62 61  1  0  0  0  0
 64 61  1  0  0  0  0
 65 68  1  0  0  0  0
 65 67  1  0  0  0  0
 66 65  1  0  0  0  0
M  END
$$$$
