CSD_code = KUYZEL | q = 0 | S = 0 | Stoichiometry = C17H31Br2FeNO2P2 | MND = 5
 OpenBabel04212202063D

 56 58  0  0  1  0  0  0  0  0999 V2000
   11.4381   10.0112    2.9119 Fe  0  0  0  0  0  0  0  0  0  0  0  0
   10.4479    8.0034    2.5312 Br  0  0  0  0  0  0  0  0  0  0  0  0
   12.7392   10.1016    4.8364 Br  0  0  0  0  0  0  0  0  0  0  0  0
    9.7216   10.8813    3.9656 P   0  0  0  0  0  4  0  0  0  0  0  0
   13.1190    9.5515    1.5870 P   0  0  0  0  0  4  0  0  0  0  0  0
   10.0358   12.4972    3.6898 O   0  0  0  0  0  0  0  0  0  0  0  0
   13.6711   11.0837    1.2598 O   0  0  0  0  0  0  0  0  0  0  0  0
   11.8246   11.8002    2.4304 N   0  0  0  0  0  0  0  0  0  0  0  0
   11.0898   12.8160    2.9199 C   0  0  1  0  0  3  0  0  0  0  0  0
   11.3775   14.1443    2.6582 C   0  0  0  0  0  0  0  0  0  0  0  0
   10.7450   14.9068    3.0787 H   0  0  0  0  0  0  0  0  0  0  0  0
   12.4828   14.4435    1.8777 C   0  0  0  0  0  0  0  0  0  0  0  0
   12.7359   15.4678    1.6603 H   0  0  0  0  0  0  0  0  0  0  0  0
   13.2663   13.4084    1.3907 C   0  0  0  0  0  0  0  0  0  0  0  0
   14.1461   13.5832    0.7957 H   0  0  0  0  0  0  0  0  0  0  0  0
   12.9118   12.1070    1.6965 C   0  0  0  0  0  0  0  0  0  0  0  0
    9.5105   10.9811    5.8076 C   0  0  0  0  0  0  0  0  0  0  0  0
   10.4562   11.4301    6.1418 H   0  0  0  0  0  0  0  0  0  0  0  0
    8.3666   11.8930    6.2355 C   0  0  0  0  0  0  0  0  0  0  0  0
    7.3979   11.4444    6.0282 H   0  0  0  0  0  0  0  0  0  0  0  0
    8.4292   12.8531    5.7259 H   0  0  0  0  0  0  0  0  0  0  0  0
    8.4310   12.0718    7.3074 H   0  0  0  0  0  0  0  0  0  0  0  0
    9.4142    9.5828    6.4085 C   0  0  0  0  0  0  0  0  0  0  0  0
    9.4154    9.6471    7.4946 H   0  0  0  0  0  0  0  0  0  0  0  0
   10.2701    8.9816    6.1075 H   0  0  0  0  0  0  0  0  0  0  0  0
    8.5083    9.0700    6.0955 H   0  0  0  0  0  0  0  0  0  0  0  0
    8.0094   10.8838    3.2227 C   0  0  0  0  0  0  0  0  0  0  0  0
    7.5261   11.7978    3.5901 H   0  0  0  0  0  0  0  0  0  0  0  0
    7.1894    9.6575    3.6000 C   0  0  0  0  0  0  0  0  0  0  0  0
    6.2559    9.6546    3.0388 H   0  0  0  0  0  0  0  0  0  0  0  0
    6.9436    9.6500    4.6585 H   0  0  0  0  0  0  0  0  0  0  0  0
    7.7295    8.7436    3.3613 H   0  0  0  0  0  0  0  0  0  0  0  0
    8.1605   10.9761    1.7055 C   0  0  0  0  0  0  0  0  0  0  0  0
    8.5556   10.0409    1.3102 H   0  0  0  0  0  0  0  0  0  0  0  0
    8.8246   11.7943    1.4208 H   0  0  0  0  0  0  0  0  0  0  0  0
    7.1932   11.1511    1.2377 H   0  0  0  0  0  0  0  0  0  0  0  0
   14.7516    8.7008    1.7764 C   0  0  0  0  0  0  0  0  0  0  0  0
   15.2788    8.8457    0.8258 H   0  0  0  0  0  0  0  0  0  0  0  0
   15.5959    9.3019    2.8938 C   0  0  0  0  0  0  0  0  0  0  0  0
   15.1599    9.1012    3.8684 H   0  0  0  0  0  0  0  0  0  0  0  0
   15.6888   10.3801    2.7743 H   0  0  0  0  0  0  0  0  0  0  0  0
   16.5938    8.8672    2.8695 H   0  0  0  0  0  0  0  0  0  0  0  0
   14.4731    7.2208    2.0191 C   0  0  0  0  0  0  0  0  0  0  0  0
   15.4069    6.6674    2.0972 H   0  0  0  0  0  0  0  0  0  0  0  0
   13.8825    6.7886    1.2121 H   0  0  0  0  0  0  0  0  0  0  0  0
   13.9237    7.0918    2.9506 H   0  0  0  0  0  0  0  0  0  0  0  0
   12.5482    9.0607   -0.1291 C   0  0  0  0  0  0  0  0  0  0  0  0
   12.1171    8.0580   -0.0311 H   0  0  0  0  0  0  0  0  0  0  0  0
   13.6459    9.0539   -1.1860 C   0  0  0  0  0  0  0  0  0  0  0  0
   13.1966    8.9740   -2.1750 H   0  0  0  0  0  0  0  0  0  0  0  0
   14.3204    8.2109   -1.0591 H   0  0  0  0  0  0  0  0  0  0  0  0
   14.2200    9.9791   -1.1478 H   0  0  0  0  0  0  0  0  0  0  0  0
   11.4346   10.0335   -0.5179 C   0  0  0  0  0  0  0  0  0  0  0  0
   11.8401   11.0288   -0.7011 H   0  0  0  0  0  0  0  0  0  0  0  0
   10.6850   10.1091    0.2749 H   0  0  0  0  0  0  0  0  0  0  0  0
   10.9313    9.6984   -1.4228 H   0  0  0  0  0  0  0  0  0  0  0  0
  1  4  1  0  0  0  0
  1  3  1  0  0  0  0
  2  1  1  0  0  0  0
  4 17  1  0  0  0  0
  5 37  1  0  0  0  0
  5  1  1  0  0  0  0
  6  4  1  0  0  0  0
  7  5  1  0  0  0  0
  7 16  1  0  0  0  0
  8  1  1  0  0  0  0
  8  9  1  0  0  0  0
  9 10  1  6  0  0  0
  9  6  1  0  0  0  0
 10 11  1  0  0  0  0
 12 10  2  0  0  0  0
 13 12  1  0  0  0  0
 14 16  2  0  0  0  0
 14 12  1  0  0  0  0
 15 14  1  0  0  0  0
 16  8  1  0  0  0  0
 17 18  1  0  0  0  0
 17 19  1  0  0  0  0
 17 23  1  0  0  0  0
 19 22  1  0  0  0  0
 20 19  1  0  0  0  0
 21 19  1  0  0  0  0
 23 24  1  0  0  0  0
 25 23  1  0  0  0  0
 26 23  1  0  0  0  0
 27 28  1  0  0  0  0
 27 29  1  0  0  0  0
 27  4  1  0  0  0  0
 29 31  1  0  0  0  0
 30 29  1  0  0  0  0
 32 29  1  0  0  0  0
 33 27  1  0  0  0  0
 34 33  1  0  0  0  0
 35 33  1  0  0  0  0
 36 33  1  0  0  0  0
 37 43  1  0  0  0  0
 37 39  1  0  0  0  0
 38 37  1  0  0  0  0
 39 40  1  0  0  0  0
 41 39  1  0  0  0  0
 42 39  1  0  0  0  0
 43 44  1  0  0  0  0
 43 46  1  0  0  0  0
 45 43  1  0  0  0  0
 47 48  1  0  0  0  0
 47  5  1  0  0  0  0
 49 52  1  0  0  0  0
 49 51  1  0  0  0  0
 49 47  1  0  0  0  0
 50 49  1  0  0  0  0
 53 47  1  0  0  0  0
 53 55  1  0  0  0  0
 54 53  1  0  0  0  0
 56 53  1  0  0  0  0
M  END
$$$$
