CSD_code = KUYZUB | q = 0 | S = 0 | Stoichiometry = C17H31I2NNiO2P2 | MND = 5
 OpenBabel04212202063D

 56 58  0  0  1  0  0  0  0  0999 V2000
    3.3299    0.3239    3.8328 Ni  0  0  0  0  0  0  0  0  0  0  0  0
    4.4240    2.5552    4.0029 I   0  0  0  0  0  0  0  0  0  0  0  0
    1.7989    0.1750    1.6781 I   0  0  0  0  0  0  0  0  0  0  0  0
    1.6893    0.9380    5.0590 P   0  0  0  0  0  4  0  0  0  0  0  0
    4.9927   -0.7354    2.9603 P   0  0  0  0  0  4  0  0  0  0  0  0
    0.9770   -0.5133    5.4503 O   0  0  0  0  0  0  0  0  0  0  0  0
    4.5943   -2.3164    3.3455 O   0  0  0  0  0  0  0  0  0  0  0  0
    2.8208   -1.4886    4.5211 N   0  0  0  0  0  0  0  0  0  0  0  0
    1.6354   -1.6317    5.1093 C   0  0  2  0  0  3  0  0  0  0  0  0
    1.0864   -2.8851    5.3384 C   0  0  0  0  0  0  0  0  0  0  0  0
    0.1307   -2.9665    5.8265 H   0  0  0  0  0  0  0  0  0  0  0  0
    1.7943   -3.9920    4.8983 C   0  0  0  0  0  0  0  0  0  0  0  0
    1.3954   -4.9811    5.0585 H   0  0  0  0  0  0  0  0  0  0  0  0
    2.9936   -3.8347    4.2252 C   0  0  0  0  0  0  0  0  0  0  0  0
    3.5493   -4.6672    3.8297 H   0  0  0  0  0  0  0  0  0  0  0  0
    3.4702   -2.5433    4.0364 C   0  0  0  0  0  0  0  0  0  0  0  0
    0.2283    1.9415    4.5132 C   0  0  0  0  0  0  0  0  0  0  0  0
    0.1893    1.7968    3.4264 H   0  0  0  0  0  0  0  0  0  0  0  0
   -1.1018    1.4633    5.0850 C   0  0  0  0  0  0  0  0  0  0  0  0
   -1.1688    1.6123    6.1585 H   0  0  0  0  0  0  0  0  0  0  0  0
   -1.2609    0.4095    4.8677 H   0  0  0  0  0  0  0  0  0  0  0  0
   -1.9034    2.0282    4.6126 H   0  0  0  0  0  0  0  0  0  0  0  0
    0.4946    3.4213    4.7729 C   0  0  0  0  0  0  0  0  0  0  0  0
   -0.2706    4.0163    4.2782 H   0  0  0  0  0  0  0  0  0  0  0  0
    1.4609    3.7186    4.3683 H   0  0  0  0  0  0  0  0  0  0  0  0
    0.4734    3.6587    5.8342 H   0  0  0  0  0  0  0  0  0  0  0  0
    2.1897    1.4992    6.7659 C   0  0  0  0  0  0  0  0  0  0  0  0
    2.5735    2.5184    6.6489 H   0  0  0  0  0  0  0  0  0  0  0  0
    3.3278    0.5933    7.2318 C   0  0  0  0  0  0  0  0  0  0  0  0
    3.7806    0.9848    8.1409 H   0  0  0  0  0  0  0  0  0  0  0  0
    4.1120    0.5281    6.4745 H   0  0  0  0  0  0  0  0  0  0  0  0
    2.9614   -0.4139    7.4401 H   0  0  0  0  0  0  0  0  0  0  0  0
    1.0518    1.4812    7.7782 C   0  0  0  0  0  0  0  0  0  0  0  0
    0.5353    0.5223    7.7665 H   0  0  0  0  0  0  0  0  0  0  0  0
    0.3314    2.2723    7.5904 H   0  0  0  0  0  0  0  0  0  0  0  0
    1.4595    1.6344    8.7770 H   0  0  0  0  0  0  0  0  0  0  0  0
    5.2507   -0.9493    1.1391 C   0  0  0  0  0  0  0  0  0  0  0  0
    4.2893   -1.3497    0.7881 H   0  0  0  0  0  0  0  0  0  0  0  0
    6.3386   -1.9621    0.8042 C   0  0  0  0  0  0  0  0  0  0  0  0
    6.2979   -2.1851   -0.2606 H   0  0  0  0  0  0  0  0  0  0  0  0
    6.1873   -2.8917    1.3511 H   0  0  0  0  0  0  0  0  0  0  0  0
    7.3311   -1.5784    1.0274 H   0  0  0  0  0  0  0  0  0  0  0  0
    5.4679    0.4054    0.4735 C   0  0  0  0  0  0  0  0  0  0  0  0
    6.4238    0.8436    0.7474 H   0  0  0  0  0  0  0  0  0  0  0  0
    4.6812    1.1024    0.7580 H   0  0  0  0  0  0  0  0  0  0  0  0
    5.4371    0.2924   -0.6080 H   0  0  0  0  0  0  0  0  0  0  0  0
    6.6763   -0.7718    3.7553 C   0  0  0  0  0  0  0  0  0  0  0  0
    7.0787   -1.7563    3.4808 H   0  0  0  0  0  0  0  0  0  0  0  0
    6.5050   -0.7115    5.2712 C   0  0  0  0  0  0  0  0  0  0  0  0
    7.4505   -0.9265    5.7668 H   0  0  0  0  0  0  0  0  0  0  0  0
    5.7723   -1.4418    5.6213 H   0  0  0  0  0  0  0  0  0  0  0  0
    6.1941    0.2880    5.5743 H   0  0  0  0  0  0  0  0  0  0  0  0
    7.6154    0.3310    3.2874 C   0  0  0  0  0  0  0  0  0  0  0  0
    7.1652    1.3128    3.4179 H   0  0  0  0  0  0  0  0  0  0  0  0
    7.8899    0.2116    2.2430 H   0  0  0  0  0  0  0  0  0  0  0  0
    8.5296    0.2991    3.8788 H   0  0  0  0  0  0  0  0  0  0  0  0
  1  2  1  0  0  0  0
  1  8  1  0  0  0  0
  1  4  1  0  0  0  0
  3  1  1  0  0  0  0
  4  6  1  0  0  0  0
  4 27  1  0  0  0  0
  5  7  1  0  0  0  0
  5 47  1  0  0  0  0
  5  1  1  0  0  0  0
  7 16  1  0  0  0  0
  8  9  1  0  0  0  0
  9 10  1  6  0  0  0
  9  6  1  0  0  0  0
 10 11  1  0  0  0  0
 12 13  1  0  0  0  0
 12 10  2  0  0  0  0
 14 12  1  0  0  0  0
 15 14  1  0  0  0  0
 16 14  2  0  0  0  0
 16  8  1  0  0  0  0
 17 23  1  0  0  0  0
 17  4  1  0  0  0  0
 17 19  1  0  0  0  0
 18 17  1  0  0  0  0
 19 20  1  0  0  0  0
 21 19  1  0  0  0  0
 22 19  1  0  0  0  0
 23 26  1  0  0  0  0
 24 23  1  0  0  0  0
 25 23  1  0  0  0  0
 27 29  1  0  0  0  0
 27 33  1  0  0  0  0
 28 27  1  0  0  0  0
 29 32  1  0  0  0  0
 29 30  1  0  0  0  0
 31 29  1  0  0  0  0
 33 36  1  0  0  0  0
 34 33  1  0  0  0  0
 35 33  1  0  0  0  0
 37  5  1  0  0  0  0
 38 37  1  0  0  0  0
 39 42  1  0  0  0  0
 39 37  1  0  0  0  0
 39 41  1  0  0  0  0
 40 39  1  0  0  0  0
 43 44  1  0  0  0  0
 43 45  1  0  0  0  0
 43 37  1  0  0  0  0
 46 43  1  0  0  0  0
 47 49  1  0  0  0  0
 48 47  1  0  0  0  0
 49 52  1  0  0  0  0
 49 51  1  0  0  0  0
 49 50  1  0  0  0  0
 53 54  1  0  0  0  0
 53 47  1  0  0  0  0
 53 56  1  0  0  0  0
 55 53  1  0  0  0  0
M  END
$$$$
