CSD_code = KUZBAK | q = 0 | S = 0 | Stoichiometry = C17H31I2NO2P2Zn | MND = 5
 OpenBabel04212202063D

 56 57  0  0  0  0  0  0  0  0999 V2000
    3.1468    0.7215    3.6348 Zn  0  0  0  0  0  0  0  0  0  0  0  0
    4.3580    2.8756    4.2950 I   0  0  0  0  0  0  0  0  0  0  0  0
    1.7910    0.0431    1.5975 I   0  0  0  0  0  0  0  0  0  0  0  0
    1.4735    0.8115    5.6155 P   0  0  0  0  0  4  0  0  0  0  0  0
    5.2727   -0.6684    3.0593 P   0  0  0  0  0  4  0  0  0  0  0  0
    1.1095   -0.7802    5.8687 O   0  0  0  0  0  0  0  0  0  0  0  0
    4.7905   -2.1993    3.4736 O   0  0  0  0  0  0  0  0  0  0  0  0
    2.9598   -1.4709    4.6756 N   0  0  0  0  0  4  0  0  0  0  0  0
    1.8397   -1.7676    5.3307 C   0  0  0  0  0  0  0  0  0  0  0  0
    1.3826   -3.0702    5.4946 C   0  0  0  0  0  3  0  0  0  0  0  0
    0.4654   -3.2405    6.0319 H   0  0  0  0  0  0  0  0  0  0  0  0
    2.1260   -4.0982    4.9458 C   0  0  0  0  0  0  0  0  0  0  0  0
    1.7994   -5.1210    5.0479 H   0  0  0  0  0  0  0  0  0  0  0  0
    3.2867   -3.8015    4.2583 C   0  0  0  0  0  0  0  0  0  0  0  0
    3.9009   -4.5592    3.8030 H   0  0  0  0  0  0  0  0  0  0  0  0
    3.6631   -2.4667    4.1425 C   0  0  0  0  0  0  0  0  0  0  0  0
   -0.2740    1.4321    5.6303 C   0  0  0  0  0  0  0  0  0  0  0  0
   -0.7771    0.9951    6.5002 H   0  0  0  0  0  0  0  0  0  0  0  0
   -0.9801    0.9645    4.3603 C   0  0  0  0  0  0  0  0  0  0  0  0
   -2.0321    1.2417    4.3921 H   0  0  0  0  0  0  0  0  0  0  0  0
   -0.9183   -0.1174    4.2513 H   0  0  0  0  0  0  0  0  0  0  0  0
   -0.5393    1.4252    3.4784 H   0  0  0  0  0  0  0  0  0  0  0  0
   -0.2628    2.9542    5.7152 C   0  0  0  0  0  0  0  0  0  0  0  0
    0.3079    3.3765    4.8888 H   0  0  0  0  0  0  0  0  0  0  0  0
    0.1788    3.3032    6.6463 H   0  0  0  0  0  0  0  0  0  0  0  0
   -1.2790    3.3392    5.6531 H   0  0  0  0  0  0  0  0  0  0  0  0
    2.1311    1.2555    7.3055 C   0  0  0  0  0  0  0  0  0  0  0  0
    2.3554    2.3270    7.2640 H   0  0  0  0  0  0  0  0  0  0  0  0
    3.4388    0.4952    7.5159 C   0  0  0  0  0  0  0  0  0  0  0  0
    3.2580   -0.5790    7.5670 H   0  0  0  0  0  0  0  0  0  0  0  0
    3.9119    0.8046    8.4460 H   0  0  0  0  0  0  0  0  0  0  0  0
    4.1384    0.6900    6.7056 H   0  0  0  0  0  0  0  0  0  0  0  0
    1.1525    0.9689    8.4383 C   0  0  0  0  0  0  0  0  0  0  0  0
    0.2973    1.6392    8.4135 H   0  0  0  0  0  0  0  0  0  0  0  0
    1.6552    1.1047    9.3947 H   0  0  0  0  0  0  0  0  0  0  0  0
    0.7961   -0.0588    8.3858 H   0  0  0  0  0  0  0  0  0  0  0  0
    5.6140   -1.0428    1.2675 C   0  0  0  0  0  0  0  0  0  0  0  0
    4.6676   -1.4833    0.9212 H   0  0  0  0  0  0  0  0  0  0  0  0
    6.7231   -2.0624    1.0415 C   0  0  0  0  0  0  0  0  0  0  0  0
    6.7241   -2.3697   -0.0029 H   0  0  0  0  0  0  0  0  0  0  0  0
    6.5649   -2.9471    1.6557 H   0  0  0  0  0  0  0  0  0  0  0  0
    7.7007   -1.6442    1.2693 H   0  0  0  0  0  0  0  0  0  0  0  0
    5.8399    0.2522    0.4934 C   0  0  0  0  0  0  0  0  0  0  0  0
    6.7615    0.7442    0.7934 H   0  0  0  0  0  0  0  0  0  0  0  0
    5.0166    0.9468    0.6538 H   0  0  0  0  0  0  0  0  0  0  0  0
    5.8957    0.0418   -0.5728 H   0  0  0  0  0  0  0  0  0  0  0  0
    6.9148   -0.7142    3.9388 C   0  0  0  0  0  0  0  0  0  0  0  0
    7.3735   -1.6841    3.7114 H   0  0  0  0  0  0  0  0  0  0  0  0
    6.6472   -0.6221    5.4397 C   0  0  0  0  0  0  0  0  0  0  0  0
    6.2807    0.3705    5.6958 H   0  0  0  0  0  0  0  0  0  0  0  0
    7.5663   -0.7914    5.9980 H   0  0  0  0  0  0  0  0  0  0  0  0
    5.9158   -1.3646    5.7611 H   0  0  0  0  0  0  0  0  0  0  0  0
    7.8192    0.4286    3.4966 C   0  0  0  0  0  0  0  0  0  0  0  0
    7.3085    1.3848    3.5959 H   0  0  0  0  0  0  0  0  0  0  0  0
    8.1403    0.3116    2.4649 H   0  0  0  0  0  0  0  0  0  0  0  0
    8.7089    0.4566    4.1238 H   0  0  0  0  0  0  0  0  0  0  0  0
  1  2  1  0  0  0  0
  1  4  1  0  0  0  0
  3  1  1  0  0  0  0
  4 17  1  0  0  0  0
  4  6  1  0  0  0  0
  4 27  1  0  0  0  0
  5  7  1  0  0  0  0
  5  1  1  0  0  0  0
  5 47  1  0  0  0  0
  7 16  1  0  0  0  0
  8  9  2  0  0  0  0
  9 10  1  0  0  0  0
  9  6  1  0  0  0  0
 10 11  1  0  0  0  0
 12 13  1  0  0  0  0
 12 10  1  0  0  0  0
 14 12  2  0  0  0  0
 15 14  1  0  0  0  0
 16 14  1  0  0  0  0
 16  8  2  0  0  0  0
 17 23  1  0  0  0  0
 17 18  1  0  0  0  0
 19 20  1  0  0  0  0
 19 17  1  0  0  0  0
 21 19  1  0  0  0  0
 22 19  1  0  0  0  0
 23 25  1  0  0  0  0
 24 23  1  0  0  0  0
 26 23  1  0  0  0  0
 27 29  1  0  0  0  0
 27 33  1  0  0  0  0
 28 27  1  0  0  0  0
 29 30  1  0  0  0  0
 29 31  1  0  0  0  0
 32 29  1  0  0  0  0
 33 35  1  0  0  0  0
 34 33  1  0  0  0  0
 36 33  1  0  0  0  0
 37  5  1  0  0  0  0
 38 37  1  0  0  0  0
 39 37  1  0  0  0  0
 39 42  1  0  0  0  0
 39 41  1  0  0  0  0
 40 39  1  0  0  0  0
 43 45  1  0  0  0  0
 43 44  1  0  0  0  0
 43 37  1  0  0  0  0
 46 43  1  0  0  0  0
 47 49  1  0  0  0  0
 48 47  1  0  0  0  0
 49 50  1  0  0  0  0
 49 52  1  0  0  0  0
 49 51  1  0  0  0  0
 53 54  1  0  0  0  0
 53 47  1  0  0  0  0
 53 56  1  0  0  0  0
 55 53  1  0  0  0  0
M  END
$$$$
