CSD_code = KUZROM | q = 0 | S = 0 | Stoichiometry = C15H14Cl2N2PdS | MND = 4
 OpenBabel04212202063D

 35 38  0  0  0  0  0  0  0  0999 V2000
   -1.0794    2.6807    6.4836 Pd  0  0  2  0  0  0  0  0  0  0  0  0
   -1.2011    1.2636    8.5483 S   0  0  2  0  0  3  0  0  0  0  0  0
   -1.5083    4.6017    7.4879 Cl  0  0  0  0  0  0  0  0  0  0  0  0
   -5.5141    1.4976    7.8167 Cl  0  0  0  0  0  0  0  0  0  0  0  0
   -0.4354    1.0186    4.3201 N   0  0  0  0  0  0  0  0  0  0  0  0
   -0.7208    1.0131    5.5706 N   0  0  0  0  0  0  0  0  0  0  0  0
   -0.4198    2.2675    3.7898 C   0  0  0  0  0  0  0  0  0  0  0  0
   -0.7455    3.3715    4.6359 C   0  0  0  0  0  0  0  0  0  0  0  0
   -0.7291    4.6396    4.0920 C   0  0  0  0  0  0  0  0  0  0  0  0
   -0.4124    4.8473    2.7467 C   0  0  0  0  0  0  0  0  0  0  0  0
   -0.1023    3.7538    1.9356 C   0  0  0  0  0  0  0  0  0  0  0  0
   -0.1028    2.4745    2.4402 C   0  0  0  0  0  0  0  0  0  0  0  0
   -0.4070    6.2375    2.1980 C   0  0  0  0  0  0  0  0  0  0  0  0
   -0.8232   -0.2138    6.2089 C   0  0  0  0  0  0  0  0  0  0  0  0
   -0.7059   -1.4232    5.5125 C   0  0  0  0  0  0  0  0  0  0  0  0
   -0.8528   -2.6247    6.1721 C   0  0  0  0  0  0  0  0  0  0  0  0
   -1.1153   -2.6515    7.5353 C   0  0  0  0  0  0  0  0  0  0  0  0
   -1.2223   -1.4653    8.2406 C   0  0  0  0  0  0  0  0  0  0  0  0
   -1.0866   -0.2532    7.5866 C   0  0  0  0  0  0  0  0  0  0  0  0
   -3.0135    1.3028    8.8127 C   0  0  0  0  0  0  0  0  0  0  0  0
   -3.7515    1.6409    7.5307 C   0  0  0  0  0  0  0  0  0  0  0  0
   -0.9681    5.4952    4.7116 H   0  0  0  0  0  0  0  0  0  0  0  0
    0.1447    3.9197    0.8968 H   0  0  0  0  0  0  0  0  0  0  0  0
    0.1426    1.6241    1.8230 H   0  0  0  0  0  0  0  0  0  0  0  0
   -0.1567    6.2437    1.1403 H   0  0  0  0  0  0  0  0  0  0  0  0
   -1.3849    6.6985    2.3313 H   0  0  0  0  0  0  0  0  0  0  0  0
    0.3181    6.8489    2.7341 H   0  0  0  0  0  0  0  0  0  0  0  0
   -0.5034   -1.3779    4.4538 H   0  0  0  0  0  0  0  0  0  0  0  0
   -0.7614   -3.5496    5.6235 H   0  0  0  0  0  0  0  0  0  0  0  0
   -1.2268   -3.5934    8.0493 H   0  0  0  0  0  0  0  0  0  0  0  0
   -1.4059   -1.4726    9.3044 H   0  0  0  0  0  0  0  0  0  0  0  0
   -3.1786    2.0693    9.5702 H   0  0  0  0  0  0  0  0  0  0  0  0
   -3.3165    0.3293    9.2002 H   0  0  0  0  0  0  0  0  0  0  0  0
   -3.5550    2.6816    7.2159 H   0  0  0  0  0  0  0  0  0  0  0  0
   -3.5124    0.9310    6.7277 H   0  0  0  0  0  0  0  0  0  0  0  0
  1  3  1  6  0  0  0
  1  2  1  0  0  0  0
  2 20  1  6  0  0  0
  5  6  1  0  0  0  0
  6 14  1  0  0  0  0
  6  1  1  0  0  0  0
  7  5  2  0  0  0  0
  7  8  1  0  0  0  0
  8  1  2  0  0  0  0
  9  8  1  0  0  0  0
  9 22  1  0  0  0  0
 10  9  2  0  0  0  0
 11 12  2  0  0  0  0
 11 10  1  0  0  0  0
 12  7  1  0  0  0  0
 13 26  1  0  0  0  0
 13 27  1  0  0  0  0
 13 10  1  0  0  0  0
 14 19  1  0  0  0  0
 15 16  1  0  0  0  0
 15 14  2  0  0  0  0
 16 17  2  0  0  0  0
 17 30  1  0  0  0  0
 17 18  1  0  0  0  0
 18 31  1  0  0  0  0
 19 18  2  0  0  0  0
 19  2  1  0  0  0  0
 20 33  1  0  0  0  0
 20 32  1  0  0  0  0
 21  4  1  0  0  0  0
 21 20  1  0  0  0  0
 23 11  1  0  0  0  0
 24 12  1  0  0  0  0
 25 13  1  0  0  0  0
 28 15  1  0  0  0  0
 29 16  1  0  0  0  0
 34 21  1  0  0  0  0
 35 21  1  0  0  0  0
M  END
$$$$
