CSD_code = LABFAW | q = 0 | S = 0 | Stoichiometry = C21H30ClNPtS | MND = 6
 OpenBabel04212202063D

 55 57  0  0  0  0  0  0  0  0999 V2000
    5.6780    7.9119   14.8011 Pt  0  0  0  0  0  0  0  0  0  0  0  0
    4.4287    6.8216   12.9957 Cl  0  0  0  0  0  0  0  0  0  0  0  0
    3.7980    9.8361   14.5931 S   0  0  0  0  0  3  0  0  0  0  0  0
    6.9436    8.7093   13.1262 N   0  0  0  0  0  0  0  0  0  0  0  0
    4.5607    6.9185   16.2065 C   0  0  0  0  0  0  0  0  0  0  0  0
    4.4080    5.8954   15.8569 H   0  0  0  0  0  0  0  0  0  0  0  0
    3.5803    7.3914   16.2915 H   0  0  0  0  0  0  0  0  0  0  0  0
    5.0072    6.8828   17.2004 H   0  0  0  0  0  0  0  0  0  0  0  0
    6.6815    8.9814   16.2510 C   0  0  0  0  0  0  0  0  0  0  0  0
    7.7383    8.7198   16.3097 H   0  0  0  0  0  0  0  0  0  0  0  0
    6.2595    8.8722   17.2489 H   0  0  0  0  0  0  0  0  0  0  0  0
    6.6015   10.0303   15.9592 H   0  0  0  0  0  0  0  0  0  0  0  0
    7.1537    6.5334   14.8224 C   0  0  0  0  0  0  0  0  0  0  0  0
    7.4727    5.6372   15.8284 C   0  0  0  0  0  0  0  0  0  0  0  0
    6.9077    5.6102   16.7472 H   0  0  0  0  0  0  0  0  0  0  0  0
    8.5306    4.7541   15.6645 C   0  0  0  0  0  0  0  0  0  0  0  0
    8.7660    4.0532   16.4518 H   0  0  0  0  0  0  0  0  0  0  0  0
    9.2819    4.7702   14.5036 C   0  0  0  0  0  0  0  0  0  0  0  0
   10.1054    4.0833   14.3774 H   0  0  0  0  0  0  0  0  0  0  0  0
    8.9768    5.6746   13.5024 C   0  0  0  0  0  0  0  0  0  0  0  0
    9.5601    5.6962   12.5922 H   0  0  0  0  0  0  0  0  0  0  0  0
    7.9172    6.5571   13.6571 C   0  0  0  0  0  0  0  0  0  0  0  0
    7.5490    7.5258   12.5664 C   0  0  0  0  0  0  0  0  0  0  0  0
    6.7772    7.0464   11.9454 H   0  0  0  0  0  0  0  0  0  0  0  0
    8.4086    7.7686   11.9256 H   0  0  0  0  0  0  0  0  0  0  0  0
    7.1526    9.8244   12.5772 C   0  0  0  0  0  3  0  0  0  0  0  0
    7.8147    9.8969   11.7016 H   0  0  0  0  0  0  0  0  0  0  0  0
    6.5229   11.0824   13.0083 C   0  0  0  0  0  0  0  0  0  0  0  0
    7.1464   11.9120   13.9398 C   0  0  0  0  0  0  0  0  0  0  0  0
    6.5110   13.0847   14.3190 C   0  0  0  0  0  0  0  0  0  0  0  0
    6.9822   13.7244   15.0524 H   0  0  0  0  0  0  0  0  0  0  0  0
    5.2897   13.4567   13.7740 C   0  0  0  0  0  0  0  0  0  0  0  0
    4.7095   12.6360   12.8188 C   0  0  0  0  0  0  0  0  0  0  0  0
    3.7662   12.9203   12.3748 H   0  0  0  0  0  0  0  0  0  0  0  0
    5.3074   11.4486   12.4258 C   0  0  0  0  0  0  0  0  0  0  0  0
    8.5015   11.5735   14.4878 C   0  0  0  0  0  0  0  0  0  0  0  0
    8.6416   12.0153   15.4719 H   0  0  0  0  0  0  0  0  0  0  0  0
    9.2729   11.9742   13.8278 H   0  0  0  0  0  0  0  0  0  0  0  0
    8.6455   10.4986   14.5612 H   0  0  0  0  0  0  0  0  0  0  0  0
    4.6317   14.7334   14.2023 C   0  0  0  0  0  0  0  0  0  0  0  0
    3.6230   14.8047   13.8039 H   0  0  0  0  0  0  0  0  0  0  0  0
    5.2039   15.5895   13.8449 H   0  0  0  0  0  0  0  0  0  0  0  0
    4.5860   14.7956   15.2884 H   0  0  0  0  0  0  0  0  0  0  0  0
    4.6702   10.5610   11.4017 C   0  0  0  0  0  0  0  0  0  0  0  0
    3.7201   10.9726   11.0712 H   0  0  0  0  0  0  0  0  0  0  0  0
    4.4914    9.5666   11.8111 H   0  0  0  0  0  0  0  0  0  0  0  0
    5.3207   10.4482   10.5338 H   0  0  0  0  0  0  0  0  0  0  0  0
    3.4886   10.6148   16.2072 C   0  0  0  0  0  0  0  0  0  0  0  0
    4.3441   11.2468   16.4204 H   0  0  0  0  0  0  0  0  0  0  0  0
    3.3799    9.8599   16.9803 H   0  0  0  0  0  0  0  0  0  0  0  0
    2.5912   11.2219   16.1308 H   0  0  0  0  0  0  0  0  0  0  0  0
    2.2175    8.9759   14.3584 C   0  0  0  0  0  0  0  0  0  0  0  0
    2.3969    8.1945   13.6235 H   0  0  0  0  0  0  0  0  0  0  0  0
    1.4848    9.6881   13.9886 H   0  0  0  0  0  0  0  0  0  0  0  0
    1.8851    8.5372   15.2940 H   0  0  0  0  0  0  0  0  0  0  0  0
  1 13  1  0  0  0  0
  1  5  1  0  0  0  0
  1  9  1  0  0  0  0
  2  1  1  0  0  0  0
  3  1  1  0  0  0  0
  3 48  1  0  0  0  0
  4  1  1  0  0  0  0
  5  7  1  0  0  0  0
  5  8  1  0  0  0  0
  6  5  1  0  0  0  0
  9 10  1  0  0  0  0
  9 11  1  0  0  0  0
 12  9  1  0  0  0  0
 13 14  1  0  0  0  0
 14 15  1  0  0  0  0
 16 14  2  0  0  0  0
 16 17  1  0  0  0  0
 18 16  1  0  0  0  0
 19 18  1  0  0  0  0
 20 22  1  0  0  0  0
 20 18  2  0  0  0  0
 21 20  1  0  0  0  0
 22 13  2  0  0  0  0
 23  4  1  0  0  0  0
 23 22  1  0  0  0  0
 24 23  1  0  0  0  0
 25 23  1  0  0  0  0
 26 28  1  0  0  0  0
 26  4  1  0  0  0  0
 27 26  1  0  0  0  0
 28 29  1  0  0  0  0
 29 30  2  0  0  0  0
 29 36  1  0  0  0  0
 30 31  1  0  0  0  0
 32 40  1  0  0  0  0
 32 30  1  0  0  0  0
 33 32  2  0  0  0  0
 34 33  1  0  0  0  0
 35 33  1  0  0  0  0
 35 28  2  0  0  0  0
 36 39  1  0  0  0  0
 36 37  1  0  0  0  0
 38 36  1  0  0  0  0
 40 43  1  0  0  0  0
 41 40  1  0  0  0  0
 42 40  1  0  0  0  0
 44 46  1  0  0  0  0
 44 35  1  0  0  0  0
 45 44  1  0  0  0  0
 47 44  1  0  0  0  0
 48 49  1  0  0  0  0
 48 50  1  0  0  0  0
 51 48  1  0  0  0  0
 52  3  1  0  0  0  0
 52 55  1  0  0  0  0
 53 52  1  0  0  0  0
 54 52  1  0  0  0  0
M  END
$$$$
