CSD_code = LABKII | q = -1 | S = 0 | Stoichiometry = C4H10Br3OPtS(1-) | MND = 4
 OpenBabel04212202063D

 20 19  0  0  0  0  0  0  0  0999 V2000
    0.4072    3.1571    3.7528 Pt  0  0  0  0  0  0  0  0  0  0  0  0
    0.6647    1.1648    5.0916 Br  0  0  0  0  0  0  0  0  0  0  0  0
    0.1666    5.0590    2.2263 Br  0  0  0  0  0  0  0  0  0  0  0  0
    1.1055    4.5553    5.5542 Br  0  0  0  0  0  0  0  0  0  0  0  0
   -0.2123    1.8909    1.9760 S   0  0  0  0  0  0  0  0  0  0  0  0
   -0.4175    0.4591    2.1138 O   0  0  0  0  0  1  0  0  0  0  0  0
   -1.6784    2.4795    1.0104 C   0  0  0  0  0  0  0  0  0  0  0  0
   -2.0181    1.4830   -0.0738 C   0  0  0  0  0  0  0  0  0  0  0  0
    1.0911    2.0693    0.6844 C   0  0  0  0  0  0  0  0  0  0  0  0
    2.4297    1.8639    1.3669 C   0  0  0  0  0  0  0  0  0  0  0  0
   -1.4567    3.4715    0.6276 H   0  0  0  0  0  0  0  0  0  0  0  0
   -2.4821    2.5456    1.7449 H   0  0  0  0  0  0  0  0  0  0  0  0
   -3.0346    1.6329   -0.4345 H   0  0  0  0  0  0  0  0  0  0  0  0
   -1.3370    1.5744   -0.9175 H   0  0  0  0  0  0  0  0  0  0  0  0
   -1.9364    0.4766    0.3363 H   0  0  0  0  0  0  0  0  0  0  0  0
    1.0068    3.0631    0.2506 H   0  0  0  0  0  0  0  0  0  0  0  0
    0.8941    1.3003   -0.0585 H   0  0  0  0  0  0  0  0  0  0  0  0
    2.4581    0.8832    1.8403 H   0  0  0  0  0  0  0  0  0  0  0  0
    2.5770    2.6251    2.1407 H   0  0  0  0  0  0  0  0  0  0  0  0
    3.2541    1.9396    0.6593 H   0  0  0  0  0  0  0  0  0  0  0  0
  1  2  1  0  0  0  0
  1  4  1  0  0  0  0
  3  1  1  0  0  0  0
  5  6  1  0  0  0  0
  5  1  1  0  0  0  0
  7 12  1  0  0  0  0
  7  5  1  0  0  0  0
  8 15  1  0  0  0  0
  8  7  1  0  0  0  0
  9 10  1  0  0  0  0
  9  5  1  0  0  0  0
 10 18  1  0  0  0  0
 10 19  1  0  0  0  0
 11  7  1  0  0  0  0
 13  8  1  0  0  0  0
 14  8  1  0  0  0  0
 16  9  1  0  0  0  0
 17  9  1  0  0  0  0
 20 10  1  0  0  0  0
M  END
$$$$
