CSD_code = LABMEH | q = 0 | S = 0 | Stoichiometry = C7H10Br2N2PdS3 | MND = 4
 OpenBabel04212202063D

 25 26  0  0  0  0  0  0  0  0999 V2000
    6.4924    4.2718   14.2617 Pd  0  0  0  0  0  0  0  0  0  0  0  0
    6.4401    4.8487   16.5492 Br  0  0  0  0  0  0  0  0  0  0  0  0
    6.5872    6.5413   13.6257 Br  0  0  0  0  0  0  0  0  0  0  0  0
    6.5589    3.6789   11.9947 S   0  0  0  0  0  0  0  0  0  0  0  0
    6.5082    2.0096   12.1338 C   0  0  0  0  0  0  0  0  0  0  0  0
    6.4447    1.3008   13.3611 C   0  0  0  0  0  0  0  0  0  0  0  0
    6.4072    2.0134   14.8774 S   0  0  0  0  0  0  0  0  0  0  0  0
    6.5112    1.0812   11.1379 N   0  0  0  0  0  0  0  0  0  0  0  0
    6.4694   -0.1737   11.6914 C   0  0  0  0  0  0  0  0  0  0  0  0
    6.4712   -1.5946   10.8697 S   0  0  0  0  0  0  0  0  0  0  0  0
    6.4134   -0.0254   13.0544 N   0  0  0  0  0  0  0  0  0  0  0  0
    6.6096    1.3629    9.7250 C   0  0  0  0  0  0  0  0  0  0  0  0
    6.0468    2.2790    9.5292 H   0  0  0  0  0  0  0  0  0  0  0  0
    6.1485    0.5277    9.1930 H   0  0  0  0  0  0  0  0  0  0  0  0
    8.0635    1.5275    9.2981 C   0  0  0  0  0  0  0  0  0  0  0  0
    8.1060    1.7462    8.2357 H   0  0  0  0  0  0  0  0  0  0  0  0
    8.6185    0.6118    9.4877 H   0  0  0  0  0  0  0  0  0  0  0  0
    8.5323    2.3457    9.8399 H   0  0  0  0  0  0  0  0  0  0  0  0
    6.3924   -1.1070   14.0110 C   0  0  0  0  0  0  0  0  0  0  0  0
    5.7192   -0.8212   14.8234 H   0  0  0  0  0  0  0  0  0  0  0  0
    5.9960   -1.9859   13.4979 H   0  0  0  0  0  0  0  0  0  0  0  0
    7.7895   -1.3883   14.5512 C   0  0  0  0  0  0  0  0  0  0  0  0
    7.7432   -2.2031   15.2670 H   0  0  0  0  0  0  0  0  0  0  0  0
    8.1917   -0.5103   15.0513 H   0  0  0  0  0  0  0  0  0  0  0  0
    8.4577   -1.6731   13.7419 H   0  0  0  0  0  0  0  0  0  0  0  0
  1  7  1  0  0  0  0
  1  2  1  0  0  0  0
  3  1  1  0  0  0  0
  4  5  1  0  0  0  0
  4  1  1  0  0  0  0
  5  6  2  0  0  0  0
  6  7  1  0  0  0  0
  8  9  1  0  0  0  0
  8  5  1  0  0  0  0
  9 11  1  0  0  0  0
 10  9  2  0  0  0  0
 11  6  1  0  0  0  0
 11 19  1  0  0  0  0
 12  8  1  0  0  0  0
 13 12  1  0  0  0  0
 14 12  1  0  0  0  0
 15 17  1  0  0  0  0
 15 12  1  0  0  0  0
 15 18  1  0  0  0  0
 16 15  1  0  0  0  0
 19 22  1  0  0  0  0
 19 20  1  0  0  0  0
 21 19  1  0  0  0  0
 22 24  1  0  0  0  0
 22 23  1  0  0  0  0
 25 22  1  0  0  0  0
M  END
$$$$
