CSD_code = LABZEV | q = 1 | S = 0 | Stoichiometry = C15H39ClN6O3P3Pt(1+) | MND = 4
 OpenBabel04212202063D

 68 70  0  0  0  0  0  0  0  0999 V2000
    0.0310   -2.2370    2.1520 C   0  0  0  0  0  0  0  0  0  0  0  0
   -0.3733   -2.4802    3.1395 H   0  0  0  0  0  0  0  0  0  0  0  0
   -0.8015   -2.1915    1.4417 H   0  0  0  0  0  0  0  0  0  0  0  0
    0.7980   -0.9084    2.1677 C   0  0  0  0  0  0  0  0  0  0  0  0
    0.4469   -0.2555    1.3590 H   0  0  0  0  0  0  0  0  0  0  0  0
    0.6680   -0.3777    3.1144 H   0  0  0  0  0  0  0  0  0  0  0  0
    0.4215   -4.4889    1.2294 C   0  0  0  0  0  0  0  0  0  0  0  0
   -0.1419   -5.0094    2.0054 H   0  0  0  0  0  0  0  0  0  0  0  0
    1.2417   -5.1275    0.8965 H   0  0  0  0  0  0  0  0  0  0  0  0
   -0.2475   -4.2903    0.3854 H   0  0  0  0  0  0  0  0  0  0  0  0
    3.0594   -0.1035    1.6712 C   0  0  0  0  0  0  0  0  0  0  0  0
    2.7113    0.4277    0.7765 H   0  0  0  0  0  0  0  0  0  0  0  0
    4.0678   -0.4743    1.4949 H   0  0  0  0  0  0  0  0  0  0  0  0
    3.0724    0.5956    2.5083 H   0  0  0  0  0  0  0  0  0  0  0  0
    3.6287   -3.6530    3.1994 C   0  0  0  0  0  0  0  0  0  0  0  0
    4.3561   -2.9506    3.6051 H   0  0  0  0  0  0  0  0  0  0  0  0
    3.9517   -4.6748    3.3949 H   0  0  0  0  0  0  0  0  0  0  0  0
    2.6554   -3.4771    3.6579 H   0  0  0  0  0  0  0  0  0  0  0  0
    6.6521   -3.1642   -3.1040 C   0  0  0  0  0  0  0  0  0  0  0  0
    7.7398   -3.0459   -3.0549 H   0  0  0  0  0  0  0  0  0  0  0  0
    6.3402   -3.0383   -4.1446 H   0  0  0  0  0  0  0  0  0  0  0  0
    6.2169   -4.5311   -2.5647 C   0  0  0  0  0  0  0  0  0  0  0  0
    5.4559   -4.9783   -3.2172 H   0  0  0  0  0  0  0  0  0  0  0  0
    7.0588   -5.2248   -2.4962 H   0  0  0  0  0  0  0  0  0  0  0  0
    5.8473   -0.8418   -2.7995 C   0  0  0  0  0  0  0  0  0  0  0  0
    6.8165   -0.3656   -2.9598 H   0  0  0  0  0  0  0  0  0  0  0  0
    5.2771   -0.2504   -2.0812 H   0  0  0  0  0  0  0  0  0  0  0  0
    5.3081   -0.8688   -3.7517 H   0  0  0  0  0  0  0  0  0  0  0  0
    5.0363   -5.4309   -0.6078 C   0  0  0  0  0  0  0  0  0  0  0  0
    4.2721   -5.8787   -1.2538 H   0  0  0  0  0  0  0  0  0  0  0  0
    4.5698   -5.0915    0.3160 H   0  0  0  0  0  0  0  0  0  0  0  0
    5.7825   -6.1919   -0.3748 H   0  0  0  0  0  0  0  0  0  0  0  0
    6.7079   -2.1555    0.7055 C   0  0  0  0  0  0  0  0  0  0  0  0
    6.7762   -2.8557    1.5373 H   0  0  0  0  0  0  0  0  0  0  0  0
    6.9651   -1.1524    1.0443 H   0  0  0  0  0  0  0  0  0  0  0  0
    7.3870   -2.4627   -0.0900 H   0  0  0  0  0  0  0  0  0  0  0  0
    0.2002   -1.7961   -4.6317 C   0  0  0  0  0  0  0  0  0  0  0  0
   -0.0745   -1.5744   -5.6669 H   0  0  0  0  0  0  0  0  0  0  0  0
   -0.4192   -1.1779   -3.9723 H   0  0  0  0  0  0  0  0  0  0  0  0
    0.0117   -3.2836   -4.3014 C   0  0  0  0  0  0  0  0  0  0  0  0
   -0.7057   -3.4014   -3.4818 H   0  0  0  0  0  0  0  0  0  0  0  0
   -0.3572   -3.8451   -5.1645 H   0  0  0  0  0  0  0  0  0  0  0  0
    1.9281   -0.0786   -4.3342 C   0  0  0  0  0  0  0  0  0  0  0  0
    1.6925    0.4250   -5.2729 H   0  0  0  0  0  0  0  0  0  0  0  0
    2.9942    0.0267   -4.1325 H   0  0  0  0  0  0  0  0  0  0  0  0
    1.3641    0.4023   -3.5282 H   0  0  0  0  0  0  0  0  0  0  0  0
    1.2978   -5.0048   -3.1032 C   0  0  0  0  0  0  0  0  0  0  0  0
    0.6897   -4.8756   -2.1990 H   0  0  0  0  0  0  0  0  0  0  0  0
    2.3257   -5.2379   -2.8130 H   0  0  0  0  0  0  0  0  0  0  0  0
    0.8951   -5.8393   -3.6788 H   0  0  0  0  0  0  0  0  0  0  0  0
    3.8206   -3.2581   -5.5466 C   0  0  0  0  0  0  0  0  0  0  0  0
    2.8175   -3.4103   -5.9451 H   0  0  0  0  0  0  0  0  0  0  0  0
    4.4051   -4.1698   -5.6681 H   0  0  0  0  0  0  0  0  0  0  0  0
    4.3036   -2.4374   -6.0771 H   0  0  0  0  0  0  0  0  0  0  0  0
    0.9825   -3.2722    1.7763 N   0  0  0  0  0  0  0  0  0  0  0  0
    2.2105   -1.2304    2.0047 N   0  0  0  0  0  0  0  0  0  0  0  0
    6.0396   -2.1623   -2.2479 N   0  0  0  0  0  0  0  0  0  0  0  0
    5.6890   -4.2971   -1.2292 N   0  0  0  0  0  0  0  0  0  0  0  0
    1.6139   -1.4877   -4.4576 N   0  0  0  0  0  0  0  0  0  0  0  0
    1.3173   -3.8113   -3.9262 N   0  0  0  0  0  0  0  0  0  0  0  0
    3.5521   -3.4900    1.7823 O   0  0  0  0  0  0  0  0  0  0  0  0
    5.3588   -2.1308    0.2338 O   0  0  0  0  0  0  0  0  0  0  0  0
    3.7595   -2.9502   -4.1519 O   0  0  0  0  0  0  0  0  0  0  0  0
    2.3798   -2.6376    1.1093 P   0  0  0  0  0  4  0  0  0  0  0  0
    4.9424   -2.7958   -1.1571 P   0  0  0  0  0  4  0  0  0  0  0  0
    2.3603   -2.5901   -3.4470 P   0  0  0  0  0  4  0  0  0  0  0  0
    2.6708   -2.5176   -1.1746 Pt  0  0  0  0  0  0  0  0  0  0  0  0
    0.4399   -1.9674   -1.2144 Cl  0  0  0  0  0  0  0  0  0  0  0  0
  1  4  1  0  0  0  0
  1  2  1  0  0  0  0
  3  1  1  0  0  0  0
  4  6  1  0  0  0  0
  5  4  1  0  0  0  0
  7 55  1  0  0  0  0
  7  8  1  0  0  0  0
  9  7  1  0  0  0  0
 10  7  1  0  0  0  0
 11 56  1  0  0  0  0
 11 14  1  0  0  0  0
 12 11  1  0  0  0  0
 13 11  1  0  0  0  0
 15 17  1  0  0  0  0
 15 16  1  0  0  0  0
 15 18  1  0  0  0  0
 19 20  1  0  0  0  0
 19 22  1  0  0  0  0
 19 57  1  0  0  0  0
 21 19  1  0  0  0  0
 22 24  1  0  0  0  0
 22 58  1  0  0  0  0
 23 22  1  0  0  0  0
 25 57  1  0  0  0  0
 25 27  1  0  0  0  0
 26 25  1  0  0  0  0
 28 25  1  0  0  0  0
 29 32  1  0  0  0  0
 29 31  1  0  0  0  0
 30 29  1  0  0  0  0
 33 35  1  0  0  0  0
 33 34  1  0  0  0  0
 36 33  1  0  0  0  0
 37 59  1  0  0  0  0
 37 40  1  0  0  0  0
 37 39  1  0  0  0  0
 38 37  1  0  0  0  0
 40 60  1  0  0  0  0
 40 41  1  0  0  0  0
 42 40  1  0  0  0  0
 43 45  1  0  0  0  0
 43 46  1  0  0  0  0
 44 43  1  0  0  0  0
 47 49  1  0  0  0  0
 47 48  1  0  0  0  0
 50 47  1  0  0  0  0
 51 63  1  0  0  0  0
 52 51  1  0  0  0  0
 53 51  1  0  0  0  0
 54 51  1  0  0  0  0
 55  1  1  0  0  0  0
 56  4  1  0  0  0  0
 57 65  1  0  0  0  0
 58 65  1  0  0  0  0
 58 29  1  0  0  0  0
 59 43  1  0  0  0  0
 59 66  1  0  0  0  0
 60 66  1  0  0  0  0
 60 47  1  0  0  0  0
 61 15  1  0  0  0  0
 62 33  1  0  0  0  0
 63 66  1  0  0  0  0
 64 55  1  0  0  0  0
 64 61  1  0  0  0  0
 64 56  1  0  0  0  0
 65 62  1  0  0  0  0
 66 67  1  0  0  0  0
 67 65  1  0  0  0  0
 67 64  1  0  0  0  0
 68 67  1  0  0  0  0
M  END
$$$$
