CSD_code = LADFAA | q = 1 | S = 0 | Stoichiometry = C20H20ClN2Ru(1+) | MND = 9
 OpenBabel04212202063D

 44 46  0  0  1  0  0  0  0  0999 V2000
    7.2574   16.5115    2.2979 C   0  0  0  0  0  3  0  0  0  0  0  0
    6.2115   16.7749    2.2023 H   0  0  0  0  0  0  0  0  0  0  0  0
    8.2430   17.4614    2.1039 C   0  0  0  0  0  0  0  0  0  0  0  0
    7.9688   18.4770    1.8708 H   0  0  0  0  0  0  0  0  0  0  0  0
    9.5801   17.0835    2.1960 C   0  0  0  0  0  0  0  0  0  0  0  0
   10.3644   17.8047    2.0309 H   0  0  0  0  0  0  0  0  0  0  0  0
    9.8814   15.7698    2.4907 C   0  0  0  0  0  0  0  0  0  0  0  0
   10.9003   15.4247    2.5579 H   0  0  0  0  0  0  0  0  0  0  0  0
    8.8368   14.8625    2.6840 C   0  0  0  0  0  0  0  0  0  0  0  0
    8.9650   13.4824    3.0431 C   0  0  0  0  0  3  0  0  0  0  0  0
    9.9146   13.0295    3.3021 H   0  0  0  0  0  0  0  0  0  0  0  0
    7.7706   11.5673    3.7280 C   0  0  0  0  0  0  0  0  0  0  0  0
    7.8020   11.5196    5.1317 C   0  0  0  0  0  0  0  0  0  0  0  0
    7.6758   10.2868    5.7534 C   0  0  0  0  0  0  0  0  0  0  0  0
    7.6953   10.2371    6.8311 H   0  0  0  0  0  0  0  0  0  0  0  0
    7.5324    9.1284    5.0092 C   0  0  0  0  0  0  0  0  0  0  0  0
    7.4390    8.1772    5.5089 H   0  0  0  0  0  0  0  0  0  0  0  0
    7.5148    9.1884    3.6278 C   0  0  0  0  0  0  0  0  0  0  0  0
    7.4147    8.2826    3.0501 H   0  0  0  0  0  0  0  0  0  0  0  0
    7.6347   10.4017    2.9628 C   0  0  0  0  0  0  0  0  0  0  0  0
    7.9719   12.7710    5.9424 C   0  0  0  0  0  0  0  0  0  0  0  0
    7.5470   12.6385    6.9339 H   0  0  0  0  0  0  0  0  0  0  0  0
    7.4984   13.6328    5.4645 H   0  0  0  0  0  0  0  0  0  0  0  0
    9.0308   12.9972    6.0664 H   0  0  0  0  0  0  0  0  0  0  0  0
    7.6675   10.4633    1.4712 C   0  0  0  0  0  0  0  0  0  0  0  0
    7.2571    9.5552    1.0394 H   0  0  0  0  0  0  0  0  0  0  0  0
    8.6966   10.5645    1.1264 H   0  0  0  0  0  0  0  0  0  0  0  0
    7.1145   11.3248    1.0949 H   0  0  0  0  0  0  0  0  0  0  0  0
    4.5943   14.3884    4.0338 C   0  0  1  0  0  0  0  0  0  0  0  0
    4.6530   15.0555    4.8869 H   0  0  0  0  0  0  0  0  0  0  0  0
    4.1168   14.8791    2.7904 C   0  0  0  0  0  0  0  0  0  0  0  0
    3.8208   15.9178    2.7009 H   0  0  0  0  0  0  0  0  0  0  0  0
    3.9742   14.0136    1.7117 C   0  0  0  0  0  0  0  0  0  0  0  0
    3.5912   14.3745    0.7642 H   0  0  0  0  0  0  0  0  0  0  0  0
    4.2593   12.6282    1.8686 C   0  0  0  0  0  0  0  0  0  0  0  0
    4.0880   11.9546    1.0362 H   0  0  0  0  0  0  0  0  0  0  0  0
    4.6098   12.1207    3.1220 C   0  0  0  0  0  0  0  0  0  0  0  0
    4.6999   11.0517    3.2765 H   0  0  0  0  0  0  0  0  0  0  0  0
    4.8039   13.0070    4.2073 C   0  0  0  0  0  3  0  0  0  0  0  0
    5.0223   12.6087    5.1915 H   0  0  0  0  0  0  0  0  0  0  0  0
    7.5351   15.2449    2.5907 N   0  0  0  0  0  0  0  0  0  0  0  0
    7.8448   12.8331    3.1186 N   0  0  0  0  0  0  0  0  0  0  0  0
    6.9590   13.7145    0.3319 Cl  0  0  0  0  0 15  0  0  0  0  0  0
    6.2254   13.7347    2.5407 Ru  0  0  0  0  0  0  0  0  0  0  0  0
  1 41  1  0  0  0  0
  2  1  1  0  0  0  0
  3  5  2  0  0  0  0
  3  1  1  0  0  0  0
  4  3  1  0  0  0  0
  5  7  1  0  0  0  0
  6  5  1  0  0  0  0
  7  8  1  0  0  0  0
  7  9  2  0  0  0  0
  9 10  1  0  0  0  0
 10 42  1  0  0  0  0
 10 11  1  0  0  0  0
 12 13  1  0  0  0  0
 13 14  2  0  0  0  0
 13 21  1  0  0  0  0
 14 15  1  0  0  0  0
 16 17  1  0  0  0  0
 16 14  1  0  0  0  0
 18 16  2  0  0  0  0
 19 18  1  0  0  0  0
 20 18  1  0  0  0  0
 20 12  2  0  0  0  0
 21 24  1  0  0  0  0
 21 22  1  0  0  0  0
 23 21  1  0  0  0  0
 25 20  1  0  0  0  0
 26 25  1  0  0  0  0
 27 25  1  0  0  0  0
 28 25  1  0  0  0  0
 29 39  1  0  0  0  0
 29 30  1  1  0  0  0
 31 29  1  0  0  0  0
 32 31  1  0  0  0  0
 33 35  1  0  0  0  0
 33 31  2  0  0  0  0
 34 33  1  0  0  0  0
 35 37  2  0  0  0  0
 36 35  1  0  0  0  0
 37 38  1  0  0  0  0
 37 39  1  0  0  0  0
 39 40  1  0  0  0  0
 41  9  1  0  0  0  0
 42 12  1  0  0  0  0
 44 41  1  0  0  0  0
 44 42  1  0  0  0  0
 44 29  1  0  0  0  0
M  END
$$$$
