CSD_code = LADGED | q = 0 | S = 0 | Stoichiometry = C14H15ClN2Pd | MND = 4
 OpenBabel04212202063D

 33 36  0  0  0  0  0  0  0  0999 V2000
   14.5031   12.9159    9.8293 Pd  0  0  1  0  0  0  0  0  0  0  0  0
   15.7941   14.4052    8.8566 Cl  0  0  0  0  0  0  0  0  0  0  0  0
   13.2824   11.6997   10.6996 N   0  0  0  0  0  0  0  0  0  0  0  0
   12.6730   14.2967   10.2532 N   0  0  0  0  0  4  0  0  0  0  0  0
   12.8912   15.2831   10.3880 H   0  0  0  0  0  0  0  0  0  0  0  0
   11.9786   14.2211    9.5087 H   0  0  0  0  0  0  0  0  0  0  0  0
   15.5243   11.2388    9.4990 C   0  0  0  0  0  0  0  0  0  0  0  0
   16.7510   11.0503    8.8769 C   0  0  0  0  0  0  0  0  0  0  0  0
   17.3272   11.9074    8.5518 H   0  0  0  0  0  0  0  0  0  0  0  0
   17.2456    9.7701    8.6693 C   0  0  0  0  0  0  0  0  0  0  0  0
   18.2029    9.6379    8.1859 H   0  0  0  0  0  0  0  0  0  0  0  0
   16.5198    8.6591    9.0725 C   0  0  0  0  0  0  0  0  0  0  0  0
   16.9115    7.6667    8.9026 H   0  0  0  0  0  0  0  0  0  0  0  0
   15.2954    8.8186    9.6906 C   0  0  0  0  0  0  0  0  0  0  0  0
   14.7337    7.9493   10.0014 H   0  0  0  0  0  0  0  0  0  0  0  0
   14.7870   10.0991    9.9093 C   0  0  0  0  0  0  0  0  0  0  0  0
   13.5233   10.3803   10.5775 C   0  0  0  0  0  0  0  0  0  0  0  0
   12.6108    9.4629   11.0974 C   0  0  0  0  0  0  0  0  0  0  0  0
   12.7885    8.4043   11.0021 H   0  0  0  0  0  0  0  0  0  0  0  0
   11.4770    9.9300   11.7345 C   0  0  0  0  0  0  0  0  0  0  0  0
   10.7534    9.2372   12.1364 H   0  0  0  0  0  0  0  0  0  0  0  0
   11.2736   11.2999   11.8748 C   0  0  0  0  0  0  0  0  0  0  0  0
   10.4025   11.6665   12.3914 H   0  0  0  0  0  0  0  0  0  0  0  0
   12.2109   12.1691   11.3423 C   0  0  0  0  0  0  0  0  0  0  0  0
   12.1860   13.6898   11.5051 C   0  0  0  0  0  0  0  0  0  0  0  0
   10.8023   14.2335   11.8725 C   0  0  0  0  0  0  0  0  0  0  0  0
   10.0528   13.8992   11.1571 H   0  0  0  0  0  0  0  0  0  0  0  0
   10.8240   15.3221   11.8672 H   0  0  0  0  0  0  0  0  0  0  0  0
   10.5063   13.9106   12.8666 H   0  0  0  0  0  0  0  0  0  0  0  0
   13.2172   14.0398   12.5923 C   0  0  0  0  0  0  0  0  0  0  0  0
   14.2264   13.7736   12.2307 H   0  0  0  0  0  0  0  0  0  0  0  0
   13.0134   13.4918   13.5093 H   0  0  0  0  0  0  0  0  0  0  0  0
   13.1929   15.1064   12.8081 H   0  0  0  0  0  0  0  0  0  0  0  0
  1  2  1  1  0  0  0
  1  4  1  0  0  0  0
  1  3  1  0  0  0  0
  3 24  1  0  0  0  0
  4  5  1  0  0  0  0
  4 25  1  0  0  0  0
  6  4  1  0  0  0  0
  7  1  2  0  0  0  0
  7 16  1  0  0  0  0
  8  7  1  0  0  0  0
  9  8  1  0  0  0  0
 10  8  2  0  0  0  0
 10 12  1  0  0  0  0
 11 10  1  0  0  0  0
 12 14  2  0  0  0  0
 13 12  1  0  0  0  0
 14 16  1  0  0  0  0
 14 15  1  0  0  0  0
 16 17  2  0  0  0  0
 17  3  1  0  0  0  0
 17 18  1  0  0  0  0
 18 20  2  0  0  0  0
 19 18  1  0  0  0  0
 20 22  1  0  0  0  0
 20 21  1  0  0  0  0
 22 23  1  0  0  0  0
 24 25  1  0  0  0  0
 24 22  2  0  0  0  0
 25 26  1  0  0  0  0
 25 30  1  0  0  0  0
 26 29  1  0  0  0  0
 27 26  1  0  0  0  0
 28 26  1  0  0  0  0
 30 33  1  0  0  0  0
 30 32  1  0  0  0  0
 31 30  1  0  0  0  0
M  END
$$$$
