CSD_code = LADTIW | q = 1 | S = 0 | Stoichiometry = C22H22Cl3N2Ru(1+) | MND = 9
 OpenBabel04212202063D

 50 52  0  0  1  0  0  0  0  0999 V2000
   11.0109    6.8673   -1.2417 C   0  0  0  0  0  3  0  0  0  0  0  0
   10.2989    6.1922   -1.6994 H   0  0  0  0  0  0  0  0  0  0  0  0
   11.4734    7.9756   -1.9255 C   0  0  0  0  0  0  0  0  0  0  0  0
   11.1369    8.1624   -2.9319 H   0  0  0  0  0  0  0  0  0  0  0  0
   12.3618    8.8441   -1.2952 C   0  0  0  0  0  0  0  0  0  0  0  0
   12.7294    9.7181   -1.8083 H   0  0  0  0  0  0  0  0  0  0  0  0
   12.7481    8.5728    0.0007 C   0  0  0  0  0  0  0  0  0  0  0  0
   13.4165    9.2240    0.5401 H   0  0  0  0  0  0  0  0  0  0  0  0
   12.2444    7.4330    0.6344 C   0  0  0  0  0  0  0  0  0  0  0  0
   12.5223    7.0203    1.9747 C   0  0  0  0  0  3  0  0  0  0  0  0
   13.1848    7.5662    2.6346 H   0  0  0  0  0  0  0  0  0  0  0  0
   12.0411    5.3952    3.6180 C   0  0  0  0  0  0  0  0  0  0  0  0
   13.2782    4.9397    4.0882 C   0  0  0  0  0  0  0  0  0  0  0  0
   13.3673    4.3579    5.3444 C   0  0  0  0  0  0  0  0  0  0  0  0
   14.3228    4.0065    5.6999 H   0  0  0  0  0  0  0  0  0  0  0  0
   12.2417    4.2275    6.1369 C   0  0  0  0  0  0  0  0  0  0  0  0
   12.3173    3.7776    7.1136 H   0  0  0  0  0  0  0  0  0  0  0  0
   11.0101    4.6754    5.6701 C   0  0  0  0  0  0  0  0  0  0  0  0
   10.9070    5.2576    4.4167 C   0  0  0  0  0  0  0  0  0  0  0  0
    9.9607    5.6349    4.0513 H   0  0  0  0  0  0  0  0  0  0  0  0
    7.8711    3.4704    2.5940 C   0  0  0  0  0  0  0  0  0  0  0  0
    8.1241    3.1895    3.6131 H   0  0  0  0  0  0  0  0  0  0  0  0
    7.0913    2.8051    2.2243 H   0  0  0  0  0  0  0  0  0  0  0  0
    7.4641    4.4828    2.6001 H   0  0  0  0  0  0  0  0  0  0  0  0
    9.0657    3.4097    1.7014 C   0  0  0  0  0  0  0  0  0  0  0  0
   10.3216    3.0098    2.1695 C   0  0  0  0  0  0  0  0  0  0  0  0
   10.4347    2.6884    3.1986 H   0  0  0  0  0  0  0  0  0  0  0  0
   11.4437    2.9816    1.3070 C   0  0  1  0  0  0  0  0  0  0  0  0
   12.3926    2.6299    1.6955 H   0  0  0  0  0  0  0  0  0  0  0  0
   11.3117    3.2616   -0.0713 C   0  0  2  0  0  3  0  0  0  0  0  0
   10.0136    3.5804   -0.5596 C   0  0  0  0  0  0  0  0  0  0  0  0
    9.8636    3.6868   -1.6293 H   0  0  0  0  0  0  0  0  0  0  0  0
    8.9293    3.7010    0.3072 C   0  0  0  0  0  0  0  0  0  0  0  0
    7.9424    3.9270   -0.0838 H   0  0  0  0  0  0  0  0  0  0  0  0
   12.4740    3.1036   -1.0214 C   0  0  0  0  0  0  0  0  0  0  0  0
   12.1988    3.5597   -1.9792 H   0  0  0  0  0  0  0  0  0  0  0  0
   13.7285    3.8074   -0.4989 C   0  0  0  0  0  0  0  0  0  0  0  0
   13.5007    4.8344   -0.2054 H   0  0  0  0  0  0  0  0  0  0  0  0
   14.4869    3.8326   -1.2764 H   0  0  0  0  0  0  0  0  0  0  0  0
   14.1472    3.2863    0.3580 H   0  0  0  0  0  0  0  0  0  0  0  0
   12.7393    1.6125   -1.2577 C   0  0  0  0  0  0  0  0  0  0  0  0
   13.0263    1.1196   -0.3320 H   0  0  0  0  0  0  0  0  0  0  0  0
   13.5456    1.4924   -1.9755 H   0  0  0  0  0  0  0  0  0  0  0  0
   11.8526    1.1208   -1.6507 H   0  0  0  0  0  0  0  0  0  0  0  0
   11.8867    5.9489    2.3439 N   0  0  0  0  0  0  0  0  0  0  0  0
   11.3914    6.5834    0.0009 N   0  0  0  0  0  0  0  0  0  0  0  0
   14.6779    5.0505    3.0783 Cl  0  0  0  0  0  0  0  0  0  0  0  0
    9.5993    4.4998    6.6380 Cl  0  0  0  0  0  0  0  0  0  0  0  0
    9.0734    6.7023    1.7217 Cl  0  0  0  0  0 15  0  0  0  0  0  0
   10.6528    5.1105    1.1112 Ru  0  0  0  0  0  0  0  0  0  0  0  0
  1 46  1  0  0  0  0
  2  1  1  0  0  0  0
  3  5  2  0  0  0  0
  3  1  1  0  0  0  0
  4  3  1  0  0  0  0
  5  7  1  0  0  0  0
  6  5  1  0  0  0  0
  7  8  1  0  0  0  0
  7  9  2  0  0  0  0
  9 10  1  0  0  0  0
 10 45  1  0  0  0  0
 10 11  1  0  0  0  0
 12 13  2  0  0  0  0
 12 19  1  0  0  0  0
 13 14  1  0  0  0  0
 14 15  1  0  0  0  0
 14 16  2  0  0  0  0
 16 17  1  0  0  0  0
 18 16  1  0  0  0  0
 18 48  1  0  0  0  0
 19 18  2  0  0  0  0
 20 19  1  0  0  0  0
 21 24  1  0  0  0  0
 21 22  1  0  0  0  0
 23 21  1  0  0  0  0
 25 26  2  0  0  0  0
 25 21  1  0  0  0  0
 26 27  1  0  0  0  0
 28 29  1  1  0  0  0
 28 26  1  0  0  0  0
 30 35  1  6  0  0  0
 30 28  1  0  0  0  0
 31 30  1  0  0  0  0
 31 33  2  0  0  0  0
 32 31  1  0  0  0  0
 33 25  1  0  0  0  0
 34 33  1  0  0  0  0
 35 37  1  0  0  0  0
 36 35  1  0  0  0  0
 37 38  1  0  0  0  0
 37 40  1  0  0  0  0
 39 37  1  0  0  0  0
 41 35  1  0  0  0  0
 41 42  1  0  0  0  0
 43 41  1  0  0  0  0
 44 41  1  0  0  0  0
 45 12  1  0  0  0  0
 46  9  1  0  0  0  0
 46 50  1  0  0  0  0
 47 13  1  0  0  0  0
 50 28  1  0  0  0  0
 50 45  1  0  0  0  0
M  END
$$$$
