CSD_code = LADXOG | q = 0 | S = 0 | Stoichiometry = C22H27Br2NO8PdS | MND = 4
 OpenBabel04212202063D

 62 63  0  0  1  0  0  0  0  0999 V2000
   16.6330    3.1320    5.6907 Pd  0  0  2  0  0  0  0  0  0  0  0  0
   15.0911    3.3369    7.5052 Br  0  0  0  0  0  0  0  0  0  0  0  0
   18.3679    3.1246    6.9087 N   0  0  0  0  0  0  0  0  0  0  0  0
   18.4066    2.6255    8.1409 C   0  0  0  0  0  3  0  0  0  0  0  0
   17.4550    2.3636    8.5891 H   0  0  0  0  0  0  0  0  0  0  0  0
   19.5913    2.4528    8.8371 C   0  0  0  0  0  0  0  0  0  0  0  0
   19.5738    2.0450    9.8343 H   0  0  0  0  0  0  0  0  0  0  0  0
   20.7821    2.8117    8.2269 C   0  0  0  0  0  0  0  0  0  0  0  0
   21.7262    2.6899    8.7357 H   0  0  0  0  0  0  0  0  0  0  0  0
   20.7397    3.3302    6.9432 C   0  0  0  0  0  0  0  0  0  0  0  0
   21.6448    3.6241    6.4340 H   0  0  0  0  0  0  0  0  0  0  0  0
   19.5112    3.4756    6.3098 C   0  0  0  0  0  0  0  0  0  0  0  0
   19.4178    4.0558    4.9364 C   0  0  0  0  0  0  0  0  0  0  0  0
   20.3782    4.0596    4.4221 H   0  0  0  0  0  0  0  0  0  0  0  0
   19.0385    5.0816    5.0030 H   0  0  0  0  0  0  0  0  0  0  0  0
   18.1556    3.2591    3.8731 S   0  0  1  0  0  3  0  0  0  0  0  0
   18.7429    1.5212    3.5502 C   0  0  0  0  0  0  0  0  0  0  0  0
   20.1387    1.5793    2.9475 C   0  0  0  0  0  0  0  0  0  0  0  0
   20.8770    1.9041    3.6786 H   0  0  0  0  0  0  0  0  0  0  0  0
   20.1593    2.2562    2.0963 H   0  0  0  0  0  0  0  0  0  0  0  0
   20.4252    0.5878    2.6024 H   0  0  0  0  0  0  0  0  0  0  0  0
   17.7283    1.0071    2.5328 C   0  0  0  0  0  0  0  0  0  0  0  0
   18.0104    0.0112    2.1987 H   0  0  0  0  0  0  0  0  0  0  0  0
   17.6785    1.6647    1.6669 H   0  0  0  0  0  0  0  0  0  0  0  0
   16.7377    0.9504    2.9814 H   0  0  0  0  0  0  0  0  0  0  0  0
   18.7005    0.6829    4.8194 C   0  0  0  0  0  0  0  0  0  0  0  0
   18.8532   -0.3648    4.5637 H   0  0  0  0  0  0  0  0  0  0  0  0
   17.7165    0.7642    5.3039 H   0  0  0  0  0  0  0  0  0  0  0  0
   19.4840    0.9732    5.5202 H   0  0  0  0  0  0  0  0  0  0  0  0
   15.1166    2.9702    4.4501 C   0  0  0  0  0  0  0  0  0  0  0  0
   14.8170    3.7478    3.3920 C   0  0  1  0  0  3  0  0  0  0  0  0
   15.3918    5.0798    3.2486 C   0  0  0  0  0  0  0  0  0  0  0  0
   15.8930    5.5978    2.1154 C   0  0  0  0  0  0  0  0  0  0  0  0
   14.5569    1.6380    4.7033 C   0  0  0  0  0  0  0  0  0  0  0  0
   15.2820    0.6959    4.9823 O   0  0  0  0  0  0  0  0  0  0  0  0
   13.2302    1.5704    4.6880 O   0  0  0  0  0  0  0  0  0  0  0  0
   12.6690    0.3266    5.0821 C   0  0  0  0  0  0  0  0  0  0  0  0
   12.9625   -0.4586    4.3820 H   0  0  0  0  0  0  0  0  0  0  0  0
   11.5913    0.4660    5.0775 H   0  0  0  0  0  0  0  0  0  0  0  0
   13.0182    0.0613    6.0822 H   0  0  0  0  0  0  0  0  0  0  0  0
   13.8951    3.2886    2.3093 C   0  0  0  0  0  0  0  0  0  0  0  0
   13.0968    3.9912    1.7479 O   0  0  0  0  0  0  0  0  0  0  0  0
   14.0756    1.9899    2.0486 O   0  0  0  0  0  0  0  0  0  0  0  0
   13.2358    1.4432    1.0414 C   0  0  0  0  0  0  0  0  0  0  0  0
   12.1889    1.5157    1.3426 H   0  0  0  0  0  0  0  0  0  0  0  0
   13.5347    0.4043    0.9295 H   0  0  0  0  0  0  0  0  0  0  0  0
   13.3763    1.9871    0.1052 H   0  0  0  0  0  0  0  0  0  0  0  0
   15.5405    5.8124    4.5590 C   0  0  0  0  0  0  0  0  0  0  0  0
   16.5666    5.7426    5.2066 O   0  0  0  0  0  0  0  0  0  0  0  0
   14.4439    6.4196    4.9400 O   0  0  0  0  0  0  0  0  0  0  0  0
   14.4651    6.9943    6.2466 C   0  0  0  0  0  0  0  0  0  0  0  0
   14.6146    6.2107    6.9936 H   0  0  0  0  0  0  0  0  0  0  0  0
   13.4976    7.4688    6.3815 H   0  0  0  0  0  0  0  0  0  0  0  0
   15.2717    7.7254    6.3220 H   0  0  0  0  0  0  0  0  0  0  0  0
   16.0734    4.5839    0.5412 Br  0  0  0  0  0  0  0  0  0  0  0  0
   16.4727    6.9471    1.9842 C   0  0  0  0  0  0  0  0  0  0  0  0
   17.1274    7.3146    1.0445 O   0  0  0  0  0  0  0  0  0  0  0  0
   16.1742    7.7058    3.0497 O   0  0  0  0  0  0  0  0  0  0  0  0
   16.6879    9.0318    3.0701 C   0  0  0  0  0  0  0  0  0  0  0  0
   17.5381    9.0745    3.7533 H   0  0  0  0  0  0  0  0  0  0  0  0
   15.8897    9.6816    3.4251 H   0  0  0  0  0  0  0  0  0  0  0  0
   17.0051    9.3245    2.0676 H   0  0  0  0  0  0  0  0  0  0  0  0
  1  3  1  0  0  0  0
  1  2  1  1  0  0  0
  3  4  1  0  0  0  0
  4  5  1  0  0  0  0
  4  6  1  0  0  0  0
  6  7  1  0  0  0  0
  8  9  1  0  0  0  0
  8  6  2  0  0  0  0
 10  8  1  0  0  0  0
 11 10  1  0  0  0  0
 12  3  1  0  0  0  0
 12 10  2  0  0  0  0
 13 15  1  0  0  0  0
 13 12  1  0  0  0  0
 14 13  1  0  0  0  0
 16 17  1  1  0  0  0
 16 13  1  0  0  0  0
 16  1  1  0  0  0  0
 17 26  1  0  0  0  0
 18 17  1  0  0  0  0
 18 19  1  0  0  0  0
 20 18  1  0  0  0  0
 21 18  1  0  0  0  0
 22 25  1  0  0  0  0
 22 17  1  0  0  0  0
 23 22  1  0  0  0  0
 24 22  1  0  0  0  0
 26 28  1  0  0  0  0
 26 29  1  0  0  0  0
 27 26  1  0  0  0  0
 30 34  1  0  0  0  0
 30  1  2  0  0  0  0
 31 41  1  6  0  0  0
 31 30  1  0  0  0  0
 32 31  1  0  0  0  0
 32 48  1  0  0  0  0
 33 32  2  0  0  0  0
 34 35  2  0  0  0  0
 36 34  1  0  0  0  0
 36 37  1  0  0  0  0
 37 40  1  0  0  0  0
 38 37  1  0  0  0  0
 39 37  1  0  0  0  0
 42 41  2  0  0  0  0
 43 41  1  0  0  0  0
 44 45  1  0  0  0  0
 44 43  1  0  0  0  0
 46 44  1  0  0  0  0
 47 44  1  0  0  0  0
 48 50  1  0  0  0  0
 48 49  2  0  0  0  0
 50 51  1  0  0  0  0
 51 54  1  0  0  0  0
 51 53  1  0  0  0  0
 51 52  1  0  0  0  0
 55 33  1  0  0  0  0
 56 33  1  0  0  0  0
 56 58  1  0  0  0  0
 57 56  2  0  0  0  0
 58 59  1  0  0  0  0
 59 61  1  0  0  0  0
 59 60  1  0  0  0  0
 62 59  1  0  0  0  0
M  END
$$$$
