CSD_code = LADXIA | q = 0 | S = 0 | Stoichiometry = C22H27ClINO8PdS | MND = 4
 OpenBabel04212202063D

 62 63  0  0  1  0  0  0  0  0999 V2000
   -9.2958    3.0711    6.6847 Pd  0  0  2  0  0  0  0  0  0  0  0  0
  -10.7428    3.1388    8.4224 Cl  0  0  0  0  0  0  0  0  0  0  0  0
   -7.5858    3.1733    7.9190 N   0  0  0  0  0  0  0  0  0  0  0  0
   -7.5757    2.7764    9.1876 C   0  0  0  0  0  3  0  0  0  0  0  0
   -8.5404    2.5219    9.6135 H   0  0  0  0  0  0  0  0  0  0  0  0
   -6.4098    2.7022    9.9316 C   0  0  0  0  0  0  0  0  0  0  0  0
   -6.4445    2.3751   10.9579 H   0  0  0  0  0  0  0  0  0  0  0  0
   -5.2113    3.0508    9.3294 C   0  0  0  0  0  0  0  0  0  0  0  0
   -4.2812    3.0008    9.8748 H   0  0  0  0  0  0  0  0  0  0  0  0
   -5.2264    3.4665    8.0082 C   0  0  0  0  0  0  0  0  0  0  0  0
   -4.3143    3.7515    7.5065 H   0  0  0  0  0  0  0  0  0  0  0  0
   -6.4379    3.5204    7.3285 C   0  0  0  0  0  0  0  0  0  0  0  0
   -6.5093    4.0008    5.9152 C   0  0  0  0  0  0  0  0  0  0  0  0
   -5.5454    3.9522    5.4098 H   0  0  0  0  0  0  0  0  0  0  0  0
   -6.8685    5.0356    5.9090 H   0  0  0  0  0  0  0  0  0  0  0  0
   -7.7801    3.1596    4.8982 S   0  0  1  0  0  3  0  0  0  0  0  0
   -7.2051    1.3983    4.6775 C   0  0  0  0  0  0  0  0  0  0  0  0
   -5.7946    1.4066    4.1065 C   0  0  0  0  0  0  0  0  0  0  0  0
   -5.0679    1.7494    4.8406 H   0  0  0  0  0  0  0  0  0  0  0  0
   -5.7420    2.0457    3.2281 H   0  0  0  0  0  0  0  0  0  0  0  0
   -5.5183    0.3964    3.8108 H   0  0  0  0  0  0  0  0  0  0  0  0
   -8.2023    0.8432    3.6650 C   0  0  0  0  0  0  0  0  0  0  0  0
   -7.9258   -0.1721    3.3901 H   0  0  0  0  0  0  0  0  0  0  0  0
   -8.2229    1.4551    2.7653 H   0  0  0  0  0  0  0  0  0  0  0  0
   -9.2020    0.8217    4.0962 H   0  0  0  0  0  0  0  0  0  0  0  0
   -7.2879    0.6250    5.9862 C   0  0  0  0  0  0  0  0  0  0  0  0
   -7.1291   -0.4340    5.7863 H   0  0  0  0  0  0  0  0  0  0  0  0
   -8.2883    0.7315    6.4356 H   0  0  0  0  0  0  0  0  0  0  0  0
   -6.5243    0.9496    6.6940 H   0  0  0  0  0  0  0  0  0  0  0  0
  -10.8436    2.8840    5.4833 C   0  0  0  0  0  0  0  0  0  0  0  0
  -11.1659    3.6936    4.4562 C   0  0  2  0  0  3  0  0  0  0  0  0
  -10.5549    5.0155    4.3385 C   0  0  0  0  0  0  0  0  0  0  0  0
  -10.0366    5.5500    3.2260 C   0  0  0  0  0  0  0  0  0  0  0  0
  -11.4245    1.5608    5.7380 C   0  0  0  0  0  0  0  0  0  0  0  0
  -10.7179    0.5862    5.9334 O   0  0  0  0  0  0  0  0  0  0  0  0
  -12.7524    1.5377    5.8172 O   0  0  0  0  0  0  0  0  0  0  0  0
  -13.3247    0.2968    6.2031 C   0  0  0  0  0  0  0  0  0  0  0  0
  -13.1239   -0.4628    5.4443 H   0  0  0  0  0  0  0  0  0  0  0  0
  -14.3930    0.4720    6.3005 H   0  0  0  0  0  0  0  0  0  0  0  0
  -12.8993   -0.0306    7.1541 H   0  0  0  0  0  0  0  0  0  0  0  0
  -12.1431    3.3106    3.3968 C   0  0  0  0  0  0  0  0  0  0  0  0
  -12.8836    4.0798    2.8404 O   0  0  0  0  0  0  0  0  0  0  0  0
  -12.0905    1.9997    3.1415 O   0  0  0  0  0  0  0  0  0  0  0  0
  -13.0047    1.5273    2.1624 C   0  0  0  0  0  0  0  0  0  0  0  0
  -14.0318    1.6676    2.5053 H   0  0  0  0  0  0  0  0  0  0  0  0
  -12.7843    0.4717    2.0270 H   0  0  0  0  0  0  0  0  0  0  0  0
  -12.8643    2.0728    1.2268 H   0  0  0  0  0  0  0  0  0  0  0  0
  -10.3738    5.7021    5.6700 C   0  0  0  0  0  0  0  0  0  0  0  0
   -9.2959    5.7095    6.2347 O   0  0  0  0  0  0  0  0  0  0  0  0
  -11.4895    6.1738    6.1677 O   0  0  0  0  0  0  0  0  0  0  0  0
  -11.4252    6.6226    7.5212 C   0  0  0  0  0  0  0  0  0  0  0  0
  -11.1369    5.7858    8.1657 H   0  0  0  0  0  0  0  0  0  0  0  0
  -12.4227    6.9727    7.7704 H   0  0  0  0  0  0  0  0  0  0  0  0
  -10.6936    7.4264    7.6188 H   0  0  0  0  0  0  0  0  0  0  0  0
   -9.7926    4.4726    1.4527 I   0  0  0  0  0  0  0  0  0  0  0  0
   -9.4321    6.8901    3.1561 C   0  0  0  0  0  0  0  0  0  0  0  0
   -8.6656    7.2449    2.2990 O   0  0  0  0  0  0  0  0  0  0  0  0
   -9.8527    7.6615    4.1678 O   0  0  0  0  0  0  0  0  0  0  0  0
   -9.3022    8.9693    4.2525 C   0  0  0  0  0  0  0  0  0  0  0  0
   -8.4315    8.9548    4.9116 H   0  0  0  0  0  0  0  0  0  0  0  0
  -10.0768    9.6106    4.6678 H   0  0  0  0  0  0  0  0  0  0  0  0
   -9.0029    9.3154    3.2613 H   0  0  0  0  0  0  0  0  0  0  0  0
  1  3  1  0  0  0  0
  1  2  1  1  0  0  0
  3  4  1  0  0  0  0
  4  5  1  0  0  0  0
  4  6  1  0  0  0  0
  6  7  1  0  0  0  0
  8  9  1  0  0  0  0
  8  6  2  0  0  0  0
 10  8  1  0  0  0  0
 11 10  1  0  0  0  0
 12  3  1  0  0  0  0
 12 10  2  0  0  0  0
 13 12  1  0  0  0  0
 14 13  1  0  0  0  0
 15 13  1  0  0  0  0
 16 17  1  1  0  0  0
 16 13  1  0  0  0  0
 16  1  1  0  0  0  0
 17 26  1  0  0  0  0
 18 17  1  0  0  0  0
 18 19  1  0  0  0  0
 20 18  1  0  0  0  0
 21 18  1  0  0  0  0
 22 25  1  0  0  0  0
 22 17  1  0  0  0  0
 23 22  1  0  0  0  0
 24 22  1  0  0  0  0
 26 28  1  0  0  0  0
 26 29  1  0  0  0  0
 27 26  1  0  0  0  0
 30 34  1  0  0  0  0
 30  1  2  0  0  0  0
 31 41  1  1  0  0  0
 31 30  1  0  0  0  0
 32 31  1  0  0  0  0
 32 48  1  0  0  0  0
 33 32  2  0  0  0  0
 34 36  1  0  0  0  0
 34 35  2  0  0  0  0
 36 37  1  0  0  0  0
 37 39  1  0  0  0  0
 37 40  1  0  0  0  0
 38 37  1  0  0  0  0
 42 41  2  0  0  0  0
 43 41  1  0  0  0  0
 44 45  1  0  0  0  0
 44 43  1  0  0  0  0
 46 44  1  0  0  0  0
 47 44  1  0  0  0  0
 48 50  1  0  0  0  0
 48 49  2  0  0  0  0
 50 51  1  0  0  0  0
 51 54  1  0  0  0  0
 51 53  1  0  0  0  0
 51 52  1  0  0  0  0
 55 33  1  0  0  0  0
 56 33  1  0  0  0  0
 56 58  1  0  0  0  0
 57 56  2  0  0  0  0
 58 59  1  0  0  0  0
 59 61  1  0  0  0  0
 59 60  1  0  0  0  0
 62 59  1  0  0  0  0
M  END
$$$$
