CSD_code = LADZIA | q = 0 | S = 0 | Stoichiometry = C18H10Br2ClN5Pd | MND = 4
 OpenBabel04212202063D

 37 42  0  0  0  0  0  0  0  0999 V2000
   12.8847    2.1015   -1.4078 Pd  0  0  1  0  0  0  0  0  0  0  0  0
   14.0388    3.4181   -2.8406 Cl  0  0  0  0  0  0  0  0  0  0  0  0
   14.5188    1.8321   -0.2162 N   0  0  0  0  0  0  0  0  0  0  0  0
   15.7130    1.8052   -0.8227 C   0  0  0  0  0  0  0  0  0  0  0  0
   16.8742    1.4391   -0.1734 C   0  0  0  0  0  0  0  0  0  0  0  0
   16.8393    1.0783    1.1730 C   0  0  0  0  0  0  0  0  0  0  0  0
   15.6210    1.1013    1.7965 C   0  0  0  0  0  0  0  0  0  0  0  0
   14.4522    1.4683    1.0934 C   0  0  0  0  0  0  0  0  0  0  0  0
   18.5088    1.4311   -1.1289 Br  0  0  0  0  0  0  0  0  0  0  0  0
   13.3283    1.4670    1.8373 N   0  0  0  0  0  0  0  0  0  0  0  0
   12.1188    1.4926    1.3781 C   0  0  0  0  0  0  0  0  0  0  0  0
   11.7104    1.4361    0.0826 N   0  0  0  0  0  0  0  0  0  0  0  0
   10.3582    1.5649    0.0230 C   0  0  0  0  0  0  0  0  0  0  0  0
    9.8269    1.6061    1.3886 C   0  0  0  0  0  0  0  0  0  0  0  0
   10.9375    1.5600    2.2433 C   0  0  0  0  0  0  0  0  0  0  0  0
   10.7867    1.5895    3.6147 C   0  0  0  0  0  0  0  0  0  0  0  0
    9.4926    1.6651    4.1154 C   0  0  0  0  0  0  0  0  0  0  0  0
    8.3929    1.7111    3.2691 C   0  0  0  0  0  0  0  0  0  0  0  0
    8.5427    1.6830    1.8878 C   0  0  0  0  0  0  0  0  0  0  0  0
    9.6057    1.6185   -1.0283 N   0  0  0  0  0  0  0  0  0  0  0  0
   10.0387    1.6441   -2.3044 C   0  0  0  0  0  0  0  0  0  0  0  0
   11.3053    1.9575   -2.6907 N   0  0  0  0  0  0  0  0  0  0  0  0
   11.5870    1.9618   -4.0003 C   0  0  0  0  0  0  0  0  0  0  0  0
   10.6471    1.6759   -4.9692 C   0  0  0  0  0  0  0  0  0  0  0  0
    9.3369    1.3692   -4.6041 C   0  0  0  0  0  0  0  0  0  0  0  0
    9.0443    1.3615   -3.2670 C   0  0  0  0  0  0  0  0  0  0  0  0
   11.1559    1.7032   -6.7927 Br  0  0  0  0  0  0  0  0  0  0  0  0
   15.7480    2.1078   -1.8647 H   0  0  0  0  0  0  0  0  0  0  0  0
   17.7405    0.7958    1.6945 H   0  0  0  0  0  0  0  0  0  0  0  0
   15.5065    0.8325    2.8334 H   0  0  0  0  0  0  0  0  0  0  0  0
   11.6462    1.5562    4.2646 H   0  0  0  0  0  0  0  0  0  0  0  0
    9.3382    1.6907    5.1838 H   0  0  0  0  0  0  0  0  0  0  0  0
    7.4019    1.7717    3.6937 H   0  0  0  0  0  0  0  0  0  0  0  0
    7.6944    1.7210    1.2236 H   0  0  0  0  0  0  0  0  0  0  0  0
   12.6002    2.2229   -4.2897 H   0  0  0  0  0  0  0  0  0  0  0  0
    8.5903    1.1503   -5.3514 H   0  0  0  0  0  0  0  0  0  0  0  0
    8.0579    1.1305   -2.9009 H   0  0  0  0  0  0  0  0  0  0  0  0
  1  2  1  1  0  0  0
  1  3  1  0  0  0  0
  1 12  1  0  0  0  0
  3  8  1  0  0  0  0
  4  3  1  0  0  0  0
  4  5  2  0  0  0  0
  5  6  1  0  0  0  0
  6 29  1  0  0  0  0
  6  7  2  0  0  0  0
  7 30  1  0  0  0  0
  8  7  1  0  0  0  0
  8 10  2  0  0  0  0
  9  5  1  0  0  0  0
 11 10  1  0  0  0  0
 11 15  2  0  0  0  0
 12 11  1  0  0  0  0
 13 12  1  0  0  0  0
 13 14  2  0  0  0  0
 14 19  1  0  0  0  0
 14 15  1  0  0  0  0
 15 16  1  0  0  0  0
 16 17  2  0  0  0  0
 16 31  1  0  0  0  0
 17 32  1  0  0  0  0
 18 33  1  0  0  0  0
 18 17  1  0  0  0  0
 19 18  2  0  0  0  0
 20 13  1  0  0  0  0
 21 20  2  0  0  0  0
 22 21  1  0  0  0  0
 22  1  1  0  0  0  0
 23 22  1  0  0  0  0
 24 25  1  0  0  0  0
 24 23  2  0  0  0  0
 25 26  2  0  0  0  0
 26 37  1  0  0  0  0
 26 21  1  0  0  0  0
 27 24  1  0  0  0  0
 28  4  1  0  0  0  0
 34 19  1  0  0  0  0
 35 23  1  0  0  0  0
 36 25  1  0  0  0  0
M  END
$$$$
