CSD_code = LAFPUD | q = 1 | S = 0 | Stoichiometry = C16H31ClN2O7V(1+) | MND = 6
 OpenBabel04212202063D

 58 57  0  0  0  0  0  0  0  0999 V2000
   -1.8776   -2.4676    2.5448 V   0  0  0  0  0  0  0  0  0  0  0  0
   -3.6468   -1.9408    3.8809 Cl  0  0  0  0  0  0  0  0  0  0  0  0
   -2.1146   -1.2970    1.5043 O   0  0  0  0  0  0  0  0  0  0  0  0
   -3.0725   -3.7154    1.6453 N   0  0  0  0  0  2  0  0  0  0  0  0
   -4.0411   -4.1500    1.2061 C   0  0  0  0  0  2  0  0  0  0  0  0
   -5.2328   -4.7093    0.6546 C   0  0  0  0  0  0  0  0  0  0  0  0
   -0.7678   -1.4303    3.7365 N   0  0  0  0  0  2  0  0  0  0  0  0
   -0.3455   -0.7669    4.5749 C   0  0  0  0  0  2  0  0  0  0  0  0
    0.1890    0.0514    5.6088 C   0  0  0  0  0  0  0  0  0  0  0  0
   -1.3791   -4.0347    3.6707 O   0  0  0  0  0  0  0  0  0  0  0  0
   -2.1726   -4.6387    4.6887 C   0  0  0  0  0  0  0  0  0  0  0  0
   -2.0517   -3.8861    6.0121 C   0  0  0  0  0  0  0  0  0  0  0  0
   -0.6998   -3.8347    6.4219 O   0  0  0  0  0  0  0  0  0  0  0  0
   -0.5569   -3.0777    7.6088 C   0  0  0  0  0  0  0  0  0  0  0  0
    0.9068   -2.9947    8.0475 C   0  0  0  0  0  0  0  0  0  0  0  0
    1.7238   -2.2463    7.1748 O   0  0  0  0  0  0  0  0  0  0  0  0
    2.2942   -3.0067    6.1281 C   0  0  0  0  0  0  0  0  0  0  0  0
    3.2243   -2.1250    5.3025 C   0  0  0  0  0  0  0  0  0  0  0  0
    2.4863   -1.5047    4.2708 O   0  0  0  0  0  0  0  0  0  0  0  0
    3.2907   -0.7485    3.3910 C   0  0  0  0  0  0  0  0  0  0  0  0
    2.4424   -0.3655    2.1843 C   0  0  0  0  0  0  0  0  0  0  0  0
    2.1276   -1.5567    1.5022 O   0  0  0  0  0  0  0  0  0  0  0  0
    1.0261   -1.4794    0.6295 C   0  0  0  0  0  0  0  0  0  0  0  0
    0.5573   -2.9019    0.3234 C   0  0  0  0  0  0  0  0  0  0  0  0
   -0.1249   -3.5173    1.3966 O   0  0  0  0  0  0  0  0  0  0  0  0
    0.6958   -3.9284    2.4766 C   0  0  0  0  0  0  0  0  0  0  0  0
   -0.1957   -4.7629    3.3878 C   0  0  0  0  0  0  0  0  0  0  0  0
   -2.3582   -0.5824    0.9129 H   0  0  0  0  0  0  0  0  0  0  0  0
   -5.1696   -4.7280   -0.4336 H   0  0  0  0  0  0  0  0  0  0  0  0
   -6.0910   -4.1089    0.9580 H   0  0  0  0  0  0  0  0  0  0  0  0
   -5.3629   -5.7274    1.0214 H   0  0  0  0  0  0  0  0  0  0  0  0
   -0.6178    0.5186    6.1740 H   0  0  0  0  0  0  0  0  0  0  0  0
    0.8272    0.8225    5.1793 H   0  0  0  0  0  0  0  0  0  0  0  0
    0.7963   -0.5764    6.2690 H   0  0  0  0  0  0  0  0  0  0  0  0
   -1.8726   -5.6843    4.8180 H   0  0  0  0  0  0  0  0  0  0  0  0
   -3.2209   -4.5906    4.3723 H   0  0  0  0  0  0  0  0  0  0  0  0
   -2.4445   -2.8677    5.8772 H   0  0  0  0  0  0  0  0  0  0  0  0
   -2.6612   -4.4003    6.7697 H   0  0  0  0  0  0  0  0  0  0  0  0
   -1.1345   -3.5470    8.4186 H   0  0  0  0  0  0  0  0  0  0  0  0
   -0.9541   -2.0659    7.4468 H   0  0  0  0  0  0  0  0  0  0  0  0
    0.9388   -2.4759    9.0093 H   0  0  0  0  0  0  0  0  0  0  0  0
    1.3119   -4.0054    8.1730 H   0  0  0  0  0  0  0  0  0  0  0  0
    1.5073   -3.4080    5.4795 H   0  0  0  0  0  0  0  0  0  0  0  0
    2.8659   -3.8410    6.5570 H   0  0  0  0  0  0  0  0  0  0  0  0
    3.6831   -1.3711    5.9566 H   0  0  0  0  0  0  0  0  0  0  0  0
    4.0224   -2.7414    4.8654 H   0  0  0  0  0  0  0  0  0  0  0  0
    4.1433   -1.3505    3.0494 H   0  0  0  0  0  0  0  0  0  0  0  0
    3.6725    0.1537    3.8893 H   0  0  0  0  0  0  0  0  0  0  0  0
    1.5210    0.1295    2.5236 H   0  0  0  0  0  0  0  0  0  0  0  0
    3.0008    0.3235    1.5356 H   0  0  0  0  0  0  0  0  0  0  0  0
    1.3058   -0.9726   -0.3064 H   0  0  0  0  0  0  0  0  0  0  0  0
    0.1987   -0.9239    1.1036 H   0  0  0  0  0  0  0  0  0  0  0  0
   -0.1583   -2.8791   -0.5029 H   0  0  0  0  0  0  0  0  0  0  0  0
    1.4279   -3.5103    0.0464 H   0  0  0  0  0  0  0  0  0  0  0  0
    1.5248   -4.5465    2.1046 H   0  0  0  0  0  0  0  0  0  0  0  0
    1.1059   -3.0641    3.0145 H   0  0  0  0  0  0  0  0  0  0  0  0
    0.3353   -4.9977    4.3188 H   0  0  0  0  0  0  0  0  0  0  0  0
   -0.4711   -5.6995    2.8751 H   0  0  0  0  0  0  0  0  0  0  0  0
  1  7  1  0  0  0  0
  1  2  1  0  0  0  0
  3  1  1  0  0  0  0
  4  1  1  0  0  0  0
  5  4  1  0  0  0  0
  6 30  1  0  0  0  0
  6 31  1  0  0  0  0
  6  5  1  0  0  0  0
  7  8  1  0  0  0  0
  8  9  1  0  0  0  0
  9 32  1  0  0  0  0
  9 34  1  0  0  0  0
 10 11  1  0  0  0  0
 11 35  1  0  0  0  0
 11 12  1  0  0  0  0
 12 13  1  0  0  0  0
 12 38  1  0  0  0  0
 13 14  1  0  0  0  0
 14 15  1  0  0  0  0
 14 39  1  0  0  0  0
 15 42  1  0  0  0  0
 15 41  1  0  0  0  0
 16 15  1  0  0  0  0
 17 44  1  0  0  0  0
 17 16  1  0  0  0  0
 18 45  1  0  0  0  0
 18 17  1  0  0  0  0
 19 18  1  0  0  0  0
 20 48  1  0  0  0  0
 20 19  1  0  0  0  0
 21 49  1  0  0  0  0
 21 20  1  0  0  0  0
 22 21  1  0  0  0  0
 23 52  1  0  0  0  0
 23 22  1  0  0  0  0
 24 23  1  0  0  0  0
 24 25  1  0  0  0  0
 25 26  1  0  0  0  0
 26 56  1  0  0  0  0
 26 27  1  0  0  0  0
 27 10  1  0  0  0  0
 27 57  1  0  0  0  0
 28  3  1  0  0  0  0
 29  6  1  0  0  0  0
 33  9  1  0  0  0  0
 36 11  1  0  0  0  0
 37 12  1  0  0  0  0
 40 14  1  0  0  0  0
 43 17  1  0  0  0  0
 46 18  1  0  0  0  0
 47 20  1  0  0  0  0
 50 21  1  0  0  0  0
 51 23  1  0  0  0  0
 53 24  1  0  0  0  0
 54 24  1  0  0  0  0
 55 26  1  0  0  0  0
 58 27  1  0  0  0  0
M  END
$$$$
