CSD_code = LAFSIU | q = 0 | S = 0 | Stoichiometry = C15H19ClO2Ti | MND = 12
 OpenBabel04212202063D

 38 38  0  0  1  0  0  0  0  0999 V2000
    2.5551    1.4760    4.9544 Ti  0  0  0  0  0  0  0  0  0  0  0  0
    2.7321    2.2141    2.8224 Cl  0  0  0  0  0  0  0  0  0  0  0  0
    2.6937   -0.1544    4.4923 O   0  0  0  0  0  0  0  0  0  0  0  0
    3.7013   -1.9250    5.5297 O   0  0  0  0  0  0  0  0  0  0  0  0
    4.4038    1.0210    6.3661 C   0  0  1  0  0  0  0  0  0  0  0  0
    4.9270    1.4682    5.1340 C   0  0  0  0  0  0  0  0  0  0  0  0
    4.5635    2.8247    4.9763 C   0  0  0  0  0  0  0  0  0  0  0  0
    3.7976    3.2070    6.0886 C   0  0  0  0  0  0  0  0  0  0  0  0
    3.6991    2.0931    6.9524 C   0  0  0  0  0  0  0  0  0  0  0  0
    0.2308    1.5921    4.3569 C   0  0  0  0  0  0  0  0  0  0  0  0
    0.2913    0.6405    5.3857 C   0  0  0  0  0  3  0  0  0  0  0  0
    0.7558    1.2892    6.5497 C   0  0  0  0  0  0  0  0  0  0  0  0
    0.8870    2.6685    6.2557 C   0  0  0  0  0  0  0  0  0  0  0  0
    0.5985    2.8525    4.9004 C   0  0  0  0  0  0  0  0  0  0  0  0
    3.2882   -1.3235    4.3451 C   0  0  0  0  0  0  0  0  0  0  0  0
    3.5160   -1.9147    3.1606 C   0  0  0  0  0  0  0  0  0  0  0  0
    3.1346   -1.2376    1.8800 C   0  0  0  0  0  0  0  0  0  0  0  0
    4.1993   -3.2424    3.0533 C   0  0  0  0  0  0  0  0  0  0  0  0
    2.6675   -2.1272    6.4772 C   0  0  0  0  0  0  0  0  0  0  0  0
    4.6168    0.0669    6.8292 H   0  0  0  0  0  0  0  0  0  0  0  0
    5.5744    0.9026    4.4745 H   0  0  0  0  0  0  0  0  0  0  0  0
    4.8933    3.4761    4.1777 H   0  0  0  0  0  0  0  0  0  0  0  0
    3.4723    4.2163    6.3074 H   0  0  0  0  0  0  0  0  0  0  0  0
    3.2939    2.1029    7.9562 H   0  0  0  0  0  0  0  0  0  0  0  0
   -0.1388    1.4226    3.3534 H   0  0  0  0  0  0  0  0  0  0  0  0
   -0.0078   -0.3975    5.3059 H   0  0  0  0  0  0  0  0  0  0  0  0
    0.7972    0.8532    7.5406 H   0  0  0  0  0  0  0  0  0  0  0  0
    1.0666    3.4505    6.9811 H   0  0  0  0  0  0  0  0  0  0  0  0
    0.5424    3.7987    4.3771 H   0  0  0  0  0  0  0  0  0  0  0  0
    2.5702   -0.3269    2.0771 H   0  0  0  0  0  0  0  0  0  0  0  0
    4.0266   -0.9755    1.3105 H   0  0  0  0  0  0  0  0  0  0  0  0
    2.5334   -1.9074    1.2660 H   0  0  0  0  0  0  0  0  0  0  0  0
    5.1446   -3.1350    2.5220 H   0  0  0  0  0  0  0  0  0  0  0  0
    4.3981   -3.6544    4.0377 H   0  0  0  0  0  0  0  0  0  0  0  0
    3.5797   -3.9383    2.4879 H   0  0  0  0  0  0  0  0  0  0  0  0
    3.1422   -2.5743    7.3491 H   0  0  0  0  0  0  0  0  0  0  0  0
    2.1929   -1.1771    6.7582 H   0  0  0  0  0  0  0  0  0  0  0  0
    1.9086   -2.8121    6.0823 H   0  0  0  0  0  0  0  0  0  0  0  0
  1  5  1  0  0  0  0
  2  1  1  0  0  0  0
  3  1  1  0  0  0  0
  4 19  1  0  0  0  0
  5 20  1  1  0  0  0
  5  9  1  0  0  0  0
  6  5  1  0  0  0  0
  7  6  2  0  0  0  0
  7  8  1  0  0  0  0
  8 23  1  0  0  0  0
  8  9  2  0  0  0  0
  9 24  1  0  0  0  0
 10 14  2  0  0  0  0
 10 11  1  0  0  0  0
 11 12  1  0  0  0  0
 12 27  1  0  0  0  0
 13 12  2  0  0  0  0
 13 28  1  0  0  0  0
 14 13  1  0  0  0  0
 15  3  1  0  0  0  0
 15  4  1  0  0  0  0
 16 15  2  0  0  0  0
 17 30  1  0  0  0  0
 17 16  1  0  0  0  0
 18 16  1  0  0  0  0
 18 34  1  0  0  0  0
 19 37  1  0  0  0  0
 19 36  1  0  0  0  0
 21  6  1  0  0  0  0
 22  7  1  0  0  0  0
 25 10  1  0  0  0  0
 26 11  1  0  0  0  0
 29 14  1  0  0  0  0
 31 17  1  0  0  0  0
 32 17  1  0  0  0  0
 33 18  1  0  0  0  0
 35 18  1  0  0  0  0
 38 19  1  0  0  0  0
M  END
$$$$
