CSD_code = LAFYEZ | q = 0 | S = 0 | Stoichiometry = C26H21Cl2IrN6O2 | MND = 6
 OpenBabel04212202063D

 58 63  0  0  0  0  0  0  0  0999 V2000
    0.4757    3.3789    7.8317 Ir  0  0  0  0  0  0  0  0  0  0  0  0
    1.6358    1.8695    9.2376 Cl  0  0  0  0  0  0  0  0  0  0  0  0
   -0.6589    4.9875    6.5111 Cl  0  0  0  0  0  0  0  0  0  0  0  0
    1.6904    1.9677    5.5510 O   0  0  0  0  0  0  0  0  0  0  0  0
    2.2609    2.7989    5.7656 H   0  0  0  0  0  0  0  0  0  0  0  0
    2.8216    4.0982    6.4547 O   0  0  0  0  0  1  0  0  0  0  0  0
   -1.2213    2.2795    8.0016 N   0  0  0  0  0  0  0  0  0  0  0  0
   -1.2730    1.2345    7.2829 N   0  0  0  0  0  0  0  0  0  0  0  0
    0.6426    2.0041    6.3793 N   0  0  0  0  0  0  0  0  0  0  0  0
    0.5156    4.7324    9.3209 N   0  0  0  0  0  0  0  0  0  0  0  0
    1.4109    5.6232    9.2142 N   0  0  0  0  0  0  0  0  0  0  0  0
    2.1038    4.4139    7.4431 N   0  0  0  0  0  0  0  0  0  0  0  0
   -2.3092    2.4783    8.8467 C   0  0  0  0  0  0  0  0  0  0  0  0
   -2.8243    3.7660    9.0100 C   0  0  0  0  0  0  0  0  0  0  0  0
   -2.4007    4.5793    8.4422 H   0  0  0  0  0  0  0  0  0  0  0  0
   -3.9044    3.9674    9.8452 C   0  0  0  0  0  0  0  0  0  0  0  0
   -4.3129    4.9599    9.9568 H   0  0  0  0  0  0  0  0  0  0  0  0
   -4.4586    2.9044   10.5417 C   0  0  0  0  0  0  0  0  0  0  0  0
   -5.2919    3.0711   11.2071 H   0  0  0  0  0  0  0  0  0  0  0  0
   -3.9481    1.6249   10.3792 C   0  0  0  0  0  0  0  0  0  0  0  0
   -4.3823    0.7970   10.9192 H   0  0  0  0  0  0  0  0  0  0  0  0
   -2.8878    1.4031    9.5247 C   0  0  0  0  0  0  0  0  0  0  0  0
   -2.4690    0.4175    9.3914 H   0  0  0  0  0  0  0  0  0  0  0  0
   -0.2472    1.0415    6.4053 C   0  0  0  0  0  0  0  0  0  0  0  0
   -0.3000   -0.1796    5.6043 C   0  0  0  0  0  0  0  0  0  0  0  0
   -1.3003   -1.1137    5.8971 C   0  0  0  0  0  0  0  0  0  0  0  0
   -1.9990   -0.8985    6.6893 H   0  0  0  0  0  0  0  0  0  0  0  0
   -1.3916   -2.2896    5.1820 C   0  0  0  0  0  0  0  0  0  0  0  0
   -2.1666   -3.0031    5.4198 H   0  0  0  0  0  0  0  0  0  0  0  0
   -0.4921   -2.5567    4.1610 C   0  0  0  0  0  0  0  0  0  0  0  0
   -0.5638   -3.4781    3.6024 H   0  0  0  0  0  0  0  0  0  0  0  0
    0.4971   -1.6361    3.8608 C   0  0  0  0  0  0  0  0  0  0  0  0
    1.1986   -1.8371    3.0650 H   0  0  0  0  0  0  0  0  0  0  0  0
    0.5993   -0.4550    4.5729 C   0  0  0  0  0  0  0  0  0  0  0  0
    1.3759    0.2472    4.3218 H   0  0  0  0  0  0  0  0  0  0  0  0
   -0.3530    4.8594   10.4052 C   0  0  0  0  0  0  0  0  0  0  0  0
   -0.8385    6.1133   10.7778 C   0  0  0  0  0  0  0  0  0  0  0  0
   -0.5406    6.9785   10.2060 H   0  0  0  0  0  0  0  0  0  0  0  0
   -1.7081    6.2196   11.8445 C   0  0  0  0  0  0  0  0  0  0  0  0
   -2.0961    7.1877   12.1235 H   0  0  0  0  0  0  0  0  0  0  0  0
   -2.0797    5.0905   12.5587 C   0  0  0  0  0  0  0  0  0  0  0  0
   -2.7568    5.1802   13.3946 H   0  0  0  0  0  0  0  0  0  0  0  0
   -1.5747    3.8488   12.2063 C   0  0  0  0  0  0  0  0  0  0  0  0
   -1.8470    2.9723   12.7739 H   0  0  0  0  0  0  0  0  0  0  0  0
   -0.7223    3.7243   11.1274 C   0  0  0  0  0  0  0  0  0  0  0  0
   -0.3010    2.7682   10.8597 H   0  0  0  0  0  0  0  0  0  0  0  0
    2.2885    5.4931    8.2000 C   0  0  0  0  0  0  0  0  0  0  0  0
    3.3357    6.5044    8.0663 C   0  0  0  0  0  0  0  0  0  0  0  0
    4.3604    6.4085    7.1253 C   0  0  0  0  0  0  0  0  0  0  0  0
    4.4085    5.5632    6.4586 H   0  0  0  0  0  0  0  0  0  0  0  0
    5.3220    7.3994    7.0437 C   0  0  0  0  0  0  0  0  0  0  0  0
    6.1111    7.3135    6.3115 H   0  0  0  0  0  0  0  0  0  0  0  0
    5.2780    8.4935    7.8900 C   0  0  0  0  0  0  0  0  0  0  0  0
    6.0308    9.2647    7.8202 H   0  0  0  0  0  0  0  0  0  0  0  0
    4.2623    8.5951    8.8287 C   0  0  0  0  0  0  0  0  0  0  0  0
    4.2230    9.4467    9.4920 H   0  0  0  0  0  0  0  0  0  0  0  0
    3.2991    7.6117    8.9194 C   0  0  0  0  0  0  0  0  0  0  0  0
    2.5081    7.6826    9.6487 H   0  0  0  0  0  0  0  0  0  0  0  0
  1  7  1  0  0  0  0
  1  2  1  0  0  0  0
  1 10  1  0  0  0  0
  3  1  1  0  0  0  0
  4  5  1  0  0  0  0
  4  9  1  0  0  0  0
  6 12  1  0  0  0  0
  7 13  1  0  0  0  0
  8  7  1  0  0  0  0
  9 24  1  0  0  0  0
  9  1  1  0  0  0  0
 10 36  1  0  0  0  0
 11 10  1  0  0  0  0
 12  1  1  0  0  0  0
 12 47  1  0  0  0  0
 13 14  2  0  0  0  0
 13 22  1  0  0  0  0
 14 16  1  0  0  0  0
 15 14  1  0  0  0  0
 16 17  1  0  0  0  0
 16 18  2  0  0  0  0
 18 19  1  0  0  0  0
 20 18  1  0  0  0  0
 20 21  1  0  0  0  0
 22 20  2  0  0  0  0
 23 22  1  0  0  0  0
 24  8  2  0  0  0  0
 25 26  1  0  0  0  0
 25 24  1  0  0  0  0
 26 27  1  0  0  0  0
 28 29  1  0  0  0  0
 28 26  2  0  0  0  0
 30 28  1  0  0  0  0
 31 30  1  0  0  0  0
 32 30  2  0  0  0  0
 32 34  1  0  0  0  0
 33 32  1  0  0  0  0
 34 25  2  0  0  0  0
 35 34  1  0  0  0  0
 36 37  2  0  0  0  0
 36 45  1  0  0  0  0
 37 39  1  0  0  0  0
 38 37  1  0  0  0  0
 39 40  1  0  0  0  0
 39 41  2  0  0  0  0
 41 42  1  0  0  0  0
 43 41  1  0  0  0  0
 43 44  1  0  0  0  0
 45 43  2  0  0  0  0
 46 45  1  0  0  0  0
 47 11  2  0  0  0  0
 48 47  1  0  0  0  0
 48 57  1  0  0  0  0
 49 48  2  0  0  0  0
 50 49  1  0  0  0  0
 51 49  1  0  0  0  0
 51 53  2  0  0  0  0
 52 51  1  0  0  0  0
 53 55  1  0  0  0  0
 54 53  1  0  0  0  0
 55 57  2  0  0  0  0
 55 56  1  0  0  0  0
 57 58  1  0  0  0  0
M  END
$$$$
