CSD_code = LAGWIC | q = 0 | S = 0 | Stoichiometry = C18H35Cl2IrN2P2 | MND = 6
 OpenBabel04212202063D

 60 62  0  0  1  0  0  0  0  0999 V2000
    3.1731    6.5297   15.9548 Ir  0  0  0  0  0  0  0  0  0  0  0  0
    2.2064    6.8421   17.0912 H   0  0  0  0  0  0  0  0  0  0  0  0
    4.3659    8.4901   16.1417 P   0  0  0  0  0  4  0  0  0  0  0  0
    1.8282    4.7558   15.3405 P   0  0  0  0  0  4  0  0  0  0  0  0
    2.1329    7.5299   14.5765 N   0  0  0  0  0  0  0  0  0  0  0  0
    2.6170    8.6536   14.0187 C   0  0  2  0  0  3  0  0  0  0  0  0
    1.9165    9.2680   12.9857 C   0  0  0  0  0  0  0  0  0  0  0  0
    2.2866   10.1774   12.5335 H   0  0  0  0  0  0  0  0  0  0  0  0
    0.7908    8.7841   12.4923 N   0  0  0  0  0  0  0  0  0  0  0  0
    0.3363    7.6682   13.0384 C   0  0  0  0  0  0  0  0  0  0  0  0
   -0.5806    7.2722   12.6251 H   0  0  0  0  0  0  0  0  0  0  0  0
    0.9792    7.0294   14.0898 C   0  0  0  0  0  0  0  0  0  0  0  0
    3.9263    9.1988   14.4852 C   0  0  0  0  0  0  0  0  0  0  0  0
    3.9247   10.2918   14.4715 H   0  0  0  0  0  0  0  0  0  0  0  0
    4.6990    8.8399   13.7959 H   0  0  0  0  0  0  0  0  0  0  0  0
    0.4181    5.8000   14.7236 C   0  0  0  0  0  0  0  0  0  0  0  0
   -0.2604    5.2750   14.0492 H   0  0  0  0  0  0  0  0  0  0  0  0
   -0.1323    6.0954   15.6241 H   0  0  0  0  0  0  0  0  0  0  0  0
    6.2214    8.5674   16.1088 C   0  0  0  0  0  0  0  0  0  0  0  0
    6.4667    8.0342   15.1813 H   0  0  0  0  0  0  0  0  0  0  0  0
    6.7701    9.9887   16.0274 C   0  0  0  0  0  0  0  0  0  0  0  0
    6.6258   10.5190   16.9666 H   0  0  0  0  0  0  0  0  0  0  0  0
    6.3046   10.5582   15.2247 H   0  0  0  0  0  0  0  0  0  0  0  0
    7.8405    9.9462   15.8322 H   0  0  0  0  0  0  0  0  0  0  0  0
    6.8400    7.7892   17.2670 C   0  0  0  0  0  0  0  0  0  0  0  0
    7.8973    7.6181   17.0722 H   0  0  0  0  0  0  0  0  0  0  0  0
    6.3517    6.8230   17.3822 H   0  0  0  0  0  0  0  0  0  0  0  0
    6.7531    8.3308   18.2057 H   0  0  0  0  0  0  0  0  0  0  0  0
    3.7790    9.8321   17.2909 C   0  0  0  0  0  0  0  0  0  0  0  0
    4.3344   10.7484   17.0592 H   0  0  0  0  0  0  0  0  0  0  0  0
    4.0368    9.4046   18.7323 C   0  0  0  0  0  0  0  0  0  0  0  0
    3.5142   10.0628   19.4243 H   0  0  0  0  0  0  0  0  0  0  0  0
    5.0961    9.4359   18.9714 H   0  0  0  0  0  0  0  0  0  0  0  0
    3.6813    8.3859   18.8837 H   0  0  0  0  0  0  0  0  0  0  0  0
    2.2906   10.0863   17.0738 C   0  0  0  0  0  0  0  0  0  0  0  0
    1.7274    9.1732   17.2576 H   0  0  0  0  0  0  0  0  0  0  0  0
    2.0786   10.4278   16.0619 H   0  0  0  0  0  0  0  0  0  0  0  0
    1.9401   10.8493   17.7668 H   0  0  0  0  0  0  0  0  0  0  0  0
    2.2326    3.6372   13.9140 C   0  0  0  0  0  0  0  0  0  0  0  0
    1.4171    2.9040   13.8422 H   0  0  0  0  0  0  0  0  0  0  0  0
    2.3464    4.4001   12.5991 C   0  0  0  0  0  0  0  0  0  0  0  0
    3.1207    5.1608   12.6746 H   0  0  0  0  0  0  0  0  0  0  0  0
    1.4079    4.8761   12.3182 H   0  0  0  0  0  0  0  0  0  0  0  0
    2.6301    3.7141   11.8025 H   0  0  0  0  0  0  0  0  0  0  0  0
    3.5402    2.9185   14.2382 C   0  0  0  0  0  0  0  0  0  0  0  0
    3.7657    2.1749   13.4760 H   0  0  0  0  0  0  0  0  0  0  0  0
    3.4941    2.4214   15.2065 H   0  0  0  0  0  0  0  0  0  0  0  0
    4.3556    3.6372   14.2685 H   0  0  0  0  0  0  0  0  0  0  0  0
    1.0206    3.5719   16.5285 C   0  0  0  0  0  0  0  0  0  0  0  0
    1.6953    2.7071   16.5544 H   0  0  0  0  0  0  0  0  0  0  0  0
    0.9614    4.1695   17.9295 C   0  0  0  0  0  0  0  0  0  0  0  0
    0.3271    5.0538   17.9495 H   0  0  0  0  0  0  0  0  0  0  0  0
    1.9581    4.4533   18.2598 H   0  0  0  0  0  0  0  0  0  0  0  0
    0.5564    3.4412   18.6295 H   0  0  0  0  0  0  0  0  0  0  0  0
   -0.3627    3.1110   16.0735 C   0  0  0  0  0  0  0  0  0  0  0  0
   -0.6943    2.2904   16.7073 H   0  0  0  0  0  0  0  0  0  0  0  0
   -0.3612    2.7569   15.0447 H   0  0  0  0  0  0  0  0  0  0  0  0
   -1.0894    3.9151   16.1637 H   0  0  0  0  0  0  0  0  0  0  0  0
    4.8337    6.1959   14.1822 Cl  0  0  0  0  0  0  0  0  0  0  0  0
    4.3791    5.2446   17.4777 Cl  0  0  0  0  0  0  0  0  0  0  0  0
  1  3  1  0  0  0  0
  1  2  1  0  0  0  0
  1 60  1  0  0  0  0
  3 29  1  0  0  0  0
  4  1  1  0  0  0  0
  4 49  1  0  0  0  0
  5  1  1  0  0  0  0
  6  7  1  6  0  0  0
  6 13  1  0  0  0  0
  6  5  1  0  0  0  0
  8  7  1  0  0  0  0
  9  7  2  0  0  0  0
  9 10  1  0  0  0  0
 10 12  2  0  0  0  0
 11 10  1  0  0  0  0
 12  5  1  0  0  0  0
 12 16  1  0  0  0  0
 13  3  1  0  0  0  0
 14 13  1  0  0  0  0
 15 13  1  0  0  0  0
 16  4  1  0  0  0  0
 16 18  1  0  0  0  0
 17 16  1  0  0  0  0
 19  3  1  0  0  0  0
 19 25  1  0  0  0  0
 20 19  1  0  0  0  0
 21 19  1  0  0  0  0
 21 22  1  0  0  0  0
 23 21  1  0  0  0  0
 24 21  1  0  0  0  0
 25 27  1  0  0  0  0
 25 28  1  0  0  0  0
 26 25  1  0  0  0  0
 29 31  1  0  0  0  0
 30 29  1  0  0  0  0
 31 34  1  0  0  0  0
 31 33  1  0  0  0  0
 31 32  1  0  0  0  0
 35 36  1  0  0  0  0
 35 29  1  0  0  0  0
 35 38  1  0  0  0  0
 37 35  1  0  0  0  0
 39 45  1  0  0  0  0
 39  4  1  0  0  0  0
 40 39  1  0  0  0  0
 41 42  1  0  0  0  0
 41 39  1  0  0  0  0
 43 41  1  0  0  0  0
 44 41  1  0  0  0  0
 45 48  1  0  0  0  0
 45 47  1  0  0  0  0
 46 45  1  0  0  0  0
 49 50  1  0  0  0  0
 49 51  1  0  0  0  0
 51 52  1  0  0  0  0
 51 53  1  0  0  0  0
 51 54  1  0  0  0  0
 55 58  1  0  0  0  0
 55 49  1  0  0  0  0
 55 56  1  0  0  0  0
 57 55  1  0  0  0  0
 59  1  1  0  0  0  0
M  END
$$$$
