CSD_code = LAHMAK | q = 0 | S = 0 | Stoichiometry = C24H21Cl4NO2P2Zr | MND = 6
 OpenBabel04212202063D

 55 59  0  0  0  0  0  0  0  0999 V2000
   10.7111    3.3063   13.6064 Zr  0  0  0  0  0  0  0  0  0  0  0  0
   10.5477    4.8679   15.4481 Cl  0  0  0  0  0  0  0  0  0  0  0  0
   11.5213    1.6541   15.0151 Cl  0  0  0  0  0  0  0  0  0  0  0  0
   10.9980    1.9918   11.6675 Cl  0  0  0  0  0  0  0  0  0  0  0  0
    8.4932    2.7138   13.8722 Cl  0  0  0  0  0  0  0  0  0  0  0  0
   10.8432    6.1718   12.2311 P   0  0  0  0  0  4  0  0  0  0  0  0
   13.0912    5.3067   13.7571 P   0  0  0  0  0  4  0  0  0  0  0  0
   10.1073    4.8848   12.4444 O   0  0  0  0  0  0  0  0  0  0  0  0
   12.6079    3.9863   13.2319 O   0  0  0  0  0  0  0  0  0  0  0  0
   11.9558    6.5534   13.4747 N   0  0  0  0  0  0  0  0  0  0  0  0
   11.5003    6.8667   14.3315 H   0  0  0  0  0  0  0  0  0  0  0  0
   11.9293    6.0852   10.7975 C   0  0  0  0  0  0  0  0  0  0  0  0
   12.7515    7.1584   10.4686 C   0  0  0  0  0  0  0  0  0  0  0  0
   12.7116    8.0622   11.0592 H   0  0  0  0  0  0  0  0  0  0  0  0
   13.6214    7.0479    9.4004 C   0  0  0  0  0  0  0  0  0  0  0  0
   14.2637    7.8757    9.1409 H   0  0  0  0  0  0  0  0  0  0  0  0
   13.6729    5.8705    8.6686 C   0  0  0  0  0  0  0  0  0  0  0  0
   14.3590    5.7870    7.8391 H   0  0  0  0  0  0  0  0  0  0  0  0
   12.8506    4.8051    8.9961 C   0  0  0  0  0  0  0  0  0  0  0  0
   12.8929    3.8886    8.4286 H   0  0  0  0  0  0  0  0  0  0  0  0
   11.9687    4.9080   10.0598 C   0  0  0  0  0  0  0  0  0  0  0  0
   11.3287    4.0749   10.3311 H   0  0  0  0  0  0  0  0  0  0  0  0
    9.6751    7.5440   12.2774 C   0  0  0  0  0  0  0  0  0  0  0  0
    8.7887    7.5358   13.3508 C   0  0  0  0  0  0  0  0  0  0  0  0
    8.8527    6.7452   14.0897 H   0  0  0  0  0  0  0  0  0  0  0  0
    7.8273    8.5252   13.4474 C   0  0  0  0  0  0  0  0  0  0  0  0
    7.1358    8.5241   14.2757 H   0  0  0  0  0  0  0  0  0  0  0  0
    7.7483    9.5102   12.4742 C   0  0  0  0  0  0  0  0  0  0  0  0
    6.9940   10.2790   12.5477 H   0  0  0  0  0  0  0  0  0  0  0  0
    8.6246    9.5064   11.4010 C   0  0  0  0  0  0  0  0  0  0  0  0
    8.5505   10.2683   10.6397 H   0  0  0  0  0  0  0  0  0  0  0  0
    9.5913    8.5202   11.2963 C   0  0  0  0  0  0  0  0  0  0  0  0
   10.2694    8.5008   10.4559 H   0  0  0  0  0  0  0  0  0  0  0  0
   14.5050    5.8115   12.7492 C   0  0  0  0  0  0  0  0  0  0  0  0
   15.0458    7.0862   12.8522 C   0  0  0  0  0  0  0  0  0  0  0  0
   14.6148    7.7937   13.5443 H   0  0  0  0  0  0  0  0  0  0  0  0
   16.1215    7.4397   12.0588 C   0  0  0  0  0  0  0  0  0  0  0  0
   16.5439    8.4306   12.1325 H   0  0  0  0  0  0  0  0  0  0  0  0
   16.6589    6.5213   11.1698 C   0  0  0  0  0  0  0  0  0  0  0  0
   17.4987    6.8013   10.5517 H   0  0  0  0  0  0  0  0  0  0  0  0
   16.1252    5.2466   11.0748 C   0  0  0  0  0  0  0  0  0  0  0  0
   16.5475    4.5322   10.3849 H   0  0  0  0  0  0  0  0  0  0  0  0
   15.0495    4.8875   11.8676 C   0  0  0  0  0  0  0  0  0  0  0  0
   14.6127    3.9006   11.8074 H   0  0  0  0  0  0  0  0  0  0  0  0
   13.5419    5.2783   15.5013 C   0  0  0  0  0  0  0  0  0  0  0  0
   13.7493    4.0300   16.0781 C   0  0  0  0  0  0  0  0  0  0  0  0
   13.5997    3.1319   15.4891 H   0  0  0  0  0  0  0  0  0  0  0  0
   14.0986    3.9507   17.4144 C   0  0  0  0  0  0  0  0  0  0  0  0
   14.2356    2.9836   17.8723 H   0  0  0  0  0  0  0  0  0  0  0  0
   14.2547    5.1081   18.1607 C   0  0  0  0  0  0  0  0  0  0  0  0
   14.5186    5.0434   19.2054 H   0  0  0  0  0  0  0  0  0  0  0  0
   14.0637    6.3501   17.5754 C   0  0  0  0  0  0  0  0  0  0  0  0
   14.1815    7.2483   18.1625 H   0  0  0  0  0  0  0  0  0  0  0  0
   13.7077    6.4415   16.2422 C   0  0  0  0  0  0  0  0  0  0  0  0
   13.5378    7.4049   15.7846 H   0  0  0  0  0  0  0  0  0  0  0  0
  1  5  1  0  0  0  0
  1  3  1  0  0  0  0
  1  2  1  0  0  0  0
  4  1  1  0  0  0  0
  6 23  1  0  0  0  0
  6  8  1  0  0  0  0
  6 10  1  0  0  0  0
  7 45  1  0  0  0  0
  8  1  1  0  0  0  0
  9  1  1  0  0  0  0
  9  7  1  0  0  0  0
 10  7  1  0  0  0  0
 10 11  1  0  0  0  0
 12  6  1  0  0  0  0
 13 12  1  0  0  0  0
 13 14  1  0  0  0  0
 15 13  2  0  0  0  0
 16 15  1  0  0  0  0
 17 19  2  0  0  0  0
 17 15  1  0  0  0  0
 18 17  1  0  0  0  0
 19 21  1  0  0  0  0
 20 19  1  0  0  0  0
 21 22  1  0  0  0  0
 21 12  2  0  0  0  0
 23 24  1  0  0  0  0
 24 26  2  0  0  0  0
 24 25  1  0  0  0  0
 26 27  1  0  0  0  0
 28 29  1  0  0  0  0
 28 26  1  0  0  0  0
 30 28  2  0  0  0  0
 31 30  1  0  0  0  0
 32 30  1  0  0  0  0
 32 23  2  0  0  0  0
 33 32  1  0  0  0  0
 34 35  1  0  0  0  0
 34  7  1  0  0  0  0
 35 36  1  0  0  0  0
 37 38  1  0  0  0  0
 37 35  2  0  0  0  0
 39 37  1  0  0  0  0
 40 39  1  0  0  0  0
 41 39  2  0  0  0  0
 41 43  1  0  0  0  0
 42 41  1  0  0  0  0
 43 34  2  0  0  0  0
 44 43  1  0  0  0  0
 45 46  2  0  0  0  0
 45 54  1  0  0  0  0
 46 48  1  0  0  0  0
 47 46  1  0  0  0  0
 48 49  1  0  0  0  0
 48 50  2  0  0  0  0
 50 51  1  0  0  0  0
 52 50  1  0  0  0  0
 52 53  1  0  0  0  0
 54 52  2  0  0  0  0
 55 54  1  0  0  0  0
M  END
$$$$
