CSD_code = LAHROB | q = 0 | S = 0 | Stoichiometry = C5H4F7NW | MND = 7
 OpenBabel04212202063D

 18 17  0  0  0  0  0  0  0  0999 V2000
    0.5189   -0.9351    2.1361 W   0  0  0  0  0  0  0  0  0  0  0  0
    0.1719   -3.8535    1.8924 F   0  0  0  0  0  0  0  0  0  0  0  0
    0.0874    0.8703    1.9817 F   0  0  0  0  0  0  0  0  0  0  0  0
   -1.1681   -1.0287    1.3313 F   0  0  0  0  0  0  0  0  0  0  0  0
    2.2507   -0.3124    1.6200 F   0  0  0  0  0  0  0  0  0  0  0  0
    0.9087   -1.8689    0.5220 F   0  0  0  0  0  0  0  0  0  0  0  0
   -0.4661   -1.9474    3.4149 F   0  0  0  0  0  0  0  0  0  0  0  0
    1.2012   -0.3744    3.8316 F   0  0  0  0  0  0  0  0  0  0  0  0
    1.8965   -2.7117    2.7409 N   0  0  0  0  0  0  0  0  0  0  0  0
    1.3853   -3.9048    2.4654 C   0  0  0  0  0  0  0  0  0  0  0  0
    2.0100   -5.1098    2.7267 C   0  0  0  0  0  0  0  0  0  0  0  0
    3.2633   -5.0450    3.3205 C   0  0  0  0  0  0  0  0  0  0  0  0
    3.8166   -3.8050    3.6166 C   0  0  0  0  0  0  0  0  0  0  0  0
    3.1038   -2.6563    3.3127 C   0  0  0  0  0  0  0  0  0  0  0  0
    1.5328   -6.0429    2.4752 H   0  0  0  0  0  0  0  0  0  0  0  0
    3.7992   -5.9539    3.5479 H   0  0  0  0  0  0  0  0  0  0  0  0
    4.7886   -3.7320    4.0770 H   0  0  0  0  0  0  0  0  0  0  0  0
    3.4749   -1.6571    3.5164 H   0  0  0  0  0  0  0  0  0  0  0  0
  1  7  1  0  0  0  0
  1  8  1  0  0  0  0
  2 10  1  0  0  0  0
  3  1  1  0  0  0  0
  4  1  1  0  0  0  0
  5  1  1  0  0  0  0
  6  1  1  0  0  0  0
  9 14  1  0  0  0  0
 10 11  1  0  0  0  0
 10  9  2  0  0  0  0
 11 12  2  0  0  0  0
 12 16  1  0  0  0  0
 12 13  1  0  0  0  0
 13 17  1  0  0  0  0
 14 18  1  0  0  0  0
 14 13  2  0  0  0  0
 15 11  1  0  0  0  0
M  END
$$$$
