CSD_code = LAJBOO | q = 0 | S = 0 | Stoichiometry = C10H8Cl2N4Pt | MND = 4
 OpenBabel04212202063D

 25 27  0  0  1  0  0  0  0  0999 V2000
    4.2495    6.5490    0.0712 Pt  0  0  0  0  0  0  0  0  0  0  0  0
    2.4278    5.5142   -0.6832 Cl  0  0  0  0  0  0  0  0  0  0  0  0
    2.9404    7.8022    1.3811 Cl  0  0  0  0  0  0  0  0  0  0  0  0
    5.5501    5.7291   -1.0661 N   0  0  0  0  0  0  0  0  0  0  0  0
    5.9825    7.1547    0.9293 N   0  0  0  0  0  0  0  0  0  0  0  0
    6.7947    5.7385   -0.7106 N   0  0  0  0  0  2  0  0  0  0  0  0
    4.1862    5.8352   -2.8796 N   0  0  0  0  0  0  0  0  0  0  0  0
    7.0285    6.4497    0.4090 C   0  0  1  0  0  3  0  0  0  0  0  0
    8.3155    6.5526    0.9573 C   0  0  0  0  0  0  0  0  0  0  0  0
    9.1093    5.9727    0.5174 H   0  0  0  0  0  0  0  0  0  0  0  0
    8.5142    7.3859    2.0327 C   0  0  0  0  0  0  0  0  0  0  0  0
    9.4926    7.4809    2.4776 H   0  0  0  0  0  0  0  0  0  0  0  0
    7.4351    8.1096    2.5435 C   0  0  0  0  0  0  0  0  0  0  0  0
    7.5615    8.7721    3.3836 H   0  0  0  0  0  0  0  0  0  0  0  0
    6.1917    7.9669    1.9621 C   0  0  0  0  0  0  0  0  0  0  0  0
    5.3234    8.5031    2.3220 H   0  0  0  0  0  0  0  0  0  0  0  0
    5.2428    5.2455   -2.3257 C   0  0  0  0  0  0  0  0  0  0  0  0
    5.9602    4.2166   -2.9394 C   0  0  0  0  0  0  0  0  0  0  0  0
    6.8075    3.7817   -2.4347 H   0  0  0  0  0  0  0  0  0  0  0  0
    5.5201    3.7786   -4.1741 C   0  0  0  0  0  0  0  0  0  0  0  0
    6.0360    2.9778   -4.6827 H   0  0  0  0  0  0  0  0  0  0  0  0
    4.4065    4.3789   -4.7468 C   0  0  0  0  0  0  0  0  0  0  0  0
    4.0369    4.0587   -5.7077 H   0  0  0  0  0  0  0  0  0  0  0  0
    3.7802    5.4101   -4.0578 C   0  0  0  0  0  0  0  0  0  0  0  0
    2.9188    5.9204   -4.4650 H   0  0  0  0  0  0  0  0  0  0  0  0
  1  5  1  0  0  0  0
  1  3  1  0  0  0  0
  2  1  1  0  0  0  0
  4  6  1  0  0  0  0
  4  1  1  0  0  0  0
  5 15  1  0  0  0  0
  7 17  1  0  0  0  0
  8  6  1  6  0  0  0
  8  5  1  0  0  0  0
  8  9  1  0  0  0  0
  9 11  2  0  0  0  0
 10  9  1  0  0  0  0
 11 12  1  0  0  0  0
 11 13  1  0  0  0  0
 13 14  1  0  0  0  0
 15 16  1  0  0  0  0
 15 13  2  0  0  0  0
 17  4  1  0  0  0  0
 18 19  1  0  0  0  0
 18 17  2  0  0  0  0
 20 18  1  0  0  0  0
 21 20  1  0  0  0  0
 22 20  2  0  0  0  0
 22 24  1  0  0  0  0
 23 22  1  0  0  0  0
 24  7  2  0  0  0  0
 25 24  1  0  0  0  0
M  END
$$$$
