CSD_code = LAJWEY | q = 0 | S = 0 | Stoichiometry = C17H37ClIrOP3 | MND = 6
 OpenBabel04212202063D

 60 60  0  0  0  0  0  0  0  0999 V2000
    3.0302    2.1405    2.1421 Ir  0  0  0  0  0  0  0  0  0  0  0  0
    0.7493    2.6126    1.9943 P   0  0  0  0  0  4  0  0  0  0  0  0
   -0.2184    2.4409    3.5448 C   0  0  0  0  0  0  0  0  0  0  0  0
   -0.3647    1.7901    0.7847 C   0  0  0  0  0  0  0  0  0  0  0  0
    0.4184    4.3682    1.6297 C   0  0  0  0  0  0  0  0  0  0  0  0
    2.8422    0.1931    3.3775 P   0  0  0  0  0  4  0  0  0  0  0  0
    2.6851    0.3101    5.1951 C   0  0  0  0  0  0  0  0  0  0  0  0
    1.4543   -0.9371    2.9586 C   0  0  0  0  0  0  0  0  0  0  0  0
    4.2063   -1.0257    3.1987 C   0  0  0  0  0  0  0  0  0  0  0  0
    5.3011    2.5310    2.5037 P   0  0  0  0  0  4  0  0  0  0  0  0
    6.5355    1.7031    1.4239 C   0  0  0  0  0  0  0  0  0  0  0  0
    5.7907    4.2744    2.3054 C   0  0  0  0  0  0  0  0  0  0  0  0
    5.9878    2.2127    4.1771 C   0  0  0  0  0  0  0  0  0  0  0  0
    2.8867    3.4974    4.1302 Cl  0  0  0  0  0  0  0  0  0  0  0  0
    3.2942    3.9192    1.0753 O   0  0  0  0  0  0  0  0  0  0  0  0
    3.0793    4.2239   -0.1785 C   0  0  0  0  0  0  0  0  0  0  0  0
    3.4097    5.5283   -0.5950 C   0  0  0  0  0  0  0  0  0  0  0  0
    3.1848    5.9519   -1.8893 C   0  0  0  0  0  0  0  0  0  0  0  0
    3.5289    7.3544   -2.3033 C   0  0  0  0  0  0  0  0  0  0  0  0
    2.6204    5.0760   -2.8093 C   0  0  0  0  0  0  0  0  0  0  0  0
    2.2903    3.7813   -2.4341 C   0  0  0  0  0  0  0  0  0  0  0  0
    1.6659    2.8442   -3.4292 C   0  0  0  0  0  0  0  0  0  0  0  0
    2.5200    3.3665   -1.1349 C   0  0  0  0  0  0  0  0  0  0  0  0
    3.1828    1.2833    0.8862 H   0  0  0  0  0  0  0  0  0  0  0  0
   -1.2204    2.8421    3.3971 H   0  0  0  0  0  0  0  0  0  0  0  0
   -0.2893    1.4013    3.8555 H   0  0  0  0  0  0  0  0  0  0  0  0
    0.2931    3.0076    4.3204 H   0  0  0  0  0  0  0  0  0  0  0  0
   -1.3842    2.1532    0.9075 H   0  0  0  0  0  0  0  0  0  0  0  0
   -0.0192    2.0197   -0.2200 H   0  0  0  0  0  0  0  0  0  0  0  0
   -0.3416    0.7120    0.9242 H   0  0  0  0  0  0  0  0  0  0  0  0
   -0.6436    4.5779    1.7619 H   0  0  0  0  0  0  0  0  0  0  0  0
    1.0071    4.9754    2.3149 H   0  0  0  0  0  0  0  0  0  0  0  0
    0.7217    4.5989    0.6102 H   0  0  0  0  0  0  0  0  0  0  0  0
    2.6047   -0.6798    5.6432 H   0  0  0  0  0  0  0  0  0  0  0  0
    3.5532    0.8338    5.5888 H   0  0  0  0  0  0  0  0  0  0  0  0
    1.8064    0.9054    5.4328 H   0  0  0  0  0  0  0  0  0  0  0  0
    1.5062   -1.8397    3.5668 H   0  0  0  0  0  0  0  0  0  0  0  0
    0.4977   -0.4476    3.1200 H   0  0  0  0  0  0  0  0  0  0  0  0
    1.5386   -1.1994    1.9058 H   0  0  0  0  0  0  0  0  0  0  0  0
    4.0060   -1.9096    3.8036 H   0  0  0  0  0  0  0  0  0  0  0  0
    4.2718   -1.3057    2.1492 H   0  0  0  0  0  0  0  0  0  0  0  0
    5.1542   -0.5881    3.4996 H   0  0  0  0  0  0  0  0  0  0  0  0
    7.5430    2.0423    1.6606 H   0  0  0  0  0  0  0  0  0  0  0  0
    6.4735    0.6238    1.5413 H   0  0  0  0  0  0  0  0  0  0  0  0
    6.2987    1.9522    0.3916 H   0  0  0  0  0  0  0  0  0  0  0  0
    6.8223    4.4029    2.6352 H   0  0  0  0  0  0  0  0  0  0  0  0
    5.6859    4.5638    1.2628 H   0  0  0  0  0  0  0  0  0  0  0  0
    5.1240    4.8887    2.9067 H   0  0  0  0  0  0  0  0  0  0  0  0
    7.0303    2.5274    4.2093 H   0  0  0  0  0  0  0  0  0  0  0  0
    5.4076    2.7951    4.8903 H   0  0  0  0  0  0  0  0  0  0  0  0
    5.9225    1.1608    4.4433 H   0  0  0  0  0  0  0  0  0  0  0  0
    3.8372    6.2014    0.1352 H   0  0  0  0  0  0  0  0  0  0  0  0
    4.0398    7.3565   -3.2650 H   0  0  0  0  0  0  0  0  0  0  0  0
    2.6204    7.9492   -2.4068 H   0  0  0  0  0  0  0  0  0  0  0  0
    4.1677    7.8329   -1.5647 H   0  0  0  0  0  0  0  0  0  0  0  0
    2.4421    5.4047   -3.8236 H   0  0  0  0  0  0  0  0  0  0  0  0
    2.1509    2.9340   -4.3995 H   0  0  0  0  0  0  0  0  0  0  0  0
    1.7433    1.8127   -3.0923 H   0  0  0  0  0  0  0  0  0  0  0  0
    0.6094    3.0834   -3.5618 H   0  0  0  0  0  0  0  0  0  0  0  0
    2.2830    2.3545   -0.8369 H   0  0  0  0  0  0  0  0  0  0  0  0
  1 10  1  0  0  0  0
  1  6  1  0  0  0  0
  1 14  1  0  0  0  0
  2  1  1  0  0  0  0
  2  3  1  0  0  0  0
  3 26  1  0  0  0  0
  3 27  1  0  0  0  0
  4 28  1  0  0  0  0
  4 30  1  0  0  0  0
  4  2  1  0  0  0  0
  5 31  1  0  0  0  0
  5  2  1  0  0  0  0
  5 32  1  0  0  0  0
  6  7  1  0  0  0  0
  7 36  1  0  0  0  0
  7 35  1  0  0  0  0
  7 34  1  0  0  0  0
  8 38  1  0  0  0  0
  8  6  1  0  0  0  0
  8 37  1  0  0  0  0
  9  6  1  0  0  0  0
  9 42  1  0  0  0  0
  9 40  1  0  0  0  0
 10 13  1  0  0  0  0
 11 44  1  0  0  0  0
 11 43  1  0  0  0  0
 11 10  1  0  0  0  0
 12 10  1  0  0  0  0
 12 46  1  0  0  0  0
 12 48  1  0  0  0  0
 13 49  1  0  0  0  0
 13 51  1  0  0  0  0
 13 50  1  0  0  0  0
 15  1  1  0  0  0  0
 16 15  1  0  0  0  0
 17 16  1  0  0  0  0
 17 52  1  0  0  0  0
 18 17  2  0  0  0  0
 19 18  1  0  0  0  0
 19 55  1  0  0  0  0
 20 21  2  0  0  0  0
 20 18  1  0  0  0  0
 21 23  1  0  0  0  0
 22 58  1  0  0  0  0
 22 21  1  0  0  0  0
 23 60  1  0  0  0  0
 23 16  2  0  0  0  0
 24  1  1  0  0  0  0
 25  3  1  0  0  0  0
 29  4  1  0  0  0  0
 33  5  1  0  0  0  0
 39  8  1  0  0  0  0
 41  9  1  0  0  0  0
 45 11  1  0  0  0  0
 47 12  1  0  0  0  0
 53 19  1  0  0  0  0
 54 19  1  0  0  0  0
 56 20  1  0  0  0  0
 57 22  1  0  0  0  0
 59 22  1  0  0  0  0
M  END
$$$$
