CSD_code = LAJYEB | q = 0 | S = 0 | Stoichiometry = C11H24Cl2PdS2 | MND = 4
 OpenBabel04212202063D

 40 40  0  0  0  0  0  0  0  0999 V2000
   10.6769    7.7269    4.5048 Pd  0  0  0  0  0  0  0  0  0  0  0  0
   10.0664    9.6690    5.4427 Cl  0  0  0  0  0  0  0  0  0  0  0  0
   12.5609    7.7455    5.7230 Cl  0  0  0  0  0  0  0  0  0  0  0  0
    8.5599    7.6490    3.4640 S   0  0  2  0  0  3  0  0  0  0  0  0
   11.7189    5.8733    3.4558 S   0  0  1  0  0  3  0  0  0  0  0  0
    5.5026    8.3017    7.0233 C   0  0  0  0  0  0  0  0  0  0  0  0
    6.4881    8.6882    7.2673 H   0  0  0  0  0  0  0  0  0  0  0  0
    4.9433    8.1992    7.9499 H   0  0  0  0  0  0  0  0  0  0  0  0
    4.9932    9.0283    6.3946 H   0  0  0  0  0  0  0  0  0  0  0  0
    5.5923    6.9547    6.3164 C   0  0  0  0  0  0  0  0  0  0  0  0
    4.5834    6.5633    6.1684 H   0  0  0  0  0  0  0  0  0  0  0  0
    6.1321    6.2458    6.9480 H   0  0  0  0  0  0  0  0  0  0  0  0
    6.2778    7.0375    4.9498 C   0  0  0  0  0  0  0  0  0  0  0  0
    6.1621    6.0770    4.4410 H   0  0  0  0  0  0  0  0  0  0  0  0
    5.7881    7.8026    4.3434 H   0  0  0  0  0  0  0  0  0  0  0  0
    7.7522    7.3805    5.0818 C   0  0  0  0  0  0  0  0  0  0  0  0
    8.3107    6.6011    5.6219 H   0  0  0  0  0  0  0  0  0  0  0  0
    7.8888    8.3382    5.5906 H   0  0  0  0  0  0  0  0  0  0  0  0
    8.4613    5.9536    2.7523 C   0  0  0  0  0  0  0  0  0  0  0  0
    8.5948    5.2349    3.5629 H   0  0  0  0  0  0  0  0  0  0  0  0
    7.4587    5.8532    2.3377 H   0  0  0  0  0  0  0  0  0  0  0  0
    9.5160    5.7596    1.6636 C   0  0  0  0  0  0  0  0  0  0  0  0
    9.8038    6.7379    1.2661 H   0  0  0  0  0  0  0  0  0  0  0  0
    9.0859    5.1885    0.8370 H   0  0  0  0  0  0  0  0  0  0  0  0
   10.7448    5.0110    2.1597 C   0  0  0  0  0  0  0  0  0  0  0  0
   11.4329    4.8137    1.3386 H   0  0  0  0  0  0  0  0  0  0  0  0
   10.4559    4.0596    2.6068 H   0  0  0  0  0  0  0  0  0  0  0  0
   12.6761    7.0278    2.3956 C   0  0  0  0  0  0  0  0  0  0  0  0
   12.0100    7.3884    1.6071 H   0  0  0  0  0  0  0  0  0  0  0  0
   12.9627    7.8615    3.0509 H   0  0  0  0  0  0  0  0  0  0  0  0
   13.9173    6.3560    1.8308 C   0  0  0  0  0  0  0  0  0  0  0  0
   14.3778    7.0318    1.1056 H   0  0  0  0  0  0  0  0  0  0  0  0
   13.6415    5.4406    1.2990 H   0  0  0  0  0  0  0  0  0  0  0  0
   14.9217    6.0224    2.9313 C   0  0  0  0  0  0  0  0  0  0  0  0
   15.2275    6.9445    3.4280 H   0  0  0  0  0  0  0  0  0  0  0  0
   14.4355    5.3952    3.6812 H   0  0  0  0  0  0  0  0  0  0  0  0
   16.1464    5.3053    2.3795 C   0  0  0  0  0  0  0  0  0  0  0  0
   15.8640    4.3629    1.9139 H   0  0  0  0  0  0  0  0  0  0  0  0
   16.8527    5.0944    3.1778 H   0  0  0  0  0  0  0  0  0  0  0  0
   16.6459    5.9196    1.6330 H   0  0  0  0  0  0  0  0  0  0  0  0
  1  2  1  0  0  0  0
  1  3  1  0  0  0  0
  4  1  1  0  0  0  0
  4 16  1  1  0  0  0
  5 28  1  6  0  0  0
  5  1  1  0  0  0  0
  6  7  1  0  0  0  0
  6  8  1  0  0  0  0
  9  6  1  0  0  0  0
 10 12  1  0  0  0  0
 10  6  1  0  0  0  0
 11 10  1  0  0  0  0
 13 16  1  0  0  0  0
 13 10  1  0  0  0  0
 14 13  1  0  0  0  0
 15 13  1  0  0  0  0
 16 18  1  0  0  0  0
 16 17  1  0  0  0  0
 19  4  1  0  0  0  0
 19 20  1  0  0  0  0
 21 19  1  0  0  0  0
 22 25  1  0  0  0  0
 22 19  1  0  0  0  0
 23 22  1  0  0  0  0
 24 22  1  0  0  0  0
 25 27  1  0  0  0  0
 25  5  1  0  0  0  0
 26 25  1  0  0  0  0
 28 30  1  0  0  0  0
 29 28  1  0  0  0  0
 31 28  1  0  0  0  0
 31 34  1  0  0  0  0
 32 31  1  0  0  0  0
 33 31  1  0  0  0  0
 34 35  1  0  0  0  0
 34 36  1  0  0  0  0
 37 34  1  0  0  0  0
 37 39  1  0  0  0  0
 38 37  1  0  0  0  0
 40 37  1  0  0  0  0
M  END
$$$$
