CSD_code = LAKMAM | q = 0 | S = 0 | Stoichiometry = C16H26Cl2N3OsP | MND = 9
 OpenBabel04212202063D

 49 50  0  0  1  0  0  0  0  0999 V2000
    2.0455    5.5704    4.3907 Os  0  0  0  0  0  0  0  0  0  0  0  0
    3.4370    4.0886    5.5554 Cl  0  0  0  0  0 15  0  0  0  0  0  0
    0.2795    4.0438    4.5595 Cl  0  0  0  0  0 15  0  0  0  0  0  0
    1.4704    6.0411    6.5357 P   0  0  1  0  0  4  0  0  0  0  0  0
   -0.0511    7.4561    8.3405 N   0  0  1  0  0  0  0  0  0  0  0  0
    0.6706    5.2433    9.0363 N   0  0  2  0  0  0  0  0  0  0  0  0
    2.2725    7.0684    8.9586 N   0  0  2  0  0  0  0  0  0  0  0  0
    0.1029    7.2497    6.9149 C   0  0  0  0  0  0  0  0  0  0  0  0
    0.3217    8.2122    6.4395 H   0  0  0  0  0  0  0  0  0  0  0  0
   -0.8354    6.8634    6.5033 H   0  0  0  0  0  0  0  0  0  0  0  0
    0.9287    4.7071    7.7160 C   0  0  0  0  0  0  0  0  0  0  0  0
    0.0214    4.2367    7.3220 H   0  0  0  0  0  0  0  0  0  0  0  0
    1.7162    3.9476    7.7706 H   0  0  0  0  0  0  0  0  0  0  0  0
    2.7724    6.8061    7.6247 C   0  0  0  0  0  0  0  0  0  0  0  0
    3.6234    6.1186    7.6796 H   0  0  0  0  0  0  0  0  0  0  0  0
    3.1127    7.7486    7.1809 H   0  0  0  0  0  0  0  0  0  0  0  0
   -0.4027    6.2193    9.0248 C   0  0  0  0  0  0  0  0  0  0  0  0
   -1.2793    5.7824    8.5409 H   0  0  0  0  0  0  0  0  0  0  0  0
   -0.6507    6.4687   10.0615 H   0  0  0  0  0  0  0  0  0  0  0  0
    1.8567    5.8409    9.6224 C   0  0  0  0  0  0  0  0  0  0  0  0
    2.6769    5.1208    9.5821 H   0  0  0  0  0  0  0  0  0  0  0  0
    1.6379    6.0812   10.6678 H   0  0  0  0  0  0  0  0  0  0  0  0
    1.1563    7.9984    8.9426 C   0  0  0  0  0  0  0  0  0  0  0  0
    1.4510    8.9013    8.4003 H   0  0  0  0  0  0  0  0  0  0  0  0
    0.9245    8.2666    9.9782 H   0  0  0  0  0  0  0  0  0  0  0  0
    3.9161    6.4050    3.2415 C   0  0  0  0  0  0  0  0  0  0  0  0
    3.2753    5.4659    2.3842 C   0  0  0  0  0  0  0  0  0  0  0  0
    3.8573    4.6536    1.9670 H   0  0  0  0  0  0  0  0  0  0  0  0
    1.9345    5.6136    2.0428 C   0  0  0  0  0  0  0  0  0  0  0  0
    1.4752    4.9144    1.3538 H   0  0  0  0  0  0  0  0  0  0  0  0
    1.1606    6.6998    2.5370 C   0  0  1  0  0  3  0  0  0  0  0  0
    1.7993    7.6310    3.3736 C   0  0  2  0  0  0  0  0  0  0  0  0
    1.2671    8.5169    3.6973 H   0  0  0  0  0  0  0  0  0  0  0  0
    3.1712    7.4957    3.7079 C   0  0  0  0  0  0  0  0  0  0  0  0
    3.6583    8.2706    4.2876 H   0  0  0  0  0  0  0  0  0  0  0  0
    5.3627    6.2349    3.5850 C   0  0  0  0  0  0  0  0  0  0  0  0
    5.9466    6.0114    2.6932 H   0  0  0  0  0  0  0  0  0  0  0  0
    5.4717    5.3969    4.2778 H   0  0  0  0  0  0  0  0  0  0  0  0
    5.7621    7.1280    4.0608 H   0  0  0  0  0  0  0  0  0  0  0  0
   -0.2624    6.8948    2.0707 C   0  0  0  0  0  0  0  0  0  0  0  0
   -0.5699    5.9881    1.5386 H   0  0  0  0  0  0  0  0  0  0  0  0
   -0.3278    8.0746    1.0950 C   0  0  0  0  0  0  0  0  0  0  0  0
   -0.0507    9.0025    1.5914 H   0  0  0  0  0  0  0  0  0  0  0  0
   -1.3385    8.1811    0.7089 H   0  0  0  0  0  0  0  0  0  0  0  0
    0.3471    7.9186    0.2552 H   0  0  0  0  0  0  0  0  0  0  0  0
   -1.2239    7.0932    3.2431 C   0  0  0  0  0  0  0  0  0  0  0  0
   -1.1362    6.2548    3.9322 H   0  0  0  0  0  0  0  0  0  0  0  0
   -2.2469    7.1368    2.8783 H   0  0  0  0  0  0  0  0  0  0  0  0
   -1.0128    8.0167    3.7776 H   0  0  0  0  0  0  0  0  0  0  0  0
  4  1  1  6  0  0  0
  4  8  1  0  0  0  0
  4 14  1  0  0  0  0
  4 11  1  0  0  0  0
  5  8  1  6  0  0  0
  5 23  1  0  0  0  0
  5 17  1  0  0  0  0
  6 11  1  6  0  0  0
  6 20  1  0  0  0  0
  7 14  1  6  0  0  0
  7 20  1  0  0  0  0
  9  8  1  0  0  0  0
 10  8  1  0  0  0  0
 11 13  1  0  0  0  0
 12 11  1  0  0  0  0
 14 15  1  0  0  0  0
 16 14  1  0  0  0  0
 17  6  1  0  0  0  0
 17 19  1  0  0  0  0
 18 17  1  0  0  0  0
 20 22  1  0  0  0  0
 21 20  1  0  0  0  0
 23  7  1  0  0  0  0
 23 25  1  0  0  0  0
 24 23  1  0  0  0  0
 26 36  1  0  0  0  0
 26 34  2  0  0  0  0
 27 26  1  0  0  0  0
 28 27  1  0  0  0  0
 29 27  2  0  0  0  0
 29 31  1  0  0  0  0
 30 29  1  0  0  0  0
 31 40  1  6  0  0  0
 31 32  1  0  0  0  0
 32 33  1  1  0  0  0
 32 34  1  0  0  0  0
 32  1  1  0  0  0  0
 34 35  1  0  0  0  0
 36 39  1  0  0  0  0
 36 38  1  0  0  0  0
 37 36  1  0  0  0  0
 40 46  1  0  0  0  0
 41 40  1  0  0  0  0
 42 43  1  0  0  0  0
 42 40  1  0  0  0  0
 44 42  1  0  0  0  0
 45 42  1  0  0  0  0
 46 49  1  0  0  0  0
 46 47  1  0  0  0  0
 48 46  1  0  0  0  0
M  END
$$$$
