CSD_code = LAKWIF | q = -1 | S = 0 | Stoichiometry = C4H4AuCl2S4(1-) | MND = 4
 OpenBabel04212202063D

 15 16  0  0  0  0  0  0  0  0999 V2000
   10.9197    3.2711   15.2234 Au  0  0  0  0  0  0  0  0  0  0  0  0
   11.4017    4.6707   13.4797 Cl  0  0  0  0  0  0  0  0  0  0  0  0
    9.0669    4.4957   15.7717 Cl  0  0  0  0  0  0  0  0  0  0  0  0
   10.4297    1.8263   16.9508 S   0  0  0  0  0  0  0  0  0  0  0  0
   12.7712    2.0124   14.6682 S   0  0  0  0  0  0  0  0  0  0  0  0
   11.8663   -0.5259   18.0911 S   0  0  0  0  0  0  0  0  0  0  0  0
   14.1749   -0.2278   16.0022 S   0  0  0  0  0  0  0  0  0  0  0  0
   11.8372    0.7904   16.9195 C   0  0  0  0  0  0  0  0  0  0  0  0
   12.7864    0.8518   15.9777 C   0  0  0  0  0  0  0  0  0  0  0  0
   12.0186   -1.8541   16.8305 C   0  0  0  0  0  0  0  0  0  0  0  0
   11.7929   -2.7884   17.3423 H   0  0  0  0  0  0  0  0  0  0  0  0
   11.2523   -1.6504   16.0826 H   0  0  0  0  0  0  0  0  0  0  0  0
   13.3978   -1.8948   16.2163 C   0  0  0  0  0  0  0  0  0  0  0  0
   13.3707   -2.3627   15.2316 H   0  0  0  0  0  0  0  0  0  0  0  0
   14.0997   -2.4274   16.8565 H   0  0  0  0  0  0  0  0  0  0  0  0
  1  3  1  0  0  0  0
  1  4  1  0  0  0  0
  2  1  1  0  0  0  0
  5  1  1  0  0  0  0
  5  9  1  0  0  0  0
  7 13  1  0  0  0  0
  8  4  1  0  0  0  0
  8  6  1  0  0  0  0
  9  7  1  0  0  0  0
  9  8  2  0  0  0  0
 10 11  1  0  0  0  0
 10  6  1  0  0  0  0
 12 10  1  0  0  0  0
 13 10  1  0  0  0  0
 13 15  1  0  0  0  0
 14 13  1  0  0  0  0
M  END
$$$$
