CSD_code = LALDIM | q = 0 | S = 0 | Stoichiometry = C24H26Cl2N3PPt | MND = 4
 OpenBabel04212202063D

 57 59  0  0  0  0  0  0  0  0999 V2000
    1.1602    2.6104    1.2694 Pt  0  0  0  0  0  0  0  0  0  0  0  0
    2.1245    3.5170   -0.6337 Cl  0  0  0  0  0  0  0  0  0  0  0  0
    0.1733    1.7702    3.1979 Cl  0  0  0  0  0  0  0  0  0  0  0  0
    3.2031    5.1460    3.9322 P   0  0  0  0  0  4  0  0  0  0  0  0
    1.9452    0.9737    0.8983 N   0  0  0  0  0  2  0  0  0  0  0  0
    0.3003    4.3593    1.6409 N   0  0  0  0  0  0  0  0  0  0  0  0
   -0.5818    4.7026    1.2704 H   0  0  0  0  0  0  0  0  0  0  0  0
    2.0965    4.6640    2.9066 N   0  0  0  0  0  0  0  0  0  0  0  0
    2.3980   -0.0376    0.5794 C   0  0  0  0  0  2  0  0  0  0  0  0
    3.0232   -1.2677    0.1772 C   0  0  0  0  0  0  0  0  0  0  0  0
    2.5279   -1.6237   -0.7310 H   0  0  0  0  0  0  0  0  0  0  0  0
    2.8765   -2.0124    0.9652 H   0  0  0  0  0  0  0  0  0  0  0  0
    4.5170   -1.0511   -0.0852 C   0  0  0  0  0  0  0  0  0  0  0  0
    4.6594   -0.2840   -0.8425 H   0  0  0  0  0  0  0  0  0  0  0  0
    4.9673   -1.9769   -0.4343 H   0  0  0  0  0  0  0  0  0  0  0  0
    5.0208   -0.7395    0.8268 H   0  0  0  0  0  0  0  0  0  0  0  0
    0.9350    5.1361    2.4550 C   0  0  0  0  0  0  0  0  0  0  0  0
    0.3940    6.4753    2.8816 C   0  0  0  0  0  0  0  0  0  0  0  0
    1.1927    7.2188    2.8118 H   0  0  0  0  0  0  0  0  0  0  0  0
   -0.4172    6.7736    2.2147 H   0  0  0  0  0  0  0  0  0  0  0  0
   -0.1139    6.3898    4.3186 C   0  0  0  0  0  0  0  0  0  0  0  0
   -0.9285    5.6727    4.3906 H   0  0  0  0  0  0  0  0  0  0  0  0
   -0.4672    7.3610    4.6572 H   0  0  0  0  0  0  0  0  0  0  0  0
    0.6868    6.0589    4.9804 H   0  0  0  0  0  0  0  0  0  0  0  0
    4.7144    4.3260    3.3620 C   0  0  0  0  0  0  0  0  0  0  0  0
    4.6130    3.3056    2.4262 C   0  0  0  0  0  0  0  0  0  0  0  0
    3.6367    3.0408    2.0287 H   0  0  0  0  0  0  0  0  0  0  0  0
    5.7561    2.6564    1.9965 C   0  0  0  0  0  0  0  0  0  0  0  0
    5.6801    1.8761    1.2544 H   0  0  0  0  0  0  0  0  0  0  0  0
    6.9932    3.0139    2.5083 C   0  0  0  0  0  0  0  0  0  0  0  0
    7.8853    2.5068    2.1710 H   0  0  0  0  0  0  0  0  0  0  0  0
    7.0921    4.0253    3.4515 C   0  0  0  0  0  0  0  0  0  0  0  0
    8.0577    4.3035    3.8480 H   0  0  0  0  0  0  0  0  0  0  0  0
    5.9544    4.6830    3.8808 C   0  0  0  0  0  0  0  0  0  0  0  0
    6.0265    5.4827    4.6060 H   0  0  0  0  0  0  0  0  0  0  0  0
    3.5874    6.9265    4.0113 C   0  0  0  0  0  0  0  0  0  0  0  0
    4.2371    7.4674    2.9058 C   0  0  0  0  0  0  0  0  0  0  0  0
    4.5417    6.8112    2.1010 H   0  0  0  0  0  0  0  0  0  0  0  0
    4.4811    8.8267    2.8467 C   0  0  0  0  0  0  0  0  0  0  0  0
    4.9884    9.2471    1.9914 H   0  0  0  0  0  0  0  0  0  0  0  0
    4.0698    9.6485    3.8852 C   0  0  0  0  0  0  0  0  0  0  0  0
    4.2602   10.7103    3.8395 H   0  0  0  0  0  0  0  0  0  0  0  0
    3.4088    9.1123    4.9786 C   0  0  0  0  0  0  0  0  0  0  0  0
    3.0831    9.7558    5.7825 H   0  0  0  0  0  0  0  0  0  0  0  0
    3.1600    7.7524    5.0434 C   0  0  0  0  0  0  0  0  0  0  0  0
    2.6410    7.3330    5.8940 H   0  0  0  0  0  0  0  0  0  0  0  0
    2.9140    4.5199    5.6128 C   0  0  0  0  0  0  0  0  0  0  0  0
    3.6861    4.9306    6.6945 C   0  0  0  0  0  0  0  0  0  0  0  0
    4.4568    5.6770    6.5613 H   0  0  0  0  0  0  0  0  0  0  0  0
    3.4577    4.3815    7.9428 C   0  0  0  0  0  0  0  0  0  0  0  0
    4.0504    4.7024    8.7871 H   0  0  0  0  0  0  0  0  0  0  0  0
    2.4726    3.4199    8.1101 C   0  0  0  0  0  0  0  0  0  0  0  0
    2.2989    2.9961    9.0883 H   0  0  0  0  0  0  0  0  0  0  0  0
    1.7190    2.9979    7.0270 C   0  0  0  0  0  0  0  0  0  0  0  0
    0.9600    2.2408    7.1508 H   0  0  0  0  0  0  0  0  0  0  0  0
    1.9381    3.5428    5.7741 C   0  0  0  0  0  0  0  0  0  0  0  0
    1.3628    3.2068    4.9209 H   0  0  0  0  0  0  0  0  0  0  0  0
  1  6  1  0  0  0  0
  1  3  1  0  0  0  0
  2  1  1  0  0  0  0
  4 36  1  0  0  0  0
  4 47  1  0  0  0  0
  5  1  1  0  0  0  0
  6 17  1  0  0  0  0
  7  6  1  0  0  0  0
  8  4  1  0  0  0  0
  9  5  1  0  0  0  0
 10  9  1  0  0  0  0
 10 12  1  0  0  0  0
 11 10  1  0  0  0  0
 13 10  1  0  0  0  0
 13 16  1  0  0  0  0
 14 13  1  0  0  0  0
 15 13  1  0  0  0  0
 17 18  1  0  0  0  0
 17  8  2  0  0  0  0
 18 21  1  0  0  0  0
 19 18  1  0  0  0  0
 20 18  1  0  0  0  0
 21 22  1  0  0  0  0
 21 23  1  0  0  0  0
 21 24  1  0  0  0  0
 25 34  1  0  0  0  0
 25  4  1  0  0  0  0
 26 25  2  0  0  0  0
 27 26  1  0  0  0  0
 28 26  1  0  0  0  0
 28 30  2  0  0  0  0
 29 28  1  0  0  0  0
 30 32  1  0  0  0  0
 31 30  1  0  0  0  0
 32 33  1  0  0  0  0
 32 34  2  0  0  0  0
 34 35  1  0  0  0  0
 36 45  1  0  0  0  0
 37 36  2  0  0  0  0
 38 37  1  0  0  0  0
 39 37  1  0  0  0  0
 39 41  2  0  0  0  0
 40 39  1  0  0  0  0
 41 43  1  0  0  0  0
 42 41  1  0  0  0  0
 43 45  2  0  0  0  0
 43 44  1  0  0  0  0
 45 46  1  0  0  0  0
 47 56  2  0  0  0  0
 47 48  1  0  0  0  0
 48 50  2  0  0  0  0
 49 48  1  0  0  0  0
 50 52  1  0  0  0  0
 50 51  1  0  0  0  0
 52 53  1  0  0  0  0
 54 55  1  0  0  0  0
 54 52  2  0  0  0  0
 56 54  1  0  0  0  0
 57 56  1  0  0  0  0
M  END
$$$$
