CSD_code = LALVAX | q = 0 | S = 0 | Stoichiometry = C15H8Cl3N2O4Re | MND = 6
 OpenBabel04212202063D

 33 35  0  0  0  0  0  0  0  0999 V2000
    4.0216   10.3696    2.3060 Re  0  0  0  0  0  0  0  0  0  0  0  0
    9.1074    5.9924    3.9606 Cl  0  0  0  0  0  0  0  0  0  0  0  0
    2.2702    3.7853   -0.0070 Cl  0  0  0  0  0  0  0  0  0  0  0  0
    3.3375    9.3955    4.3696 Cl  0  0  0  0  0  0  0  0  0  0  0  0
    6.2707   11.9124    3.7725 O   0  0  0  0  0  0  0  0  0  0  0  0
    5.5954   12.5948    3.6380 H   0  0  0  0  0  0  0  0  0  0  0  0
    2.7012   12.9776    3.3183 O   0  0  0  0  0  1  0  0  0  0  0  0
    1.3652    9.0295    1.4615 O   0  0  0  0  0  1  0  0  0  0  0  0
    4.8485   11.5038   -0.4531 O   0  0  0  0  0  1  0  0  0  0  0  0
    5.0436    8.5171    2.1401 N   0  0  0  0  0  0  0  0  0  0  0  0
    5.8080   10.7307    3.2333 N   0  0  0  0  0  0  0  0  0  0  0  0
    6.1468    8.4472    2.8565 C   0  0  0  0  0  0  0  0  0  0  0  0
    6.5925    9.6943    3.4502 C   0  0  0  0  0  0  0  0  0  0  0  0
    7.7964    9.7250    4.2080 C   0  0  0  0  0  0  0  0  0  0  0  0
    8.1008   10.6620    4.6463 H   0  0  0  0  0  0  0  0  0  0  0  0
    8.5252    8.5935    4.3748 C   0  0  0  0  0  0  0  0  0  0  0  0
    9.4333    8.5976    4.9557 H   0  0  0  0  0  0  0  0  0  0  0  0
    8.1071    7.3804    3.7656 C   0  0  0  0  0  0  0  0  0  0  0  0
    6.9630    7.2957    3.0313 C   0  0  0  0  0  0  0  0  0  0  0  0
    6.6817    6.3702    2.5541 H   0  0  0  0  0  0  0  0  0  0  0  0
    4.4343    7.3685    1.6376 C   0  0  0  0  0  0  0  0  0  0  0  0
    4.0203    7.3433    0.3029 C   0  0  0  0  0  0  0  0  0  0  0  0
    4.2271    8.1961   -0.3284 H   0  0  0  0  0  0  0  0  0  0  0  0
    3.3691    6.2396   -0.2054 C   0  0  0  0  0  0  0  0  0  0  0  0
    3.0633    6.2153   -1.2391 H   0  0  0  0  0  0  0  0  0  0  0  0
    3.0982    5.1594    0.6249 C   0  0  0  0  0  0  0  0  0  0  0  0
    3.4739    5.1820    1.9600 C   0  0  0  0  0  0  0  0  0  0  0  0
    3.2355    4.3498    2.6032 H   0  0  0  0  0  0  0  0  0  0  0  0
    4.1485    6.2767    2.4614 C   0  0  0  0  0  0  0  0  0  0  0  0
    4.4071    6.3189    3.5093 H   0  0  0  0  0  0  0  0  0  0  0  0
    3.1678   12.0338    2.8744 C   0  0  0  0  0  2  0  0  0  0  0  0
    2.3225    9.6027    1.6758 C   0  0  0  0  0  2  0  0  0  0  0  0
    4.5277   11.0937    0.5679 C   0  0  0  0  0  2  0  0  0  0  0  0
  1 31  1  0  0  0  0
  1 11  1  0  0  0  0
  1  4  1  0  0  0  0
  3 26  1  0  0  0  0
  6  5  1  0  0  0  0
  8 32  1  0  0  0  0
  9 33  1  0  0  0  0
 10  1  1  0  0  0  0
 10 12  1  0  0  0  0
 11 13  1  0  0  0  0
 11  5  1  0  0  0  0
 12 19  2  0  0  0  0
 12 13  1  0  0  0  0
 13 14  2  0  0  0  0
 14 16  1  0  0  0  0
 14 15  1  0  0  0  0
 16 17  1  0  0  0  0
 18  2  1  0  0  0  0
 18 16  2  0  0  0  0
 19 18  1  0  0  0  0
 20 19  1  0  0  0  0
 21 10  1  0  0  0  0
 21 29  1  0  0  0  0
 22 21  2  0  0  0  0
 23 22  1  0  0  0  0
 24 22  1  0  0  0  0
 24 26  2  0  0  0  0
 25 24  1  0  0  0  0
 26 27  1  0  0  0  0
 27 29  2  0  0  0  0
 27 28  1  0  0  0  0
 29 30  1  0  0  0  0
 31  7  1  0  0  0  0
 32  1  1  0  0  0  0
 33  1  1  0  0  0  0
M  END
$$$$
