CSD_code = LALVUR | q = 0 | S = 0 | Stoichiometry = C15H8BrCl2N2O4Re | MND = 6
 OpenBabel04212202063D

 33 35  0  0  0  0  0  0  0  0999 V2000
    3.0963    0.1624    3.2723 Re  0  0  0  0  0  0  0  0  0  0  0  0
    0.9949    1.3712    4.1435 Br  0  0  0  0  0  0  0  0  0  0  0  0
    6.0825    5.9609    5.5888 Cl  0  0  0  0  0  0  0  0  0  0  0  0
    4.0666    4.9246   -2.1525 Cl  0  0  0  0  0  0  0  0  0  0  0  0
    3.9931   -0.2386    6.2217 O   0  0  0  0  0  0  0  0  0  0  0  0
    3.4883   -1.0464    6.0408 H   0  0  0  0  0  0  0  0  0  0  0  0
    1.7846   -2.4773    4.2278 O   0  0  0  0  0  1  0  0  0  0  0  0
    1.6602    0.1583    0.5210 O   0  0  0  0  0  1  0  0  0  0  0  0
    5.6108   -1.2443    2.1510 O   0  0  0  0  0  1  0  0  0  0  0  0
    3.9313    2.0968    3.0198 N   0  0  0  0  0  0  0  0  0  0  0  0
    3.9389    0.5730    5.1076 N   0  0  0  0  0  0  0  0  0  0  0  0
    4.4524    2.6225    4.1088 C   0  0  0  0  0  0  0  0  0  0  0  0
    4.4540    1.7727    5.2849 C   0  0  0  0  0  0  0  0  0  0  0  0
    4.9937    2.2613    6.5069 C   0  0  0  0  0  0  0  0  0  0  0  0
    4.9832    1.6108    7.3669 H   0  0  0  0  0  0  0  0  0  0  0  0
    5.4910    3.5211    6.5737 C   0  0  0  0  0  0  0  0  0  0  0  0
    5.8957    3.9094    7.4942 H   0  0  0  0  0  0  0  0  0  0  0  0
    5.4672    4.3619    5.4282 C   0  0  0  0  0  0  0  0  0  0  0  0
    4.9683    3.9412    4.2327 C   0  0  0  0  0  0  0  0  0  0  0  0
    4.9369    4.6016    3.3805 H   0  0  0  0  0  0  0  0  0  0  0  0
    3.9647    2.8061    1.8107 C   0  0  0  0  0  0  0  0  0  0  0  0
    5.1852    3.1369    1.2210 C   0  0  0  0  0  0  0  0  0  0  0  0
    6.1065    2.8588    1.7126 H   0  0  0  0  0  0  0  0  0  0  0  0
    5.2166    3.7797   -0.0000 C   0  0  0  0  0  0  0  0  0  0  0  0
    6.1602    4.0224   -0.4625 H   0  0  0  0  0  0  0  0  0  0  0  0
    4.0263    4.1137   -0.6300 C   0  0  0  0  0  0  0  0  0  0  0  0
    2.8061    3.8018   -0.0482 C   0  0  0  0  0  0  0  0  0  0  0  0
    1.8858    4.0724   -0.5405 H   0  0  0  0  0  0  0  0  0  0  0  0
    2.7760    3.1440    1.1646 C   0  0  0  0  0  0  0  0  0  0  0  0
    1.8286    2.9145    1.6297 H   0  0  0  0  0  0  0  0  0  0  0  0
    2.2826   -1.5321    3.8200 C   0  0  0  0  0  2  0  0  0  0  0  0
    2.2174    0.1077    1.5125 C   0  0  0  0  0  2  0  0  0  0  0  0
    4.6703   -0.7375    2.5567 C   0  0  0  0  0  2  0  0  0  0  0  0
  1 31  1  0  0  0  0
  1  2  1  0  0  0  0
  1 11  1  0  0  0  0
  4 26  1  0  0  0  0
  6  5  1  0  0  0  0
  8 32  1  0  0  0  0
  9 33  1  0  0  0  0
 10  1  1  0  0  0  0
 10 12  1  0  0  0  0
 11 13  1  0  0  0  0
 11  5  1  0  0  0  0
 12 19  2  0  0  0  0
 12 13  1  0  0  0  0
 13 14  2  0  0  0  0
 14 16  1  0  0  0  0
 14 15  1  0  0  0  0
 16 17  1  0  0  0  0
 18  3  1  0  0  0  0
 18 16  2  0  0  0  0
 19 18  1  0  0  0  0
 20 19  1  0  0  0  0
 21 10  1  0  0  0  0
 22 23  1  0  0  0  0
 22 21  1  0  0  0  0
 24 22  2  0  0  0  0
 25 24  1  0  0  0  0
 26 27  2  0  0  0  0
 26 24  1  0  0  0  0
 27 29  1  0  0  0  0
 28 27  1  0  0  0  0
 29 30  1  0  0  0  0
 29 21  2  0  0  0  0
 31  7  1  0  0  0  0
 32  1  1  0  0  0  0
 33  1  1  0  0  0  0
M  END
$$$$
