CSD_code = LALWEC | q = 0 | S = 0 | Stoichiometry = C15H8BrCl2N2O4Re | MND = 6
 OpenBabel04212202063D

 33 35  0  0  0  0  0  0  0  0999 V2000
    1.8131    4.1210    8.8456 Re  0  0  0  0  0  0  0  0  0  0  0  0
    1.1110    3.2217   11.1577 Br  0  0  0  0  0  0  0  0  0  0  0  0
    7.2400    0.0009    9.9969 Cl  0  0  0  0  0  0  0  0  0  0  0  0
    4.1403    1.9156    6.0057 Cl  0  0  0  0  0  0  0  0  0  0  0  0
    4.0705    5.7602   10.2307 O   0  0  0  0  0  0  0  0  0  0  0  0
    3.3361    6.3928   10.2038 H   0  0  0  0  0  0  0  0  0  0  0  0
    0.5097    6.8051    9.6830 O   0  0  0  0  0  1  0  0  0  0  0  0
   -0.7905    2.7675    7.8453 O   0  0  0  0  0  1  0  0  0  0  0  0
    2.5942    5.1559    6.0375 O   0  0  0  0  0  1  0  0  0  0  0  0
    2.8946    2.3287    8.6554 N   0  0  0  0  0  0  0  0  0  0  0  0
    3.6384    4.5622    9.7013 N   0  0  0  0  0  0  0  0  0  0  0  0
    4.0834    2.3231    9.2130 C   0  0  0  0  0  0  0  0  0  0  0  0
    4.5063    3.5766    9.8085 C   0  0  0  0  0  0  0  0  0  0  0  0
    5.7812    3.6619   10.4331 C   0  0  0  0  0  0  0  0  0  0  0  0
    6.0755    4.6019   10.8720 H   0  0  0  0  0  0  0  0  0  0  0  0
    6.5893    2.5735   10.4735 C   0  0  0  0  0  0  0  0  0  0  0  0
    7.5564    2.6194   10.9476 H   0  0  0  0  0  0  0  0  0  0  0  0
    6.1692    1.3433    9.8974 C   0  0  0  0  0  0  0  0  0  0  0  0
    4.9596    1.2070    9.2872 C   0  0  0  0  0  0  0  0  0  0  0  0
    4.6479    0.2651    8.8636 H   0  0  0  0  0  0  0  0  0  0  0  0
    2.4317    1.1906    7.9743 C   0  0  0  0  0  0  0  0  0  0  0  0
    2.9185    0.8940    6.6992 C   0  0  0  0  0  0  0  0  0  0  0  0
    2.4178   -0.1797    5.9857 C   0  0  0  0  0  0  0  0  0  0  0  0
    2.7996   -0.3856    4.9983 H   0  0  0  0  0  0  0  0  0  0  0  0
    1.4343   -0.9763    6.5475 C   0  0  0  0  0  0  0  0  0  0  0  0
    1.0469   -1.8150    5.9906 H   0  0  0  0  0  0  0  0  0  0  0  0
    0.9497   -0.6964    7.8142 C   0  0  0  0  0  0  0  0  0  0  0  0
    0.1849   -1.3172    8.2540 H   0  0  0  0  0  0  0  0  0  0  0  0
    1.4412    0.3824    8.5247 C   0  0  0  0  0  0  0  0  0  0  0  0
    1.0678    0.6080    9.5130 H   0  0  0  0  0  0  0  0  0  0  0  0
    0.9622    5.8213    9.3151 C   0  0  0  0  0  2  0  0  0  0  0  0
    0.1456    3.3325    8.1624 C   0  0  0  0  0  2  0  0  0  0  0  0
    2.2930    4.7742    7.0702 C   0  0  0  0  0  2  0  0  0  0  0  0
  1 31  1  0  0  0  0
  1 11  1  0  0  0  0
  1  2  1  0  0  0  0
  4 22  1  0  0  0  0
  6  5  1  0  0  0  0
  8 32  1  0  0  0  0
  9 33  1  0  0  0  0
 10  1  1  0  0  0  0
 10 12  1  0  0  0  0
 11 13  1  0  0  0  0
 11  5  1  0  0  0  0
 12 19  2  0  0  0  0
 12 13  1  0  0  0  0
 13 14  2  0  0  0  0
 14 16  1  0  0  0  0
 14 15  1  0  0  0  0
 16 17  1  0  0  0  0
 18  3  1  0  0  0  0
 18 16  2  0  0  0  0
 19 18  1  0  0  0  0
 20 19  1  0  0  0  0
 21 29  1  0  0  0  0
 21 10  1  0  0  0  0
 22 21  2  0  0  0  0
 23 25  2  0  0  0  0
 23 22  1  0  0  0  0
 24 23  1  0  0  0  0
 25 27  1  0  0  0  0
 26 25  1  0  0  0  0
 27 28  1  0  0  0  0
 27 29  2  0  0  0  0
 29 30  1  0  0  0  0
 31  7  1  0  0  0  0
 32  1  1  0  0  0  0
 33  1  1  0  0  0  0
M  END
$$$$
