CSD_code = LAMDUY | q = 0 | S = 0 | Stoichiometry = C8H16Cl2N2O4Pt | MND = 6
 OpenBabel04212202063D

 33 34  0  0  0  0  0  0  0  0999 V2000
    6.7478    2.0076    4.3075 C   0  0  0  0  0  0  0  0  0  0  0  0
    6.5629    2.6309    5.7213 C   0  0  0  0  0  0  0  0  0  0  0  0
    7.3150    2.2208    6.4026 H   0  0  0  0  0  0  0  0  0  0  0  0
    6.7377    3.7053    5.6076 H   0  0  0  0  0  0  0  0  0  0  0  0
    5.0923    1.0230    6.7237 C   0  0  0  0  0  0  0  0  0  0  0  0
    4.0640    0.8153    7.0202 H   0  0  0  0  0  0  0  0  0  0  0  0
    5.7512    0.8796    7.5853 H   0  0  0  0  0  0  0  0  0  0  0  0
    5.3729    0.3187    5.9407 H   0  0  0  0  0  0  0  0  0  0  0  0
    4.9018    3.3313    7.3242 C   0  0  0  0  0  0  0  0  0  0  0  0
    4.9075    4.3577    6.9572 H   0  0  0  0  0  0  0  0  0  0  0  0
    5.6497    3.2311    8.1159 H   0  0  0  0  0  0  0  0  0  0  0  0
    3.9175    3.1135    7.7370 H   0  0  0  0  0  0  0  0  0  0  0  0
    2.4640    0.3124    3.6840 C   0  0  0  0  0  0  0  0  0  0  0  0
    1.8136    1.5386    2.9801 C   0  0  0  0  0  0  0  0  0  0  0  0
    1.3887    1.2263    2.0208 H   0  0  0  0  0  0  0  0  0  0  0  0
    1.0018    1.8722    3.6341 H   0  0  0  0  0  0  0  0  0  0  0  0
    3.6580    2.3221    1.6616 C   0  0  0  0  0  0  0  0  0  0  0  0
    4.1344    1.3518    1.8006 H   0  0  0  0  0  0  0  0  0  0  0  0
    4.4380    3.0788    1.5773 H   0  0  0  0  0  0  0  0  0  0  0  0
    3.0737    2.3031    0.7369 H   0  0  0  0  0  0  0  0  0  0  0  0
    2.0923    3.8963    2.5531 C   0  0  0  0  0  0  0  0  0  0  0  0
    1.4936    4.1740    3.4204 H   0  0  0  0  0  0  0  0  0  0  0  0
    1.4373    3.7994    1.6828 H   0  0  0  0  0  0  0  0  0  0  0  0
    2.8186    4.6856    2.3633 H   0  0  0  0  0  0  0  0  0  0  0  0
    2.0571    3.1407    5.7649 Cl  0  0  0  0  0  0  0  0  0  0  0  0
    4.6115    4.8177    4.3901 Cl  0  0  0  0  0  0  0  0  0  0  0  0
    5.2037    2.4005    6.2325 N   0  0  0  0  0  4  0  0  0  0  0  0
    2.7846    2.6277    2.7995 N   0  0  0  0  0  4  0  0  0  0  0  0
    5.6900    2.0068    3.5810 O   0  0  0  0  0  0  0  0  0  0  0  0
    7.8251    1.6006    3.9517 O   0  0  0  0  0  0  0  0  0  0  0  0
    3.3868    0.6065    4.5259 O   0  0  0  0  0  0  0  0  0  0  0  0
    2.0771   -0.8054    3.4521 O   0  0  0  0  0  0  0  0  0  0  0  0
    3.9578    2.5943    4.5469 Pt  0  0  0  0  0  0  0  0  0  0  0  0
  1  2  1  0  0  0  0
  2 27  1  0  0  0  0
  2  3  1  0  0  0  0
  4  2  1  0  0  0  0
  5  6  1  0  0  0  0
  5  7  1  0  0  0  0
  8  5  1  0  0  0  0
  9 12  1  0  0  0  0
  9 11  1  0  0  0  0
 10  9  1  0  0  0  0
 13 31  1  0  0  0  0
 14 16  1  0  0  0  0
 14 13  1  0  0  0  0
 15 14  1  0  0  0  0
 17 18  1  0  0  0  0
 17 28  1  0  0  0  0
 19 17  1  0  0  0  0
 20 17  1  0  0  0  0
 21 28  1  0  0  0  0
 21 22  1  0  0  0  0
 23 21  1  0  0  0  0
 24 21  1  0  0  0  0
 26 33  1  0  0  0  0
 27  5  1  0  0  0  0
 27  9  1  0  0  0  0
 28 14  1  0  0  0  0
 28 33  1  0  0  0  0
 29  1  1  0  0  0  0
 29 33  1  0  0  0  0
 30  1  2  0  0  0  0
 31 33  1  0  0  0  0
 32 13  2  0  0  0  0
 33 25  1  0  0  0  0
 33 27  1  0  0  0  0
M  END
$$$$
