CSD_code = LAMLAO | q = 0 | S = 0 | Stoichiometry = C12H19Cl2HgN3 | MND = 5
 OpenBabel04212202063D

 37 38  0  0  1  0  0  0  0  0999 V2000
    2.3387    8.0637    5.9694 Hg  0  0  0  0  0  0  0  0  0  0  0  0
    2.2967   10.3718    5.8233 Cl  0  0  0  0  0  0  0  0  0  0  0  0
    3.2998    6.3268    7.0898 Cl  0  0  0  0  0  0  0  0  0  0  0  0
   -0.3190    7.4912    7.9804 C   0  0  0  0  0  3  0  0  0  0  0  0
    0.4857    7.1015    8.5906 H   0  0  0  0  0  0  0  0  0  0  0  0
   -1.6050    7.6152    8.4766 C   0  0  0  0  0  0  0  0  0  0  0  0
   -1.8271    7.3318    9.4927 H   0  0  0  0  0  0  0  0  0  0  0  0
   -2.5894    8.1130    7.6370 C   0  0  0  0  0  0  0  0  0  0  0  0
   -3.6050    8.2300    7.9849 H   0  0  0  0  0  0  0  0  0  0  0  0
   -2.2488    8.4524    6.3395 C   0  0  0  0  0  0  0  0  0  0  0  0
   -2.9898    8.8381    5.6560 H   0  0  0  0  0  0  0  0  0  0  0  0
   -0.9315    8.2969    5.9209 C   0  0  0  0  0  0  0  0  0  0  0  0
   -0.5113    8.6835    4.5284 C   0  0  0  0  0  0  0  0  0  0  0  0
   -1.3902    8.6575    3.8685 H   0  0  0  0  0  0  0  0  0  0  0  0
   -0.1382    9.7138    4.5721 H   0  0  0  0  0  0  0  0  0  0  0  0
    1.1515    8.2651    2.7658 C   0  0  2  0  0  0  0  0  0  0  0  0
    1.3185    9.3462    2.8260 H   0  0  0  0  0  0  0  0  0  0  0  0
    0.2268    7.9403    1.5853 C   0  0  0  0  0  0  0  0  0  0  0  0
   -0.7236    8.4624    1.7083 H   0  0  0  0  0  0  0  0  0  0  0  0
    0.0243    6.8653    1.5813 H   0  0  0  0  0  0  0  0  0  0  0  0
    0.8541    8.3393    0.2540 C   0  0  0  0  0  0  0  0  0  0  0  0
    0.1744    8.0889   -0.5621 H   0  0  0  0  0  0  0  0  0  0  0  0
    1.0148    9.4191    0.2380 H   0  0  0  0  0  0  0  0  0  0  0  0
    2.1857    7.6236    0.0652 C   0  0  0  0  0  0  0  0  0  0  0  0
    2.6410    7.9208   -0.8806 H   0  0  0  0  0  0  0  0  0  0  0  0
    2.0207    6.5445    0.0339 H   0  0  0  0  0  0  0  0  0  0  0  0
    3.1232    7.9638    1.2179 C   0  0  0  0  0  0  0  0  0  0  0  0
    3.3219    9.0389    1.2148 H   0  0  0  0  0  0  0  0  0  0  0  0
    4.0759    7.4445    1.0895 H   0  0  0  0  0  0  0  0  0  0  0  0
    2.5157    7.5791    2.5719 C   0  0  1  0  0  0  0  0  0  0  0  0
    2.3664    6.4934    2.6157 H   0  0  0  0  0  0  0  0  0  0  0  0
    0.0083    7.8286    6.7385 N   0  0  0  0  0  0  0  0  0  0  0  0
    0.5843    7.8504    4.0485 N   0  0  0  0  0  0  0  0  0  0  0  0
    0.2613    6.8873    3.9693 H   0  0  0  0  0  0  0  0  0  0  0  0
    3.4064    7.9431    3.6764 N   0  0  0  0  0  0  0  0  0  0  0  0
    3.6978    8.9139    3.5568 H   0  0  0  0  0  0  0  0  0  0  0  0
    4.2463    7.3695    3.6478 H   0  0  0  0  0  0  0  0  0  0  0  0
  1 32  1  0  0  0  0
  1  3  1  0  0  0  0
  2  1  1  0  0  0  0
  4  6  1  0  0  0  0
  4  5  1  0  0  0  0
  6  7  1  0  0  0  0
  8  9  1  0  0  0  0
  8  6  2  0  0  0  0
 10  8  1  0  0  0  0
 11 10  1  0  0  0  0
 12 10  2  0  0  0  0
 12 32  1  0  0  0  0
 13 15  1  0  0  0  0
 13 12  1  0  0  0  0
 14 13  1  0  0  0  0
 16 17  1  1  0  0  0
 16 33  1  0  0  0  0
 18 19  1  0  0  0  0
 18 16  1  0  0  0  0
 20 18  1  0  0  0  0
 21 18  1  0  0  0  0
 22 21  1  0  0  0  0
 23 21  1  0  0  0  0
 24 21  1  0  0  0  0
 24 27  1  0  0  0  0
 25 24  1  0  0  0  0
 26 24  1  0  0  0  0
 27 30  1  0  0  0  0
 28 27  1  0  0  0  0
 29 27  1  0  0  0  0
 30 31  1  1  0  0  0
 30 16  1  0  0  0  0
 30 35  1  0  0  0  0
 32  4  1  0  0  0  0
 33 13  1  0  0  0  0
 34 33  1  0  0  0  0
 36 35  1  0  0  0  0
 37 35  1  0  0  0  0
M  END
$$$$
