CSD_code = LAMMER | q = 0 | S = 0 | Stoichiometry = C18H26Cl2N4W | MND = 6
 OpenBabel04212202063D

 51 53  0  0  1  0  0  0  0  0999 V2000
    9.5834   -0.0562   10.4937 W   0  0  0  0  0  0  0  0  0  0  0  0
    9.9324   -2.3463    9.8039 Cl  0  0  0  0  0  0  0  0  0  0  0  0
   10.0669    1.8044   11.9588 Cl  0  0  0  0  0  0  0  0  0  0  0  0
    9.8778   -1.0490   12.5226 N   0  0  0  0  0  0  0  0  0  0  0  0
   11.8163   -0.3656   10.8195 N   0  0  0  0  0  0  0  0  0  0  0  0
    8.8923   -1.2071   13.3971 C   0  0  0  0  0  3  0  0  0  0  0  0
    9.1035   -1.5169   14.7291 C   0  0  0  0  0  0  0  0  0  0  0  0
   10.4109   -1.6355   15.1837 C   0  0  0  0  0  0  0  0  0  0  0  0
   11.4431   -1.4800   14.2802 C   0  0  0  0  0  0  0  0  0  0  0  0
   11.1458   -1.2057   12.9434 C   0  0  0  0  0  0  0  0  0  0  0  0
   12.1807   -1.0472   11.9204 C   0  0  1  0  0  3  0  0  0  0  0  0
   13.4628   -1.5847   12.0557 C   0  0  0  0  0  0  0  0  0  0  0  0
   14.3912   -1.3776   11.0552 C   0  0  0  0  0  0  0  0  0  0  0  0
   14.0178   -0.6337    9.9427 C   0  0  0  0  0  0  0  0  0  0  0  0
   12.7177   -0.1659    9.8663 C   0  0  0  0  0  0  0  0  0  0  0  0
    7.8027   -0.1274   10.6678 N   0  0  0  0  0  2  0  0  0  0  0  0
    6.4133   -0.1596   10.4410 C   0  0  0  0  0  0  0  0  0  0  0  0
    6.1602   -1.1773    9.3092 C   0  0  0  0  0  0  0  0  0  0  0  0
    5.9374    1.2424   10.0086 C   0  0  0  0  0  0  0  0  0  0  0  0
    5.6222   -0.5856   11.6973 C   0  0  0  0  0  0  0  0  0  0  0  0
    9.8827    0.7794    8.9386 N   0  0  0  0  0  2  0  0  0  0  0  0
    9.7861    1.5814    7.7851 C   0  0  0  0  0  0  0  0  0  0  0  0
    9.3042    2.9751    8.2392 C   0  0  0  0  0  0  0  0  0  0  0  0
    8.7608    0.9560    6.8174 C   0  0  0  0  0  0  0  0  0  0  0  0
   11.1380    1.7222    7.0516 C   0  0  0  0  0  0  0  0  0  0  0  0
    7.8946   -1.0755   13.0000 H   0  0  0  0  0  0  0  0  0  0  0  0
    8.2663   -1.6458   15.3956 H   0  0  0  0  0  0  0  0  0  0  0  0
   10.6188   -1.8426   16.2225 H   0  0  0  0  0  0  0  0  0  0  0  0
   12.4688   -1.5454   14.6055 H   0  0  0  0  0  0  0  0  0  0  0  0
   13.7152   -2.1749   12.9218 H   0  0  0  0  0  0  0  0  0  0  0  0
   15.3859   -1.7887   11.1374 H   0  0  0  0  0  0  0  0  0  0  0  0
   14.7142   -0.4342    9.1446 H   0  0  0  0  0  0  0  0  0  0  0  0
   12.3687    0.3933    9.0084 H   0  0  0  0  0  0  0  0  0  0  0  0
    5.1169   -1.1639    9.0037 H   0  0  0  0  0  0  0  0  0  0  0  0
    6.4250   -2.1764    9.6497 H   0  0  0  0  0  0  0  0  0  0  0  0
    6.7990   -0.9303    8.4624 H   0  0  0  0  0  0  0  0  0  0  0  0
    4.8608    1.2532    9.8564 H   0  0  0  0  0  0  0  0  0  0  0  0
    6.4357    1.5242    9.0849 H   0  0  0  0  0  0  0  0  0  0  0  0
    6.2014    1.9666   10.7772 H   0  0  0  0  0  0  0  0  0  0  0  0
    4.5557   -0.5827   11.4847 H   0  0  0  0  0  0  0  0  0  0  0  0
    5.8160    0.1083   12.5136 H   0  0  0  0  0  0  0  0  0  0  0  0
    5.9087   -1.5911   12.0010 H   0  0  0  0  0  0  0  0  0  0  0  0
   10.0686    3.4435    8.8562 H   0  0  0  0  0  0  0  0  0  0  0  0
    8.4074    2.8583    8.8459 H   0  0  0  0  0  0  0  0  0  0  0  0
    9.0926    3.6094    7.3818 H   0  0  0  0  0  0  0  0  0  0  0  0
    8.6863    1.5420    5.9044 H   0  0  0  0  0  0  0  0  0  0  0  0
    7.7881    0.9137    7.3000 H   0  0  0  0  0  0  0  0  0  0  0  0
    9.0678   -0.0590    6.5718 H   0  0  0  0  0  0  0  0  0  0  0  0
   11.8704    2.2020    7.6986 H   0  0  0  0  0  0  0  0  0  0  0  0
   11.0164    2.3327    6.1599 H   0  0  0  0  0  0  0  0  0  0  0  0
   11.5052    0.7414    6.7540 H   0  0  0  0  0  0  0  0  0  0  0  0
  1 16  1  0  0  0  0
  1  5  1  0  0  0  0
  1  3  1  0  0  0  0
  1  4  1  0  0  0  0
  2  1  1  0  0  0  0
  4 10  1  0  0  0  0
  4  6  1  0  0  0  0
  5 11  1  0  0  0  0
  6  7  1  0  0  0  0
  7  8  2  0  0  0  0
  7 27  1  0  0  0  0
  8 28  1  0  0  0  0
  9 29  1  0  0  0  0
  9  8  1  0  0  0  0
 10  9  2  0  0  0  0
 11 12  1  6  0  0  0
 11 10  1  0  0  0  0
 12 30  1  0  0  0  0
 13 31  1  0  0  0  0
 13 12  2  0  0  0  0
 14 13  1  0  0  0  0
 15 14  2  0  0  0  0
 15  5  1  0  0  0  0
 17 16  1  0  0  0  0
 17 20  1  0  0  0  0
 18 35  1  0  0  0  0
 18 17  1  0  0  0  0
 19 17  1  0  0  0  0
 19 39  1  0  0  0  0
 20 42  1  0  0  0  0
 20 41  1  0  0  0  0
 21  1  1  0  0  0  0
 22 23  1  0  0  0  0
 22 21  1  0  0  0  0
 23 44  1  0  0  0  0
 23 43  1  0  0  0  0
 24 47  1  0  0  0  0
 24 22  1  0  0  0  0
 25 49  1  0  0  0  0
 25 22  1  0  0  0  0
 26  6  1  0  0  0  0
 32 14  1  0  0  0  0
 33 15  1  0  0  0  0
 34 18  1  0  0  0  0
 36 18  1  0  0  0  0
 37 19  1  0  0  0  0
 38 19  1  0  0  0  0
 40 20  1  0  0  0  0
 45 23  1  0  0  0  0
 46 24  1  0  0  0  0
 48 24  1  0  0  0  0
 50 25  1  0  0  0  0
 51 25  1  0  0  0  0
M  END
$$$$
