CSD_code = LAMPIY | q = 0 | S = 0 | Stoichiometry = C22H30Cl2Si2Zr | MND = 12
 OpenBabel04212202063D

 57 62  0  0  1  0  0  0  0  0999 V2000
   -0.5810   -2.5268   -4.4431 Zr  0  0  0  0  0  0  0  0  0  0  0  0
    1.7264   -2.2108   -4.6281 Cl  0  0  0  0  0  0  0  0  0  0  0  0
   -0.8555   -2.9917   -6.7171 Cl  0  0  0  0  0  0  0  0  0  0  0  0
   -3.5891   -2.6599   -3.4658 Si  0  0  0  0  0  0  0  0  0  0  0  0
   -4.5402   -3.1576   -5.0465 C   0  0  0  0  0  0  0  0  0  0  0  0
   -4.8338   -2.4483   -2.0357 C   0  0  0  0  0  0  0  0  0  0  0  0
   -0.9523   -2.1409   -1.3260 Si  0  0  0  0  0  0  0  0  0  0  0  0
   -2.1190   -2.1706    0.1831 C   0  0  0  0  0  0  0  0  0  0  0  0
    0.8114   -1.7034   -0.7354 C   0  0  0  0  0  0  0  0  0  0  0  0
   -1.3443   -0.9771   -2.7718 C   0  0  1  0  0  3  0  0  0  0  0  0
   -0.3434   -0.2208   -3.4343 C   0  0  0  0  0  0  0  0  0  0  0  0
   -0.7645    0.0341   -4.7549 C   0  0  0  0  0  0  0  0  0  0  0  0
   -0.0589    0.8231   -5.8222 C   0  0  0  0  0  0  0  0  0  0  0  0
   -1.0920    1.3678   -6.8100 C   0  0  0  0  0  0  0  0  0  0  0  0
   -1.9903    0.2350   -7.3023 C   0  0  0  0  0  0  0  0  0  0  0  0
   -2.8627   -0.3157   -6.1685 C   0  0  0  0  0  0  0  0  0  0  0  0
   -2.0369   -0.5614   -4.9357 C   0  0  2  0  0  3  0  0  0  0  0  0
   -2.4161   -1.1930   -3.7135 C   0  0  1  0  0  0  0  0  0  0  0  0
   -2.1676   -3.9004   -3.2710 C   0  0  1  0  0  3  0  0  0  0  0  0
   -1.7568   -4.7616   -4.3207 C   0  0  0  0  0  3  0  0  0  0  0  0
   -0.3982   -5.0884   -4.1365 C   0  0  0  0  0  0  0  0  0  0  0  0
    0.4642   -5.9932   -4.9715 C   0  0  0  0  0  0  0  0  0  0  0  0
    1.5970   -6.5476   -4.1060 C   0  0  0  0  0  0  0  0  0  0  0  0
    2.3194   -5.4039   -3.3971 C   0  0  0  0  0  0  0  0  0  0  0  0
    1.4084   -4.7234   -2.3691 C   0  0  0  0  0  0  0  0  0  0  0  0
    0.0590   -4.4337   -2.9667 C   0  0  0  0  0  0  0  0  0  0  0  0
   -1.0266   -3.6912   -2.4126 C   0  0  1  0  0  0  0  0  0  0  0  0
   -5.0866   -4.0803   -4.8780 H   0  0  0  0  0  0  0  0  0  0  0  0
   -3.8704   -3.3167   -5.8883 H   0  0  0  0  0  0  0  0  0  0  0  0
   -5.2660   -2.4014   -5.3254 H   0  0  0  0  0  0  0  0  0  0  0  0
   -5.7943   -2.1343   -2.4288 H   0  0  0  0  0  0  0  0  0  0  0  0
   -4.5102   -1.7022   -1.3211 H   0  0  0  0  0  0  0  0  0  0  0  0
   -4.9879   -3.3814   -1.5058 H   0  0  0  0  0  0  0  0  0  0  0  0
   -1.5635   -2.4537    1.0703 H   0  0  0  0  0  0  0  0  0  0  0  0
   -2.9272   -2.8802    0.0597 H   0  0  0  0  0  0  0  0  0  0  0  0
   -2.5506   -1.1932    0.3672 H   0  0  0  0  0  0  0  0  0  0  0  0
    0.8096   -0.7387   -0.2382 H   0  0  0  0  0  0  0  0  0  0  0  0
    1.5136   -1.6499   -1.5643 H   0  0  0  0  0  0  0  0  0  0  0  0
    1.1808   -2.4311   -0.0212 H   0  0  0  0  0  0  0  0  0  0  0  0
    0.5584    0.1747   -2.9822 H   0  0  0  0  0  0  0  0  0  0  0  0
    0.5159    1.6390   -5.3748 H   0  0  0  0  0  0  0  0  0  0  0  0
    0.6502    0.1732   -6.3568 H   0  0  0  0  0  0  0  0  0  0  0  0
   -1.7018    2.1271   -6.3140 H   0  0  0  0  0  0  0  0  0  0  0  0
   -0.5858    1.8378   -7.6549 H   0  0  0  0  0  0  0  0  0  0  0  0
   -2.6320    0.5905   -8.1109 H   0  0  0  0  0  0  0  0  0  0  0  0
   -1.3657   -0.5703   -7.6967 H   0  0  0  0  0  0  0  0  0  0  0  0
   -3.6446    0.4139   -5.9244 H   0  0  0  0  0  0  0  0  0  0  0  0
   -3.3584   -1.2281   -6.5072 H   0  0  0  0  0  0  0  0  0  0  0  0
   -2.3965   -5.1748   -5.0915 H   0  0  0  0  0  0  0  0  0  0  0  0
   -0.1337   -6.8062   -5.3930 H   0  0  0  0  0  0  0  0  0  0  0  0
    0.8913   -5.4262   -5.8126 H   0  0  0  0  0  0  0  0  0  0  0  0
    1.1823   -7.2330   -3.3626 H   0  0  0  0  0  0  0  0  0  0  0  0
    2.2996   -7.1057   -4.7273 H   0  0  0  0  0  0  0  0  0  0  0  0
    3.2127   -5.7797   -2.8943 H   0  0  0  0  0  0  0  0  0  0  0  0
    2.6351   -4.6664   -4.1391 H   0  0  0  0  0  0  0  0  0  0  0  0
    1.2718   -5.3891   -1.5080 H   0  0  0  0  0  0  0  0  0  0  0  0
    1.8908   -3.8128   -2.0077 H   0  0  0  0  0  0  0  0  0  0  0  0
  1 27  1  0  0  0  0
  2  1  1  0  0  0  0
  3  1  1  0  0  0  0
  4 19  1  0  0  0  0
  4  6  1  0  0  0  0
  5 28  1  0  0  0  0
  5  4  1  0  0  0  0
  6 33  1  0  0  0  0
  6 32  1  0  0  0  0
  7  9  1  0  0  0  0
  7  8  1  0  0  0  0
  8 36  1  0  0  0  0
  8 34  1  0  0  0  0
  9 37  1  0  0  0  0
  9 39  1  0  0  0  0
 10 11  1  6  0  0  0
 10  7  1  0  0  0  0
 11 40  1  0  0  0  0
 12 11  2  0  0  0  0
 13 41  1  0  0  0  0
 13 12  1  0  0  0  0
 14 43  1  0  0  0  0
 14 13  1  0  0  0  0
 15 14  1  0  0  0  0
 15 16  1  0  0  0  0
 16 47  1  0  0  0  0
 16 17  1  0  0  0  0
 17 12  1  1  0  0  0
 17 18  1  0  0  0  0
 18  1  1  6  0  0  0
 18  4  1  0  0  0  0
 18 10  1  0  0  0  0
 19 20  1  6  0  0  0
 19 27  1  0  0  0  0
 20 21  1  0  0  0  0
 21 26  2  0  0  0  0
 22 21  1  0  0  0  0
 22 23  1  0  0  0  0
 23 24  1  0  0  0  0
 23 52  1  0  0  0  0
 24 54  1  0  0  0  0
 24 25  1  0  0  0  0
 25 57  1  0  0  0  0
 25 56  1  0  0  0  0
 26 25  1  0  0  0  0
 27 26  1  1  0  0  0
 27  7  1  0  0  0  0
 29  5  1  0  0  0  0
 30  5  1  0  0  0  0
 31  6  1  0  0  0  0
 35  8  1  0  0  0  0
 38  9  1  0  0  0  0
 42 13  1  0  0  0  0
 44 14  1  0  0  0  0
 45 15  1  0  0  0  0
 46 15  1  0  0  0  0
 48 16  1  0  0  0  0
 49 20  1  0  0  0  0
 50 22  1  0  0  0  0
 51 22  1  0  0  0  0
 53 23  1  0  0  0  0
 55 24  1  0  0  0  0
M  END
$$$$
