CSD_code = LAMPEU | q = 0 | S = 0 | Stoichiometry = C18H26Cl2Si2Zr | MND = 12
 OpenBabel04212202063D

 49 52  0  0  1  0  0  0  0  0999 V2000
    3.7208    2.9550    2.5049 Zr  0  0  0  0  0  0  0  0  0  0  0  0
    6.4707    3.4537    1.0210 Si  0  0  0  0  0  0  0  0  0  0  0  0
    6.1853    1.4740    3.8255 Si  0  0  0  0  0  0  0  0  0  0  0  0
    2.2683    4.1998    1.1563 Cl  0  0  0  0  0  0  0  0  0  0  0  0
    1.9984    2.3073    3.9517 Cl  0  0  0  0  0  0  0  0  0  0  0  0
    5.3486    1.9265    1.0904 C   0  0  1  0  0  0  0  0  0  0  0  0
    5.2104    1.0801    2.2479 C   0  0  2  0  0  3  0  0  0  0  0  0
    3.9293    0.4626    2.1766 C   0  0  0  0  0  0  0  0  0  0  0  0
    3.2665    0.9363    1.0145 C   0  0  0  0  0  0  0  0  0  0  0  0
    4.1417    1.8227    0.3475 C   0  0  0  0  0  3  0  0  0  0  0  0
    3.3957   -0.6232    3.0649 C   0  0  0  0  0  0  0  0  0  0  0  0
    1.8842    0.5467    0.5758 C   0  0  0  0  0  0  0  0  0  0  0  0
    8.3593    3.1943    0.9625 C   0  0  0  0  0  0  0  0  0  0  0  0
    5.8970    4.4425   -0.5107 C   0  0  0  0  0  0  0  0  0  0  0  0
    8.0386    1.0268    3.7671 C   0  0  0  0  0  0  0  0  0  0  0  0
    5.3845    0.7447    5.4002 C   0  0  0  0  0  0  0  0  0  0  0  0
    5.6938    3.3054    3.8066 C   0  0  1  0  0  0  0  0  0  0  0  0
    5.8030    4.1573    2.6501 C   0  0  2  0  0  3  0  0  0  0  0  0
    4.8403    5.1969    2.7914 C   0  0  1  0  0  3  0  0  0  0  0  0
    4.1215    4.9827    3.9962 C   0  0  0  0  0  0  0  0  0  0  0  0
    4.6540    3.8317    4.6196 C   0  0  0  0  0  0  0  0  0  0  0  0
    4.6852    6.4129    1.9252 C   0  0  0  0  0  0  0  0  0  0  0  0
    3.0052    5.8433    4.5143 C   0  0  0  0  0  0  0  0  0  0  0  0
    3.9500    2.2723   -0.6206 H   0  0  0  0  0  0  0  0  0  0  0  0
    2.9497   -1.4119    2.4576 H   0  0  0  0  0  0  0  0  0  0  0  0
    4.1950   -1.0582    3.6589 H   0  0  0  0  0  0  0  0  0  0  0  0
    2.6204   -0.2457    3.7360 H   0  0  0  0  0  0  0  0  0  0  0  0
    1.5785    1.1396   -0.2859 H   0  0  0  0  0  0  0  0  0  0  0  0
    1.8424   -0.5096    0.3012 H   0  0  0  0  0  0  0  0  0  0  0  0
    1.1673    0.7121    1.3858 H   0  0  0  0  0  0  0  0  0  0  0  0
    8.7945    3.1493    1.9529 H   0  0  0  0  0  0  0  0  0  0  0  0
    8.6143    2.2806    0.4379 H   0  0  0  0  0  0  0  0  0  0  0  0
    8.8283    4.0160    0.4331 H   0  0  0  0  0  0  0  0  0  0  0  0
    6.0561    3.8607   -1.4134 H   0  0  0  0  0  0  0  0  0  0  0  0
    4.8393    4.6903   -0.4509 H   0  0  0  0  0  0  0  0  0  0  0  0
    6.4559    5.3644   -0.6263 H   0  0  0  0  0  0  0  0  0  0  0  0
    8.6403    1.7792    4.2641 H   0  0  0  0  0  0  0  0  0  0  0  0
    8.2071    0.0851    4.2775 H   0  0  0  0  0  0  0  0  0  0  0  0
    8.3995    0.9204    2.7518 H   0  0  0  0  0  0  0  0  0  0  0  0
    4.3075    0.8990    5.4066 H   0  0  0  0  0  0  0  0  0  0  0  0
    5.5760   -0.3185    5.4931 H   0  0  0  0  0  0  0  0  0  0  0  0
    5.7979    1.2191    6.2849 H   0  0  0  0  0  0  0  0  0  0  0  0
    4.3706    3.4714    5.6024 H   0  0  0  0  0  0  0  0  0  0  0  0
    4.5947    7.3025    2.5497 H   0  0  0  0  0  0  0  0  0  0  0  0
    5.5500    6.5342    1.2785 H   0  0  0  0  0  0  0  0  0  0  0  0
    3.7865    6.3513    1.3069 H   0  0  0  0  0  0  0  0  0  0  0  0
    2.2509    5.9962    3.7369 H   0  0  0  0  0  0  0  0  0  0  0  0
    2.5293    5.3703    5.3731 H   0  0  0  0  0  0  0  0  0  0  0  0
    3.3753    6.8240    4.8212 H   0  0  0  0  0  0  0  0  0  0  0  0
  1 17  1  0  0  0  0
  1  5  1  0  0  0  0
  2  6  1  0  0  0  0
  3 16  1  0  0  0  0
  4  1  1  0  0  0  0
  6 10  1  6  0  0  0
  6  7  1  0  0  0  0
  6  1  1  0  0  0  0
  7  8  1  1  0  0  0
  7  3  1  0  0  0  0
  8 11  1  0  0  0  0
  9  8  2  0  0  0  0
 10  9  1  0  0  0  0
 11 26  1  0  0  0  0
 11 27  1  0  0  0  0
 12  9  1  0  0  0  0
 12 30  1  0  0  0  0
 13  2  1  0  0  0  0
 13 31  1  0  0  0  0
 14 35  1  0  0  0  0
 14  2  1  0  0  0  0
 15  3  1  0  0  0  0
 15 37  1  0  0  0  0
 15 38  1  0  0  0  0
 16 40  1  0  0  0  0
 16 41  1  0  0  0  0
 16 42  1  0  0  0  0
 17  3  1  0  0  0  0
 17 21  1  1  0  0  0
 18  2  1  6  0  0  0
 18 19  1  0  0  0  0
 18 17  1  0  0  0  0
 19 22  1  1  0  0  0
 19 20  1  0  0  0  0
 20 23  1  0  0  0  0
 20 21  2  0  0  0  0
 21 43  1  0  0  0  0
 22 44  1  0  0  0  0
 23 49  1  0  0  0  0
 23 48  1  0  0  0  0
 24 10  1  0  0  0  0
 25 11  1  0  0  0  0
 28 12  1  0  0  0  0
 29 12  1  0  0  0  0
 32 13  1  0  0  0  0
 33 13  1  0  0  0  0
 34 14  1  0  0  0  0
 36 14  1  0  0  0  0
 39 15  1  0  0  0  0
 45 22  1  0  0  0  0
 46 22  1  0  0  0  0
 47 23  1  0  0  0  0
M  END
$$$$
