CSD_code = LAMTIE | q = 0 | S = 0 | Stoichiometry = C28H24ClCuN8 | MND = 3
 OpenBabel04212202063D

 62 69  0  0  1  0  0  0  0  0999 V2000
    3.3099    8.5806    9.5486 Cu  0  0  0  0  0  0  0  0  0  0  0  0
    3.3102   10.7443    9.5494 Cl  0  0  0  0  0  0  0  0  0  0  0  0
    4.6831    7.6753    8.5598 N   0  0  0  0  0  0  0  0  0  0  0  0
    6.6104    6.2180    7.1068 N   0  0  0  0  0  0  0  0  0  0  0  0
    6.5857    6.0184   12.6178 N   0  0  0  0  0  0  0  0  0  0  0  0
    5.7665    6.3625   13.0947 H   0  0  0  0  0  0  0  0  0  0  0  0
    8.4848    4.6243   11.1881 N   0  0  0  0  0  0  0  0  0  0  0  0
    9.2845    4.3229   10.6524 H   0  0  0  0  0  0  0  0  0  0  0  0
    4.7308    7.7360    7.2097 C   0  0  0  0  0  0  0  0  0  0  0  0
    3.8297    8.5507    6.4965 C   0  0  0  0  0  0  0  0  0  0  0  0
    3.1456    9.1712    7.0606 H   0  0  0  0  0  0  0  0  0  0  0  0
    3.8611    8.5856    5.1303 C   0  0  0  0  0  0  0  0  0  0  0  0
    3.1742    9.2214    4.5916 H   0  0  0  0  0  0  0  0  0  0  0  0
    4.7934    7.8131    4.4142 C   0  0  0  0  0  0  0  0  0  0  0  0
    4.7973    7.8576    3.3348 H   0  0  0  0  0  0  0  0  0  0  0  0
    5.6980    7.0319    5.0733 C   0  0  0  0  0  3  0  0  0  0  0  0
    6.4377    6.4471    4.5492 H   0  0  0  0  0  0  0  0  0  0  0  0
    5.7014    6.9759    6.4857 C   0  0  0  0  0  0  0  0  0  0  0  0
    6.5900    6.1971    8.4335 C   0  0  0  0  0  0  0  0  0  0  0  0
    5.6046    6.9267    9.1883 C   0  0  0  0  0  0  0  0  0  0  0  0
    5.6113    6.8233   10.5870 C   0  0  0  0  0  0  0  0  0  0  0  0
    4.8535    7.3559   11.1448 H   0  0  0  0  0  0  0  0  0  0  0  0
    6.5544    6.0761   11.2498 C   0  0  0  0  0  0  0  0  0  0  0  0
    7.5672    5.3841   10.5012 C   0  0  0  0  0  0  0  0  0  0  0  0
    7.5567    5.4445    9.1322 C   0  0  0  0  0  0  0  0  0  0  0  0
    8.2995    4.9204    8.5511 H   0  0  0  0  0  0  0  0  0  0  0  0
    7.3501    4.9872   13.2731 C   0  0  0  0  0  0  0  0  0  0  0  0
    6.8535    4.0076   13.2071 H   0  0  0  0  0  0  0  0  0  0  0  0
    7.4717    5.2494   14.3258 H   0  0  0  0  0  0  0  0  0  0  0  0
    8.7120    4.9038   12.5853 C   0  0  0  0  0  0  0  0  0  0  0  0
    9.2456    5.8550   12.7315 H   0  0  0  0  0  0  0  0  0  0  0  0
    9.3068    4.0966   13.0169 H   0  0  0  0  0  0  0  0  0  0  0  0
    1.9378    7.6751   10.5388 N   0  0  0  0  0  0  0  0  0  0  0  0
    0.0105    6.2179   11.9918 N   0  0  0  0  0  0  0  0  0  0  0  0
    0.0351    6.0187    6.4808 N   0  0  0  0  0  0  0  0  0  0  0  0
    0.8543    6.3629    6.0040 H   0  0  0  0  0  0  0  0  0  0  0  0
   -1.8640    4.6244    7.9104 N   0  0  0  0  0  0  0  0  0  0  0  0
   -2.6636    4.3230    8.4461 H   0  0  0  0  0  0  0  0  0  0  0  0
    1.8901    7.7358   11.8889 C   0  0  0  0  0  0  0  0  0  0  0  0
    2.7909    8.5508   12.6022 C   0  0  0  0  0  0  0  0  0  0  0  0
    3.4751    9.1714   12.0381 H   0  0  0  0  0  0  0  0  0  0  0  0
    2.7594    8.5859   13.9685 C   0  0  0  0  0  0  0  0  0  0  0  0
    3.4464    9.2215   14.5071 H   0  0  0  0  0  0  0  0  0  0  0  0
    1.8267    7.8138   14.6844 C   0  0  0  0  0  0  0  0  0  0  0  0
    1.8235    7.8576   15.7638 H   0  0  0  0  0  0  0  0  0  0  0  0
    0.9223    7.0324   14.0252 C   0  0  0  0  0  0  0  0  0  0  0  0
    0.1830    6.4472   14.5493 H   0  0  0  0  0  0  0  0  0  0  0  0
    0.9195    6.9757   12.6129 C   0  0  0  0  0  0  0  0  0  0  0  0
    0.0308    6.1971   10.6651 C   0  0  0  0  0  0  0  0  0  0  0  0
    1.0163    6.9266    9.9103 C   0  0  2  0  0  3  0  0  0  0  0  0
    1.0096    6.8233    8.5116 C   0  0  0  0  0  0  0  0  0  0  0  0
    1.7674    7.3560    7.9539 H   0  0  0  0  0  0  0  0  0  0  0  0
    0.0665    6.0762    7.8488 C   0  0  0  0  0  0  0  0  0  0  0  0
   -0.9463    5.3842    8.5974 C   0  0  0  0  0  0  0  0  0  0  0  0
   -0.9359    5.4444    9.9663 C   0  0  0  0  0  0  0  0  0  0  0  0
   -1.6786    4.9203   10.5474 H   0  0  0  0  0  0  0  0  0  0  0  0
   -0.7293    4.9875    5.8255 C   0  0  0  0  0  0  0  0  0  0  0  0
   -0.2327    4.0079    5.8915 H   0  0  0  0  0  0  0  0  0  0  0  0
   -0.8508    5.2496    4.7728 H   0  0  0  0  0  0  0  0  0  0  0  0
   -2.0912    4.9038    6.5131 C   0  0  0  0  0  0  0  0  0  0  0  0
   -2.6247    5.8549    6.3669 H   0  0  0  0  0  0  0  0  0  0  0  0
   -2.6859    4.0965    6.0816 H   0  0  0  0  0  0  0  0  0  0  0  0
  1  2  1  0  0  0  0
  1 33  1  0  0  0  0
  3 20  1  0  0  0  0
  3  1  1  0  0  0  0
  4 19  1  0  0  0  0
  5  6  1  0  0  0  0
  5 27  1  0  0  0  0
  7 30  1  0  0  0  0
  8  7  1  0  0  0  0
  9  3  1  0  0  0  0
 10 11  1  0  0  0  0
 10  9  2  0  0  0  0
 12 10  1  0  0  0  0
 13 12  1  0  0  0  0
 14 16  1  0  0  0  0
 14 12  2  0  0  0  0
 15 14  1  0  0  0  0
 16 18  1  0  0  0  0
 17 16  1  0  0  0  0
 18  4  2  0  0  0  0
 18  9  1  0  0  0  0
 19 25  2  0  0  0  0
 19 20  1  0  0  0  0
 20 21  2  0  0  0  0
 21 22  1  0  0  0  0
 21 23  1  0  0  0  0
 23  5  1  0  0  0  0
 24  7  1  0  0  0  0
 24 23  2  0  0  0  0
 25 24  1  0  0  0  0
 26 25  1  0  0  0  0
 27 29  1  0  0  0  0
 28 27  1  0  0  0  0
 30 31  1  0  0  0  0
 30 32  1  0  0  0  0
 30 27  1  0  0  0  0
 33 39  1  0  0  0  0
 34 48  1  0  0  0  0
 35 53  1  0  0  0  0
 36 35  1  0  0  0  0
 37 38  1  0  0  0  0
 37 54  1  0  0  0  0
 39 40  2  0  0  0  0
 39 48  1  0  0  0  0
 40 42  1  0  0  0  0
 41 40  1  0  0  0  0
 42 43  1  0  0  0  0
 42 44  2  0  0  0  0
 44 45  1  0  0  0  0
 46 47  1  0  0  0  0
 46 44  1  0  0  0  0
 48 46  2  0  0  0  0
 49 34  2  0  0  0  0
 50 51  1  1  0  0  0
 50 33  1  0  0  0  0
 50 49  1  0  0  0  0
 52 51  1  0  0  0  0
 53 51  2  0  0  0  0
 53 54  1  0  0  0  0
 54 55  2  0  0  0  0
 55 56  1  0  0  0  0
 55 49  1  0  0  0  0
 57 58  1  0  0  0  0
 57 35  1  0  0  0  0
 57 60  1  0  0  0  0
 59 57  1  0  0  0  0
 60 37  1  0  0  0  0
 61 60  1  0  0  0  0
 62 60  1  0  0  0  0
M  END
$$$$
