CSD_code = LAMTOK | q = 0 | S = 0 | Stoichiometry = C21H15Cl2N3Zn | MND = 5
 OpenBabel04212202063D

 42 47  0  0  1  0  0  0  0  0999 V2000
    4.1715    6.7941   13.8237 Zn  0  0  0  0  0  0  0  0  0  0  0  0
    2.3396    5.8563   12.9093 Cl  0  0  0  0  0  0  0  0  0  0  0  0
    5.7025    7.9945   12.7622 Cl  0  0  0  0  0  0  0  0  0  0  0  0
    3.1723    8.4411   14.8924 N   0  0  0  0  0  0  0  0  0  0  0  0
    3.5960    6.0090   15.7154 N   0  0  0  0  0  0  0  0  0  0  0  0
    5.3654    4.9658   14.1210 N   0  0  0  0  0  0  0  0  0  0  0  0
    3.1139    9.6928   14.4795 C   0  0  0  0  0  3  0  0  0  0  0  0
    3.7429    9.9372   13.6345 H   0  0  0  0  0  0  0  0  0  0  0  0
    2.3045   10.6405   15.0901 C   0  0  0  0  0  0  0  0  0  0  0  0
    2.2773   11.6532   14.7217 H   0  0  0  0  0  0  0  0  0  0  0  0
    1.5410   10.2506   16.1782 C   0  0  0  0  0  0  0  0  0  0  0  0
    0.9019   10.9581   16.6856 H   0  0  0  0  0  0  0  0  0  0  0  0
    1.6083    8.9367   16.6121 C   0  0  0  0  0  0  0  0  0  0  0  0
    1.0353    8.6158   17.4673 H   0  0  0  0  0  0  0  0  0  0  0  0
    2.4378    8.0471   15.9344 C   0  0  0  0  0  0  0  0  0  0  0  0
    2.5672    6.6233   16.2831 C   0  0  1  0  0  3  0  0  0  0  0  0
    1.6687    5.9292   17.0850 C   0  0  0  0  0  0  0  0  0  0  0  0
    0.8281    6.4270   17.5402 H   0  0  0  0  0  0  0  0  0  0  0  0
    1.8520    4.5610   17.2807 C   0  0  0  0  0  0  0  0  0  0  0  0
    2.9305    3.9402   16.6521 C   0  0  0  0  0  0  0  0  0  0  0  0
    3.0588    2.8736   16.7403 H   0  0  0  0  0  0  0  0  0  0  0  0
    3.7812    4.7038   15.8607 C   0  0  0  0  0  0  0  0  0  0  0  0
    4.8962    4.1557   15.0719 C   0  0  1  0  0  3  0  0  0  0  0  0
    5.4342    2.8870   15.2709 C   0  0  0  0  0  0  0  0  0  0  0  0
    5.0614    2.2452   16.0529 H   0  0  0  0  0  0  0  0  0  0  0  0
    6.4696    2.4642   14.4533 C   0  0  0  0  0  0  0  0  0  0  0  0
    6.9015    1.4834   14.5869 H   0  0  0  0  0  0  0  0  0  0  0  0
    6.9414    3.3167   13.4686 C   0  0  0  0  0  0  0  0  0  0  0  0
    7.7453    3.0235   12.8128 H   0  0  0  0  0  0  0  0  0  0  0  0
    6.3540    4.5676   13.3432 C   0  0  0  0  0  0  0  0  0  0  0  0
    6.6838    5.2825   12.6019 H   0  0  0  0  0  0  0  0  0  0  0  0
    0.9153    3.7881   18.1067 C   0  0  0  0  0  0  0  0  0  0  0  0
    1.3851    2.8214   18.9930 C   0  0  0  0  0  0  0  0  0  0  0  0
    2.4485    2.6547   19.0874 H   0  0  0  0  0  0  0  0  0  0  0  0
    0.5014    2.1004   19.7742 C   0  0  0  0  0  0  0  0  0  0  0  0
    0.8767    1.3598   20.4647 H   0  0  0  0  0  0  0  0  0  0  0  0
   -0.8614    2.3259   19.6719 C   0  0  0  0  0  0  0  0  0  0  0  0
   -1.5506    1.7586   20.2790 H   0  0  0  0  0  0  0  0  0  0  0  0
   -1.3377    3.2794   18.7873 C   0  0  0  0  0  0  0  0  0  0  0  0
   -2.3997    3.4528   18.6993 H   0  0  0  0  0  0  0  0  0  0  0  0
   -0.4566    4.0111   18.0131 C   0  0  0  0  0  0  0  0  0  0  0  0
   -0.8319    4.7373   17.3075 H   0  0  0  0  0  0  0  0  0  0  0  0
  1  6  1  0  0  0  0
  1  4  1  0  0  0  0
  1  5  1  0  0  0  0
  2  1  1  0  0  0  0
  3  1  1  0  0  0  0
  4 15  1  0  0  0  0
  5 22  1  0  0  0  0
  5 16  1  0  0  0  0
  6 23  1  0  0  0  0
  7  4  1  0  0  0  0
  7  9  1  0  0  0  0
  8  7  1  0  0  0  0
  9 11  2  0  0  0  0
 10  9  1  0  0  0  0
 11 13  1  0  0  0  0
 11 12  1  0  0  0  0
 13 14  1  0  0  0  0
 15 13  2  0  0  0  0
 16 15  1  6  0  0  0
 16 17  1  0  0  0  0
 17 19  2  0  0  0  0
 17 18  1  0  0  0  0
 19 32  1  0  0  0  0
 20 21  1  0  0  0  0
 20 19  1  0  0  0  0
 22 20  2  0  0  0  0
 23 24  1  6  0  0  0
 23 22  1  0  0  0  0
 24 25  1  0  0  0  0
 26 27  1  0  0  0  0
 26 24  2  0  0  0  0
 28 26  1  0  0  0  0
 29 28  1  0  0  0  0
 30 28  2  0  0  0  0
 30  6  1  0  0  0  0
 31 30  1  0  0  0  0
 32 33  1  0  0  0  0
 33 34  1  0  0  0  0
 33 35  2  0  0  0  0
 35 36  1  0  0  0  0
 37 35  1  0  0  0  0
 37 38  1  0  0  0  0
 39 37  2  0  0  0  0
 40 39  1  0  0  0  0
 41 32  2  0  0  0  0
 41 39  1  0  0  0  0
 42 41  1  0  0  0  0
M  END
$$$$
