CSD_code = LAMVOK | q = 0 | S = 0 | Stoichiometry = C14H25BrN2OPd | MND = 4
 OpenBabel04212202063D

 44 45  0  0  0  0  0  0  0  0999 V2000
   -1.8090   -0.5545    6.4330 Pd  0  0  0  0  0  0  0  0  0  0  0  0
   -1.2720    1.5099    5.4340 Br  0  0  0  0  0  0  0  0  0  0  0  0
   -0.2946    2.8831    8.5250 O   0  0  0  0  0  0  0  0  0  0  0  0
   -3.7111   -0.8642    5.2203 N   0  0  0  0  0  4  0  0  0  0  0  0
   -2.3933   -2.5122    7.2552 N   0  0  0  0  0  4  0  0  0  0  0  0
   -0.1580   -0.4662    7.5329 C   0  0  0  0  0  0  0  0  0  0  0  0
   -0.1915    0.0600    8.8210 C   0  0  0  0  0  0  0  0  0  0  0  0
    0.9247   -0.0924    9.6347 C   0  0  0  0  0  0  0  0  0  0  0  0
    2.0559   -0.7359    9.1648 C   0  0  0  0  0  0  0  0  0  0  0  0
    2.0953   -1.2202    7.8687 C   0  0  0  0  0  0  0  0  0  0  0  0
    0.9841   -1.0839    7.0498 C   0  0  0  0  0  0  0  0  0  0  0  0
   -1.4055    0.8269    9.2921 C   0  0  0  0  0  0  0  0  0  0  0  0
   -1.0612    2.3067    9.5413 C   0  0  0  0  0  0  0  0  0  0  0  0
   -4.1569   -2.2299    5.5005 C   0  0  0  0  0  0  0  0  0  0  0  0
   -3.8155   -2.6643    6.9295 C   0  0  0  0  0  0  0  0  0  0  0  0
   -4.6418    0.1217    5.7678 C   0  0  0  0  0  0  0  0  0  0  0  0
   -3.5734   -0.6568    3.7810 C   0  0  0  0  0  0  0  0  0  0  0  0
   -1.5750   -3.4716    6.5147 C   0  0  0  0  0  0  0  0  0  0  0  0
   -2.2065   -2.7277    8.6868 C   0  0  0  0  0  0  0  0  0  0  0  0
   -0.6740    2.6582    7.6616 H   0  0  0  0  0  0  0  0  0  0  0  0
    0.9067    0.3025   10.6405 H   0  0  0  0  0  0  0  0  0  0  0  0
    2.9175   -0.8452    9.8071 H   0  0  0  0  0  0  0  0  0  0  0  0
    2.9883   -1.6992    7.4925 H   0  0  0  0  0  0  0  0  0  0  0  0
    1.0213   -1.4426    6.0214 H   0  0  0  0  0  0  0  0  0  0  0  0
   -1.8018    0.4036   10.2194 H   0  0  0  0  0  0  0  0  0  0  0  0
   -2.1927    0.7692    8.5095 H   0  0  0  0  0  0  0  0  0  0  0  0
   -1.9995    2.8678    9.6911 H   0  0  0  0  0  0  0  0  0  0  0  0
   -0.4606    2.4013   10.4511 H   0  0  0  0  0  0  0  0  0  0  0  0
   -3.6722   -2.9075    4.7914 H   0  0  0  0  0  0  0  0  0  0  0  0
   -5.2462   -2.3266    5.3554 H   0  0  0  0  0  0  0  0  0  0  0  0
   -4.3878   -2.0571    7.6382 H   0  0  0  0  0  0  0  0  0  0  0  0
   -4.1272   -3.7147    7.0625 H   0  0  0  0  0  0  0  0  0  0  0  0
   -4.7174    0.0162    6.8540 H   0  0  0  0  0  0  0  0  0  0  0  0
   -4.2735    1.1252    5.5449 H   0  0  0  0  0  0  0  0  0  0  0  0
   -5.6460    0.0084    5.3323 H   0  0  0  0  0  0  0  0  0  0  0  0
   -2.8161   -1.3330    3.3776 H   0  0  0  0  0  0  0  0  0  0  0  0
   -4.5241   -0.8307    3.2574 H   0  0  0  0  0  0  0  0  0  0  0  0
   -3.2493    0.3668    3.5925 H   0  0  0  0  0  0  0  0  0  0  0  0
   -1.5803   -3.2409    5.4463 H   0  0  0  0  0  0  0  0  0  0  0  0
   -0.5458   -3.4123    6.8710 H   0  0  0  0  0  0  0  0  0  0  0  0
   -1.9388   -4.4996    6.6609 H   0  0  0  0  0  0  0  0  0  0  0  0
   -1.1557   -2.6001    8.9452 H   0  0  0  0  0  0  0  0  0  0  0  0
   -2.7884   -1.9994    9.2523 H   0  0  0  0  0  0  0  0  0  0  0  0
   -2.5253   -3.7386    8.9782 H   0  0  0  0  0  0  0  0  0  0  0  0
  1  5  1  0  0  0  0
  1  6  1  0  0  0  0
  2  1  1  0  0  0  0
  3 13  1  0  0  0  0
  4 14  1  0  0  0  0
  4 16  1  0  0  0  0
  4  1  1  0  0  0  0
  5 19  1  0  0  0  0
  6  7  1  0  0  0  0
  7 12  1  0  0  0  0
  7  8  2  0  0  0  0
  8 21  1  0  0  0  0
  9  8  1  0  0  0  0
  9 22  1  0  0  0  0
 10  9  2  0  0  0  0
 11  6  2  0  0  0  0
 11 10  1  0  0  0  0
 12 13  1  0  0  0  0
 12 25  1  0  0  0  0
 13 27  1  0  0  0  0
 13 28  1  0  0  0  0
 14 15  1  0  0  0  0
 15 32  1  0  0  0  0
 15  5  1  0  0  0  0
 15 31  1  0  0  0  0
 16 33  1  0  0  0  0
 17  4  1  0  0  0  0
 18 41  1  0  0  0  0
 18 40  1  0  0  0  0
 18  5  1  0  0  0  0
 19 42  1  0  0  0  0
 19 44  1  0  0  0  0
 19 43  1  0  0  0  0
 20  3  1  0  0  0  0
 23 10  1  0  0  0  0
 24 11  1  0  0  0  0
 26 12  1  0  0  0  0
 29 14  1  0  0  0  0
 30 14  1  0  0  0  0
 34 16  1  0  0  0  0
 35 16  1  0  0  0  0
 36 17  1  0  0  0  0
 37 17  1  0  0  0  0
 38 17  1  0  0  0  0
 39 18  1  0  0  0  0
M  END
$$$$
