CSD_code = LAMWON | q = 0 | S = 0 | Stoichiometry = C14H14Cl2N2Zn | MND = 4
 OpenBabel04212202063D

 33 35  0  0  0  0  0  0  0  0999 V2000
    2.6090    0.9380    5.9281 Zn  0  0  0  0  0  0  0  0  0  0  0  0
    4.9580    1.6536    7.8875 C   0  0  0  0  0  3  0  0  0  0  0  0
    5.1756    0.5945    7.8977 H   0  0  0  0  0  0  0  0  0  0  0  0
    5.8363    2.5779    8.4368 C   0  0  0  0  0  0  0  0  0  0  0  0
    6.7613    2.2490    8.8820 H   0  0  0  0  0  0  0  0  0  0  0  0
    5.4996    3.9222    8.3910 C   0  0  0  0  0  0  0  0  0  0  0  0
    6.1608    4.6706    8.8010 H   0  0  0  0  0  0  0  0  0  0  0  0
    4.2994    4.2895    7.8075 C   0  0  0  0  0  0  0  0  0  0  0  0
    4.0008    5.3250    7.7518 H   0  0  0  0  0  0  0  0  0  0  0  0
    3.4742    3.2967    7.2794 C   0  0  0  0  0  0  0  0  0  0  0  0
    2.2078    3.6256    6.6517 C   0  0  0  0  0  3  0  0  0  0  0  0
    1.9486    4.6823    6.5918 H   0  0  0  0  0  0  0  0  0  0  0  0
    0.2296    2.9909    5.5820 C   0  0  0  0  0  0  0  0  0  0  0  0
   -0.9107    2.2997    6.0292 C   0  0  0  0  0  0  0  0  0  0  0  0
   -2.1192    2.5244    5.3927 C   0  0  0  0  0  0  0  0  0  0  0  0
   -3.0019    2.0081    5.7392 H   0  0  0  0  0  0  0  0  0  0  0  0
   -2.2023    3.3917    4.3168 C   0  0  0  0  0  0  0  0  0  0  0  0
   -3.1488    3.5516    3.8229 H   0  0  0  0  0  0  0  0  0  0  0  0
   -1.0692    4.0417    3.8662 C   0  0  0  0  0  0  0  0  0  0  0  0
   -1.1321    4.6989    3.0115 H   0  0  0  0  0  0  0  0  0  0  0  0
    0.1614    3.8675    4.4861 C   0  0  0  0  0  0  0  0  0  0  0  0
    1.3715    4.5409    3.9119 C   0  0  0  0  0  0  0  0  0  0  0  0
    1.5361    5.5159    4.3716 H   0  0  0  0  0  0  0  0  0  0  0  0
    1.2268    4.7012    2.8460 H   0  0  0  0  0  0  0  0  0  0  0  0
    2.2665    3.9352    4.0452 H   0  0  0  0  0  0  0  0  0  0  0  0
   -0.8176    1.3785    7.2025 C   0  0  0  0  0  0  0  0  0  0  0  0
   -0.1004    0.5812    7.0050 H   0  0  0  0  0  0  0  0  0  0  0  0
   -1.7846    0.9307    7.4139 H   0  0  0  0  0  0  0  0  0  0  0  0
   -0.4774    1.9117    8.0895 H   0  0  0  0  0  0  0  0  0  0  0  0
    2.0934   -1.0564    6.6463 Cl  0  0  0  0  0  0  0  0  0  0  0  0
    3.6678    1.6443    4.1059 Cl  0  0  0  0  0  0  0  0  0  0  0  0
    3.8157    2.0046    7.3265 N   0  0  0  0  0  0  0  0  0  0  0  0
    1.4282    2.7107    6.2313 N   0  0  0  0  0  0  0  0  0  0  0  0
  1 33  1  0  0  0  0
  1 30  1  0  0  0  0
  1 32  1  0  0  0  0
  2  3  1  0  0  0  0
  2  4  1  0  0  0  0
  4  5  1  0  0  0  0
  6  4  2  0  0  0  0
  6  7  1  0  0  0  0
  8  6  1  0  0  0  0
  9  8  1  0  0  0  0
 10 32  1  0  0  0  0
 10  8  2  0  0  0  0
 11 10  1  0  0  0  0
 12 11  1  0  0  0  0
 13 14  1  0  0  0  0
 13 33  1  0  0  0  0
 14 26  1  0  0  0  0
 15 16  1  0  0  0  0
 15 14  2  0  0  0  0
 17 15  1  0  0  0  0
 18 17  1  0  0  0  0
 19 17  2  0  0  0  0
 19 21  1  0  0  0  0
 20 19  1  0  0  0  0
 21 13  2  0  0  0  0
 22 25  1  0  0  0  0
 22 23  1  0  0  0  0
 22 21  1  0  0  0  0
 24 22  1  0  0  0  0
 26 28  1  0  0  0  0
 26 29  1  0  0  0  0
 27 26  1  0  0  0  0
 31  1  1  0  0  0  0
 32  2  1  0  0  0  0
 33 11  1  0  0  0  0
M  END
$$$$
