CSD_code = LANBAD | q = 0 | S = 0 | Stoichiometry = C12H19IN2Pd | MND = 4
 OpenBabel04212202063D

 35 37  0  0  1  0  0  0  0  0999 V2000
    3.1685    1.1549    1.8457 I   0  0  0  0  0  0  0  0  0  0  0  0
    1.0000    1.9471    0.7966 Pd  0  0  1  0  0  0  0  0  0  0  0  0
   -0.8567    2.5880    0.0135 N   0  0  2  0  0  4  0  0  0  0  0  0
   -0.2287    1.9634    2.7584 N   0  0  0  0  0  4  0  0  0  0  0  0
    1.6250    2.2656   -1.0684 C   0  0  0  0  0  0  0  0  0  0  0  0
    2.7192    1.7523   -1.7466 C   0  0  0  0  0  0  0  0  0  0  0  0
    2.9162    2.0570   -3.0874 C   0  0  0  0  0  0  0  0  0  0  0  0
    2.0203    2.8642   -3.7635 C   0  0  0  0  0  0  0  0  0  0  0  0
    0.9113    3.3655   -3.1027 C   0  0  0  0  0  0  0  0  0  0  0  0
    0.7092    3.0712   -1.7635 C   0  0  0  0  0  0  0  0  0  0  0  0
   -0.4904    3.5867   -1.0023 C   0  0  0  0  0  0  0  0  0  0  0  0
   -1.6735    3.1342    1.0963 C   0  0  0  0  0  0  0  0  0  0  0  0
   -1.6088    2.2450    2.3468 C   0  0  0  0  0  0  0  0  0  0  0  0
   -1.5106    1.4509   -0.6290 C   0  0  0  0  0  0  0  0  0  0  0  0
    0.3721    3.1305    3.4094 C   0  0  0  0  0  0  0  0  0  0  0  0
   -0.1995    0.8250    3.6714 C   0  0  0  0  0  0  0  0  0  0  0  0
    3.4347    1.1169   -1.2430 H   0  0  0  0  0  0  0  0  0  0  0  0
    3.7780    1.6568   -3.6013 H   0  0  0  0  0  0  0  0  0  0  0  0
    2.1767    3.0990   -4.8061 H   0  0  0  0  0  0  0  0  0  0  0  0
    0.1981    3.9871   -3.6279 H   0  0  0  0  0  0  0  0  0  0  0  0
   -0.2182    4.5222   -0.4944 H   0  0  0  0  0  0  0  0  0  0  0  0
   -1.3394    3.7992   -1.6715 H   0  0  0  0  0  0  0  0  0  0  0  0
   -1.3005    4.1337    1.3440 H   0  0  0  0  0  0  0  0  0  0  0  0
   -2.7259    3.2380    0.7843 H   0  0  0  0  0  0  0  0  0  0  0  0
   -2.1672    2.7363    3.1623 H   0  0  0  0  0  0  0  0  0  0  0  0
   -2.1050    1.2922    2.1371 H   0  0  0  0  0  0  0  0  0  0  0  0
   -1.6169    0.6188    0.0708 H   0  0  0  0  0  0  0  0  0  0  0  0
   -0.9054    1.1128   -1.4731 H   0  0  0  0  0  0  0  0  0  0  0  0
   -2.5083    1.7304   -0.9997 H   0  0  0  0  0  0  0  0  0  0  0  0
    0.5239    3.9424    2.6861 H   0  0  0  0  0  0  0  0  0  0  0  0
    1.3478    2.8558    3.8136 H   0  0  0  0  0  0  0  0  0  0  0  0
   -0.2582    3.4983    4.2328 H   0  0  0  0  0  0  0  0  0  0  0  0
   -0.5950   -0.0617    3.1729 H   0  0  0  0  0  0  0  0  0  0  0  0
   -0.7918    1.0193    4.5767 H   0  0  0  0  0  0  0  0  0  0  0  0
    0.8305    0.6189    3.9609 H   0  0  0  0  0  0  0  0  0  0  0  0
  2  1  1  6  0  0  0
  2  4  1  0  0  0  0
  3 14  1  6  0  0  0
  3  2  1  0  0  0  0
  3 12  1  0  0  0  0
  4 15  1  0  0  0  0
  4 16  1  0  0  0  0
  5  2  1  0  0  0  0
  6 17  1  0  0  0  0
  6  5  1  0  0  0  0
  7  6  2  0  0  0  0
  8  9  2  0  0  0  0
  8  7  1  0  0  0  0
  9 10  1  0  0  0  0
 10  5  2  0  0  0  0
 10 11  1  0  0  0  0
 11 21  1  0  0  0  0
 11  3  1  0  0  0  0
 12 23  1  0  0  0  0
 12 13  1  0  0  0  0
 13  4  1  0  0  0  0
 13 25  1  0  0  0  0
 14 27  1  0  0  0  0
 15 31  1  0  0  0  0
 15 32  1  0  0  0  0
 16 35  1  0  0  0  0
 16 34  1  0  0  0  0
 18  7  1  0  0  0  0
 19  8  1  0  0  0  0
 20  9  1  0  0  0  0
 22 11  1  0  0  0  0
 24 12  1  0  0  0  0
 26 13  1  0  0  0  0
 28 14  1  0  0  0  0
 29 14  1  0  0  0  0
 30 15  1  0  0  0  0
 33 16  1  0  0  0  0
M  END
$$$$
