CSD_code = LANMES | q = 0 | S = 0 | Stoichiometry = C14H32ClIrNP3 | MND = 6
 OpenBabel04212202063D

 52 52  0  0  0  0  0  0  0  0999 V2000
    0.0002   -0.1212    3.0544 Ir  0  0  0  0  0  0  0  0  0  0  0  0
    2.2907   -0.3728    2.9969 P   0  0  0  0  0  4  0  0  0  0  0  0
    3.3613    1.0837    2.6699 C   0  0  0  0  0  0  0  0  0  0  0  0
    3.1282   -1.1570    4.4243 C   0  0  0  0  0  0  0  0  0  0  0  0
    2.8475   -1.5048    1.6724 C   0  0  0  0  0  0  0  0  0  0  0  0
   -0.0000    0.9617    5.1995 P   0  0  0  0  0  4  0  0  0  0  0  0
   -1.3991    1.9946    5.8010 C   0  0  0  0  0  0  0  0  0  0  0  0
    0.0000   -0.2700    6.5706 C   0  0  0  0  0  0  0  0  0  0  0  0
   -0.0002   -2.3839    4.0227 Cl  0  0  0  0  0  0  0  0  0  0  0  0
   -0.0001    2.6585    3.2793 N   0  0  0  0  0  0  0  0  0  0  0  0
   -0.0002    1.7537    2.3012 C   0  0  0  0  0  0  0  0  0  0  0  0
   -0.0001    2.1861    0.9653 C   0  0  0  0  0  0  0  0  0  0  0  0
   -0.0000    3.5363    0.6782 C   0  0  0  0  0  0  0  0  0  0  0  0
   -0.0000    4.4538    1.7219 C   0  0  0  0  0  0  0  0  0  0  0  0
   -0.0000    3.9550    3.0090 C   0  0  0  0  0  0  0  0  0  0  0  0
    0.0002   -0.7283    1.6491 H   0  0  0  0  0  0  0  0  0  0  0  0
    4.4099    0.7903    2.6423 H   0  0  0  0  0  0  0  0  0  0  0  0
    3.0738    1.5103    1.7109 H   0  0  0  0  0  0  0  0  0  0  0  0
    3.2103    1.8372    3.4388 H   0  0  0  0  0  0  0  0  0  0  0  0
    4.1705   -1.3591    4.1768 H   0  0  0  0  0  0  0  0  0  0  0  0
    3.0798   -0.5219    5.3056 H   0  0  0  0  0  0  0  0  0  0  0  0
    2.6074   -2.0908    4.6325 H   0  0  0  0  0  0  0  0  0  0  0  0
    3.9281   -1.6440    1.7082 H   0  0  0  0  0  0  0  0  0  0  0  0
    2.3439   -2.4589    1.8179 H   0  0  0  0  0  0  0  0  0  0  0  0
    2.5539   -1.0978    0.7071 H   0  0  0  0  0  0  0  0  0  0  0  0
   -1.2154    2.2794    6.8372 H   0  0  0  0  0  0  0  0  0  0  0  0
   -1.4913    2.8856    5.1883 H   0  0  0  0  0  0  0  0  0  0  0  0
   -2.3283    1.4308    5.7523 H   0  0  0  0  0  0  0  0  0  0  0  0
    0.0000    0.2116    7.5497 H   0  0  0  0  0  0  0  0  0  0  0  0
   -0.8745   -0.9109    6.4770 H   0  0  0  0  0  0  0  0  0  0  0  0
   -0.0000    1.4623    0.1645 H   0  0  0  0  0  0  0  0  0  0  0  0
   -0.0000    3.8794   -0.3478 H   0  0  0  0  0  0  0  0  0  0  0  0
   -0.0000    5.5174    1.5382 H   0  0  0  0  0  0  0  0  0  0  0  0
   -0.0001    4.6228    3.8653 H   0  0  0  0  0  0  0  0  0  0  0  0
   -2.2906   -0.3728    2.9968 P   0  0  0  0  0  4  0  0  0  0  0  0
    1.3991    1.9946    5.8010 C   0  0  0  0  0  0  0  0  0  0  0  0
    0.8745   -0.9109    6.4770 H   0  0  0  0  0  0  0  0  0  0  0  0
   -3.3613    1.0838    2.6700 C   0  0  0  0  0  0  0  0  0  0  0  0
   -3.1282   -1.1570    4.4242 C   0  0  0  0  0  0  0  0  0  0  0  0
   -2.8475   -1.5047    1.6724 C   0  0  0  0  0  0  0  0  0  0  0  0
    1.2154    2.2794    6.8371 H   0  0  0  0  0  0  0  0  0  0  0  0
    1.4913    2.8856    5.1883 H   0  0  0  0  0  0  0  0  0  0  0  0
    2.3283    1.4308    5.7522 H   0  0  0  0  0  0  0  0  0  0  0  0
   -4.4099    0.7903    2.6423 H   0  0  0  0  0  0  0  0  0  0  0  0
   -3.0738    1.5104    1.7110 H   0  0  0  0  0  0  0  0  0  0  0  0
   -3.2102    1.8372    3.4389 H   0  0  0  0  0  0  0  0  0  0  0  0
   -4.1704   -1.3591    4.1767 H   0  0  0  0  0  0  0  0  0  0  0  0
   -3.0798   -0.5220    5.3056 H   0  0  0  0  0  0  0  0  0  0  0  0
   -2.6074   -2.0909    4.6324 H   0  0  0  0  0  0  0  0  0  0  0  0
   -3.9281   -1.6439    1.7082 H   0  0  0  0  0  0  0  0  0  0  0  0
   -2.3439   -2.4588    1.8178 H   0  0  0  0  0  0  0  0  0  0  0  0
   -2.5539   -1.0976    0.7070 H   0  0  0  0  0  0  0  0  0  0  0  0
  1  9  1  0  0  0  0
  1  6  1  0  0  0  0
  2  1  1  0  0  0  0
  2  4  1  0  0  0  0
  3  2  1  0  0  0  0
  3 19  1  0  0  0  0
  4 22  1  0  0  0  0
  4 21  1  0  0  0  0
  5 23  1  0  0  0  0
  5 24  1  0  0  0  0
  5  2  1  0  0  0  0
  6 36  1  0  0  0  0
  6  7  1  0  0  0  0
  6  8  1  0  0  0  0
  7 26  1  0  0  0  0
  8 29  1  0  0  0  0
 11  1  1  0  0  0  0
 11 10  2  0  0  0  0
 12 11  1  0  0  0  0
 13 12  2  0  0  0  0
 13 14  1  0  0  0  0
 14 15  2  0  0  0  0
 15 10  1  0  0  0  0
 15 34  1  0  0  0  0
 16  1  1  0  0  0  0
 17  3  1  0  0  0  0
 18  3  1  0  0  0  0
 20  4  1  0  0  0  0
 25  5  1  0  0  0  0
 27  7  1  0  0  0  0
 28  7  1  0  0  0  0
 30  8  1  0  0  0  0
 31 12  1  0  0  0  0
 32 13  1  0  0  0  0
 33 14  1  0  0  0  0
 35  1  1  0  0  0  0
 35 39  1  0  0  0  0
 36 41  1  0  0  0  0
 37  8  1  0  0  0  0
 38 35  1  0  0  0  0
 38 46  1  0  0  0  0
 39 49  1  0  0  0  0
 39 48  1  0  0  0  0
 40 50  1  0  0  0  0
 40 51  1  0  0  0  0
 40 35  1  0  0  0  0
 42 36  1  0  0  0  0
 43 36  1  0  0  0  0
 44 38  1  0  0  0  0
 45 38  1  0  0  0  0
 47 39  1  0  0  0  0
 52 40  1  0  0  0  0
M  END
$$$$
