CSD_code = LANTOM | q = 0 | S = 0 | Stoichiometry = C28H30FN3NiO2 | MND = 4
 OpenBabel04212202063D

 65 71  0  0  1  0  0  0  0  0999 V2000
    7.2214    8.5395   31.3569 Ni  0  0  2  0  0  0  0  0  0  0  0  0
    6.1671    7.1523   31.6046 F   0  0  0  0  0  0  0  0  0  0  0  0
    8.5018    9.3775   35.0679 O   0  0  0  0  0  0  0  0  0  0  0  0
    7.0323    9.1300   27.3914 O   0  0  0  0  0  0  0  0  0  0  0  0
    7.4997    8.7250   33.2037 N   0  0  2  0  0  0  0  0  0  0  0  0
    8.3271    9.9966   31.0972 N   0  0  0  0  0  0  0  0  0  0  0  0
    7.0078    8.4371   29.4949 N   0  0  1  0  0  0  0  0  0  0  0  0
    6.4310    8.6756   34.1912 C   0  0  1  0  0  0  0  0  0  0  0  0
    6.0179    7.6635   34.2236 H   0  0  0  0  0  0  0  0  0  0  0  0
    7.1741    9.0588   35.4913 C   0  0  0  0  0  0  0  0  0  0  0  0
    6.7437    9.9344   35.9839 H   0  0  0  0  0  0  0  0  0  0  0  0
    7.2293    8.2322   36.2044 H   0  0  0  0  0  0  0  0  0  0  0  0
    8.5693    9.1521   33.7548 C   0  0  1  0  0  3  0  0  0  0  0  0
    9.8300    9.4247   32.9899 C   0  0  0  0  0  0  0  0  0  0  0  0
    9.4188   10.3174   31.8405 C   0  0  0  0  0  0  0  0  0  0  0  0
    9.9872   11.4724   31.3474 C   0  0  0  0  0  0  0  0  0  0  0  0
   10.8605   11.9734   31.7179 H   0  0  0  0  0  0  0  0  0  0  0  0
    9.2057   11.8686   30.2485 C   0  0  0  0  0  0  0  0  0  0  0  0
    9.3678   12.7328   29.6338 H   0  0  0  0  0  0  0  0  0  0  0  0
    8.1940   10.9402   30.1281 C   0  0  0  0  0  0  0  0  0  0  0  0
    7.0390   10.8549   29.1555 C   0  0  0  0  0  0  0  0  0  0  0  0
    7.0149    9.4291   28.6913 C   0  0  1  0  0  3  0  0  0  0  0  0
    7.0441    7.7049   27.2783 C   0  0  0  0  0  0  0  0  0  0  0  0
    7.9152    7.4074   26.6890 H   0  0  0  0  0  0  0  0  0  0  0  0
    6.1331    7.3931   26.7607 H   0  0  0  0  0  0  0  0  0  0  0  0
    7.1039    7.1975   28.7370 C   0  0  1  0  0  0  0  0  0  0  0  0
    6.2588    6.5528   28.9945 H   0  0  0  0  0  0  0  0  0  0  0  0
    8.3976    6.5214   29.1270 C   0  0  0  0  0  0  0  0  0  0  0  0
    8.3820    5.3330   29.8444 C   0  0  0  0  0  0  0  0  0  0  0  0
    7.4376    4.8810   30.1056 H   0  0  0  0  0  0  0  0  0  0  0  0
    9.5705    4.7429   30.2384 C   0  0  0  0  0  0  0  0  0  0  0  0
    9.5508    3.8197   30.7984 H   0  0  0  0  0  0  0  0  0  0  0  0
   10.7808    5.3348   29.9204 C   0  0  0  0  0  0  0  0  0  0  0  0
   11.7075    4.8727   30.2274 H   0  0  0  0  0  0  0  0  0  0  0  0
   10.8012    6.5272   29.2163 C   0  0  0  0  0  0  0  0  0  0  0  0
   11.7425    6.9994   28.9763 H   0  0  0  0  0  0  0  0  0  0  0  0
    9.6155    7.1225   28.8261 C   0  0  0  0  0  0  0  0  0  0  0  0
    9.6398    8.0656   28.2982 H   0  0  0  0  0  0  0  0  0  0  0  0
    5.3600    9.6498   33.7591 C   0  0  0  0  0  0  0  0  0  0  0  0
    5.6420   11.0108   33.7005 C   0  0  0  0  0  0  0  0  0  0  0  0
    6.6217   11.3743   33.9777 H   0  0  0  0  0  0  0  0  0  0  0  0
    4.6779   11.9040   33.2703 C   0  0  0  0  0  0  0  0  0  0  0  0
    4.9047   12.9592   33.2297 H   0  0  0  0  0  0  0  0  0  0  0  0
    3.4293   11.4455   32.8847 C   0  0  0  0  0  0  0  0  0  0  0  0
    2.6782   12.1439   32.5461 H   0  0  0  0  0  0  0  0  0  0  0  0
    3.1503   10.0903   32.9247 C   0  0  0  0  0  0  0  0  0  0  0  0
    2.1816    9.7285   32.6132 H   0  0  0  0  0  0  0  0  0  0  0  0
    4.1113    9.1939   33.3594 C   0  0  0  0  0  0  0  0  0  0  0  0
    3.9004    8.1358   33.3760 H   0  0  0  0  0  0  0  0  0  0  0  0
   10.8863   10.0726   33.8792 C   0  0  0  0  0  0  0  0  0  0  0  0
   11.1123    9.4306   34.7274 H   0  0  0  0  0  0  0  0  0  0  0  0
   10.5341   11.0304   34.2531 H   0  0  0  0  0  0  0  0  0  0  0  0
   11.7957   10.2332   33.3068 H   0  0  0  0  0  0  0  0  0  0  0  0
   10.3339    8.0808   32.4297 C   0  0  0  0  0  0  0  0  0  0  0  0
   10.6184    7.4067   33.2354 H   0  0  0  0  0  0  0  0  0  0  0  0
   11.1933    8.2526   31.7870 H   0  0  0  0  0  0  0  0  0  0  0  0
    9.5409    7.6110   31.8365 H   0  0  0  0  0  0  0  0  0  0  0  0
    5.7231   11.1216   29.9112 C   0  0  0  0  0  0  0  0  0  0  0  0
    5.7481   12.1169   30.3470 H   0  0  0  0  0  0  0  0  0  0  0  0
    5.6089   10.3885   30.7183 H   0  0  0  0  0  0  0  0  0  0  0  0
    4.8685   11.0452   29.2417 H   0  0  0  0  0  0  0  0  0  0  0  0
    7.1954   11.8158   27.9814 C   0  0  0  0  0  0  0  0  0  0  0  0
    6.3807   11.6834   27.2733 H   0  0  0  0  0  0  0  0  0  0  0  0
    8.1355   11.6378   27.4660 H   0  0  0  0  0  0  0  0  0  0  0  0
    7.1835   12.8397   28.3445 H   0  0  0  0  0  0  0  0  0  0  0  0
  1  2  1  0  0  0  0
  1  5  1  0  0  0  0
  3 10  1  0  0  0  0
  4 22  1  0  0  0  0
  5 13  1  0  0  0  0
  5  8  1  0  0  0  0
  6  1  1  0  0  0  0
  6 15  1  0  0  0  0
  7  1  1  0  0  0  0
  8  9  1  0  0  0  0
  8 10  1  0  0  0  0
 10 11  1  0  0  0  0
 10 12  1  0  0  0  0
 13  3  1  0  0  0  0
 14 13  1  0  0  0  0
 14 50  1  0  0  0  0
 15 14  1  0  0  0  0
 16 17  1  0  0  0  0
 16 15  2  0  0  0  0
 18 16  1  0  0  0  0
 19 18  1  0  0  0  0
 20 18  2  0  0  0  0
 20  6  1  0  0  0  0
 21 58  1  0  0  0  0
 21 20  1  0  0  0  0
 22 21  1  0  0  0  0
 22  7  1  0  0  0  0
 23  4  1  0  0  0  0
 23 26  1  0  0  0  0
 24 23  1  0  0  0  0
 25 23  1  0  0  0  0
 26 27  1  0  0  0  0
 26 28  1  0  0  0  0
 26  7  1  0  0  0  0
 28 29  1  0  0  0  0
 29 30  1  0  0  0  0
 29 31  2  0  0  0  0
 31 32  1  0  0  0  0
 33 34  1  0  0  0  0
 33 31  1  0  0  0  0
 35 33  2  0  0  0  0
 36 35  1  0  0  0  0
 37 28  2  0  0  0  0
 37 35  1  0  0  0  0
 38 37  1  0  0  0  0
 39  8  1  0  0  0  0
 40 39  1  0  0  0  0
 40 41  1  0  0  0  0
 42 40  2  0  0  0  0
 43 42  1  0  0  0  0
 44 46  2  0  0  0  0
 44 42  1  0  0  0  0
 45 44  1  0  0  0  0
 46 48  1  0  0  0  0
 47 46  1  0  0  0  0
 48 49  1  0  0  0  0
 48 39  2  0  0  0  0
 50 52  1  0  0  0  0
 50 51  1  0  0  0  0
 53 50  1  0  0  0  0
 54 14  1  0  0  0  0
 54 55  1  0  0  0  0
 56 54  1  0  0  0  0
 57 54  1  0  0  0  0
 58 59  1  0  0  0  0
 58 60  1  0  0  0  0
 61 58  1  0  0  0  0
 62 65  1  0  0  0  0
 62 21  1  0  0  0  0
 63 62  1  0  0  0  0
 64 62  1  0  0  0  0
M  END
$$$$
