CSD_code = LAPDAK | q = 0 | S = 0 | Stoichiometry = C27H21ClZr | MND = 12
 OpenBabel04212202063D

 50 55  0  0  1  0  0  0  0  0999 V2000
    3.7285    3.2884   12.9922 Zr  0  0  2  0  0  0  0  0  0  0  0  0
    2.2860    4.3908   11.5072 Cl  0  0  0  0  0  0  0  0  0  0  0  0
    2.1581    3.5017   14.6018 C   0  0  2  0  0  0  0  0  0  0  0  0
    2.9285    2.7952   15.6079 C   0  0  0  0  0  0  0  0  0  0  0  0
    2.5023    1.4911   15.7026 C   0  0  0  0  0  0  0  0  0  0  0  0
    1.4149    1.2992   14.7999 C   0  0  0  0  0  0  0  0  0  0  0  0
    1.1729    2.5408   14.1382 C   0  0  0  0  0  0  0  0  0  0  0  0
    0.1036    2.6589   13.2452 C   0  0  0  0  0  0  0  0  0  0  0  0
   -0.6768    1.5488   12.9971 C   0  0  0  0  0  0  0  0  0  0  0  0
   -0.4172    0.3240   13.6206 C   0  0  0  0  0  0  0  0  0  0  0  0
    0.6168    0.1884   14.5207 C   0  0  0  0  0  0  0  0  0  0  0  0
    5.6645    4.1601   14.4155 C   0  0  0  0  0  0  0  0  0  0  0  0
    6.0986    4.1053   13.0742 C   0  0  0  0  0  0  0  0  0  0  0  0
    5.3427    5.0040   12.2901 C   0  0  2  0  0  0  0  0  0  0  0  0
    4.4946    5.7324   13.1811 C   0  0  0  0  0  0  0  0  0  0  0  0
    4.7110    5.2196   14.5127 C   0  0  0  0  0  0  0  0  0  0  0  0
    4.0991    5.8580   15.6083 C   0  0  0  0  0  0  0  0  0  0  0  0
    3.2620    6.9214   15.3780 C   0  0  0  0  0  0  0  0  0  0  0  0
    3.0115    7.3866   14.0754 C   0  0  0  0  0  0  0  0  0  0  0  0
    3.6196    6.8172   12.9845 C   0  0  0  0  0  0  0  0  0  0  0  0
    5.2712    1.2993   12.6426 C   0  0  0  0  0  0  0  0  0  0  0  0
    4.0153    0.8252   13.0719 C   0  0  0  0  0  0  0  0  0  0  0  0
    3.0369    1.1143   12.0890 C   0  0  2  0  0  0  0  0  0  0  0  0
    3.7119    1.7104   10.9807 C   0  0  0  0  0  0  0  0  0  0  0  0
    5.1076    1.8313   11.3266 C   0  0  0  0  0  0  0  0  0  0  0  0
    6.0122    2.3413   10.3742 C   0  0  0  0  0  0  0  0  0  0  0  0
    5.5401    2.7241    9.1432 C   0  0  0  0  0  0  0  0  0  0  0  0
    4.1787    2.6110    8.8119 C   0  0  0  0  0  0  0  0  0  0  0  0
    3.2675    2.1075    9.7053 C   0  0  0  0  0  0  0  0  0  0  0  0
    1.9135    4.5652   14.6753 H   0  0  0  0  0  0  0  0  0  0  0  0
    3.6403    3.2537   16.2831 H   0  0  0  0  0  0  0  0  0  0  0  0
    2.8942    0.7398   16.3678 H   0  0  0  0  0  0  0  0  0  0  0  0
   -0.1132    3.6062   12.7694 H   0  0  0  0  0  0  0  0  0  0  0  0
   -1.5109    1.6229   12.3148 H   0  0  0  0  0  0  0  0  0  0  0  0
   -1.0494   -0.5234   13.3977 H   0  0  0  0  0  0  0  0  0  0  0  0
    0.8027   -0.7564   15.0116 H   0  0  0  0  0  0  0  0  0  0  0  0
    6.1534    3.6737   15.2512 H   0  0  0  0  0  0  0  0  0  0  0  0
    6.9645    3.5543   12.7293 H   0  0  0  0  0  0  0  0  0  0  0  0
    5.5078    5.2384   11.2438 H   0  0  0  0  0  0  0  0  0  0  0  0
    4.3108    5.5365   16.6195 H   0  0  0  0  0  0  0  0  0  0  0  0
    2.7958    7.4259   16.2111 H   0  0  0  0  0  0  0  0  0  0  0  0
    2.3479    8.2275   13.9417 H   0  0  0  0  0  0  0  0  0  0  0  0
    3.4571    7.2084   11.9897 H   0  0  0  0  0  0  0  0  0  0  0  0
    6.2153    1.0930   13.1319 H   0  0  0  0  0  0  0  0  0  0  0  0
    3.8539    0.2122   13.9499 H   0  0  0  0  0  0  0  0  0  0  0  0
    2.0187    0.7466   12.0742 H   0  0  0  0  0  0  0  0  0  0  0  0
    7.0713    2.3927   10.5938 H   0  0  0  0  0  0  0  0  0  0  0  0
    6.2272    3.1056    8.4022 H   0  0  0  0  0  0  0  0  0  0  0  0
    3.8556    2.9137    7.8275 H   0  0  0  0  0  0  0  0  0  0  0  0
    2.2251    1.9985    9.4393 H   0  0  0  0  0  0  0  0  0  0  0  0
  1  2  1  6  0  0  0
  1  3  1  0  0  0  0
  3 30  1  1  0  0  0
  3  4  1  0  0  0  0
  4  5  2  0  0  0  0
  4 31  1  0  0  0  0
  5 32  1  0  0  0  0
  6  5  1  0  0  0  0
  7  3  1  0  0  0  0
  7  6  2  0  0  0  0
  8  7  1  0  0  0  0
  9  8  2  0  0  0  0
  9 10  1  0  0  0  0
 10 11  2  0  0  0  0
 11  6  1  0  0  0  0
 11 36  1  0  0  0  0
 12 16  1  0  0  0  0
 12 37  1  0  0  0  0
 13 12  2  0  0  0  0
 14 39  1  6  0  0  0
 14  1  1  0  0  0  0
 14 13  1  0  0  0  0
 14 15  1  0  0  0  0
 15 16  1  0  0  0  0
 16 17  2  0  0  0  0
 17 40  1  0  0  0  0
 18 17  1  0  0  0  0
 18 41  1  0  0  0  0
 19 18  2  0  0  0  0
 20 15  2  0  0  0  0
 20 19  1  0  0  0  0
 21 22  2  0  0  0  0
 21 44  1  0  0  0  0
 22 45  1  0  0  0  0
 23 46  1  6  0  0  0
 23  1  1  0  0  0  0
 23 22  1  0  0  0  0
 24 25  1  0  0  0  0
 24 23  1  0  0  0  0
 25 21  1  0  0  0  0
 26 47  1  0  0  0  0
 26 25  2  0  0  0  0
 27 26  1  0  0  0  0
 28 27  2  0  0  0  0
 28 29  1  0  0  0  0
 29 24  2  0  0  0  0
 33  8  1  0  0  0  0
 34  9  1  0  0  0  0
 35 10  1  0  0  0  0
 38 13  1  0  0  0  0
 42 19  1  0  0  0  0
 43 20  1  0  0  0  0
 48 27  1  0  0  0  0
 49 28  1  0  0  0  0
 50 29  1  0  0  0  0
M  END
$$$$
