CSD_code = LAQBUB | q = 0 | S = 0 | Stoichiometry = C18H12AuClF3P | MND = 2
 OpenBabel04212202063D

 36 38  0  0  0  0  0  0  0  0999 V2000
    1.4156    1.6350   -0.1619 Au  0  0  0  0  0  0  0  0  0  0  0  0
    0.8412    0.3786    1.6231 Cl  0  0  0  0  0  0  0  0  0  0  0  0
    2.0200    2.8901   -1.9211 P   0  0  0  0  0  4  0  0  0  0  0  0
   -2.6575    4.9931   -4.8333 F   0  0  0  0  0  0  0  0  0  0  0  0
    5.4347    7.4837   -0.4842 F   0  0  0  0  0  0  0  0  0  0  0  0
    5.2650   -0.0759   -5.8578 F   0  0  0  0  0  0  0  0  0  0  0  0
    0.6363    3.6122   -2.8428 C   0  0  0  0  0  0  0  0  0  0  0  0
   -0.3415    2.7173   -3.2792 C   0  0  0  0  0  0  0  0  0  0  0  0
   -0.2175    1.6605   -3.0805 H   0  0  0  0  0  0  0  0  0  0  0  0
   -1.4533    3.1746   -3.9561 C   0  0  0  0  0  0  0  0  0  0  0  0
   -2.2194    2.5011   -4.3062 H   0  0  0  0  0  0  0  0  0  0  0  0
   -1.5799    4.5380   -4.1748 C   0  0  0  0  0  0  0  0  0  0  0  0
   -0.6326    5.4456   -3.7331 C   0  0  0  0  0  0  0  0  0  0  0  0
   -0.7748    6.4991   -3.9158 H   0  0  0  0  0  0  0  0  0  0  0  0
    0.4808    4.9771   -3.0591 C   0  0  0  0  0  0  0  0  0  0  0  0
    1.2272    5.6724   -2.7032 H   0  0  0  0  0  0  0  0  0  0  0  0
    3.0878    4.3011   -1.5208 C   0  0  0  0  0  0  0  0  0  0  0  0
    3.0586    4.7901   -0.2175 C   0  0  0  0  0  0  0  0  0  0  0  0
    2.4177    4.3143    0.5133 H   0  0  0  0  0  0  0  0  0  0  0  0
    3.8461    5.8679    0.1400 C   0  0  0  0  0  0  0  0  0  0  0  0
    3.8397    6.2628    1.1435 H   0  0  0  0  0  0  0  0  0  0  0  0
    4.6634    6.4386   -0.8215 C   0  0  0  0  0  0  0  0  0  0  0  0
    4.7141    5.9637   -2.1228 C   0  0  0  0  0  0  0  0  0  0  0  0
    5.3688    6.4351   -2.8388 H   0  0  0  0  0  0  0  0  0  0  0  0
    3.9208    4.8881   -2.4711 C   0  0  0  0  0  0  0  0  0  0  0  0
    3.9471    4.5001   -3.4795 H   0  0  0  0  0  0  0  0  0  0  0  0
    2.9702    2.0069   -3.1905 C   0  0  0  0  0  0  0  0  0  0  0  0
    2.7724    2.1788   -4.5574 C   0  0  0  0  0  0  0  0  0  0  0  0
    2.0124    2.8590   -4.9151 H   0  0  0  0  0  0  0  0  0  0  0  0
    3.5466    1.4741   -5.4603 C   0  0  0  0  0  0  0  0  0  0  0  0
    3.4113    1.5885   -6.5243 H   0  0  0  0  0  0  0  0  0  0  0  0
    4.5121    0.6052   -4.9798 C   0  0  0  0  0  0  0  0  0  0  0  0
    4.7229    0.4150   -3.6234 C   0  0  0  0  0  0  0  0  0  0  0  0
    5.4798   -0.2767   -3.2892 H   0  0  0  0  0  0  0  0  0  0  0  0
    3.9410    1.1193   -2.7299 C   0  0  0  0  0  0  0  0  0  0  0  0
    4.0705    0.9834   -1.6641 H   0  0  0  0  0  0  0  0  0  0  0  0
  1  2  1  0  0  0  0
  3 17  1  0  0  0  0
  3  1  1  0  0  0  0
  4 12  1  0  0  0  0
  6 32  1  0  0  0  0
  7  3  1  0  0  0  0
  8  9  1  0  0  0  0
  8  7  2  0  0  0  0
 10  8  1  0  0  0  0
 11 10  1  0  0  0  0
 12 10  2  0  0  0  0
 12 13  1  0  0  0  0
 13 15  2  0  0  0  0
 14 13  1  0  0  0  0
 15  7  1  0  0  0  0
 15 16  1  0  0  0  0
 17 18  1  0  0  0  0
 18 20  2  0  0  0  0
 18 19  1  0  0  0  0
 20 21  1  0  0  0  0
 22  5  1  0  0  0  0
 22 20  1  0  0  0  0
 23 22  2  0  0  0  0
 24 23  1  0  0  0  0
 25 23  1  0  0  0  0
 25 17  2  0  0  0  0
 26 25  1  0  0  0  0
 27 35  1  0  0  0  0
 27  3  1  0  0  0  0
 28 27  2  0  0  0  0
 29 28  1  0  0  0  0
 30 32  2  0  0  0  0
 30 28  1  0  0  0  0
 31 30  1  0  0  0  0
 32 33  1  0  0  0  0
 33 34  1  0  0  0  0
 33 35  2  0  0  0  0
 35 36  1  0  0  0  0
M  END
$$$$
