CSD_code = LAQGOC | q = 0 | S = 0 | Stoichiometry = C14H19ClIrN | MND = 6
 OpenBabel04212202063D

 36 37  0  0  1  0  0  0  0  0999 V2000
    1.2606    2.2643    2.1209 Ir  0  0  0  0  0  0  0  0  0  0  0  0
    0.5914    4.3116    2.9993 Cl  0  0  0  0  0 15  0  0  0  0  0  0
   -0.3612    2.4727    0.9145 N   0  0  0  0  0  0  0  0  0  0  0  0
   -1.5295    1.9436    1.2929 C   0  0  0  0  0  3  0  0  0  0  0  0
   -1.5022    1.2760    2.1435 H   0  0  0  0  0  0  0  0  0  0  0  0
   -2.7258    2.2192    0.6628 C   0  0  0  0  0  0  0  0  0  0  0  0
   -3.6387    1.7684    1.0175 H   0  0  0  0  0  0  0  0  0  0  0  0
   -2.7222    3.0832   -0.4216 C   0  0  0  0  0  0  0  0  0  0  0  0
   -3.6354    3.3243   -0.9436 H   0  0  0  0  0  0  0  0  0  0  0  0
   -1.5153    3.6363   -0.8122 C   0  0  0  0  0  0  0  0  0  0  0  0
   -1.4703    4.3214   -1.6445 H   0  0  0  0  0  0  0  0  0  0  0  0
   -0.3503    3.3241   -0.1241 C   0  0  0  0  0  0  0  0  0  0  0  0
    0.9537    3.9479   -0.4933 C   0  0  0  0  0  0  0  0  0  0  0  0
    1.2693    4.6015    0.3204 H   0  0  0  0  0  0  0  0  0  0  0  0
    0.8644    4.5332   -1.4042 H   0  0  0  0  0  0  0  0  0  0  0  0
    1.7223    3.1886   -0.6227 H   0  0  0  0  0  0  0  0  0  0  0  0
    3.2367    2.5545    2.8542 C   0  0  1  0  0  0  0  0  0  0  0  0
    3.3854    3.6135    3.0573 H   0  0  0  0  0  0  0  0  0  0  0  0
    2.5217    1.8135    3.7951 C   0  0  0  0  0  3  0  0  0  0  0  0
    2.1356    2.3500    4.6590 H   0  0  0  0  0  0  0  0  0  0  0  0
    2.7410    0.3297    4.0151 C   0  0  0  0  0  0  0  0  0  0  0  0
    2.5779    0.0967    5.0683 H   0  0  0  0  0  0  0  0  0  0  0  0
    3.7796    0.0870    3.7877 H   0  0  0  0  0  0  0  0  0  0  0  0
    1.7891   -0.5280    3.1608 C   0  0  0  0  0  0  0  0  0  0  0  0
    2.2600   -1.4860    2.9150 H   0  0  0  0  0  0  0  0  0  0  0  0
    0.8932   -0.7507    3.7435 H   0  0  0  0  0  0  0  0  0  0  0  0
    1.3533    0.1635    1.8873 C   0  0  2  0  0  0  0  0  0  0  0  0
    0.4289   -0.2475    1.4811 H   0  0  0  0  0  0  0  0  0  0  0  0
    2.2363    0.7584    0.9692 C   0  0  0  0  0  3  0  0  0  0  0  0
    1.9127    0.7754   -0.0699 H   0  0  0  0  0  0  0  0  0  0  0  0
    3.7427    0.7338    1.1454 C   0  0  0  0  0  0  0  0  0  0  0  0
    4.2179    0.7005    0.1633 H   0  0  0  0  0  0  0  0  0  0  0  0
    4.0241   -0.1810    1.6685 H   0  0  0  0  0  0  0  0  0  0  0  0
    4.2616    1.9688    1.9074 C   0  0  0  0  0  0  0  0  0  0  0  0
    5.1677    1.7146    2.4667 H   0  0  0  0  0  0  0  0  0  0  0  0
    4.5344    2.7427    1.1877 H   0  0  0  0  0  0  0  0  0  0  0  0
  1 17  1  0  0  0  0
  3  4  1  0  0  0  0
  3  1  1  0  0  0  0
  4  5  1  0  0  0  0
  6  7  1  0  0  0  0
  6  4  1  0  0  0  0
  8  6  2  0  0  0  0
  9  8  1  0  0  0  0
 10  8  1  0  0  0  0
 10 12  2  0  0  0  0
 11 10  1  0  0  0  0
 12  3  1  0  0  0  0
 13 12  1  0  0  0  0
 13 14  1  0  0  0  0
 15 13  1  0  0  0  0
 16 13  1  0  0  0  0
 17 18  1  1  0  0  0
 17 19  1  0  0  0  0
 19 21  1  0  0  0  0
 19 20  1  0  0  0  0
 21 22  1  0  0  0  0
 23 21  1  0  0  0  0
 24 26  1  0  0  0  0
 24 21  1  0  0  0  0
 25 24  1  0  0  0  0
 27 28  1  6  0  0  0
 27  1  1  0  0  0  0
 27 24  1  0  0  0  0
 29 31  1  0  0  0  0
 29 27  1  0  0  0  0
 30 29  1  0  0  0  0
 31 33  1  0  0  0  0
 31 34  1  0  0  0  0
 32 31  1  0  0  0  0
 34 35  1  0  0  0  0
 34 17  1  0  0  0  0
 36 34  1  0  0  0  0
M  END
$$$$
