CSD_code = LAQGEP | q = 0 | S = 0 | Stoichiometry = C6H8Br2HgN4S2 | MND = 4
 OpenBabel04212202063D

 23 24  0  0  1  0  0  0  0  0999 V2000
   -0.3935    2.6796    3.6322 Hg  0  0  0  0  0  0  0  0  0  0  0  0
   -2.4958    1.2483    3.5879 Br  0  0  0  0  0  0  0  0  0  0  0  0
   -0.2627    3.8885    1.1663 S   0  0  0  0  0  0  0  0  0  0  0  0
    1.0563    1.5979    0.4089 N   0  0  0  0  0  0  0  0  0  0  0  0
    1.4572    1.3724    1.3199 H   0  0  0  0  0  0  0  0  0  0  0  0
   -0.0523    2.5919   -1.1607 N   0  0  0  0  0  0  0  0  0  0  0  0
   -0.6435    3.2635   -1.6227 H   0  0  0  0  0  0  0  0  0  0  0  0
    0.2584    2.6515    0.1534 C   0  0  2  0  0  3  0  0  0  0  0  0
    1.2349    0.8727   -0.7401 C   0  0  0  0  0  0  0  0  0  0  0  0
    1.8302   -0.0156   -0.7547 H   0  0  0  0  0  0  0  0  0  0  0  0
    0.5459    1.4922   -1.7242 C   0  0  0  0  0  0  0  0  0  0  0  0
    0.4314    1.2484   -2.7591 H   0  0  0  0  0  0  0  0  0  0  0  0
    1.7080    1.2472    3.6779 Br  0  0  0  0  0  0  0  0  0  0  0  0
   -0.5254    3.8882    6.0988 S   0  0  0  0  0  0  0  0  0  0  0  0
   -1.0463    2.6515    7.1121 C   0  0  2  0  0  3  0  0  0  0  0  0
   -1.8441    1.5978    6.8568 N   0  0  0  0  0  0  0  0  0  0  0  0
   -2.2452    1.3723    5.9458 H   0  0  0  0  0  0  0  0  0  0  0  0
   -2.0225    0.8725    8.0058 C   0  0  0  0  0  0  0  0  0  0  0  0
   -2.6177   -0.0158    8.0203 H   0  0  0  0  0  0  0  0  0  0  0  0
   -1.3335    1.4922    8.9898 C   0  0  0  0  0  0  0  0  0  0  0  0
   -0.7355    2.5920    8.4262 N   0  0  0  0  0  0  0  0  0  0  0  0
   -0.1443    3.2636    8.8883 H   0  0  0  0  0  0  0  0  0  0  0  0
   -1.2188    1.2484   10.0247 H   0  0  0  0  0  0  0  0  0  0  0  0
  1 13  1  0  0  0  0
  1 14  1  0  0  0  0
  2  1  1  0  0  0  0
  3  1  1  0  0  0  0
  4  5  1  0  0  0  0
  6  8  1  0  0  0  0
  7  6  1  0  0  0  0
  8  4  1  0  0  0  0
  8  3  1  6  0  0  0
  9  4  1  0  0  0  0
 10  9  1  0  0  0  0
 11  6  1  0  0  0  0
 11  9  2  0  0  0  0
 12 11  1  0  0  0  0
 15 14  1  1  0  0  0
 15 21  1  0  0  0  0
 16 15  1  0  0  0  0
 16 18  1  0  0  0  0
 17 16  1  0  0  0  0
 18 19  1  0  0  0  0
 18 20  2  0  0  0  0
 20 23  1  0  0  0  0
 21 22  1  0  0  0  0
 21 20  1  0  0  0  0
M  END
$$$$
