CSD_code = LAQMEW | q = 0 | S = 0 | Stoichiometry = C19H32ClORhS2 | MND = 8
 OpenBabel04212202063D

 56 54  0  0  1  0  0  0  0  0999 V2000
   10.5974   10.1827    0.4717 Rh  0  0  0  0  0  0  0  0  0  0  0  0
    8.9398   10.0829   -1.1350 Cl  0  0  0  0  0 15  0  0  0  0  0  0
    8.8530   10.2455    2.1167 S   0  0  0  0  0  1  0  0  0  0  0  0
   10.0433    7.9070    1.0080 S   0  0  0  0  0  0  0  0  0  0  0  0
    7.8119    7.8930    2.4582 O   0  0  0  0  0  0  0  0  0  0  0  0
    8.7894    8.5774    1.9135 C   0  0  0  0  0  0  0  0  0  0  0  0
    7.7553    6.4893    2.2089 C   0  0  0  0  0  0  0  0  0  0  0  0
    8.6829    6.0261    2.5678 H   0  0  0  0  0  0  0  0  0  0  0  0
    7.6860    6.3268    1.1266 H   0  0  0  0  0  0  0  0  0  0  0  0
    6.5394    5.9318    2.9335 C   0  0  0  0  0  0  0  0  0  0  0  0
    5.6699    6.5127    2.6276 H   0  0  0  0  0  0  0  0  0  0  0  0
    6.3938    4.8970    2.6197 H   0  0  0  0  0  0  0  0  0  0  0  0
    6.7106    6.0023    4.4494 C   0  0  0  0  0  0  0  0  0  0  0  0
    6.8771    7.0398    4.7391 H   0  0  0  0  0  0  0  0  0  0  0  0
    7.6024    5.4347    4.7284 H   0  0  0  0  0  0  0  0  0  0  0  0
    5.5179    5.4330    5.2179 C   0  0  0  0  0  0  0  0  0  0  0  0
    5.3825    4.3863    4.9331 H   0  0  0  0  0  0  0  0  0  0  0  0
    5.7573    5.4551    6.2839 H   0  0  0  0  0  0  0  0  0  0  0  0
    4.1965    6.1726    4.9997 C   0  0  0  0  0  0  0  0  0  0  0  0
    3.4276    5.6712    5.5937 H   0  0  0  0  0  0  0  0  0  0  0  0
    3.8947    6.0952    3.9537 H   0  0  0  0  0  0  0  0  0  0  0  0
    4.2490    7.6437    5.4061 C   0  0  0  0  0  0  0  0  0  0  0  0
    4.6336    7.7225    6.4261 H   0  0  0  0  0  0  0  0  0  0  0  0
    4.9304    8.1865    4.7490 H   0  0  0  0  0  0  0  0  0  0  0  0
    2.8730    8.3021    5.3360 C   0  0  0  0  0  0  0  0  0  0  0  0
    2.1844    7.7749    6.0007 H   0  0  0  0  0  0  0  0  0  0  0  0
    2.4828    8.2141    4.3195 H   0  0  0  0  0  0  0  0  0  0  0  0
    2.9308    9.7731    5.7295 C   0  0  0  0  0  0  0  0  0  0  0  0
    3.3009    9.8814    6.7468 H   0  0  0  0  0  0  0  0  0  0  0  0
    1.9429   10.2246    5.6740 H   0  0  0  0  0  0  0  0  0  0  0  0
    3.5957   10.3194    5.0643 H   0  0  0  0  0  0  0  0  0  0  0  0
   12.5368   10.6426    1.3796 C   0  0  0  0  0  0  0  0  0  0  0  0
   12.7656   10.0336    0.0948 C   0  0  0  0  0  0  0  0  0  0  0  0
   12.1636   10.8575   -0.9002 C   0  0  0  0  0  0  0  0  0  0  0  0
   11.5685   11.9936   -0.2356 C   0  0  2  0  0  0  0  0  0  0  0  0
   11.8356   11.8737    1.1640 C   0  0  0  0  0  0  0  0  0  0  0  0
   13.1461   10.1993    2.6714 C   0  0  0  0  0  0  0  0  0  0  0  0
   13.2366    9.1162    2.7099 H   0  0  0  0  0  0  0  0  0  0  0  0
   12.5470   10.5257    3.5181 H   0  0  0  0  0  0  0  0  0  0  0  0
   14.1443   10.6300    2.7711 H   0  0  0  0  0  0  0  0  0  0  0  0
   13.5996    8.8181   -0.1504 C   0  0  0  0  0  0  0  0  0  0  0  0
   13.2793    8.2977   -1.0498 H   0  0  0  0  0  0  0  0  0  0  0  0
   13.5383    8.1256    0.6858 H   0  0  0  0  0  0  0  0  0  0  0  0
   14.6424    9.1163   -0.2741 H   0  0  0  0  0  0  0  0  0  0  0  0
   12.2464   10.7012   -2.3835 C   0  0  0  0  0  0  0  0  0  0  0  0
   12.8346   11.5186   -2.8021 H   0  0  0  0  0  0  0  0  0  0  0  0
   11.2520   10.7371   -2.8260 H   0  0  0  0  0  0  0  0  0  0  0  0
   12.7118    9.7582   -2.6550 H   0  0  0  0  0  0  0  0  0  0  0  0
   10.9779   13.1681   -0.9452 C   0  0  0  0  0  0  0  0  0  0  0  0
   10.4160   13.7997   -0.2625 H   0  0  0  0  0  0  0  0  0  0  0  0
   10.3115   12.8361   -1.7389 H   0  0  0  0  0  0  0  0  0  0  0  0
   11.7768   13.7615   -1.3939 H   0  0  0  0  0  0  0  0  0  0  0  0
   11.5340   12.8995    2.2067 C   0  0  0  0  0  0  0  0  0  0  0  0
   12.3761   13.5897    2.2840 H   0  0  0  0  0  0  0  0  0  0  0  0
   11.3775   12.4383    3.1786 H   0  0  0  0  0  0  0  0  0  0  0  0
   10.6441   13.4692    1.9505 H   0  0  0  0  0  0  0  0  0  0  0  0
  4  6  2  0  0  0  0
  6  3  1  0  0  0  0
  6  5  1  0  0  0  0
  7  5  1  0  0  0  0
  7  8  1  0  0  0  0
  7 10  1  0  0  0  0
  9  7  1  0  0  0  0
 10 13  1  0  0  0  0
 11 10  1  0  0  0  0
 12 10  1  0  0  0  0
 13 15  1  0  0  0  0
 13 14  1  0  0  0  0
 13 16  1  0  0  0  0
 16 18  1  0  0  0  0
 17 16  1  0  0  0  0
 19 16  1  0  0  0  0
 19 22  1  0  0  0  0
 19 20  1  0  0  0  0
 21 19  1  0  0  0  0
 22 23  1  0  0  0  0
 24 22  1  0  0  0  0
 25 22  1  0  0  0  0
 25 28  1  0  0  0  0
 25 26  1  0  0  0  0
 27 25  1  0  0  0  0
 28 29  1  0  0  0  0
 30 28  1  0  0  0  0
 31 28  1  0  0  0  0
 32 37  1  0  0  0  0
 33 32  1  0  0  0  0
 34 35  1  0  0  0  0
 34 33  2  0  0  0  0
 35  1  1  1  0  0  0
 35 36  1  0  0  0  0
 36 32  2  0  0  0  0
 36 53  1  0  0  0  0
 37 38  1  0  0  0  0
 37 40  1  0  0  0  0
 37 39  1  0  0  0  0
 41 33  1  0  0  0  0
 41 43  1  0  0  0  0
 42 41  1  0  0  0  0
 44 41  1  0  0  0  0
 45 34  1  0  0  0  0
 46 45  1  0  0  0  0
 47 45  1  0  0  0  0
 48 45  1  0  0  0  0
 49 50  1  0  0  0  0
 49 35  1  0  0  0  0
 51 49  1  0  0  0  0
 52 49  1  0  0  0  0
 53 54  1  0  0  0  0
 53 55  1  0  0  0  0
 56 53  1  0  0  0  0
M  END
$$$$
