CSD_code = LAQVAA | q = 0 | S = 0 | Stoichiometry = C25H31Cl3LaN3O6 | MND = 9
 OpenBabel04212202063D

 69 72  0  0  0  0  0  0  0  0999 V2000
   -2.0163    3.0186   18.2396 La  0  0  0  0  0  0  0  0  0  0  0  0
   -1.4872    2.8825   15.6301 Cl  0  0  0  0  0  0  0  0  0  0  0  0
    0.5005    2.0202   18.5828 Cl  0  0  0  0  0  0  0  0  0  0  0  0
   -3.1362    5.0942   19.4291 Cl  0  0  0  0  0  0  0  0  0  0  0  0
   -3.8167    1.8804   17.6625 O   0  0  0  0  0  0  0  0  0  0  0  0
   -2.0764    2.0671   20.3463 O   0  0  0  0  0  0  0  0  0  0  0  0
   -3.8861    1.6870   16.4189 C   0  0  0  0  0  0  0  0  0  0  0  0
   -4.5063    2.6993   15.5819 C   0  0  0  0  0  0  0  0  0  0  0  0
   -4.7607    2.4540   14.2497 C   0  0  0  0  0  0  0  0  0  0  0  0
   -5.2569    3.1900   13.6352 H   0  0  0  0  0  0  0  0  0  0  0  0
   -4.3516    1.2491   13.6804 C   0  0  0  0  0  0  0  0  0  0  0  0
   -4.5650    1.0623   12.6393 H   0  0  0  0  0  0  0  0  0  0  0  0
   -3.6144    0.3298   14.4062 C   0  0  0  0  0  0  0  0  0  0  0  0
   -3.2127   -0.5440   13.9142 H   0  0  0  0  0  0  0  0  0  0  0  0
   -3.3303    0.5407   15.7504 C   0  0  0  0  0  0  0  0  0  0  0  0
   -2.3863   -0.2722   16.4656 C   0  0  0  0  0  0  0  0  0  0  0  0
   -2.0059   -1.1442   15.9160 H   0  0  0  0  0  0  0  0  0  0  0  0
   -1.9689    0.0253   17.6348 N   0  0  0  0  0  0  0  0  0  0  0  0
   -1.0344   -0.8662   18.2778 C   0  0  0  0  0  0  0  0  0  0  0  0
   -0.7843   -0.4428   19.2527 H   0  0  0  0  0  0  0  0  0  0  0  0
   -0.1157   -0.9201   17.6807 H   0  0  0  0  0  0  0  0  0  0  0  0
   -1.5648   -2.2976   18.4752 C   0  0  0  0  0  0  0  0  0  0  0  0
   -2.1049   -2.6204   17.5683 H   0  0  0  0  0  0  0  0  0  0  0  0
   -0.7060   -2.9605   18.6087 H   0  0  0  0  0  0  0  0  0  0  0  0
   -2.3873   -2.4274   19.6575 N   0  0  0  0  0  0  0  0  0  0  0  0
   -2.5333   -3.7980   20.0898 C   0  0  0  0  0  0  0  0  0  0  0  0
   -3.1016   -3.8303   21.0175 H   0  0  0  0  0  0  0  0  0  0  0  0
   -1.5490   -4.2278   20.2735 H   0  0  0  0  0  0  0  0  0  0  0  0
   -3.0538   -4.4213   19.3463 H   0  0  0  0  0  0  0  0  0  0  0  0
   -3.6283   -1.6889   19.6508 C   0  0  0  0  0  0  0  0  0  0  0  0
   -4.4726   -2.3061   19.3087 H   0  0  0  0  0  0  0  0  0  0  0  0
   -3.5316   -0.8211   18.9950 H   0  0  0  0  0  0  0  0  0  0  0  0
   -3.9348   -1.1468   21.0655 C   0  0  0  0  0  0  0  0  0  0  0  0
   -4.9393   -0.7194   21.0757 H   0  0  0  0  0  0  0  0  0  0  0  0
   -3.8725   -1.9674   21.7968 H   0  0  0  0  0  0  0  0  0  0  0  0
   -3.0061   -0.1106   21.3231 N   0  0  0  0  0  0  0  0  0  0  0  0
   -1.8521   -0.3431   21.7839 C   0  0  0  0  0  0  0  0  0  0  0  0
   -1.5583   -1.3264   22.1810 H   0  0  0  0  0  0  0  0  0  0  0  0
   -0.8320    0.6747   21.8108 C   0  0  0  0  0  0  0  0  0  0  0  0
    0.3572    0.5009   22.4986 C   0  0  0  0  0  0  0  0  0  0  0  0
    0.5171   -0.4163   23.0471 H   0  0  0  0  0  0  0  0  0  0  0  0
    1.3350    1.4857   22.5095 C   0  0  0  0  0  0  0  0  0  0  0  0
    2.2491    1.3272   23.0604 H   0  0  0  0  0  0  0  0  0  0  0  0
    1.1463    2.6863   21.8391 C   0  0  0  0  0  0  0  0  0  0  0  0
    1.9138    3.4429   21.8794 H   0  0  0  0  0  0  0  0  0  0  0  0
   -0.0209    2.9107   21.1321 C   0  0  0  0  0  0  0  0  0  0  0  0
   -1.0636    1.8853   21.0591 C   0  0  0  0  0  0  0  0  0  0  0  0
   -0.3550    4.0507   20.5006 O   0  0  0  0  0  0  0  0  0  0  0  0
    0.6826    4.9456   20.1388 C   0  0  0  0  0  0  0  0  0  0  0  0
    1.5056    4.3757   19.6881 H   0  0  0  0  0  0  0  0  0  0  0  0
    1.0320    5.5042   21.0162 H   0  0  0  0  0  0  0  0  0  0  0  0
    0.0947    5.9029   19.1092 C   0  0  0  0  0  0  0  0  0  0  0  0
   -0.8230    6.3450   19.5184 H   0  0  0  0  0  0  0  0  0  0  0  0
    0.8266    6.6876   18.8752 H   0  0  0  0  0  0  0  0  0  0  0  0
   -0.1931    5.1461   17.9372 O   0  0  0  0  0  0  0  0  0  0  0  0
   -0.3771    5.9425   16.7821 C   0  0  0  0  0  0  0  0  0  0  0  0
   -0.2939    5.2538   15.9350 H   0  0  0  0  0  0  0  0  0  0  0  0
    0.4097    6.7064   16.7219 H   0  0  0  0  0  0  0  0  0  0  0  0
   -1.7549    6.6019   16.7324 C   0  0  0  0  0  0  0  0  0  0  0  0
   -1.9925    7.0876   17.6885 H   0  0  0  0  0  0  0  0  0  0  0  0
   -1.7727    7.3561   15.9292 H   0  0  0  0  0  0  0  0  0  0  0  0
   -2.6960    5.5872   16.4598 O   0  0  0  0  0  0  0  0  0  0  0  0
   -4.0291    6.0660   16.4149 C   0  0  0  0  0  0  0  0  0  0  0  0
   -4.0674    7.0461   15.9198 H   0  0  0  0  0  0  0  0  0  0  0  0
   -4.4260    6.1440   17.4354 H   0  0  0  0  0  0  0  0  0  0  0  0
   -4.8363    5.0586   15.5985 C   0  0  0  0  0  0  0  0  0  0  0  0
   -5.8836    5.3746   15.5216 H   0  0  0  0  0  0  0  0  0  0  0  0
   -4.3915    4.9724   14.6017 H   0  0  0  0  0  0  0  0  0  0  0  0
   -4.7537    3.8221   16.2780 O   0  0  0  0  0  0  0  0  0  0  0  0
  1  3  1  0  0  0  0
  1  4  1  0  0  0  0
  1  6  1  0  0  0  0
  2  1  1  0  0  0  0
  5  1  1  0  0  0  0
  6 47  1  0  0  0  0
  7  5  1  0  0  0  0
  8 69  1  0  0  0  0
  8  7  2  0  0  0  0
  9  8  1  0  0  0  0
 10  9  1  0  0  0  0
 11  9  2  0  0  0  0
 11 13  1  0  0  0  0
 12 11  1  0  0  0  0
 13 15  2  0  0  0  0
 14 13  1  0  0  0  0
 15  7  1  0  0  0  0
 15 16  1  0  0  0  0
 16 18  2  0  0  0  0
 17 16  1  0  0  0  0
 18 19  1  0  0  0  0
 19 22  1  0  0  0  0
 19 20  1  0  0  0  0
 21 19  1  0  0  0  0
 22 24  1  0  0  0  0
 22 25  1  0  0  0  0
 23 22  1  0  0  0  0
 25 26  1  0  0  0  0
 26 28  1  0  0  0  0
 26 27  1  0  0  0  0
 29 26  1  0  0  0  0
 30 25  1  0  0  0  0
 30 33  1  0  0  0  0
 31 30  1  0  0  0  0
 32 30  1  0  0  0  0
 33 34  1  0  0  0  0
 33 36  1  0  0  0  0
 33 35  1  0  0  0  0
 36 37  2  0  0  0  0
 37 39  1  0  0  0  0
 37 38  1  0  0  0  0
 39 40  1  0  0  0  0
 40 42  2  0  0  0  0
 40 41  1  0  0  0  0
 42 43  1  0  0  0  0
 44 45  1  0  0  0  0
 44 42  1  0  0  0  0
 46 44  2  0  0  0  0
 47 46  1  0  0  0  0
 47 39  2  0  0  0  0
 48 46  1  0  0  0  0
 49 48  1  0  0  0  0
 49 51  1  0  0  0  0
 50 49  1  0  0  0  0
 52 53  1  0  0  0  0
 52 49  1  0  0  0  0
 54 52  1  0  0  0  0
 55 52  1  0  0  0  0
 56 55  1  0  0  0  0
 57 56  1  0  0  0  0
 58 56  1  0  0  0  0
 59 56  1  0  0  0  0
 59 60  1  0  0  0  0
 61 59  1  0  0  0  0
 62 59  1  0  0  0  0
 63 62  1  0  0  0  0
 63 65  1  0  0  0  0
 64 63  1  0  0  0  0
 66 69  1  0  0  0  0
 66 63  1  0  0  0  0
 67 66  1  0  0  0  0
 68 66  1  0  0  0  0
M  END
$$$$
