CSD_code = LAQZAH | q = 0 | S = 0 | Stoichiometry = C16H13ClN3O4Re | MND = 6
 OpenBabel04212202063D

 38 40  0  0  1  0  0  0  0  0999 V2000
    7.5114    9.1018    2.5588 Re  0  0  0  0  0  0  0  0  0  0  0  0
    7.5316    7.2985    1.0075 Cl  0  0  0  0  0  0  0  0  0  0  0  0
    9.6187    8.9864    2.2011 N   0  0  0  0  0  0  0  0  0  0  0  0
    7.6625   10.4936    3.9037 C   0  0  0  0  0  2  0  0  0  0  0  0
    8.1680    7.5289    3.8502 N   0  0  0  0  0  0  0  0  0  0  0  0
    7.1143   10.3361    1.1018 C   0  0  0  0  0  2  0  0  0  0  0  0
   12.2281    8.3772    1.4749 C   0  0  0  0  0  0  0  0  0  0  0  0
   13.2392    8.1330    1.1878 H   0  0  0  0  0  0  0  0  0  0  0  0
    5.6025    8.8244    2.8436 C   0  0  0  0  0  2  0  0  0  0  0  0
    7.3917    6.8379    4.6780 C   0  0  0  0  0  3  0  0  0  0  0  0
    6.4149    7.2570    4.8829 H   0  0  0  0  0  0  0  0  0  0  0  0
    4.4980    8.5571    2.9798 O   0  0  0  0  0  1  0  0  0  0  0  0
    6.9258   10.9843    0.1780 O   0  0  0  0  0  1  0  0  0  0  0  0
    7.7769   11.3021    4.7134 O   0  0  0  0  0  1  0  0  0  0  0  0
    9.3980    7.0547    3.5767 C   0  0  0  0  0  0  0  0  0  0  0  0
   10.2142    7.8777    2.6758 C   0  0  2  0  0  3  0  0  0  0  0  0
    9.8512    5.8578    4.1218 C   0  0  0  0  0  0  0  0  0  0  0  0
   10.8311    5.4734    3.8922 H   0  0  0  0  0  0  0  0  0  0  0  0
    9.0328    5.1282    4.9712 C   0  0  0  0  0  0  0  0  0  0  0  0
   10.3066    9.7817    1.3881 C   0  0  0  0  0  0  0  0  0  0  0  0
    9.7939   10.6674    1.0353 H   0  0  0  0  0  0  0  0  0  0  0  0
   11.5262    7.5524    2.3329 C   0  0  0  0  0  0  0  0  0  0  0  0
   11.9914    6.6636    2.7255 H   0  0  0  0  0  0  0  0  0  0  0  0
   11.6059    9.5195    0.9939 C   0  0  0  0  0  0  0  0  0  0  0  0
   12.1121   10.1936    0.3222 H   0  0  0  0  0  0  0  0  0  0  0  0
    7.7759    5.6453    5.2626 C   0  0  0  0  0  0  0  0  0  0  0  0
    7.0955    5.1244    5.9180 H   0  0  0  0  0  0  0  0  0  0  0  0
   10.4802    4.1179    6.6559 N   0  0  0  0  0  0  0  0  0  0  0  0
   10.1070    4.2675    7.5791 H   0  0  0  0  0  0  0  0  0  0  0  0
   11.8021    4.3198    6.4285 C   0  0  0  0  0  0  0  0  0  0  0  0
    9.5446    3.8487    5.5792 C   0  0  0  0  0  0  0  0  0  0  0  0
    8.7214    3.2464    5.9677 H   0  0  0  0  0  0  0  0  0  0  0  0
   10.0897    3.2806    4.8193 H   0  0  0  0  0  0  0  0  0  0  0  0
   12.2859    4.2668    5.3185 O   0  0  0  0  0  0  0  0  0  0  0  0
   12.5967    4.6004    7.6837 C   0  0  0  0  0  0  0  0  0  0  0  0
   12.2674    5.5360    8.1318 H   0  0  0  0  0  0  0  0  0  0  0  0
   13.6499    4.6783    7.4305 H   0  0  0  0  0  0  0  0  0  0  0  0
   12.4579    3.7983    8.4049 H   0  0  0  0  0  0  0  0  0  0  0  0
  1  9  1  0  0  0  0
  1  5  1  0  0  0  0
  1  4  1  0  0  0  0
  2  1  1  0  0  0  0
  3  1  1  0  0  0  0
  3 16  1  0  0  0  0
  4 14  1  0  0  0  0
  5 10  1  0  0  0  0
  6  1  1  0  0  0  0
  7 22  2  0  0  0  0
  8  7  1  0  0  0  0
  9 12  1  0  0  0  0
 10 11  1  0  0  0  0
 10 26  1  0  0  0  0
 13  6  1  0  0  0  0
 15  5  1  0  0  0  0
 15 17  2  0  0  0  0
 16 22  1  1  0  0  0
 16 15  1  0  0  0  0
 17 19  1  0  0  0  0
 18 17  1  0  0  0  0
 19 26  2  0  0  0  0
 19 31  1  0  0  0  0
 20  3  1  0  0  0  0
 21 20  1  0  0  0  0
 22 23  1  0  0  0  0
 24 20  2  0  0  0  0
 24  7  1  0  0  0  0
 25 24  1  0  0  0  0
 26 27  1  0  0  0  0
 28 29  1  0  0  0  0
 30 28  1  0  0  0  0
 30 35  1  0  0  0  0
 31 32  1  0  0  0  0
 31 28  1  0  0  0  0
 33 31  1  0  0  0  0
 34 30  2  0  0  0  0
 35 36  1  0  0  0  0
 35 38  1  0  0  0  0
 37 35  1  0  0  0  0
M  END
$$$$
