CSD_code = LASFER | q = 0 | S = 0 | Stoichiometry = C31H28ClNiP | MND = 7
 OpenBabel04212202063D

 62 64  0  0  1  0  0  0  0  0999 V2000
    2.6366    4.1482    2.9984 Ni  0  0  0  0  0  0  0  0  0  0  0  0
    0.5954    4.3858    3.3744 Cl  0  0  0  0  0 15  0  0  0  0  0  0
    3.1213    5.9185    4.1039 P   0  0  0  0  0  0  0  0  0  0  0  0
    2.5454    2.3205    2.0124 C   0  0  0  0  0  0  0  0  0  0  0  0
    3.4904    3.1647    1.3837 C   0  0  0  0  0  0  0  0  0  0  0  0
    3.4632    3.4921    0.3555 H   0  0  0  0  0  0  0  0  0  0  0  0
    4.4648    3.5290    2.3333 C   0  0  2  0  0  0  0  0  0  0  0  0
    5.3605    4.0983    2.1275 H   0  0  0  0  0  0  0  0  0  0  0  0
    4.3042    2.6746    3.4992 C   0  0  0  0  0  0  0  0  0  0  0  0
    5.0767    2.4881    4.6404 C   0  0  0  0  0  0  0  0  0  0  0  0
    5.9849    3.0559    4.7886 H   0  0  0  0  0  0  0  0  0  0  0  0
    4.6561    1.5562    5.5735 C   0  0  0  0  0  0  0  0  0  0  0  0
    5.2476    1.3893    6.4619 H   0  0  0  0  0  0  0  0  0  0  0  0
    3.4858    0.8250    5.3869 C   0  0  0  0  0  0  0  0  0  0  0  0
    3.1899    0.1037    6.1345 H   0  0  0  0  0  0  0  0  0  0  0  0
    2.6977    0.9998    4.2622 C   0  0  0  0  0  0  0  0  0  0  0  0
    1.7896    0.4297    4.1310 H   0  0  0  0  0  0  0  0  0  0  0  0
    3.1028    1.9250    3.3059 C   0  0  0  0  0  0  0  0  0  0  0  0
    1.3802    1.6401    1.3651 C   0  0  0  0  0  0  0  0  0  0  0  0
    0.6415    1.3889    2.1304 H   0  0  0  0  0  0  0  0  0  0  0  0
    1.7321    0.7011    0.9199 H   0  0  0  0  0  0  0  0  0  0  0  0
    0.6987    2.5031    0.2949 C   0  0  0  0  0  0  0  0  0  0  0  0
    0.4412    3.4669    0.7414 H   0  0  0  0  0  0  0  0  0  0  0  0
    1.3890    2.6699   -0.5369 H   0  0  0  0  0  0  0  0  0  0  0  0
   -0.5377    1.8343   -0.2132 C   0  0  0  0  0  0  0  0  0  0  0  0
   -0.3776    0.9224   -0.7766 H   0  0  0  0  0  0  0  0  0  0  0  0
   -1.7599    2.2772    0.0108 C   0  0  0  0  0  0  0  0  0  0  0  0
   -1.9342    3.1759    0.5793 H   0  0  0  0  0  0  0  0  0  0  0  0
   -2.6327    1.7647   -0.3580 H   0  0  0  0  0  0  0  0  0  0  0  0
    2.6918    7.5134    3.3474 C   0  0  0  0  0  0  0  0  0  0  0  0
    3.2309    8.7132    3.8045 C   0  0  0  0  0  0  0  0  0  0  0  0
    3.9407    8.7100    4.6208 H   0  0  0  0  0  0  0  0  0  0  0  0
    2.8657    9.9031    3.2024 C   0  0  0  0  0  0  0  0  0  0  0  0
    3.2819   10.8344    3.5585 H   0  0  0  0  0  0  0  0  0  0  0  0
    1.9702    9.9035    2.1440 C   0  0  0  0  0  0  0  0  0  0  0  0
    1.6894   10.8367    1.6784 H   0  0  0  0  0  0  0  0  0  0  0  0
    1.4416    8.7102    1.6799 C   0  0  0  0  0  0  0  0  0  0  0  0
    0.7494    8.7102    0.8513 H   0  0  0  0  0  0  0  0  0  0  0  0
    1.8034    7.5165    2.2779 C   0  0  0  0  0  0  0  0  0  0  0  0
    1.4004    6.5723    1.9289 H   0  0  0  0  0  0  0  0  0  0  0  0
    4.8690    6.1716    4.5623 C   0  0  0  0  0  0  0  0  0  0  0  0
    5.3697    5.8157    5.8086 C   0  0  0  0  0  0  0  0  0  0  0  0
    4.7007    5.4402    6.5698 H   0  0  0  0  0  0  0  0  0  0  0  0
    6.7226    5.9440    6.0731 C   0  0  0  0  0  0  0  0  0  0  0  0
    7.1065    5.6688    7.0447 H   0  0  0  0  0  0  0  0  0  0  0  0
    7.5832    6.4176    5.0972 C   0  0  0  0  0  0  0  0  0  0  0  0
    8.6384    6.5134    5.3063 H   0  0  0  0  0  0  0  0  0  0  0  0
    7.0898    6.7638    3.8483 C   0  0  0  0  0  0  0  0  0  0  0  0
    7.7604    7.1293    3.0841 H   0  0  0  0  0  0  0  0  0  0  0  0
    5.7412    6.6346    3.5796 C   0  0  0  0  0  0  0  0  0  0  0  0
    5.3479    6.8964    2.6054 H   0  0  0  0  0  0  0  0  0  0  0  0
    2.2898    5.9156    5.7239 C   0  0  0  0  0  0  0  0  0  0  0  0
    1.7966    7.0534    6.3465 C   0  0  0  0  0  0  0  0  0  0  0  0
    1.8691    8.0150    5.8600 H   0  0  0  0  0  0  0  0  0  0  0  0
    1.1919    6.9474    7.5877 C   0  0  0  0  0  0  0  0  0  0  0  0
    0.8022    7.8323    8.0694 H   0  0  0  0  0  0  0  0  0  0  0  0
    1.0783    5.7149    8.2081 C   0  0  0  0  0  0  0  0  0  0  0  0
    0.6020    5.6397    9.1746 H   0  0  0  0  0  0  0  0  0  0  0  0
    1.5612    4.5754    7.5836 C   0  0  0  0  0  0  0  0  0  0  0  0
    1.4610    3.6110    8.0591 H   0  0  0  0  0  0  0  0  0  0  0  0
    2.1606    4.6744    6.3434 C   0  0  0  0  0  0  0  0  0  0  0  0
    2.5195    3.7867    5.8304 H   0  0  0  0  0  0  0  0  0  0  0  0
  3 41  1  0  0  0  0
  3 52  1  0  0  0  0
  4 18  1  0  0  0  0
  5  4  2  0  0  0  0
  5  7  1  0  0  0  0
  6  5  1  0  0  0  0
  7  8  1  6  0  0  0
  7  1  1  0  0  0  0
  7  9  1  0  0  0  0
  9 10  1  0  0  0  0
 10 11  1  0  0  0  0
 10 12  2  0  0  0  0
 12 13  1  0  0  0  0
 14 12  1  0  0  0  0
 14 15  1  0  0  0  0
 16 14  2  0  0  0  0
 17 16  1  0  0  0  0
 18  9  2  0  0  0  0
 18 16  1  0  0  0  0
 19  4  1  0  0  0  0
 19 20  1  0  0  0  0
 21 19  1  0  0  0  0
 22 23  1  0  0  0  0
 22 19  1  0  0  0  0
 24 22  1  0  0  0  0
 25 27  2  0  0  0  0
 25 22  1  0  0  0  0
 26 25  1  0  0  0  0
 27 28  1  0  0  0  0
 29 27  1  0  0  0  0
 30 31  1  0  0  0  0
 30  3  1  0  0  0  0
 31 32  1  0  0  0  0
 33 34  1  0  0  0  0
 33 31  2  0  0  0  0
 35 33  1  0  0  0  0
 36 35  1  0  0  0  0
 37 35  2  0  0  0  0
 37 39  1  0  0  0  0
 38 37  1  0  0  0  0
 39 30  2  0  0  0  0
 40 39  1  0  0  0  0
 41 42  1  0  0  0  0
 42 44  2  0  0  0  0
 42 43  1  0  0  0  0
 44 45  1  0  0  0  0
 46 47  1  0  0  0  0
 46 44  1  0  0  0  0
 48 46  2  0  0  0  0
 49 48  1  0  0  0  0
 50 48  1  0  0  0  0
 50 41  2  0  0  0  0
 51 50  1  0  0  0  0
 52 61  2  0  0  0  0
 52 53  1  0  0  0  0
 53 55  2  0  0  0  0
 54 53  1  0  0  0  0
 55 56  1  0  0  0  0
 55 57  1  0  0  0  0
 57 58  1  0  0  0  0
 59 60  1  0  0  0  0
 59 57  2  0  0  0  0
 61 59  1  0  0  0  0
 62 61  1  0  0  0  0
M  END
$$$$
