CSD_code = LASPED | q = 0 | S = 0 | Stoichiometry = C10H25AuB20ClP | MND = 2
 OpenBabel04212202063D

 58 70  0  0  1  0  0  0  0  0999 V2000
    5.0010    7.3304    4.1728 Au  0  0  0  0  0  0  0  0  0  0  0  0
    3.6722    6.1005    5.5458 P   0  0  0  0  0  2  0  0  0  0  0  0
    6.2593    8.5936    2.7554 Cl  0  0  0  0  0  0  0  0  0  0  0  0
    3.4242    6.3529    8.3389 C   0  0  2  0  0  0  0  0  0  0  0  0
    2.9168    7.0095    6.9782 C   0  0  1  0  0  0  0  0  0  0  0  0
    1.7254    6.1550    7.8686 B   0  0  2  0  0  0  0  0  0  0  0  0
    1.3430    5.1497    7.4168 H   0  0  0  0  0  0  0  0  0  0  0  0
    2.1899    6.4276    9.5257 B   0  0  1  0  0  0  0  0  0  0  0  0
    2.1098    5.5538   10.3035 H   0  0  0  0  0  0  0  0  0  0  0  0
    3.5683    7.5272    9.5727 B   0  0  0  0  0  0  0  0  0  0  0  0
    4.4042    7.3777   10.3808 H   0  0  0  0  0  0  0  0  0  0  0  0
    4.0079    7.9558    7.9378 B   0  0  2  0  0  0  0  0  0  0  0  0
    5.1031    8.0980    7.5662 H   0  0  0  0  0  0  0  0  0  0  0  0
    1.3040    7.6513    7.0837 B   0  0  2  0  0  0  0  0  0  0  0  0
    0.6266    7.5873    6.1255 H   0  0  0  0  0  0  0  0  0  0  0  0
    0.8064    7.3109    8.7727 B   0  0  1  0  0  0  0  0  0  0  0  0
   -0.3072    7.0731    9.0580 H   0  0  0  0  0  0  0  0  0  0  0  0
    1.9292    8.1673    9.8427 B   0  0  2  0  0  0  0  0  0  0  0  0
    1.5922    8.5551   10.8981 H   0  0  0  0  0  0  0  0  0  0  0  0
    3.0606    9.0952    8.8326 B   0  0  2  0  0  0  0  0  0  0  0  0
    3.5347   10.1154    9.1649 H   0  0  0  0  0  0  0  0  0  0  0  0
    2.6839    8.7184    7.1093 B   0  0  2  0  0  0  0  0  0  0  0  0
    2.9335    9.3696    6.1628 H   0  0  0  0  0  0  0  0  0  0  0  0
    1.3785    8.9296    8.3068 B   0  0  1  0  0  0  0  0  0  0  0  0
    0.6504    9.8492    8.2706 H   0  0  0  0  0  0  0  0  0  0  0  0
    2.2161    5.4635    4.6518 C   0  0  0  0  0  0  0  0  0  0  0  0
    1.6248    6.4079    3.8114 C   0  0  0  0  0  0  0  0  0  0  0  0
    2.0504    7.4024    3.7494 H   0  0  0  0  0  0  0  0  0  0  0  0
    0.5154    6.0822    3.0576 C   0  0  0  0  0  0  0  0  0  0  0  0
    0.0638    6.8238    2.4168 H   0  0  0  0  0  0  0  0  0  0  0  0
   -0.0068    4.7993    3.1198 C   0  0  0  0  0  0  0  0  0  0  0  0
   -0.8704    4.5383    2.5278 H   0  0  0  0  0  0  0  0  0  0  0  0
    0.5892    3.8509    3.9321 C   0  0  0  0  0  0  0  0  0  0  0  0
    0.1935    2.8474    3.9737 H   0  0  0  0  0  0  0  0  0  0  0  0
    1.6971    4.1760    4.6973 C   0  0  0  0  0  0  0  0  0  0  0  0
    2.1480    3.4174    5.3151 H   0  0  0  0  0  0  0  0  0  0  0  0
    4.3592    5.1994    8.1196 C   0  0  1  0  0  0  0  0  0  0  0  0
    4.4731    4.7838    6.5808 C   0  0  1  0  0  0  0  0  0  0  0  0
    5.8845    5.4971    7.2840 B   0  0  1  0  0  0  0  0  0  0  0  0
    6.1522    6.5739    6.9202 H   0  0  0  0  0  0  0  0  0  0  0  0
    5.8570    4.9512    8.9314 B   0  0  2  0  0  0  0  0  0  0  0  0
    6.1503    5.6864    9.7957 H   0  0  0  0  0  0  0  0  0  0  0  0
    4.5135    3.8375    9.1439 B   0  0  2  0  0  0  0  0  0  0  0  0
    3.9100    3.8296   10.1489 H   0  0  0  0  0  0  0  0  0  0  0  0
    3.6511    3.6764    7.6328 B   0  0  2  0  0  0  0  0  0  0  0  0
    2.4926    3.5664    7.5901 H   0  0  0  0  0  0  0  0  0  0  0  0
    6.0489    4.1736    6.1728 B   0  0  0  0  0  0  0  0  0  0  0  0
    6.4361    4.4173    5.0892 H   0  0  0  0  0  0  0  0  0  0  0  0
    6.9821    4.2320    7.7109 B   0  0  1  0  0  0  0  0  0  0  0  0
    8.1358    4.4401    7.7354 H   0  0  0  0  0  0  0  0  0  0  0  0
    6.1499    3.1895    8.8754 B   0  0  0  0  0  0  0  0  0  0  0  0
    6.7298    2.6329    9.7306 H   0  0  0  0  0  0  0  0  0  0  0  0
    4.7732    2.4246    8.0488 B   0  0  2  0  0  0  0  0  0  0  0  0
    4.3717    1.3542    8.3157 H   0  0  0  0  0  0  0  0  0  0  0  0
    4.7075    3.0788    6.3754 B   0  0  0  0  0  0  0  0  0  0  0  0
    4.2432    2.5584    5.4298 H   0  0  0  0  0  0  0  0  0  0  0  0
    6.2723    2.7074    7.1455 B   0  0  1  0  0  0  0  0  0  0  0  0
    6.9382    1.8168    6.7712 H   0  0  0  0  0  0  0  0  0  0  0  0
  1  2  1  0  0  0  0
  3  1  1  0  0  0  0
  4  8  1  0  0  0  0
  4 10  1  1  0  0  0
  5 22  1  0  0  0  0
  5  6  1  0  0  0  0
  5 12  1  0  0  0  0
  5  4  1  0  0  0  0
  6 16  1  0  0  0  0
  7  6  1  0  0  0  0
  8 10  1  0  0  0  0
  8 18  1  0  0  0  0
  8  9  1  0  0  0  0
 10 11  1  0  0  0  0
 12 20  1  0  0  0  0
 13 12  1  0  0  0  0
 14 22  1  0  0  0  0
 14  6  1  0  0  0  0
 14 24  1  0  0  0  0
 15 14  1  0  0  0  0
 16 17  1  0  0  0  0
 16 18  1  0  0  0  0
 18 19  1  0  0  0  0
 20 21  1  0  0  0  0
 20 18  1  0  0  0  0
 22 12  1  0  0  0  0
 23 22  1  0  0  0  0
 24 16  1  0  0  0  0
 24 20  1  0  0  0  0
 25 24  1  0  0  0  0
 26 35  1  0  0  0  0
 26  2  1  0  0  0  0
 27 26  2  0  0  0  0
 28 27  1  0  0  0  0
 29 31  2  0  0  0  0
 29 27  1  0  0  0  0
 30 29  1  0  0  0  0
 31 33  1  0  0  0  0
 32 31  1  0  0  0  0
 33 34  1  0  0  0  0
 33 35  2  0  0  0  0
 35 36  1  0  0  0  0
 37  4  1  0  0  0  0
 37 41  1  0  0  0  0
 37 43  1  0  0  0  0
 38 39  1  0  0  0  0
 38 45  1  0  0  0  0
 38 37  1  0  0  0  0
 39 49  1  0  0  0  0
 39 41  1  0  0  0  0
 40 39  1  0  0  0  0
 41 43  1  0  0  0  0
 41 42  1  0  0  0  0
 43 44  1  0  0  0  0
 45 53  1  0  0  0  0
 45 43  1  0  0  0  0
 46 45  1  0  0  0  0
 47 55  1  0  0  0  0
 47 57  1  0  0  0  0
 48 47  1  0  0  0  0
 49 50  1  0  0  0  0
 49 51  1  0  0  0  0
 51 52  1  0  0  0  0
 53 54  1  0  0  0  0
 53 51  1  0  0  0  0
 55 38  1  0  0  0  0
 56 55  1  0  0  0  0
 57 49  1  0  0  0  0
 57 53  1  0  0  0  0
 58 57  1  0  0  0  0
M  END
$$$$
