CSD_code = LATVUY | q = 1 | S = 0 | Stoichiometry = C26H19ClN5ORu(1+) | MND = 6
 OpenBabel04212202063D

 53 60  0  0  1  0  0  0  0  0999 V2000
    2.6112    1.8832    2.8102 Ru  0  0  0  0  0  0  0  0  0  0  0  0
    1.5870    0.7736    1.0066 Cl  0  0  0  0  0  0  0  0  0  0  0  0
    3.3950    2.9166    4.3450 N   0  0  0  0  0  0  0  0  0  0  0  0
    1.7006    0.6762    4.1532 N   0  0  0  0  0  0  0  0  0  0  0  0
    4.2871    0.8116    2.5048 N   0  0  0  0  0  0  0  0  0  0  0  0
    3.3761    2.9425    1.4338 N   0  0  0  0  0  0  0  0  0  0  0  0
    1.1049    3.2700    2.5998 N   0  0  0  0  0  0  0  0  0  0  0  0
    4.5873    3.5151    4.2064 C   0  0  0  0  0  3  0  0  0  0  0  0
    5.1025    4.4188    5.1118 C   0  0  0  0  0  0  0  0  0  0  0  0
    4.3527    4.7558    6.2339 C   0  0  0  0  0  0  0  0  0  0  0  0
    3.1351    4.1304    6.4004 C   0  0  0  0  0  0  0  0  0  0  0  0
    2.6885    3.2024    5.4552 C   0  0  0  0  0  0  0  0  0  0  0  0
    1.4135    2.5128    5.7947 C   0  0  0  0  0  0  0  0  0  0  0  0
    1.1699    1.1264    5.3044 C   0  0  2  0  0  3  0  0  0  0  0  0
    0.3700    0.3242    6.1216 C   0  0  0  0  0  0  0  0  0  0  0  0
    0.1148   -0.9834    5.7587 C   0  0  0  0  0  0  0  0  0  0  0  0
    0.6754   -1.4485    4.5764 C   0  0  0  0  0  0  0  0  0  0  0  0
    1.4513   -0.5945    3.8142 C   0  0  0  0  0  0  0  0  0  0  0  0
    4.7112   -0.2860    3.1280 C   0  0  0  0  0  3  0  0  0  0  0  0
    5.8308   -0.9955    2.7356 C   0  0  0  0  0  0  0  0  0  0  0  0
    6.5580   -0.5489    1.6397 C   0  0  0  0  0  0  0  0  0  0  0  0
    6.1399    0.5998    0.9954 C   0  0  0  0  0  0  0  0  0  0  0  0
    5.0012    1.2675    1.4430 C   0  0  0  0  0  0  0  0  0  0  0  0
    4.4790    2.4849    0.8223 C   0  0  1  0  0  3  0  0  0  0  0  0
    4.9842    3.1423   -0.2981 C   0  0  0  0  0  0  0  0  0  0  0  0
    4.3162    4.2605   -0.7704 C   0  0  0  0  0  0  0  0  0  0  0  0
    3.1440    4.6818   -0.1561 C   0  0  0  0  0  0  0  0  0  0  0  0
    2.6807    3.9823    0.9538 C   0  0  0  0  0  0  0  0  0  0  0  0
    1.4062    4.1903    1.6517 C   0  0  1  0  0  3  0  0  0  0  0  0
    0.5171    5.2117    1.3288 C   0  0  0  0  0  0  0  0  0  0  0  0
   -0.7098    5.2794    1.9655 C   0  0  0  0  0  0  0  0  0  0  0  0
   -1.0252    4.3047    2.8984 C   0  0  0  0  0  0  0  0  0  0  0  0
   -0.0884    3.3232    3.1783 C   0  0  0  0  0  0  0  0  0  0  0  0
    0.6351    3.0285    6.5740 O   0  0  0  0  0  0  0  0  0  0  0  0
   -0.3248    2.5424    3.8889 H   0  0  0  0  0  0  0  0  0  0  0  0
    2.5031    4.3285    7.2523 H   0  0  0  0  0  0  0  0  0  0  0  0
   -1.9781    4.2954    3.4010 H   0  0  0  0  0  0  0  0  0  0  0  0
    6.6844    0.9762    0.1453 H   0  0  0  0  0  0  0  0  0  0  0  0
    7.4302   -1.0836    1.2993 H   0  0  0  0  0  0  0  0  0  0  0  0
    4.6892    4.7865   -1.6344 H   0  0  0  0  0  0  0  0  0  0  0  0
   -1.4094    6.0640    1.7249 H   0  0  0  0  0  0  0  0  0  0  0  0
    6.0715    4.8575    4.9369 H   0  0  0  0  0  0  0  0  0  0  0  0
    1.8713   -0.9308    2.8738 H   0  0  0  0  0  0  0  0  0  0  0  0
    0.5085   -2.4589    4.2399 H   0  0  0  0  0  0  0  0  0  0  0  0
    0.7810    5.9399    0.5799 H   0  0  0  0  0  0  0  0  0  0  0  0
   -0.0365    0.7569    7.0225 H   0  0  0  0  0  0  0  0  0  0  0  0
    5.8656    2.7825   -0.8017 H   0  0  0  0  0  0  0  0  0  0  0  0
    6.1234   -1.8815    3.2748 H   0  0  0  0  0  0  0  0  0  0  0  0
   -0.5036   -1.6183    6.3724 H   0  0  0  0  0  0  0  0  0  0  0  0
    4.1299   -0.6091    3.9836 H   0  0  0  0  0  0  0  0  0  0  0  0
    2.5975    5.5207   -0.5525 H   0  0  0  0  0  0  0  0  0  0  0  0
    5.1625    3.2557    3.3250 H   0  0  0  0  0  0  0  0  0  0  0  0
    4.7141    5.4735    6.9521 H   0  0  0  0  0  0  0  0  0  0  0  0
  1  4  1  0  0  0  0
  1  3  1  0  0  0  0
  2  1  1  0  0  0  0
  3 12  1  0  0  0  0
  4 14  1  0  0  0  0
  5  1  1  0  0  0  0
  5 19  1  0  0  0  0
  6  1  1  0  0  0  0
  7  1  1  0  0  0  0
  7 33  1  0  0  0  0
  8  3  1  0  0  0  0
  8  9  1  0  0  0  0
  9 10  2  0  0  0  0
 10 11  1  0  0  0  0
 10 53  1  0  0  0  0
 11 36  1  0  0  0  0
 12 13  1  0  0  0  0
 12 11  2  0  0  0  0
 13 34  2  0  0  0  0
 14 13  1  1  0  0  0
 14 15  1  0  0  0  0
 15 46  1  0  0  0  0
 16 15  2  0  0  0  0
 16 49  1  0  0  0  0
 17 16  1  0  0  0  0
 18  4  1  0  0  0  0
 18 17  2  0  0  0  0
 19 50  1  0  0  0  0
 20 19  1  0  0  0  0
 20 48  1  0  0  0  0
 21 20  2  0  0  0  0
 22 23  2  0  0  0  0
 22 21  1  0  0  0  0
 23  5  1  0  0  0  0
 24 25  1  6  0  0  0
 24  6  1  0  0  0  0
 24 23  1  0  0  0  0
 26 25  2  0  0  0  0
 26 27  1  0  0  0  0
 27 28  2  0  0  0  0
 28  6  1  0  0  0  0
 29 28  1  6  0  0  0
 29  7  1  0  0  0  0
 30 29  1  0  0  0  0
 30 31  2  0  0  0  0
 31 32  1  0  0  0  0
 32 33  2  0  0  0  0
 32 37  1  0  0  0  0
 33 35  1  0  0  0  0
 38 22  1  0  0  0  0
 39 21  1  0  0  0  0
 40 26  1  0  0  0  0
 41 31  1  0  0  0  0
 42  9  1  0  0  0  0
 43 18  1  0  0  0  0
 44 17  1  0  0  0  0
 45 30  1  0  0  0  0
 47 25  1  0  0  0  0
 51 27  1  0  0  0  0
 52  8  1  0  0  0  0
M  END
$$$$
