CSD_code = LAVLOL | q = 0 | S = 0 | Stoichiometry = C29H25Cl2NOP2Pd | MND = 4
 OpenBabel04212202063D

 61 66  0  0  0  0  0  0  0  0999 V2000
   11.6892    4.5257    4.1473 Pd  0  0  0  0  0  0  0  0  0  0  0  0
   12.6245    2.4692    4.2556 P   0  0  0  0  0  4  0  0  0  0  0  0
   11.9161    4.9818    6.3394 Cl  0  0  0  0  0  0  0  0  0  0  0  0
   11.3922    3.6094    2.1001 P   0  0  0  0  0  4  0  0  0  0  0  0
   10.9244    6.5852    3.6459 Cl  0  0  0  0  0  0  0  0  0  0  0  0
   12.2637    2.2096    2.5892 N   0  0  0  0  0  0  0  0  0  0  0  0
   14.7860    0.9505    1.4311 O   0  0  0  0  0  0  0  0  0  0  0  0
   14.4374    2.6548    4.2734 C   0  0  0  0  0  0  0  0  0  0  0  0
    9.6734    3.0077    2.0151 C   0  0  0  0  0  0  0  0  0  0  0  0
   11.9161    3.9099    0.3973 C   0  0  0  0  0  0  0  0  0  0  0  0
   15.3585    1.6301    4.4587 C   0  0  0  0  0  0  0  0  0  0  0  0
   15.0195    0.6224    4.6491 H   0  0  0  0  0  0  0  0  0  0  0  0
    9.1825    2.2211    0.9776 C   0  0  0  0  0  0  0  0  0  0  0  0
    9.8023    2.0149    0.1154 H   0  0  0  0  0  0  0  0  0  0  0  0
   11.0273    0.2666    4.7513 C   0  0  0  0  0  0  0  0  0  0  0  0
   10.4225    0.6409    3.9347 H   0  0  0  0  0  0  0  0  0  0  0  0
   12.1918    0.9410    5.1141 C   0  0  0  0  0  0  0  0  0  0  0  0
   14.8881    3.9543    4.0316 C   0  0  0  0  0  0  0  0  0  0  0  0
   14.1608    4.7747    3.9165 H   0  0  0  0  0  0  0  0  0  0  0  0
   12.9004    0.5347    6.2419 C   0  0  0  0  0  0  0  0  0  0  0  0
   13.7507    1.1113    6.5763 H   0  0  0  0  0  0  0  0  0  0  0  0
   12.3706    0.9817    1.8047 C   0  0  0  0  0  0  0  0  0  0  0  0
   11.6038    0.2515    2.0869 H   0  0  0  0  0  0  0  0  0  0  0  0
   12.2144    1.2646    0.7571 H   0  0  0  0  0  0  0  0  0  0  0  0
   11.3761   -1.2959    6.5361 C   0  0  0  0  0  0  0  0  0  0  0  0
   11.0672   -2.1755    7.0808 H   0  0  0  0  0  0  0  0  0  0  0  0
   13.7026    0.3361    1.9527 C   0  0  0  0  0  0  0  0  0  0  0  0
   17.1568    3.1904    4.1392 C   0  0  0  0  0  0  0  0  0  0  0  0
   18.2159    3.3955    4.0895 H   0  0  0  0  0  0  0  0  0  0  0  0
   16.7138    1.9025    4.3914 C   0  0  0  0  0  0  0  0  0  0  0  0
   17.4255    1.1029    4.5358 H   0  0  0  0  0  0  0  0  0  0  0  0
    7.8968    1.7150    1.0492 C   0  0  0  0  0  0  0  0  0  0  0  0
    7.5144    1.1056    0.2433 H   0  0  0  0  0  0  0  0  0  0  0  0
    8.8711    3.2798    3.1233 C   0  0  0  0  0  0  0  0  0  0  0  0
    9.2581    3.9137    3.9369 H   0  0  0  0  0  0  0  0  0  0  0  0
    7.1002    1.9893    2.1500 C   0  0  0  0  0  0  0  0  0  0  0  0
    6.0964    1.5941    2.1978 H   0  0  0  0  0  0  0  0  0  0  0  0
   13.2391    3.6865    0.0235 C   0  0  0  0  0  0  0  0  0  0  0  0
   13.9302    3.2488    0.7314 H   0  0  0  0  0  0  0  0  0  0  0  0
    7.5857    2.7720    3.1863 C   0  0  0  0  0  0  0  0  0  0  0  0
    6.9615    2.9883    4.0402 H   0  0  0  0  0  0  0  0  0  0  0  0
   14.0682   -0.8491    2.5227 C   0  0  0  0  0  0  0  0  0  0  0  0
   13.4223   -1.5483    3.0138 H   0  0  0  0  0  0  0  0  0  0  0  0
   13.6570    4.0222   -1.2508 C   0  0  0  0  0  0  0  0  0  0  0  0
   14.6793    3.8378   -1.5464 H   0  0  0  0  0  0  0  0  0  0  0  0
   15.8453    0.1619    1.6707 C   0  0  0  0  0  0  0  0  0  0  0  0
   16.7992    0.5047    1.3230 H   0  0  0  0  0  0  0  0  0  0  0  0
   12.4966   -0.5881    6.9408 C   0  0  0  0  0  0  0  0  0  0  0  0
   13.0521   -0.9074    7.8100 H   0  0  0  0  0  0  0  0  0  0  0  0
   10.6323   -0.8572    5.4515 C   0  0  0  0  0  0  0  0  0  0  0  0
    9.7361   -1.3854    5.1603 H   0  0  0  0  0  0  0  0  0  0  0  0
   11.0356    4.5259   -0.4884 C   0  0  0  0  0  0  0  0  0  0  0  0
   10.0241    4.7397   -0.1712 H   0  0  0  0  0  0  0  0  0  0  0  0
   16.2432    4.2179    3.9603 C   0  0  0  0  0  0  0  0  0  0  0  0
   16.5886    5.2238    3.7745 H   0  0  0  0  0  0  0  0  0  0  0  0
   12.7705    4.6054   -2.1429 C   0  0  0  0  0  0  0  0  0  0  0  0
   13.1021    4.8710   -3.1356 H   0  0  0  0  0  0  0  0  0  0  0  0
   15.4673   -0.9628    2.3345 C   0  0  0  0  0  0  0  0  0  0  0  0
   16.0959   -1.7693    2.6508 H   0  0  0  0  0  0  0  0  0  0  0  0
   11.4641    4.8645   -1.7584 C   0  0  0  0  0  0  0  0  0  0  0  0
   10.7811    5.3377   -2.4481 H   0  0  0  0  0  0  0  0  0  0  0  0
  1  2  1  0  0  0  0
  1  3  1  0  0  0  0
  2  8  1  0  0  0  0
  2 17  1  0  0  0  0
  4  6  1  0  0  0  0
  4  1  1  0  0  0  0
  5  1  1  0  0  0  0
  6  2  1  0  0  0  0
  7 46  1  0  0  0  0
  7 27  1  0  0  0  0
  8 11  1  0  0  0  0
  9  4  1  0  0  0  0
  9 34  1  0  0  0  0
 10  4  1  0  0  0  0
 11 12  1  0  0  0  0
 13 32  1  0  0  0  0
 13  9  2  0  0  0  0
 14 13  1  0  0  0  0
 15 17  2  0  0  0  0
 15 50  1  0  0  0  0
 16 15  1  0  0  0  0
 17 20  1  0  0  0  0
 18  8  2  0  0  0  0
 19 18  1  0  0  0  0
 20 21  1  0  0  0  0
 20 48  2  0  0  0  0
 22 27  1  0  0  0  0
 22 23  1  0  0  0  0
 22  6  1  0  0  0  0
 24 22  1  0  0  0  0
 25 48  1  0  0  0  0
 25 26  1  0  0  0  0
 27 42  2  0  0  0  0
 28 30  1  0  0  0  0
 29 28  1  0  0  0  0
 30 11  2  0  0  0  0
 30 31  1  0  0  0  0
 32 36  2  0  0  0  0
 33 32  1  0  0  0  0
 34 40  2  0  0  0  0
 34 35  1  0  0  0  0
 36 37  1  0  0  0  0
 36 40  1  0  0  0  0
 38 10  1  0  0  0  0
 38 39  1  0  0  0  0
 40 41  1  0  0  0  0
 42 43  1  0  0  0  0
 44 38  2  0  0  0  0
 45 44  1  0  0  0  0
 46 58  2  0  0  0  0
 47 46  1  0  0  0  0
 48 49  1  0  0  0  0
 50 25  2  0  0  0  0
 51 50  1  0  0  0  0
 52 53  1  0  0  0  0
 52 10  2  0  0  0  0
 54 18  1  0  0  0  0
 54 28  2  0  0  0  0
 55 54  1  0  0  0  0
 56 60  2  0  0  0  0
 56 44  1  0  0  0  0
 57 56  1  0  0  0  0
 58 42  1  0  0  0  0
 58 59  1  0  0  0  0
 60 52  1  0  0  0  0
 61 60  1  0  0  0  0
M  END
$$$$
