CSD_code = LAVLUR | q = 0 | S = 0 | Stoichiometry = C29H25Cl2NOP2Pt | MND = 4
 OpenBabel04212202063D

 61 66  0  0  0  0  0  0  0  0999 V2000
    5.0713    1.7351    4.2351 Pt  0  0  0  0  0  0  0  0  0  0  0  0
    5.5888    1.2102    6.3778 Cl  0  0  0  0  0  0  0  0  0  0  0  0
    6.1031    3.7827    4.2192 P   0  0  0  0  0  4  0  0  0  0  0  0
    4.6714    2.6583    2.1730 P   0  0  0  0  0  4  0  0  0  0  0  0
    4.0263   -0.2551    3.9056 Cl  0  0  0  0  0  0  0  0  0  0  0  0
    8.1375    5.3336    1.4003 O   0  0  0  0  0  0  0  0  0  0  0  0
    5.5841    4.0499    2.6035 N   0  0  0  0  0  0  0  0  0  0  0  0
    6.2195    1.2193   -1.8834 C   0  0  0  0  0  0  0  0  0  0  0  0
    6.5847    0.8498   -2.8301 H   0  0  0  0  0  0  0  0  0  0  0  0
    3.0065    3.3366    1.9108 C   0  0  0  0  0  0  0  0  0  0  0  0
    5.2795    2.1815    0.5380 C   0  0  0  0  0  0  0  0  0  0  0  0
    8.7887    4.7431    4.5210 C   0  0  0  0  0  0  0  0  0  0  0  0
    8.4083    5.6596    4.9476 H   0  0  0  0  0  0  0  0  0  0  0  0
    7.9157    3.7429    4.1136 C   0  0  0  0  0  0  0  0  0  0  0  0
    5.7230    5.2374    1.7633 C   0  0  0  0  0  0  0  0  0  0  0  0
    5.6228    4.9084    0.7223 H   0  0  0  0  0  0  0  0  0  0  0  0
    4.9351    5.9708    1.9707 H   0  0  0  0  0  0  0  0  0  0  0  0
    6.2776    5.4276    6.4224 C   0  0  0  0  0  0  0  0  0  0  0  0
    7.0684    4.7558    6.7255 H   0  0  0  0  0  0  0  0  0  0  0  0
    5.6387    5.2251    5.2002 C   0  0  0  0  0  0  0  0  0  0  0  0
    8.4188    2.5641    3.5660 C   0  0  0  0  0  0  0  0  0  0  0  0
    7.7210    1.7769    3.2852 H   0  0  0  0  0  0  0  0  0  0  0  0
   10.1530    4.5626    4.3685 C   0  0  0  0  0  0  0  0  0  0  0  0
   10.8317    5.3401    4.6869 H   0  0  0  0  0  0  0  0  0  0  0  0
    7.0416    5.8983    1.9525 C   0  0  0  0  0  0  0  0  0  0  0  0
    2.5842    3.9416    0.7325 C   0  0  0  0  0  0  0  0  0  0  0  0
    3.2334    3.9595   -0.1322 H   0  0  0  0  0  0  0  0  0  0  0  0
    4.5467    6.0154    4.8536 C   0  0  0  0  0  0  0  0  0  0  0  0
    3.9956    5.8053    3.9475 H   0  0  0  0  0  0  0  0  0  0  0  0
    4.9153    0.9543   -1.4946 C   0  0  0  0  0  0  0  0  0  0  0  0
    4.2677    0.3730   -2.1338 H   0  0  0  0  0  0  0  0  0  0  0  0
    0.4884    4.4771    1.7770 C   0  0  0  0  0  0  0  0  0  0  0  0
   -0.4950    4.9194    1.7192 H   0  0  0  0  0  0  0  0  0  0  0  0
    2.1665    3.3062    3.0201 C   0  0  0  0  0  0  0  0  0  0  0  0
    2.5147    2.8161    3.9272 H   0  0  0  0  0  0  0  0  0  0  0  0
    1.3236    4.5091    0.6710 C   0  0  0  0  0  0  0  0  0  0  0  0
    0.9904    4.9774   -0.2436 H   0  0  0  0  0  0  0  0  0  0  0  0
    5.8775    6.4621    7.2469 C   0  0  0  0  0  0  0  0  0  0  0  0
    6.3773    6.6217    8.1907 H   0  0  0  0  0  0  0  0  0  0  0  0
    4.4452    1.4270   -0.2839 C   0  0  0  0  0  0  0  0  0  0  0  0
    3.4356    1.2130    0.0396 H   0  0  0  0  0  0  0  0  0  0  0  0
    4.8276    7.2851    6.8698 C   0  0  0  0  0  0  0  0  0  0  0  0
    4.5189    8.0951    7.5135 H   0  0  0  0  0  0  0  0  0  0  0  0
    7.0601    1.9440   -1.0533 C   0  0  0  0  0  0  0  0  0  0  0  0
    8.0805    2.1359   -1.3506 H   0  0  0  0  0  0  0  0  0  0  0  0
    6.5996    2.4157    0.1624 C   0  0  0  0  0  0  0  0  0  0  0  0
    7.2592    2.9661    0.8192 H   0  0  0  0  0  0  0  0  0  0  0  0
    4.1541    7.0508    5.6815 C   0  0  0  0  0  0  0  0  0  0  0  0
    3.3134    7.6703    5.4052 H   0  0  0  0  0  0  0  0  0  0  0  0
    7.3856    7.0517    2.5961 C   0  0  0  0  0  0  0  0  0  0  0  0
    6.7266    7.7107    3.1238 H   0  0  0  0  0  0  0  0  0  0  0  0
   10.6484    3.3962    3.8101 C   0  0  0  0  0  0  0  0  0  0  0  0
   11.7143    3.2643    3.6968 H   0  0  0  0  0  0  0  0  0  0  0  0
    0.9086    3.8754    2.9532 C   0  0  0  0  0  0  0  0  0  0  0  0
    0.2548    3.8463    3.8117 H   0  0  0  0  0  0  0  0  0  0  0  0
    9.1824    6.1227    1.6938 C   0  0  0  0  0  0  0  0  0  0  0  0
   10.1432    5.8162    1.3317 H   0  0  0  0  0  0  0  0  0  0  0  0
    9.7794    2.3937    3.4059 C   0  0  0  0  0  0  0  0  0  0  0  0
   10.1649    1.4795    2.9802 H   0  0  0  0  0  0  0  0  0  0  0  0
    8.7832    7.1979    2.4237 C   0  0  0  0  0  0  0  0  0  0  0  0
    9.3975    7.9924    2.7935 H   0  0  0  0  0  0  0  0  0  0  0  0
  1  2  1  0  0  0  0
  3  1  1  0  0  0  0
  3 20  1  0  0  0  0
  4  7  1  0  0  0  0
  4  1  1  0  0  0  0
  5  1  1  0  0  0  0
  6 56  1  0  0  0  0
  6 25  1  0  0  0  0
  7  3  1  0  0  0  0
  8 30  2  0  0  0  0
  8 44  1  0  0  0  0
  9  8  1  0  0  0  0
 10  4  1  0  0  0  0
 10 34  1  0  0  0  0
 11  4  1  0  0  0  0
 12 13  1  0  0  0  0
 14  3  1  0  0  0  0
 14 12  2  0  0  0  0
 15 25  1  0  0  0  0
 15 17  1  0  0  0  0
 15  7  1  0  0  0  0
 16 15  1  0  0  0  0
 18 19  1  0  0  0  0
 18 38  1  0  0  0  0
 20 18  2  0  0  0  0
 21 14  1  0  0  0  0
 22 21  1  0  0  0  0
 23 12  1  0  0  0  0
 23 24  1  0  0  0  0
 25 50  2  0  0  0  0
 26 10  2  0  0  0  0
 27 26  1  0  0  0  0
 28 20  1  0  0  0  0
 28 48  2  0  0  0  0
 29 28  1  0  0  0  0
 30 40  1  0  0  0  0
 31 30  1  0  0  0  0
 32 54  1  0  0  0  0
 33 32  1  0  0  0  0
 34 35  1  0  0  0  0
 36 26  1  0  0  0  0
 36 32  2  0  0  0  0
 37 36  1  0  0  0  0
 38 39  1  0  0  0  0
 40 41  1  0  0  0  0
 40 11  2  0  0  0  0
 42 38  2  0  0  0  0
 42 43  1  0  0  0  0
 44 46  2  0  0  0  0
 45 44  1  0  0  0  0
 46 11  1  0  0  0  0
 46 47  1  0  0  0  0
 48 42  1  0  0  0  0
 49 48  1  0  0  0  0
 50 51  1  0  0  0  0
 52 23  2  0  0  0  0
 53 52  1  0  0  0  0
 54 34  2  0  0  0  0
 54 55  1  0  0  0  0
 56 60  2  0  0  0  0
 57 56  1  0  0  0  0
 58 21  2  0  0  0  0
 58 52  1  0  0  0  0
 59 58  1  0  0  0  0
 60 50  1  0  0  0  0
 60 61  1  0  0  0  0
M  END
$$$$
