CSD_code = LAVMOL | q = 0 | S = 0 | Stoichiometry = C18H17Cl2N4Rh | MND = 6
 OpenBabel04212202063D

 42 46  0  0  0  0  0  0  0  0999 V2000
   -0.3705   10.2242    7.6499 Rh  0  0  0  0  0  0  0  0  0  0  0  0
   -1.3707    8.2720    7.0133 Cl  0  0  0  0  0  0  0  0  0  0  0  0
    0.5995   12.2840    8.0680 Cl  0  0  0  0  0  0  0  0  0  0  0  0
   -1.4761   10.3626    9.2936 C   0  0  0  0  0  0  0  0  0  0  0  0
    0.4337    9.1867   10.0754 N   0  0  0  0  0  2  0  0  0  0  0  0
    0.7594    9.3313    8.8620 N   0  0  0  0  0  0  0  0  0  0  0  0
    1.5541    9.8975    6.2889 N   0  0  0  0  0  4  0  0  0  0  0  0
    1.6735    9.7566    5.2889 H   0  0  0  0  0  0  0  0  0  0  0  0
    1.8332   10.8560    6.5270 H   0  0  0  0  0  0  0  0  0  0  0  0
   -1.6915   11.2274    6.2170 N   0  0  0  0  0  4  0  0  0  0  0  0
   -2.5317   10.6499    6.1643 H   0  0  0  0  0  0  0  0  0  0  0  0
   -1.9026   12.1599    6.5725 H   0  0  0  0  0  0  0  0  0  0  0  0
   -2.7043   10.9422    9.5498 C   0  0  0  0  0  0  0  0  0  0  0  0
   -3.2702   11.4220    8.7618 H   0  0  0  0  0  0  0  0  0  0  0  0
   -3.2322   10.9051   10.8334 C   0  0  0  0  0  0  0  0  0  0  0  0
   -4.1975   11.3530   11.0202 H   0  0  0  0  0  0  0  0  0  0  0  0
   -2.5413   10.3018   11.8780 C   0  0  0  0  0  0  0  0  0  0  0  0
   -2.9726   10.2899   12.8677 H   0  0  0  0  0  0  0  0  0  0  0  0
   -1.3119    9.7231   11.6538 C   0  0  0  0  0  0  0  0  0  0  0  0
   -0.7494    9.2538   12.4453 H   0  0  0  0  0  0  0  0  0  0  0  0
   -0.7753    9.7504   10.3635 C   0  0  0  0  0  0  0  0  0  0  0  0
    1.9166    8.7247    8.3886 C   0  0  0  0  0  0  0  0  0  0  0  0
    2.6524    7.8363    9.1751 C   0  0  0  0  0  0  0  0  0  0  0  0
    2.3503    7.6910   10.2002 H   0  0  0  0  0  0  0  0  0  0  0  0
    3.7131    7.1461    8.6266 C   0  0  0  0  0  0  0  0  0  0  0  0
    4.2753    6.4541    9.2341 H   0  0  0  0  0  0  0  0  0  0  0  0
    4.0401    7.3201    7.2892 C   0  0  0  0  0  0  0  0  0  0  0  0
    4.8546    6.7606    6.8550 H   0  0  0  0  0  0  0  0  0  0  0  0
    3.3324    8.2163    6.5071 C   0  0  0  0  0  0  0  0  0  0  0  0
    3.5933    8.3544    5.4673 H   0  0  0  0  0  0  0  0  0  0  0  0
    2.2833    8.9469    7.0468 C   0  0  0  0  0  0  0  0  0  0  0  0
   -1.0184   11.2864    4.9667 C   0  0  0  0  0  0  0  0  0  0  0  0
   -1.1045   10.2183    4.0780 C   0  0  0  0  0  0  0  0  0  0  0  0
   -1.6961    9.3538    4.3403 H   0  0  0  0  0  0  0  0  0  0  0  0
   -0.4074   10.2588    2.8843 C   0  0  0  0  0  0  0  0  0  0  0  0
   -0.4751    9.4267    2.1996 H   0  0  0  0  0  0  0  0  0  0  0  0
    0.3692   11.3608    2.5635 C   0  0  0  0  0  0  0  0  0  0  0  0
    0.9081   11.3902    1.6285 H   0  0  0  0  0  0  0  0  0  0  0  0
    0.4492   12.4263    3.4453 C   0  0  0  0  0  0  0  0  0  0  0  0
    1.0504   13.2887    3.1994 H   0  0  0  0  0  0  0  0  0  0  0  0
   -0.2442   12.3963    4.6418 C   0  0  0  0  0  0  0  0  0  0  0  0
   -0.1702   13.2185    5.3384 H   0  0  0  0  0  0  0  0  0  0  0  0
  1  3  1  0  0  0  0
  1  6  1  0  0  0  0
  1  4  1  0  0  0  0
  2  1  1  0  0  0  0
  4 13  2  0  0  0  0
  4 21  1  0  0  0  0
  5 21  1  0  0  0  0
  6  5  1  0  0  0  0
  7  9  1  0  0  0  0
  7 31  1  0  0  0  0
  7  1  1  0  0  0  0
  8  7  1  0  0  0  0
 10 12  1  0  0  0  0
 10  1  1  0  0  0  0
 11 10  1  0  0  0  0
 13 15  1  0  0  0  0
 14 13  1  0  0  0  0
 15 16  1  0  0  0  0
 15 17  2  0  0  0  0
 17 18  1  0  0  0  0
 19 17  1  0  0  0  0
 19 20  1  0  0  0  0
 21 19  2  0  0  0  0
 22  6  1  0  0  0  0
 22 23  1  0  0  0  0
 23 24  1  0  0  0  0
 25 23  2  0  0  0  0
 25 26  1  0  0  0  0
 27 25  1  0  0  0  0
 28 27  1  0  0  0  0
 29 31  1  0  0  0  0
 29 27  2  0  0  0  0
 30 29  1  0  0  0  0
 31 22  2  0  0  0  0
 32 10  1  0  0  0  0
 33 34  1  0  0  0  0
 33 32  2  0  0  0  0
 35 33  1  0  0  0  0
 36 35  1  0  0  0  0
 37 35  2  0  0  0  0
 37 39  1  0  0  0  0
 38 37  1  0  0  0  0
 39 41  2  0  0  0  0
 40 39  1  0  0  0  0
 41 32  1  0  0  0  0
 41 42  1  0  0  0  0
M  END
$$$$
