CSD_code = LAVMIF | q = 0 | S = 0 | Stoichiometry = C24H21Cl2N6Rh | MND = 6
 OpenBabel04212202063D

 54 59  0  0  0  0  0  0  0  0999 V2000
   -1.6046    5.7852   14.3659 Rh  0  0  0  0  0  0  0  0  0  0  0  0
   -1.4695    4.6219   16.3587 Cl  0  0  0  0  0  0  0  0  0  0  0  0
   -1.7017    6.7034   12.2802 Cl  0  0  0  0  0  0  0  0  0  0  0  0
    0.3181    4.4165   13.8593 N   0  0  0  0  0  4  0  0  0  0  0  0
    0.1542    4.0425   14.8042 H   0  0  0  0  0  0  0  0  0  0  0  0
    0.5418    3.6552   13.2235 H   0  0  0  0  0  0  0  0  0  0  0  0
   -0.2000    6.9484   14.8550 N   0  0  0  0  0  0  0  0  0  0  0  0
   -0.4279    8.0510   15.4284 N   0  0  0  0  0  2  0  0  0  0  0  0
   -2.6506    7.2483   15.2200 C   0  0  0  0  0  0  0  0  0  0  0  0
   -3.1413    4.3700   13.6052 N   0  0  0  0  0  4  0  0  0  0  0  0
   -3.4406    4.8514   12.7444 H   0  0  0  0  0  0  0  0  0  0  0  0
   -2.5781    3.5456   13.3919 H   0  0  0  0  0  0  0  0  0  0  0  0
   -5.4202    5.4901   12.8684 N   0  0  0  0  0  0  0  0  0  0  0  0
   -6.4280    6.2077   12.5880 N   0  0  0  0  0  0  0  0  0  0  0  0
   -7.4955    7.4850   10.9076 C   0  0  0  0  0  0  0  0  0  0  0  0
   -8.4329    7.0802   11.2581 H   0  0  0  0  0  0  0  0  0  0  0  0
    1.3464    5.3881   13.8719 C   0  0  0  0  0  0  0  0  0  0  0  0
    2.5936    5.1449   13.3123 C   0  0  0  0  0  0  0  0  0  0  0  0
    2.7809    4.1954   12.8301 H   0  0  0  0  0  0  0  0  0  0  0  0
    3.5911    6.1018   13.3694 C   0  0  0  0  0  0  0  0  0  0  0  0
    4.5549    5.8946   12.9302 H   0  0  0  0  0  0  0  0  0  0  0  0
    3.3590    7.3182   13.9960 C   0  0  0  0  0  0  0  0  0  0  0  0
    4.1433    8.0570   14.0490 H   0  0  0  0  0  0  0  0  0  0  0  0
    2.1175    7.5947   14.5284 C   0  0  0  0  0  0  0  0  0  0  0  0
    1.8966    8.5463   14.9856 H   0  0  0  0  0  0  0  0  0  0  0  0
    1.0949    6.6461   14.4541 C   0  0  0  0  0  0  0  0  0  0  0  0
   -1.7544    8.2524   15.6664 C   0  0  0  0  0  0  0  0  0  0  0  0
   -2.2225    9.3964   16.3199 C   0  0  0  0  0  0  0  0  0  0  0  0
   -1.5123   10.1381   16.6500 H   0  0  0  0  0  0  0  0  0  0  0  0
   -3.5758    9.5378   16.5301 C   0  0  0  0  0  0  0  0  0  0  0  0
   -3.9568   10.4147   17.0319 H   0  0  0  0  0  0  0  0  0  0  0  0
   -4.4568    8.5497   16.1042 C   0  0  0  0  0  0  0  0  0  0  0  0
   -5.5169    8.6680   16.2748 H   0  0  0  0  0  0  0  0  0  0  0  0
   -4.0002    7.4077   15.4602 C   0  0  0  0  0  0  0  0  0  0  0  0
   -4.7119    6.6562   15.1529 H   0  0  0  0  0  0  0  0  0  0  0  0
   -4.3039    4.0292   14.3299 C   0  0  0  0  0  0  0  0  0  0  0  0
   -4.2928    3.1182   15.3756 C   0  0  0  0  0  0  0  0  0  0  0  0
   -3.3685    2.6340   15.6515 H   0  0  0  0  0  0  0  0  0  0  0  0
   -5.4559    2.8633   16.0800 C   0  0  0  0  0  0  0  0  0  0  0  0
   -5.4376    2.1597   16.8984 H   0  0  0  0  0  0  0  0  0  0  0  0
   -6.6440    3.5013   15.7431 C   0  0  0  0  0  0  0  0  0  0  0  0
   -7.5438    3.2913   16.3018 H   0  0  0  0  0  0  0  0  0  0  0  0
   -6.6763    4.3960   14.6961 C   0  0  0  0  0  0  0  0  0  0  0  0
   -7.5869    4.8953   14.4019 H   0  0  0  0  0  0  0  0  0  0  0  0
   -5.5095    4.6673   13.9734 C   0  0  0  0  0  0  0  0  0  0  0  0
   -6.3080    7.0593   11.5144 C   0  0  0  0  0  0  0  0  0  0  0  0
   -5.0810    7.5730   11.0731 C   0  0  0  0  0  0  0  0  0  0  0  0
   -4.1720    7.2722   11.5725 H   0  0  0  0  0  0  0  0  0  0  0  0
   -7.4502    8.3782    9.8584 C   0  0  0  0  0  0  0  0  0  0  0  0
   -8.3661    8.6933    9.3798 H   0  0  0  0  0  0  0  0  0  0  0  0
   -6.2320    8.8802    9.4214 C   0  0  0  0  0  0  0  0  0  0  0  0
   -6.2032    9.5883    8.6062 H   0  0  0  0  0  0  0  0  0  0  0  0
   -5.0541    8.4817   10.0363 C   0  0  0  0  0  0  0  0  0  0  0  0
   -4.1072    8.8810    9.7042 H   0  0  0  0  0  0  0  0  0  0  0  0
  1  7  1  0  0  0  0
  1  9  1  0  0  0  0
  1  2  1  0  0  0  0
  3  1  1  0  0  0  0
  4 17  1  0  0  0  0
  4  1  1  0  0  0  0
  4  5  1  0  0  0  0
  6  4  1  0  0  0  0
  7  8  1  0  0  0  0
  8 27  1  0  0  0  0
  9 34  2  0  0  0  0
  9 27  1  0  0  0  0
 10 36  1  0  0  0  0
 10  1  1  0  0  0  0
 11 10  1  0  0  0  0
 12 10  1  0  0  0  0
 13 45  1  0  0  0  0
 14 13  2  0  0  0  0
 15 16  1  0  0  0  0
 15 46  1  0  0  0  0
 17 26  1  0  0  0  0
 18 20  1  0  0  0  0
 18 17  2  0  0  0  0
 19 18  1  0  0  0  0
 20 22  2  0  0  0  0
 21 20  1  0  0  0  0
 22 23  1  0  0  0  0
 22 24  1  0  0  0  0
 24 25  1  0  0  0  0
 26 24  2  0  0  0  0
 26  7  1  0  0  0  0
 27 28  2  0  0  0  0
 28 30  1  0  0  0  0
 28 29  1  0  0  0  0
 30 31  1  0  0  0  0
 32 33  1  0  0  0  0
 32 30  2  0  0  0  0
 34 32  1  0  0  0  0
 35 34  1  0  0  0  0
 36 37  1  0  0  0  0
 37 38  1  0  0  0  0
 37 39  2  0  0  0  0
 39 40  1  0  0  0  0
 41 39  1  0  0  0  0
 41 42  1  0  0  0  0
 43 41  2  0  0  0  0
 44 43  1  0  0  0  0
 45 36  2  0  0  0  0
 45 43  1  0  0  0  0
 46 14  1  0  0  0  0
 47 46  2  0  0  0  0
 47 48  1  0  0  0  0
 49 15  2  0  0  0  0
 50 49  1  0  0  0  0
 51 49  1  0  0  0  0
 51 53  2  0  0  0  0
 52 51  1  0  0  0  0
 53 47  1  0  0  0  0
 54 53  1  0  0  0  0
M  END
$$$$
