CSD_code = LAVYAJ | q = 0 | S = 0 | Stoichiometry = C12H16Cl2FeN4 | MND = 6
 OpenBabel04212202063D

 35 38  0  0  1  0  0  0  0  0999 V2000
    6.6565    5.0107   -0.0001 Fe  0  0  0  0  0  0  0  0  0  0  0  0
    7.7729    6.6562    0.9396 Cl  0  0  0  0  0  0  0  0  0  0  0  0
    8.1443    3.7023    0.7381 N   0  0  0  0  0  4  0  0  0  0  0  0
    8.8274    4.3640    1.1143 H   0  0  0  0  0  0  0  0  0  0  0  0
    7.9516    3.0118    1.4585 H   0  0  0  0  0  0  0  0  0  0  0  0
    4.5347    5.9554    1.5475 C   0  0  2  0  0  3  0  0  0  0  0  0
    5.4262    4.9523    1.4713 N   0  0  0  0  0  0  0  0  0  0  0  0
    3.5869    6.0372    2.5513 C   0  0  0  0  0  0  0  0  0  0  0  0
    2.8982    6.8681    2.5683 H   0  0  0  0  0  0  0  0  0  0  0  0
    3.5342    5.0488    3.5228 C   0  0  0  0  0  0  0  0  0  0  0  0
    2.8081    5.0929    4.3191 H   0  0  0  0  0  0  0  0  0  0  0  0
    4.4305    3.9952    3.4244 C   0  0  0  0  0  0  0  0  0  0  0  0
    4.4198    3.1866    4.1378 H   0  0  0  0  0  0  0  0  0  0  0  0
    5.3448    3.9889    2.3906 C   0  0  0  0  0  0  0  0  0  0  0  0
    6.0311    3.1655    2.2735 H   0  0  0  0  0  0  0  0  0  0  0  0
    8.6689    3.0413   -0.4570 C   0  0  0  0  0  0  0  0  0  0  0  0
    7.9296    2.2946   -0.7678 H   0  0  0  0  0  0  0  0  0  0  0  0
    9.6345    2.5467   -0.2852 H   0  0  0  0  0  0  0  0  0  0  0  0
    5.5372    3.3674   -0.9402 Cl  0  0  0  0  0  0  0  0  0  0  0  0
    5.1686    6.3197   -0.7383 N   0  0  0  0  0  4  0  0  0  0  0  0
    4.4853    5.6573   -1.1137 H   0  0  0  0  0  0  0  0  0  0  0  0
    5.3609    7.0101   -1.4595 H   0  0  0  0  0  0  0  0  0  0  0  0
    8.7787    4.0675   -1.5474 C   0  0  1  0  0  3  0  0  0  0  0  0
    7.8873    5.0705   -1.4710 N   0  0  0  0  0  0  0  0  0  0  0  0
    9.7265    3.9859   -2.5512 C   0  0  0  0  0  0  0  0  0  0  0  0
   10.4153    3.1552   -2.5683 H   0  0  0  0  0  0  0  0  0  0  0  0
    9.7791    4.9744   -3.5226 C   0  0  0  0  0  0  0  0  0  0  0  0
   10.5052    4.9306   -4.3189 H   0  0  0  0  0  0  0  0  0  0  0  0
    8.8825    6.0278   -3.4243 C   0  0  0  0  0  0  0  0  0  0  0  0
    8.8931    6.8364   -4.1376 H   0  0  0  0  0  0  0  0  0  0  0  0
    7.9683    6.0339   -2.3903 C   0  0  0  0  0  0  0  0  0  0  0  0
    7.2816    6.8570   -2.2732 H   0  0  0  0  0  0  0  0  0  0  0  0
    4.6446    6.9812    0.4568 C   0  0  0  0  0  0  0  0  0  0  0  0
    5.3842    7.7279    0.7674 H   0  0  0  0  0  0  0  0  0  0  0  0
    3.6790    7.4761    0.2852 H   0  0  0  0  0  0  0  0  0  0  0  0
  1  3  1  0  0  0  0
  1  2  1  0  0  0  0
  1  7  1  0  0  0  0
  3  4  1  0  0  0  0
  3  5  1  0  0  0  0
  6  8  1  6  0  0  0
  7  6  1  0  0  0  0
  7 14  1  0  0  0  0
  8  9  1  0  0  0  0
  8 10  2  0  0  0  0
 10 11  1  0  0  0  0
 12 10  1  0  0  0  0
 12 13  1  0  0  0  0
 14 12  2  0  0  0  0
 15 14  1  0  0  0  0
 16 18  1  0  0  0  0
 16  3  1  0  0  0  0
 17 16  1  0  0  0  0
 19  1  1  0  0  0  0
 20  1  1  0  0  0  0
 20 33  1  0  0  0  0
 21 20  1  0  0  0  0
 22 20  1  0  0  0  0
 23 25  1  1  0  0  0
 23 24  1  0  0  0  0
 23 16  1  0  0  0  0
 24  1  1  0  0  0  0
 26 25  1  0  0  0  0
 27 29  1  0  0  0  0
 27 25  2  0  0  0  0
 28 27  1  0  0  0  0
 29 31  2  0  0  0  0
 30 29  1  0  0  0  0
 31 32  1  0  0  0  0
 31 24  1  0  0  0  0
 33 34  1  0  0  0  0
 33  6  1  0  0  0  0
 35 33  1  0  0  0  0
M  END
$$$$
