CSD_code = LAWLOM | q = 0 | S = 0 | Stoichiometry = C8H12Cl2N2O2PtS | MND = 5
 OpenBabel04212202063D

 28 26  0  0  0  0  0  0  0  0999 V2000
    0.1330    1.5408    3.7509 Pt  0  0  0  0  0  0  0  0  0  0  0  0
   -0.4546    0.5567    1.7421 Cl  0  0  0  0  0 15  0  0  0  0  0  0
    0.6075    2.7198    5.7044 Cl  0  0  0  0  0 15  0  0  0  0  0  0
   -4.4748    6.4665    4.5633 S   0  0  0  0  0  0  0  0  0  0  0  0
   -4.6216    7.0913    3.2891 O   0  0  0  0  0  0  0  0  0  0  0  0
   -5.6186    6.2627    5.3885 O   0  0  0  0  0  0  0  0  0  0  0  0
   -0.8910    3.1164    3.2036 N   0  0  0  0  0  0  0  0  0  0  0  0
   -3.8205    4.9266    4.3554 N   0  0  0  0  0  0  0  0  0  0  0  0
   -4.1130    4.2669    5.0578 H   0  0  0  0  0  0  0  0  0  0  0  0
   -1.9884    3.4436    3.8767 C   0  0  0  0  0  3  0  0  0  0  0  0
   -2.3178    2.7571    4.6491 H   0  0  0  0  0  0  0  0  0  0  0  0
   -2.6962    4.6211    3.6265 C   0  0  0  0  0  0  0  0  0  0  0  0
   -2.2261    5.4664    2.6169 C   0  0  0  0  0  0  0  0  0  0  0  0
   -2.7655    6.3699    2.3839 H   0  0  0  0  0  0  0  0  0  0  0  0
   -1.0899    5.0973    1.9213 C   0  0  0  0  0  0  0  0  0  0  0  0
   -0.7060    5.7227    1.1317 H   0  0  0  0  0  0  0  0  0  0  0  0
   -0.4393    3.9168    2.2407 C   0  0  0  0  0  0  0  0  0  0  0  0
    0.4524    3.5979    1.7147 H   0  0  0  0  0  0  0  0  0  0  0  0
   -3.1872    7.3167    5.4988 C   0  0  0  0  0  0  0  0  0  0  0  0
   -2.2591    7.2521    4.9462 H   0  0  0  0  0  0  0  0  0  0  0  0
   -3.1053    6.8414    6.4670 H   0  0  0  0  0  0  0  0  0  0  0  0
   -3.4919    8.3496    5.6074 H   0  0  0  0  0  0  0  0  0  0  0  0
    0.6420   -0.3434    4.6639 C   0  0  0  0  0  0  0  0  0  0  0  0
    0.0466   -1.1181    4.1872 H   0  0  0  0  0  0  0  0  0  0  0  0
    0.5263   -0.2410    5.7399 H   0  0  0  0  0  0  0  0  0  0  0  0
    1.7602    0.1563    4.0360 C   0  0  0  0  0  3  0  0  0  0  0  0
    2.5343    0.6566    4.6125 H   0  0  0  0  0  0  0  0  0  0  0  0
    2.0550   -0.2222    3.0607 H   0  0  0  0  0  0  0  0  0  0  0  0
  1 23  1  0  0  0  0
  4  6  2  0  0  0  0
  4 19  1  0  0  0  0
  5  4  2  0  0  0  0
  7  1  1  0  0  0  0
  7 10  1  0  0  0  0
  8  4  1  0  0  0  0
  8  9  1  0  0  0  0
 10 11  1  0  0  0  0
 12 10  1  0  0  0  0
 12  8  1  0  0  0  0
 13 12  2  0  0  0  0
 14 13  1  0  0  0  0
 15 17  2  0  0  0  0
 15 13  1  0  0  0  0
 16 15  1  0  0  0  0
 17  7  1  0  0  0  0
 18 17  1  0  0  0  0
 19 22  1  0  0  0  0
 19 21  1  0  0  0  0
 20 19  1  0  0  0  0
 23 25  1  0  0  0  0
 24 23  1  0  0  0  0
 26 27  1  0  0  0  0
 26 23  1  0  0  0  0
 28 26  1  0  0  0  0
M  END
$$$$
