CSD_code = LAWNEC | q = 0 | S = 0 | Stoichiometry = C25H35Cl2N2PSiTi | MND = 8
 OpenBabel04212202063D

 67 69  0  0  1  0  0  0  0  0999 V2000
   -8.2048    2.0051    3.2367 Ti  0  0  0  0  0  0  0  0  0  0  0  0
   -9.8069    3.3609    2.5959 Cl  0  0  0  0  0  0  0  0  0  0  0  0
   -7.6376    3.1091    5.0432 Cl  0  0  0  0  0  0  0  0  0  0  0  0
   -7.6007    1.7504    1.0228 C   0  0  0  0  0  0  0  0  0  0  0  0
   -7.2492    0.5571    1.7150 C   0  0  0  0  0  0  0  0  0  0  0  0
   -6.2820    0.8994    2.7045 C   0  0  1  0  0  0  0  0  0  0  0  0
   -6.0071    2.2934    2.5877 C   0  0  0  0  0  0  0  0  0  0  0  0
   -6.8309    2.8178    1.5618 C   0  0  0  0  0  0  0  0  0  0  0  0
   -8.5013    1.8456   -0.1759 C   0  0  0  0  0  0  0  0  0  0  0  0
   -7.6575   -0.8324    1.3118 C   0  0  0  0  0  0  0  0  0  0  0  0
   -5.5585   -0.0560    3.6088 C   0  0  0  0  0  0  0  0  0  0  0  0
   -4.9188    3.0252    3.3157 C   0  0  0  0  0  0  0  0  0  0  0  0
   -6.8391    4.2343    1.0665 C   0  0  0  0  0  0  0  0  0  0  0  0
   -9.0686    0.5878    3.9099 N   0  0  0  0  0  2  0  0  0  0  0  0
  -10.4502    0.8030    4.6037 P   0  0  0  0  0  4  0  0  0  0  0  0
  -11.8454    0.6902    3.4282 C   0  0  0  0  0  0  0  0  0  0  0  0
  -11.5451    0.5770    2.0784 C   0  0  0  0  0  0  0  0  0  0  0  0
  -12.5620    0.4495    1.1494 C   0  0  0  0  0  0  0  0  0  0  0  0
  -13.8817    0.4267    1.5721 C   0  0  0  0  0  0  0  0  0  0  0  0
  -14.1841    0.5316    2.9206 C   0  0  0  0  0  0  0  0  0  0  0  0
  -13.1682    0.6633    3.8506 C   0  0  0  0  0  0  0  0  0  0  0  0
  -10.7771    2.3183    5.5871 C   0  0  0  0  0  0  0  0  0  0  0  0
  -10.1091    2.4349    6.8012 C   0  0  0  0  0  0  0  0  0  0  0  0
  -10.2567    3.5743    7.5699 C   0  0  0  0  0  0  0  0  0  0  0  0
  -11.0748    4.6021    7.1284 C   0  0  0  0  0  0  0  0  0  0  0  0
  -11.7520    4.4835    5.9259 C   0  0  0  0  0  0  0  0  0  0  0  0
  -11.6067    3.3444    5.1529 C   0  0  0  0  0  0  0  0  0  0  0  0
  -10.7083   -0.4306    5.6959 N   0  0  0  0  0  0  0  0  0  0  0  0
   -9.3981   -1.5331    6.0725 Si  0  0  0  0  0  0  0  0  0  0  0  0
   -7.8147   -0.6070    6.5964 C   0  0  0  0  0  0  0  0  0  0  0  0
   -9.1066   -2.5898    4.5160 C   0  0  0  0  0  0  0  0  0  0  0  0
  -10.0691   -2.5819    7.5115 C   0  0  0  0  0  0  0  0  0  0  0  0
   -7.9310    2.1768   -1.0466 H   0  0  0  0  0  0  0  0  0  0  0  0
   -8.9426    0.8767   -0.4034 H   0  0  0  0  0  0  0  0  0  0  0  0
   -9.3078    2.5628   -0.0070 H   0  0  0  0  0  0  0  0  0  0  0  0
   -7.1771   -1.5703    1.9498 H   0  0  0  0  0  0  0  0  0  0  0  0
   -8.7377   -0.9754    1.3739 H   0  0  0  0  0  0  0  0  0  0  0  0
   -7.3475   -1.0210    0.2812 H   0  0  0  0  0  0  0  0  0  0  0  0
   -4.6651   -0.4461    3.1136 H   0  0  0  0  0  0  0  0  0  0  0  0
   -5.2463    0.4479    4.5235 H   0  0  0  0  0  0  0  0  0  0  0  0
   -6.2016   -0.8928    3.8796 H   0  0  0  0  0  0  0  0  0  0  0  0
   -3.9502    2.7910    2.8660 H   0  0  0  0  0  0  0  0  0  0  0  0
   -5.0684    4.1021    3.2619 H   0  0  0  0  0  0  0  0  0  0  0  0
   -4.8853    2.7400    4.3675 H   0  0  0  0  0  0  0  0  0  0  0  0
   -6.0222    4.3951    0.3580 H   0  0  0  0  0  0  0  0  0  0  0  0
   -7.7788    4.4588    0.5631 H   0  0  0  0  0  0  0  0  0  0  0  0
   -6.7159    4.9391    1.8907 H   0  0  0  0  0  0  0  0  0  0  0  0
  -10.4992    0.6104    1.7835 H   0  0  0  0  0  0  0  0  0  0  0  0
  -12.3304    0.3718    0.0969 H   0  0  0  0  0  0  0  0  0  0  0  0
  -14.6783    0.3298    0.8490 H   0  0  0  0  0  0  0  0  0  0  0  0
  -15.2144    0.5153    3.2457 H   0  0  0  0  0  0  0  0  0  0  0  0
  -13.3981    0.7584    4.9034 H   0  0  0  0  0  0  0  0  0  0  0  0
   -9.4696    1.6241    7.1250 H   0  0  0  0  0  0  0  0  0  0  0  0
   -9.7267    3.6670    8.5066 H   0  0  0  0  0  0  0  0  0  0  0  0
  -11.1832    5.4983    7.7219 H   0  0  0  0  0  0  0  0  0  0  0  0
  -12.3909    5.2845    5.5832 H   0  0  0  0  0  0  0  0  0  0  0  0
  -12.1309    3.2536    4.2109 H   0  0  0  0  0  0  0  0  0  0  0  0
   -7.6478    0.2374    5.9245 H   0  0  0  0  0  0  0  0  0  0  0  0
   -7.8785   -0.2256    7.6130 H   0  0  0  0  0  0  0  0  0  0  0  0
   -6.9419   -1.2522    6.5514 H   0  0  0  0  0  0  0  0  0  0  0  0
   -8.9236   -1.9241    3.6778 H   0  0  0  0  0  0  0  0  0  0  0  0
   -8.2568   -3.2569    4.6243 H   0  0  0  0  0  0  0  0  0  0  0  0
   -9.9755   -3.1968    4.2773 H   0  0  0  0  0  0  0  0  0  0  0  0
  -10.9800   -3.1024    7.2388 H   0  0  0  0  0  0  0  0  0  0  0  0
   -9.3355   -3.3295    7.7852 H   0  0  0  0  0  0  0  0  0  0  0  0
  -10.2760   -1.9879    8.3949 H   0  0  0  0  0  0  0  0  0  0  0  0
  -11.5300   -0.3601    6.2734 H   0  0  0  0  0  0  0  0  0  0  0  0
  1 14  1  0  0  0  0
  1  3  1  0  0  0  0
  2  1  1  0  0  0  0
  4  8  1  0  0  0  0
  4  5  2  0  0  0  0
  5  6  1  0  0  0  0
  6  1  1  0  0  0  0
  6 11  1  1  0  0  0
  7  6  1  0  0  0  0
  7 12  1  0  0  0  0
  8  7  2  0  0  0  0
  9 35  1  0  0  0  0
  9  4  1  0  0  0  0
 10 37  1  0  0  0  0
 10  5  1  0  0  0  0
 10 36  1  0  0  0  0
 11 41  1  0  0  0  0
 11 40  1  0  0  0  0
 12 44  1  0  0  0  0
 13  8  1  0  0  0  0
 13 47  1  0  0  0  0
 14 15  1  0  0  0  0
 15 22  1  0  0  0  0
 15 28  1  0  0  0  0
 16 21  1  0  0  0  0
 16 15  1  0  0  0  0
 17 16  2  0  0  0  0
 18 19  2  0  0  0  0
 18 17  1  0  0  0  0
 19 20  1  0  0  0  0
 20 51  1  0  0  0  0
 20 21  2  0  0  0  0
 21 52  1  0  0  0  0
 22 23  1  0  0  0  0
 23 53  1  0  0  0  0
 23 24  2  0  0  0  0
 24 54  1  0  0  0  0
 25 24  1  0  0  0  0
 25 55  1  0  0  0  0
 26 25  2  0  0  0  0
 27 22  2  0  0  0  0
 27 26  1  0  0  0  0
 28 29  1  0  0  0  0
 28 67  1  0  0  0  0
 29 30  1  0  0  0  0
 29 32  1  0  0  0  0
 30 59  1  0  0  0  0
 31 62  1  0  0  0  0
 31 29  1  0  0  0  0
 32 65  1  0  0  0  0
 32 66  1  0  0  0  0
 33  9  1  0  0  0  0
 34  9  1  0  0  0  0
 38 10  1  0  0  0  0
 39 11  1  0  0  0  0
 42 12  1  0  0  0  0
 43 12  1  0  0  0  0
 45 13  1  0  0  0  0
 46 13  1  0  0  0  0
 48 17  1  0  0  0  0
 49 18  1  0  0  0  0
 50 19  1  0  0  0  0
 56 26  1  0  0  0  0
 57 27  1  0  0  0  0
 58 30  1  0  0  0  0
 60 30  1  0  0  0  0
 61 31  1  0  0  0  0
 63 31  1  0  0  0  0
 64 32  1  0  0  0  0
M  END
$$$$
