CSD_code = LAXCOD | q = 0 | S = 0 | Stoichiometry = C26H22Cl3OP2Re | MND = 6
 OpenBabel04212202063D

 55 59  0  0  0  0  0  0  0  0999 V2000
    1.0892    1.9391    3.3475 Re  0  0  0  0  0  0  0  0  0  0  0  0
    2.7762    3.4764    2.5285 P   0  0  0  0  0  4  0  0  0  0  0  0
    0.9191    3.5249    5.1753 P   0  0  0  0  0  4  0  0  0  0  0  0
   -0.5500    4.5970    5.2779 C   0  0  0  0  0  0  0  0  0  0  0  0
   -2.7798    6.2286    5.4348 C   0  0  0  0  0  0  0  0  0  0  0  0
   -3.6508    6.8636    5.4998 H   0  0  0  0  0  0  0  0  0  0  0  0
    1.1013    2.9572    6.8751 C   0  0  0  0  0  0  0  0  0  0  0  0
   -0.6956    5.4728    6.3510 C   0  0  0  0  0  0  0  0  0  0  0  0
    0.0560    5.5028    7.1289 H   0  0  0  0  0  0  0  0  0  0  0  0
    2.3852    4.5349    1.0980 C   0  0  0  0  0  0  0  0  0  0  0  0
    4.4233    2.8719    2.1209 C   0  0  0  0  0  0  0  0  0  0  0  0
    3.3631    5.3731    0.5682 C   0  0  0  0  0  0  0  0  0  0  0  0
    4.3582    5.3770    0.9931 H   0  0  0  0  0  0  0  0  0  0  0  0
    4.5597    2.1875    0.9160 C   0  0  0  0  0  0  0  0  0  0  0  0
    3.6965    2.0634    0.2764 H   0  0  0  0  0  0  0  0  0  0  0  0
   -1.5228    4.5382    4.2890 C   0  0  0  0  0  0  0  0  0  0  0  0
   -1.4002    3.8391    3.4706 H   0  0  0  0  0  0  0  0  0  0  0  0
    1.2850    1.9464    9.4383 C   0  0  0  0  0  0  0  0  0  0  0  0
    1.3609    1.5469   10.4387 H   0  0  0  0  0  0  0  0  0  0  0  0
    2.2886    3.0939    7.5848 C   0  0  0  0  0  0  0  0  0  0  0  0
    3.1418    3.5720    7.1246 H   0  0  0  0  0  0  0  0  0  0  0  0
   -2.6377    5.3543    4.3700 C   0  0  0  0  0  0  0  0  0  0  0  0
   -3.3978    5.3046    3.6051 H   0  0  0  0  0  0  0  0  0  0  0  0
    2.2115    4.7716    4.8966 C   0  0  0  0  0  0  0  0  0  0  0  0
    2.2845    5.5562    5.6429 H   0  0  0  0  0  0  0  0  0  0  0  0
    0.0092    2.3047    7.4412 C   0  0  0  0  0  0  0  0  0  0  0  0
   -0.8961    2.1855    6.8615 H   0  0  0  0  0  0  0  0  0  0  0  0
    5.5074    3.0157    2.9788 C   0  0  0  0  0  0  0  0  0  0  0  0
    5.3835    3.5186    3.9276 H   0  0  0  0  0  0  0  0  0  0  0  0
    0.8165    5.3221   -0.5377 C   0  0  0  0  0  0  0  0  0  0  0  0
   -0.1706    5.2987   -0.9739 H   0  0  0  0  0  0  0  0  0  0  0  0
    2.3718    2.5922    8.8707 C   0  0  0  0  0  0  0  0  0  0  0  0
    3.2917    2.6943    9.4273 H   0  0  0  0  0  0  0  0  0  0  0  0
   -1.8099    6.2866    6.4243 C   0  0  0  0  0  0  0  0  0  0  0  0
   -1.9266    6.9648    7.2568 H   0  0  0  0  0  0  0  0  0  0  0  0
    0.1063    1.7995    8.7235 C   0  0  0  0  0  0  0  0  0  0  0  0
   -0.7333    1.2827    9.1634 H   0  0  0  0  0  0  0  0  0  0  0  0
    1.7879    6.1593   -1.0612 C   0  0  0  0  0  0  0  0  0  0  0  0
    1.5575    6.7918   -1.9056 H   0  0  0  0  0  0  0  0  0  0  0  0
    1.1129    4.5096    0.5429 C   0  0  0  0  0  0  0  0  0  0  0  0
    0.3706    3.8385    0.9579 H   0  0  0  0  0  0  0  0  0  0  0  0
    2.9782    4.7490    3.8099 C   0  0  0  0  0  0  0  0  0  0  0  0
    3.7204    5.5143    3.6064 H   0  0  0  0  0  0  0  0  0  0  0  0
    6.8738    1.8128    1.4148 C   0  0  0  0  0  0  0  0  0  0  0  0
    7.8320    1.3954    1.1428 H   0  0  0  0  0  0  0  0  0  0  0  0
    6.7338    2.4899    2.6157 C   0  0  0  0  0  0  0  0  0  0  0  0
    7.5805    2.5983    3.2774 H   0  0  0  0  0  0  0  0  0  0  0  0
    5.7873    1.6577    0.5677 C   0  0  0  0  0  0  0  0  0  0  0  0
    5.8964    1.1162   -0.3598 H   0  0  0  0  0  0  0  0  0  0  0  0
    3.0360    1.7408    4.7082 Cl  0  0  0  0  0  0  0  0  0  0  0  0
    0.1050    0.3126    4.6386 Cl  0  0  0  0  0  0  0  0  0  0  0  0
    1.9307    0.2638    2.0184 Cl  0  0  0  0  0  0  0  0  0  0  0  0
   -0.1958    2.4815    2.4397 O   0  0  0  0  0  1  0  0  0  0  0  0
    3.0599    6.1831   -0.5095 C   0  0  0  0  0  0  0  0  0  0  0  0
    3.8173    6.8321   -0.9240 H   0  0  0  0  0  0  0  0  0  0  0  0
  1 51  1  0  0  0  0
  1 50  1  0  0  0  0
  1  3  1  0  0  0  0
  2  1  1  0  0  0  0
  2 42  1  0  0  0  0
  3  4  1  0  0  0  0
  3  7  1  0  0  0  0
  4  8  1  0  0  0  0
  5  6  1  0  0  0  0
  5 34  1  0  0  0  0
  7 26  2  0  0  0  0
  7 20  1  0  0  0  0
  8 34  2  0  0  0  0
  8  9  1  0  0  0  0
 10  2  1  0  0  0  0
 11  2  1  0  0  0  0
 11 28  1  0  0  0  0
 12 13  1  0  0  0  0
 12 10  1  0  0  0  0
 14 11  2  0  0  0  0
 15 14  1  0  0  0  0
 16 22  1  0  0  0  0
 16  4  2  0  0  0  0
 17 16  1  0  0  0  0
 18 19  1  0  0  0  0
 20 32  2  0  0  0  0
 21 20  1  0  0  0  0
 22  5  2  0  0  0  0
 23 22  1  0  0  0  0
 24  3  1  0  0  0  0
 24 25  1  0  0  0  0
 26 36  1  0  0  0  0
 27 26  1  0  0  0  0
 28 29  1  0  0  0  0
 30 40  1  0  0  0  0
 31 30  1  0  0  0  0
 32 33  1  0  0  0  0
 32 18  1  0  0  0  0
 34 35  1  0  0  0  0
 36 37  1  0  0  0  0
 36 18  2  0  0  0  0
 38 30  2  0  0  0  0
 38 54  1  0  0  0  0
 39 38  1  0  0  0  0
 40 41  1  0  0  0  0
 40 10  2  0  0  0  0
 42 24  2  0  0  0  0
 43 42  1  0  0  0  0
 44 46  1  0  0  0  0
 45 44  1  0  0  0  0
 46 28  2  0  0  0  0
 46 47  1  0  0  0  0
 48 14  1  0  0  0  0
 48 44  2  0  0  0  0
 49 48  1  0  0  0  0
 52  1  1  0  0  0  0
 53  1  1  0  0  0  0
 54 12  2  0  0  0  0
 55 54  1  0  0  0  0
M  END
$$$$
