CSD_code = LAXVOV | q = 0 | S = 0 | Stoichiometry = C13H32Cl2O2P2Ru | MND = 6
 OpenBabel04212202063D

 52 50  0  0  0  0  0  0  0  0999 V2000
    1.9724   11.9060    1.5482 Ru  0  0  0  0  0  0  0  0  0  0  0  0
    4.1183   11.9148    0.4793 Cl  0  0  0  0  0  0  0  0  0  0  0  0
   -0.1576   11.1870    2.2321 Cl  0  0  0  0  0  0  0  0  0  0  0  0
    2.7254   10.4522    3.2087 P   0  0  0  0  0  4  0  0  0  0  0  0
    1.0994   13.2374   -0.1672 P   0  0  0  0  0  4  0  0  0  0  0  0
    2.2839   14.3794    3.1687 O   0  0  0  0  0  1  0  0  0  0  0  0
    1.9185   10.0420    0.1407 O   0  0  0  0  0  0  0  0  0  0  0  0
    2.1599   13.4007    2.5760 C   0  0  0  0  0  2  0  0  0  0  0  0
    2.5303    8.6836    2.7277 C   0  0  0  0  0  0  0  0  0  0  0  0
    2.8947    7.6476    3.7845 C   0  0  0  0  0  0  0  0  0  0  0  0
    1.8631   10.5028    4.8376 C   0  0  0  0  0  0  0  0  0  0  0  0
    1.4423   11.8988    5.2781 C   0  0  0  0  0  0  0  0  0  0  0  0
    4.5150   10.5479    3.6350 C   0  0  0  0  0  0  0  0  0  0  0  0
    4.9524   11.9533    4.0246 C   0  0  0  0  0  0  0  0  0  0  0  0
    1.6613   14.9892   -0.1982 C   0  0  0  0  0  0  0  0  0  0  0  0
    3.1709   15.1289   -0.3422 C   0  0  0  0  0  0  0  0  0  0  0  0
    1.4723   12.6212   -1.8757 C   0  0  0  0  0  0  0  0  0  0  0  0
    1.1934   13.5772   -3.0296 C   0  0  0  0  0  0  0  0  0  0  0  0
   -0.7306   13.4368   -0.2039 C   0  0  0  0  0  0  0  0  0  0  0  0
   -1.2450   14.2075    1.0058 C   0  0  0  0  0  0  0  0  0  0  0  0
    2.7846   10.2479   -0.2677 H   0  0  0  0  0  0  0  0  0  0  0  0
    1.2454    9.9821   -0.5463 H   0  0  0  0  0  0  0  0  0  0  0  0
    3.1439    8.5354    1.8325 H   0  0  0  0  0  0  0  0  0  0  0  0
    1.4807    8.5708    2.4344 H   0  0  0  0  0  0  0  0  0  0  0  0
    2.2841    7.7600    4.6765 H   0  0  0  0  0  0  0  0  0  0  0  0
    3.9425    7.7196    4.0657 H   0  0  0  0  0  0  0  0  0  0  0  0
    2.7237    6.6497    3.3840 H   0  0  0  0  0  0  0  0  0  0  0  0
    2.5243   10.0467    5.5813 H   0  0  0  0  0  0  0  0  0  0  0  0
    0.9683    9.8836    4.7271 H   0  0  0  0  0  0  0  0  0  0  0  0
    0.7474   12.3195    4.5522 H   0  0  0  0  0  0  0  0  0  0  0  0
    0.9400   11.8486    6.2427 H   0  0  0  0  0  0  0  0  0  0  0  0
    2.2953   12.5670    5.3685 H   0  0  0  0  0  0  0  0  0  0  0  0
    4.7283    9.8423    4.4427 H   0  0  0  0  0  0  0  0  0  0  0  0
    5.0586   10.2326    2.7388 H   0  0  0  0  0  0  0  0  0  0  0  0
    6.0333   11.9925    4.1459 H   0  0  0  0  0  0  0  0  0  0  0  0
    4.6695   12.6611    3.2450 H   0  0  0  0  0  0  0  0  0  0  0  0
    4.4911   12.2648    4.9588 H   0  0  0  0  0  0  0  0  0  0  0  0
    1.1345   15.5056   -1.0069 H   0  0  0  0  0  0  0  0  0  0  0  0
    1.3471   15.4301    0.7526 H   0  0  0  0  0  0  0  0  0  0  0  0
    3.4573   16.1784   -0.3103 H   0  0  0  0  0  0  0  0  0  0  0  0
    3.5237   14.7019   -1.2782 H   0  0  0  0  0  0  0  0  0  0  0  0
    3.6744   14.6108    0.4720 H   0  0  0  0  0  0  0  0  0  0  0  0
    2.5314   12.3400   -1.8760 H   0  0  0  0  0  0  0  0  0  0  0  0
    0.8739   11.7114   -2.0115 H   0  0  0  0  0  0  0  0  0  0  0  0
    0.1584   13.9114   -3.0315 H   0  0  0  0  0  0  0  0  0  0  0  0
    1.3822   13.0678   -3.9734 H   0  0  0  0  0  0  0  0  0  0  0  0
    1.8406   14.4482   -2.9850 H   0  0  0  0  0  0  0  0  0  0  0  0
   -1.0243   13.9317   -1.1339 H   0  0  0  0  0  0  0  0  0  0  0  0
   -1.1534   12.4274   -0.1933 H   0  0  0  0  0  0  0  0  0  0  0  0
   -0.9677   15.2577    0.9552 H   0  0  0  0  0  0  0  0  0  0  0  0
   -0.8351   13.7766    1.9191 H   0  0  0  0  0  0  0  0  0  0  0  0
   -2.3296   14.1412    1.0566 H   0  0  0  0  0  0  0  0  0  0  0  0
  1  3  1  0  0  0  0
  1  8  1  0  0  0  0
  1  4  1  0  0  0  0
  2  1  1  0  0  0  0
  4 13  1  0  0  0  0
  4 11  1  0  0  0  0
  5  1  1  0  0  0  0
  8  6  1  0  0  0  0
  9  4  1  0  0  0  0
  9 10  1  0  0  0  0
 10 26  1  0  0  0  0
 10 25  1  0  0  0  0
 11 12  1  0  0  0  0
 11 28  1  0  0  0  0
 12 32  1  0  0  0  0
 12 31  1  0  0  0  0
 13 14  1  0  0  0  0
 13 33  1  0  0  0  0
 14 35  1  0  0  0  0
 14 37  1  0  0  0  0
 15  5  1  0  0  0  0
 15 39  1  0  0  0  0
 16 40  1  0  0  0  0
 16 15  1  0  0  0  0
 16 42  1  0  0  0  0
 17  5  1  0  0  0  0
 18 47  1  0  0  0  0
 18 17  1  0  0  0  0
 19 49  1  0  0  0  0
 19  5  1  0  0  0  0
 19 20  1  0  0  0  0
 20 52  1  0  0  0  0
 20 51  1  0  0  0  0
 21  7  1  0  0  0  0
 22  7  1  0  0  0  0
 23  9  1  0  0  0  0
 24  9  1  0  0  0  0
 27 10  1  0  0  0  0
 29 11  1  0  0  0  0
 30 12  1  0  0  0  0
 34 13  1  0  0  0  0
 36 14  1  0  0  0  0
 38 15  1  0  0  0  0
 41 16  1  0  0  0  0
 43 17  1  0  0  0  0
 44 17  1  0  0  0  0
 45 18  1  0  0  0  0
 46 18  1  0  0  0  0
 48 19  1  0  0  0  0
 50 20  1  0  0  0  0
M  END
$$$$
