CSD_code = LAYGEA | q = 0 | S = 0 | Stoichiometry = C16H19ClN2OPd | MND = 4
 OpenBabel04212202063D

 40 42  0  0  1  0  0  0  0  0999 V2000
    2.7467    5.2110    0.1041 Pd  0  0  1  0  0  0  0  0  0  0  0  0
    4.0369    4.3657   -1.6836 Cl  0  0  0  0  0  0  0  0  0  0  0  0
    1.4214    5.4698   -2.4224 O   0  0  0  0  0  0  0  0  0  0  0  0
    2.3246    5.0395   -2.5090 H   0  0  0  0  0  0  0  0  0  0  0  0
    1.3144    5.7508   -1.0822 N   0  0  0  0  0  0  0  0  0  0  0  0
    4.1894    4.6611    1.3048 N   0  0  0  0  0  0  0  0  0  0  0  0
    0.2495    6.3003   -0.6068 C   0  0  0  0  0  0  0  0  0  0  0  0
   -0.9514    6.6486   -1.4459 C   0  0  1  0  0  0  0  0  0  0  0  0
   -1.7162    7.0775   -0.7935 H   0  0  0  0  0  0  0  0  0  0  0  0
   -0.5877    7.6911   -2.5073 C   0  0  0  0  0  0  0  0  0  0  0  0
   -1.4748    7.9666   -3.0727 H   0  0  0  0  0  0  0  0  0  0  0  0
    0.1522    7.2931   -3.1957 H   0  0  0  0  0  0  0  0  0  0  0  0
   -0.1836    8.5846   -2.0358 H   0  0  0  0  0  0  0  0  0  0  0  0
   -1.5399    5.3803   -2.0856 C   0  0  0  0  0  0  0  0  0  0  0  0
   -0.8316    4.9776   -2.8096 H   0  0  0  0  0  0  0  0  0  0  0  0
   -2.4481    5.6602   -2.6237 H   0  0  0  0  0  0  0  0  0  0  0  0
   -1.8684    4.3166   -1.0439 C   0  0  0  0  0  0  0  0  0  0  0  0
   -2.3392    3.4582   -1.5170 H   0  0  0  0  0  0  0  0  0  0  0  0
   -2.5480    4.7105   -0.2903 H   0  0  0  0  0  0  0  0  0  0  0  0
   -0.9640    3.9758   -0.5408 H   0  0  0  0  0  0  0  0  0  0  0  0
    0.3198    6.5043    0.8424 C   0  0  0  0  0  0  0  0  0  0  0  0
    1.4979    6.0098    1.4532 C   0  0  0  0  0  0  0  0  0  0  0  0
    1.6359    6.1554    2.8267 C   0  0  0  0  0  0  0  0  0  0  0  0
    2.5240    5.7865    3.3295 H   0  0  0  0  0  0  0  0  0  0  0  0
    0.6466    6.7700    3.5849 C   0  0  0  0  0  0  0  0  0  0  0  0
    0.7726    6.8718    4.6537 H   0  0  0  0  0  0  0  0  0  0  0  0
   -0.4974    7.2539    2.9758 C   0  0  0  0  0  0  0  0  0  0  0  0
   -1.2636    7.7346    3.5665 H   0  0  0  0  0  0  0  0  0  0  0  0
   -0.6640    7.1235    1.6087 C   0  0  0  0  0  0  0  0  0  0  0  0
   -1.5625    7.5119    1.1520 H   0  0  0  0  0  0  0  0  0  0  0  0
    4.4137    3.3625    1.5075 C   0  0  0  0  0  3  0  0  0  0  0  0
    3.6219    2.6823    1.1992 H   0  0  0  0  0  0  0  0  0  0  0  0
    5.5889    2.8924    2.0661 C   0  0  0  0  0  0  0  0  0  0  0  0
    5.7335    1.8331    2.2072 H   0  0  0  0  0  0  0  0  0  0  0  0
    6.5724    3.8021    2.4256 C   0  0  0  0  0  0  0  0  0  0  0  0
    7.5034    3.4669    2.8562 H   0  0  0  0  0  0  0  0  0  0  0  0
    6.3343    5.1520    2.2140 C   0  0  0  0  0  0  0  0  0  0  0  0
    7.0728    5.8939    2.4736 H   0  0  0  0  0  0  0  0  0  0  0  0
    5.1298    5.5401    1.6540 C   0  0  0  0  0  0  0  0  0  0  0  0
    4.9007    6.5887    1.4718 H   0  0  0  0  0  0  0  0  0  0  0  0
  1  2  1  6  0  0  0
  1  6  1  0  0  0  0
  1 22  2  0  0  0  0
  3  5  1  0  0  0  0
  4  3  1  0  0  0  0
  5  7  1  0  0  0  0
  5  1  1  0  0  0  0
  6 31  1  0  0  0  0
  6 39  1  0  0  0  0
  7 21  2  0  0  0  0
  8  9  1  1  0  0  0
  8  7  1  0  0  0  0
 10 13  1  0  0  0  0
 10  8  1  0  0  0  0
 11 10  1  0  0  0  0
 12 10  1  0  0  0  0
 14  8  1  0  0  0  0
 14 17  1  0  0  0  0
 15 14  1  0  0  0  0
 16 14  1  0  0  0  0
 17 20  1  0  0  0  0
 17 19  1  0  0  0  0
 18 17  1  0  0  0  0
 21 22  1  0  0  0  0
 21 29  1  0  0  0  0
 22 23  1  0  0  0  0
 23 24  1  0  0  0  0
 23 25  2  0  0  0  0
 25 26  1  0  0  0  0
 27 28  1  0  0  0  0
 27 25  1  0  0  0  0
 29 27  2  0  0  0  0
 30 29  1  0  0  0  0
 31 33  1  0  0  0  0
 32 31  1  0  0  0  0
 33 34  1  0  0  0  0
 33 35  2  0  0  0  0
 35 36  1  0  0  0  0
 37 35  1  0  0  0  0
 37 38  1  0  0  0  0
 39 37  2  0  0  0  0
 40 39  1  0  0  0  0
M  END
$$$$
