CSD_code = LAYPUY | q = 0 | S = 0 | Stoichiometry = C12H12AuCl3N2 | MND = 5
 OpenBabel04212202063D

 30 32  0  0  1  0  0  0  0  0999 V2000
    2.5048    7.2825   13.7229 Au  0  0  0  0  0  0  0  0  0  0  0  0
    0.8291    8.2687   14.9268 Cl  0  0  0  0  0  0  0  0  0  0  0  0
    4.3376    6.4192   12.6492 Cl  0  0  0  0  0  0  0  0  0  0  0  0
    1.3213    2.9190   12.8824 C   0  0  0  0  0  0  0  0  0  0  0  0
    0.7987    2.3567   12.1248 H   0  0  0  0  0  0  0  0  0  0  0  0
    1.6995    4.9921   13.9607 N   0  0  0  0  0  0  0  0  0  0  0  0
    4.0338    8.8741   15.9444 C   0  0  0  0  0  0  0  0  0  0  0  0
    3.0410    9.3271   15.9334 H   0  0  0  0  0  0  0  0  0  0  0  0
    4.4487    8.9637   14.9404 H   0  0  0  0  0  0  0  0  0  0  0  0
    4.6638    9.4175   16.6432 H   0  0  0  0  0  0  0  0  0  0  0  0
    4.4043    6.9881   17.5533 C   0  0  0  0  0  0  0  0  0  0  0  0
    4.8741    7.6843   18.2292 H   0  0  0  0  0  0  0  0  0  0  0  0
    1.0646    4.2828   13.0377 C   0  0  1  0  0  3  0  0  0  0  0  0
    2.5874    4.4154   14.7698 C   0  0  0  0  0  0  0  0  0  0  0  0
    3.6770    4.7927   16.9798 C   0  0  0  0  0  0  0  0  0  0  0  0
    3.5478    3.7490   17.2134 H   0  0  0  0  0  0  0  0  0  0  0  0
    2.9036    3.0653   14.6681 C   0  0  0  0  0  0  0  0  0  0  0  0
    3.6563    2.6196   15.2974 H   0  0  0  0  0  0  0  0  0  0  0  0
    4.2719    5.6531   17.8852 C   0  0  0  0  0  0  0  0  0  0  0  0
    4.6287    5.2854   18.8352 H   0  0  0  0  0  0  0  0  0  0  0  0
    3.9184    7.4451   16.3315 C   0  0  1  0  0  3  0  0  0  0  0  0
    3.3317    6.5979   15.4852 N   0  0  0  0  0  0  0  0  0  0  0  0
    2.2595    2.3138   13.6960 C   0  0  0  0  0  0  0  0  0  0  0  0
    2.4933    1.2661   13.5786 H   0  0  0  0  0  0  0  0  0  0  0  0
    0.0865    5.0080   12.1836 C   0  0  0  0  0  0  0  0  0  0  0  0
    0.6220    5.5785   11.4238 H   0  0  0  0  0  0  0  0  0  0  0  0
   -0.4716    5.7253   12.7809 H   0  0  0  0  0  0  0  0  0  0  0  0
   -0.5952    4.3199   11.6920 H   0  0  0  0  0  0  0  0  0  0  0  0
    3.2178    5.2940   15.7664 C   0  0  0  0  0  0  0  0  0  0  0  0
    1.6982    8.1064   11.8166 Cl  0  0  0  0  0  0  0  0  0  0  0  0
  1  6  1  0  0  0  0
  1  2  1  0  0  0  0
  1 22  1  0  0  0  0
  3  1  1  0  0  0  0
  4 13  1  0  0  0  0
  4 23  2  0  0  0  0
  5  4  1  0  0  0  0
  6 14  1  0  0  0  0
  7 10  1  0  0  0  0
  8  7  1  0  0  0  0
  9  7  1  0  0  0  0
 11 19  2  0  0  0  0
 11 12  1  0  0  0  0
 13 25  1  6  0  0  0
 13  6  1  0  0  0  0
 14 29  1  0  0  0  0
 15 16  1  0  0  0  0
 15 19  1  0  0  0  0
 17 14  2  0  0  0  0
 17 18  1  0  0  0  0
 19 20  1  0  0  0  0
 21  7  1  1  0  0  0
 21 11  1  0  0  0  0
 22 29  1  0  0  0  0
 22 21  1  0  0  0  0
 23 17  1  0  0  0  0
 24 23  1  0  0  0  0
 25 27  1  0  0  0  0
 26 25  1  0  0  0  0
 28 25  1  0  0  0  0
 29 15  2  0  0  0  0
 30  1  1  0  0  0  0
M  END
$$$$
