CSD_code = LAYTIR | q = 0 | S = 0 | Stoichiometry = C26H21BrMnN5O3 | MND = 6
 OpenBabel04212202063D

 57 62  0  0  1  0  0  0  0  0999 V2000
   12.3697    2.1289    7.4044 Mn  0  0  0  0  0  0  0  0  0  0  0  0
   12.8560    2.6595    5.7742 C   0  0  0  0  0  2  0  0  0  0  0  0
   13.3035    2.9303    4.7481 O   0  0  0  0  0  1  0  0  0  0  0  0
   13.6123    4.0957    8.2809 Br  0  0  0  0  0  0  0  0  0  0  0  0
   11.8354    1.6772    9.2983 N   0  0  0  0  0  0  0  0  0  0  0  0
   14.8773    0.6267    7.2319 O   0  0  0  0  0  1  0  0  0  0  0  0
   13.8773    1.1843    7.3551 C   0  0  0  0  0  2  0  0  0  0  0  0
   10.6723    2.1324   11.1478 N   0  0  0  0  0  0  0  0  0  0  0  0
   12.1947    0.7666   10.2514 C   0  0  0  0  0  0  0  0  0  0  0  0
   11.1275    4.9206    4.5832 N   0  0  0  0  0  0  0  0  0  0  0  0
   10.7219    3.3948    7.7268 N   0  0  0  0  0  0  0  0  0  0  0  0
   11.4292    0.8059    6.6780 C   0  0  0  0  0  2  0  0  0  0  0  0
   10.8747   -0.0586    6.1665 O   0  0  0  0  0  1  0  0  0  0  0  0
   10.1482    2.9191    4.8374 N   0  0  0  0  0  0  0  0  0  0  0  0
   13.0891   -0.3010   10.2081 C   0  0  0  0  0  0  0  0  0  0  0  0
   13.6339   -0.5269    9.3054 H   0  0  0  0  0  0  0  0  0  0  0  0
   12.5302   -0.7553   12.5212 C   0  0  0  0  0  0  0  0  0  0  0  0
   12.6878   -1.3652   13.3976 H   0  0  0  0  0  0  0  0  0  0  0  0
   13.2427   -1.0478   11.3539 C   0  0  0  0  0  0  0  0  0  0  0  0
   13.9296   -1.8799   11.3568 H   0  0  0  0  0  0  0  0  0  0  0  0
   11.4720    1.0510   11.4299 C   0  0  0  0  0  0  0  0  0  0  0  0
   11.6350    0.2912   12.5811 C   0  0  0  0  0  0  0  0  0  0  0  0
   11.0931    0.5080   13.4886 H   0  0  0  0  0  0  0  0  0  0  0  0
   10.9399    2.4856    9.8555 C   0  0  2  0  0  3  0  0  0  0  0  0
   10.3827    3.5367    9.0281 C   0  0  1  0  0  3  0  0  0  0  0  0
    9.6340    4.6259    9.4728 C   0  0  0  0  0  0  0  0  0  0  0  0
    9.4325    4.7736   10.5181 H   0  0  0  0  0  0  0  0  0  0  0  0
    9.1876    5.5579    8.5546 C   0  0  0  0  0  0  0  0  0  0  0  0
    8.6180    6.4144    8.8804 H   0  0  0  0  0  0  0  0  0  0  0  0
    9.4804    5.3711    7.2159 C   0  0  0  0  0  0  0  0  0  0  0  0
    9.1185    6.0520    6.4632 H   0  0  0  0  0  0  0  0  0  0  0  0
   10.2553    4.2773    6.8423 C   0  0  0  0  0  0  0  0  0  0  0  0
   10.5325    4.0241    5.4270 C   0  0  0  0  0  0  0  0  0  0  0  0
   11.1480    4.3127    3.3513 C   0  0  0  0  0  0  0  0  0  0  0  0
   11.6542    4.7035    2.1206 C   0  0  0  0  0  0  0  0  0  0  0  0
   12.1611    5.6472    1.9877 H   0  0  0  0  0  0  0  0  0  0  0  0
   10.8519    2.5925    1.2329 C   0  0  0  0  0  0  0  0  0  0  0  0
   10.7551    1.9406    0.3775 H   0  0  0  0  0  0  0  0  0  0  0  0
   11.4924    3.8246    1.0705 C   0  0  0  0  0  0  0  0  0  0  0  0
   11.8731    4.0918    0.0958 H   0  0  0  0  0  0  0  0  0  0  0  0
   11.0611    7.3783    4.4416 C   0  0  0  0  0  0  0  0  0  0  0  0
   10.9324    7.3436    3.3626 H   0  0  0  0  0  0  0  0  0  0  0  0
   11.6262    8.2700    4.6983 H   0  0  0  0  0  0  0  0  0  0  0  0
   10.0773    7.4494    4.8995 H   0  0  0  0  0  0  0  0  0  0  0  0
   10.3560    2.1901    2.4528 C   0  0  0  0  0  0  0  0  0  0  0  0
    9.8751    1.2356    2.5910 H   0  0  0  0  0  0  0  0  0  0  0  0
    9.7699    2.7231   12.1041 C   0  0  0  0  0  0  0  0  0  0  0  0
    9.4305    1.9226   12.7675 H   0  0  0  0  0  0  0  0  0  0  0  0
    8.8931    3.1093   11.5793 H   0  0  0  0  0  0  0  0  0  0  0  0
   10.5106    3.0612    3.5266 C   0  0  0  0  0  0  0  0  0  0  0  0
   10.4596    3.8129   12.9225 C   0  0  0  0  0  0  0  0  0  0  0  0
   10.8818    4.5791   12.2759 H   0  0  0  0  0  0  0  0  0  0  0  0
   11.2706    3.3845   13.5063 H   0  0  0  0  0  0  0  0  0  0  0  0
    9.7476    4.2753   13.6009 H   0  0  0  0  0  0  0  0  0  0  0  0
   11.8089    6.1423    4.9334 C   0  0  0  0  0  0  0  0  0  0  0  0
   12.8075    6.1132    4.4858 H   0  0  0  0  0  0  0  0  0  0  0  0
   11.9287    6.1742    6.0197 H   0  0  0  0  0  0  0  0  0  0  0  0
  1 11  1  0  0  0  0
  1  4  1  0  0  0  0
  1  5  1  0  0  0  0
  2  1  1  0  0  0  0
  3  2  1  0  0  0  0
  5  9  1  0  0  0  0
  6  7  1  0  0  0  0
  7  1  1  0  0  0  0
  8 21  1  0  0  0  0
  8 47  1  0  0  0  0
  9 21  1  0  0  0  0
 10 55  1  0  0  0  0
 10 33  1  0  0  0  0
 11 25  1  0  0  0  0
 12  1  1  0  0  0  0
 13 12  1  0  0  0  0
 14 33  2  0  0  0  0
 15  9  2  0  0  0  0
 15 19  1  0  0  0  0
 16 15  1  0  0  0  0
 17 22  1  0  0  0  0
 17 18  1  0  0  0  0
 19 20  1  0  0  0  0
 19 17  2  0  0  0  0
 21 22  2  0  0  0  0
 22 23  1  0  0  0  0
 24  5  1  6  0  0  0
 24  8  1  0  0  0  0
 25 26  1  1  0  0  0
 25 24  1  0  0  0  0
 26 27  1  0  0  0  0
 28 29  1  0  0  0  0
 28 26  2  0  0  0  0
 30 28  1  0  0  0  0
 31 30  1  0  0  0  0
 32 30  2  0  0  0  0
 32 11  1  0  0  0  0
 33 32  1  0  0  0  0
 34 50  1  0  0  0  0
 34 10  1  0  0  0  0
 35 34  2  0  0  0  0
 36 35  1  0  0  0  0
 37 45  1  0  0  0  0
 38 37  1  0  0  0  0
 39 37  2  0  0  0  0
 39 35  1  0  0  0  0
 40 39  1  0  0  0  0
 41 43  1  0  0  0  0
 41 44  1  0  0  0  0
 41 55  1  0  0  0  0
 42 41  1  0  0  0  0
 45 46  1  0  0  0  0
 45 50  2  0  0  0  0
 47 48  1  0  0  0  0
 47 51  1  0  0  0  0
 49 47  1  0  0  0  0
 50 14  1  0  0  0  0
 51 53  1  0  0  0  0
 51 54  1  0  0  0  0
 52 51  1  0  0  0  0
 55 57  1  0  0  0  0
 56 55  1  0  0  0  0
M  END
$$$$
