CSD_code = LAYTEN | q = 0 | S = 0 | Stoichiometry = C22H13BrMnN5O3 | MND = 6
 OpenBabel04212202063D

 45 50  0  0  1  0  0  0  0  0999 V2000
   14.6620    5.2081    9.6371 Mn  0  0  0  0  0  0  0  0  0  0  0  0
   16.1260    5.3457    8.6250 C   0  0  0  0  0  2  0  0  0  0  0  0
   17.0097    5.6043    7.9341 O   0  0  0  0  0  1  0  0  0  0  0  0
   13.9622    3.0325    8.7893 Br  0  0  0  0  0  0  0  0  0  0  0  0
   13.0614    5.0962   10.9104 N   0  0  0  0  0  0  0  0  0  0  0  0
   13.8429    6.0339    8.2904 C   0  0  0  0  0  2  0  0  0  0  0  0
   13.3969    6.5781    7.3806 O   0  0  0  0  0  1  0  0  0  0  0  0
   12.2527    4.5446   12.9051 N   0  0  0  0  0  0  0  0  0  0  0  0
   12.2138    4.1771   13.8406 H   0  0  0  0  0  0  0  0  0  0  0  0
   15.1593    6.7606   10.3304 C   0  0  0  0  0  2  0  0  0  0  0  0
   15.5145    7.7781   10.7321 O   0  0  0  0  0  1  0  0  0  0  0  0
   15.5314    4.1653   11.3659 N   0  0  0  0  0  0  0  0  0  0  0  0
   11.7161    5.3548   10.9071 C   0  0  0  0  0  0  0  0  0  0  0  0
   18.9720    3.7160   10.5217 N   0  0  0  0  0  0  0  0  0  0  0  0
   10.8816    5.8566    9.9112 C   0  0  0  0  0  0  0  0  0  0  0  0
   11.2723    6.1176    8.9409 H   0  0  0  0  0  0  0  0  0  0  0  0
   17.2952    2.9572    9.2516 N   0  0  0  0  0  0  0  0  0  0  0  0
   16.3668    2.6376    8.9953 H   0  0  0  0  0  0  0  0  0  0  0  0
    9.0340    5.6491   11.4692 C   0  0  0  0  0  0  0  0  0  0  0  0
    7.9789    5.7755   11.6574 H   0  0  0  0  0  0  0  0  0  0  0  0
    9.5454    5.9943   10.2141 C   0  0  0  0  0  0  0  0  0  0  0  0
    8.8705    6.3767    9.4643 H   0  0  0  0  0  0  0  0  0  0  0  0
   11.1887    5.0042   12.1711 C   0  0  0  0  0  0  0  0  0  0  0  0
    9.8422    5.1483   12.4684 C   0  0  0  0  0  0  0  0  0  0  0  0
    9.4482    4.8772   13.4355 H   0  0  0  0  0  0  0  0  0  0  0  0
   18.4266    2.8419    8.4980 C   0  0  0  0  0  0  0  0  0  0  0  0
   18.6518    2.3721    7.2124 C   0  0  0  0  0  0  0  0  0  0  0  0
   17.8423    2.0000    6.6040 H   0  0  0  0  0  0  0  0  0  0  0  0
   19.9504    2.4184    6.7544 C   0  0  0  0  0  0  0  0  0  0  0  0
   20.1725    2.0702    5.7567 H   0  0  0  0  0  0  0  0  0  0  0  0
   20.9950    2.9112    7.5467 C   0  0  0  0  0  0  0  0  0  0  0  0
   21.9936    2.9265    7.1356 H   0  0  0  0  0  0  0  0  0  0  0  0
   20.7821    3.3761    8.8241 C   0  0  0  0  0  0  0  0  0  0  0  0
   21.5838    3.7592    9.4346 H   0  0  0  0  0  0  0  0  0  0  0  0
   19.4768    3.3394    9.3116 C   0  0  0  0  0  0  0  0  0  0  0  0
   17.6810    3.4967   10.4498 C   0  0  0  0  0  0  0  0  0  0  0  0
   16.7811    3.7272   11.5675 C   0  0  2  0  0  3  0  0  0  0  0  0
   17.2689    3.4435   12.8479 C   0  0  0  0  0  0  0  0  0  0  0  0
   18.3019    3.1525   12.9411 H   0  0  0  0  0  0  0  0  0  0  0  0
   16.4248    3.5291   13.9358 C   0  0  0  0  0  0  0  0  0  0  0  0
   16.7790    3.3118   14.9315 H   0  0  0  0  0  0  0  0  0  0  0  0
   15.1008    3.8740   13.7183 C   0  0  0  0  0  0  0  0  0  0  0  0
   14.3987    3.9194   14.5358 H   0  0  0  0  0  0  0  0  0  0  0  0
   14.6986    4.1993   12.4263 C   0  0  0  0  0  0  0  0  0  0  0  0
   13.3511    4.6102   12.1036 C   0  0  1  0  0  3  0  0  0  0  0  0
  1 10  1  0  0  0  0
  1  5  1  0  0  0  0
  1 12  1  0  0  0  0
  2  1  1  0  0  0  0
  3  2  1  0  0  0  0
  4  1  1  0  0  0  0
  5 45  1  0  0  0  0
  6  1  1  0  0  0  0
  7  6  1  0  0  0  0
  8  9  1  0  0  0  0
 10 11  1  0  0  0  0
 12 37  1  0  0  0  0
 12 44  1  0  0  0  0
 13  5  1  0  0  0  0
 13 23  1  0  0  0  0
 15 21  1  0  0  0  0
 15 13  2  0  0  0  0
 16 15  1  0  0  0  0
 17 36  1  0  0  0  0
 18 17  1  0  0  0  0
 19 20  1  0  0  0  0
 19 24  1  0  0  0  0
 21 19  2  0  0  0  0
 22 21  1  0  0  0  0
 23 24  2  0  0  0  0
 23  8  1  0  0  0  0
 24 25  1  0  0  0  0
 26 17  1  0  0  0  0
 26 35  1  0  0  0  0
 27 26  2  0  0  0  0
 28 27  1  0  0  0  0
 29 27  1  0  0  0  0
 29 31  2  0  0  0  0
 30 29  1  0  0  0  0
 31 33  1  0  0  0  0
 32 31  1  0  0  0  0
 33 35  2  0  0  0  0
 33 34  1  0  0  0  0
 35 14  1  0  0  0  0
 36 14  2  0  0  0  0
 37 36  1  6  0  0  0
 37 38  1  0  0  0  0
 38 39  1  0  0  0  0
 38 40  2  0  0  0  0
 40 41  1  0  0  0  0
 42 40  1  0  0  0  0
 42 43  1  0  0  0  0
 44 42  2  0  0  0  0
 45 44  1  6  0  0  0
 45  8  1  0  0  0  0
M  END
$$$$
