CSD_code = LAYVAK | q = 0 | S = 0 | Stoichiometry = C24H24Cl2N4Ru | MND = 6
 OpenBabel04212202063D

 55 60  0  0  1  0  0  0  0  0999 V2000
    5.1940    2.2845    9.0922 Ru  0  0  0  0  0  0  0  0  0  0  0  0
    6.9754    1.9864   10.6219 Cl  0  0  0  0  0  0  0  0  0  0  0  0
    6.6413    2.3439    7.2209 Cl  0  0  0  0  0  0  0  0  0  0  0  0
    5.0814    0.3143    9.1957 N   0  0  0  0  0  0  0  0  0  0  0  0
    4.0393    2.1161   10.6725 N   0  0  0  0  0  0  0  0  0  0  0  0
    5.3477    4.2517    8.9860 N   0  0  0  0  0  0  0  0  0  0  0  0
    3.7698    2.6428    7.7877 N   0  0  0  0  0  0  0  0  0  0  0  0
    5.6420   -0.5438    8.3456 C   0  0  0  0  0  3  0  0  0  0  0  0
    6.0267   -0.1130    7.4285 H   0  0  0  0  0  0  0  0  0  0  0  0
    5.7593   -1.8906    8.6137 C   0  0  0  0  0  0  0  0  0  0  0  0
    6.2357   -2.5405    7.8967 H   0  0  0  0  0  0  0  0  0  0  0  0
    5.2782   -2.4010    9.8217 C   0  0  0  0  0  0  0  0  0  0  0  0
    4.6875   -1.5070   10.6986 C   0  0  0  0  0  0  0  0  0  0  0  0
    4.3129   -1.8555   11.6481 H   0  0  0  0  0  0  0  0  0  0  0  0
    4.6012   -0.1544   10.3710 C   0  0  0  0  0  0  0  0  0  0  0  0
    3.9911    0.8699   11.2048 C   0  0  2  0  0  3  0  0  0  0  0  0
    3.3712    0.6311   12.4306 C   0  0  0  0  0  0  0  0  0  0  0  0
    3.3586   -0.3677   12.8368 H   0  0  0  0  0  0  0  0  0  0  0  0
    2.7879    1.6672   13.1377 C   0  0  0  0  0  0  0  0  0  0  0  0
    2.8333    2.9393   12.5571 C   0  0  0  0  0  0  0  0  0  0  0  0
    2.3914    3.7850   13.0605 H   0  0  0  0  0  0  0  0  0  0  0  0
    3.4603    3.1122   11.3454 C   0  0  0  0  0  0  0  0  0  0  0  0
    3.5163    4.0930   10.8875 H   0  0  0  0  0  0  0  0  0  0  0  0
    5.4216   -3.8509   10.1535 C   0  0  0  0  0  0  0  0  0  0  0  0
    4.8106   -4.1196   11.0114 H   0  0  0  0  0  0  0  0  0  0  0  0
    6.4624   -4.0721   10.3892 H   0  0  0  0  0  0  0  0  0  0  0  0
    5.1356   -4.4681    9.3040 H   0  0  0  0  0  0  0  0  0  0  0  0
    2.1478    1.4551   14.4707 C   0  0  0  0  0  0  0  0  0  0  0  0
    1.1787    1.9489   14.5132 H   0  0  0  0  0  0  0  0  0  0  0  0
    2.7739    1.8842   15.2528 H   0  0  0  0  0  0  0  0  0  0  0  0
    2.0169    0.3965   14.6780 H   0  0  0  0  0  0  0  0  0  0  0  0
    6.1978    5.0044    9.6819 C   0  0  0  0  0  3  0  0  0  0  0  0
    6.7088    4.5049   10.4968 H   0  0  0  0  0  0  0  0  0  0  0  0
    6.4438    6.3263    9.3796 C   0  0  0  0  0  0  0  0  0  0  0  0
    7.1542    6.8870    9.9663 H   0  0  0  0  0  0  0  0  0  0  0  0
    5.7857    6.9249    8.3026 C   0  0  0  0  0  0  0  0  0  0  0  0
    4.8965    6.1412    7.5868 C   0  0  0  0  0  0  0  0  0  0  0  0
    4.3754    6.5588    6.7399 H   0  0  0  0  0  0  0  0  0  0  0  0
    4.6938    4.8076    7.9396 C   0  0  0  0  0  0  0  0  0  0  0  0
    3.7803    3.8956    7.2683 C   0  0  2  0  0  3  0  0  0  0  0  0
    2.9495    4.2439    6.2048 C   0  0  0  0  0  0  0  0  0  0  0  0
    2.9857    5.2443    5.8040 H   0  0  0  0  0  0  0  0  0  0  0  0
    2.0906    3.3126    5.6481 C   0  0  0  0  0  0  0  0  0  0  0  0
    2.0869    2.0331    6.2126 C   0  0  0  0  0  0  0  0  0  0  0  0
    1.4362    1.2658    5.8230 H   0  0  0  0  0  0  0  0  0  0  0  0
    2.9300    1.7496    7.2618 C   0  0  0  0  0  0  0  0  0  0  0  0
    2.9483    0.7600    7.7034 H   0  0  0  0  0  0  0  0  0  0  0  0
    6.0562    8.3470    7.9319 C   0  0  0  0  0  0  0  0  0  0  0  0
    6.0718    8.9777    8.8186 H   0  0  0  0  0  0  0  0  0  0  0  0
    5.3060    8.7218    7.2403 H   0  0  0  0  0  0  0  0  0  0  0  0
    7.0328    8.4219    7.4538 H   0  0  0  0  0  0  0  0  0  0  0  0
    1.2191    3.6436    4.4807 C   0  0  0  0  0  0  0  0  0  0  0  0
    1.0682    4.7169    4.3975 H   0  0  0  0  0  0  0  0  0  0  0  0
    0.2526    3.1521    4.5691 H   0  0  0  0  0  0  0  0  0  0  0  0
    1.6894    3.2937    3.5613 H   0  0  0  0  0  0  0  0  0  0  0  0
  1  4  1  0  0  0  0
  1  2  1  0  0  0  0
  1  5  1  0  0  0  0
  3  1  1  0  0  0  0
  4 15  1  0  0  0  0
  5 16  1  0  0  0  0
  5 22  1  0  0  0  0
  6  1  1  0  0  0  0
  6 32  1  0  0  0  0
  7  1  1  0  0  0  0
  8 10  1  0  0  0  0
  8  4  1  0  0  0  0
  9  8  1  0  0  0  0
 10 12  2  0  0  0  0
 11 10  1  0  0  0  0
 12 24  1  0  0  0  0
 12 13  1  0  0  0  0
 13 14  1  0  0  0  0
 15 13  2  0  0  0  0
 16 15  1  6  0  0  0
 16 17  1  0  0  0  0
 17 18  1  0  0  0  0
 17 19  2  0  0  0  0
 19 28  1  0  0  0  0
 20 21  1  0  0  0  0
 20 19  1  0  0  0  0
 22 20  2  0  0  0  0
 23 22  1  0  0  0  0
 24 26  1  0  0  0  0
 24 25  1  0  0  0  0
 27 24  1  0  0  0  0
 28 29  1  0  0  0  0
 28 31  1  0  0  0  0
 28 30  1  0  0  0  0
 32 33  1  0  0  0  0
 34 32  1  0  0  0  0
 34 35  1  0  0  0  0
 36 34  2  0  0  0  0
 37 39  2  0  0  0  0
 37 36  1  0  0  0  0
 38 37  1  0  0  0  0
 39  6  1  0  0  0  0
 40 41  1  1  0  0  0
 40  7  1  0  0  0  0
 40 39  1  0  0  0  0
 42 41  1  0  0  0  0
 43 41  2  0  0  0  0
 43 44  1  0  0  0  0
 44 46  2  0  0  0  0
 45 44  1  0  0  0  0
 46 47  1  0  0  0  0
 46  7  1  0  0  0  0
 48 36  1  0  0  0  0
 48 49  1  0  0  0  0
 50 48  1  0  0  0  0
 51 48  1  0  0  0  0
 52 54  1  0  0  0  0
 52 43  1  0  0  0  0
 53 52  1  0  0  0  0
 55 52  1  0  0  0  0
M  END
$$$$
