CSD_code = LEBJUA | q = 0 | S = 0 | Stoichiometry = C10H14Cl2N2O2PtS | MND = 4
 OpenBabel04212202063D

 32 33  0  0  1  0  0  0  0  0999 V2000
    1.0320    1.2847   12.8158 Pt  0  0  1  0  0  0  0  0  0  0  0  0
    1.4197    1.0385   15.0186 Cl  0  0  0  0  0  0  0  0  0  0  0  0
   -0.0027    3.1683   13.3869 S   0  0  0  0  0  0  0  0  0  0  0  0
    0.8557    0.3565    4.2066 Cl  0  0  0  0  0  0  0  0  0  0  0  0
    1.9649   -0.4058   12.2128 O   0  0  0  0  0  0  0  0  0  0  0  0
   -0.0541    0.5851    8.0734 C   0  0  0  0  0  0  0  0  0  0  0  0
   -0.9343    0.7480    8.6768 H   0  0  0  0  0  0  0  0  0  0  0  0
    1.2574    0.4152   10.1663 C   0  0  1  0  0  3  0  0  0  0  0  0
    2.3054    0.1598    7.9078 C   0  0  0  0  0  0  0  0  0  0  0  0
    3.2675    0.0222    8.3760 H   0  0  0  0  0  0  0  0  0  0  0  0
    1.8818   -0.5253   10.8524 N   0  0  0  0  0  0  0  0  0  0  0  0
    2.3727   -1.7890   10.3704 C   0  0  0  0  0  0  0  0  0  0  0  0
    3.4648   -1.7880   10.3442 H   0  0  0  0  0  0  0  0  0  0  0  0
    1.9759   -1.9996    9.3802 H   0  0  0  0  0  0  0  0  0  0  0  0
    2.0513   -2.5598   11.0725 H   0  0  0  0  0  0  0  0  0  0  0  0
    0.9775    0.3640    5.9277 C   0  0  0  0  0  0  0  0  0  0  0  0
    0.7241    1.4111   10.8496 N   0  0  0  0  0  0  0  0  0  0  0  0
    0.2988    2.1614   10.3239 H   0  0  0  0  0  0  0  0  0  0  0  0
    1.1735    0.3639    8.6936 C   0  0  0  0  0  0  0  0  0  0  0  0
    2.2110    0.1610    6.5290 C   0  0  0  0  0  0  0  0  0  0  0  0
    3.0884    0.0087    5.9208 H   0  0  0  0  0  0  0  0  0  0  0  0
   -0.1577    0.5780    6.6956 C   0  0  0  0  0  0  0  0  0  0  0  0
   -1.1105    0.7392    6.2173 H   0  0  0  0  0  0  0  0  0  0  0  0
   -0.5676    3.9137   12.2700 O   0  0  0  0  0  1  0  0  0  0  0  0
    1.0451    4.3088   14.3374 C   0  0  0  0  0  0  0  0  0  0  0  0
    1.4135    3.7611   15.1973 H   0  0  0  0  0  0  0  0  0  0  0  0
    0.4548    5.1707   14.6256 H   0  0  0  0  0  0  0  0  0  0  0  0
    1.8679    4.6147   13.7002 H   0  0  0  0  0  0  0  0  0  0  0  0
   -1.3220    2.9317   14.6141 C   0  0  0  0  0  0  0  0  0  0  0  0
   -2.0899    2.3125   14.1629 H   0  0  0  0  0  0  0  0  0  0  0  0
   -1.7306    3.8993   14.8807 H   0  0  0  0  0  0  0  0  0  0  0  0
   -0.8788    2.4276   15.4653 H   0  0  0  0  0  0  0  0  0  0  0  0
  1  3  1  0  0  0  0
  1  2  1  1  0  0  0
  3 25  1  0  0  0  0
  3 29  1  0  0  0  0
  4 16  1  0  0  0  0
  5  1  1  0  0  0  0
  6  7  1  0  0  0  0
  6 19  1  0  0  0  0
  8 19  1  6  0  0  0
  8 17  1  0  0  0  0
  8 11  1  0  0  0  0
  9 10  1  0  0  0  0
  9 19  2  0  0  0  0
 11  5  1  0  0  0  0
 12 11  1  0  0  0  0
 12 15  1  0  0  0  0
 13 12  1  0  0  0  0
 14 12  1  0  0  0  0
 16 20  2  0  0  0  0
 16 22  1  0  0  0  0
 17  1  1  0  0  0  0
 18 17  1  0  0  0  0
 20  9  1  0  0  0  0
 21 20  1  0  0  0  0
 22  6  2  0  0  0  0
 23 22  1  0  0  0  0
 24  3  1  0  0  0  0
 25 27  1  0  0  0  0
 25 26  1  0  0  0  0
 28 25  1  0  0  0  0
 29 31  1  0  0  0  0
 29 32  1  0  0  0  0
 30 29  1  0  0  0  0
M  END
$$$$
