CSD_code = LEBNIR | q = 1 | S = 0 | Stoichiometry = C10H18ClN4O2Zn(1+) | MND = 5
 OpenBabel04212202063D

 36 39  0  0  1  0  0  0  0  0999 V2000
    8.0258   11.9727   -0.0745 Zn  0  0  0  0  0  0  0  0  0  0  0  0
    8.4835    9.8780    0.4980 Cl  0  0  0  0  0  0  0  0  0  0  0  0
    7.5710   11.3191   -2.0542 O   0  0  0  0  0  0  0  0  0  0  0  0
    8.5352   13.0520    1.7160 O   0  0  0  0  0  0  0  0  0  0  0  0
    9.8712   11.9596   -0.8283 N   0  0  1  0  0  0  0  0  0  0  0  0
    8.5637    9.9546   -3.5303 N   0  0  0  0  0  0  0  0  0  0  0  0
    7.6716    9.6059   -3.8499 H   0  0  0  0  0  0  0  0  0  0  0  0
    9.4012    9.5465   -3.9096 H   0  0  0  0  0  0  0  0  0  0  0  0
    6.2453   12.5966    0.4324 N   0  0  2  0  0  0  0  0  0  0  0  0
    7.5540   14.0697    3.4546 N   0  0  0  0  0  0  0  0  0  0  0  0
    8.4223   14.0872    3.9699 H   0  0  0  0  0  0  0  0  0  0  0  0
    6.7293   14.4450    3.8915 H   0  0  0  0  0  0  0  0  0  0  0  0
   11.0954   11.8239   -0.1320 C   0  0  0  0  0  0  0  0  0  0  0  0
   11.4811   12.8264    0.0996 H   0  0  0  0  0  0  0  0  0  0  0  0
   10.9081   11.3634    0.8457 H   0  0  0  0  0  0  0  0  0  0  0  0
   12.0408   10.9827   -0.9995 C   0  0  0  0  0  0  0  0  0  0  0  0
   12.6284   10.2852   -0.4095 H   0  0  0  0  0  0  0  0  0  0  0  0
   12.7235   11.6297   -1.5522 H   0  0  0  0  0  0  0  0  0  0  0  0
   11.0824   10.2747   -1.9601 C   0  0  0  0  0  0  0  0  0  0  0  0
   11.5538   10.0214   -2.9063 H   0  0  0  0  0  0  0  0  0  0  0  0
   10.6747    9.3756   -1.4953 H   0  0  0  0  0  0  0  0  0  0  0  0
    9.9662   11.3224   -2.0928 C   0  0  1  0  0  0  0  0  0  0  0  0
   10.2610   12.0916   -2.8325 H   0  0  0  0  0  0  0  0  0  0  0  0
    8.5888   10.8513   -2.5512 C   0  0  1  0  0  3  0  0  0  0  0  0
    7.5327   13.5236    2.2432 C   0  0  1  0  0  3  0  0  0  0  0  0
    6.1951   13.5269    1.5095 C   0  0  2  0  0  0  0  0  0  0  0  0
    6.0968   14.5468    1.0921 H   0  0  0  0  0  0  0  0  0  0  0  0
    4.9412   13.1734    2.3276 C   0  0  0  0  0  0  0  0  0  0  0  0
    5.1773   12.3868    3.0464 H   0  0  0  0  0  0  0  0  0  0  0  0
    4.5188   14.0268    2.8523 H   0  0  0  0  0  0  0  0  0  0  0  0
    4.0105   12.6392    1.2370 C   0  0  0  0  0  0  0  0  0  0  0  0
    3.2629   11.9508    1.6217 H   0  0  0  0  0  0  0  0  0  0  0  0
    3.4995   13.4651    0.7408 H   0  0  0  0  0  0  0  0  0  0  0  0
    4.9843   11.9635    0.2666 C   0  0  0  0  0  0  0  0  0  0  0  0
    4.6792   12.0228   -0.7849 H   0  0  0  0  0  0  0  0  0  0  0  0
    5.0871   10.8892    0.4828 H   0  0  0  0  0  0  0  0  0  0  0  0
  1  9  1  0  0  0  0
  1  2  1  0  0  0  0
  1  4  1  0  0  0  0
  3  1  1  0  0  0  0
  4 25  1  0  0  0  0
  5 13  1  1  0  0  0
  5  1  1  0  0  0  0
  7  6  1  0  0  0  0
  8  6  1  0  0  0  0
  9 34  1  1  0  0  0
  9 26  1  0  0  0  0
 10 12  1  0  0  0  0
 10 11  1  0  0  0  0
 13 14  1  0  0  0  0
 13 15  1  0  0  0  0
 16 17  1  0  0  0  0
 16 13  1  0  0  0  0
 18 16  1  0  0  0  0
 19 21  1  0  0  0  0
 19 16  1  0  0  0  0
 20 19  1  0  0  0  0
 22 23  1  6  0  0  0
 22 19  1  0  0  0  0
 22  5  1  0  0  0  0
 24  6  1  6  0  0  0
 24 22  1  0  0  0  0
 24  3  1  0  0  0  0
 25 10  1  6  0  0  0
 26 27  1  6  0  0  0
 26 25  1  0  0  0  0
 26 28  1  0  0  0  0
 28 30  1  0  0  0  0
 28 29  1  0  0  0  0
 31 32  1  0  0  0  0
 31 28  1  0  0  0  0
 33 31  1  0  0  0  0
 34 36  1  0  0  0  0
 34 31  1  0  0  0  0
 35 34  1  0  0  0  0
M  END
$$$$
