CSD_code = LECCEC | q = 0 | S = 0 | Stoichiometry = C22H20BrMnN2O8 | MND = 5
 OpenBabel04212202063D

 54 60  0  0  1  0  0  0  0  0999 V2000
    4.2884    1.9066    3.1858 Br  0  0  0  0  0  0  0  0  0  0  0  0
    4.8250    4.1041    3.7865 Mn  0  0  0  0  0  0  0  0  0  0  0  0
    4.3547    4.7552    2.1019 O   0  0  0  0  0  0  0  0  0  0  0  0
    1.4501    5.0706    5.9047 O   0  0  0  0  0  0  0  0  0  0  0  0
    2.9291    6.9979    3.2550 O   0  0  0  0  0  0  0  0  0  0  0  0
    1.6797    6.0746    1.6358 O   0  0  0  0  0  0  0  0  0  0  0  0
    3.0578    4.4711    4.4720 N   0  0  1  0  0  0  0  0  0  0  0  0
    4.9039    4.5971    0.9372 C   0  0  0  0  0  0  0  0  0  0  0  0
    6.3176    4.4715    0.7737 C   0  0  0  0  0  0  0  0  0  0  0  0
    6.8843    4.4346   -0.5044 C   0  0  0  0  0  0  0  0  0  0  0  0
    6.0842    4.4619   -1.6207 C   0  0  0  0  0  0  0  0  0  0  0  0
    4.6976    4.5384   -1.4764 C   0  0  0  0  0  0  0  0  0  0  0  0
    4.1176    4.6165   -0.2349 C   0  0  0  0  0  0  0  0  0  0  0  0
    2.7199    4.6653    5.7079 C   0  0  2  0  0  3  0  0  0  0  0  0
    1.9346    4.8235    3.6227 C   0  0  1  0  0  0  0  0  0  0  0  0
    0.8120    5.1320    4.6392 C   0  0  0  0  0  0  0  0  0  0  0  0
    2.2841    6.0818    2.8218 C   0  0  0  0  0  0  0  0  0  0  0  0
    1.9002    7.2200    0.8190 C   0  0  0  0  0  0  0  0  0  0  0  0
    7.9581    4.3629   -0.5880 H   0  0  0  0  0  0  0  0  0  0  0  0
    6.5222    4.4136   -2.6054 H   0  0  0  0  0  0  0  0  0  0  0  0
    4.0709    4.5373   -2.3562 H   0  0  0  0  0  0  0  0  0  0  0  0
    3.0459    4.6664   -0.1195 H   0  0  0  0  0  0  0  0  0  0  0  0
    1.6931    4.0066    2.9354 H   0  0  0  0  0  0  0  0  0  0  0  0
    0.3872    6.1316    4.5103 H   0  0  0  0  0  0  0  0  0  0  0  0
    0.0110    4.3872    4.6110 H   0  0  0  0  0  0  0  0  0  0  0  0
    1.2998    7.0748   -0.0752 H   0  0  0  0  0  0  0  0  0  0  0  0
    2.9581    7.2992    0.5617 H   0  0  0  0  0  0  0  0  0  0  0  0
    1.5937    8.1255    1.3466 H   0  0  0  0  0  0  0  0  0  0  0  0
    5.3792    3.6440    5.5078 O   0  0  0  0  0  0  0  0  0  0  0  0
    8.3922    4.9401    1.9151 O   0  0  0  0  0  0  0  0  0  0  0  0
    5.8442    6.1012    4.6565 O   0  0  0  0  0  0  0  0  0  0  0  0
    7.8534    6.5396    5.5352 O   0  0  0  0  0  0  0  0  0  0  0  0
    6.6749    4.1892    3.1422 N   0  0  1  0  0  0  0  0  0  0  0  0
    4.8872    3.9531    6.6637 C   0  0  0  0  0  0  0  0  0  0  0  0
    3.5661    4.4580    6.8465 C   0  0  0  0  0  0  0  0  0  0  0  0
    3.0991    4.7499    8.1340 C   0  0  0  0  0  0  0  0  0  0  0  0
    3.9058    4.5788    9.2330 C   0  0  0  0  0  0  0  0  0  0  0  0
    5.2044    4.0951    9.0677 C   0  0  0  0  0  0  0  0  0  0  0  0
    5.6837    3.7854    7.8199 C   0  0  0  0  0  0  0  0  0  0  0  0
    7.1175    4.4923    1.9594 C   0  0  1  0  0  3  0  0  0  0  0  0
    7.6596    4.6295    4.1111 C   0  0  1  0  0  0  0  0  0  0  0  0
    8.8901    4.9625    3.2451 C   0  0  0  0  0  0  0  0  0  0  0  0
    7.0172    5.8358    4.8000 C   0  0  2  0  0  3  0  0  0  0  0  0
    7.2933    7.6515    6.2364 C   0  0  0  0  0  0  0  0  0  0  0  0
    2.0907    5.1197    8.2385 H   0  0  0  0  0  0  0  0  0  0  0  0
    3.5387    4.8132   10.2201 H   0  0  0  0  0  0  0  0  0  0  0  0
    5.8387    3.9590    9.9317 H   0  0  0  0  0  0  0  0  0  0  0  0
    6.6844    3.3994    7.6878 H   0  0  0  0  0  0  0  0  0  0  0  0
    7.8486    3.8581    4.8648 H   0  0  0  0  0  0  0  0  0  0  0  0
    9.3064    5.9508    3.4549 H   0  0  0  0  0  0  0  0  0  0  0  0
    9.6756    4.2068    3.3423 H   0  0  0  0  0  0  0  0  0  0  0  0
    8.1251    8.1366    6.7398 H   0  0  0  0  0  0  0  0  0  0  0  0
    6.5549    7.3016    6.9603 H   0  0  0  0  0  0  0  0  0  0  0  0
    6.8090    8.3356    5.5376 H   0  0  0  0  0  0  0  0  0  0  0  0
  1  2  1  0  0  0  0
  2  7  1  0  0  0  0
  2 31  1  0  0  0  0
  2 29  1  0  0  0  0
  3  2  1  0  0  0  0
  6 17  1  0  0  0  0
  7 14  1  0  0  0  0
  8  3  1  0  0  0  0
  9  8  1  0  0  0  0
  9 40  1  0  0  0  0
 10  9  2  0  0  0  0
 11 12  2  0  0  0  0
 11 10  1  0  0  0  0
 12 13  1  0  0  0  0
 13 22  1  0  0  0  0
 13  8  2  0  0  0  0
 14  4  1  0  0  0  0
 14 35  1  0  0  0  0
 15  7  1  0  0  0  0
 15 16  1  0  0  0  0
 16  4  1  0  0  0  0
 17  5  2  0  0  0  0
 17 15  1  0  0  0  0
 18 28  1  0  0  0  0
 18  6  1  0  0  0  0
 19 10  1  0  0  0  0
 20 11  1  0  0  0  0
 21 12  1  0  0  0  0
 23 15  1  0  0  0  0
 24 16  1  0  0  0  0
 25 16  1  0  0  0  0
 26 18  1  0  0  0  0
 27 18  1  0  0  0  0
 29 34  1  0  0  0  0
 30 40  1  0  0  0  0
 30 42  1  0  0  0  0
 31 43  1  0  0  0  0
 32 44  1  0  0  0  0
 33  2  1  0  0  0  0
 33 41  1  0  0  0  0
 34 35  2  0  0  0  0
 34 39  1  0  0  0  0
 35 36  1  0  0  0  0
 36 45  1  0  0  0  0
 36 37  2  0  0  0  0
 37 46  1  0  0  0  0
 38 37  1  0  0  0  0
 38 47  1  0  0  0  0
 39 38  2  0  0  0  0
 40 33  1  0  0  0  0
 41 43  1  0  0  0  0
 41 49  1  0  0  0  0
 42 51  1  0  0  0  0
 42 50  1  0  0  0  0
 42 41  1  0  0  0  0
 43 32  1  0  0  0  0
 44 52  1  0  0  0  0
 44 53  1  0  0  0  0
 48 39  1  0  0  0  0
 54 44  1  0  0  0  0
M  END
$$$$
