CSD_code = LECNEM | q = 1 | S = 0 | Stoichiometry = C8H14ClN2OPdS(1+) | MND = 4
 OpenBabel04212202063D

 28 29  0  0  1  0  0  0  0  0999 V2000
    1.2819    2.2416    3.6603 Pd  0  0  2  0  0  0  0  0  0  0  0  0
    1.4678    4.4217    3.2450 Cl  0  0  0  0  0  0  0  0  0  0  0  0
    1.5443    1.5760    1.7578 N   0  0  0  0  0  0  0  0  0  0  0  0
    1.1130    0.1194    3.9836 N   0  0  0  0  0  4  0  0  0  0  0  0
    1.8135    0.2640    1.6512 C   0  0  1  0  0  3  0  0  0  0  0  0
    1.9747   -0.3389    0.4125 C   0  0  0  0  0  0  0  0  0  0  0  0
    1.8585    0.4296   -0.7362 C   0  0  0  0  0  0  0  0  0  0  0  0
    1.5746    1.7807   -0.6107 C   0  0  0  0  0  0  0  0  0  0  0  0
    1.4219    2.3166    0.6572 C   0  0  0  0  0  0  0  0  0  0  0  0
    1.9559   -0.4999    2.9487 C   0  0  0  0  0  0  0  0  0  0  0  0
    1.0399    2.8364    5.7552 S   0  0  0  0  0  0  0  0  0  0  0  0
    0.9324    1.5956    6.5097 O   0  0  0  0  0  1  0  0  0  0  0  0
    2.3661    3.8339    6.4728 C   0  0  0  0  0  0  0  0  0  0  0  0
   -0.3966    3.8722    6.1179 C   0  0  0  0  0  0  0  0  0  0  0  0
    0.1361   -0.1600    3.8656 H   0  0  0  0  0  0  0  0  0  0  0  0
    1.3937   -0.1454    4.9300 H   0  0  0  0  0  0  0  0  0  0  0  0
    2.1910   -1.3936    0.3510 H   0  0  0  0  0  0  0  0  0  0  0  0
    1.9845   -0.0207   -1.7082 H   0  0  0  0  0  0  0  0  0  0  0  0
    1.4740    2.4130   -1.4773 H   0  0  0  0  0  0  0  0  0  0  0  0
    1.2047    3.3686    0.8013 H   0  0  0  0  0  0  0  0  0  0  0  0
    1.7114   -1.5578    2.7932 H   0  0  0  0  0  0  0  0  0  0  0  0
    3.0039   -0.4367    3.2708 H   0  0  0  0  0  0  0  0  0  0  0  0
    2.3856    4.7902    5.9613 H   0  0  0  0  0  0  0  0  0  0  0  0
    2.1737    3.9529    7.5336 H   0  0  0  0  0  0  0  0  0  0  0  0
    3.3049    3.3073    6.3232 H   0  0  0  0  0  0  0  0  0  0  0  0
   -0.4557    4.0299    7.1892 H   0  0  0  0  0  0  0  0  0  0  0  0
   -0.2750    4.8088    5.5836 H   0  0  0  0  0  0  0  0  0  0  0  0
   -1.2856    3.3525    5.7706 H   0  0  0  0  0  0  0  0  0  0  0  0
  1  2  1  6  0  0  0
  1  4  1  0  0  0  0
  1 11  1  0  0  0  0
  3  1  1  0  0  0  0
  4 16  1  0  0  0  0
  5  6  1  1  0  0  0
  5  3  1  0  0  0  0
  5 10  1  0  0  0  0
  7  8  1  0  0  0  0
  7  6  2  0  0  0  0
  8  9  2  0  0  0  0
  9 20  1  0  0  0  0
  9  3  1  0  0  0  0
 10 22  1  0  0  0  0
 10  4  1  0  0  0  0
 11 14  1  0  0  0  0
 11 13  1  0  0  0  0
 11 12  1  0  0  0  0
 13 24  1  0  0  0  0
 14 26  1  0  0  0  0
 15  4  1  0  0  0  0
 17  6  1  0  0  0  0
 18  7  1  0  0  0  0
 19  8  1  0  0  0  0
 21 10  1  0  0  0  0
 23 13  1  0  0  0  0
 25 13  1  0  0  0  0
 27 14  1  0  0  0  0
 28 14  1  0  0  0  0
M  END
$$$$
