CSD_code = LECRUI | q = 0 | S = 0 | Stoichiometry = C12H26Br2HgN2 | MND = 4
 OpenBabel04212202063D

 43 42  0  0  1  0  0  0  0  0999 V2000
    1.3045    1.6314    4.1386 Br  0  0  0  0  0  0  0  0  0  0  0  0
    4.4195    4.2807    6.6581 Br  0  0  0  0  0  0  0  0  0  0  0  0
    4.1488    1.0419    8.2542 C   0  0  0  0  0  0  0  0  0  0  0  0
    4.1631    0.3190    9.0758 H   0  0  0  0  0  0  0  0  0  0  0  0
    3.4877    1.8598    8.5454 H   0  0  0  0  0  0  0  0  0  0  0  0
    5.1464    1.4518    8.1137 H   0  0  0  0  0  0  0  0  0  0  0  0
    2.3634   -0.1796    7.2573 C   0  0  0  0  0  0  0  0  0  0  0  0
    2.4376   -0.9991    7.9813 H   0  0  0  0  0  0  0  0  0  0  0  0
    1.9469   -0.5666    6.3285 H   0  0  0  0  0  0  0  0  0  0  0  0
    1.6737    0.5631    7.6603 H   0  0  0  0  0  0  0  0  0  0  0  0
    4.6043   -0.5277    6.4103 C   0  0  2  0  0  0  0  0  0  0  0  0
    4.0099   -1.1358    5.7199 H   0  0  0  0  0  0  0  0  0  0  0  0
    5.2282   -1.4634    7.4582 C   0  0  0  0  0  0  0  0  0  0  0  0
    5.8360   -0.8828    8.1534 H   0  0  0  0  0  0  0  0  0  0  0  0
    4.4335   -1.9533    8.0238 H   0  0  0  0  0  0  0  0  0  0  0  0
    6.1241   -2.5166    6.8212 C   0  0  0  0  0  0  0  0  0  0  0  0
    6.5294   -3.1681    7.5973 H   0  0  0  0  0  0  0  0  0  0  0  0
    5.5470   -3.1355    6.1307 H   0  0  0  0  0  0  0  0  0  0  0  0
    7.2489   -1.8192    6.0711 C   0  0  0  0  0  0  0  0  0  0  0  0
    7.8451   -1.2263    6.7680 H   0  0  0  0  0  0  0  0  0  0  0  0
    7.9088   -2.5529    5.6047 H   0  0  0  0  0  0  0  0  0  0  0  0
    6.6497   -0.9211    4.9975 C   0  0  0  0  0  0  0  0  0  0  0  0
    6.0847   -1.5517    4.3098 H   0  0  0  0  0  0  0  0  0  0  0  0
    7.4532   -0.4403    4.4374 H   0  0  0  0  0  0  0  0  0  0  0  0
    5.7237    0.1551    5.5898 C   0  0  1  0  0  0  0  0  0  0  0  0
    6.3091    0.7740    6.2790 H   0  0  0  0  0  0  0  0  0  0  0  0
    4.6970    0.3787    3.3712 C   0  0  0  0  0  0  0  0  0  0  0  0
    5.5147   -0.0025    2.7512 H   0  0  0  0  0  0  0  0  0  0  0  0
    4.0996    1.0566    2.7640 H   0  0  0  0  0  0  0  0  0  0  0  0
    4.0535   -0.4461    3.6669 H   0  0  0  0  0  0  0  0  0  0  0  0
    6.2274    2.0548    4.1750 C   0  0  0  0  0  0  0  0  0  0  0  0
    7.0988    1.5424    3.7436 H   0  0  0  0  0  0  0  0  0  0  0  0
    6.5509    2.5693    5.0841 H   0  0  0  0  0  0  0  0  0  0  0  0
    5.7522    3.1062    3.1727 C   0  0  0  0  0  0  0  0  0  0  0  0
    5.6712    2.6713    2.1753 H   0  0  0  0  0  0  0  0  0  0  0  0
    4.7529    3.4705    3.4580 H   0  0  0  0  0  0  0  0  0  0  0  0
    6.7132    4.2877    3.1373 C   0  0  0  0  0  0  0  0  0  0  0  0
    6.7454    4.7803    4.1061 H   0  0  0  0  0  0  0  0  0  0  0  0
    6.3930    5.0127    2.3936 H   0  0  0  0  0  0  0  0  0  0  0  0
    7.7172    3.9541    2.8832 H   0  0  0  0  0  0  0  0  0  0  0  0
    3.1836    2.4971    5.4785 Hg  0  0  0  0  0  0  0  0  0  0  0  0
    3.6621    0.4498    7.0037 N   0  0  0  0  0  0  0  0  0  0  0  0
    5.1911    1.0819    4.5603 N   0  0  0  0  0  0  0  0  0  0  0  0
  1 41  1  0  0  0  0
  3  5  1  0  0  0  0
  3  4  1  0  0  0  0
  6  3  1  0  0  0  0
  7 10  1  0  0  0  0
  7  8  1  0  0  0  0
  9  7  1  0  0  0  0
 11 12  1  6  0  0  0
 11 42  1  0  0  0  0
 11 13  1  0  0  0  0
 13 15  1  0  0  0  0
 13 14  1  0  0  0  0
 16 13  1  0  0  0  0
 16 17  1  0  0  0  0
 18 16  1  0  0  0  0
 19 20  1  0  0  0  0
 19 16  1  0  0  0  0
 21 19  1  0  0  0  0
 22 25  1  0  0  0  0
 22 19  1  0  0  0  0
 23 22  1  0  0  0  0
 24 22  1  0  0  0  0
 25 26  1  1  0  0  0
 25 11  1  0  0  0  0
 27 30  1  0  0  0  0
 27 43  1  0  0  0  0
 28 27  1  0  0  0  0
 29 27  1  0  0  0  0
 31 43  1  0  0  0  0
 31 33  1  0  0  0  0
 32 31  1  0  0  0  0
 34 36  1  0  0  0  0
 34 31  1  0  0  0  0
 35 34  1  0  0  0  0
 37 34  1  0  0  0  0
 37 38  1  0  0  0  0
 39 37  1  0  0  0  0
 40 37  1  0  0  0  0
 41  2  1  0  0  0  0
 42  7  1  0  0  0  0
 42  3  1  0  0  0  0
 43 25  1  0  0  0  0
M  END
$$$$
