CSD_code = LECSIX | q = 0 | S = 0 | Stoichiometry = C12H26Br2N2Zn | MND = 4
 OpenBabel04212202063D

 43 44  0  0  1  0  0  0  0  0999 V2000
    1.3025   -2.6883    9.9758 Br  0  0  0  0  0  0  0  0  0  0  0  0
    3.2055    1.2786    9.4751 Br  0  0  0  0  0  0  0  0  0  0  0  0
    3.0341   -0.1072    6.3293 C   0  0  0  0  0  0  0  0  0  0  0  0
    3.9100   -0.3499    6.9305 H   0  0  0  0  0  0  0  0  0  0  0  0
    2.8364    0.9558    6.4455 H   0  0  0  0  0  0  0  0  0  0  0  0
    3.2754   -0.3210    5.2845 H   0  0  0  0  0  0  0  0  0  0  0  0
    2.1647   -2.3112    6.5295 C   0  0  0  0  0  0  0  0  0  0  0  0
    2.2460   -2.5084    5.4556 H   0  0  0  0  0  0  0  0  0  0  0  0
    1.3757   -2.9356    6.9454 H   0  0  0  0  0  0  0  0  0  0  0  0
    3.1043   -2.5968    7.0015 H   0  0  0  0  0  0  0  0  0  0  0  0
    0.6027   -0.4924    6.1942 C   0  0  2  0  0  0  0  0  0  0  0  0
   -0.0552   -1.3653    6.2689 H   0  0  0  0  0  0  0  0  0  0  0  0
    0.7213   -0.1193    4.7099 C   0  0  0  0  0  0  0  0  0  0  0  0
    1.3665    0.7526    4.5954 H   0  0  0  0  0  0  0  0  0  0  0  0
    1.1678   -0.9516    4.1622 H   0  0  0  0  0  0  0  0  0  0  0  0
   -0.6357    0.2195    4.1065 C   0  0  0  0  0  0  0  0  0  0  0  0
   -1.3043   -0.6417    4.1731 H   0  0  0  0  0  0  0  0  0  0  0  0
   -0.5120    0.4668    3.0510 H   0  0  0  0  0  0  0  0  0  0  0  0
   -1.2362    1.3978    4.8597 C   0  0  0  0  0  0  0  0  0  0  0  0
   -2.2092    1.6595    4.4411 H   0  0  0  0  0  0  0  0  0  0  0  0
   -0.5841    2.2684    4.7627 H   0  0  0  0  0  0  0  0  0  0  0  0
   -1.4006    1.0281    6.3286 C   0  0  0  0  0  0  0  0  0  0  0  0
   -1.8487    1.8660    6.8647 H   0  0  0  0  0  0  0  0  0  0  0  0
   -2.0835    0.1794    6.3886 H   0  0  0  0  0  0  0  0  0  0  0  0
   -0.0587    0.6610    6.9799 C   0  0  1  0  0  0  0  0  0  0  0  0
    0.6063    1.5306    6.9190 H   0  0  0  0  0  0  0  0  0  0  0  0
   -1.2747   -0.5989    8.7042 C   0  0  0  0  0  0  0  0  0  0  0  0
   -2.2520   -0.1138    8.6319 H   0  0  0  0  0  0  0  0  0  0  0  0
   -1.1653   -0.9976    9.7102 H   0  0  0  0  0  0  0  0  0  0  0  0
   -1.2397   -1.4414    8.0178 H   0  0  0  0  0  0  0  0  0  0  0  0
   -0.3695    1.5654    9.2142 C   0  0  0  0  0  0  0  0  0  0  0  0
   -1.3179    2.0509    8.9490 H   0  0  0  0  0  0  0  0  0  0  0  0
    0.4436    2.2524    8.9661 H   0  0  0  0  0  0  0  0  0  0  0  0
   -0.3500    1.3258   10.7235 C   0  0  0  0  0  0  0  0  0  0  0  0
    0.4577    0.6298   10.9798 H   0  0  0  0  0  0  0  0  0  0  0  0
   -1.2896    0.8781   11.0512 H   0  0  0  0  0  0  0  0  0  0  0  0
   -0.1222    2.6347   11.4696 C   0  0  0  0  0  0  0  0  0  0  0  0
    0.8507    3.0503   11.2167 H   0  0  0  0  0  0  0  0  0  0  0  0
   -0.1543    2.4652   12.5424 H   0  0  0  0  0  0  0  0  0  0  0  0
   -0.8902    3.3614   11.2115 H   0  0  0  0  0  0  0  0  0  0  0  0
    1.8928   -0.8976    6.8031 N   0  0  0  0  0  4  0  0  0  0  0  0
   -0.1804    0.3367    8.4231 N   0  0  0  0  0  4  0  0  0  0  0  0
    1.7681   -0.5651    9.0239 Zn  0  0  0  0  0  0  0  0  0  0  0  0
  3  5  1  0  0  0  0
  3 41  1  0  0  0  0
  3  4  1  0  0  0  0
  6  3  1  0  0  0  0
  7 41  1  0  0  0  0
  7  9  1  0  0  0  0
  7 10  1  0  0  0  0
  8  7  1  0  0  0  0
 11 12  1  1  0  0  0
 11 41  1  0  0  0  0
 11 25  1  0  0  0  0
 13 11  1  0  0  0  0
 14 13  1  0  0  0  0
 15 13  1  0  0  0  0
 16 17  1  0  0  0  0
 16 13  1  0  0  0  0
 16 19  1  0  0  0  0
 18 16  1  0  0  0  0
 19 22  1  0  0  0  0
 20 19  1  0  0  0  0
 21 19  1  0  0  0  0
 22 24  1  0  0  0  0
 22 23  1  0  0  0  0
 22 25  1  0  0  0  0
 25 26  1  6  0  0  0
 25 42  1  0  0  0  0
 27 29  1  0  0  0  0
 28 27  1  0  0  0  0
 30 27  1  0  0  0  0
 31 34  1  0  0  0  0
 32 31  1  0  0  0  0
 33 31  1  0  0  0  0
 34 35  1  0  0  0  0
 34 36  1  0  0  0  0
 34 37  1  0  0  0  0
 37 39  1  0  0  0  0
 38 37  1  0  0  0  0
 40 37  1  0  0  0  0
 41 43  1  0  0  0  0
 42 27  1  0  0  0  0
 42 43  1  0  0  0  0
 42 31  1  0  0  0  0
 43  2  1  0  0  0  0
 43  1  1  0  0  0  0
M  END
$$$$
