CSD_code = LECSUJ | q = 0 | S = 0 | Stoichiometry = C12H26Br2N2Zn | MND = 4
 OpenBabel04212202063D

 43 44  0  0  1  0  0  0  0  0999 V2000
   -2.4104   12.8285    2.7983 Br  0  0  0  0  0  0  0  0  0  0  0  0
   -2.2468    8.4122    2.6238 Br  0  0  0  0  0  0  0  0  0  0  0  0
    0.1400   12.0178    4.9792 C   0  0  0  0  0  0  0  0  0  0  0  0
   -0.8819   12.2582    5.2622 H   0  0  0  0  0  0  0  0  0  0  0  0
    0.4756   12.7943    4.2958 H   0  0  0  0  0  0  0  0  0  0  0  0
    0.7584   12.0349    5.8808 H   0  0  0  0  0  0  0  0  0  0  0  0
   -0.0752    9.6444    5.3064 C   0  0  0  0  0  0  0  0  0  0  0  0
    0.7353    9.6139    6.0469 H   0  0  0  0  0  0  0  0  0  0  0  0
   -0.0842    8.6909    4.7719 H   0  0  0  0  0  0  0  0  0  0  0  0
   -1.4011    9.7998    6.0392 C   0  0  0  0  0  0  0  0  0  0  0  0
   -1.3711   10.6051    6.7681 H   0  0  0  0  0  0  0  0  0  0  0  0
   -1.6244    8.8735    6.5620 H   0  0  0  0  0  0  0  0  0  0  0  0
   -2.2170    9.9913    5.3418 H   0  0  0  0  0  0  0  0  0  0  0  0
    1.4623   10.4619    3.6184 C   0  0  2  0  0  0  0  0  0  0  0  0
    1.5235    9.3781    3.4658 H   0  0  0  0  0  0  0  0  0  0  0  0
    2.6862   10.8974    4.4391 C   0  0  0  0  0  0  0  0  0  0  0  0
    2.6507   11.9730    4.6151 H   0  0  0  0  0  0  0  0  0  0  0  0
    2.6724   10.3922    5.4065 H   0  0  0  0  0  0  0  0  0  0  0  0
    3.9930   10.5871    3.7212 C   0  0  0  0  0  0  0  0  0  0  0  0
    4.8323   10.8971    4.3457 H   0  0  0  0  0  0  0  0  0  0  0  0
    4.0829    9.5127    3.5468 H   0  0  0  0  0  0  0  0  0  0  0  0
    4.0160   11.3285    2.3926 C   0  0  0  0  0  0  0  0  0  0  0  0
    4.9484   11.1304    1.8618 H   0  0  0  0  0  0  0  0  0  0  0  0
    3.9519   12.4045    2.5683 H   0  0  0  0  0  0  0  0  0  0  0  0
    2.8414   10.8623    1.5426 C   0  0  0  0  0  0  0  0  0  0  0  0
    2.9595    9.7920    1.3698 H   0  0  0  0  0  0  0  0  0  0  0  0
    2.8665   11.3693    0.5765 H   0  0  0  0  0  0  0  0  0  0  0  0
    1.4927   11.1336    2.2273 C   0  0  1  0  0  0  0  0  0  0  0  0
    1.3963   12.2152    2.3775 H   0  0  0  0  0  0  0  0  0  0  0  0
    0.5152    9.4085    0.7814 C   0  0  0  0  0  0  0  0  0  0  0  0
    1.2246    9.4453   -0.0499 H   0  0  0  0  0  0  0  0  0  0  0  0
   -0.4363    9.0438    0.4021 H   0  0  0  0  0  0  0  0  0  0  0  0
    0.8626    8.6909    1.5209 H   0  0  0  0  0  0  0  0  0  0  0  0
    0.0722   11.7319    0.3523 C   0  0  0  0  0  0  0  0  0  0  0  0
    0.9418   11.8215   -0.3125 H   0  0  0  0  0  0  0  0  0  0  0  0
   -0.0794   12.6950    0.8464 H   0  0  0  0  0  0  0  0  0  0  0  0
   -1.1569   11.4227   -0.4922 C   0  0  0  0  0  0  0  0  0  0  0  0
   -0.9838   10.5953   -1.1749 H   0  0  0  0  0  0  0  0  0  0  0  0
   -1.4111   12.3021   -1.0780 H   0  0  0  0  0  0  0  0  0  0  0  0
   -2.0163   11.1829    0.1348 H   0  0  0  0  0  0  0  0  0  0  0  0
    0.1767   10.7089    4.3173 N   0  0  0  0  0  4  0  0  0  0  0  0
    0.3307   10.7263    1.3994 N   0  0  0  0  0  4  0  0  0  0  0  0
   -1.4389   10.6506    2.7662 Zn  0  0  0  0  0  0  0  0  0  0  0  0
  2 43  1  0  0  0  0
  3  4  1  0  0  0  0
  3  6  1  0  0  0  0
  5  3  1  0  0  0  0
  7 10  1  0  0  0  0
  7  8  1  0  0  0  0
  9  7  1  0  0  0  0
 10 12  1  0  0  0  0
 10 11  1  0  0  0  0
 13 10  1  0  0  0  0
 14 15  1  6  0  0  0
 14 41  1  0  0  0  0
 14 16  1  0  0  0  0
 16 17  1  0  0  0  0
 16 18  1  0  0  0  0
 19 20  1  0  0  0  0
 19 16  1  0  0  0  0
 21 19  1  0  0  0  0
 22 24  1  0  0  0  0
 22 19  1  0  0  0  0
 23 22  1  0  0  0  0
 25 28  1  0  0  0  0
 25 22  1  0  0  0  0
 26 25  1  0  0  0  0
 27 25  1  0  0  0  0
 28 29  1  1  0  0  0
 28 14  1  0  0  0  0
 30 42  1  0  0  0  0
 30 33  1  0  0  0  0
 31 30  1  0  0  0  0
 32 30  1  0  0  0  0
 34 36  1  0  0  0  0
 34 42  1  0  0  0  0
 35 34  1  0  0  0  0
 37 40  1  0  0  0  0
 37 34  1  0  0  0  0
 38 37  1  0  0  0  0
 39 37  1  0  0  0  0
 41  3  1  0  0  0  0
 41  7  1  0  0  0  0
 42 28  1  0  0  0  0
 42 43  1  0  0  0  0
 43  1  1  0  0  0  0
 43 41  1  0  0  0  0
M  END
$$$$
