CSD_code = LECXEX | q = 0 | S = 0 | Stoichiometry = C16H18Cl2N6Ni | MND = 6
 OpenBabel04212202063D

 43 44  0  0  0  0  0  0  0  0999 V2000
    3.8953   11.8572    5.3007 Ni  0  0  0  0  0  0  0  0  0  0  0  0
    5.7241   13.0306    4.8833 Cl  0  0  0  0  0  0  0  0  0  0  0  0
    2.0858   10.5975    5.5503 Cl  0  0  0  0  0  0  0  0  0  0  0  0
    3.7419   12.7003    7.5599 N   0  0  0  0  0  0  0  0  0  0  0  0
    4.7393   13.3906    8.1007 C   0  0  0  0  0  0  0  0  0  0  0  0
    5.6098   13.5391    7.4747 H   0  0  0  0  0  0  0  0  0  0  0  0
    4.6925   13.9069    9.3856 C   0  0  0  0  0  0  0  0  0  0  0  0
    5.5307   14.4616    9.7783 H   0  0  0  0  0  0  0  0  0  0  0  0
    3.5543   13.6958   10.1461 C   0  0  0  0  0  0  0  0  0  0  0  0
    3.4811   14.0834   11.1523 H   0  0  0  0  0  0  0  0  0  0  0  0
    2.5120   12.9757    9.5859 C   0  0  0  0  0  0  0  0  0  0  0  0
    1.6053   12.7847   10.1389 H   0  0  0  0  0  0  0  0  0  0  0  0
    2.6524   12.4996    8.2924 C   0  0  0  0  0  0  0  0  0  0  0  0
    1.8621   11.9283    7.8224 H   0  0  0  0  0  0  0  0  0  0  0  0
    4.0324   11.0231    2.9993 N   0  0  0  0  0  0  0  0  0  0  0  0
    3.6552    9.7886    2.6889 C   0  0  0  0  0  0  0  0  0  0  0  0
    3.3265    9.1683    3.5123 H   0  0  0  0  0  0  0  0  0  0  0  0
    3.6573    9.2990    1.3928 C   0  0  0  0  0  0  0  0  0  0  0  0
    3.3415    8.2866    1.1944 H   0  0  0  0  0  0  0  0  0  0  0  0
    4.0690   10.1349    0.3679 C   0  0  0  0  0  0  0  0  0  0  0  0
    4.0823    9.7895   -0.6561 H   0  0  0  0  0  0  0  0  0  0  0  0
    4.4636   11.4237    0.6868 C   0  0  0  0  0  0  0  0  0  0  0  0
    4.7934   12.1113   -0.0766 H   0  0  0  0  0  0  0  0  0  0  0  0
    4.4297   11.8195    2.0140 C   0  0  0  0  0  0  0  0  0  0  0  0
    4.7451   12.8136    2.3025 H   0  0  0  0  0  0  0  0  0  0  0  0
    2.8216   13.2983    4.7092 N   0  0  0  0  0  0  0  0  0  0  0  0
    1.5531   13.0994    4.3571 N   0  0  0  0  0  0  0  0  0  0  0  0
    1.1744   12.1563    4.5153 H   0  0  0  0  0  0  0  0  0  0  0  0
    0.9727   14.2364    3.9613 C   0  0  0  0  0  3  0  0  0  0  0  0
   -0.0500   14.2706    3.6443 H   0  0  0  0  0  0  0  0  0  0  0  0
    1.9247   15.2285    4.0517 C   0  0  0  0  0  0  0  0  0  0  0  0
    1.8180   16.2658    3.8114 H   0  0  0  0  0  0  0  0  0  0  0  0
    3.0685   14.5885    4.5294 C   0  0  0  0  0  0  0  0  0  0  0  0
    4.0300   15.0172    4.7339 H   0  0  0  0  0  0  0  0  0  0  0  0
    4.9645   10.4234    5.8939 N   0  0  0  0  0  0  0  0  0  0  0  0
    6.2369   10.3240    5.5149 N   0  0  0  0  0  0  0  0  0  0  0  0
    6.6324   11.1270    5.0125 H   0  0  0  0  0  0  0  0  0  0  0  0
    6.8114    9.2279    6.0213 C   0  0  0  0  0  3  0  0  0  0  0  0
    7.8363    8.9835    5.8280 H   0  0  0  0  0  0  0  0  0  0  0  0
    5.8499    8.5717    6.7581 C   0  0  0  0  0  0  0  0  0  0  0  0
    5.9493    7.6541    7.2996 H   0  0  0  0  0  0  0  0  0  0  0  0
    4.7074    9.3656    6.6497 C   0  0  0  0  0  0  0  0  0  0  0  0
    3.7398    9.1964    7.0804 H   0  0  0  0  0  0  0  0  0  0  0  0
  1  3  1  0  0  0  0
  1 35  1  0  0  0  0
  2  1  1  0  0  0  0
  4  5  2  0  0  0  0
  4 13  1  0  0  0  0
  5  7  1  0  0  0  0
  6  5  1  0  0  0  0
  7  8  1  0  0  0  0
  7  9  2  0  0  0  0
  9 10  1  0  0  0  0
 11 12  1  0  0  0  0
 11  9  1  0  0  0  0
 13 11  2  0  0  0  0
 14 13  1  0  0  0  0
 16 15  1  0  0  0  0
 16 17  1  0  0  0  0
 18 16  2  0  0  0  0
 19 18  1  0  0  0  0
 20 22  2  0  0  0  0
 20 18  1  0  0  0  0
 21 20  1  0  0  0  0
 22 24  1  0  0  0  0
 23 22  1  0  0  0  0
 24 25  1  0  0  0  0
 24 15  2  0  0  0  0
 26  1  1  0  0  0  0
 27 28  1  0  0  0  0
 27 26  1  0  0  0  0
 29 31  1  0  0  0  0
 29 27  1  0  0  0  0
 30 29  1  0  0  0  0
 31 33  2  0  0  0  0
 32 31  1  0  0  0  0
 33 26  1  0  0  0  0
 33 34  1  0  0  0  0
 35 42  1  0  0  0  0
 36 35  1  0  0  0  0
 36 38  1  0  0  0  0
 37 36  1  0  0  0  0
 38 40  1  0  0  0  0
 39 38  1  0  0  0  0
 40 41  1  0  0  0  0
 42 40  2  0  0  0  0
 42 43  1  0  0  0  0
M  END
$$$$
