CSD_code = LEDJAH | q = 0 | S = 0 | Stoichiometry = C31H26ClCuN3P | MND = 4
 OpenBabel04212202063D

 63 69  0  0  1  0  0  0  0  0999 V2000
    4.7417    8.4742    0.9879 Cu  0  0  1  0  0  0  0  0  0  0  0  0
    3.5809    9.4346   -0.5612 Cl  0  0  0  0  0  0  0  0  0  0  0  0
    4.5523    9.5383    3.0164 P   0  0  0  0  0  4  0  0  0  0  0  0
    3.9281    6.6439    1.9425 N   0  0  0  0  0  0  0  0  0  0  0  0
    6.3885    7.4733    1.2855 N   0  0  0  0  0  0  0  0  0  0  0  0
    7.4488    5.9292    2.4836 N   0  0  0  0  0  0  0  0  0  0  0  0
    7.5942    5.1375    3.0852 H   0  0  0  0  0  0  0  0  0  0  0  0
    1.6155    7.2379    1.7149 C   0  0  0  0  0  0  0  0  0  0  0  0
    1.9900    7.8102    0.8677 H   0  0  0  0  0  0  0  0  0  0  0  0
    1.3539    7.9462    2.5019 H   0  0  0  0  0  0  0  0  0  0  0  0
    0.7187    6.6934    1.4310 H   0  0  0  0  0  0  0  0  0  0  0  0
    2.6749    6.3115    2.2065 C   0  0  2  0  0  3  0  0  0  0  0  0
    2.3774    5.1620    2.9373 C   0  0  0  0  0  0  0  0  0  0  0  0
    1.3510    4.9107    3.1541 H   0  0  0  0  0  0  0  0  0  0  0  0
    3.4134    4.3528    3.3798 C   0  0  0  0  0  0  0  0  0  0  0  0
    3.2026    3.4564    3.9444 H   0  0  0  0  0  0  0  0  0  0  0  0
    4.7190    4.7016    3.0914 C   0  0  0  0  0  0  0  0  0  0  0  0
    5.5413    4.0829    3.4154 H   0  0  0  0  0  0  0  0  0  0  0  0
    4.9419    5.8722    2.3639 C   0  0  0  0  0  0  0  0  0  0  0  0
    6.2411    6.3931    2.0364 C   0  0  1  0  0  3  0  0  0  0  0  0
    8.4126    6.7865    2.0198 C   0  0  0  0  0  0  0  0  0  0  0  0
    9.7883    6.8321    2.1817 C   0  0  0  0  0  0  0  0  0  0  0  0
   10.3125    6.0901    2.7647 H   0  0  0  0  0  0  0  0  0  0  0  0
   10.4564    7.8736    1.5676 C   0  0  0  0  0  0  0  0  0  0  0  0
   11.5285    7.9455    1.6725 H   0  0  0  0  0  0  0  0  0  0  0  0
    9.7826    8.8369    0.8132 C   0  0  0  0  0  0  0  0  0  0  0  0
   10.3521    9.6299    0.3532 H   0  0  0  0  0  0  0  0  0  0  0  0
    8.4145    8.7975    0.6435 C   0  0  0  0  0  0  0  0  0  0  0  0
    7.8844    9.5336    0.0620 H   0  0  0  0  0  0  0  0  0  0  0  0
    7.7241    7.7606    1.2599 C   0  0  0  0  0  0  0  0  0  0  0  0
    4.7863    8.4305    4.4246 C   0  0  0  0  0  0  0  0  0  0  0  0
    6.0583    7.9198    4.6858 C   0  0  0  0  0  0  0  0  0  0  0  0
    6.9161    8.3482    4.1826 H   0  0  0  0  0  0  0  0  0  0  0  0
    6.2238    6.8887    5.5910 C   0  0  0  0  0  0  0  0  0  0  0  0
    7.2154    6.5107    5.7995 H   0  0  0  0  0  0  0  0  0  0  0  0
    5.1244    6.3369    6.2283 C   0  0  0  0  0  0  0  0  0  0  0  0
    5.2547    5.5271    6.9309 H   0  0  0  0  0  0  0  0  0  0  0  0
    3.8548    6.8269    5.9612 C   0  0  0  0  0  0  0  0  0  0  0  0
    2.9958    6.3947    6.4538 H   0  0  0  0  0  0  0  0  0  0  0  0
    3.6841    7.8586    5.0601 C   0  0  0  0  0  0  0  0  0  0  0  0
    2.6932    8.2326    4.8406 H   0  0  0  0  0  0  0  0  0  0  0  0
    5.9203   10.7334    3.1432 C   0  0  0  0  0  0  0  0  0  0  0  0
    6.5388   11.0912    4.3360 C   0  0  0  0  0  0  0  0  0  0  0  0
    6.2226   10.6443    5.2686 H   0  0  0  0  0  0  0  0  0  0  0  0
    7.5680   12.0151    4.3233 C   0  0  0  0  0  0  0  0  0  0  0  0
    8.0529   12.2896    5.2493 H   0  0  0  0  0  0  0  0  0  0  0  0
    7.9763   12.5912    3.1308 C   0  0  0  0  0  0  0  0  0  0  0  0
    8.7823   13.3103    3.1297 H   0  0  0  0  0  0  0  0  0  0  0  0
    7.3515   12.2474    1.9430 C   0  0  0  0  0  0  0  0  0  0  0  0
    7.6652   12.7017    1.0148 H   0  0  0  0  0  0  0  0  0  0  0  0
    6.3264   11.3200    1.9481 C   0  0  0  0  0  0  0  0  0  0  0  0
    5.8254   11.0342    1.0306 H   0  0  0  0  0  0  0  0  0  0  0  0
    3.1449   10.5994    3.4735 C   0  0  0  0  0  0  0  0  0  0  0  0
    2.9256   11.0505    4.7717 C   0  0  0  0  0  0  0  0  0  0  0  0
    3.5871   10.7461    5.5712 H   0  0  0  0  0  0  0  0  0  0  0  0
    1.8538   11.8836    5.0319 C   0  0  0  0  0  0  0  0  0  0  0  0
    1.6783   12.2336    6.0393 H   0  0  0  0  0  0  0  0  0  0  0  0
    1.0076   12.2738    4.0047 C   0  0  0  0  0  0  0  0  0  0  0  0
    0.1731   12.9264    4.2168 H   0  0  0  0  0  0  0  0  0  0  0  0
    1.2316   11.8314    2.7114 C   0  0  0  0  0  0  0  0  0  0  0  0
    0.5733   12.1360    1.9116 H   0  0  0  0  0  0  0  0  0  0  0  0
    2.2992   10.9932    2.4406 C   0  0  0  0  0  0  0  0  0  0  0  0
    2.4860   10.6376    1.4344 H   0  0  0  0  0  0  0  0  0  0  0  0
  1  2  1  6  0  0  0
  1  5  1  0  0  0  0
  1  4  1  0  0  0  0
  1  3  1  0  0  0  0
  3 42  1  0  0  0  0
  3 53  1  0  0  0  0
  3 31  1  0  0  0  0
  4 12  1  0  0  0  0
  4 19  1  0  0  0  0
  5 20  1  0  0  0  0
  6  7  1  0  0  0  0
  8 10  1  0  0  0  0
  9  8  1  0  0  0  0
 11  8  1  0  0  0  0
 12  8  1  1  0  0  0
 12 13  1  0  0  0  0
 13 14  1  0  0  0  0
 13 15  2  0  0  0  0
 15 16  1  0  0  0  0
 17 15  1  0  0  0  0
 17 18  1  0  0  0  0
 19 17  2  0  0  0  0
 20 19  1  1  0  0  0
 20  6  1  0  0  0  0
 21 22  1  0  0  0  0
 21  6  1  0  0  0  0
 22 23  1  0  0  0  0
 24 25  1  0  0  0  0
 24 22  2  0  0  0  0
 26 24  1  0  0  0  0
 27 26  1  0  0  0  0
 28 26  2  0  0  0  0
 28 30  1  0  0  0  0
 29 28  1  0  0  0  0
 30  5  1  0  0  0  0
 30 21  2  0  0  0  0
 31 32  2  0  0  0  0
 31 40  1  0  0  0  0
 32 34  1  0  0  0  0
 33 32  1  0  0  0  0
 34 35  1  0  0  0  0
 34 36  2  0  0  0  0
 36 37  1  0  0  0  0
 38 36  1  0  0  0  0
 38 39  1  0  0  0  0
 40 38  2  0  0  0  0
 41 40  1  0  0  0  0
 42 43  1  0  0  0  0
 43 44  1  0  0  0  0
 45 43  2  0  0  0  0
 45 46  1  0  0  0  0
 47 45  1  0  0  0  0
 48 47  1  0  0  0  0
 49 51  1  0  0  0  0
 49 47  2  0  0  0  0
 50 49  1  0  0  0  0
 51 42  2  0  0  0  0
 52 51  1  0  0  0  0
 53 54  1  0  0  0  0
 54 56  2  0  0  0  0
 54 55  1  0  0  0  0
 56 57  1  0  0  0  0
 58 59  1  0  0  0  0
 58 56  1  0  0  0  0
 60 58  2  0  0  0  0
 61 60  1  0  0  0  0
 62 60  1  0  0  0  0
 62 53  2  0  0  0  0
 63 62  1  0  0  0  0
M  END
$$$$
