CSD_code = LEDJEJ | q = 0 | S = 0 | Stoichiometry = C9H13ClN2O3Pd | MND = 4
 OpenBabel04212202063D

 29 29  0  0  0  0  0  0  0  0999 V2000
    0.1232   11.6750    6.7503 Pd  0  0  0  0  0  0  0  0  0  0  0  0
    1.3728   10.6741    5.1402 Cl  0  0  0  0  0  0  0  0  0  0  0  0
   -0.5582    9.6007    7.5679 O   0  0  0  0  0  0  0  0  0  0  0  0
   -0.0116   14.0389    5.7520 O   0  0  0  0  0  0  0  0  0  0  0  0
    1.7162   13.6340    7.0080 O   0  0  0  0  0  0  0  0  0  0  0  0
   -1.3662   12.2918    8.1843 N   0  0  0  0  0  0  0  0  0  0  0  0
    0.7040   13.3331    6.4195 N   0  0  0  0  0  0  0  0  0  0  0  0
   -2.4739   12.9240    7.8088 C   0  0  0  0  0  3  0  0  0  0  0  0
   -3.6540   12.8264    8.5270 C   0  0  0  0  0  0  0  0  0  0  0  0
   -3.6724   12.0387    9.6681 C   0  0  0  0  0  0  0  0  0  0  0  0
   -2.5151   11.3787   10.0500 C   0  0  0  0  0  0  0  0  0  0  0  0
   -1.3696   11.5227    9.2788 C   0  0  0  0  0  0  0  0  0  0  0  0
   -0.0692   10.8430    9.5972 C   0  0  0  0  0  0  0  0  0  0  0  0
    0.1117    9.4941    8.8351 C   0  0  0  0  0  0  0  0  0  0  0  0
   -0.5205    8.3407    9.6180 C   0  0  0  0  0  0  0  0  0  0  0  0
    1.6054    9.2634    8.5974 C   0  0  0  0  0  0  0  0  0  0  0  0
   -2.3978   13.5365    6.9155 H   0  0  0  0  0  0  0  0  0  0  0  0
   -4.5345   13.3551    8.2002 H   0  0  0  0  0  0  0  0  0  0  0  0
   -4.5740   11.9405   10.2534 H   0  0  0  0  0  0  0  0  0  0  0  0
   -2.4974   10.7628   10.9357 H   0  0  0  0  0  0  0  0  0  0  0  0
    0.0129   10.6539   10.6670 H   0  0  0  0  0  0  0  0  0  0  0  0
    0.7426   11.5242    9.2861 H   0  0  0  0  0  0  0  0  0  0  0  0
   -1.5794    8.5319    9.7725 H   0  0  0  0  0  0  0  0  0  0  0  0
   -0.0332    8.2197   10.5809 H   0  0  0  0  0  0  0  0  0  0  0  0
   -0.4200    7.4124    9.0602 H   0  0  0  0  0  0  0  0  0  0  0  0
    1.7751    8.2867    8.1471 H   0  0  0  0  0  0  0  0  0  0  0  0
    2.1563    9.3125    9.5328 H   0  0  0  0  0  0  0  0  0  0  0  0
    1.9911   10.0354    7.9138 H   0  0  0  0  0  0  0  0  0  0  0  0
   -0.1387    8.9815    6.9484 H   0  0  0  0  0  0  0  0  0  0  0  0
  1  6  1  0  0  0  0
  2  1  1  0  0  0  0
  3 14  1  0  0  0  0
  4  7  2  0  0  0  0
  6 12  1  0  0  0  0
  7  1  1  0  0  0  0
  7  5  2  0  0  0  0
  8  6  1  0  0  0  0
  8  9  1  0  0  0  0
  9 10  2  0  0  0  0
 10 11  1  0  0  0  0
 10 19  1  0  0  0  0
 11 20  1  0  0  0  0
 12 13  1  0  0  0  0
 12 11  2  0  0  0  0
 13 21  1  0  0  0  0
 14 13  1  0  0  0  0
 14 15  1  0  0  0  0
 15 23  1  0  0  0  0
 15 24  1  0  0  0  0
 16 14  1  0  0  0  0
 16 27  1  0  0  0  0
 17  8  1  0  0  0  0
 18  9  1  0  0  0  0
 22 13  1  0  0  0  0
 25 15  1  0  0  0  0
 26 16  1  0  0  0  0
 28 16  1  0  0  0  0
 29  3  1  0  0  0  0
M  END
$$$$
