CSD_code = LEDLOW | q = 0 | S = 0 | Stoichiometry = C10H26Cl2N4O2Pt | MND = 6
 OpenBabel04212202063D

 45 44  0  0  0  0  0  0  0  0999 V2000
    4.4453    1.8737    3.0897 C   0  0  0  0  0  0  0  0  0  0  0  0
    3.8052    2.6715    1.9330 C   0  0  0  0  0  0  0  0  0  0  0  0
    4.6983    2.8315    0.7025 C   0  0  0  0  0  0  0  0  0  0  0  0
    4.1248    3.3122   -0.0881 H   0  0  0  0  0  0  0  0  0  0  0  0
    5.0341    1.8654    0.3287 H   0  0  0  0  0  0  0  0  0  0  0  0
    5.5609    3.4641    0.9083 H   0  0  0  0  0  0  0  0  0  0  0  0
    2.5152    1.9485    1.5369 C   0  0  0  0  0  0  0  0  0  0  0  0
    1.9099    1.7631    2.4202 H   0  0  0  0  0  0  0  0  0  0  0  0
    2.7442    0.9933    1.0687 H   0  0  0  0  0  0  0  0  0  0  0  0
    1.9436    2.5538    0.8372 H   0  0  0  0  0  0  0  0  0  0  0  0
    3.4769    4.0488    2.5226 C   0  0  0  0  0  0  0  0  0  0  0  0
    2.8238    3.9370    3.3843 H   0  0  0  0  0  0  0  0  0  0  0  0
    2.9776    4.6667    1.7793 H   0  0  0  0  0  0  0  0  0  0  0  0
    4.3856    4.5540    2.8449 H   0  0  0  0  0  0  0  0  0  0  0  0
    9.7781    1.4178    3.6021 C   0  0  0  0  0  0  0  0  0  0  0  0
   10.7417    2.2824    2.7603 C   0  0  0  0  0  0  0  0  0  0  0  0
   11.2506    3.3699    3.7146 C   0  0  0  0  0  0  0  0  0  0  0  0
   11.9507    4.0233    3.1983 H   0  0  0  0  0  0  0  0  0  0  0  0
   11.7563    2.9148    4.5624 H   0  0  0  0  0  0  0  0  0  0  0  0
   10.4237    3.9701    4.0899 H   0  0  0  0  0  0  0  0  0  0  0  0
   11.9007    1.3883    2.3146 C   0  0  0  0  0  0  0  0  0  0  0  0
   11.5535    0.6508    1.5943 H   0  0  0  0  0  0  0  0  0  0  0  0
   12.3128    0.8620    3.1710 H   0  0  0  0  0  0  0  0  0  0  0  0
   12.6839    1.9872    1.8555 H   0  0  0  0  0  0  0  0  0  0  0  0
   10.0933    2.9245    1.5328 C   0  0  0  0  0  0  0  0  0  0  0  0
   10.8704    3.3738    0.9173 H   0  0  0  0  0  0  0  0  0  0  0  0
    9.3995    3.7181    1.8073 H   0  0  0  0  0  0  0  0  0  0  0  0
    9.5756    2.1809    0.9295 H   0  0  0  0  0  0  0  0  0  0  0  0
    6.8283    2.6793    5.8413 Cl  0  0  0  0  0  0  0  0  0  0  0  0
    7.0194   -1.1714    3.1229 Cl  0  0  0  0  0  0  0  0  0  0  0  0
    6.2079    1.9474    2.1967 H   0  0  0  0  0  0  0  0  0  0  0  0
    8.2406    2.3818    2.8244 H   0  0  0  0  0  0  0  0  0  0  0  0
    5.7450    1.6584    3.0494 N   0  0  0  0  0  0  0  0  0  0  0  0
    8.4850    1.6281    3.4549 N   0  0  0  0  0  0  0  0  0  0  0  0
    8.2098   -0.1562    5.8589 N   0  0  0  0  0  4  0  0  0  0  0  0
    9.1481    0.0205    5.3948 H   0  0  0  0  0  0  0  0  0  0  0  0
    8.0853   -1.1615    5.9500 H   0  0  0  0  0  0  0  0  0  0  0  0
    8.2160    0.2847    6.7759 H   0  0  0  0  0  0  0  0  0  0  0  0
    5.2612   -0.0435    5.4739 N   0  0  0  0  0  4  0  0  0  0  0  0
    4.4835    0.5219    5.0245 H   0  0  0  0  0  0  0  0  0  0  0  0
    5.2383    0.1260    6.4762 H   0  0  0  0  0  0  0  0  0  0  0  0
    5.1006   -1.0291    5.2785 H   0  0  0  0  0  0  0  0  0  0  0  0
    3.7146    1.5053    4.0169 O   0  0  0  0  0  0  0  0  0  0  0  0
   10.2596    0.6042    4.3988 O   0  0  0  0  0  0  0  0  0  0  0  0
    6.9290    0.7791    4.4462 Pt  0  0  0  0  0  0  0  0  0  0  0  0
  1 43  2  0  0  0  0
  2 11  1  0  0  0  0
  2  1  1  0  0  0  0
  3  6  1  0  0  0  0
  3  2  1  0  0  0  0
  4  3  1  0  0  0  0
  5  3  1  0  0  0  0
  7  2  1  0  0  0  0
  7  8  1  0  0  0  0
  9  7  1  0  0  0  0
 10  7  1  0  0  0  0
 11 14  1  0  0  0  0
 11 12  1  0  0  0  0
 13 11  1  0  0  0  0
 15 44  2  0  0  0  0
 16 15  1  0  0  0  0
 16 17  1  0  0  0  0
 17 20  1  0  0  0  0
 17 19  1  0  0  0  0
 18 17  1  0  0  0  0
 21 16  1  0  0  0  0
 21 23  1  0  0  0  0
 22 21  1  0  0  0  0
 24 21  1  0  0  0  0
 25 27  1  0  0  0  0
 25 16  1  0  0  0  0
 26 25  1  0  0  0  0
 28 25  1  0  0  0  0
 30 45  1  0  0  0  0
 31 33  1  0  0  0  0
 32 34  1  0  0  0  0
 33  1  1  0  0  0  0
 33 45  1  0  0  0  0
 34 15  1  0  0  0  0
 34 45  1  0  0  0  0
 35 37  1  0  0  0  0
 35 38  1  0  0  0  0
 36 35  1  0  0  0  0
 39 41  1  0  0  0  0
 40 39  1  0  0  0  0
 42 39  1  0  0  0  0
 45 39  1  0  0  0  0
 45 29  1  0  0  0  0
 45 35  1  0  0  0  0
M  END
$$$$
