CSD_code = LEDRIW | q = 0 | S = 0 | Stoichiometry = C30H28Cl2OP2Pt | MND = 4
 OpenBabel04212202063D

 64 70  0  0  1  0  0  0  0  0999 V2000
    2.2309    2.1617    3.0449 Pt  0  0  0  0  0  0  0  0  0  0  0  0
    0.5804    0.7487    3.7823 Cl  0  0  0  0  0  0  0  0  0  0  0  0
    3.2519    0.5526    1.7727 Cl  0  0  0  0  0  0  0  0  0  0  0  0
    1.2589    3.8632    4.1545 P   0  0  0  0  0  4  0  0  0  0  0  0
    3.8622    3.6203    2.4475 P   0  0  0  0  0  4  0  0  0  0  0  0
    3.5584    4.7267    5.2936 O   0  0  0  0  0  0  0  0  0  0  0  0
    2.5758    5.1548    4.3598 C   0  0  1  0  0  0  0  0  0  0  0  0
    3.4569    5.3334    3.1042 C   0  0  1  0  0  0  0  0  0  0  0  0
    2.9536    5.9115    2.3275 H   0  0  0  0  0  0  0  0  0  0  0  0
    4.6671    6.0546    3.7188 C   0  0  0  0  0  0  0  0  0  0  0  0
    5.6125    5.5888    3.4468 H   0  0  0  0  0  0  0  0  0  0  0  0
    4.7053    7.1059    3.4373 H   0  0  0  0  0  0  0  0  0  0  0  0
    4.3711    5.8855    5.2259 C   0  0  1  0  0  0  0  0  0  0  0  0
    5.2472    5.7670    5.8604 H   0  0  0  0  0  0  0  0  0  0  0  0
    3.3943    6.9992    5.6354 C   0  0  0  0  0  0  0  0  0  0  0  0
    3.7377    7.9869    5.3381 H   0  0  0  0  0  0  0  0  0  0  0  0
    3.2398    6.9897    6.7136 H   0  0  0  0  0  0  0  0  0  0  0  0
    2.1314    6.5386    4.8868 C   0  0  0  0  0  0  0  0  0  0  0  0
    1.2807    6.4379    5.5600 H   0  0  0  0  0  0  0  0  0  0  0  0
    1.8531    7.2027    4.0703 H   0  0  0  0  0  0  0  0  0  0  0  0
    0.1434    4.7536    3.0274 C   0  0  0  0  0  0  0  0  0  0  0  0
    0.2667    4.4854    1.6665 C   0  0  0  0  0  0  0  0  0  0  0  0
    0.9712    3.7225    1.3371 H   0  0  0  0  0  0  0  0  0  0  0  0
   -0.5173    5.1587    0.7480 C   0  0  0  0  0  0  0  0  0  0  0  0
   -0.4175    4.9433   -0.3054 H   0  0  0  0  0  0  0  0  0  0  0  0
   -1.4371    6.0991    1.1841 C   0  0  0  0  0  0  0  0  0  0  0  0
   -2.0547    6.6229    0.4698 H   0  0  0  0  0  0  0  0  0  0  0  0
   -1.5761    6.3576    2.5385 C   0  0  0  0  0  0  0  0  0  0  0  0
   -2.3031    7.0807    2.8783 H   0  0  0  0  0  0  0  0  0  0  0  0
   -0.7903    5.6898    3.4609 C   0  0  0  0  0  0  0  0  0  0  0  0
   -0.9120    5.8838    4.5172 H   0  0  0  0  0  0  0  0  0  0  0  0
    0.3760    3.7550    5.7233 C   0  0  0  0  0  0  0  0  0  0  0  0
   -0.9398    3.2952    5.6797 C   0  0  0  0  0  0  0  0  0  0  0  0
   -1.3943    3.0779    4.7232 H   0  0  0  0  0  0  0  0  0  0  0  0
   -1.6407    3.1047    6.8548 C   0  0  0  0  0  0  0  0  0  0  0  0
   -2.6592    2.7477    6.8213 H   0  0  0  0  0  0  0  0  0  0  0  0
   -1.0330    3.3604    8.0744 C   0  0  0  0  0  0  0  0  0  0  0  0
   -1.5825    3.2100    8.9919 H   0  0  0  0  0  0  0  0  0  0  0  0
    0.2835    3.7898    8.1194 C   0  0  0  0  0  0  0  0  0  0  0  0
    0.7601    3.9688    9.0723 H   0  0  0  0  0  0  0  0  0  0  0  0
    0.9969    3.9772    6.9489 C   0  0  0  0  0  0  0  0  0  0  0  0
    2.0328    4.2806    6.9786 H   0  0  0  0  0  0  0  0  0  0  0  0
    4.3040    3.8512    0.7063 C   0  0  0  0  0  0  0  0  0  0  0  0
    3.8005    4.8755   -0.0897 C   0  0  0  0  0  0  0  0  0  0  0  0
    3.1682    5.6446    0.3304 H   0  0  0  0  0  0  0  0  0  0  0  0
    4.0985    4.9152   -1.4405 C   0  0  0  0  0  0  0  0  0  0  0  0
    3.7101    5.7187   -2.0495 H   0  0  0  0  0  0  0  0  0  0  0  0
    4.8793    3.9256   -2.0129 C   0  0  0  0  0  0  0  0  0  0  0  0
    5.1035    3.9584   -3.0688 H   0  0  0  0  0  0  0  0  0  0  0  0
    5.3572    2.8854   -1.2315 C   0  0  0  0  0  0  0  0  0  0  0  0
    5.9471    2.0994   -1.6782 H   0  0  0  0  0  0  0  0  0  0  0  0
    5.0703    2.8434    0.1189 C   0  0  0  0  0  0  0  0  0  0  0  0
    5.4139    2.0188    0.7264 H   0  0  0  0  0  0  0  0  0  0  0  0
    5.4091    3.1134    3.2434 C   0  0  0  0  0  0  0  0  0  0  0  0
    5.2978    2.2671    4.3423 C   0  0  0  0  0  0  0  0  0  0  0  0
    4.3088    1.9484    4.6659 H   0  0  0  0  0  0  0  0  0  0  0  0
    6.4332    1.8294    4.9976 C   0  0  0  0  0  0  0  0  0  0  0  0
    6.3450    1.1675    5.8459 H   0  0  0  0  0  0  0  0  0  0  0  0
    7.6842    2.2318    4.5569 C   0  0  0  0  0  0  0  0  0  0  0  0
    8.5729    1.8862    5.0643 H   0  0  0  0  0  0  0  0  0  0  0  0
    7.8001    3.0662    3.4565 C   0  0  0  0  0  0  0  0  0  0  0  0
    8.7766    3.3692    3.1071 H   0  0  0  0  0  0  0  0  0  0  0  0
    6.6678    3.5080    2.7959 C   0  0  0  0  0  0  0  0  0  0  0  0
    6.7607    4.1417    1.9231 H   0  0  0  0  0  0  0  0  0  0  0  0
  1  2  1  0  0  0  0
  1  4  1  0  0  0  0
  3  1  1  0  0  0  0
  4  7  1  0  0  0  0
  4 32  1  0  0  0  0
  5  1  1  0  0  0  0
  5  8  1  0  0  0  0
  5 54  1  0  0  0  0
  7 18  1  0  0  0  0
  7  6  1  1  0  0  0
  8  9  1  6  0  0  0
  8 10  1  0  0  0  0
  8  7  1  0  0  0  0
 10 13  1  0  0  0  0
 11 10  1  0  0  0  0
 12 10  1  0  0  0  0
 13  6  1  0  0  0  0
 13 15  1  0  0  0  0
 13 14  1  1  0  0  0
 15 17  1  0  0  0  0
 16 15  1  0  0  0  0
 18 19  1  0  0  0  0
 18 15  1  0  0  0  0
 20 18  1  0  0  0  0
 21 30  1  0  0  0  0
 21  4  1  0  0  0  0
 22 21  2  0  0  0  0
 23 22  1  0  0  0  0
 24 26  2  0  0  0  0
 24 22  1  0  0  0  0
 25 24  1  0  0  0  0
 26 28  1  0  0  0  0
 27 26  1  0  0  0  0
 28 29  1  0  0  0  0
 28 30  2  0  0  0  0
 30 31  1  0  0  0  0
 32 41  1  0  0  0  0
 33 32  2  0  0  0  0
 33 35  1  0  0  0  0
 34 33  1  0  0  0  0
 35 37  2  0  0  0  0
 36 35  1  0  0  0  0
 37 39  1  0  0  0  0
 37 38  1  0  0  0  0
 39 40  1  0  0  0  0
 41 42  1  0  0  0  0
 41 39  2  0  0  0  0
 43  5  1  0  0  0  0
 44 45  1  0  0  0  0
 44 43  2  0  0  0  0
 46 44  1  0  0  0  0
 47 46  1  0  0  0  0
 48 46  2  0  0  0  0
 48 50  1  0  0  0  0
 49 48  1  0  0  0  0
 50 52  2  0  0  0  0
 51 50  1  0  0  0  0
 52 43  1  0  0  0  0
 52 53  1  0  0  0  0
 54 55  1  0  0  0  0
 55 56  1  0  0  0  0
 55 57  2  0  0  0  0
 57 58  1  0  0  0  0
 59 57  1  0  0  0  0
 59 60  1  0  0  0  0
 61 59  2  0  0  0  0
 62 61  1  0  0  0  0
 63 54  2  0  0  0  0
 63 61  1  0  0  0  0
 64 63  1  0  0  0  0
M  END
$$$$
