CSD_code = LEDWEX | q = 1 | S = 0 | Stoichiometry = C2H8AuCl2N2(1+) | MND = 4
 OpenBabel04212202063D

 15 15  0  0  0  0  0  0  0  0999 V2000
    2.9260    2.5321    5.6044 Au  0  0  0  0  0  0  0  0  0  0  0  0
    4.7534    1.5618    4.7489 Cl  0  0  0  0  0  0  0  0  0  0  0  0
    3.1943    1.2711    7.4341 Cl  0  0  0  0  0  0  0  0  0  0  0  0
    2.5645    3.8125    3.8968 N   0  0  0  0  0  4  0  0  0  0  0  0
    2.7021    3.3278    3.0105 H   0  0  0  0  0  0  0  0  0  0  0  0
    3.2374    4.5794    3.9116 H   0  0  0  0  0  0  0  0  0  0  0  0
    1.1877    4.3313    4.0120 C   0  0  0  0  0  0  0  0  0  0  0  0
    0.4977    3.5383    3.7161 H   0  0  0  0  0  0  0  0  0  0  0  0
    1.0298    5.1908    3.3551 H   0  0  0  0  0  0  0  0  0  0  0  0
    0.9341    4.7226    5.4623 C   0  0  0  0  0  0  0  0  0  0  0  0
    1.6445    5.4936    5.7677 H   0  0  0  0  0  0  0  0  0  0  0  0
   -0.0781    5.1197    5.5757 H   0  0  0  0  0  0  0  0  0  0  0  0
    1.1451    3.5365    6.3145 N   0  0  0  0  0  4  0  0  0  0  0  0
    1.2083    3.7965    7.2982 H   0  0  0  0  0  0  0  0  0  0  0  0
    0.3536    2.8970    6.2380 H   0  0  0  0  0  0  0  0  0  0  0  0
  1 13  1  0  0  0  0
  1  3  1  0  0  0  0
  2  1  1  0  0  0  0
  4  6  1  0  0  0  0
  4  7  1  0  0  0  0
  4  1  1  0  0  0  0
  5  4  1  0  0  0  0
  7 10  1  0  0  0  0
  8  7  1  0  0  0  0
  9  7  1  0  0  0  0
 10 12  1  0  0  0  0
 10 11  1  0  0  0  0
 10 13  1  0  0  0  0
 13 14  1  0  0  0  0
 15 13  1  0  0  0  0
M  END
$$$$
