CSD_code = LEFDOS | q = 0 | S = 0 | Stoichiometry = C22H42ClNP3Rh | MND = 6
 OpenBabel04212202063D

 70 69  0  0  1  0  0  0  0  0999 V2000
    9.9352    7.7001    7.2953 Rh  0  0  0  0  0  0  0  0  0  0  0  0
   11.3462    9.4774    7.2656 Cl  0  0  0  0  0 15  0  0  0  0  0  0
    9.8133    7.8520    9.5972 P   0  0  1  0  0  0  0  0  0  0  0  0
   11.3457    7.2391   11.0955 P   0  0  1  0  0  0  0  0  0  0  0  0
   10.4492    5.2547   11.2790 P   0  0  2  0  0  0  0  0  0  0  0  0
    8.5633    6.8842   10.1322 N   0  0  0  0  0  0  0  0  0  0  0  0
   10.4315    7.2426    5.2310 C   0  0  0  0  0  3  0  0  0  0  0  0
   11.4549    7.5892    5.0863 H   0  0  0  0  0  0  0  0  0  0  0  0
    9.4328    8.1999    5.2561 C   0  0  0  0  0  3  0  0  0  0  0  0
    9.7216    9.2383    5.0941 H   0  0  0  0  0  0  0  0  0  0  0  0
    7.9668    7.9360    5.0110 C   0  0  0  0  0  0  0  0  0  0  0  0
    7.8023    7.8036    3.9356 H   0  0  0  0  0  0  0  0  0  0  0  0
    7.4087    8.8248    5.3167 H   0  0  0  0  0  0  0  0  0  0  0  0
    7.4324    6.7193    5.7868 C   0  0  0  0  0  0  0  0  0  0  0  0
    6.3691    6.8693    5.9854 H   0  0  0  0  0  0  0  0  0  0  0  0
    7.5226    5.8118    5.1877 H   0  0  0  0  0  0  0  0  0  0  0  0
    8.1558    6.5203    7.1015 C   0  0  0  0  0  3  0  0  0  0  0  0
    7.5399    6.6845    7.9824 H   0  0  0  0  0  0  0  0  0  0  0  0
    9.2626    5.6883    7.2454 C   0  0  1  0  0  0  0  0  0  0  0  0
    9.4155    5.2182    8.2190 H   0  0  0  0  0  0  0  0  0  0  0  0
    9.9158    4.9231    6.1171 C   0  0  0  0  0  0  0  0  0  0  0  0
    9.2831    4.0701    5.8462 H   0  0  0  0  0  0  0  0  0  0  0  0
   10.8614    4.5179    6.4859 H   0  0  0  0  0  0  0  0  0  0  0  0
   10.1942    5.7916    4.8759 C   0  0  0  0  0  0  0  0  0  0  0  0
   11.0782    5.4033    4.3660 H   0  0  0  0  0  0  0  0  0  0  0  0
    9.3630    5.7308    4.1717 H   0  0  0  0  0  0  0  0  0  0  0  0
    8.7513    5.8154   10.7918 C   0  0  0  0  0  0  0  0  0  0  0  0
    9.2104    9.5045   10.2574 C   0  0  0  0  0  0  0  0  0  0  0  0
   10.3864   10.4689   10.3498 C   0  0  0  0  0  0  0  0  0  0  0  0
   11.1352   10.0900   11.0465 H   0  0  0  0  0  0  0  0  0  0  0  0
   10.0462   11.4405   10.7055 H   0  0  0  0  0  0  0  0  0  0  0  0
   10.8536   10.5989    9.3769 H   0  0  0  0  0  0  0  0  0  0  0  0
    8.1778    9.9868    9.2400 C   0  0  0  0  0  0  0  0  0  0  0  0
    8.6335   10.0545    8.2482 H   0  0  0  0  0  0  0  0  0  0  0  0
    7.7969   10.9696    9.5142 H   0  0  0  0  0  0  0  0  0  0  0  0
    7.3438    9.2869    9.1938 H   0  0  0  0  0  0  0  0  0  0  0  0
    8.5695    9.3412   11.6325 C   0  0  0  0  0  0  0  0  0  0  0  0
    7.7286    8.6521   11.5914 H   0  0  0  0  0  0  0  0  0  0  0  0
    8.2092   10.3061   11.9867 H   0  0  0  0  0  0  0  0  0  0  0  0
    9.2978    8.9650   12.3499 H   0  0  0  0  0  0  0  0  0  0  0  0
   12.8647    6.8169   10.0277 C   0  0  0  0  0  0  0  0  0  0  0  0
   12.5458    6.0564    8.7453 C   0  0  0  0  0  0  0  0  0  0  0  0
   12.0164    5.1274    8.9631 H   0  0  0  0  0  0  0  0  0  0  0  0
   13.4748    5.8097    8.2320 H   0  0  0  0  0  0  0  0  0  0  0  0
   11.9378    6.6693    8.0616 H   0  0  0  0  0  0  0  0  0  0  0  0
   13.7939    5.9637   10.8949 C   0  0  0  0  0  0  0  0  0  0  0  0
   14.0448    6.4786   11.8212 H   0  0  0  0  0  0  0  0  0  0  0  0
   14.7202    5.7620   10.3588 H   0  0  0  0  0  0  0  0  0  0  0  0
   13.3255    5.0102   11.1397 H   0  0  0  0  0  0  0  0  0  0  0  0
   13.5469    8.1441    9.6992 C   0  0  0  0  0  0  0  0  0  0  0  0
   12.9105    8.7574    9.0642 H   0  0  0  0  0  0  0  0  0  0  0  0
   14.4818    7.9636    9.1711 H   0  0  0  0  0  0  0  0  0  0  0  0
   13.7700    8.6991   10.6098 H   0  0  0  0  0  0  0  0  0  0  0  0
   10.3021    5.1000   13.1769 C   0  0  0  0  0  0  0  0  0  0  0  0
    9.6494    3.7581   13.5127 C   0  0  0  0  0  0  0  0  0  0  0  0
    8.5945    3.7448   13.2557 H   0  0  0  0  0  0  0  0  0  0  0  0
    9.7364    3.5647   14.5813 H   0  0  0  0  0  0  0  0  0  0  0  0
   10.1454    2.9476   12.9800 H   0  0  0  0  0  0  0  0  0  0  0  0
    9.5333    6.2513   13.8164 C   0  0  0  0  0  0  0  0  0  0  0  0
   10.0560    7.1922   13.6508 H   0  0  0  0  0  0  0  0  0  0  0  0
    9.4590    6.0906   14.8917 H   0  0  0  0  0  0  0  0  0  0  0  0
    8.5267    6.3412   13.4146 H   0  0  0  0  0  0  0  0  0  0  0  0
   11.7334    5.0909   13.7134 C   0  0  0  0  0  0  0  0  0  0  0  0
   12.2992    4.2603   13.2943 H   0  0  0  0  0  0  0  0  0  0  0  0
   11.7249    4.9842   14.7972 H   0  0  0  0  0  0  0  0  0  0  0  0
   12.2431    6.0216   13.4664 H   0  0  0  0  0  0  0  0  0  0  0  0
    7.5919    4.8954   11.0143 C   0  0  0  0  0  0  0  0  0  0  0  0
    7.9005    3.8598   10.8842 H   0  0  0  0  0  0  0  0  0  0  0  0
    6.7967    5.1320   10.3100 H   0  0  0  0  0  0  0  0  0  0  0  0
    7.1966    5.0137   12.0225 H   0  0  0  0  0  0  0  0  0  0  0  0
  3  6  1  0  0  0  0
  3 28  1  1  0  0  0
  3  4  1  0  0  0  0
  4 41  1  6  0  0  0
  4  5  1  0  0  0  0
  5 54  1  1  0  0  0
  6 27  2  0  0  0  0
  7  9  1  0  0  0  0
  8  7  1  0  0  0  0
 10  9  1  0  0  0  0
 11  9  1  0  0  0  0
 11 13  1  0  0  0  0
 11 14  1  0  0  0  0
 12 11  1  0  0  0  0
 14 15  1  0  0  0  0
 14 17  1  0  0  0  0
 16 14  1  0  0  0  0
 17 19  1  0  0  0  0
 17 18  1  0  0  0  0
 19  1  1  0  0  0  0
 19 20  1  1  0  0  0
 21 23  1  0  0  0  0
 21 19  1  0  0  0  0
 22 21  1  0  0  0  0
 24  7  1  0  0  0  0
 24 21  1  0  0  0  0
 25 24  1  0  0  0  0
 26 24  1  0  0  0  0
 27 67  1  0  0  0  0
 27  5  1  0  0  0  0
 28 29  1  0  0  0  0
 28 37  1  0  0  0  0
 29 31  1  0  0  0  0
 29 30  1  0  0  0  0
 32 29  1  0  0  0  0
 33 35  1  0  0  0  0
 33 28  1  0  0  0  0
 34 33  1  0  0  0  0
 36 33  1  0  0  0  0
 37 39  1  0  0  0  0
 37 40  1  0  0  0  0
 38 37  1  0  0  0  0
 41 46  1  0  0  0  0
 42 43  1  0  0  0  0
 42 41  1  0  0  0  0
 44 42  1  0  0  0  0
 45 42  1  0  0  0  0
 46 49  1  0  0  0  0
 46 47  1  0  0  0  0
 48 46  1  0  0  0  0
 50 41  1  0  0  0  0
 50 53  1  0  0  0  0
 51 50  1  0  0  0  0
 52 50  1  0  0  0  0
 54 55  1  0  0  0  0
 54 63  1  0  0  0  0
 54 59  1  0  0  0  0
 55 57  1  0  0  0  0
 56 55  1  0  0  0  0
 58 55  1  0  0  0  0
 59 61  1  0  0  0  0
 60 59  1  0  0  0  0
 62 59  1  0  0  0  0
 63 65  1  0  0  0  0
 64 63  1  0  0  0  0
 66 63  1  0  0  0  0
 67 70  1  0  0  0  0
 68 67  1  0  0  0  0
 69 67  1  0  0  0  0
M  END
$$$$
