CSD_code = LEGKEO | q = 0 | S = 0 | Stoichiometry = C12H16Cl2N4Pd | MND = 4
 OpenBabel04212202063D

 35 36  0  0  0  0  0  0  0  0999 V2000
    0.0004    0.0002   -0.0003 Pd  0  0  0  0  0  0  0  0  0  0  0  0
   -0.3985   -0.8500    2.0855 Cl  0  0  0  0  0  0  0  0  0  0  0  0
    1.4489    1.0718    0.7864 N   0  0  0  0  0  0  0  0  0  0  0  0
    3.0080    1.6670    2.2030 N   0  0  0  0  0  0  0  0  0  0  0  0
    2.3499    0.6368    1.6416 C   0  0  0  0  0  3  0  0  0  0  0  0
    2.4843    2.8106    1.6789 C   0  0  0  0  0  0  0  0  0  0  0  0
    1.5175    2.4311    0.7937 C   0  0  0  0  0  0  0  0  0  0  0  0
    3.9735    1.5735    3.2626 C   0  0  0  0  0  0  0  0  0  0  0  0
    3.3458    1.3109    4.6100 C   0  0  0  0  0  0  0  0  0  0  0  0
    2.0989    0.9376    4.8210 C   0  0  0  0  0  0  0  0  0  0  0  0
    2.5372   -0.3965    1.8742 H   0  0  0  0  0  0  0  0  0  0  0  0
    2.8307    3.7816    1.9663 H   0  0  0  0  0  0  0  0  0  0  0  0
    0.8885    3.0307    0.1596 H   0  0  0  0  0  0  0  0  0  0  0  0
    4.5385    2.5099    3.3001 H   0  0  0  0  0  0  0  0  0  0  0  0
    4.6775    0.7640    3.0345 H   0  0  0  0  0  0  0  0  0  0  0  0
    4.0336    1.4461    5.4337 H   0  0  0  0  0  0  0  0  0  0  0  0
    1.7350    0.7635    5.8183 H   0  0  0  0  0  0  0  0  0  0  0  0
    1.3856    0.7763    4.0293 H   0  0  0  0  0  0  0  0  0  0  0  0
    0.3993    0.8511   -2.0863 Cl  0  0  0  0  0  0  0  0  0  0  0  0
   -1.4482   -1.0714   -0.7866 N   0  0  0  0  0  0  0  0  0  0  0  0
   -3.0076   -1.6668   -2.2028 N   0  0  0  0  0  0  0  0  0  0  0  0
   -2.3495   -0.6365   -1.6416 C   0  0  0  0  0  3  0  0  0  0  0  0
   -2.4837   -2.8103   -1.6787 C   0  0  0  0  0  0  0  0  0  0  0  0
   -1.5166   -2.4307   -0.7939 C   0  0  0  0  0  0  0  0  0  0  0  0
   -3.9737   -1.5735   -3.2619 C   0  0  0  0  0  0  0  0  0  0  0  0
   -3.3468   -1.3113   -4.6097 C   0  0  0  0  0  0  0  0  0  0  0  0
   -2.1000   -0.9384   -4.8216 C   0  0  0  0  0  0  0  0  0  0  0  0
   -2.5369    0.3967   -1.8742 H   0  0  0  0  0  0  0  0  0  0  0  0
   -2.8301   -3.7814   -1.9660 H   0  0  0  0  0  0  0  0  0  0  0  0
   -0.8874   -3.0303   -0.1600 H   0  0  0  0  0  0  0  0  0  0  0  0
   -4.5389   -2.5098   -3.2988 H   0  0  0  0  0  0  0  0  0  0  0  0
   -4.6775   -0.7638   -3.0335 H   0  0  0  0  0  0  0  0  0  0  0  0
   -4.0352   -1.4464   -5.4330 H   0  0  0  0  0  0  0  0  0  0  0  0
   -1.7366   -0.7647   -5.8191 H   0  0  0  0  0  0  0  0  0  0  0  0
   -1.3859   -0.7775   -4.0304 H   0  0  0  0  0  0  0  0  0  0  0  0
  1  3  1  0  0  0  0
  1  2  1  0  0  0  0
  3  7  1  0  0  0  0
  3  5  1  0  0  0  0
  4  8  1  0  0  0  0
  5 11  1  0  0  0  0
  5  4  1  0  0  0  0
  6 12  1  0  0  0  0
  6  4  1  0  0  0  0
  7  6  2  0  0  0  0
  8 14  1  0  0  0  0
  8  9  1  0  0  0  0
  9 10  2  0  0  0  0
  9 16  1  0  0  0  0
 10 17  1  0  0  0  0
 13  7  1  0  0  0  0
 15  8  1  0  0  0  0
 18 10  1  0  0  0  0
 19  1  1  0  0  0  0
 20  1  1  0  0  0  0
 21 23  1  0  0  0  0
 21 22  1  0  0  0  0
 22 20  1  0  0  0  0
 23 24  2  0  0  0  0
 24 20  1  0  0  0  0
 24 30  1  0  0  0  0
 25 32  1  0  0  0  0
 25 21  1  0  0  0  0
 26 25  1  0  0  0  0
 27 26  2  0  0  0  0
 27 35  1  0  0  0  0
 28 22  1  0  0  0  0
 29 23  1  0  0  0  0
 31 25  1  0  0  0  0
 33 26  1  0  0  0  0
 34 27  1  0  0  0  0
M  END
$$$$
