CSD_code = LEGTIA | q = 0 | S = 0 | Stoichiometry = C32H27ClP2Pd | MND = 4
 OpenBabel04212202063D

 63 69  0  0  0  0  0  0  0  0999 V2000
    2.3596    3.3673    7.7852 Pd  0  0  0  0  0  0  0  0  0  0  0  0
    3.2516    4.9508    6.3677 Cl  0  0  0  0  0  0  0  0  0  0  0  0
    3.2652    4.1645    9.6450 P   0  0  0  0  0  4  0  0  0  0  0  0
    1.2300    2.1460    6.2910 P   0  0  0  0  0  4  0  0  0  0  0  0
    1.5384    2.0498    9.0813 C   0  0  0  0  0  0  0  0  0  0  0  0
    0.9526    0.8627    8.6279 C   0  0  0  0  0  0  0  0  0  0  0  0
    0.3664   -0.0228    9.5229 C   0  0  0  0  0  0  0  0  0  0  0  0
    0.3623    0.2508   10.8782 C   0  0  0  0  0  0  0  0  0  0  0  0
    0.9372    1.4194   11.3425 C   0  0  0  0  0  0  0  0  0  0  0  0
    1.5139    2.3185   10.4554 C   0  0  0  0  0  0  0  0  0  0  0  0
    2.1077    3.6089   10.9655 C   0  0  0  0  0  0  0  0  0  0  0  0
    0.9689    0.5414    7.1538 C   0  0  0  0  0  0  0  0  0  0  0  0
    3.6556    5.8912   10.0267 C   0  0  0  0  0  0  0  0  0  0  0  0
    2.6197    6.7948    9.7979 C   0  0  0  0  0  0  0  0  0  0  0  0
    2.8188    8.1459    9.9987 C   0  0  0  0  0  0  0  0  0  0  0  0
    4.0598    8.6032   10.4158 C   0  0  0  0  0  0  0  0  0  0  0  0
    5.0987    7.7104   10.6180 C   0  0  0  0  0  0  0  0  0  0  0  0
    4.9049    6.3543   10.4184 C   0  0  0  0  0  0  0  0  0  0  0  0
    4.7596    3.1795    9.9434 C   0  0  0  0  0  0  0  0  0  0  0  0
    5.2212    2.4146    8.8730 C   0  0  0  0  0  0  0  0  0  0  0  0
    6.3371    1.6117    9.0274 C   0  0  0  0  0  0  0  0  0  0  0  0
    6.9928    1.5675   10.2475 C   0  0  0  0  0  0  0  0  0  0  0  0
    6.5333    2.3226   11.3151 C   0  0  0  0  0  0  0  0  0  0  0  0
    5.4181    3.1274   11.1678 C   0  0  0  0  0  0  0  0  0  0  0  0
   -0.4390    2.8778    6.2894 C   0  0  0  0  0  0  0  0  0  0  0  0
   -1.4978    2.3070    5.5918 C   0  0  0  0  0  0  0  0  0  0  0  0
   -2.7511    2.8887    5.6445 C   0  0  0  0  0  0  0  0  0  0  0  0
   -2.9514    4.0421    6.3864 C   0  0  0  0  0  0  0  0  0  0  0  0
   -1.8962    4.6225    7.0715 C   0  0  0  0  0  0  0  0  0  0  0  0
   -0.6402    4.0448    7.0232 C   0  0  0  0  0  0  0  0  0  0  0  0
    1.4874    1.7767    4.5337 C   0  0  0  0  0  0  0  0  0  0  0  0
    1.2355    0.5358    3.9590 C   0  0  0  0  0  0  0  0  0  0  0  0
    1.4236    0.3592    2.5995 C   0  0  0  0  0  0  0  0  0  0  0  0
    1.8642    1.4116    1.8138 C   0  0  0  0  0  0  0  0  0  0  0  0
    2.1284    2.6454    2.3874 C   0  0  0  0  0  0  0  0  0  0  0  0
    1.9431    2.8305    3.7445 C   0  0  0  0  0  0  0  0  0  0  0  0
    1.3261    4.3704   11.0822 H   0  0  0  0  0  0  0  0  0  0  0  0
    2.6094    3.4850   11.9301 H   0  0  0  0  0  0  0  0  0  0  0  0
    1.8199   -0.1121    6.9207 H   0  0  0  0  0  0  0  0  0  0  0  0
    0.0465    0.0438    6.8382 H   0  0  0  0  0  0  0  0  0  0  0  0
   -0.0860   -0.9339    9.1553 H   0  0  0  0  0  0  0  0  0  0  0  0
   -0.0900   -0.4439   11.5704 H   0  0  0  0  0  0  0  0  0  0  0  0
    0.9334    1.6395   12.4015 H   0  0  0  0  0  0  0  0  0  0  0  0
    1.6663    6.4206    9.4365 H   0  0  0  0  0  0  0  0  0  0  0  0
    2.0162    8.8459    9.8187 H   0  0  0  0  0  0  0  0  0  0  0  0
    4.2211    9.6603   10.5672 H   0  0  0  0  0  0  0  0  0  0  0  0
    6.0697    8.0725   10.9234 H   0  0  0  0  0  0  0  0  0  0  0  0
    5.7233    5.6618   10.5536 H   0  0  0  0  0  0  0  0  0  0  0  0
    4.6962    2.4634    7.9072 H   0  0  0  0  0  0  0  0  0  0  0  0
    6.6973    1.0199    8.1987 H   0  0  0  0  0  0  0  0  0  0  0  0
    7.8643    0.9410   10.3690 H   0  0  0  0  0  0  0  0  0  0  0  0
    7.0466    2.2826   12.2651 H   0  0  0  0  0  0  0  0  0  0  0  0
    5.0576    3.7146   12.0021 H   0  0  0  0  0  0  0  0  0  0  0  0
   -1.3349    1.4142    5.0031 H   0  0  0  0  0  0  0  0  0  0  0  0
   -3.5743    2.4447    5.1038 H   0  0  0  0  0  0  0  0  0  0  0  0
   -3.9321    4.4931    6.4246 H   0  0  0  0  0  0  0  0  0  0  0  0
   -2.0552    5.5278    7.6392 H   0  0  0  0  0  0  0  0  0  0  0  0
    0.2102    4.5084    7.5473 H   0  0  0  0  0  0  0  0  0  0  0  0
    0.8987   -0.2921    4.5668 H   0  0  0  0  0  0  0  0  0  0  0  0
    1.2260   -0.6043    2.1517 H   0  0  0  0  0  0  0  0  0  0  0  0
    2.0079    1.2662    0.7531 H   0  0  0  0  0  0  0  0  0  0  0  0
    2.4831    3.4618    1.7760 H   0  0  0  0  0  0  0  0  0  0  0  0
    2.1669    3.7810    4.2130 H   0  0  0  0  0  0  0  0  0  0  0  0
  1  5  1  0  0  0  0
  1  3  1  0  0  0  0
  2  1  1  0  0  0  0
  3 19  1  0  0  0  0
  3 13  1  0  0  0  0
  3 11  1  0  0  0  0
  4 12  1  0  0  0  0
  4  1  1  0  0  0  0
  5 10  1  0  0  0  0
  6  5  2  0  0  0  0
  6  7  1  0  0  0  0
  7  8  2  0  0  0  0
  8  9  1  0  0  0  0
  8 42  1  0  0  0  0
  9 43  1  0  0  0  0
 10 11  1  0  0  0  0
 10  9  2  0  0  0  0
 11 37  1  0  0  0  0
 11 38  1  0  0  0  0
 12  6  1  0  0  0  0
 13 18  1  0  0  0  0
 14 15  1  0  0  0  0
 14 13  2  0  0  0  0
 15 16  2  0  0  0  0
 16 46  1  0  0  0  0
 16 17  1  0  0  0  0
 17 47  1  0  0  0  0
 18 48  1  0  0  0  0
 18 17  2  0  0  0  0
 19 24  1  0  0  0  0
 20 21  1  0  0  0  0
 20 19  2  0  0  0  0
 21 22  2  0  0  0  0
 22 51  1  0  0  0  0
 22 23  1  0  0  0  0
 23 52  1  0  0  0  0
 24 23  2  0  0  0  0
 24 53  1  0  0  0  0
 25  4  1  0  0  0  0
 25 30  1  0  0  0  0
 26 27  1  0  0  0  0
 26 25  2  0  0  0  0
 27 28  2  0  0  0  0
 28 56  1  0  0  0  0
 28 29  1  0  0  0  0
 29 57  1  0  0  0  0
 30 29  2  0  0  0  0
 30 58  1  0  0  0  0
 31  4  1  0  0  0  0
 32 31  1  0  0  0  0
 32 59  1  0  0  0  0
 33 32  2  0  0  0  0
 34 35  2  0  0  0  0
 34 33  1  0  0  0  0
 35 36  1  0  0  0  0
 36 63  1  0  0  0  0
 36 31  2  0  0  0  0
 39 12  1  0  0  0  0
 40 12  1  0  0  0  0
 41  7  1  0  0  0  0
 44 14  1  0  0  0  0
 45 15  1  0  0  0  0
 49 20  1  0  0  0  0
 50 21  1  0  0  0  0
 54 26  1  0  0  0  0
 55 27  1  0  0  0  0
 60 33  1  0  0  0  0
 61 34  1  0  0  0  0
 62 35  1  0  0  0  0
M  END
$$$$
