CSD_code = LEHDAF | q = 0 | S = 0 | Stoichiometry = C13H12I2N2OZn | MND = 4
 OpenBabel04212202063D

 31 33  0  0  0  0  0  0  0  0999 V2000
    3.8000    2.3819    3.3759 Zn  0  0  0  0  0  0  0  0  0  0  0  0
    1.8788    3.0891    1.9019 I   0  0  0  0  0  0  0  0  0  0  0  0
    5.8026    3.4210    4.4697 I   0  0  0  0  0  0  0  0  0  0  0  0
    0.6967    2.6396    9.5762 O   0  0  0  0  0  0  0  0  0  0  0  0
    4.3680    0.4891    2.5344 N   0  0  0  0  0  0  0  0  0  0  0  0
    2.9871    0.9993    4.8262 N   0  0  0  0  0  0  0  0  0  0  0  0
    5.0259    0.2391    1.4161 C   0  0  0  0  0  3  0  0  0  0  0  0
    5.4492    1.0963    0.9093 H   0  0  0  0  0  0  0  0  0  0  0  0
    5.1782   -1.0398    0.9027 C   0  0  0  0  0  0  0  0  0  0  0  0
    5.7257   -1.1939   -0.0126 H   0  0  0  0  0  0  0  0  0  0  0  0
    4.6102   -2.1020    1.5912 C   0  0  0  0  0  0  0  0  0  0  0  0
    4.7034   -3.1116    1.2209 H   0  0  0  0  0  0  0  0  0  0  0  0
    3.9220   -1.8448    2.7622 C   0  0  0  0  0  0  0  0  0  0  0  0
    3.4645   -2.6419    3.3276 H   0  0  0  0  0  0  0  0  0  0  0  0
    3.8188   -0.5269    3.2125 C   0  0  0  0  0  0  0  0  0  0  0  0
    3.1202   -0.2139    4.4393 C   0  0  0  0  0  3  0  0  0  0  0  0
    2.7172   -1.0598    4.9947 H   0  0  0  0  0  0  0  0  0  0  0  0
    2.3963    1.3670    6.0163 C   0  0  0  0  0  0  0  0  0  0  0  0
    2.2146    0.5034    7.1088 C   0  0  0  0  0  0  0  0  0  0  0  0
    2.5537   -0.5200    7.0602 H   0  0  0  0  0  0  0  0  0  0  0  0
    1.6533    0.9647    8.2713 C   0  0  0  0  0  0  0  0  0  0  0  0
    1.5253    0.3137    9.1215 H   0  0  0  0  0  0  0  0  0  0  0  0
    1.2403    2.2997    8.3939 C   0  0  0  0  0  0  0  0  0  0  0  0
    1.4264    3.1653    7.3145 C   0  0  0  0  0  0  0  0  0  0  0  0
    1.1301    4.1999    7.3732 H   0  0  0  0  0  0  0  0  0  0  0  0
    2.0044    2.7017    6.1544 C   0  0  0  0  0  0  0  0  0  0  0  0
    2.1395    3.3842    5.3262 H   0  0  0  0  0  0  0  0  0  0  0  0
    0.2885    3.9741    9.7875 C   0  0  0  0  0  0  0  0  0  0  0  0
   -0.1025    4.0029   10.8029 H   0  0  0  0  0  0  0  0  0  0  0  0
   -0.4993    4.2661    9.0871 H   0  0  0  0  0  0  0  0  0  0  0  0
    1.1307    4.6665    9.7030 H   0  0  0  0  0  0  0  0  0  0  0  0
  1  3  1  0  0  0  0
  1  6  1  0  0  0  0
  2  1  1  0  0  0  0
  4 28  1  0  0  0  0
  5 15  1  0  0  0  0
  5  1  1  0  0  0  0
  6 18  1  0  0  0  0
  7  5  1  0  0  0  0
  8  7  1  0  0  0  0
  9  7  1  0  0  0  0
  9 11  2  0  0  0  0
 10  9  1  0  0  0  0
 11 13  1  0  0  0  0
 12 11  1  0  0  0  0
 13 15  2  0  0  0  0
 13 14  1  0  0  0  0
 15 16  1  0  0  0  0
 16  6  1  0  0  0  0
 16 17  1  0  0  0  0
 18 26  2  0  0  0  0
 18 19  1  0  0  0  0
 19 21  2  0  0  0  0
 20 19  1  0  0  0  0
 21 23  1  0  0  0  0
 21 22  1  0  0  0  0
 23  4  1  0  0  0  0
 24 25  1  0  0  0  0
 24 23  2  0  0  0  0
 26 24  1  0  0  0  0
 27 26  1  0  0  0  0
 28 29  1  0  0  0  0
 30 28  1  0  0  0  0
 31 28  1  0  0  0  0
M  END
$$$$
