CSD_code = LEHGAI | q = 0 | S = 0 | Stoichiometry = C12H11HgI2NO3 | MND = 3
 OpenBabel04212202063D

 30 30  0  0  0  0  0  0  0  0999 V2000
    8.9825    9.7301    7.5825 Hg  0  0  0  0  0  0  0  0  0  0  0  0
    7.5533   11.0967    5.8923 I   0  0  0  0  0  0  0  0  0  0  0  0
   10.9166    8.9685    9.1756 I   0  0  0  0  0  0  0  0  0  0  0  0
    7.5041    7.6832    8.7851 O   0  0  0  0  0  0  0  0  0  0  0  0
    7.4366   10.2007    9.6635 O   0  0  0  0  0  0  0  0  0  0  0  0
    6.4448    9.5891   11.5643 O   0  0  0  0  0  0  0  0  0  0  0  0
    8.6920    7.4576    6.3936 N   0  0  0  0  0  0  0  0  0  0  0  0
    9.2086    7.3612    5.1926 C   0  0  0  0  0  0  0  0  0  0  0  0
    9.4701    8.2913    4.7024 H   0  0  0  0  0  0  0  0  0  0  0  0
    9.4284    6.1426    4.5361 C   0  0  0  0  0  0  0  0  0  0  0  0
    9.8581    6.1410    3.5472 H   0  0  0  0  0  0  0  0  0  0  0  0
    9.1015    4.9816    5.1805 C   0  0  0  0  0  0  0  0  0  0  0  0
    9.2693    4.0171    4.7233 H   0  0  0  0  0  0  0  0  0  0  0  0
    8.5290    5.0411    6.4676 C   0  0  0  0  0  0  0  0  0  0  0  0
    8.1601    3.8888    7.1898 C   0  0  0  0  0  0  0  0  0  0  0  0
    8.3268    2.9197    6.7453 H   0  0  0  0  0  0  0  0  0  0  0  0
    7.6025    4.0103    8.4293 C   0  0  0  0  0  0  0  0  0  0  0  0
    7.3212    3.1327    8.9907 H   0  0  0  0  0  0  0  0  0  0  0  0
    7.3728    5.2717    8.9983 C   0  0  0  0  0  0  0  0  0  0  0  0
    6.9164    5.3177    9.9740 H   0  0  0  0  0  0  0  0  0  0  0  0
    7.7168    6.4177    8.3241 C   0  0  0  0  0  0  0  0  0  0  0  0
    8.3261    6.3253    7.0375 C   0  0  0  0  0  0  0  0  0  0  0  0
    7.0159    7.8566   10.0894 C   0  0  0  0  0  0  0  0  0  0  0  0
    5.9945    7.4666   10.1952 H   0  0  0  0  0  0  0  0  0  0  0  0
    7.6668    7.3677   10.8285 H   0  0  0  0  0  0  0  0  0  0  0  0
    6.9988    9.3475   10.3929 C   0  0  0  0  0  0  0  0  0  0  0  0
    6.4012   10.9578   11.9745 C   0  0  0  0  0  0  0  0  0  0  0  0
    7.4128   11.3604   12.0452 H   0  0  0  0  0  0  0  0  0  0  0  0
    5.9171   10.9624   12.9469 H   0  0  0  0  0  0  0  0  0  0  0  0
    5.8321   11.5490   11.2554 H   0  0  0  0  0  0  0  0  0  0  0  0
  1  3  1  0  0  0  0
  2  1  1  0  0  0  0
  4 23  1  0  0  0  0
  5 26  2  0  0  0  0
  6 27  1  0  0  0  0
  7 22  1  0  0  0  0
  8  7  2  0  0  0  0
  9  8  1  0  0  0  0
 10 12  2  0  0  0  0
 10  8  1  0  0  0  0
 11 10  1  0  0  0  0
 12 14  1  0  0  0  0
 13 12  1  0  0  0  0
 14 22  2  0  0  0  0
 14 15  1  0  0  0  0
 15 17  2  0  0  0  0
 16 15  1  0  0  0  0
 17 18  1  0  0  0  0
 17 19  1  0  0  0  0
 19 20  1  0  0  0  0
 21  4  1  0  0  0  0
 21 19  2  0  0  0  0
 22 21  1  0  0  0  0
 23 24  1  0  0  0  0
 23 26  1  0  0  0  0
 23 25  1  0  0  0  0
 26  6  1  0  0  0  0
 27 28  1  0  0  0  0
 27 29  1  0  0  0  0
 30 27  1  0  0  0  0
M  END
$$$$
