CSD_code = LEHPIZ | q = 0 | S = 0 | Stoichiometry = C33H29Cl2N2O2PRu | MND = 6
 OpenBabel04212202063D

 70 75  0  0  1  0  0  0  0  0999 V2000
   11.7710    0.6931   10.7704 Ru  0  0  0  0  0  0  0  0  0  0  0  0
   11.2138    3.0158   10.8172 Cl  0  0  0  0  0  0  0  0  0  0  0  0
   10.5776    0.2355   12.8164 Cl  0  0  0  0  0  0  0  0  0  0  0  0
   11.9719   -1.1399   10.7111 C   0  0  0  0  0  2  0  0  0  0  0  0
   11.8986   -2.2833   10.7041 O   0  0  0  0  0  1  0  0  0  0  0  0
   10.0689    0.5054   10.0357 C   0  0  0  0  0  2  0  0  0  0  0  0
    8.9509    0.4105    9.8461 O   0  0  0  0  0  1  0  0  0  0  0  0
   12.7981    1.1963    9.0513 C   0  0  1  0  0  3  0  0  0  0  0  0
   12.5225    0.7425    7.8125 N   0  0  0  0  0  0  0  0  0  0  0  0
   13.3185    1.3556    6.8835 C   0  0  0  0  0  0  0  0  0  0  0  0
   13.2510    1.1323    5.8388 H   0  0  0  0  0  0  0  0  0  0  0  0
   14.1118    2.2136    7.5637 C   0  0  0  0  0  0  0  0  0  0  0  0
   14.8683    2.8861    7.2159 H   0  0  0  0  0  0  0  0  0  0  0  0
   13.7756    2.1076    8.8854 N   0  0  0  0  0  0  0  0  0  0  0  0
   14.4244    2.8640    9.9329 C   0  0  0  0  0  0  0  0  0  0  0  0
   13.6658    3.1515   10.6725 H   0  0  0  0  0  0  0  0  0  0  0  0
   14.8304    3.7754    9.4865 H   0  0  0  0  0  0  0  0  0  0  0  0
   11.4981   -0.1868    7.4833 C   0  0  0  0  0  0  0  0  0  0  0  0
   10.2463    0.3104    7.1120 C   0  0  0  0  0  0  0  0  0  0  0  0
    9.2541   -0.5993    6.7868 C   0  0  0  0  0  0  0  0  0  0  0  0
    8.2762   -0.2355    6.5077 H   0  0  0  0  0  0  0  0  0  0  0  0
    9.4845   -1.9694    6.8258 C   0  0  0  0  0  0  0  0  0  0  0  0
   10.7456   -2.4288    7.1749 C   0  0  0  0  0  0  0  0  0  0  0  0
   10.9386   -3.4912    7.1973 H   0  0  0  0  0  0  0  0  0  0  0  0
   11.7709   -1.5524    7.5019 C   0  0  0  0  0  0  0  0  0  0  0  0
   10.0013    1.7880    7.0703 C   0  0  0  0  0  0  0  0  0  0  0  0
    8.9445    1.9947    6.9280 H   0  0  0  0  0  0  0  0  0  0  0  0
   10.5569    2.2450    6.2508 H   0  0  0  0  0  0  0  0  0  0  0  0
   10.3264    2.2641    7.9968 H   0  0  0  0  0  0  0  0  0  0  0  0
    8.3770   -2.9230    6.5020 C   0  0  0  0  0  0  0  0  0  0  0  0
    7.8866   -2.6401    5.5724 H   0  0  0  0  0  0  0  0  0  0  0  0
    7.6283   -2.9004    7.2931 H   0  0  0  0  0  0  0  0  0  0  0  0
    8.7495   -3.9396    6.4100 H   0  0  0  0  0  0  0  0  0  0  0  0
   13.1462   -2.0592    7.8183 C   0  0  0  0  0  0  0  0  0  0  0  0
   13.6383   -1.4313    8.5603 H   0  0  0  0  0  0  0  0  0  0  0  0
   13.7575   -2.0607    6.9145 H   0  0  0  0  0  0  0  0  0  0  0  0
   13.0972   -3.0763    8.1970 H   0  0  0  0  0  0  0  0  0  0  0  0
   13.5487    1.1009   12.2688 P   0  0  0  0  0  4  0  0  0  0  0  0
   15.2649    1.1934   11.6276 C   0  0  0  0  0  0  0  0  0  0  0  0
   15.5314    2.0507   10.5544 C   0  0  0  0  0  0  0  0  0  0  0  0
   16.8190    2.1368   10.0460 C   0  0  0  0  0  0  0  0  0  0  0  0
   17.0218    2.8019    9.2182 H   0  0  0  0  0  0  0  0  0  0  0  0
   17.5913    0.5584   11.6699 C   0  0  0  0  0  0  0  0  0  0  0  0
   18.3906   -0.0148   12.1153 H   0  0  0  0  0  0  0  0  0  0  0  0
   17.8484    1.3926   10.5962 C   0  0  0  0  0  0  0  0  0  0  0  0
   18.8471    1.4712   10.1938 H   0  0  0  0  0  0  0  0  0  0  0  0
   16.3096    0.4614   12.1826 C   0  0  0  0  0  0  0  0  0  0  0  0
   16.1221   -0.1823   13.0290 H   0  0  0  0  0  0  0  0  0  0  0  0
   13.4741    2.6199   13.2749 C   0  0  0  0  0  0  0  0  0  0  0  0
   14.5983    3.4073   13.5090 C   0  0  0  0  0  0  0  0  0  0  0  0
   15.5572    3.1340   13.0914 H   0  0  0  0  0  0  0  0  0  0  0  0
   14.4919    4.5500   14.2813 C   0  0  0  0  0  0  0  0  0  0  0  0
   15.3682    5.1575   14.4567 H   0  0  0  0  0  0  0  0  0  0  0  0
   13.2715    4.9170   14.8233 C   0  0  0  0  0  0  0  0  0  0  0  0
   13.1936    5.8146   15.4193 H   0  0  0  0  0  0  0  0  0  0  0  0
   12.1531    4.1318   14.5985 C   0  0  0  0  0  0  0  0  0  0  0  0
   11.1989    4.4127   15.0187 H   0  0  0  0  0  0  0  0  0  0  0  0
   12.2493    2.9879   13.8280 C   0  0  0  0  0  0  0  0  0  0  0  0
   11.3739    2.3773   13.6535 H   0  0  0  0  0  0  0  0  0  0  0  0
   13.6707   -0.2201   13.5138 C   0  0  0  0  0  0  0  0  0  0  0  0
   13.9758   -1.5028   13.0609 C   0  0  0  0  0  0  0  0  0  0  0  0
   14.1897   -1.6584   12.0093 H   0  0  0  0  0  0  0  0  0  0  0  0
   14.0127   -2.5634   13.9442 C   0  0  0  0  0  0  0  0  0  0  0  0
   14.2447   -3.5555   13.5854 H   0  0  0  0  0  0  0  0  0  0  0  0
   13.7391   -2.3536   15.2871 C   0  0  0  0  0  0  0  0  0  0  0  0
   13.7546   -3.1847   15.9765 H   0  0  0  0  0  0  0  0  0  0  0  0
   13.4387   -1.0812   15.7410 C   0  0  0  0  0  0  0  0  0  0  0  0
   13.2204   -0.9177   16.7860 H   0  0  0  0  0  0  0  0  0  0  0  0
   13.4039   -0.0133   14.8606 C   0  0  0  0  0  0  0  0  0  0  0  0
   13.1539    0.9747   15.2185 H   0  0  0  0  0  0  0  0  0  0  0  0
  1  2  1  0  0  0  0
  1 38  1  0  0  0  0
  1  3  1  0  0  0  0
  4  1  1  0  0  0  0
  5  4  1  0  0  0  0
  6  1  1  0  0  0  0
  7  6  1  0  0  0  0
  8  9  1  6  0  0  0
  8  1  1  0  0  0  0
 10 12  2  0  0  0  0
 10  9  1  0  0  0  0
 11 10  1  0  0  0  0
 12 14  1  0  0  0  0
 13 12  1  0  0  0  0
 14  8  1  0  0  0  0
 14 15  1  0  0  0  0
 15 40  1  0  0  0  0
 15 16  1  0  0  0  0
 17 15  1  0  0  0  0
 18 25  1  0  0  0  0
 18  9  1  0  0  0  0
 19 18  2  0  0  0  0
 20 22  2  0  0  0  0
 20 19  1  0  0  0  0
 21 20  1  0  0  0  0
 22 23  1  0  0  0  0
 23 24  1  0  0  0  0
 23 25  2  0  0  0  0
 25 34  1  0  0  0  0
 26 19  1  0  0  0  0
 26 29  1  0  0  0  0
 27 26  1  0  0  0  0
 28 26  1  0  0  0  0
 30 22  1  0  0  0  0
 30 32  1  0  0  0  0
 31 30  1  0  0  0  0
 33 30  1  0  0  0  0
 34 37  1  0  0  0  0
 34 35  1  0  0  0  0
 36 34  1  0  0  0  0
 38 49  1  0  0  0  0
 38 60  1  0  0  0  0
 39 47  1  0  0  0  0
 39 38  1  0  0  0  0
 40 39  2  0  0  0  0
 41 40  1  0  0  0  0
 41 45  2  0  0  0  0
 42 41  1  0  0  0  0
 43 44  1  0  0  0  0
 43 47  2  0  0  0  0
 45 43  1  0  0  0  0
 46 45  1  0  0  0  0
 47 48  1  0  0  0  0
 49 50  2  0  0  0  0
 49 58  1  0  0  0  0
 50 52  1  0  0  0  0
 51 50  1  0  0  0  0
 52 53  1  0  0  0  0
 52 54  2  0  0  0  0
 54 55  1  0  0  0  0
 56 54  1  0  0  0  0
 56 57  1  0  0  0  0
 58 56  2  0  0  0  0
 59 58  1  0  0  0  0
 60 69  1  0  0  0  0
 61 60  2  0  0  0  0
 61 63  1  0  0  0  0
 62 61  1  0  0  0  0
 63 65  2  0  0  0  0
 64 63  1  0  0  0  0
 65 67  1  0  0  0  0
 65 66  1  0  0  0  0
 67 68  1  0  0  0  0
 69 70  1  0  0  0  0
 69 67  2  0  0  0  0
M  END
$$$$
