CSD_code = LEHSAU | q = 0 | S = 0 | Stoichiometry = C22H28Br2HgN2O6 | MND = 4
 OpenBabel04212202063D

 61 63  0  0  0  0  0  0  0  0999 V2000
    2.1132    4.4708    5.2890 Hg  0  0  0  0  0  0  0  0  0  0  0  0
    3.0203    6.7261    5.0090 Br  0  0  0  0  0  0  0  0  0  0  0  0
   -0.0252    3.3137    5.5695 Br  0  0  0  0  0  0  0  0  0  0  0  0
    5.9744    6.1776    8.0516 O   0  0  0  0  0  0  0  0  0  0  0  0
    4.8211    8.6442    8.9787 O   0  0  0  0  0  0  0  0  0  0  0  0
    2.1622    8.7082    9.5034 O   0  0  0  0  0  0  0  0  0  0  0  0
    0.9079    0.3895    2.5682 O   0  0  0  0  0  0  0  0  0  0  0  0
   -1.6750    1.2194    1.6096 O   0  0  0  0  0  0  0  0  0  0  0  0
   -2.0653    3.8465    1.0654 O   0  0  0  0  0  0  0  0  0  0  0  0
    3.8212    3.3327    6.6720 N   0  0  0  0  0  0  0  0  0  0  0  0
    3.4579    2.8920    3.9374 N   0  0  0  0  0  0  0  0  0  0  0  0
    4.4285    2.1802    6.0632 C   0  0  0  0  0  0  0  0  0  0  0  0
    4.4631    4.0163    7.5324 C   0  0  0  0  0  3  0  0  0  0  0  0
    3.8679    5.1919    8.1318 C   0  0  0  0  0  0  0  0  0  0  0  0
    4.6620    6.3427    8.3348 C   0  0  0  0  0  0  0  0  0  0  0  0
    4.0521    7.5247    8.7722 C   0  0  0  0  0  0  0  0  0  0  0  0
    2.6669    7.5381    9.0422 C   0  0  0  0  0  0  0  0  0  0  0  0
    1.9061    6.3856    8.8664 C   0  0  0  0  0  0  0  0  0  0  0  0
    2.5007    5.2323    8.4013 C   0  0  0  0  0  0  0  0  0  0  0  0
    6.8120    7.2821    7.7668 C   0  0  0  0  0  0  0  0  0  0  0  0
    4.4302    9.8239    8.2918 C   0  0  0  0  0  0  0  0  0  0  0  0
    0.7742    8.8141    9.7205 C   0  0  0  0  0  0  0  0  0  0  0  0
    4.6691    2.4345    4.5628 C   0  0  0  0  0  0  0  0  0  0  0  0
    2.8616    2.1605    3.0837 C   0  0  0  0  0  3  0  0  0  0  0  0
    1.6259    2.6006    2.4717 C   0  0  0  0  0  0  0  0  0  0  0  0
    0.5835    1.6684    2.2697 C   0  0  0  0  0  0  0  0  0  0  0  0
   -0.6616    2.1234    1.8189 C   0  0  0  0  0  0  0  0  0  0  0  0
   -0.8451    3.4941    1.5379 C   0  0  0  0  0  0  0  0  0  0  0  0
    0.2027    4.3935    1.7144 C   0  0  0  0  0  0  0  0  0  0  0  0
    1.4180    3.9500    2.1900 C   0  0  0  0  0  0  0  0  0  0  0  0
   -0.0860   -0.5791    2.8448 C   0  0  0  0  0  0  0  0  0  0  0  0
   -2.8979    1.4613    2.2894 C   0  0  0  0  0  0  0  0  0  0  0  0
   -2.3425    5.2098    0.8419 C   0  0  0  0  0  0  0  0  0  0  0  0
    3.7280    1.3451    6.1672 H   0  0  0  0  0  0  0  0  0  0  0  0
    5.3833    1.9198    6.5404 H   0  0  0  0  0  0  0  0  0  0  0  0
    5.4887    3.7645    7.8149 H   0  0  0  0  0  0  0  0  0  0  0  0
    0.8535    6.3803    9.0966 H   0  0  0  0  0  0  0  0  0  0  0  0
    1.9173    4.3222    8.3190 H   0  0  0  0  0  0  0  0  0  0  0  0
    7.7446    6.8406    7.4147 H   0  0  0  0  0  0  0  0  0  0  0  0
    6.3853    7.9048    6.9778 H   0  0  0  0  0  0  0  0  0  0  0  0
    7.0009    7.8866    8.6549 H   0  0  0  0  0  0  0  0  0  0  0  0
    5.3121   10.4637    8.2860 H   0  0  0  0  0  0  0  0  0  0  0  0
    4.1321    9.5982    7.2644 H   0  0  0  0  0  0  0  0  0  0  0  0
    3.6122   10.3329    8.8041 H   0  0  0  0  0  0  0  0  0  0  0  0
    0.6063    9.8446   10.0302 H   0  0  0  0  0  0  0  0  0  0  0  0
    0.2098    8.6140    8.8053 H   0  0  0  0  0  0  0  0  0  0  0  0
    0.4391    8.1405   10.5149 H   0  0  0  0  0  0  0  0  0  0  0  0
    5.4154    3.2289    4.4585 H   0  0  0  0  0  0  0  0  0  0  0  0
    5.0472    1.5128    4.0995 H   0  0  0  0  0  0  0  0  0  0  0  0
    3.2367    1.1689    2.8169 H   0  0  0  0  0  0  0  0  0  0  0  0
    0.0786    5.4371    1.4765 H   0  0  0  0  0  0  0  0  0  0  0  0
    2.2484    4.6424    2.2719 H   0  0  0  0  0  0  0  0  0  0  0  0
    0.4648   -1.4473    3.2070 H   0  0  0  0  0  0  0  0  0  0  0  0
   -0.7672   -0.2312    3.6241 H   0  0  0  0  0  0  0  0  0  0  0  0
   -0.6512   -0.8460    1.9509 H   0  0  0  0  0  0  0  0  0  0  0  0
   -3.4292    0.5102    2.2796 H   0  0  0  0  0  0  0  0  0  0  0  0
   -2.7168    1.7722    3.3220 H   0  0  0  0  0  0  0  0  0  0  0  0
   -3.4955    2.2195    1.7812 H   0  0  0  0  0  0  0  0  0  0  0  0
   -3.3843    5.2467    0.5270 H   0  0  0  0  0  0  0  0  0  0  0  0
   -2.2187    5.7978    1.7557 H   0  0  0  0  0  0  0  0  0  0  0  0
   -1.7120    5.6233    0.0491 H   0  0  0  0  0  0  0  0  0  0  0  0
  1  3  1  0  0  0  0
  1 10  1  0  0  0  0
  2  1  1  0  0  0  0
  4 15  1  0  0  0  0
  6 22  1  0  0  0  0
  7 31  1  0  0  0  0
  8 27  1  0  0  0  0
  8 32  1  0  0  0  0
  9 28  1  0  0  0  0
 10 13  1  0  0  0  0
 11 23  1  0  0  0  0
 11  1  1  0  0  0  0
 12 34  1  0  0  0  0
 12 35  1  0  0  0  0
 12 10  1  0  0  0  0
 13 36  1  0  0  0  0
 13 14  1  0  0  0  0
 14 15  2  0  0  0  0
 14 19  1  0  0  0  0
 15 16  1  0  0  0  0
 16  5  1  0  0  0  0
 16 17  2  0  0  0  0
 17  6  1  0  0  0  0
 18 17  1  0  0  0  0
 18 37  1  0  0  0  0
 19 18  2  0  0  0  0
 20  4  1  0  0  0  0
 20 41  1  0  0  0  0
 21 44  1  0  0  0  0
 21  5  1  0  0  0  0
 22 45  1  0  0  0  0
 22 47  1  0  0  0  0
 23 12  1  0  0  0  0
 24 11  1  0  0  0  0
 25 24  1  0  0  0  0
 26 25  1  0  0  0  0
 26  7  1  0  0  0  0
 27 26  2  0  0  0  0
 28 29  2  0  0  0  0
 28 27  1  0  0  0  0
 29 30  1  0  0  0  0
 30 52  1  0  0  0  0
 30 25  2  0  0  0  0
 31 53  1  0  0  0  0
 31 54  1  0  0  0  0
 32 57  1  0  0  0  0
 33  9  1  0  0  0  0
 33 60  1  0  0  0  0
 38 19  1  0  0  0  0
 39 20  1  0  0  0  0
 40 20  1  0  0  0  0
 42 21  1  0  0  0  0
 43 21  1  0  0  0  0
 46 22  1  0  0  0  0
 48 23  1  0  0  0  0
 49 23  1  0  0  0  0
 50 24  1  0  0  0  0
 51 29  1  0  0  0  0
 55 31  1  0  0  0  0
 56 32  1  0  0  0  0
 58 32  1  0  0  0  0
 59 33  1  0  0  0  0
 61 33  1  0  0  0  0
M  END
$$$$
