CSD_code = LEHYUU | q = 0 | S = 0 | Stoichiometry = C13H12ClCuN2O | MND = 4
 OpenBabel04212202063D

 30 33  0  0  1  0  0  0  0  0999 V2000
    5.2565    0.9283    8.3459 Cu  0  0  1  0  0  0  0  0  0  0  0  0
    4.8658    2.3609    9.9175 Cl  0  0  0  0  0  0  0  0  0  0  0  0
    4.9016    2.1469    6.9701 N   0  0  0  0  0  0  0  0  0  0  0  0
    5.8780   -0.1866    6.9826 N   0  0  1  0  0  0  0  0  0  0  0  0
    5.3135   -0.3358    9.5842 O   0  0  0  0  0  0  0  0  0  0  0  0
    6.2699   -1.2453    9.6246 C   0  0  0  0  0  0  0  0  0  0  0  0
    6.8464   -1.5702   10.8593 C   0  0  0  0  0  0  0  0  0  0  0  0
    6.4925   -1.0511   11.7364 H   0  0  0  0  0  0  0  0  0  0  0  0
    7.8139   -2.5505   10.9440 C   0  0  0  0  0  0  0  0  0  0  0  0
    8.2408   -2.7937   11.9061 H   0  0  0  0  0  0  0  0  0  0  0  0
    8.2518   -3.2043    9.8048 C   0  0  0  0  0  0  0  0  0  0  0  0
    9.0244   -3.9554    9.8693 H   0  0  0  0  0  0  0  0  0  0  0  0
    7.6910   -2.8896    8.5763 C   0  0  0  0  0  0  0  0  0  0  0  0
    8.0236   -3.4042    7.6853 H   0  0  0  0  0  0  0  0  0  0  0  0
    6.7003   -1.9327    8.4766 C   0  0  0  0  0  0  0  0  0  0  0  0
    6.0179   -1.6099    7.1775 C   0  0  0  0  0  0  0  0  0  0  0  0
    6.6167   -2.0054    6.3453 H   0  0  0  0  0  0  0  0  0  0  0  0
    5.0283   -2.1116    7.1507 H   0  0  0  0  0  0  0  0  0  0  0  0
    5.1744    0.1263    5.7646 C   0  0  0  0  0  0  0  0  0  0  0  0
    4.2028   -0.4043    5.6904 H   0  0  0  0  0  0  0  0  0  0  0  0
    5.7767   -0.1814    4.8985 H   0  0  0  0  0  0  0  0  0  0  0  0
    4.9178    1.5919    5.7539 C   0  0  1  0  0  3  0  0  0  0  0  0
    4.7095    2.3473    4.6085 C   0  0  0  0  0  0  0  0  0  0  0  0
    4.7304    1.8665    3.6434 H   0  0  0  0  0  0  0  0  0  0  0  0
    4.4784    3.7056    4.7313 C   0  0  0  0  0  0  0  0  0  0  0  0
    4.3095    4.3148    3.8564 H   0  0  0  0  0  0  0  0  0  0  0  0
    4.4737    4.2675    6.0001 C   0  0  0  0  0  0  0  0  0  0  0  0
    4.3009    5.3212    6.1453 H   0  0  0  0  0  0  0  0  0  0  0  0
    4.6922    3.4549    7.0962 C   0  0  0  0  0  0  0  0  0  0  0  0
    4.6904    3.8370    8.1091 H   0  0  0  0  0  0  0  0  0  0  0  0
  1  5  1  0  0  0  0
  1  2  1  1  0  0  0
  3 29  1  0  0  0  0
  3  1  1  0  0  0  0
  4 19  1  6  0  0  0
  4 16  1  0  0  0  0
  4  1  1  0  0  0  0
  5  6  1  0  0  0  0
  6  7  1  0  0  0  0
  7  9  2  0  0  0  0
  7  8  1  0  0  0  0
  9 10  1  0  0  0  0
 11 12  1  0  0  0  0
 11  9  1  0  0  0  0
 13 11  2  0  0  0  0
 14 13  1  0  0  0  0
 15 13  1  0  0  0  0
 15  6  2  0  0  0  0
 16 15  1  0  0  0  0
 17 16  1  0  0  0  0
 18 16  1  0  0  0  0
 20 19  1  0  0  0  0
 21 19  1  0  0  0  0
 22 23  1  1  0  0  0
 22 19  1  0  0  0  0
 22  3  1  0  0  0  0
 23 25  2  0  0  0  0
 24 23  1  0  0  0  0
 25 27  1  0  0  0  0
 26 25  1  0  0  0  0
 27 28  1  0  0  0  0
 27 29  2  0  0  0  0
 29 30  1  0  0  0  0
M  END
$$$$
