CSD_code = LEJXUW | q = 0 | S = 0 | Stoichiometry = C27H28IN2OPPt | MND = 6
 OpenBabel04212202063D

 61 65  0  0  1  0  0  0  0  0999 V2000
    9.7358   12.9814   10.1280 Pt  0  0  0  0  0  0  0  0  0  0  0  0
    8.3477   15.2853    9.6104 I   0  0  0  0  0  0  0  0  0  0  0  0
    7.5775   11.7567   10.2025 P   0  0  0  0  0  4  0  0  0  0  0  0
   13.1346   16.1063   12.5166 O   0  5  0  0  0  0  0  0  0  0  0  0
   12.7830   15.5860   11.4236 N   0  3  0  0  0  0  0  0  0  0  0  0
    9.8719   13.5631   12.2340 N   0  0  0  0  0  0  0  0  0  0  0  0
   11.3985   14.1321   10.0890 C   0  0  0  0  0  0  0  0  0  0  0  0
   12.1652   14.4287    8.9730 C   0  0  0  0  0  0  0  0  0  0  0  0
   11.9466   14.0016    8.0082 H   0  0  0  0  0  0  0  0  0  0  0  0
   13.2266   15.3122    9.0996 C   0  0  0  0  0  0  0  0  0  0  0  0
   13.8340   15.5722    8.2471 H   0  0  0  0  0  0  0  0  0  0  0  0
   13.5152   15.8581   10.3231 C   0  0  0  0  0  0  0  0  0  0  0  0
   14.3374   16.5357   10.4932 H   0  0  0  0  0  0  0  0  0  0  0  0
   11.6995   14.7506   11.3145 C   0  0  0  0  0  0  0  0  0  0  0  0
   10.8307   14.4832   12.4585 C   0  0  1  0  0  3  0  0  0  0  0  0
   10.9197   15.1105   13.7053 C   0  0  0  0  0  0  0  0  0  0  0  0
   11.6740   15.8630   13.8632 H   0  0  0  0  0  0  0  0  0  0  0  0
   10.0448   14.7573   14.7136 C   0  0  0  0  0  0  0  0  0  0  0  0
   10.1007   15.2482   15.6732 H   0  0  0  0  0  0  0  0  0  0  0  0
    9.1100   13.7607   14.4799 C   0  0  0  0  0  0  0  0  0  0  0  0
    8.4239   13.4308   15.2435 H   0  0  0  0  0  0  0  0  0  0  0  0
    9.0667   13.1976   13.2188 C   0  0  0  0  0  0  0  0  0  0  0  0
    8.3475   12.4200   12.9942 H   0  0  0  0  0  0  0  0  0  0  0  0
   10.9228   11.3250   10.5576 C   0  0  0  0  0  0  0  0  0  0  0  0
   10.6177   10.4543    9.9777 H   0  0  0  0  0  0  0  0  0  0  0  0
   10.8049   11.0888   11.6172 H   0  0  0  0  0  0  0  0  0  0  0  0
   11.9801   11.5091   10.3655 H   0  0  0  0  0  0  0  0  0  0  0  0
    9.8613   12.3937    8.1300 C   0  0  0  0  0  0  0  0  0  0  0  0
    9.5616   13.2142    7.4741 H   0  0  0  0  0  0  0  0  0  0  0  0
    9.2096   11.5371    7.9336 H   0  0  0  0  0  0  0  0  0  0  0  0
   10.8738   12.0862    7.8636 H   0  0  0  0  0  0  0  0  0  0  0  0
    6.4218   12.1987    8.8217 C   0  0  0  0  0  0  0  0  0  0  0  0
    6.1103   13.2270    9.0452 H   0  0  0  0  0  0  0  0  0  0  0  0
    6.9699   12.2188    7.8767 H   0  0  0  0  0  0  0  0  0  0  0  0
    5.2215   11.3190    8.7427 C   0  0  0  0  0  0  0  0  0  0  0  0
    4.6521   11.2150    9.6575 H   0  0  0  0  0  0  0  0  0  0  0  0
    4.8195   10.7130    7.6401 C   0  0  0  0  0  0  0  0  0  0  0  0
    5.3521   10.8111    6.7074 H   0  0  0  0  0  0  0  0  0  0  0  0
    3.9321   10.1045    7.6175 H   0  0  0  0  0  0  0  0  0  0  0  0
    7.8438    9.9643   10.0549 C   0  0  0  0  0  0  0  0  0  0  0  0
    8.3329    9.2911   11.1744 C   0  0  0  0  0  0  0  0  0  0  0  0
    8.4676    9.8304   12.1040 H   0  0  0  0  0  0  0  0  0  0  0  0
    8.6439    7.9476   11.1058 C   0  0  0  0  0  0  0  0  0  0  0  0
    9.0142    7.4344   11.9813 H   0  0  0  0  0  0  0  0  0  0  0  0
    8.4890    7.2625    9.9107 C   0  0  0  0  0  0  0  0  0  0  0  0
    8.7347    6.2126    9.8539 H   0  0  0  0  0  0  0  0  0  0  0  0
    8.0297    7.9299    8.7885 C   0  0  0  0  0  0  0  0  0  0  0  0
    7.9196    7.4017    7.8528 H   0  0  0  0  0  0  0  0  0  0  0  0
    7.7129    9.2758    8.8549 C   0  0  0  0  0  0  0  0  0  0  0  0
    7.3579    9.7833    7.9716 H   0  0  0  0  0  0  0  0  0  0  0  0
    6.3677   11.8790   11.5734 C   0  0  0  0  0  0  0  0  0  0  0  0
    6.0467   13.1552   12.0323 C   0  0  0  0  0  0  0  0  0  0  0  0
    6.5364   14.0213   11.6100 H   0  0  0  0  0  0  0  0  0  0  0  0
    5.1061   13.3253   13.0304 C   0  0  0  0  0  0  0  0  0  0  0  0
    4.8683   14.3201   13.3760 H   0  0  0  0  0  0  0  0  0  0  0  0
    4.4727   12.2230   13.5805 C   0  0  0  0  0  0  0  0  0  0  0  0
    3.7386   12.3528   14.3617 H   0  0  0  0  0  0  0  0  0  0  0  0
    4.7787   10.9530   13.1210 C   0  0  0  0  0  0  0  0  0  0  0  0
    4.2790   10.0908   13.5379 H   0  0  0  0  0  0  0  0  0  0  0  0
    5.7195   10.7769   12.1213 C   0  0  0  0  0  0  0  0  0  0  0  0
    5.9388    9.7809   11.7638 H   0  0  0  0  0  0  0  0  0  0  0  0
  1  3  1  0  0  0  0
  1 24  1  0  0  0  0
  1  6  1  0  0  0  0
  2  1  1  0  0  0  0
  3 51  1  0  0  0  0
  5  4  1  0  0  0  0
  6 15  1  0  0  0  0
  6 22  1  0  0  0  0
  7  1  1  0  0  0  0
  7 14  2  0  0  0  0
  8 10  2  0  0  0  0
  8  7  1  0  0  0  0
  9  8  1  0  0  0  0
 10 12  1  0  0  0  0
 11 10  1  0  0  0  0
 12 13  1  0  0  0  0
 12  5  2  0  0  0  0
 14  5  1  0  0  0  0
 15 14  1  6  0  0  0
 15 16  1  0  0  0  0
 16 17  1  0  0  0  0
 16 18  2  0  0  0  0
 18 19  1  0  0  0  0
 20 18  1  0  0  0  0
 20 21  1  0  0  0  0
 22 20  2  0  0  0  0
 23 22  1  0  0  0  0
 24 26  1  0  0  0  0
 25 24  1  0  0  0  0
 27 24  1  0  0  0  0
 28  1  1  0  0  0  0
 29 28  1  0  0  0  0
 30 28  1  0  0  0  0
 31 28  1  0  0  0  0
 32 33  1  0  0  0  0
 32  3  1  0  0  0  0
 34 32  1  0  0  0  0
 35 32  1  0  0  0  0
 35 36  1  0  0  0  0
 37 35  2  0  0  0  0
 38 37  1  0  0  0  0
 39 37  1  0  0  0  0
 40  3  1  0  0  0  0
 40 41  1  0  0  0  0
 41 42  1  0  0  0  0
 43 41  2  0  0  0  0
 43 44  1  0  0  0  0
 45 43  1  0  0  0  0
 46 45  1  0  0  0  0
 47 49  1  0  0  0  0
 47 45  2  0  0  0  0
 48 47  1  0  0  0  0
 49 40  2  0  0  0  0
 50 49  1  0  0  0  0
 51 52  2  0  0  0  0
 51 60  1  0  0  0  0
 52 54  1  0  0  0  0
 53 52  1  0  0  0  0
 54 55  1  0  0  0  0
 54 56  2  0  0  0  0
 56 57  1  0  0  0  0
 58 59  1  0  0  0  0
 58 56  1  0  0  0  0
 60 58  2  0  0  0  0
 61 60  1  0  0  0  0
M  CHG  2   4  -1   5   1
M  END
$$$$
