CSD_code = LEKNEV | q = 0 | S = 0 | Stoichiometry = C16H26Cl3O2Ta | MND = 10
 OpenBabel04212202063D

 48 49  0  0  1  0  0  0  0  0999 V2000
   22.8989    1.3706    2.2032 Ta  0  0  0  0  0  0  0  0  0  0  0  0
   22.0166    0.5643    4.1646 Cl  0  0  0  0  0  0  0  0  0  0  0  0
   24.1689   -0.5160    1.8787 Cl  0  0  0  0  0  0  0  0  0  0  0  0
   21.9072    3.4067    2.4461 Cl  0  0  0  0  0  0  0  0  0  0  0  0
   24.9815    1.8416    3.9223 O   0  0  0  0  0  0  0  0  0  0  0  0
   27.1121    2.4603    3.8226 O   0  0  0  0  0  0  0  0  0  0  0  0
   21.4065    0.6665    0.4730 C   0  0  1  0  0  0  0  0  0  0  0  0
   20.1875    1.4806    0.6894 C   0  0  0  0  0  0  0  0  0  0  0  0
   20.1712    2.4972   -0.2100 C   0  0  0  0  0  0  0  0  0  0  0  0
   21.3320    2.3822   -1.0724 C   0  0  0  0  0  0  0  0  0  0  0  0
   22.0521    1.2846   -0.7087 C   0  0  0  0  0  0  0  0  0  0  0  0
   21.2150   -0.8370    0.4758 C   0  0  0  0  0  0  0  0  0  0  0  0
   22.1528   -1.3527    0.2821 H   0  0  0  0  0  0  0  0  0  0  0  0
   20.5045   -1.1114   -0.3055 H   0  0  0  0  0  0  0  0  0  0  0  0
   20.8198   -1.1805    1.4311 H   0  0  0  0  0  0  0  0  0  0  0  0
   19.1765    1.1682    1.7466 C   0  0  0  0  0  0  0  0  0  0  0  0
   18.7192    2.0795    2.1261 H   0  0  0  0  0  0  0  0  0  0  0  0
   19.6354    0.6440    2.5838 H   0  0  0  0  0  0  0  0  0  0  0  0
   18.3844    0.5357    1.3408 H   0  0  0  0  0  0  0  0  0  0  0  0
   19.1806    3.6055   -0.3251 C   0  0  0  0  0  0  0  0  0  0  0  0
   18.8717    3.7386   -1.3606 H   0  0  0  0  0  0  0  0  0  0  0  0
   19.6293    4.5395    0.0157 H   0  0  0  0  0  0  0  0  0  0  0  0
   18.3003    3.4062    0.2787 H   0  0  0  0  0  0  0  0  0  0  0  0
   21.6226    3.3444   -2.1732 C   0  0  0  0  0  0  0  0  0  0  0  0
   21.6087    4.3653   -1.7936 H   0  0  0  0  0  0  0  0  0  0  0  0
   20.8648    3.2697   -2.9535 H   0  0  0  0  0  0  0  0  0  0  0  0
   22.5932    3.1467   -2.6193 H   0  0  0  0  0  0  0  0  0  0  0  0
   23.2204    0.6805   -1.4239 C   0  0  0  0  0  0  0  0  0  0  0  0
   23.7976    0.0414   -0.7594 H   0  0  0  0  0  0  0  0  0  0  0  0
   23.8774    1.4504   -1.8231 H   0  0  0  0  0  0  0  0  0  0  0  0
   22.8702    0.0749   -2.2617 H   0  0  0  0  0  0  0  0  0  0  0  0
   24.6480    2.4902    1.1838 C   0  0  0  0  0  0  0  0  0  0  0  0
   25.1985    1.7636    0.5821 H   0  0  0  0  0  0  0  0  0  0  0  0
   24.2329    3.2256    0.4908 H   0  0  0  0  0  0  0  0  0  0  0  0
   25.6727    3.2147    2.0681 C   0  0  0  0  0  0  0  0  0  0  0  0
   25.8834    2.4224    3.3442 C   0  0  2  0  0  3  0  0  0  0  0  0
   25.1312    4.5758    2.5397 C   0  0  0  0  0  0  0  0  0  0  0  0
   24.9572    5.2135    1.6768 H   0  0  0  0  0  0  0  0  0  0  0  0
   25.8476    5.0667    3.1955 H   0  0  0  0  0  0  0  0  0  0  0  0
   24.1904    4.4502    3.0709 H   0  0  0  0  0  0  0  0  0  0  0  0
   26.9952    3.4201    1.3218 C   0  0  0  0  0  0  0  0  0  0  0  0
   26.8095    3.9732    0.4045 H   0  0  0  0  0  0  0  0  0  0  0  0
   27.4423    2.4631    1.0652 H   0  0  0  0  0  0  0  0  0  0  0  0
   27.7018    3.9790    1.9293 H   0  0  0  0  0  0  0  0  0  0  0  0
   27.3373    1.7705    5.0492 C   0  0  0  0  0  0  0  0  0  0  0  0
   28.3980    1.8721    5.2625 H   0  0  0  0  0  0  0  0  0  0  0  0
   27.0621    0.7196    4.9453 H   0  0  0  0  0  0  0  0  0  0  0  0
   26.7384    2.2135    5.8466 H   0  0  0  0  0  0  0  0  0  0  0  0
  1  4  1  0  0  0  0
  1  5  1  0  0  0  0
  1  2  1  0  0  0  0
  3  1  1  0  0  0  0
  6 45  1  0  0  0  0
  7 12  1  6  0  0  0
  7  8  1  0  0  0  0
  7  1  1  0  0  0  0
  8 16  1  0  0  0  0
  9  8  2  0  0  0  0
 10 11  2  0  0  0  0
 10  9  1  0  0  0  0
 11  7  1  0  0  0  0
 12 15  1  0  0  0  0
 13 12  1  0  0  0  0
 14 12  1  0  0  0  0
 16 17  1  0  0  0  0
 16 18  1  0  0  0  0
 19 16  1  0  0  0  0
 20  9  1  0  0  0  0
 20 22  1  0  0  0  0
 20 23  1  0  0  0  0
 21 20  1  0  0  0  0
 24 25  1  0  0  0  0
 24 10  1  0  0  0  0
 26 24  1  0  0  0  0
 27 24  1  0  0  0  0
 28 29  1  0  0  0  0
 28 11  1  0  0  0  0
 30 28  1  0  0  0  0
 31 28  1  0  0  0  0
 32 35  1  0  0  0  0
 32  1  1  0  0  0  0
 33 32  1  0  0  0  0
 34 32  1  0  0  0  0
 35 37  1  0  0  0  0
 35 36  1  0  0  0  0
 36  6  1  1  0  0  0
 36  5  1  0  0  0  0
 37 40  1  0  0  0  0
 37 39  1  0  0  0  0
 38 37  1  0  0  0  0
 41 44  1  0  0  0  0
 41 35  1  0  0  0  0
 42 41  1  0  0  0  0
 43 41  1  0  0  0  0
 45 46  1  0  0  0  0
 45 48  1  0  0  0  0
 47 45  1  0  0  0  0
M  END
$$$$
