CSD_code = LEKNIA | q = 0 | S = 0 | Stoichiometry = C18H11ClN3O4Re | MND = 6
 OpenBabel04212202063D

 38 41  0  0  0  0  0  0  0  0999 V2000
   -0.0659    5.3481   -0.9776 C   0  0  0  0  0  0  0  0  0  0  0  0
   -1.0345    5.7118   -0.6669 H   0  0  0  0  0  0  0  0  0  0  0  0
    0.2217    5.1765   -2.3044 C   0  0  0  0  0  0  0  0  0  0  0  0
   -0.5119    5.4129   -3.0603 H   0  0  0  0  0  0  0  0  0  0  0  0
    4.5399    3.9659    2.7846 H   0  0  0  0  0  0  0  0  0  0  0  0
    3.7016    1.4907    2.3616 C   0  0  0  0  0  2  0  0  0  0  0  0
    4.0188    0.9135   -0.3431 C   0  0  0  0  0  2  0  0  0  0  0  0
    6.0860    0.2569    1.5573 C   0  0  0  0  0  2  0  0  0  0  0  0
    7.6945    2.0131   -0.7477 C   0  0  0  0  0  3  0  0  0  0  0  0
    7.9244    1.0387   -0.3369 H   0  0  0  0  0  0  0  0  0  0  0  0
    8.5988    2.6615   -1.5687 C   0  0  0  0  0  0  0  0  0  0  0  0
    9.5433    2.1953   -1.7970 H   0  0  0  0  0  0  0  0  0  0  0  0
    8.2711    3.9117   -2.0849 C   0  0  0  0  0  0  0  0  0  0  0  0
    8.9601    4.4393   -2.7262 H   0  0  0  0  0  0  0  0  0  0  0  0
    7.0517    4.4621   -1.7597 C   0  0  0  0  0  0  0  0  0  0  0  0
    6.7324    5.4275   -2.1160 H   0  0  0  0  0  0  0  0  0  0  0  0
    6.1973    3.7487   -0.9119 C   0  0  0  0  0  0  0  0  0  0  0  0
    3.1073    4.2223    0.6561 C   0  0  0  0  0  0  0  0  0  0  0  0
    2.7811    4.4159    2.0058 C   0  0  0  0  0  0  0  0  0  0  0  0
    1.4991    4.9019    2.3454 C   0  0  0  0  0  0  0  0  0  0  0  0
    1.2918    5.0339    3.3953 H   0  0  0  0  0  0  0  0  0  0  0  0
    0.5827    5.2013    1.3868 C   0  0  0  0  0  0  0  0  0  0  0  0
   -0.3923    5.5744    1.6628 H   0  0  0  0  0  0  0  0  0  0  0  0
    0.8851    5.0454    0.0147 C   0  0  0  0  0  0  0  0  0  0  0  0
    1.4730    4.6795   -2.6825 C   0  0  0  0  0  0  0  0  0  0  0  0
    1.6937    4.5301   -3.7289 H   0  0  0  0  0  0  0  0  0  0  0  0
    2.4208    4.3820   -1.7386 C   0  0  0  0  0  0  0  0  0  0  0  0
    3.3807    4.0066   -2.0592 H   0  0  0  0  0  0  0  0  0  0  0  0
    2.1652    4.5686   -0.3677 C   0  0  0  0  0  0  0  0  0  0  0  0
    6.4171    3.1332    2.5154 Cl  0  0  0  0  0  0  0  0  0  0  0  0
    6.5182    2.5322   -0.4175 N   0  0  0  0  0  0  0  0  0  0  0  0
    5.0004    4.2984   -0.5700 N   0  0  0  0  0  2  0  0  0  0  0  0
    4.3470    3.6794    0.3393 N   0  0  0  0  0  0  0  0  0  0  0  0
    2.8952    1.2812    3.1423 O   0  0  0  0  0  1  0  0  0  0  0  0
    3.3916    0.4199   -1.1674 O   0  0  0  0  0  1  0  0  0  0  0  0
    6.7863   -0.5764    1.8973 O   0  0  0  0  0  1  0  0  0  0  0  0
    3.6235    4.2543    3.0240 O   0  0  0  0  0  0  0  0  0  0  0  0
    5.0706    1.8437    1.0073 Re  0  0  0  0  0  0  0  0  0  0  0  0
  1  2  1  0  0  0  0
  1 24  1  0  0  0  0
  3  1  2  0  0  0  0
  4  3  1  0  0  0  0
  5 37  1  0  0  0  0
  6 34  1  0  0  0  0
  7 38  1  0  0  0  0
  8 36  1  0  0  0  0
  9 31  1  0  0  0  0
  9 10  1  0  0  0  0
 11  9  1  0  0  0  0
 12 11  1  0  0  0  0
 13 15  1  0  0  0  0
 13 11  2  0  0  0  0
 14 13  1  0  0  0  0
 15 17  2  0  0  0  0
 16 15  1  0  0  0  0
 17 32  1  0  0  0  0
 17 31  1  0  0  0  0
 18 19  1  0  0  0  0
 19 20  2  0  0  0  0
 19 37  1  0  0  0  0
 20 21  1  0  0  0  0
 22 23  1  0  0  0  0
 22 20  1  0  0  0  0
 24 22  2  0  0  0  0
 25  3  1  0  0  0  0
 25 27  2  0  0  0  0
 26 25  1  0  0  0  0
 27 29  1  0  0  0  0
 28 27  1  0  0  0  0
 29 24  1  0  0  0  0
 29 18  2  0  0  0  0
 31 38  1  0  0  0  0
 32 33  1  0  0  0  0
 33 18  1  0  0  0  0
 33 38  1  0  0  0  0
 35  7  1  0  0  0  0
 38  8  1  0  0  0  0
 38  6  1  0  0  0  0
 38 30  1  0  0  0  0
M  END
$$$$
