CSD_code = LEKRUP | q = 0 | S = 0 | Stoichiometry = C31H33Br2N2PPd | MND = 4
 OpenBabel04212202063D

 70 74  0  0  0  0  0  0  0  0999 V2000
    3.8013    2.9782   14.3394 Pd  0  0  0  0  0  0  0  0  0  0  0  0
    3.1014    0.8867   13.3404 Br  0  0  0  0  0  0  0  0  0  0  0  0
    1.5765    3.5383   15.1069 Br  0  0  0  0  0  0  0  0  0  0  0  0
    4.4839    4.9305   15.2439 P   0  0  0  0  0  4  0  0  0  0  0  0
    6.1570    2.7648   12.5567 N   0  0  0  0  0  0  0  0  0  0  0  0
    6.4487    1.6425   14.4144 N   0  0  0  0  0  0  0  0  0  0  0  0
    5.6024    2.4380   13.7361 C   0  0  0  0  0  0  0  0  0  0  0  0
    7.4063    2.1839   12.4684 C   0  0  0  0  0  0  0  0  0  0  0  0
    8.3917    2.2117   11.4932 C   0  0  0  0  0  0  0  0  0  0  0  0
    8.2642    2.7504   10.5691 H   0  0  0  0  0  0  0  0  0  0  0  0
    9.5607    1.5181   11.7397 C   0  0  0  0  0  0  0  0  0  0  0  0
   10.3437    1.5229   10.9971 H   0  0  0  0  0  0  0  0  0  0  0  0
    9.7500    0.8130   12.9238 C   0  0  0  0  0  0  0  0  0  0  0  0
   10.6772    0.2837   13.0814 H   0  0  0  0  0  0  0  0  0  0  0  0
    8.7752    0.7734   13.9020 C   0  0  0  0  0  0  0  0  0  0  0  0
    8.9408    0.2197   14.8116 H   0  0  0  0  0  0  0  0  0  0  0  0
    7.5954    1.4633   13.6658 C   0  0  0  0  0  0  0  0  0  0  0  0
    5.4027    3.4450   11.5128 C   0  0  0  0  0  0  0  0  0  0  0  0
    4.4347    3.7273   11.9862 H   0  0  0  0  0  0  0  0  0  0  0  0
    6.0980    4.7165   11.0373 C   0  0  0  0  0  0  0  0  0  0  0  0
    6.3869    5.3350   11.8840 H   0  0  0  0  0  0  0  0  0  0  0  0
    5.4172    5.2854   10.4094 H   0  0  0  0  0  0  0  0  0  0  0  0
    6.9863    4.4893   10.4552 H   0  0  0  0  0  0  0  0  0  0  0  0
    5.1065    2.4739   10.3720 C   0  0  0  0  0  0  0  0  0  0  0  0
    6.0251    2.1278    9.9051 H   0  0  0  0  0  0  0  0  0  0  0  0
    4.4951    2.9663    9.6209 H   0  0  0  0  0  0  0  0  0  0  0  0
    4.5599    1.6120   10.7505 H   0  0  0  0  0  0  0  0  0  0  0  0
    6.0615    0.9606   15.6427 C   0  0  0  0  0  0  0  0  0  0  0  0
    5.0271    1.3031   15.8585 H   0  0  0  0  0  0  0  0  0  0  0  0
    6.9526    1.3494   16.8196 C   0  0  0  0  0  0  0  0  0  0  0  0
    7.9908    1.0866   16.6358 H   0  0  0  0  0  0  0  0  0  0  0  0
    6.6168    0.8264   17.7108 H   0  0  0  0  0  0  0  0  0  0  0  0
    6.8919    2.4186   17.0170 H   0  0  0  0  0  0  0  0  0  0  0  0
    6.0149   -0.5479   15.4123 C   0  0  0  0  0  0  0  0  0  0  0  0
    5.3483   -0.7726   14.5822 H   0  0  0  0  0  0  0  0  0  0  0  0
    5.6299   -1.0392   16.3014 H   0  0  0  0  0  0  0  0  0  0  0  0
    7.0002   -0.9480   15.1904 H   0  0  0  0  0  0  0  0  0  0  0  0
    3.3415    6.3252   15.0378 C   0  0  0  0  0  0  0  0  0  0  0  0
    2.7493    6.4439   13.7816 C   0  0  0  0  0  0  0  0  0  0  0  0
    2.9667    5.6978   13.0180 H   0  0  0  0  0  0  0  0  0  0  0  0
    1.8679    7.4744   13.5260 C   0  0  0  0  0  0  0  0  0  0  0  0
    1.4028    7.5613   12.5554 H   0  0  0  0  0  0  0  0  0  0  0  0
    1.5674    8.3856   14.5277 C   0  0  0  0  0  0  0  0  0  0  0  0
    0.8691    9.1860   14.3340 H   0  0  0  0  0  0  0  0  0  0  0  0
    2.1444    8.2608   15.7798 C   0  0  0  0  0  0  0  0  0  0  0  0
    1.8949    8.9620   16.5624 H   0  0  0  0  0  0  0  0  0  0  0  0
    3.0336    7.2321   16.0416 C   0  0  0  0  0  0  0  0  0  0  0  0
    3.4695    7.1253   17.0248 H   0  0  0  0  0  0  0  0  0  0  0  0
    6.0741    5.6535   14.7062 C   0  0  0  0  0  0  0  0  0  0  0  0
    6.1594    6.8648   14.0281 C   0  0  0  0  0  0  0  0  0  0  0  0
    5.2681    7.4527   13.8585 H   0  0  0  0  0  0  0  0  0  0  0  0
    7.3849    7.3201   13.5705 C   0  0  0  0  0  0  0  0  0  0  0  0
    7.4421    8.2643   13.0491 H   0  0  0  0  0  0  0  0  0  0  0  0
    8.5300    6.5676   13.7704 C   0  0  0  0  0  0  0  0  0  0  0  0
    9.4811    6.9207   13.4016 H   0  0  0  0  0  0  0  0  0  0  0  0
    8.4530    5.3599   14.4472 C   0  0  0  0  0  0  0  0  0  0  0  0
    9.3427    4.7686   14.6078 H   0  0  0  0  0  0  0  0  0  0  0  0
    7.2340    4.9102   14.9140 C   0  0  0  0  0  0  0  0  0  0  0  0
    7.1729    3.9755   15.4548 H   0  0  0  0  0  0  0  0  0  0  0  0
    4.7568    4.7267   17.0271 C   0  0  0  0  0  0  0  0  0  0  0  0
    4.2091    3.6118   17.6556 C   0  0  0  0  0  0  0  0  0  0  0  0
    3.6118    2.9016   17.0814 H   0  0  0  0  0  0  0  0  0  0  0  0
    4.4074    3.4119   19.0098 C   0  0  0  0  0  0  0  0  0  0  0  0
    3.9762    2.5493   19.4952 H   0  0  0  0  0  0  0  0  0  0  0  0
    5.1571    4.3198   19.7395 C   0  0  0  0  0  0  0  0  0  0  0  0
    5.3123    4.1655   20.7969 H   0  0  0  0  0  0  0  0  0  0  0  0
    5.7125    5.4264   19.1153 C   0  0  0  0  0  0  0  0  0  0  0  0
    6.3000    6.1311   19.6856 H   0  0  0  0  0  0  0  0  0  0  0  0
    5.5177    5.6325   17.7622 C   0  0  0  0  0  0  0  0  0  0  0  0
    5.9602    6.4884   17.2695 H   0  0  0  0  0  0  0  0  0  0  0  0
  1  3  1  0  0  0  0
  1  4  1  0  0  0  0
  2  1  1  0  0  0  0
  4 60  1  0  0  0  0
  5  7  1  0  0  0  0
  6 28  1  0  0  0  0
  7  1  2  0  0  0  0
  7  6  1  0  0  0  0
  8  5  1  0  0  0  0
  8 17  1  0  0  0  0
  9 11  1  0  0  0  0
  9  8  2  0  0  0  0
 10  9  1  0  0  0  0
 11 13  2  0  0  0  0
 12 11  1  0  0  0  0
 13 14  1  0  0  0  0
 13 15  1  0  0  0  0
 15 16  1  0  0  0  0
 17 15  2  0  0  0  0
 17  6  1  0  0  0  0
 18 19  1  0  0  0  0
 18  5  1  0  0  0  0
 20 18  1  0  0  0  0
 20 21  1  0  0  0  0
 22 20  1  0  0  0  0
 23 20  1  0  0  0  0
 24 27  1  0  0  0  0
 24 18  1  0  0  0  0
 25 24  1  0  0  0  0
 26 24  1  0  0  0  0
 28 29  1  0  0  0  0
 28 30  1  0  0  0  0
 30 33  1  0  0  0  0
 30 32  1  0  0  0  0
 31 30  1  0  0  0  0
 34 28  1  0  0  0  0
 34 36  1  0  0  0  0
 35 34  1  0  0  0  0
 37 34  1  0  0  0  0
 38  4  1  0  0  0  0
 38 47  1  0  0  0  0
 39 38  2  0  0  0  0
 40 39  1  0  0  0  0
 41 39  1  0  0  0  0
 41 43  2  0  0  0  0
 42 41  1  0  0  0  0
 43 45  1  0  0  0  0
 44 43  1  0  0  0  0
 45 47  2  0  0  0  0
 45 46  1  0  0  0  0
 47 48  1  0  0  0  0
 49 58  1  0  0  0  0
 49  4  1  0  0  0  0
 50 49  2  0  0  0  0
 51 50  1  0  0  0  0
 52 54  2  0  0  0  0
 52 50  1  0  0  0  0
 53 52  1  0  0  0  0
 54 56  1  0  0  0  0
 55 54  1  0  0  0  0
 56 57  1  0  0  0  0
 56 58  2  0  0  0  0
 58 59  1  0  0  0  0
 60 61  2  0  0  0  0
 60 69  1  0  0  0  0
 61 63  1  0  0  0  0
 62 61  1  0  0  0  0
 63 64  1  0  0  0  0
 63 65  2  0  0  0  0
 65 66  1  0  0  0  0
 67 68  1  0  0  0  0
 67 65  1  0  0  0  0
 69 67  2  0  0  0  0
 70 69  1  0  0  0  0
M  END
$$$$
