CSD_code = LEKTEC | q = 0 | S = 0 | Stoichiometry = C13H12HgI2N2 | MND = 4
 OpenBabel04212202063D

 30 30  0  0  0  0  0  0  0  0999 V2000
    7.3633    1.5387   11.1579 C   0  0  0  0  0  0  0  0  0  0  0  0
    7.6037    1.9568   12.4676 C   0  0  0  0  0  0  0  0  0  0  0  0
    7.2453    2.9199   12.7974 H   0  0  0  0  0  0  0  0  0  0  0  0
    8.2982    1.1224   13.3249 C   0  0  0  0  0  0  0  0  0  0  0  0
    8.4972    1.4232   14.3425 H   0  0  0  0  0  0  0  0  0  0  0  0
    8.7315   -0.1051   12.8500 C   0  0  0  0  0  0  0  0  0  0  0  0
    9.2752   -0.7904   13.4798 H   0  0  0  0  0  0  0  0  0  0  0  0
    8.4525   -0.4406   11.5328 C   0  0  0  0  0  0  0  0  0  0  0  0
    8.7750   -1.3906   11.1261 H   0  0  0  0  0  0  0  0  0  0  0  0
    6.6280    2.3991   10.2461 C   0  0  0  0  0  0  0  0  0  0  0  0
    6.3631    3.3869   10.6308 H   0  0  0  0  0  0  0  0  0  0  0  0
    5.6423    2.8565    8.1856 C   0  0  0  0  0  0  0  0  0  0  0  0
    5.9180    4.2233    8.1011 C   0  0  0  0  0  0  0  0  0  0  0  0
    6.6702    4.6611    8.7412 H   0  0  0  0  0  0  0  0  0  0  0  0
    5.2845    4.9968    7.1511 C   0  0  0  0  0  0  0  0  0  0  0  0
    5.5221    6.0484    7.0802 H   0  0  0  0  0  0  0  0  0  0  0  0
    4.3521    4.4455    6.2776 C   0  0  0  0  0  0  0  0  0  0  0  0
    4.0822    3.0824    6.3677 C   0  0  0  0  0  0  0  0  0  0  0  0
    3.3651    2.6353    5.6952 H   0  0  0  0  0  0  0  0  0  0  0  0
    4.7255    2.2925    7.2952 C   0  0  0  0  0  0  0  0  0  0  0  0
    4.4996    1.2367    7.3655 H   0  0  0  0  0  0  0  0  0  0  0  0
    3.6850    5.2888    5.2391 C   0  0  0  0  0  0  0  0  0  0  0  0
    4.2682    5.2670    4.3177 H   0  0  0  0  0  0  0  0  0  0  0  0
    3.6113    6.3234    5.5651 H   0  0  0  0  0  0  0  0  0  0  0  0
    2.6899    4.9129    5.0139 H   0  0  0  0  0  0  0  0  0  0  0  0
    7.3103   -0.1455    8.2609 Hg  0  0  0  0  0  0  0  0  0  0  0  0
    5.4570   -1.9554    8.5726 I   0  0  0  0  0  0  0  0  0  0  0  0
    9.3788    0.9765    7.1235 I   0  0  0  0  0  0  0  0  0  0  0  0
    7.7925    0.3525   10.7068 N   0  0  0  0  0  0  0  0  0  0  0  0
    6.2889    2.0140    9.0794 N   0  0  0  0  0  0  0  0  0  0  0  0
  1  2  1  0  0  0  0
  2  3  1  0  0  0  0
  2  4  2  0  0  0  0
  4  5  1  0  0  0  0
  6  4  1  0  0  0  0
  6  7  1  0  0  0  0
  8  6  2  0  0  0  0
  9  8  1  0  0  0  0
 10 11  1  0  0  0  0
 10  1  1  0  0  0  0
 12 30  1  0  0  0  0
 13 12  1  0  0  0  0
 13 14  1  0  0  0  0
 15 13  2  0  0  0  0
 16 15  1  0  0  0  0
 17 18  2  0  0  0  0
 17 15  1  0  0  0  0
 18 20  1  0  0  0  0
 19 18  1  0  0  0  0
 20 21  1  0  0  0  0
 20 12  2  0  0  0  0
 22 24  1  0  0  0  0
 22 17  1  0  0  0  0
 23 22  1  0  0  0  0
 25 22  1  0  0  0  0
 26 27  1  0  0  0  0
 28 26  1  0  0  0  0
 29  1  2  0  0  0  0
 29  8  1  0  0  0  0
 30 10  2  0  0  0  0
M  END
$$$$
