CSD_code = LEKTAY | q = 0 | S = 0 | Stoichiometry = C13H12Br2HgN2 | MND = 4
 OpenBabel04212202063D

 30 30  0  0  0  0  0  0  0  0999 V2000
    1.4645   10.4535    5.1416 Hg  0  0  0  0  0  0  0  0  0  0  0  0
    3.2093    9.9944    6.7815 Br  0  0  0  0  0  0  0  0  0  0  0  0
   -0.4212   11.5886    4.0883 Br  0  0  0  0  0  0  0  0  0  0  0  0
    0.8373    8.0610    4.6177 N   0  0  0  0  0  0  0  0  0  0  0  0
    2.4449    9.6224    2.9830 N   0  0  0  0  0  0  0  0  0  0  0  0
    1.2727    7.5911    3.4407 C   0  0  0  0  0  0  0  0  0  0  0  0
    0.9796    6.2944    3.0151 C   0  0  0  0  0  0  0  0  0  0  0  0
    1.3452    5.9476    2.0608 H   0  0  0  0  0  0  0  0  0  0  0  0
    0.2237    5.4713    3.8304 C   0  0  0  0  0  0  0  0  0  0  0  0
   -0.0161    4.4644    3.5232 H   0  0  0  0  0  0  0  0  0  0  0  0
   -0.2175    5.9664    5.0469 C   0  0  0  0  0  0  0  0  0  0  0  0
   -0.8086    5.3633    5.7168 H   0  0  0  0  0  0  0  0  0  0  0  0
    0.1171    7.2683    5.3926 C   0  0  0  0  0  0  0  0  0  0  0  0
   -0.2090    7.6898    6.3347 H   0  0  0  0  0  0  0  0  0  0  0  0
    2.0717    8.4656    2.5980 C   0  0  0  0  0  0  0  0  0  0  0  0
    2.3535    8.0605    1.6234 H   0  0  0  0  0  0  0  0  0  0  0  0
    3.1621   10.4791    2.1599 C   0  0  0  0  0  0  0  0  0  0  0  0
    2.9760   10.5381    0.7765 C   0  0  0  0  0  0  0  0  0  0  0  0
    2.2337    9.9109    0.3053 H   0  0  0  0  0  0  0  0  0  0  0  0
    3.6877   11.4482    0.0230 C   0  0  0  0  0  0  0  0  0  0  0  0
    3.5200   11.4992   -1.0430 H   0  0  0  0  0  0  0  0  0  0  0  0
    4.6107   12.3068    0.6121 C   0  0  0  0  0  0  0  0  0  0  0  0
    4.7896   12.2446    1.9921 C   0  0  0  0  0  0  0  0  0  0  0  0
    5.4972   12.9074    2.4676 H   0  0  0  0  0  0  0  0  0  0  0  0
    4.0683   11.3573    2.7604 C   0  0  0  0  0  0  0  0  0  0  0  0
    4.2234   11.3066    3.8310 H   0  0  0  0  0  0  0  0  0  0  0  0
    5.3646   13.3021   -0.2097 C   0  0  0  0  0  0  0  0  0  0  0  0
    6.3571   13.4719    0.2009 H   0  0  0  0  0  0  0  0  0  0  0  0
    4.8350   14.2554   -0.2094 H   0  0  0  0  0  0  0  0  0  0  0  0
    5.4563   12.9683   -1.2403 H   0  0  0  0  0  0  0  0  0  0  0  0
  1  2  1  0  0  0  0
  3  1  1  0  0  0  0
  4 13  1  0  0  0  0
  6  4  2  0  0  0  0
  7  6  1  0  0  0  0
  7  9  2  0  0  0  0
  8  7  1  0  0  0  0
  9 11  1  0  0  0  0
 10  9  1  0  0  0  0
 11 13  2  0  0  0  0
 11 12  1  0  0  0  0
 13 14  1  0  0  0  0
 15  5  2  0  0  0  0
 15  6  1  0  0  0  0
 16 15  1  0  0  0  0
 17 25  1  0  0  0  0
 17  5  1  0  0  0  0
 18 17  2  0  0  0  0
 19 18  1  0  0  0  0
 20 22  2  0  0  0  0
 20 18  1  0  0  0  0
 21 20  1  0  0  0  0
 22 23  1  0  0  0  0
 23 24  1  0  0  0  0
 23 25  2  0  0  0  0
 25 26  1  0  0  0  0
 27 29  1  0  0  0  0
 27 28  1  0  0  0  0
 27 22  1  0  0  0  0
 30 27  1  0  0  0  0
M  END
$$$$
