CSD_code = LEKXAC | q = 0 | S = 0 | Stoichiometry = C18H43ClNiP2 | MND = 4
 OpenBabel04212202063D

 65 64  0  0  0  0  0  0  0  0999 V2000
    3.5523    0.0068    7.8657 Ni  0  0  0  0  0  0  0  0  0  0  0  0
    3.4257   -1.0119    8.8416 H   0  0  0  0  0  0  0  0  0  0  0  0
    3.7452    1.5169    6.4200 Cl  0  0  0  0  0  0  0  0  0  0  0  0
    2.6878   -1.3672    6.4049 P   0  0  0  0  0  4  0  0  0  0  0  0
    4.3989    1.2986    9.4098 P   0  0  0  0  0  4  0  0  0  0  0  0
    6.4949   -0.4881    9.8681 C   0  0  0  0  0  0  0  0  0  0  0  0
    6.0079   -0.9525    9.0068 H   0  0  0  0  0  0  0  0  0  0  0  0
    6.8783   -1.2774   10.5131 H   0  0  0  0  0  0  0  0  0  0  0  0
    7.3372    0.0980    9.5120 H   0  0  0  0  0  0  0  0  0  0  0  0
    5.4838    0.3734   10.6224 C   0  0  0  0  0  0  0  0  0  0  0  0
    4.7665   -0.3154   11.0865 H   0  0  0  0  0  0  0  0  0  0  0  0
    6.1497    1.1889   11.7223 C   0  0  0  0  0  0  0  0  0  0  0  0
    6.9577    1.7986   11.3261 H   0  0  0  0  0  0  0  0  0  0  0  0
    6.5787    0.5151   12.4641 H   0  0  0  0  0  0  0  0  0  0  0  0
    5.4329    1.8330   12.2271 H   0  0  0  0  0  0  0  0  0  0  0  0
    2.3532    0.8526   11.2932 C   0  0  0  0  0  0  0  0  0  0  0  0
    2.1358   -0.0121   10.6658 H   0  0  0  0  0  0  0  0  0  0  0  0
    1.4161    1.2130   11.7154 H   0  0  0  0  0  0  0  0  0  0  0  0
    2.9929    0.5389   12.1147 H   0  0  0  0  0  0  0  0  0  0  0  0
    3.0039    1.9526   10.4611 C   0  0  0  0  0  0  0  0  0  0  0  0
    3.3849    2.7291   11.1318 H   0  0  0  0  0  0  0  0  0  0  0  0
    1.9846    2.5501    9.4926 C   0  0  0  0  0  0  0  0  0  0  0  0
    2.4015    3.3932    8.9456 H   0  0  0  0  0  0  0  0  0  0  0  0
    1.0919    2.8857   10.0190 H   0  0  0  0  0  0  0  0  0  0  0  0
    1.6917    1.7876    8.7636 H   0  0  0  0  0  0  0  0  0  0  0  0
    6.6090    2.5066    8.2282 C   0  0  0  0  0  0  0  0  0  0  0  0
    7.3538    2.2692    8.9847 H   0  0  0  0  0  0  0  0  0  0  0  0
    6.9797    3.3444    7.6397 H   0  0  0  0  0  0  0  0  0  0  0  0
    6.4921    1.6532    7.5609 H   0  0  0  0  0  0  0  0  0  0  0  0
    5.2657    2.8631    8.8601 C   0  0  0  0  0  0  0  0  0  0  0  0
    4.6179    3.2202    8.0497 H   0  0  0  0  0  0  0  0  0  0  0  0
    5.4136    3.9934    9.8735 C   0  0  0  0  0  0  0  0  0  0  0  0
    4.4482    4.3658   10.2068 H   0  0  0  0  0  0  0  0  0  0  0  0
    5.9337    4.8202    9.3902 H   0  0  0  0  0  0  0  0  0  0  0  0
    5.9941    3.6984   10.7420 H   0  0  0  0  0  0  0  0  0  0  0  0
    0.3399   -1.5927    7.8983 C   0  0  0  0  0  0  0  0  0  0  0  0
    0.8734   -0.8237    8.4629 H   0  0  0  0  0  0  0  0  0  0  0  0
   -0.2245   -2.2049    8.6001 H   0  0  0  0  0  0  0  0  0  0  0  0
   -0.3648   -1.1032    7.2322 H   0  0  0  0  0  0  0  0  0  0  0  0
    1.3442   -2.4498    7.1301 C   0  0  0  0  0  0  0  0  0  0  0  0
    1.9005   -3.0298    7.8773 H   0  0  0  0  0  0  0  0  0  0  0  0
    0.6488   -3.4208    6.1859 C   0  0  0  0  0  0  0  0  0  0  0  0
   -0.0159   -2.8981    5.5029 H   0  0  0  0  0  0  0  0  0  0  0  0
    0.0439   -4.1189    6.7647 H   0  0  0  0  0  0  0  0  0  0  0  0
    1.3692   -3.9972    5.6094 H   0  0  0  0  0  0  0  0  0  0  0  0
    0.8231    0.1399    4.9933 C   0  0  0  0  0  0  0  0  0  0  0  0
   -0.0377   -0.5165    5.1008 H   0  0  0  0  0  0  0  0  0  0  0  0
    0.6421    0.7989    4.1456 H   0  0  0  0  0  0  0  0  0  0  0  0
    0.9153    0.7585    5.8857 H   0  0  0  0  0  0  0  0  0  0  0  0
    2.1077   -0.6556    4.7744 C   0  0  0  0  0  0  0  0  0  0  0  0
    2.8955    0.0711    4.5396 H   0  0  0  0  0  0  0  0  0  0  0  0
    1.9759   -1.6028    3.5862 C   0  0  0  0  0  0  0  0  0  0  0  0
    2.9291   -2.0527    3.3206 H   0  0  0  0  0  0  0  0  0  0  0  0
    1.6353   -1.0267    2.7259 H   0  0  0  0  0  0  0  0  0  0  0  0
    1.2529   -2.3927    3.7640 H   0  0  0  0  0  0  0  0  0  0  0  0
    5.2111   -1.7361    5.4574 C   0  0  0  0  0  0  0  0  0  0  0  0
    4.9810   -1.1110    4.5970 H   0  0  0  0  0  0  0  0  0  0  0  0
    6.0634   -2.3674    5.2090 H   0  0  0  0  0  0  0  0  0  0  0  0
    5.4959   -1.0782    6.2849 H   0  0  0  0  0  0  0  0  0  0  0  0
    4.0061   -2.5763    5.8768 C   0  0  0  0  0  0  0  0  0  0  0  0
    3.6438   -3.1639    5.0274 H   0  0  0  0  0  0  0  0  0  0  0  0
    4.3964   -3.5239    7.0061 C   0  0  0  0  0  0  0  0  0  0  0  0
    4.5839   -2.9597    7.9199 H   0  0  0  0  0  0  0  0  0  0  0  0
    5.3074   -4.0594    6.7417 H   0  0  0  0  0  0  0  0  0  0  0  0
    3.6191   -4.2592    7.2000 H   0  0  0  0  0  0  0  0  0  0  0  0
  1  2  1  0  0  0  0
  1  5  1  0  0  0  0
  3  1  1  0  0  0  0
  4 40  1  0  0  0  0
  4  1  1  0  0  0  0
  5 20  1  0  0  0  0
  5 10  1  0  0  0  0
  6  8  1  0  0  0  0
  6 10  1  0  0  0  0
  7  6  1  0  0  0  0
  9  6  1  0  0  0  0
 10 11  1  0  0  0  0
 10 12  1  0  0  0  0
 12 15  1  0  0  0  0
 12 14  1  0  0  0  0
 13 12  1  0  0  0  0
 16 18  1  0  0  0  0
 16 19  1  0  0  0  0
 17 16  1  0  0  0  0
 20 21  1  0  0  0  0
 20 16  1  0  0  0  0
 22 24  1  0  0  0  0
 22 20  1  0  0  0  0
 23 22  1  0  0  0  0
 25 22  1  0  0  0  0
 26 30  1  0  0  0  0
 26 27  1  0  0  0  0
 28 26  1  0  0  0  0
 29 26  1  0  0  0  0
 30  5  1  0  0  0  0
 30 32  1  0  0  0  0
 31 30  1  0  0  0  0
 32 33  1  0  0  0  0
 32 35  1  0  0  0  0
 34 32  1  0  0  0  0
 36 37  1  0  0  0  0
 36 38  1  0  0  0  0
 39 36  1  0  0  0  0
 40 41  1  0  0  0  0
 40 36  1  0  0  0  0
 42 44  1  0  0  0  0
 42 40  1  0  0  0  0
 43 42  1  0  0  0  0
 45 42  1  0  0  0  0
 46 47  1  0  0  0  0
 46 49  1  0  0  0  0
 48 46  1  0  0  0  0
 50 46  1  0  0  0  0
 50  4  1  0  0  0  0
 51 50  1  0  0  0  0
 52 55  1  0  0  0  0
 52 50  1  0  0  0  0
 53 52  1  0  0  0  0
 54 52  1  0  0  0  0
 56 60  1  0  0  0  0
 56 59  1  0  0  0  0
 57 56  1  0  0  0  0
 58 56  1  0  0  0  0
 60  4  1  0  0  0  0
 60 62  1  0  0  0  0
 61 60  1  0  0  0  0
 62 65  1  0  0  0  0
 62 63  1  0  0  0  0
 64 62  1  0  0  0  0
M  END
$$$$
