CSD_code = LEMLIY | q = 0 | S = 0 | Stoichiometry = C22H21ClZr | MND = 13
 OpenBabel04212202063D

 45 48  0  0  1  0  0  0  0  0999 V2000
    6.4086    0.0160    4.6767 Zr  0  0  0  0  0  0  0  0  0  0  0  0
    7.0814    1.2306    2.7407 Cl  0  0  0  0  0  0  0  0  0  0  0  0
    8.8202    0.0265    5.6060 C   0  0  0  0  0  0  0  0  0  0  0  0
    8.0481   -0.8568    6.3937 C   0  0  0  0  0  3  0  0  0  0  0  0
    7.6403   -1.9323    5.5740 C   0  0  0  0  0  0  0  0  0  0  0  0
    8.1678   -1.7117    4.2767 C   0  0  0  0  0  0  0  0  0  0  0  0
    8.9031   -0.5090    4.3082 C   0  0  0  0  0  0  0  0  0  0  0  0
    5.3972    0.8569    6.7672 C   0  0  0  0  0  3  0  0  0  0  0  0
    6.5709    1.6468    6.7807 C   0  0  0  0  0  0  0  0  0  0  0  0
    6.5423    2.4984    5.6687 C   0  0  0  0  0  0  0  0  0  0  0  0
    5.3237    2.2877    4.9862 C   0  0  0  0  0  3  0  0  0  0  0  0
    4.5869    1.3059    5.6852 C   0  0  1  0  0  0  0  0  0  0  0  0
    3.3666    0.5729    5.1479 C   0  0  0  0  0  0  0  0  0  0  0  0
    2.4208    0.1045    6.2609 C   0  0  0  0  0  0  0  0  0  0  0  0
    2.5442    1.4538    4.1963 C   0  0  0  0  0  0  0  0  0  0  0  0
    4.0507   -0.5662    4.3930 C   0  0  1  0  0  0  0  0  0  0  0  0
    4.5665   -0.4204    3.0757 C   0  0  0  0  0  0  0  0  0  0  0  0
    5.3193   -1.5545    2.7247 C   0  0  0  0  0  0  0  0  0  0  0  0
    5.2426   -2.4722    3.7986 C   0  0  0  0  0  0  0  0  0  0  0  0
    4.5153   -1.8337    4.8816 C   0  0  0  0  0  0  0  0  0  0  0  0
    4.2943   -2.5810    6.0594 C   0  0  0  0  0  0  0  0  0  0  0  0
    4.7258   -3.8832    6.1325 C   0  0  0  0  0  0  0  0  0  0  0  0
    5.3823   -4.5062    5.0581 C   0  0  0  0  0  0  0  0  0  0  0  0
    5.6473   -3.8129    3.9046 C   0  0  0  0  0  0  0  0  0  0  0  0
    9.3564    0.8984    5.9595 H   0  0  0  0  0  0  0  0  0  0  0  0
    7.9264   -0.8142    7.4689 H   0  0  0  0  0  0  0  0  0  0  0  0
    7.1831   -2.8461    5.9293 H   0  0  0  0  0  0  0  0  0  0  0  0
    8.1489   -2.4133    3.4520 H   0  0  0  0  0  0  0  0  0  0  0  0
    9.5017   -0.1135    3.4988 H   0  0  0  0  0  0  0  0  0  0  0  0
    5.0945    0.1883    7.5655 H   0  0  0  0  0  0  0  0  0  0  0  0
    7.3038    1.6732    7.5757 H   0  0  0  0  0  0  0  0  0  0  0  0
    7.2676    3.2651    5.4315 H   0  0  0  0  0  0  0  0  0  0  0  0
    4.9844    2.8765    4.1444 H   0  0  0  0  0  0  0  0  0  0  0  0
    1.7411   -0.6536    5.8789 H   0  0  0  0  0  0  0  0  0  0  0  0
    2.9557   -0.3014    7.1123 H   0  0  0  0  0  0  0  0  0  0  0  0
    1.8339    0.9485    6.6169 H   0  0  0  0  0  0  0  0  0  0  0  0
    1.7204    0.8754    3.7839 H   0  0  0  0  0  0  0  0  0  0  0  0
    2.1353    2.3004    4.7439 H   0  0  0  0  0  0  0  0  0  0  0  0
    3.1370    1.8415    3.3735 H   0  0  0  0  0  0  0  0  0  0  0  0
    4.3252    0.3749    2.3800 H   0  0  0  0  0  0  0  0  0  0  0  0
    5.7293   -1.7551    1.7444 H   0  0  0  0  0  0  0  0  0  0  0  0
    3.7478   -2.1671    6.8932 H   0  0  0  0  0  0  0  0  0  0  0  0
    4.5377   -4.4547    7.0299 H   0  0  0  0  0  0  0  0  0  0  0  0
    5.6696   -5.5431    5.1476 H   0  0  0  0  0  0  0  0  0  0  0  0
    6.1382   -4.2933    3.0694 H   0  0  0  0  0  0  0  0  0  0  0  0
  1 12  1  0  0  0  0
  2  1  1  0  0  0  0
  3 25  1  0  0  0  0
  3  4  1  0  0  0  0
  4 26  1  0  0  0  0
  5 27  1  0  0  0  0
  5  4  1  0  0  0  0
  6  7  1  0  0  0  0
  6  5  2  0  0  0  0
  7  3  2  0  0  0  0
  8  9  1  0  0  0  0
  8 30  1  0  0  0  0
  9 31  1  0  0  0  0
 10  9  2  0  0  0  0
 11 10  1  0  0  0  0
 12 11  1  6  0  0  0
 12  8  1  0  0  0  0
 13 12  1  0  0  0  0
 13 14  1  0  0  0  0
 14 36  1  0  0  0  0
 14 35  1  0  0  0  0
 15 38  1  0  0  0  0
 15 13  1  0  0  0  0
 16 17  1  6  0  0  0
 16  1  1  0  0  0  0
 16 20  1  0  0  0  0
 16 13  1  0  0  0  0
 18 17  2  0  0  0  0
 18 19  1  0  0  0  0
 19 24  2  0  0  0  0
 19 20  1  0  0  0  0
 20 21  2  0  0  0  0
 21 22  1  0  0  0  0
 21 42  1  0  0  0  0
 22 43  1  0  0  0  0
 23 44  1  0  0  0  0
 23 22  2  0  0  0  0
 24 23  1  0  0  0  0
 28  6  1  0  0  0  0
 29  7  1  0  0  0  0
 32 10  1  0  0  0  0
 33 11  1  0  0  0  0
 34 14  1  0  0  0  0
 37 15  1  0  0  0  0
 39 15  1  0  0  0  0
 40 17  1  0  0  0  0
 41 18  1  0  0  0  0
 45 24  1  0  0  0  0
M  END
$$$$
