CSD_code = LEMSIG | q = 0 | S = 0 | Stoichiometry = C21H27Cl3IrN3 | MND = 6
 OpenBabel04212202063D

 55 56  0  0  1  0  0  0  0  0999 V2000
    3.7036    6.2744    9.3581 Ir  0  0  0  0  0  0  0  0  0  0  0  0
    3.8117    8.4721    8.5816 Cl  0  0  0  0  0 15  0  0  0  0  0  0
    3.9786    5.7971    7.4109 C   0  0  1  0  0  3  0  0  0  0  0  0
    3.0719    5.5767    6.4317 N   0  0  0  0  0  0  0  0  0  0  0  0
    5.1877    5.7978    6.8028 N   0  0  0  0  0  0  0  0  0  0  0  0
    6.3575    5.4637    4.3858 Cl  0  0  0  0  0  0  0  0  0  0  0  0
    3.7107    5.4340    5.2231 C   0  0  0  0  0  0  0  0  0  0  0  0
    2.8920    5.1380    3.7612 Cl  0  0  0  0  0  0  0  0  0  0  0  0
    5.0462    5.5599    5.4600 C   0  0  0  0  0  0  0  0  0  0  0  0
    6.4347    6.0119    7.4848 C   0  0  0  0  0  0  0  0  0  0  0  0
    6.2395    6.6842    8.3265 H   0  0  0  0  0  0  0  0  0  0  0  0
    7.1325    6.4978    6.7953 H   0  0  0  0  0  0  0  0  0  0  0  0
    1.6427    5.6812    6.5981 C   0  0  0  0  0  0  0  0  0  0  0  0
    1.4170    5.4318    7.6369 H   0  0  0  0  0  0  0  0  0  0  0  0
    1.1555    4.9645    5.9322 H   0  0  0  0  0  0  0  0  0  0  0  0
    1.1697    7.1066    6.3054 C   0  0  0  0  0  0  0  0  0  0  0  0
    1.7511    7.7931    6.9239 H   0  0  0  0  0  0  0  0  0  0  0  0
    1.3610    7.3477    5.2580 H   0  0  0  0  0  0  0  0  0  0  0  0
    7.0291    4.7161    7.9792 C   0  0  0  0  0  0  0  0  0  0  0  0
    6.6609    3.6133    7.3444 N   0  0  0  0  0  0  0  0  0  0  0  0
    7.1547    2.4558    7.7466 C   0  0  0  0  0  0  0  0  0  0  0  0
    6.8159    1.5905    7.1922 H   0  0  0  0  0  0  0  0  0  0  0  0
    8.0429    2.3332    8.8029 C   0  0  0  0  0  0  0  0  0  0  0  0
    8.4177    1.3661    9.0983 H   0  0  0  0  0  0  0  0  0  0  0  0
    8.4316    3.4878    9.4661 C   0  0  0  0  0  0  0  0  0  0  0  0
    9.1207    3.4393   10.2968 H   0  0  0  0  0  0  0  0  0  0  0  0
    7.9173    4.7033    9.0500 C   0  0  0  0  0  0  0  0  0  0  0  0
    8.1896    5.6240    9.5416 H   0  0  0  0  0  0  0  0  0  0  0  0
   -0.3148    7.2783    6.6101 C   0  0  0  0  0  0  0  0  0  0  0  0
   -0.8984    6.5850    5.9991 H   0  0  0  0  0  0  0  0  0  0  0  0
   -0.4953    7.0336    7.6587 H   0  0  0  0  0  0  0  0  0  0  0  0
   -0.7698    8.7067    6.3397 C   0  0  0  0  0  0  0  0  0  0  0  0
   -0.1948    9.4037    6.9442 H   0  0  0  0  0  0  0  0  0  0  0  0
   -1.8234    8.8266    6.5802 H   0  0  0  0  0  0  0  0  0  0  0  0
   -0.6248    8.9623    5.2925 H   0  0  0  0  0  0  0  0  0  0  0  0
    4.2824    4.3929   10.1656 C   0  0  0  0  0  3  0  0  0  0  0  0
    4.8998    3.8331    9.4672 H   0  0  0  0  0  0  0  0  0  0  0  0
    2.8985    4.3945    9.9081 C   0  0  1  0  0  0  0  0  0  0  0  0
    2.5662    3.8031    9.0556 H   0  0  0  0  0  0  0  0  0  0  0  0
    1.8356    4.5221   10.9775 C   0  0  0  0  0  0  0  0  0  0  0  0
    1.7737    3.5878   11.5461 H   0  0  0  0  0  0  0  0  0  0  0  0
    0.8731    4.6574   10.4794 H   0  0  0  0  0  0  0  0  0  0  0  0
    2.0768    5.7072   11.9310 C   0  0  0  0  0  0  0  0  0  0  0  0
    1.1126    6.0895   12.2706 H   0  0  0  0  0  0  0  0  0  0  0  0
    2.6216    5.3757   12.8160 H   0  0  0  0  0  0  0  0  0  0  0  0
    2.8489    6.8282   11.2691 C   0  0  0  0  0  3  0  0  0  0  0  0
    2.2825    7.7426   11.1078 H   0  0  0  0  0  0  0  0  0  0  0  0
    4.2284    6.9352   11.3303 C   0  0  0  0  0  3  0  0  0  0  0  0
    4.6626    7.9293   11.2451 H   0  0  0  0  0  0  0  0  0  0  0  0
    5.1392    5.9298   11.9976 C   0  0  0  0  0  0  0  0  0  0  0  0
    5.0464    6.0223   13.0849 H   0  0  0  0  0  0  0  0  0  0  0  0
    6.1693    6.1855   11.7411 H   0  0  0  0  0  0  0  0  0  0  0  0
    4.8623    4.4774   11.5636 C   0  0  0  0  0  0  0  0  0  0  0  0
    4.1775    3.9967   12.2638 H   0  0  0  0  0  0  0  0  0  0  0  0
    5.7991    3.9170   11.5935 H   0  0  0  0  0  0  0  0  0  0  0  0
  1 38  1  0  0  0  0
  3  1  1  6  0  0  0
  4 13  1  0  0  0  0
  4  3  1  0  0  0  0
  5  3  1  0  0  0  0
  5 10  1  0  0  0  0
  6  9  1  0  0  0  0
  7  9  2  0  0  0  0
  7  4  1  0  0  0  0
  8  7  1  0  0  0  0
  9  5  1  0  0  0  0
 10 19  1  0  0  0  0
 10 11  1  0  0  0  0
 12 10  1  0  0  0  0
 13 14  1  0  0  0  0
 15 13  1  0  0  0  0
 16 13  1  0  0  0  0
 16 29  1  0  0  0  0
 16 17  1  0  0  0  0
 18 16  1  0  0  0  0
 19 27  1  0  0  0  0
 20 21  1  0  0  0  0
 20 19  2  0  0  0  0
 21 23  2  0  0  0  0
 22 21  1  0  0  0  0
 23 24  1  0  0  0  0
 23 25  1  0  0  0  0
 25 26  1  0  0  0  0
 27 25  2  0  0  0  0
 27 28  1  0  0  0  0
 29 31  1  0  0  0  0
 30 29  1  0  0  0  0
 32 34  1  0  0  0  0
 32 29  1  0  0  0  0
 32 33  1  0  0  0  0
 35 32  1  0  0  0  0
 36 53  1  0  0  0  0
 37 36  1  0  0  0  0
 38 39  1  6  0  0  0
 38 36  1  0  0  0  0
 38 40  1  0  0  0  0
 40 41  1  0  0  0  0
 40 43  1  0  0  0  0
 42 40  1  0  0  0  0
 43 44  1  0  0  0  0
 43 45  1  0  0  0  0
 46 48  1  0  0  0  0
 46 43  1  0  0  0  0
 47 46  1  0  0  0  0
 48 50  1  0  0  0  0
 49 48  1  0  0  0  0
 50 51  1  0  0  0  0
 52 50  1  0  0  0  0
 53 55  1  0  0  0  0
 53 50  1  0  0  0  0
 53 54  1  0  0  0  0
M  END
$$$$
