CSD_code = LENGOB | q = 0 | S = 0 | Stoichiometry = C24H16ClN2O3Re | MND = 6
 OpenBabel04212202063D

 47 51  0  0  0  0  0  0  0  0999 V2000
    0.7860    3.7326    3.4967 Re  0  0  0  0  0  0  0  0  0  0  0  0
   -0.4770    4.1901    1.5268 Cl  0  0  0  0  0  0  0  0  0  0  0  0
    1.9075    2.4317    2.1621 N   0  0  0  0  0  0  0  0  0  0  0  0
   -0.3340    1.8530    3.4790 N   0  0  0  0  0  0  0  0  0  0  0  0
   -1.3975    5.2460    5.0710 O   0  0  0  0  0  1  0  0  0  0  0  0
    2.2045    6.4499    3.0937 O   0  0  0  0  0  1  0  0  0  0  0  0
    2.4200    2.9364    5.9970 O   0  0  0  0  0  1  0  0  0  0  0  0
    4.7031    1.8115    4.2025 C   0  0  0  0  0  0  0  0  0  0  0  0
    4.0182    1.0806    3.7950 H   0  0  0  0  0  0  0  0  0  0  0  0
    5.4211    1.5296    5.3234 C   0  0  0  0  0  0  0  0  0  0  0  0
    5.3142    0.5732    5.8134 H   0  0  0  0  0  0  0  0  0  0  0  0
    6.3092    2.4830    5.8629 C   0  0  0  0  0  0  0  0  0  0  0  0
    6.8632    2.2386    6.7570 H   0  0  0  0  0  0  0  0  0  0  0  0
    6.4634    3.6944    5.2632 C   0  0  0  0  0  0  0  0  0  0  0  0
    7.1422    4.4302    5.6696 H   0  0  0  0  0  0  0  0  0  0  0  0
    5.3011    6.8385    1.6713 C   0  0  0  0  0  0  0  0  0  0  0  0
    5.9898    7.5551    2.0947 H   0  0  0  0  0  0  0  0  0  0  0  0
    4.5797    7.1387    0.5577 C   0  0  0  0  0  0  0  0  0  0  0  0
    4.6838    8.1014    0.0797 H   0  0  0  0  0  0  0  0  0  0  0  0
    3.6820    6.1961    0.0150 C   0  0  0  0  0  0  0  0  0  0  0  0
    3.1153    6.4545   -0.8670 H   0  0  0  0  0  0  0  0  0  0  0  0
    3.5233    4.9767    0.5976 C   0  0  0  0  0  0  0  0  0  0  0  0
    2.8263    4.2644    0.1807 H   0  0  0  0  0  0  0  0  0  0  0  0
    4.0932    3.3913    2.4058 C   0  0  0  0  0  0  0  0  0  0  0  0
    5.8796    5.2604    3.4623 C   0  0  0  0  0  0  0  0  0  0  0  0
    6.5611    5.9889    3.8787 H   0  0  0  0  0  0  0  0  0  0  0  0
    3.1361    2.4194    1.8541 C   0  0  0  0  0  3  0  0  0  0  0  0
    3.5278    1.6797    1.1457 H   0  0  0  0  0  0  0  0  0  0  0  0
    1.0169    1.4966    1.5172 C   0  0  0  0  0  0  0  0  0  0  0  0
    1.5488    0.6547    1.0544 H   0  0  0  0  0  0  0  0  0  0  0  0
    0.4915    2.0713    0.7322 H   0  0  0  0  0  0  0  0  0  0  0  0
   -1.3143    1.5143    4.3145 C   0  0  0  0  0  3  0  0  0  0  0  0
   -1.5124    2.2018    5.1262 H   0  0  0  0  0  0  0  0  0  0  0  0
   -2.0517    0.3539    4.1743 C   0  0  0  0  0  0  0  0  0  0  0  0
   -2.8411    0.1296    4.8731 H   0  0  0  0  0  0  0  0  0  0  0  0
   -1.7569   -0.5032    3.1242 C   0  0  0  0  0  0  0  0  0  0  0  0
   -2.3113   -1.4181    2.9821 H   0  0  0  0  0  0  0  0  0  0  0  0
   -0.7357   -0.1568    2.2586 C   0  0  0  0  0  0  0  0  0  0  0  0
   -0.4727   -0.7888    1.4242 H   0  0  0  0  0  0  0  0  0  0  0  0
   -0.0503    1.0328    2.4651 C   0  0  0  0  0  0  0  0  0  0  0  0
    5.7373    4.0276    4.0915 C   0  0  0  0  0  0  0  0  0  0  0  0
    5.1635    5.5816    2.3136 C   0  0  0  0  0  0  0  0  0  0  0  0
    4.2489    4.6289    1.7670 C   0  0  0  0  0  0  0  0  0  0  0  0
    4.8299    3.0654    3.5512 C   0  0  0  0  0  0  0  0  0  0  0  0
   -0.5467    4.7016    4.5305 C   0  0  0  0  0  2  0  0  0  0  0  0
    1.7369    5.4173    3.2552 C   0  0  0  0  0  2  0  0  0  0  0  0
    1.8198    3.2330    5.0614 C   0  0  0  0  0  2  0  0  0  0  0  0
  1 45  1  0  0  0  0
  1 47  1  0  0  0  0
  2  1  1  0  0  0  0
  3  1  1  0  0  0  0
  4  1  1  0  0  0  0
  4 32  1  0  0  0  0
  6 46  1  0  0  0  0
  8 10  1  0  0  0  0
  9  8  1  0  0  0  0
 10 11  1  0  0  0  0
 10 12  2  0  0  0  0
 12 13  1  0  0  0  0
 14 15  1  0  0  0  0
 14 12  1  0  0  0  0
 16 17  1  0  0  0  0
 16 42  1  0  0  0  0
 18 16  2  0  0  0  0
 19 18  1  0  0  0  0
 20 18  1  0  0  0  0
 20 22  2  0  0  0  0
 21 20  1  0  0  0  0
 22 43  1  0  0  0  0
 23 22  1  0  0  0  0
 24 44  1  0  0  0  0
 25 26  1  0  0  0  0
 25 41  1  0  0  0  0
 27  3  1  0  0  0  0
 27 24  1  0  0  0  0
 28 27  1  0  0  0  0
 29  3  1  0  0  0  0
 29 40  1  0  0  0  0
 30 29  1  0  0  0  0
 31 29  1  0  0  0  0
 32 33  1  0  0  0  0
 34 32  1  0  0  0  0
 34 35  1  0  0  0  0
 36 34  2  0  0  0  0
 37 36  1  0  0  0  0
 38 40  2  0  0  0  0
 38 36  1  0  0  0  0
 39 38  1  0  0  0  0
 40  4  1  0  0  0  0
 41 14  2  0  0  0  0
 42 25  2  0  0  0  0
 43 42  1  0  0  0  0
 43 24  2  0  0  0  0
 44 41  1  0  0  0  0
 44  8  2  0  0  0  0
 45  5  1  0  0  0  0
 46  1  1  0  0  0  0
 47  7  1  0  0  0  0
M  END
$$$$
