CSD_code = LENGIV | q = 0 | S = 0 | Stoichiometry = C21H27Cl2NO4W | MND = 6
 OpenBabel04212202063D

 56 59  0  0  0  0  0  0  0  0999 V2000
    4.9201    7.4781    0.0938 W   0  0  0  0  0  0  0  0  0  0  0  0
    5.0009    8.8276   -1.8786 Cl  0  0  0  0  0  0  0  0  0  0  0  0
    4.6364    6.5520    2.2696 Cl  0  0  0  0  0  0  0  0  0  0  0  0
    5.3653    6.0566   -0.6761 O   0  0  0  0  0  1  0  0  0  0  0  0
    3.1284    7.5070   -0.0636 O   0  0  0  0  0  0  0  0  0  0  0  0
    6.4885    8.1632    0.6295 O   0  0  0  0  0  0  0  0  0  0  0  0
    3.1843   11.7187    3.2171 O   0  0  0  0  0  0  0  0  0  0  0  0
    4.3717    9.7072    1.2578 N   0  0  0  0  0  4  0  0  0  0  0  0
    2.0851    7.8321    0.7215 C   0  0  0  0  0  0  0  0  0  0  0  0
    1.1748    6.8495    1.1306 C   0  0  0  0  0  0  0  0  0  0  0  0
    0.1261    7.2342    1.9494 C   0  0  0  0  0  0  0  0  0  0  0  0
   -0.5816    6.4863    2.2767 H   0  0  0  0  0  0  0  0  0  0  0  0
   -0.0327    8.5513    2.3683 C   0  0  0  0  0  0  0  0  0  0  0  0
    0.9017    9.5014    1.9773 C   0  0  0  0  0  0  0  0  0  0  0  0
    0.8170   10.5210    2.3222 H   0  0  0  0  0  0  0  0  0  0  0  0
    1.9657    9.1562    1.1588 C   0  0  0  0  0  0  0  0  0  0  0  0
    3.0375   10.1293    0.7415 C   0  0  0  0  0  0  0  0  0  0  0  0
    2.7905   11.1284    1.1154 H   0  0  0  0  0  0  0  0  0  0  0  0
    3.1051   10.1586   -0.3567 H   0  0  0  0  0  0  0  0  0  0  0  0
    5.3846   10.7015    0.8149 C   0  0  0  0  0  0  0  0  0  0  0  0
    5.0796   11.7098    1.1244 H   0  0  0  0  0  0  0  0  0  0  0  0
    5.4141   10.6816   -0.2844 H   0  0  0  0  0  0  0  0  0  0  0  0
    6.7600   10.3941    1.3519 C   0  0  0  0  0  0  0  0  0  0  0  0
    7.5593   11.3550    1.9506 C   0  0  0  0  0  0  0  0  0  0  0  0
    7.1966   12.3707    2.0291 H   0  0  0  0  0  0  0  0  0  0  0  0
    8.8211   11.0411    2.4392 C   0  0  0  0  0  0  0  0  0  0  0  0
    9.2768    9.7320    2.3324 C   0  0  0  0  0  0  0  0  0  0  0  0
   10.2504    9.4767    2.7250 H   0  0  0  0  0  0  0  0  0  0  0  0
    8.5164    8.7436    1.7304 C   0  0  0  0  0  0  0  0  0  0  0  0
    7.2556    9.0885    1.2246 C   0  0  0  0  0  0  0  0  0  0  0  0
    4.3434    9.6205    2.7371 C   0  0  0  0  0  0  0  0  0  0  0  0
    5.2368    9.0807    3.0709 H   0  0  0  0  0  0  0  0  0  0  0  0
    3.4680    9.0270    3.0139 H   0  0  0  0  0  0  0  0  0  0  0  0
    4.3094   10.9301    3.5378 C   0  0  0  0  0  0  0  0  0  0  0  0
    4.2703   10.6449    4.6006 H   0  0  0  0  0  0  0  0  0  0  0  0
    5.2319   11.5103    3.3899 H   0  0  0  0  0  0  0  0  0  0  0  0
    3.0272   12.8205    4.0742 C   0  0  0  0  0  0  0  0  0  0  0  0
    2.8841   12.4970    5.1118 H   0  0  0  0  0  0  0  0  0  0  0  0
    2.1437   13.3571    3.7347 H   0  0  0  0  0  0  0  0  0  0  0  0
    3.8978   13.4864    4.0309 H   0  0  0  0  0  0  0  0  0  0  0  0
    1.4057    5.4357    0.6890 C   0  0  0  0  0  0  0  0  0  0  0  0
    1.1160    4.7364    1.4690 H   0  0  0  0  0  0  0  0  0  0  0  0
    2.4682    5.2930    0.4500 H   0  0  0  0  0  0  0  0  0  0  0  0
    0.8254    5.2162   -0.2074 H   0  0  0  0  0  0  0  0  0  0  0  0
   -1.1976    8.9341    3.2305 C   0  0  0  0  0  0  0  0  0  0  0  0
   -2.0914    9.0541    2.6180 H   0  0  0  0  0  0  0  0  0  0  0  0
   -1.0085    9.8737    3.7428 H   0  0  0  0  0  0  0  0  0  0  0  0
   -1.4008    8.1624    3.9694 H   0  0  0  0  0  0  0  0  0  0  0  0
    9.6870   12.0922    3.0645 C   0  0  0  0  0  0  0  0  0  0  0  0
   10.1651   11.7115    3.9645 H   0  0  0  0  0  0  0  0  0  0  0  0
    9.1077   12.9756    3.3195 H   0  0  0  0  0  0  0  0  0  0  0  0
   10.4728   12.3887    2.3700 H   0  0  0  0  0  0  0  0  0  0  0  0
    8.9775    7.3239    1.5993 C   0  0  0  0  0  0  0  0  0  0  0  0
    9.4466    6.9822    2.5193 H   0  0  0  0  0  0  0  0  0  0  0  0
    9.7043    7.2364    0.7918 H   0  0  0  0  0  0  0  0  0  0  0  0
    8.1255    6.6767    1.3636 H   0  0  0  0  0  0  0  0  0  0  0  0
  1  6  1  0  0  0  0
  1  8  1  0  0  0  0
  1  3  1  0  0  0  0
  2  1  1  0  0  0  0
  4  1  1  0  0  0  0
  5  1  1  0  0  0  0
  5  9  1  0  0  0  0
  6 30  1  0  0  0  0
  7 34  1  0  0  0  0
  7 37  1  0  0  0  0
  8 31  1  0  0  0  0
  9 10  2  0  0  0  0
  9 16  1  0  0  0  0
 10 11  1  0  0  0  0
 11 12  1  0  0  0  0
 11 13  2  0  0  0  0
 13 45  1  0  0  0  0
 14 15  1  0  0  0  0
 14 13  1  0  0  0  0
 16 14  2  0  0  0  0
 17 18  1  0  0  0  0
 17 16  1  0  0  0  0
 17  8  1  0  0  0  0
 19 17  1  0  0  0  0
 20 21  1  0  0  0  0
 20  8  1  0  0  0  0
 20 23  1  0  0  0  0
 22 20  1  0  0  0  0
 23 24  1  0  0  0  0
 24 25  1  0  0  0  0
 24 26  2  0  0  0  0
 26 49  1  0  0  0  0
 27 26  1  0  0  0  0
 27 28  1  0  0  0  0
 29 27  2  0  0  0  0
 30 23  2  0  0  0  0
 30 29  1  0  0  0  0
 31 33  1  0  0  0  0
 31 32  1  0  0  0  0
 31 34  1  0  0  0  0
 34 35  1  0  0  0  0
 36 34  1  0  0  0  0
 37 38  1  0  0  0  0
 39 37  1  0  0  0  0
 40 37  1  0  0  0  0
 41 10  1  0  0  0  0
 41 42  1  0  0  0  0
 43 41  1  0  0  0  0
 44 41  1  0  0  0  0
 45 47  1  0  0  0  0
 45 48  1  0  0  0  0
 46 45  1  0  0  0  0
 49 51  1  0  0  0  0
 49 50  1  0  0  0  0
 52 49  1  0  0  0  0
 53 29  1  0  0  0  0
 53 54  1  0  0  0  0
 55 53  1  0  0  0  0
 56 53  1  0  0  0  0
M  END
$$$$
