CSD_code = LENGAN | q = 0 | S = 0 | Stoichiometry = C20H24ClNO4W | MND = 6
 OpenBabel04212202063D

 51 55  0  0  0  0  0  0  0  0999 V2000
    5.5763   12.3224   11.9889 W   0  0  0  0  0  0  0  0  0  0  0  0
    4.7581   10.2373   11.2855 Cl  0  0  0  0  0  0  0  0  0  0  0  0
    7.2022   11.9376   11.8022 O   0  0  0  0  0  1  0  0  0  0  0  0
    5.2174   11.8378   13.7570 O   0  0  0  0  0  0  0  0  0  0  0  0
    5.0424   12.8591   10.3058 O   0  0  0  0  0  0  0  0  0  0  0  0
    5.6550   14.1432   12.5318 O   0  0  0  0  0  0  0  0  0  0  0  0
    3.2047   12.9583   12.2421 N   0  0  0  0  0  4  0  0  0  0  0  0
    4.2924   10.9181   14.0809 C   0  0  0  0  0  0  0  0  0  0  0  0
    4.6766    9.6127   14.4242 C   0  0  0  0  0  0  0  0  0  0  0  0
    3.6864    8.7005   14.7407 C   0  0  0  0  0  0  0  0  0  0  0  0
    3.9679    7.6899   14.9989 H   0  0  0  0  0  0  0  0  0  0  0  0
    2.3366    9.0418   14.7196 C   0  0  0  0  0  0  0  0  0  0  0  0
    1.9728   10.3268   14.3447 C   0  0  0  0  0  0  0  0  0  0  0  0
    0.9277   10.6004   14.3005 H   0  0  0  0  0  0  0  0  0  0  0  0
    2.9382   11.2680   14.0201 C   0  0  0  0  0  0  0  0  0  0  0  0
    2.6400   12.6792   13.5873 C   0  0  0  0  0  0  0  0  0  0  0  0
    3.1126   13.3630   14.3025 H   0  0  0  0  0  0  0  0  0  0  0  0
    1.5560   12.8686   13.5893 H   0  0  0  0  0  0  0  0  0  0  0  0
    2.3094   12.3421   11.2431 C   0  0  0  0  0  0  0  0  0  0  0  0
    1.3151   12.8175   11.3065 H   0  0  0  0  0  0  0  0  0  0  0  0
    2.1947   11.2861   11.5272 H   0  0  0  0  0  0  0  0  0  0  0  0
    2.7611   12.3743    9.7975 C   0  0  0  0  0  0  0  0  0  0  0  0
    1.8107   12.1141    8.8159 C   0  0  0  0  0  0  0  0  0  0  0  0
    0.7815   11.9709    9.1144 H   0  0  0  0  0  0  0  0  0  0  0  0
    2.1489   12.0135    7.4764 C   0  0  0  0  0  0  0  0  0  0  0  0
    3.4840   12.1574    7.1138 C   0  0  0  0  0  0  0  0  0  0  0  0
    3.7682   12.0505    6.0769 H   0  0  0  0  0  0  0  0  0  0  0  0
    4.4587   12.4264    8.0545 C   0  0  0  0  0  0  0  0  0  0  0  0
    4.0939   12.5578    9.4065 C   0  0  0  0  0  0  0  0  0  0  0  0
    3.3055   14.4133   12.0294 C   0  0  0  0  0  0  0  0  0  0  0  0
    2.4000   14.9312   12.3824 H   0  0  0  0  0  0  0  0  0  0  0  0
    3.4123   14.5966   10.9545 H   0  0  0  0  0  0  0  0  0  0  0  0
    4.5603   14.9631   12.7501 C   0  0  0  0  0  0  0  0  0  0  0  0
    4.7687   15.9800   12.3740 H   0  0  0  0  0  0  0  0  0  0  0  0
    4.3766   15.0425   13.8391 H   0  0  0  0  0  0  0  0  0  0  0  0
    6.1376    9.2826   14.3692 C   0  0  0  0  0  0  0  0  0  0  0  0
    6.6118    9.8687   13.5648 H   0  0  0  0  0  0  0  0  0  0  0  0
    6.2877    8.2226   14.1843 H   0  0  0  0  0  0  0  0  0  0  0  0
    6.6268    9.5502   15.3060 H   0  0  0  0  0  0  0  0  0  0  0  0
    1.2976    8.0148   15.0570 C   0  0  0  0  0  0  0  0  0  0  0  0
    1.2150    7.2891   14.2487 H   0  0  0  0  0  0  0  0  0  0  0  0
    0.3251    8.4768   15.2038 H   0  0  0  0  0  0  0  0  0  0  0  0
    1.5704    7.4760   15.9617 H   0  0  0  0  0  0  0  0  0  0  0  0
    1.1003   11.7569    6.4363 C   0  0  0  0  0  0  0  0  0  0  0  0
    0.2347   11.2641    6.8713 H   0  0  0  0  0  0  0  0  0  0  0  0
    1.4961   11.1343    5.6378 H   0  0  0  0  0  0  0  0  0  0  0  0
    0.7701   12.6981    5.9957 H   0  0  0  0  0  0  0  0  0  0  0  0
    5.9131   12.5572    7.7182 C   0  0  0  0  0  0  0  0  0  0  0  0
    6.1542   12.0055    6.8135 H   0  0  0  0  0  0  0  0  0  0  0  0
    6.5117   12.1789    8.5546 H   0  0  0  0  0  0  0  0  0  0  0  0
    6.1778   13.6046    7.5695 H   0  0  0  0  0  0  0  0  0  0  0  0
  1  7  1  0  0  0  0
  1  6  1  0  0  0  0
  1  4  1  0  0  0  0
  2  1  1  0  0  0  0
  3  1  1  0  0  0  0
  4  8  1  0  0  0  0
  5  1  1  0  0  0  0
  6 33  1  0  0  0  0
  7 16  1  0  0  0  0
  8  9  1  0  0  0  0
  9 10  2  0  0  0  0
 10 11  1  0  0  0  0
 12 10  1  0  0  0  0
 12 40  1  0  0  0  0
 13 12  2  0  0  0  0
 14 13  1  0  0  0  0
 15  8  2  0  0  0  0
 15 13  1  0  0  0  0
 16 18  1  0  0  0  0
 16 15  1  0  0  0  0
 16 17  1  0  0  0  0
 19 20  1  0  0  0  0
 19 21  1  0  0  0  0
 19  7  1  0  0  0  0
 22 19  1  0  0  0  0
 23 24  1  0  0  0  0
 23 22  2  0  0  0  0
 25 23  1  0  0  0  0
 26 25  2  0  0  0  0
 26 28  1  0  0  0  0
 27 26  1  0  0  0  0
 28 29  2  0  0  0  0
 29 22  1  0  0  0  0
 29  5  1  0  0  0  0
 30  7  1  0  0  0  0
 30 31  1  0  0  0  0
 30 33  1  0  0  0  0
 32 30  1  0  0  0  0
 33 35  1  0  0  0  0
 34 33  1  0  0  0  0
 36  9  1  0  0  0  0
 36 39  1  0  0  0  0
 37 36  1  0  0  0  0
 38 36  1  0  0  0  0
 40 42  1  0  0  0  0
 40 43  1  0  0  0  0
 41 40  1  0  0  0  0
 44 45  1  0  0  0  0
 44 25  1  0  0  0  0
 46 44  1  0  0  0  0
 47 44  1  0  0  0  0
 48 28  1  0  0  0  0
 48 50  1  0  0  0  0
 49 48  1  0  0  0  0
 51 48  1  0  0  0  0
M  END
$$$$
