CSD_code = LENKEW | q = 0 | S = 0 | Stoichiometry = C24H19BrN3O6ReS | MND = 6
 OpenBabel04212202063D

 55 58  0  0  0  0  0  0  0  0999 V2000
    8.5683   13.6437   12.7233 Re  0  0  0  0  0  0  0  0  0  0  0  0
    7.3647   15.7949   11.9662 Br  0  0  0  0  0  0  0  0  0  0  0  0
   13.0464   17.9858   21.1521 S   0  0  0  0  0  0  0  0  0  0  0  0
   10.0428   15.0032   13.4386 N   0  0  0  0  0  0  0  0  0  0  0  0
    9.8254   14.0141   11.0074 N   0  0  0  0  0  0  0  0  0  0  0  0
   11.4934   17.8354   20.4143 N   0  0  0  0  0  0  0  0  0  0  0  0
   10.7873   18.4769   20.7366 H   0  0  0  0  0  0  0  0  0  0  0  0
    9.5470   12.0531   13.2495 C   0  0  0  0  0  2  0  0  0  0  0  0
   10.1398   11.1226   13.5638 O   0  0  0  0  0  1  0  0  0  0  0  0
    7.4951   13.6789   14.3566 C   0  0  0  0  0  2  0  0  0  0  0  0
    6.8730   13.8133   15.3065 O   0  0  0  0  0  1  0  0  0  0  0  0
    7.1993   12.6192   11.7763 C   0  0  0  0  0  2  0  0  0  0  0  0
    6.3897   12.1035   11.1540 O   0  0  0  0  0  1  0  0  0  0  0  0
    9.9167   17.1742   18.6889 C   0  0  0  0  0  0  0  0  0  0  0  0
    9.6193   18.2234   18.6833 H   0  0  0  0  0  0  0  0  0  0  0  0
    9.2170   16.6157   19.3168 H   0  0  0  0  0  0  0  0  0  0  0  0
   11.2976   17.0400   19.3314 C   0  0  0  0  0  0  0  0  0  0  0  0
   12.1478   16.2730   18.9535 O   0  0  0  0  0  0  0  0  0  0  0  0
   13.9550   18.5066   20.1840 O   0  0  0  0  0  0  0  0  0  0  0  0
   12.7614   18.7652   22.3187 O   0  0  0  0  0  0  0  0  0  0  0  0
    9.6889   13.5130    9.7839 C   0  0  0  0  0  3  0  0  0  0  0  0
    8.9427   12.7386    9.6603 H   0  0  0  0  0  0  0  0  0  0  0  0
   10.4406   13.9425    8.7055 C   0  0  0  0  0  0  0  0  0  0  0  0
   10.2805   13.5052    7.7336 H   0  0  0  0  0  0  0  0  0  0  0  0
   11.3890   14.9410    8.8961 C   0  0  0  0  0  0  0  0  0  0  0  0
   11.9861   15.2998    8.0723 H   0  0  0  0  0  0  0  0  0  0  0  0
   11.5452   15.4662   10.1619 C   0  0  0  0  0  0  0  0  0  0  0  0
   12.2620   16.2465   10.3647 H   0  0  0  0  0  0  0  0  0  0  0  0
   10.7453   14.9851   11.2002 C   0  0  0  0  0  0  0  0  0  0  0  0
   10.8224   15.5026   12.5413 C   0  0  0  0  0  3  0  0  0  0  0  0
   11.5261   16.2995   12.7657 H   0  0  0  0  0  0  0  0  0  0  0  0
   10.0371   15.5530   14.7257 C   0  0  0  0  0  0  0  0  0  0  0  0
    9.9964   16.9330   14.9140 C   0  0  0  0  0  0  0  0  0  0  0  0
    9.9520   17.5917   14.0585 H   0  0  0  0  0  0  0  0  0  0  0  0
    9.9374   17.4507   16.1928 C   0  0  0  0  0  0  0  0  0  0  0  0
    9.8877   18.5213   16.3266 H   0  0  0  0  0  0  0  0  0  0  0  0
    9.9327   16.6124   17.2991 C   0  0  0  0  0  0  0  0  0  0  0  0
    9.9861   15.2357   17.1048 C   0  0  0  0  0  0  0  0  0  0  0  0
    9.9953   14.5765   17.9587 H   0  0  0  0  0  0  0  0  0  0  0  0
   10.0247   14.7050   15.8336 C   0  0  0  0  0  0  0  0  0  0  0  0
   10.0629   13.6348   15.6820 H   0  0  0  0  0  0  0  0  0  0  0  0
   13.4356   16.3118   21.5896 C   0  0  0  0  0  0  0  0  0  0  0  0
   14.3351   15.5960   20.8266 C   0  0  0  0  0  0  0  0  0  0  0  0
   14.7917   16.0735   19.9758 H   0  0  0  0  0  0  0  0  0  0  0  0
   14.6093   14.2862   21.1743 C   0  0  0  0  0  0  0  0  0  0  0  0
   15.3091   13.7107   20.5870 H   0  0  0  0  0  0  0  0  0  0  0  0
   13.9897   13.6961   22.2733 C   0  0  0  0  0  0  0  0  0  0  0  0
   13.0900   14.4452   23.0259 C   0  0  0  0  0  0  0  0  0  0  0  0
   12.6077   13.9977   23.8824 H   0  0  0  0  0  0  0  0  0  0  0  0
   12.8090   15.7571   22.6866 C   0  0  0  0  0  0  0  0  0  0  0  0
   12.1259   16.3601   23.2635 H   0  0  0  0  0  0  0  0  0  0  0  0
   14.2754   12.2692   22.6234 C   0  0  0  0  0  0  0  0  0  0  0  0
   13.6812   11.6094   21.9910 H   0  0  0  0  0  0  0  0  0  0  0  0
   14.0241   12.0623   23.6602 H   0  0  0  0  0  0  0  0  0  0  0  0
   15.3238   12.0330   22.4575 H   0  0  0  0  0  0  0  0  0  0  0  0
  1  8  1  0  0  0  0
  1  4  1  0  0  0  0
  1 10  1  0  0  0  0
  2  1  1  0  0  0  0
  3 42  1  0  0  0  0
  3 20  2  0  0  0  0
  4 32  1  0  0  0  0
  5 29  1  0  0  0  0
  5  1  1  0  0  0  0
  6  7  1  0  0  0  0
  6  3  1  0  0  0  0
  8  9  1  0  0  0  0
 10 11  1  0  0  0  0
 12  1  1  0  0  0  0
 13 12  1  0  0  0  0
 14 16  1  0  0  0  0
 14 17  1  0  0  0  0
 15 14  1  0  0  0  0
 17  6  1  0  0  0  0
 18 17  2  0  0  0  0
 19  3  2  0  0  0  0
 21  5  1  0  0  0  0
 22 21  1  0  0  0  0
 23 25  2  0  0  0  0
 23 21  1  0  0  0  0
 24 23  1  0  0  0  0
 25 27  1  0  0  0  0
 26 25  1  0  0  0  0
 27 28  1  0  0  0  0
 27 29  2  0  0  0  0
 29 30  1  0  0  0  0
 30 31  1  0  0  0  0
 30  4  1  0  0  0  0
 32 33  2  0  0  0  0
 32 40  1  0  0  0  0
 33 35  1  0  0  0  0
 34 33  1  0  0  0  0
 35 36  1  0  0  0  0
 35 37  2  0  0  0  0
 37 14  1  0  0  0  0
 38 37  1  0  0  0  0
 38 39  1  0  0  0  0
 40 38  2  0  0  0  0
 41 40  1  0  0  0  0
 42 50  1  0  0  0  0
 43 45  1  0  0  0  0
 43 42  2  0  0  0  0
 44 43  1  0  0  0  0
 45 47  2  0  0  0  0
 46 45  1  0  0  0  0
 47 52  1  0  0  0  0
 47 48  1  0  0  0  0
 48 49  1  0  0  0  0
 50 48  2  0  0  0  0
 50 51  1  0  0  0  0
 52 54  1  0  0  0  0
 53 52  1  0  0  0  0
 55 52  1  0  0  0  0
M  END
$$$$
