CSD_code = LENVUW | q = 0 | S = 0 | Stoichiometry = C24H31AuClP | MND = 2
 OpenBabel04212202063D

 58 61  0  0  0  0  0  0  0  0999 V2000
    5.5861    2.2681    3.6028 Au  0  0  0  0  0  0  0  0  0  0  0  0
    5.5696    4.5084    3.7780 P   0  0  0  0  0  4  0  0  0  0  0  0
    5.5493    0.0023    3.4994 Cl  0  0  0  0  0  0  0  0  0  0  0  0
    6.2721    5.6038    2.5020 C   0  0  0  0  0  0  0  0  0  0  0  0
    6.5530    5.1104    1.2234 C   0  0  0  0  0  0  0  0  0  0  0  0
    6.9932    5.9886    0.2376 C   0  0  0  0  0  0  0  0  0  0  0  0
    7.2000    5.5987   -0.7486 H   0  0  0  0  0  0  0  0  0  0  0  0
    7.1756    7.3310    0.5091 C   0  0  0  0  0  0  0  0  0  0  0  0
    7.5174    7.9986   -0.2675 H   0  0  0  0  0  0  0  0  0  0  0  0
    6.9322    7.8134    1.7849 C   0  0  0  0  0  0  0  0  0  0  0  0
    7.0900    8.8575    2.0113 H   0  0  0  0  0  0  0  0  0  0  0  0
    6.4815    6.9570    2.7704 C   0  0  0  0  0  0  0  0  0  0  0  0
    6.2995    7.3470    3.7605 H   0  0  0  0  0  0  0  0  0  0  0  0
    6.4502    3.6745    0.8860 C   0  0  0  0  0  0  0  0  0  0  0  0
    7.4956    2.8186    1.2245 C   0  0  0  0  0  0  0  0  0  0  0  0
    8.3488    3.2130    1.7602 H   0  0  0  0  0  0  0  0  0  0  0  0
    7.4454    1.4820    0.8715 C   0  0  0  0  0  0  0  0  0  0  0  0
    8.2562    0.8236    1.1430 H   0  0  0  0  0  0  0  0  0  0  0  0
    6.3476    0.9858    0.1890 C   0  0  0  0  0  0  0  0  0  0  0  0
    6.2994   -0.0613   -0.0651 H   0  0  0  0  0  0  0  0  0  0  0  0
    5.3087    1.8331   -0.1546 C   0  0  0  0  0  0  0  0  0  0  0  0
    4.4500    1.4488   -0.6851 H   0  0  0  0  0  0  0  0  0  0  0  0
    5.3633    3.1751    0.1794 C   0  0  0  0  0  0  0  0  0  0  0  0
    4.5583    3.8402   -0.1007 H   0  0  0  0  0  0  0  0  0  0  0  0
    6.4299    5.0274    5.3273 C   0  0  0  0  0  0  0  0  0  0  0  0
    6.3532    6.1101    5.4802 H   0  0  0  0  0  0  0  0  0  0  0  0
    7.8989    4.6330    5.1602 C   0  0  0  0  0  0  0  0  0  0  0  0
    7.9486    3.5652    4.9192 H   0  0  0  0  0  0  0  0  0  0  0  0
    8.3379    5.1850    4.3232 H   0  0  0  0  0  0  0  0  0  0  0  0
    8.6854    4.9028    6.4385 C   0  0  0  0  0  0  0  0  0  0  0  0
    9.7227    4.5914    6.3033 H   0  0  0  0  0  0  0  0  0  0  0  0
    8.6825    5.9757    6.6483 H   0  0  0  0  0  0  0  0  0  0  0  0
    8.0619    4.1530    7.6113 C   0  0  0  0  0  0  0  0  0  0  0  0
    8.6236    4.3562    8.5248 H   0  0  0  0  0  0  0  0  0  0  0  0
    8.1072    3.0790    7.4195 H   0  0  0  0  0  0  0  0  0  0  0  0
    6.6068    4.5725    7.7915 C   0  0  0  0  0  0  0  0  0  0  0  0
    6.5628    5.6390    8.0286 H   0  0  0  0  0  0  0  0  0  0  0  0
    6.1607    4.0263    8.6244 H   0  0  0  0  0  0  0  0  0  0  0  0
    5.8081    4.3018    6.5192 C   0  0  0  0  0  0  0  0  0  0  0  0
    5.7993    3.2256    6.3148 H   0  0  0  0  0  0  0  0  0  0  0  0
    4.7732    4.6243    6.6600 H   0  0  0  0  0  0  0  0  0  0  0  0
    3.8140    5.0833    3.9212 C   0  0  0  0  0  0  0  0  0  0  0  0
    3.3956    4.4525    4.7197 H   0  0  0  0  0  0  0  0  0  0  0  0
    3.1102    4.7300    2.6101 C   0  0  0  0  0  0  0  0  0  0  0  0
    3.2895    3.6768    2.3694 H   0  0  0  0  0  0  0  0  0  0  0  0
    3.5319    5.3366    1.8028 H   0  0  0  0  0  0  0  0  0  0  0  0
    1.6131    4.9991    2.7220 C   0  0  0  0  0  0  0  0  0  0  0  0
    1.1240    4.7642    1.7749 H   0  0  0  0  0  0  0  0  0  0  0  0
    1.1859    4.3492    3.4890 H   0  0  0  0  0  0  0  0  0  0  0  0
    1.3625    6.4582    3.0923 C   0  0  0  0  0  0  0  0  0  0  0  0
    0.2910    6.6355    3.1993 H   0  0  0  0  0  0  0  0  0  0  0  0
    1.7304    7.1038    2.2912 H   0  0  0  0  0  0  0  0  0  0  0  0
    2.0780    6.8102    4.3931 C   0  0  0  0  0  0  0  0  0  0  0  0
    1.6708    6.2057    5.2070 H   0  0  0  0  0  0  0  0  0  0  0  0
    1.9085    7.8605    4.6391 H   0  0  0  0  0  0  0  0  0  0  0  0
    3.5787    6.5506    4.2675 C   0  0  0  0  0  0  0  0  0  0  0  0
    3.9816    7.1844    3.4745 H   0  0  0  0  0  0  0  0  0  0  0  0
    4.0739    6.8101    5.2063 H   0  0  0  0  0  0  0  0  0  0  0  0
  1  2  1  0  0  0  0
  2 42  1  0  0  0  0
  2 25  1  0  0  0  0
  3  1  1  0  0  0  0
  4 12  1  0  0  0  0
  4  2  1  0  0  0  0
  5  4  2  0  0  0  0
  6  8  2  0  0  0  0
  6  5  1  0  0  0  0
  7  6  1  0  0  0  0
  8 10  1  0  0  0  0
  9  8  1  0  0  0  0
 10 11  1  0  0  0  0
 10 12  2  0  0  0  0
 12 13  1  0  0  0  0
 14  5  1  0  0  0  0
 14 15  1  0  0  0  0
 15 16  1  0  0  0  0
 17 18  1  0  0  0  0
 17 15  2  0  0  0  0
 19 17  1  0  0  0  0
 20 19  1  0  0  0  0
 21 23  1  0  0  0  0
 21 19  2  0  0  0  0
 22 21  1  0  0  0  0
 23 14  2  0  0  0  0
 24 23  1  0  0  0  0
 25 26  1  0  0  0  0
 25 39  1  0  0  0  0
 27 25  1  0  0  0  0
 27 30  1  0  0  0  0
 28 27  1  0  0  0  0
 29 27  1  0  0  0  0
 30 32  1  0  0  0  0
 30 33  1  0  0  0  0
 31 30  1  0  0  0  0
 33 36  1  0  0  0  0
 33 34  1  0  0  0  0
 35 33  1  0  0  0  0
 36 37  1  0  0  0  0
 36 38  1  0  0  0  0
 39 41  1  0  0  0  0
 39 36  1  0  0  0  0
 40 39  1  0  0  0  0
 42 56  1  0  0  0  0
 42 43  1  0  0  0  0
 44 47  1  0  0  0  0
 44 42  1  0  0  0  0
 45 44  1  0  0  0  0
 46 44  1  0  0  0  0
 47 50  1  0  0  0  0
 47 49  1  0  0  0  0
 48 47  1  0  0  0  0
 50 51  1  0  0  0  0
 50 53  1  0  0  0  0
 52 50  1  0  0  0  0
 53 55  1  0  0  0  0
 53 54  1  0  0  0  0
 56 53  1  0  0  0  0
 56 58  1  0  0  0  0
 57 56  1  0  0  0  0
M  END
$$$$
