CSD_code = LENWAD | q = 0 | S = 0 | Stoichiometry = C20H27AuClP | MND = 2
 OpenBabel04212202063D

 50 51  0  0  0  0  0  0  0  0999 V2000
    4.0214    2.6937    6.3125 Au  0  0  0  0  0  0  0  0  0  0  0  0
    2.2117    2.6937    7.6634 P   0  0  0  0  0  4  0  0  0  0  0  0
    5.8988    2.6937    5.0257 Cl  0  0  0  0  0  0  0  0  0  0  0  0
    0.5514    2.6937    6.9006 C   0  0  0  0  0  0  0  0  0  0  0  0
    0.4082    2.6937    5.5075 C   0  0  0  0  0  0  0  0  0  0  0  0
   -0.8703    2.6937    4.9551 C   0  0  0  0  0  0  0  0  0  0  0  0
   -0.9659    2.6937    3.8787 H   0  0  0  0  0  0  0  0  0  0  0  0
   -1.9980    2.6937    5.7523 C   0  0  0  0  0  0  0  0  0  0  0  0
   -2.9799    2.6937    5.3033 H   0  0  0  0  0  0  0  0  0  0  0  0
   -1.8585    2.6937    7.1301 C   0  0  0  0  0  0  0  0  0  0  0  0
   -2.7310    2.6937    7.7668 H   0  0  0  0  0  0  0  0  0  0  0  0
   -0.5976    2.6937    7.6942 C   0  0  0  0  0  0  0  0  0  0  0  0
   -0.5081    2.6937    8.7672 H   0  0  0  0  0  0  0  0  0  0  0  0
    1.5410    2.6937    4.5549 C   0  0  0  0  0  0  0  0  0  0  0  0
    2.0415    1.4931    4.0602 C   0  0  0  0  0  0  0  0  0  0  0  0
    1.6371    0.5587    4.4245 H   0  0  0  0  0  0  0  0  0  0  0  0
    3.0488    1.4960    3.1122 C   0  0  0  0  0  0  0  0  0  0  0  0
    3.4426    0.5597    2.7463 H   0  0  0  0  0  0  0  0  0  0  0  0
    3.5573    2.6937    2.6405 C   0  0  0  0  0  0  0  0  0  0  0  0
    4.3532    2.6937    1.9126 H   0  0  0  0  0  0  0  0  0  0  0  0
    2.2488    1.0933    8.6693 C   0  0  0  0  0  0  0  0  0  0  0  0
    1.1625    0.8579    9.7158 C   0  0  0  0  0  0  0  0  0  0  0  0
    1.3888   -0.0689   10.2429 H   0  0  0  0  0  0  0  0  0  0  0  0
    0.1834    0.7439    9.2587 H   0  0  0  0  0  0  0  0  0  0  0  0
    1.1278    1.6544   10.4548 H   0  0  0  0  0  0  0  0  0  0  0  0
    3.6208    0.9928    9.3367 C   0  0  0  0  0  0  0  0  0  0  0  0
    3.6765    1.6174   10.2249 H   0  0  0  0  0  0  0  0  0  0  0  0
    4.4125    1.2904    8.6480 H   0  0  0  0  0  0  0  0  0  0  0  0
    3.8075   -0.0366    9.6394 H   0  0  0  0  0  0  0  0  0  0  0  0
    2.1378    0.0178    7.5828 C   0  0  0  0  0  0  0  0  0  0  0  0
    2.9257    0.1423    6.8386 H   0  0  0  0  0  0  0  0  0  0  0  0
    1.1723    0.0725    7.0794 H   0  0  0  0  0  0  0  0  0  0  0  0
    2.2377   -0.9724    8.0240 H   0  0  0  0  0  0  0  0  0  0  0  0
    2.0415    3.8943    4.0602 C   0  0  0  0  0  0  0  0  0  0  0  0
    1.6371    4.8287    4.4245 H   0  0  0  0  0  0  0  0  0  0  0  0
    3.0488    3.8914    3.1122 C   0  0  0  0  0  0  0  0  0  0  0  0
    3.4426    4.8277    2.7463 H   0  0  0  0  0  0  0  0  0  0  0  0
    2.2488    4.2941    8.6693 C   0  0  0  0  0  0  0  0  0  0  0  0
    1.1625    4.5295    9.7158 C   0  0  0  0  0  0  0  0  0  0  0  0
    1.3888    5.4563   10.2429 H   0  0  0  0  0  0  0  0  0  0  0  0
    0.1834    4.6435    9.2587 H   0  0  0  0  0  0  0  0  0  0  0  0
    1.1278    3.7330   10.4548 H   0  0  0  0  0  0  0  0  0  0  0  0
    3.6208    4.3946    9.3367 C   0  0  0  0  0  0  0  0  0  0  0  0
    3.6765    3.7700   10.2249 H   0  0  0  0  0  0  0  0  0  0  0  0
    4.4125    4.0970    8.6480 H   0  0  0  0  0  0  0  0  0  0  0  0
    3.8075    5.4240    9.6394 H   0  0  0  0  0  0  0  0  0  0  0  0
    2.1378    5.3696    7.5828 C   0  0  0  0  0  0  0  0  0  0  0  0
    2.9257    5.2451    6.8386 H   0  0  0  0  0  0  0  0  0  0  0  0
    1.1723    5.3149    7.0794 H   0  0  0  0  0  0  0  0  0  0  0  0
    2.2377    6.3598    8.0240 H   0  0  0  0  0  0  0  0  0  0  0  0
  1  2  1  0  0  0  0
  2 21  1  0  0  0  0
  2 38  1  0  0  0  0
  3  1  1  0  0  0  0
  4  2  1  0  0  0  0
  4 12  1  0  0  0  0
  5  4  2  0  0  0  0
  6  5  1  0  0  0  0
  6  8  2  0  0  0  0
  7  6  1  0  0  0  0
  8 10  1  0  0  0  0
  9  8  1  0  0  0  0
 10 12  2  0  0  0  0
 10 11  1  0  0  0  0
 12 13  1  0  0  0  0
 14  5  1  0  0  0  0
 15 16  1  0  0  0  0
 15 14  2  0  0  0  0
 17 15  1  0  0  0  0
 18 17  1  0  0  0  0
 19 17  2  0  0  0  0
 19 36  1  0  0  0  0
 20 19  1  0  0  0  0
 21 26  1  0  0  0  0
 21 22  1  0  0  0  0
 22 23  1  0  0  0  0
 22 25  1  0  0  0  0
 24 22  1  0  0  0  0
 26 29  1  0  0  0  0
 26 27  1  0  0  0  0
 28 26  1  0  0  0  0
 30 33  1  0  0  0  0
 30 21  1  0  0  0  0
 31 30  1  0  0  0  0
 32 30  1  0  0  0  0
 34 35  1  0  0  0  0
 34 14  1  0  0  0  0
 36 34  2  0  0  0  0
 37 36  1  0  0  0  0
 38 43  1  0  0  0  0
 38 39  1  0  0  0  0
 39 40  1  0  0  0  0
 39 42  1  0  0  0  0
 41 39  1  0  0  0  0
 43 46  1  0  0  0  0
 43 44  1  0  0  0  0
 45 43  1  0  0  0  0
 47 50  1  0  0  0  0
 47 38  1  0  0  0  0
 48 47  1  0  0  0  0
 49 47  1  0  0  0  0
M  END
$$$$
