CSD_code = LEPFOD | q = 1 | S = 0 | Stoichiometry = C25H24ClN4ORu(1+) | MND = 9
 OpenBabel04212202063D

 56 62  0  0  1  0  0  0  0  0999 V2000
    3.1625    9.4121    8.8549 Ru  0  0  0  0  0  0  0  0  0  0  0  0
    3.9992   11.5613    8.6591 Cl  0  0  0  0  0  0  0  0  0  0  0  0
    4.4267    8.4948    4.3398 N   0  0  0  0  0  0  0  0  0  0  0  0
    4.6427    8.2553    3.3781 H   0  0  0  0  0  0  0  0  0  0  0  0
    3.1931    9.0291    4.5923 C   0  0  0  0  0  0  0  0  0  0  0  0
    2.3527    9.2151    3.7357 O   0  0  0  0  0  0  0  0  0  0  0  0
    2.9680    9.3115    6.0111 C   0  0  0  0  0  0  0  0  0  0  0  0
    3.8414    9.0985    6.9905 N   0  0  0  0  0  0  0  0  0  0  0  0
    5.1149    8.7272    6.6333 C   0  0  0  0  0  0  0  0  0  0  0  0
    6.1572    8.7395    7.5689 C   0  0  0  0  0  0  0  0  0  0  0  0
    5.9477    9.1218    8.5566 H   0  0  0  0  0  0  0  0  0  0  0  0
    7.4261    8.3517    7.2102 C   0  0  0  0  0  0  0  0  0  0  0  0
    8.2240    8.3790    7.9347 H   0  0  0  0  0  0  0  0  0  0  0  0
    7.6902    7.9370    5.9049 C   0  0  0  0  0  0  0  0  0  0  0  0
    8.6839    7.6194    5.6325 H   0  0  0  0  0  0  0  0  0  0  0  0
    6.6965    7.9680    4.9514 C   0  0  0  0  0  0  0  0  0  0  0  0
    6.9060    7.6915    3.9295 H   0  0  0  0  0  0  0  0  0  0  0  0
    5.4103    8.3878    5.2904 C   0  0  0  0  0  0  0  0  0  0  0  0
    0.6596   10.2797    5.7503 N   0  0  0  0  0  0  0  0  0  0  0  0
    0.5933   10.2243    4.7418 H   0  0  0  0  0  0  0  0  0  0  0  0
    1.7322    9.8537    6.4501 C   0  0  0  0  0  0  0  0  0  0  0  0
    1.5883   10.0498    7.7636 N   0  0  0  0  0  0  0  0  0  0  0  0
    0.3815   10.6698    7.9339 C   0  0  0  0  0  0  0  0  0  0  0  0
   -0.2671   11.1478    9.0715 C   0  0  0  0  0  0  0  0  0  0  0  0
    0.1943   11.0727   10.0422 H   0  0  0  0  0  0  0  0  0  0  0  0
   -1.4963   11.7443    8.9027 C   0  0  0  0  0  0  0  0  0  0  0  0
   -2.0195   12.1316    9.7628 H   0  0  0  0  0  0  0  0  0  0  0  0
   -2.0876   11.8705    7.6399 C   0  0  0  0  0  0  0  0  0  0  0  0
   -3.0524   12.3457    7.5607 H   0  0  0  0  0  0  0  0  0  0  0  0
   -1.4626   11.4135    6.4991 C   0  0  0  0  0  0  0  0  0  0  0  0
   -1.9104   11.5206    5.5246 H   0  0  0  0  0  0  0  0  0  0  0  0
   -0.2195   10.8158    6.6542 C   0  0  0  0  0  0  0  0  0  0  0  0
    1.8583    6.1821    9.2068 C   0  0  0  0  0  0  0  0  0  0  0  0
    0.7767    6.3075    9.3287 H   0  0  0  0  0  0  0  0  0  0  0  0
    2.5428    7.3800    9.8218 C   0  0  2  0  0  3  0  0  0  0  0  0
    3.9546    7.4797    9.8744 C   0  0  2  0  0  0  0  0  0  0  0  0
    4.5615    6.6748    9.4735 H   0  0  0  0  0  0  0  0  0  0  0  0
    4.5915    8.5122   10.5925 C   0  0  0  0  0  0  0  0  0  0  0  0
    5.6637    8.4731   10.7471 H   0  0  0  0  0  0  0  0  0  0  0  0
    3.8432    9.5304   11.2206 C   0  0  0  0  0  0  0  0  0  0  0  0
    2.4389    9.4996   11.0734 C   0  0  0  0  0  3  0  0  0  0  0  0
    1.8417   10.2376   11.5968 H   0  0  0  0  0  0  0  0  0  0  0  0
    1.8027    8.4303   10.4047 C   0  0  1  0  0  0  0  0  0  0  0  0
    0.7184    8.3689   10.4177 H   0  0  0  0  0  0  0  0  0  0  0  0
    4.5098   10.6123   11.9992 C   0  0  0  0  0  0  0  0  0  0  0  0
    3.8873   10.9365   12.8300 H   0  0  0  0  0  0  0  0  0  0  0  0
    4.6697   11.4747   11.3462 H   0  0  0  0  0  0  0  0  0  0  0  0
    5.4781   10.2896   12.3738 H   0  0  0  0  0  0  0  0  0  0  0  0
    2.2763    4.8958    9.9246 C   0  0  0  0  0  0  0  0  0  0  0  0
    1.7039    4.0579    9.5368 H   0  0  0  0  0  0  0  0  0  0  0  0
    2.0870    4.9744   10.9925 H   0  0  0  0  0  0  0  0  0  0  0  0
    3.3317    4.6840    9.7741 H   0  0  0  0  0  0  0  0  0  0  0  0
    2.1613    6.1016    7.7077 C   0  0  0  0  0  0  0  0  0  0  0  0
    1.6305    5.2626    7.2661 H   0  0  0  0  0  0  0  0  0  0  0  0
    3.2262    5.9615    7.5303 H   0  0  0  0  0  0  0  0  0  0  0  0
    1.8357    7.0155    7.2069 H   0  0  0  0  0  0  0  0  0  0  0  0
  1 36  1  0  0  0  0
  1 43  1  0  0  0  0
  2  1  1  0  0  0  0
  3  5  1  0  0  0  0
  3 18  1  0  0  0  0
  4  3  1  0  0  0  0
  5  7  1  0  0  0  0
  6  5  2  0  0  0  0
  7 21  2  0  0  0  0
  7  8  1  0  0  0  0
  8  1  1  0  0  0  0
  9  8  1  0  0  0  0
  9 10  1  0  0  0  0
 10 11  1  0  0  0  0
 12 10  2  0  0  0  0
 12 13  1  0  0  0  0
 14 12  1  0  0  0  0
 15 14  1  0  0  0  0
 16 18  1  0  0  0  0
 16 14  2  0  0  0  0
 17 16  1  0  0  0  0
 18  9  2  0  0  0  0
 19 21  1  0  0  0  0
 19 32  1  0  0  0  0
 20 19  1  0  0  0  0
 21 22  1  0  0  0  0
 22 23  1  0  0  0  0
 22  1  1  0  0  0  0
 23 24  1  0  0  0  0
 24 25  1  0  0  0  0
 26 24  2  0  0  0  0
 26 27  1  0  0  0  0
 28 26  1  0  0  0  0
 29 28  1  0  0  0  0
 30 32  1  0  0  0  0
 30 28  2  0  0  0  0
 31 30  1  0  0  0  0
 32 23  2  0  0  0  0
 33 34  1  0  0  0  0
 33 49  1  0  0  0  0
 35 33  1  1  0  0  0
 35 36  1  0  0  0  0
 35 43  1  0  0  0  0
 36 37  1  6  0  0  0
 36 38  1  0  0  0  0
 38 39  1  0  0  0  0
 38 40  2  0  0  0  0
 40 45  1  0  0  0  0
 41 40  1  0  0  0  0
 41 42  1  0  0  0  0
 43 44  1  6  0  0  0
 43 41  1  0  0  0  0
 45 48  1  0  0  0  0
 45 46  1  0  0  0  0
 47 45  1  0  0  0  0
 49 51  1  0  0  0  0
 50 49  1  0  0  0  0
 52 49  1  0  0  0  0
 53 33  1  0  0  0  0
 54 53  1  0  0  0  0
 55 53  1  0  0  0  0
 56 53  1  0  0  0  0
M  END
$$$$
