CSD_code = LEPGIY | q = 1 | S = 0 | Stoichiometry = C25H23ClN3O2Ru(1+) | MND = 9
 OpenBabel04212202063D

 55 59  0  0  1  0  0  0  0  0999 V2000
   12.6013    4.5508   11.2657 Ru  0  0  0  0  0  0  0  0  0  0  0  0
   13.7078    2.5557   11.6290 Cl  0  0  0  0  0 15  0  0  0  0  0  0
   16.5594    6.8692   10.1033 N   0  0  0  0  0  0  0  0  0  0  0  0
   17.3586    7.4309    9.8293 H   0  0  0  0  0  0  0  0  0  0  0  0
   15.8073    6.3344    9.0795 C   0  0  0  0  0  0  0  0  0  0  0  0
   16.0506    6.5340    7.9169 O   0  0  0  0  0  0  0  0  0  0  0  0
   14.6652    5.5497    9.5751 C   0  0  0  0  0  0  0  0  0  0  0  0
   14.3460    5.3965   10.8604 N   0  0  0  0  0  0  0  0  0  0  0  0
   15.2401    5.8211   11.8092 C   0  0  0  0  0  0  0  0  0  0  0  0
   15.1026    5.4357   13.1509 C   0  0  0  0  0  0  0  0  0  0  0  0
   14.3152    4.7409   13.4088 H   0  0  0  0  0  0  0  0  0  0  0  0
   16.0059    5.8642   14.0934 C   0  0  0  0  0  0  0  0  0  0  0  0
   15.9059    5.5490   15.1196 H   0  0  0  0  0  0  0  0  0  0  0  0
   17.0671    6.6927   13.7247 C   0  0  0  0  0  0  0  0  0  0  0  0
   17.7639    7.0359   14.4727 H   0  0  0  0  0  0  0  0  0  0  0  0
   17.2531    7.0433   12.4061 C   0  0  0  0  0  0  0  0  0  0  0  0
   18.0967    7.6478   12.1106 H   0  0  0  0  0  0  0  0  0  0  0  0
   16.3650    6.5924   11.4282 C   0  0  0  0  0  0  0  0  0  0  0  0
   13.8274    4.6901    7.3997 O   0  0  0  0  0  0  0  0  0  0  0  0
   13.7700    4.8622    8.7138 C   0  0  0  0  0  0  0  0  0  0  0  0
   12.7623    4.2197    9.3013 N   0  0  0  0  0  0  0  0  0  0  0  0
   12.1235    3.5300    8.3032 C   0  0  0  0  0  0  0  0  0  0  0  0
   11.0529    2.6410    8.2969 C   0  0  0  0  0  0  0  0  0  0  0  0
   10.5657    2.3523    9.2141 H   0  0  0  0  0  0  0  0  0  0  0  0
   10.6789    2.1181    7.0768 C   0  0  0  0  0  0  0  0  0  0  0  0
    9.8582    1.4194    7.0318 H   0  0  0  0  0  0  0  0  0  0  0  0
   11.3398    2.4594    5.8930 C   0  0  0  0  0  0  0  0  0  0  0  0
   11.0070    2.0232    4.9646 H   0  0  0  0  0  0  0  0  0  0  0  0
   12.4177    3.3249    5.8817 C   0  0  0  0  0  0  0  0  0  0  0  0
   12.9468    3.5784    4.9786 H   0  0  0  0  0  0  0  0  0  0  0  0
   12.8015    3.8470    7.1040 C   0  0  0  0  0  0  0  0  0  0  0  0
   10.1889    6.6842    9.9968 C   0  0  0  0  0  0  0  0  0  0  0  0
    9.8574    6.0043    9.2031 H   0  0  0  0  0  0  0  0  0  0  0  0
   10.7092    5.8490   11.1417 C   0  0  1  0  0  0  0  0  0  0  0  0
   10.2756    4.5026   11.2973 C   0  0  0  0  0  0  0  0  0  0  0  0
    9.5744    4.0940   10.5775 H   0  0  0  0  0  0  0  0  0  0  0  0
   10.6824    3.7327   12.3869 C   0  0  0  0  0  0  0  0  0  0  0  0
   10.3200    2.7160   12.5000 H   0  0  0  0  0  0  0  0  0  0  0  0
   11.4538    4.3059   13.4459 C   0  0  0  0  0  0  0  0  0  0  0  0
   11.8424    5.6429   13.3206 C   0  0  0  0  0  0  0  0  0  0  0  0
   12.3524    6.1373   14.1394 H   0  0  0  0  0  0  0  0  0  0  0  0
   11.5281    6.3891   12.1552 C   0  0  0  0  0  3  0  0  0  0  0  0
   11.8074    7.4360   12.1193 H   0  0  0  0  0  0  0  0  0  0  0  0
   11.7824    3.4867   14.6498 C   0  0  0  0  0  0  0  0  0  0  0  0
   12.2914    4.0773   15.4072 H   0  0  0  0  0  0  0  0  0  0  0  0
   12.4239    2.6511   14.3629 H   0  0  0  0  0  0  0  0  0  0  0  0
   10.8731    3.0680   15.0792 H   0  0  0  0  0  0  0  0  0  0  0  0
    8.9751    7.4860   10.4829 C   0  0  0  0  0  0  0  0  0  0  0  0
    9.2615    8.1732   11.2755 H   0  0  0  0  0  0  0  0  0  0  0  0
    8.2009    6.8235   10.8625 H   0  0  0  0  0  0  0  0  0  0  0  0
    8.5620    8.0620    9.6598 H   0  0  0  0  0  0  0  0  0  0  0  0
   11.2575    7.6129    9.4174 C   0  0  0  0  0  0  0  0  0  0  0  0
   11.4828    8.4315   10.0964 H   0  0  0  0  0  0  0  0  0  0  0  0
   10.9012    8.0442    8.4861 H   0  0  0  0  0  0  0  0  0  0  0  0
   12.1785    7.0649    9.2105 H   0  0  0  0  0  0  0  0  0  0  0  0
  3 18  1  0  0  0  0
  4  3  1  0  0  0  0
  5  7  1  0  0  0  0
  5  3  1  0  0  0  0
  6  5  2  0  0  0  0
  7  8  1  0  0  0  0
  8  1  1  0  0  0  0
  8  9  1  0  0  0  0
  9 10  1  0  0  0  0
 10 11  1  0  0  0  0
 10 12  2  0  0  0  0
 12 13  1  0  0  0  0
 14 12  1  0  0  0  0
 14 15  1  0  0  0  0
 16 14  2  0  0  0  0
 17 16  1  0  0  0  0
 18  9  2  0  0  0  0
 18 16  1  0  0  0  0
 19 20  1  0  0  0  0
 20 21  1  0  0  0  0
 20  7  2  0  0  0  0
 21  1  1  0  0  0  0
 22 21  1  0  0  0  0
 23 22  1  0  0  0  0
 23 24  1  0  0  0  0
 25 23  2  0  0  0  0
 26 25  1  0  0  0  0
 27 25  1  0  0  0  0
 28 27  1  0  0  0  0
 29 27  2  0  0  0  0
 29 31  1  0  0  0  0
 30 29  1  0  0  0  0
 31 19  1  0  0  0  0
 31 22  2  0  0  0  0
 32 48  1  0  0  0  0
 33 32  1  0  0  0  0
 34 32  1  6  0  0  0
 34  1  1  0  0  0  0
 34 35  1  0  0  0  0
 34 42  1  0  0  0  0
 35 37  2  0  0  0  0
 36 35  1  0  0  0  0
 37 38  1  0  0  0  0
 37 39  1  0  0  0  0
 39 44  1  0  0  0  0
 40 39  2  0  0  0  0
 40 41  1  0  0  0  0
 42 40  1  0  0  0  0
 43 42  1  0  0  0  0
 44 47  1  0  0  0  0
 44 45  1  0  0  0  0
 46 44  1  0  0  0  0
 48 50  1  0  0  0  0
 48 49  1  0  0  0  0
 51 48  1  0  0  0  0
 52 32  1  0  0  0  0
 52 53  1  0  0  0  0
 54 52  1  0  0  0  0
 55 52  1  0  0  0  0
M  END
$$$$
