CSD_code = LEPTUX | q = 0 | S = 0 | Stoichiometry = C5H6AuCl3N2 | MND = 2
 OpenBabel04212202063D

 17 17  0  0  1  0  0  0  0  0999 V2000
    3.9773   11.3569    6.3928 Au  0  0  0  0  0  0  0  0  0  0  0  0
    3.9773    9.1219    6.3928 Cl  0  0  0  0  0  0  0  0  0  0  0  0
    3.9773   13.3658    6.3928 C   0  0  1  0  0  3  0  0  0  0  0  0
    4.6082   15.4887    6.6544 C   0  0  0  0  0  0  0  0  0  0  0  0
    4.9729   14.1736    6.8056 N   0  0  0  0  0  0  0  0  0  0  0  0
    6.2401   13.7476    7.3309 C   0  0  0  0  0  0  0  0  0  0  0  0
    6.3722   14.1260    8.3451 H   0  0  0  0  0  0  0  0  0  0  0  0
    7.0508   14.1229    6.7054 H   0  0  0  0  0  0  0  0  0  0  0  0
    6.2578   12.6593    7.3401 H   0  0  0  0  0  0  0  0  0  0  0  0
    5.6233   16.7869    7.0750 Cl  0  0  0  0  0  0  0  0  0  0  0  0
    3.3464   15.4887    6.1313 C   0  0  0  0  0  0  0  0  0  0  0  0
    2.9817   14.1736    5.9801 N   0  0  0  0  0  0  0  0  0  0  0  0
    1.7145   13.7477    5.4548 C   0  0  0  0  0  0  0  0  0  0  0  0
    1.5825   14.1260    4.4405 H   0  0  0  0  0  0  0  0  0  0  0  0
    0.9038   14.1229    6.0803 H   0  0  0  0  0  0  0  0  0  0  0  0
    1.6968   12.6593    5.4456 H   0  0  0  0  0  0  0  0  0  0  0  0
    2.3313   16.7869    5.7107 Cl  0  0  0  0  0  0  0  0  0  0  0  0
  1  2  1  0  0  0  0
  3  1  1  6  0  0  0
  3  5  1  0  0  0  0
  4  5  1  0  0  0  0
  4 10  1  0  0  0  0
  5  6  1  0  0  0  0
  6  9  1  0  0  0  0
  6  7  1  0  0  0  0
  8  6  1  0  0  0  0
 11  4  2  0  0  0  0
 12 11  1  0  0  0  0
 12  3  1  0  0  0  0
 13 12  1  0  0  0  0
 13 15  1  0  0  0  0
 14 13  1  0  0  0  0
 16 13  1  0  0  0  0
 17 11  1  0  0  0  0
M  END
$$$$
