CSD_code = LEPXIQ | q = 0 | S = 0 | Stoichiometry = C14H22I2N2Zn | MND = 4
 OpenBabel04212202063D

 41 42  0  0  0  0  0  0  0  0999 V2000
    7.1235    6.7083   -2.8667 I   0  0  0  0  0  0  0  0  0  0  0  0
    7.1232    6.7424    1.7945 I   0  0  0  0  0  0  0  0  0  0  0  0
    7.1232    7.7123   -0.5707 Zn  0  0  0  0  0  0  0  0  0  0  0  0
    4.2847    8.6897    0.1213 N   0  0  0  0  0  2  0  0  0  0  0  0
    5.3376    8.8436   -0.3289 C   0  0  0  0  0  2  0  0  0  0  0  0
    1.8776    8.4982    2.9560 C   0  0  0  0  0  0  0  0  0  0  0  0
    1.0459    9.0448    2.5046 H   0  0  0  0  0  0  0  0  0  0  0  0
    1.9554    8.8077    3.9990 H   0  0  0  0  0  0  0  0  0  0  0  0
    1.5306    6.5497    1.4180 C   0  0  0  0  0  0  0  0  0  0  0  0
    1.3633    5.4731    1.3670 H   0  0  0  0  0  0  0  0  0  0  0  0
    0.6891    7.0437    0.9258 H   0  0  0  0  0  0  0  0  0  0  0  0
    3.0832    8.3996    0.7685 C   0  0  0  0  0  0  0  0  0  0  0  0
    2.2856    8.9483    0.2519 H   0  0  0  0  0  0  0  0  0  0  0  0
    1.6093    6.9984    2.8742 C   0  0  0  0  0  0  0  0  0  0  0  0
    0.6755    6.7610    3.3857 H   0  0  0  0  0  0  0  0  0  0  0  0
    2.4150    6.4592    3.3764 H   0  0  0  0  0  0  0  0  0  0  0  0
    3.1728    8.8495    2.2315 C   0  0  0  0  0  0  0  0  0  0  0  0
    3.3570    9.9252    2.2776 H   0  0  0  0  0  0  0  0  0  0  0  0
    4.0121    8.3385    2.7090 H   0  0  0  0  0  0  0  0  0  0  0  0
    2.8230    6.8900    0.6846 C   0  0  0  0  0  0  0  0  0  0  0  0
    3.6571    6.3605    1.1508 H   0  0  0  0  0  0  0  0  0  0  0  0
    2.7620    6.5817   -0.3616 H   0  0  0  0  0  0  0  0  0  0  0  0
    9.9616    8.6900    0.1214 N   0  0  0  0  0  2  0  0  0  0  0  0
    8.9087    8.8439   -0.3288 C   0  0  0  0  0  2  0  0  0  0  0  0
   12.3689    8.4983    2.9560 C   0  0  0  0  0  0  0  0  0  0  0  0
   13.2007    9.0448    2.5044 H   0  0  0  0  0  0  0  0  0  0  0  0
   12.2912    8.8080    3.9989 H   0  0  0  0  0  0  0  0  0  0  0  0
   12.7155    6.5496    1.4181 C   0  0  0  0  0  0  0  0  0  0  0  0
   12.8827    5.4730    1.3671 H   0  0  0  0  0  0  0  0  0  0  0  0
   13.5570    7.0434    0.9258 H   0  0  0  0  0  0  0  0  0  0  0  0
   11.1631    8.3998    0.7685 C   0  0  0  0  0  0  0  0  0  0  0  0
   11.9608    8.9484    0.2519 H   0  0  0  0  0  0  0  0  0  0  0  0
   12.6369    6.9985    2.8742 C   0  0  0  0  0  0  0  0  0  0  0  0
   13.5707    6.7609    3.3857 H   0  0  0  0  0  0  0  0  0  0  0  0
   11.8312    6.4594    3.3765 H   0  0  0  0  0  0  0  0  0  0  0  0
   11.0737    8.8497    2.2315 C   0  0  0  0  0  0  0  0  0  0  0  0
   10.8897    9.9254    2.2775 H   0  0  0  0  0  0  0  0  0  0  0  0
   10.2343    8.3389    2.7091 H   0  0  0  0  0  0  0  0  0  0  0  0
   11.4231    6.8901    0.6847 C   0  0  0  0  0  0  0  0  0  0  0  0
   10.5889    6.3608    1.1509 H   0  0  0  0  0  0  0  0  0  0  0  0
   11.4840    6.5818   -0.3614 H   0  0  0  0  0  0  0  0  0  0  0  0
  1  3  1  0  0  0  0
  3  5  1  0  0  0  0
  3 24  1  0  0  0  0
  3  2  1  0  0  0  0
  4 12  1  0  0  0  0
  5  4  1  0  0  0  0
  6  8  1  0  0  0  0
  7  6  1  0  0  0  0
  9 14  1  0  0  0  0
 10  9  1  0  0  0  0
 11  9  1  0  0  0  0
 12 17  1  0  0  0  0
 13 12  1  0  0  0  0
 14  6  1  0  0  0  0
 14 16  1  0  0  0  0
 14 15  1  0  0  0  0
 17 18  1  0  0  0  0
 17 19  1  0  0  0  0
 17  6  1  0  0  0  0
 20 12  1  0  0  0  0
 20 21  1  0  0  0  0
 20  9  1  0  0  0  0
 22 20  1  0  0  0  0
 23 31  1  0  0  0  0
 24 23  1  0  0  0  0
 25 27  1  0  0  0  0
 26 25  1  0  0  0  0
 28 33  1  0  0  0  0
 29 28  1  0  0  0  0
 30 28  1  0  0  0  0
 31 36  1  0  0  0  0
 32 31  1  0  0  0  0
 33 25  1  0  0  0  0
 33 35  1  0  0  0  0
 33 34  1  0  0  0  0
 36 37  1  0  0  0  0
 36 38  1  0  0  0  0
 36 25  1  0  0  0  0
 39 31  1  0  0  0  0
 39 40  1  0  0  0  0
 39 28  1  0  0  0  0
 41 39  1  0  0  0  0
M  END
$$$$
