CSD_code = LEPZEO | q = -1 | S = 0 | Stoichiometry = C13H9Cl4N2O2Ru(1-) | MND = 6
 OpenBabel04212202063D

 31 33  0  0  0  0  0  0  0  0999 V2000
    2.4865    9.3291    0.7788 Ru  0  0  0  0  0  0  0  0  0  0  0  0
    0.1313    9.7290    0.7145 Cl  0  0  0  0  0  0  0  0  0  0  0  0
    2.2197    7.0077    0.9702 Cl  0  0  0  0  0  0  0  0  0  0  0  0
    4.8333    9.0899    0.4728 Cl  0  0  0  0  0  0  0  0  0  0  0  0
    3.6167   14.7829    5.0125 Cl  0  0  0  0  0  0  0  0  0  0  0  0
    2.5913    9.5726    3.5885 O   0  0  0  0  0  1  0  0  0  0  0  0
    2.3338    9.0256   -1.1770 O   0  0  0  0  0  0  0  0  0  0  0  0
    2.5644    9.4777    2.4323 N   0  0  0  0  0  2  0  0  0  0  0  0
    2.6406   11.3569    0.3207 N   0  0  0  0  0  0  0  0  0  0  0  0
    2.0602    9.8062   -2.1422 C   0  0  0  0  0  0  0  0  0  0  0  0
    1.7910    9.2501   -3.4248 C   0  0  0  0  0  0  0  0  0  0  0  0
    1.8264    8.1738   -3.5060 H   0  0  0  0  0  0  0  0  0  0  0  0
    1.4876   10.0400   -4.4958 C   0  0  0  0  0  0  0  0  0  0  0  0
    1.2784    9.5880   -5.4559 H   0  0  0  0  0  0  0  0  0  0  0  0
    1.4413   11.4358   -4.3694 C   0  0  0  0  0  0  0  0  0  0  0  0
    1.1974   12.0467   -5.2263 H   0  0  0  0  0  0  0  0  0  0  0  0
    1.7079   12.0106   -3.1575 C   0  0  0  0  0  0  0  0  0  0  0  0
    1.6791   13.0872   -3.0477 H   0  0  0  0  0  0  0  0  0  0  0  0
    2.0212   11.2354   -2.0236 C   0  0  0  0  0  0  0  0  0  0  0  0
    2.3122   11.8991   -0.8077 C   0  0  0  0  0  3  0  0  0  0  0  0
    2.2968   12.9928   -0.8484 H   0  0  0  0  0  0  0  0  0  0  0  0
    2.8701   12.1814    1.4261 C   0  0  0  0  0  0  0  0  0  0  0  0
    1.9333   13.1444    1.8022 C   0  0  0  0  0  0  0  0  0  0  0  0
    1.0097   13.2303    1.2493 H   0  0  0  0  0  0  0  0  0  0  0  0
    2.1583   13.9381    2.9108 C   0  0  0  0  0  0  0  0  0  0  0  0
    1.4271   14.6704    3.2167 H   0  0  0  0  0  0  0  0  0  0  0  0
    3.3292   13.7793    3.6326 C   0  0  0  0  0  0  0  0  0  0  0  0
    4.2718   12.8289    3.2713 C   0  0  0  0  0  0  0  0  0  0  0  0
    5.1756   12.7138    3.8488 H   0  0  0  0  0  0  0  0  0  0  0  0
    4.0420   12.0281    2.1704 C   0  0  0  0  0  0  0  0  0  0  0  0
    4.7630   11.2785    1.8695 H   0  0  0  0  0  0  0  0  0  0  0  0
  1  3  1  0  0  0  0
  1  8  1  0  0  0  0
  2  1  1  0  0  0  0
  4  1  1  0  0  0  0
  7  1  1  0  0  0  0
  8  6  1  0  0  0  0
  9  1  1  0  0  0  0
  9 22  1  0  0  0  0
 10 19  1  0  0  0  0
 10  7  1  0  0  0  0
 11 10  2  0  0  0  0
 12 11  1  0  0  0  0
 13 15  2  0  0  0  0
 13 11  1  0  0  0  0
 14 13  1  0  0  0  0
 15 17  1  0  0  0  0
 16 15  1  0  0  0  0
 17 18  1  0  0  0  0
 17 19  2  0  0  0  0
 19 20  1  0  0  0  0
 20  9  1  0  0  0  0
 21 20  1  0  0  0  0
 22 23  2  0  0  0  0
 22 30  1  0  0  0  0
 23 25  1  0  0  0  0
 24 23  1  0  0  0  0
 25 26  1  0  0  0  0
 25 27  2  0  0  0  0
 27  5  1  0  0  0  0
 28 27  1  0  0  0  0
 28 29  1  0  0  0  0
 30 28  2  0  0  0  0
 31 30  1  0  0  0  0
M  END
$$$$
