CSD_code = LEPZOY | q = -1 | S = 0 | Stoichiometry = C19H22Cl3N2O2Ru(1-) | MND = 6
 OpenBabel04212202063D

 49 51  0  0  0  0  0  0  0  0999 V2000
    1.8895    4.1303   11.3648 Ru  0  0  0  0  0  0  0  0  0  0  0  0
    0.7444    5.8325   10.1378 Cl  0  0  0  0  0  0  0  0  0  0  0  0
    3.1746    3.6392    9.4634 Cl  0  0  0  0  0  0  0  0  0  0  0  0
    2.7935    2.2040   12.4063 Cl  0  0  0  0  0  0  0  0  0  0  0  0
    3.9328    5.7742   12.4078 O   0  0  0  0  0  1  0  0  0  0  0  0
    0.5085    2.9378   10.5671 O   0  0  0  0  0  0  0  0  0  0  0  0
    3.0840    5.1104   11.9743 N   0  0  0  0  0  2  0  0  0  0  0  0
    0.5198    4.4275   12.9279 N   0  0  0  0  0  0  0  0  0  0  0  0
   -0.7610    3.0157   10.6446 C   0  0  0  0  0  0  0  0  0  0  0  0
   -1.5576    2.3780    9.6547 C   0  0  0  0  0  0  0  0  0  0  0  0
   -1.0333    1.8748    8.8558 H   0  0  0  0  0  0  0  0  0  0  0  0
   -2.9224    2.4259    9.6962 C   0  0  0  0  0  0  0  0  0  0  0  0
   -3.5006    1.9465    8.9176 H   0  0  0  0  0  0  0  0  0  0  0  0
   -3.5864    3.0882   10.7363 C   0  0  0  0  0  0  0  0  0  0  0  0
   -4.6662    3.1182   10.7558 H   0  0  0  0  0  0  0  0  0  0  0  0
   -2.8545    3.6898   11.7247 C   0  0  0  0  0  0  0  0  0  0  0  0
   -3.3546    4.1993   12.5389 H   0  0  0  0  0  0  0  0  0  0  0  0
   -1.4487    3.6782   11.7130 C   0  0  0  0  0  0  0  0  0  0  0  0
   -0.7519    4.2496   12.8111 C   0  0  0  0  0  3  0  0  0  0  0  0
   -1.3754    4.5374   13.6640 H   0  0  0  0  0  0  0  0  0  0  0  0
    1.0242    4.8475   14.1829 C   0  0  0  0  0  0  0  0  0  0  0  0
    1.1647    3.9047   15.2129 C   0  0  0  0  0  0  0  0  0  0  0  0
    1.6897    4.3292   16.4260 C   0  0  0  0  0  0  0  0  0  0  0  0
    1.8062    3.6194   17.2305 H   0  0  0  0  0  0  0  0  0  0  0  0
    2.0573    5.6443   16.6274 C   0  0  0  0  0  0  0  0  0  0  0  0
    2.4709    5.9523   17.5777 H   0  0  0  0  0  0  0  0  0  0  0  0
    1.8708    6.5711   15.6205 C   0  0  0  0  0  0  0  0  0  0  0  0
    2.1272    7.6039   15.7965 H   0  0  0  0  0  0  0  0  0  0  0  0
    1.3463    6.1975   14.3915 C   0  0  0  0  0  0  0  0  0  0  0  0
    0.7121    2.4705   15.0552 C   0  0  0  0  0  0  0  0  0  0  0  0
    0.5370    2.2650   13.9956 H   0  0  0  0  0  0  0  0  0  0  0  0
    1.7706    1.4743   15.5267 C   0  0  0  0  0  0  0  0  0  0  0  0
    2.6860    1.6322   14.9642 H   0  0  0  0  0  0  0  0  0  0  0  0
    1.4250    0.4614   15.3319 H   0  0  0  0  0  0  0  0  0  0  0  0
    1.9727    1.5684   16.5913 H   0  0  0  0  0  0  0  0  0  0  0  0
   -0.5999    2.2606   15.8194 C   0  0  0  0  0  0  0  0  0  0  0  0
   -0.9452    1.2365   15.6925 H   0  0  0  0  0  0  0  0  0  0  0  0
   -1.3772    2.9305   15.4564 H   0  0  0  0  0  0  0  0  0  0  0  0
   -0.4568    2.4492   16.8823 H   0  0  0  0  0  0  0  0  0  0  0  0
    1.0342    7.2446   13.3475 C   0  0  0  0  0  0  0  0  0  0  0  0
    0.9650    6.7681   12.3647 H   0  0  0  0  0  0  0  0  0  0  0  0
   -0.3354    7.8596   13.6575 C   0  0  0  0  0  0  0  0  0  0  0  0
   -1.1115    7.0980   13.6354 H   0  0  0  0  0  0  0  0  0  0  0  0
   -0.5773    8.6127   12.9118 H   0  0  0  0  0  0  0  0  0  0  0  0
   -0.3333    8.3248   14.6431 H   0  0  0  0  0  0  0  0  0  0  0  0
    2.0953    8.3414   13.2559 C   0  0  0  0  0  0  0  0  0  0  0  0
    2.0571    9.0121   14.1127 H   0  0  0  0  0  0  0  0  0  0  0  0
    1.9242    8.9289   12.3569 H   0  0  0  0  0  0  0  0  0  0  0  0
    3.0893    7.9052   13.1948 H   0  0  0  0  0  0  0  0  0  0  0  0
  1  7  1  0  0  0  0
  1  4  1  0  0  0  0
  1  8  1  0  0  0  0
  2  1  1  0  0  0  0
  3  1  1  0  0  0  0
  6  9  1  0  0  0  0
  6  1  1  0  0  0  0
  7  5  1  0  0  0  0
  8 21  1  0  0  0  0
  9 18  1  0  0  0  0
 10 12  1  0  0  0  0
 10  9  2  0  0  0  0
 11 10  1  0  0  0  0
 12 14  2  0  0  0  0
 13 12  1  0  0  0  0
 14 15  1  0  0  0  0
 14 16  1  0  0  0  0
 16 17  1  0  0  0  0
 18 16  2  0  0  0  0
 18 19  1  0  0  0  0
 19  8  1  0  0  0  0
 19 20  1  0  0  0  0
 21 29  2  0  0  0  0
 21 22  1  0  0  0  0
 22 23  2  0  0  0  0
 23 25  1  0  0  0  0
 23 24  1  0  0  0  0
 25 26  1  0  0  0  0
 27 28  1  0  0  0  0
 27 25  2  0  0  0  0
 29 27  1  0  0  0  0
 30 22  1  0  0  0  0
 30 32  1  0  0  0  0
 30 36  1  0  0  0  0
 31 30  1  0  0  0  0
 32 35  1  0  0  0  0
 33 32  1  0  0  0  0
 34 32  1  0  0  0  0
 36 39  1  0  0  0  0
 37 36  1  0  0  0  0
 38 36  1  0  0  0  0
 40 42  1  0  0  0  0
 40 29  1  0  0  0  0
 41 40  1  0  0  0  0
 42 45  1  0  0  0  0
 43 42  1  0  0  0  0
 44 42  1  0  0  0  0
 46 40  1  0  0  0  0
 46 47  1  0  0  0  0
 48 46  1  0  0  0  0
 49 46  1  0  0  0  0
M  END
$$$$
