CSD_code = LEPZAK | q = -1 | S = 0 | Stoichiometry = C14H12Cl3N2O2Ru(1-) | MND = 6
 OpenBabel04212202063D

 34 36  0  0  0  0  0  0  0  0999 V2000
    2.1241    9.0393    2.9831 Ru  0  0  0  0  0  0  0  0  0  0  0  0
    3.2826    8.0692    1.1435 Cl  0  0  0  0  0  0  0  0  0  0  0  0
    1.2032    9.8516    5.0297 Cl  0  0  0  0  0  0  0  0  0  0  0  0
    2.4711   11.2219    2.1721 Cl  0  0  0  0  0  0  0  0  0  0  0  0
   -0.3430    9.1797    1.6274 O   0  0  0  0  0  1  0  0  0  0  0  0
    3.8775    9.2849    3.8933 O   0  0  0  0  0  0  0  0  0  0  0  0
    0.6579    9.0418    2.1982 N   0  0  0  0  0  2  0  0  0  0  0  0
    2.1350    7.1388    3.8199 N   0  0  0  0  0  0  0  0  0  0  0  0
    4.2580    8.8174    5.0160 C   0  0  0  0  0  0  0  0  0  0  0  0
    5.2853    9.4833    5.7378 C   0  0  0  0  0  0  0  0  0  0  0  0
    5.6744   10.3940    5.3073 H   0  0  0  0  0  0  0  0  0  0  0  0
    5.7366    9.0086    6.9372 C   0  0  0  0  0  0  0  0  0  0  0  0
    6.5055    9.5486    7.4736 H   0  0  0  0  0  0  0  0  0  0  0  0
    5.2170    7.8293    7.4844 C   0  0  0  0  0  0  0  0  0  0  0  0
    5.5833    7.4667    8.4341 H   0  0  0  0  0  0  0  0  0  0  0  0
    4.2474    7.1420    6.8034 C   0  0  0  0  0  0  0  0  0  0  0  0
    3.8419    6.2249    7.2123 H   0  0  0  0  0  0  0  0  0  0  0  0
    3.7415    7.6051    5.5772 C   0  0  0  0  0  0  0  0  0  0  0  0
    2.7975    6.8094    4.8719 C   0  0  0  0  0  3  0  0  0  0  0  0
    2.6650    5.7910    5.2564 H   0  0  0  0  0  0  0  0  0  0  0  0
    1.3502    6.1383    3.1442 C   0  0  0  0  0  0  0  0  0  0  0  0
    1.4770    5.1598    3.6376 H   0  0  0  0  0  0  0  0  0  0  0  0
    1.7343    6.0615    2.1182 H   0  0  0  0  0  0  0  0  0  0  0  0
   -0.1197    6.4834    3.1055 C   0  0  0  0  0  0  0  0  0  0  0  0
   -0.8856    6.1316    2.0005 C   0  0  0  0  0  0  0  0  0  0  0  0
   -0.4150    5.6376    1.1623 H   0  0  0  0  0  0  0  0  0  0  0  0
   -2.2348    6.4319    1.9606 C   0  0  0  0  0  0  0  0  0  0  0  0
   -2.8188    6.1642    1.0916 H   0  0  0  0  0  0  0  0  0  0  0  0
   -2.8308    7.0916    3.0221 C   0  0  0  0  0  0  0  0  0  0  0  0
   -3.8816    7.3412    2.9824 H   0  0  0  0  0  0  0  0  0  0  0  0
   -2.0745    7.4406    4.1270 C   0  0  0  0  0  0  0  0  0  0  0  0
   -2.5283    7.9664    4.9537 H   0  0  0  0  0  0  0  0  0  0  0  0
   -0.7262    7.1311    4.1762 C   0  0  0  0  0  0  0  0  0  0  0  0
   -0.1417    7.4228    5.0367 H   0  0  0  0  0  0  0  0  0  0  0  0
  1  8  1  0  0  0  0
  1  6  1  0  0  0  0
  1  3  1  0  0  0  0
  2  1  1  0  0  0  0
  4  1  1  0  0  0  0
  5  7  1  0  0  0  0
  6  9  1  0  0  0  0
  7  1  1  0  0  0  0
  8 19  1  0  0  0  0
  9 18  2  0  0  0  0
  9 10  1  0  0  0  0
 10 12  2  0  0  0  0
 11 10  1  0  0  0  0
 12 13  1  0  0  0  0
 12 14  1  0  0  0  0
 14 15  1  0  0  0  0
 16 17  1  0  0  0  0
 16 14  2  0  0  0  0
 18 16  1  0  0  0  0
 19 20  1  0  0  0  0
 19 18  1  0  0  0  0
 21 22  1  0  0  0  0
 21  8  1  0  0  0  0
 23 21  1  0  0  0  0
 24 21  1  0  0  0  0
 24 33  1  0  0  0  0
 25 24  2  0  0  0  0
 26 25  1  0  0  0  0
 27 25  1  0  0  0  0
 27 29  2  0  0  0  0
 28 27  1  0  0  0  0
 29 31  1  0  0  0  0
 30 29  1  0  0  0  0
 31 33  2  0  0  0  0
 31 32  1  0  0  0  0
 33 34  1  0  0  0  0
M  END
$$$$
