CSD_code = LEQROP | q = 0 | S = 0 | Stoichiometry = C10H8Cl2HgN2 | MND = 4
 OpenBabel04212202063D

 23 23  0  0  0  0  0  0  0  0999 V2000
    6.5058   11.2962   -1.7627 Hg  0  0  0  0  0  0  0  0  0  0  0  0
    8.6961   10.6409   -1.7413 Cl  0  0  0  0  0  0  0  0  0  0  0  0
    7.0637   13.3988   -3.0266 N   0  0  0  0  0  0  0  0  0  0  0  0
    7.8408   13.3555   -4.0985 C   0  0  0  0  0  0  0  0  0  0  0  0
    7.8972   12.4018   -4.6061 H   0  0  0  0  0  0  0  0  0  0  0  0
    8.5506   14.4526   -4.5612 C   0  0  0  0  0  0  0  0  0  0  0  0
    9.1704   14.3684   -5.4391 H   0  0  0  0  0  0  0  0  0  0  0  0
    8.4530   15.6432   -3.8602 C   0  0  0  0  0  0  0  0  0  0  0  0
    9.0046   16.5168   -4.1741 H   0  0  0  0  0  0  0  0  0  0  0  0
    7.6385   15.6940   -2.7421 C   0  0  0  0  0  0  0  0  0  0  0  0
    7.5624   16.5999   -2.1620 H   0  0  0  0  0  0  0  0  0  0  0  0
    6.9479   14.5472   -2.3540 C   0  0  0  0  0  0  0  0  0  0  0  0
    4.3159   10.6391   -1.7833 Cl  0  0  0  0  0  0  0  0  0  0  0  0
    5.9469   13.3988   -0.4993 N   0  0  0  0  0  0  0  0  0  0  0  0
    5.1697   13.3554    0.5724 C   0  0  0  0  0  0  0  0  0  0  0  0
    5.1128   12.4016    1.0797 H   0  0  0  0  0  0  0  0  0  0  0  0
    4.4603   14.4526    1.0353 C   0  0  0  0  0  0  0  0  0  0  0  0
    3.8402   14.3685    1.9131 H   0  0  0  0  0  0  0  0  0  0  0  0
    4.5585   15.6435    0.3347 C   0  0  0  0  0  0  0  0  0  0  0  0
    4.0072   16.5172    0.6487 H   0  0  0  0  0  0  0  0  0  0  0  0
    5.3730   15.6942   -0.7833 C   0  0  0  0  0  0  0  0  0  0  0  0
    5.4496   16.6002   -1.3632 H   0  0  0  0  0  0  0  0  0  0  0  0
    6.0632   14.5473   -1.1717 C   0  0  0  0  0  0  0  0  0  0  0  0
  1  2  1  0  0  0  0
  3 12  1  0  0  0  0
  4  3  2  0  0  0  0
  5  4  1  0  0  0  0
  6  4  1  0  0  0  0
  6  8  2  0  0  0  0
  7  6  1  0  0  0  0
  8 10  1  0  0  0  0
  9  8  1  0  0  0  0
 10 12  2  0  0  0  0
 10 11  1  0  0  0  0
 12 23  1  0  0  0  0
 13  1  1  0  0  0  0
 14 15  1  0  0  0  0
 15 17  2  0  0  0  0
 15 16  1  0  0  0  0
 17 18  1  0  0  0  0
 19 20  1  0  0  0  0
 19 17  1  0  0  0  0
 21 19  2  0  0  0  0
 22 21  1  0  0  0  0
 23 21  1  0  0  0  0
 23 14  2  0  0  0  0
M  END
$$$$
