CSD_code = LEQSOQ | q = 0 | S = 0 | Stoichiometry = C14H16Cl2PdS2 | MND = 4
 OpenBabel04212202063D

 35 36  0  0  0  0  0  0  0  0999 V2000
    5.0485    3.6142    0.0011 Pd  0  0  0  0  0  0  0  0  0  0  0  0
    6.9840    3.0254   -1.1059 Cl  0  0  0  0  0  0  0  0  0  0  0  0
    5.8799    3.1812    2.1166 S   0  0  1  0  0  3  0  0  0  0  0  0
    4.8161    1.7365    2.2509 C   0  0  0  0  0  0  0  0  0  0  0  0
    4.1666    1.4951    3.4491 C   0  0  0  0  0  0  0  0  0  0  0  0
    4.3178    2.1639    4.2823 H   0  0  0  0  0  0  0  0  0  0  0  0
    3.3088    0.4120    3.5526 C   0  0  0  0  0  0  0  0  0  0  0  0
    2.7918    0.2271    4.4819 H   0  0  0  0  0  0  0  0  0  0  0  0
    3.1092   -0.4211    2.4658 C   0  0  0  0  0  0  0  0  0  0  0  0
    2.4338   -1.2596    2.5458 H   0  0  0  0  0  0  0  0  0  0  0  0
    3.7670   -0.1768    1.2697 C   0  0  0  0  0  0  0  0  0  0  0  0
    3.6062   -0.8246    0.4211 H   0  0  0  0  0  0  0  0  0  0  0  0
    4.6224    0.9056    1.1500 C   0  0  0  0  0  0  0  0  0  0  0  0
    5.1481    1.0881    0.2036 H   0  0  0  0  0  0  0  0  0  0  0  0
    7.4839    2.3307    2.0001 C   0  0  0  0  0  0  0  0  0  0  0  0
    7.6164    1.7411    2.9030 H   0  0  0  0  0  0  0  0  0  0  0  0
    8.2439    3.1033    1.9357 H   0  0  0  0  0  0  0  0  0  0  0  0
    7.5205    1.7120    1.1079 H   0  0  0  0  0  0  0  0  0  0  0  0
    3.1136    4.2049    1.1062 Cl  0  0  0  0  0  0  0  0  0  0  0  0
    4.2190    4.0461   -2.1151 S   0  0  2  0  0  3  0  0  0  0  0  0
    5.2815    5.4918   -2.2497 C   0  0  0  0  0  0  0  0  0  0  0  0
    5.9325    5.7320   -3.4473 C   0  0  0  0  0  0  0  0  0  0  0  0
    5.7832    5.0618   -4.2798 H   0  0  0  0  0  0  0  0  0  0  0  0
    6.7892    6.8159   -3.5513 C   0  0  0  0  0  0  0  0  0  0  0  0
    7.3071    7.0001   -4.4802 H   0  0  0  0  0  0  0  0  0  0  0  0
    6.9861    7.6510   -2.4655 C   0  0  0  0  0  0  0  0  0  0  0  0
    7.6604    8.4902   -2.5458 H   0  0  0  0  0  0  0  0  0  0  0  0
    6.3271    7.4076   -1.2699 C   0  0  0  0  0  0  0  0  0  0  0  0
    6.4859    8.0569   -0.4220 H   0  0  0  0  0  0  0  0  0  0  0  0
    5.4728    6.3243   -1.1497 C   0  0  0  0  0  0  0  0  0  0  0  0
    4.9464    6.1423   -0.2036 H   0  0  0  0  0  0  0  0  0  0  0  0
    2.6139    4.8947   -2.0023 C   0  0  0  0  0  0  0  0  0  0  0  0
    2.4815    5.4815   -2.9071 H   0  0  0  0  0  0  0  0  0  0  0  0
    1.8550    4.1212   -1.9364 H   0  0  0  0  0  0  0  0  0  0  0  0
    2.5760    5.5158   -1.1119 H   0  0  0  0  0  0  0  0  0  0  0  0
  1 19  1  0  0  0  0
  1  3  1  0  0  0  0
  2  1  1  0  0  0  0
  3 15  1  6  0  0  0
  3  4  1  0  0  0  0
  4  5  1  0  0  0  0
  5  7  2  0  0  0  0
  5  6  1  0  0  0  0
  7  8  1  0  0  0  0
  9 10  1  0  0  0  0
  9  7  1  0  0  0  0
 11  9  2  0  0  0  0
 12 11  1  0  0  0  0
 13 11  1  0  0  0  0
 13  4  2  0  0  0  0
 14 13  1  0  0  0  0
 15 16  1  0  0  0  0
 17 15  1  0  0  0  0
 18 15  1  0  0  0  0
 20 32  1  1  0  0  0
 20  1  1  0  0  0  0
 21 20  1  0  0  0  0
 21 30  1  0  0  0  0
 22 21  2  0  0  0  0
 23 22  1  0  0  0  0
 24 22  1  0  0  0  0
 24 26  2  0  0  0  0
 25 24  1  0  0  0  0
 26 28  1  0  0  0  0
 27 26  1  0  0  0  0
 28 30  2  0  0  0  0
 28 29  1  0  0  0  0
 30 31  1  0  0  0  0
 32 34  1  0  0  0  0
 32 35  1  0  0  0  0
 33 32  1  0  0  0  0
M  END
$$$$
