CSD_code = LEQTAD | q = 0 | S = 0 | Stoichiometry = C24H20Cl2PdS2 | MND = 4
 OpenBabel04212202063D

 49 52  0  0  0  0  0  0  0  0999 V2000
    0.0007   -0.0002    0.0006 Pd  0  0  0  0  0  0  0  0  0  0  0  0
    0.7546   -0.4637   -2.1290 S   0  0  0  0  0  3  0  0  0  0  0  0
    1.1338   -1.9530    0.5012 Cl  0  0  0  0  0  0  0  0  0  0  0  0
   -0.7115    2.9249   -4.7738 C   0  0  0  0  0  0  0  0  0  0  0  0
   -1.0470    3.7449   -5.3905 H   0  0  0  0  0  0  0  0  0  0  0  0
   -2.6297   -2.6838   -1.9072 C   0  0  0  0  0  0  0  0  0  0  0  0
   -3.6168   -2.5953   -1.4785 H   0  0  0  0  0  0  0  0  0  0  0  0
    0.1203    0.8321   -3.1792 C   0  0  0  0  0  0  0  0  0  0  0  0
   -0.4629   -1.7647   -2.3364 C   0  0  0  0  0  0  0  0  0  0  0  0
   -1.7334   -1.6359   -1.7792 C   0  0  0  0  0  0  0  0  0  0  0  0
   -2.0365   -0.7086   -1.2754 H   0  0  0  0  0  0  0  0  0  0  0  0
   -1.2704    1.6687   -4.9297 C   0  0  0  0  0  0  0  0  0  0  0  0
   -2.0393    1.5040   -5.6696 H   0  0  0  0  0  0  0  0  0  0  0  0
   -0.0918   -2.9182   -3.0070 C   0  0  0  0  0  0  0  0  0  0  0  0
    0.9026   -3.0003   -3.4181 H   0  0  0  0  0  0  0  0  0  0  0  0
   -0.9979   -3.9597   -3.1235 C   0  0  0  0  0  0  0  0  0  0  0  0
   -0.7102   -4.8629   -3.6397 H   0  0  0  0  0  0  0  0  0  0  0  0
    0.6955    2.0866   -3.0240 C   0  0  0  0  0  0  0  0  0  0  0  0
    1.4484    2.2346   -2.2609 H   0  0  0  0  0  0  0  0  0  0  0  0
   -0.8539    0.6119   -4.1375 C   0  0  0  0  0  0  0  0  0  0  0  0
   -1.2932   -0.3671   -4.2610 H   0  0  0  0  0  0  0  0  0  0  0  0
   -2.2627   -3.8435   -2.5734 C   0  0  0  0  0  0  0  0  0  0  0  0
   -2.9651   -4.6590   -2.6593 H   0  0  0  0  0  0  0  0  0  0  0  0
    0.2746    3.1321   -3.8217 C   0  0  0  0  0  0  0  0  0  0  0  0
    0.7084    4.1119   -3.6927 H   0  0  0  0  0  0  0  0  0  0  0  0
   -0.7549    0.4640    2.1294 S   0  0  0  0  0  3  0  0  0  0  0  0
   -1.1340    1.9536   -0.5014 Cl  0  0  0  0  0  0  0  0  0  0  0  0
    0.7119   -2.9252    4.7731 C   0  0  0  0  0  0  0  0  0  0  0  0
    1.0477   -3.7453    5.3895 H   0  0  0  0  0  0  0  0  0  0  0  0
    2.6293    2.6840    1.9072 C   0  0  0  0  0  0  0  0  0  0  0  0
    3.6164    2.5955    1.4783 H   0  0  0  0  0  0  0  0  0  0  0  0
   -0.1203   -0.8321    3.1792 C   0  0  0  0  0  0  0  0  0  0  0  0
    0.4627    1.7648    2.3368 C   0  0  0  0  0  0  0  0  0  0  0  0
    1.7330    1.6361    1.7792 C   0  0  0  0  0  0  0  0  0  0  0  0
    2.0360    0.7089    1.2753 H   0  0  0  0  0  0  0  0  0  0  0  0
    1.2705   -1.6689    4.9294 C   0  0  0  0  0  0  0  0  0  0  0  0
    2.0395   -1.5043    5.6694 H   0  0  0  0  0  0  0  0  0  0  0  0
    0.0917    2.9182    3.0076 C   0  0  0  0  0  0  0  0  0  0  0  0
   -0.9026    3.0002    3.4189 H   0  0  0  0  0  0  0  0  0  0  0  0
    0.9978    3.9598    3.1240 C   0  0  0  0  0  0  0  0  0  0  0  0
    0.7102    4.8629    3.6404 H   0  0  0  0  0  0  0  0  0  0  0  0
   -0.6954   -2.0867    3.0237 C   0  0  0  0  0  0  0  0  0  0  0  0
   -1.4482   -2.2346    2.2606 H   0  0  0  0  0  0  0  0  0  0  0  0
    0.8538   -0.6119    4.1375 C   0  0  0  0  0  0  0  0  0  0  0  0
    1.2928    0.3671    4.2614 H   0  0  0  0  0  0  0  0  0  0  0  0
    2.2625    3.8437    2.5736 C   0  0  0  0  0  0  0  0  0  0  0  0
    2.9648    4.6591    2.6594 H   0  0  0  0  0  0  0  0  0  0  0  0
   -0.2742   -3.1323    3.8210 C   0  0  0  0  0  0  0  0  0  0  0  0
   -0.7077   -4.1122    3.6917 H   0  0  0  0  0  0  0  0  0  0  0  0
  1  3  1  0  0  0  0
  1 26  1  0  0  0  0
  2  1  1  0  0  0  0
  4 24  1  0  0  0  0
  5  4  1  0  0  0  0
  6 10  1  0  0  0  0
  6  7  1  0  0  0  0
  8 18  1  0  0  0  0
  8  2  1  0  0  0  0
  9  2  1  0  0  0  0
  9 10  2  0  0  0  0
 10 11  1  0  0  0  0
 12  4  2  0  0  0  0
 12 20  1  0  0  0  0
 13 12  1  0  0  0  0
 14  9  1  0  0  0  0
 15 14  1  0  0  0  0
 16 14  2  0  0  0  0
 16 22  1  0  0  0  0
 17 16  1  0  0  0  0
 18 19  1  0  0  0  0
 20  8  2  0  0  0  0
 21 20  1  0  0  0  0
 22  6  2  0  0  0  0
 23 22  1  0  0  0  0
 24 25  1  0  0  0  0
 24 18  2  0  0  0  0
 26 33  1  0  0  0  0
 26 32  1  0  0  0  0
 27  1  1  0  0  0  0
 28 36  1  0  0  0  0
 28 29  1  0  0  0  0
 30 46  1  0  0  0  0
 31 30  1  0  0  0  0
 32 44  1  0  0  0  0
 33 38  2  0  0  0  0
 34 30  2  0  0  0  0
 34 33  1  0  0  0  0
 35 34  1  0  0  0  0
 36 37  1  0  0  0  0
 38 40  1  0  0  0  0
 38 39  1  0  0  0  0
 40 41  1  0  0  0  0
 42 32  2  0  0  0  0
 42 48  1  0  0  0  0
 43 42  1  0  0  0  0
 44 45  1  0  0  0  0
 44 36  2  0  0  0  0
 46 47  1  0  0  0  0
 46 40  2  0  0  0  0
 48 28  2  0  0  0  0
 49 48  1  0  0  0  0
M  END
$$$$
