CSD_code = LERBIW | q = 0 | S = 0 | Stoichiometry = C20H37ClIrNOP2 | MND = 5
 OpenBabel04212202063D

 63 65  0  0  0  0  0  0  0  0999 V2000
    5.0628   11.1763   20.0301 Ir  0  0  0  0  0  0  0  0  0  0  0  0
    3.0739   11.4101   21.2881 Cl  0  0  0  0  0  0  0  0  0  0  0  0
    4.1759   10.3815   18.0556 P   0  0  0  0  0  4  0  0  0  0  0  0
    6.4987   11.5241   21.7959 P   0  0  0  0  0  4  0  0  0  0  0  0
    5.4699    9.7891   17.2667 O   0  0  0  0  0  0  0  0  0  0  0  0
    7.9777   11.1206   21.0973 N   0  0  0  0  0  0  0  0  0  0  0  0
    6.7487   10.4978   19.1605 C   0  0  0  0  0  0  0  0  0  0  0  0
    6.6914    9.8665   17.9257 C   0  0  0  0  0  0  0  0  0  0  0  0
    7.8137    9.2942   17.3443 C   0  0  0  0  0  0  0  0  0  0  0  0
    7.7354    8.8119   16.3827 H   0  0  0  0  0  0  0  0  0  0  0  0
    9.0203    9.3578   18.0202 C   0  0  0  0  0  0  0  0  0  0  0  0
    9.9026    8.9226   17.5762 H   0  0  0  0  0  0  0  0  0  0  0  0
    9.1076    9.9600   19.2651 C   0  0  0  0  0  0  0  0  0  0  0  0
   10.0518    9.9892   19.7909 H   0  0  0  0  0  0  0  0  0  0  0  0
    7.9734   10.5240   19.8341 C   0  0  0  0  0  0  0  0  0  0  0  0
    3.4790   11.5416   16.7496 C   0  0  0  0  0  0  0  0  0  0  0  0
    4.6487   12.4444   16.3521 C   0  0  0  0  0  0  0  0  0  0  0  0
    4.2978   13.2440   15.7021 H   0  0  0  0  0  0  0  0  0  0  0  0
    5.4110   11.8779   15.8223 H   0  0  0  0  0  0  0  0  0  0  0  0
    5.1029   12.8888   17.2375 H   0  0  0  0  0  0  0  0  0  0  0  0
    2.3935   12.3857   17.4109 C   0  0  0  0  0  0  0  0  0  0  0  0
    1.5119   11.7947   17.6428 H   0  0  0  0  0  0  0  0  0  0  0  0
    2.0948   13.1987   16.7511 H   0  0  0  0  0  0  0  0  0  0  0  0
    2.7704   12.8117   18.3398 H   0  0  0  0  0  0  0  0  0  0  0  0
    2.9551   10.8263   15.5093 C   0  0  0  0  0  0  0  0  0  0  0  0
    2.7497   11.5581   14.7283 H   0  0  0  0  0  0  0  0  0  0  0  0
    2.0300   10.2942   15.7161 H   0  0  0  0  0  0  0  0  0  0  0  0
    3.6980   10.1262   15.1328 H   0  0  0  0  0  0  0  0  0  0  0  0
    3.1595    8.8061   18.2601 C   0  0  0  0  0  0  0  0  0  0  0  0
    3.2125    7.8731   17.0538 C   0  0  0  0  0  0  0  0  0  0  0  0
    2.6013    8.2358   16.2339 H   0  0  0  0  0  0  0  0  0  0  0  0
    2.8375    6.8909   17.3417 H   0  0  0  0  0  0  0  0  0  0  0  0
    4.2356    7.7572   16.7022 H   0  0  0  0  0  0  0  0  0  0  0  0
    3.8408    8.1222   19.4504 C   0  0  0  0  0  0  0  0  0  0  0  0
    3.3611    7.1694   19.6747 H   0  0  0  0  0  0  0  0  0  0  0  0
    3.7535    8.7519   20.3370 H   0  0  0  0  0  0  0  0  0  0  0  0
    4.8952    7.9300   19.2424 H   0  0  0  0  0  0  0  0  0  0  0  0
    1.7274    9.1598   18.6433 C   0  0  0  0  0  0  0  0  0  0  0  0
    1.7222    9.8976   19.4449 H   0  0  0  0  0  0  0  0  0  0  0  0
    1.2056    8.2701   18.9953 H   0  0  0  0  0  0  0  0  0  0  0  0
    1.1750    9.5584   17.7955 H   0  0  0  0  0  0  0  0  0  0  0  0
    6.8690   13.1626   22.5832 C   0  0  0  0  0  0  0  0  0  0  0  0
    7.8064   13.0708   23.1474 H   0  0  0  0  0  0  0  0  0  0  0  0
    7.0564   14.1878   21.4699 C   0  0  0  0  0  0  0  0  0  0  0  0
    7.3909   15.1398   21.8786 H   0  0  0  0  0  0  0  0  0  0  0  0
    6.1122   14.3418   20.9511 H   0  0  0  0  0  0  0  0  0  0  0  0
    7.7889   13.8395   20.7431 H   0  0  0  0  0  0  0  0  0  0  0  0
    5.7231   13.5608   23.5069 C   0  0  0  0  0  0  0  0  0  0  0  0
    4.7747   13.4520   22.9830 H   0  0  0  0  0  0  0  0  0  0  0  0
    5.8278   14.5998   23.8144 H   0  0  0  0  0  0  0  0  0  0  0  0
    5.6954   12.9434   24.4024 H   0  0  0  0  0  0  0  0  0  0  0  0
    6.3399   10.3537   23.2444 C   0  0  0  0  0  0  0  0  0  0  0  0
    5.4428   10.6642   23.7904 H   0  0  0  0  0  0  0  0  0  0  0  0
    7.5437   10.3624   24.1794 C   0  0  0  0  0  0  0  0  0  0  0  0
    8.4473   10.0697   23.6463 H   0  0  0  0  0  0  0  0  0  0  0  0
    7.3866    9.6471   24.9861 H   0  0  0  0  0  0  0  0  0  0  0  0
    7.7005   11.3412   24.6269 H   0  0  0  0  0  0  0  0  0  0  0  0
    6.1031    8.9614   22.6668 C   0  0  0  0  0  0  0  0  0  0  0  0
    6.0134    8.2211   23.4607 H   0  0  0  0  0  0  0  0  0  0  0  0
    6.9268    8.6682   22.0138 H   0  0  0  0  0  0  0  0  0  0  0  0
    5.1794    8.9466   22.0900 H   0  0  0  0  0  0  0  0  0  0  0  0
    5.3436   12.5504   19.4502 H   0  0  0  0  0  0  0  0  0  0  0  0
    8.8619   11.2081   21.5782 H   0  0  0  0  0  0  0  0  0  0  0  0
  1  2  1  0  0  0  0
  1  4  1  0  0  0  0
  3 29  1  0  0  0  0
  3  1  1  0  0  0  0
  4 42  1  0  0  0  0
  4 52  1  0  0  0  0
  5  8  1  0  0  0  0
  5  3  1  0  0  0  0
  6 63  1  0  0  0  0
  6  4  1  0  0  0  0
  7 15  1  0  0  0  0
  7  1  1  0  0  0  0
  8  7  2  0  0  0  0
  9  8  1  0  0  0  0
  9 11  2  0  0  0  0
 10  9  1  0  0  0  0
 11 13  1  0  0  0  0
 12 11  1  0  0  0  0
 13 14  1  0  0  0  0
 13 15  2  0  0  0  0
 15  6  1  0  0  0  0
 16 21  1  0  0  0  0
 16  3  1  0  0  0  0
 17 16  1  0  0  0  0
 17 20  1  0  0  0  0
 18 17  1  0  0  0  0
 19 17  1  0  0  0  0
 21 22  1  0  0  0  0
 21 24  1  0  0  0  0
 23 21  1  0  0  0  0
 25 27  1  0  0  0  0
 25 16  1  0  0  0  0
 26 25  1  0  0  0  0
 28 25  1  0  0  0  0
 29 38  1  0  0  0  0
 29 34  1  0  0  0  0
 30 32  1  0  0  0  0
 30 29  1  0  0  0  0
 31 30  1  0  0  0  0
 33 30  1  0  0  0  0
 34 35  1  0  0  0  0
 34 36  1  0  0  0  0
 37 34  1  0  0  0  0
 38 40  1  0  0  0  0
 38 39  1  0  0  0  0
 41 38  1  0  0  0  0
 42 43  1  0  0  0  0
 42 48  1  0  0  0  0
 44 45  1  0  0  0  0
 44 42  1  0  0  0  0
 46 44  1  0  0  0  0
 47 44  1  0  0  0  0
 48 50  1  0  0  0  0
 48 51  1  0  0  0  0
 49 48  1  0  0  0  0
 52 53  1  0  0  0  0
 52 54  1  0  0  0  0
 54 57  1  0  0  0  0
 54 56  1  0  0  0  0
 55 54  1  0  0  0  0
 58 52  1  0  0  0  0
 58 59  1  0  0  0  0
 60 58  1  0  0  0  0
 61 58  1  0  0  0  0
 62  1  1  0  0  0  0
M  END
$$$$
