CSD_code = LERBAO | q = 0 | S = 0 | Stoichiometry = C22H42ClIrN2P2 | MND = 5
 OpenBabel04212202063D

 70 72  0  0  0  0  0  0  0  0999 V2000
    1.3825   20.1041    4.4998 Ir  0  0  0  0  0  0  0  0  0  0  0  0
    2.5626   19.8196    5.4082 H   0  0  0  0  0  0  0  0  0  0  0  0
   -0.1723   21.1713    5.9680 Cl  0  0  0  0  0  0  0  0  0  0  0  0
    0.5725   17.9526    4.7299 P   0  0  0  0  0  4  0  0  0  0  0  0
    2.3600   22.0273    3.6691 P   0  0  0  0  0  4  0  0  0  0  0  0
    1.3469   17.1725    3.4582 N   0  0  0  0  0  0  0  0  0  0  0  0
    1.3604   16.1674    3.3579 H   0  0  0  0  0  0  0  0  0  0  0  0
    3.1616   21.4285    2.3169 N   0  0  0  0  0  0  0  0  0  0  0  0
    3.8614   21.9635    1.8216 H   0  0  0  0  0  0  0  0  0  0  0  0
    2.3511   19.2698    2.9311 C   0  0  0  0  0  0  0  0  0  0  0  0
    2.1921   17.9176    2.6296 C   0  0  0  0  0  0  0  0  0  0  0  0
    2.8135   17.3499    1.5229 C   0  0  0  0  0  0  0  0  0  0  0  0
    2.6883   16.2973    1.3102 H   0  0  0  0  0  0  0  0  0  0  0  0
    3.5928   18.1430    0.6991 C   0  0  0  0  0  0  0  0  0  0  0  0
    4.0856   17.7040   -0.1556 H   0  0  0  0  0  0  0  0  0  0  0  0
    3.7324   19.4963    0.9506 C   0  0  0  0  0  0  0  0  0  0  0  0
    4.3235   20.1171    0.2918 H   0  0  0  0  0  0  0  0  0  0  0  0
    3.1058   20.0540    2.0599 C   0  0  0  0  0  0  0  0  0  0  0  0
    1.0211   16.8965    6.2317 C   0  0  0  0  0  0  0  0  0  0  0  0
    2.5436   16.7459    6.1776 C   0  0  0  0  0  0  0  0  0  0  0  0
    2.8517   16.1032    5.3557 H   0  0  0  0  0  0  0  0  0  0  0  0
    2.9072   16.3097    7.1062 H   0  0  0  0  0  0  0  0  0  0  0  0
    3.0131   17.7197    6.0435 H   0  0  0  0  0  0  0  0  0  0  0  0
    0.3820   15.5110    6.2604 C   0  0  0  0  0  0  0  0  0  0  0  0
   -0.6912   15.5683    6.4232 H   0  0  0  0  0  0  0  0  0  0  0  0
    0.8096   14.9372    7.0826 H   0  0  0  0  0  0  0  0  0  0  0  0
    0.5750   14.9641    5.3388 H   0  0  0  0  0  0  0  0  0  0  0  0
    0.6453   17.6895    7.4817 C   0  0  0  0  0  0  0  0  0  0  0  0
    1.0615   17.2145    8.3690 H   0  0  0  0  0  0  0  0  0  0  0  0
   -0.4317   17.7553    7.6052 H   0  0  0  0  0  0  0  0  0  0  0  0
    1.0409   18.7015    7.4110 H   0  0  0  0  0  0  0  0  0  0  0  0
   -1.2466   17.7603    4.2493 C   0  0  0  0  0  0  0  0  0  0  0  0
   -1.5975   16.4026    3.6450 C   0  0  0  0  0  0  0  0  0  0  0  0
   -0.9671   16.1889    2.7837 H   0  0  0  0  0  0  0  0  0  0  0  0
   -2.6324   16.4236    3.3030 H   0  0  0  0  0  0  0  0  0  0  0  0
   -1.5023   15.5936    4.3623 H   0  0  0  0  0  0  0  0  0  0  0  0
   -2.1473   18.0981    5.4321 C   0  0  0  0  0  0  0  0  0  0  0  0
   -3.1706   18.2517    5.0895 H   0  0  0  0  0  0  0  0  0  0  0  0
   -1.8079   19.0161    5.9106 H   0  0  0  0  0  0  0  0  0  0  0  0
   -2.1583   17.2986    6.1697 H   0  0  0  0  0  0  0  0  0  0  0  0
   -1.4172   18.8347    3.1706 C   0  0  0  0  0  0  0  0  0  0  0  0
   -2.4167   18.7938    2.7378 H   0  0  0  0  0  0  0  0  0  0  0  0
   -0.6917   18.6985    2.3662 H   0  0  0  0  0  0  0  0  0  0  0  0
   -1.2877   19.8224    3.6111 H   0  0  0  0  0  0  0  0  0  0  0  0
    3.7215   22.9123    4.6389 C   0  0  0  0  0  0  0  0  0  0  0  0
    4.8583   21.8937    4.7587 C   0  0  0  0  0  0  0  0  0  0  0  0
    4.4730   20.9392    5.1153 H   0  0  0  0  0  0  0  0  0  0  0  0
    5.6055   22.2523    5.4644 H   0  0  0  0  0  0  0  0  0  0  0  0
    5.3473   21.7272    3.8012 H   0  0  0  0  0  0  0  0  0  0  0  0
    3.1747   23.2121    6.0330 C   0  0  0  0  0  0  0  0  0  0  0  0
    3.9774   23.5446    6.6896 H   0  0  0  0  0  0  0  0  0  0  0  0
    2.7282   22.3137    6.4563 H   0  0  0  0  0  0  0  0  0  0  0  0
    2.4146   23.9873    6.0063 H   0  0  0  0  0  0  0  0  0  0  0  0
    4.2581   24.1831    3.9859 C   0  0  0  0  0  0  0  0  0  0  0  0
    5.1210   24.5372    4.5499 H   0  0  0  0  0  0  0  0  0  0  0  0
    3.5170   24.9781    3.9859 H   0  0  0  0  0  0  0  0  0  0  0  0
    4.5840   23.9983    2.9634 H   0  0  0  0  0  0  0  0  0  0  0  0
    1.1531   23.2493    2.8781 C   0  0  0  0  0  0  0  0  0  0  0  0
    0.0463   22.3298    2.3526 C   0  0  0  0  0  0  0  0  0  0  0  0
    0.4598   21.5507    1.7088 H   0  0  0  0  0  0  0  0  0  0  0  0
   -0.6851   22.8951    1.7753 H   0  0  0  0  0  0  0  0  0  0  0  0
   -0.4769   21.8702    3.1897 H   0  0  0  0  0  0  0  0  0  0  0  0
    0.5633   24.1771    3.9345 C   0  0  0  0  0  0  0  0  0  0  0  0
   -0.3120   24.6883    3.5335 H   0  0  0  0  0  0  0  0  0  0  0  0
    1.2774   24.9345    4.2496 H   0  0  0  0  0  0  0  0  0  0  0  0
    0.2506   23.6010    4.8046 H   0  0  0  0  0  0  0  0  0  0  0  0
    1.7359   24.0324    1.7038 C   0  0  0  0  0  0  0  0  0  0  0  0
    2.5346   24.7013    2.0083 H   0  0  0  0  0  0  0  0  0  0  0  0
    0.9479   24.6377    1.2554 H   0  0  0  0  0  0  0  0  0  0  0  0
    2.1122   23.3560    0.9387 H   0  0  0  0  0  0  0  0  0  0  0  0
  1  4  1  0  0  0  0
  1  2  1  0  0  0  0
  1  3  1  0  0  0  0
  4 19  1  0  0  0  0
  5  1  1  0  0  0  0
  5 45  1  0  0  0  0
  6  4  1  0  0  0  0
  7  6  1  0  0  0  0
  8  5  1  0  0  0  0
  9  8  1  0  0  0  0
 10  1  1  0  0  0  0
 11 10  1  0  0  0  0
 11  6  1  0  0  0  0
 12 11  2  0  0  0  0
 13 12  1  0  0  0  0
 14 16  2  0  0  0  0
 14 12  1  0  0  0  0
 15 14  1  0  0  0  0
 16 18  1  0  0  0  0
 17 16  1  0  0  0  0
 18  8  1  0  0  0  0
 18 10  2  0  0  0  0
 19 24  1  0  0  0  0
 19 28  1  0  0  0  0
 20 19  1  0  0  0  0
 20 22  1  0  0  0  0
 21 20  1  0  0  0  0
 23 20  1  0  0  0  0
 24 25  1  0  0  0  0
 24 26  1  0  0  0  0
 27 24  1  0  0  0  0
 28 30  1  0  0  0  0
 28 29  1  0  0  0  0
 31 28  1  0  0  0  0
 32  4  1  0  0  0  0
 32 37  1  0  0  0  0
 33 32  1  0  0  0  0
 33 36  1  0  0  0  0
 34 33  1  0  0  0  0
 35 33  1  0  0  0  0
 37 39  1  0  0  0  0
 37 40  1  0  0  0  0
 38 37  1  0  0  0  0
 41 44  1  0  0  0  0
 41 32  1  0  0  0  0
 42 41  1  0  0  0  0
 43 41  1  0  0  0  0
 45 46  1  0  0  0  0
 45 50  1  0  0  0  0
 46 47  1  0  0  0  0
 46 48  1  0  0  0  0
 49 46  1  0  0  0  0
 50 52  1  0  0  0  0
 50 51  1  0  0  0  0
 53 50  1  0  0  0  0
 54 55  1  0  0  0  0
 54 45  1  0  0  0  0
 56 54  1  0  0  0  0
 57 54  1  0  0  0  0
 58  5  1  0  0  0  0
 58 63  1  0  0  0  0
 59 58  1  0  0  0  0
 59 62  1  0  0  0  0
 60 59  1  0  0  0  0
 61 59  1  0  0  0  0
 63 65  1  0  0  0  0
 63 66  1  0  0  0  0
 64 63  1  0  0  0  0
 67 68  1  0  0  0  0
 67 58  1  0  0  0  0
 69 67  1  0  0  0  0
 70 67  1  0  0  0  0
M  END
$$$$
