CSD_code = LERBES | q = 0 | S = 0 | Stoichiometry = C22H41ClIrNOP2 | MND = 5
 OpenBabel04212202063D

 69 71  0  0  0  0  0  0  0  0999 V2000
   15.4617    5.2068    6.4809 Ir  0  0  0  0  0  0  0  0  0  0  0  0
   15.2999    6.4030    5.5640 H   0  0  0  0  0  0  0  0  0  0  0  0
   16.4984    3.6369    5.0291 Cl  0  0  0  0  0  0  0  0  0  0  0  0
   13.2694    4.5651    6.1555 P   0  0  0  0  0  4  0  0  0  0  0  0
   17.3863    6.0525    7.4600 P   0  0  0  0  0  4  0  0  0  0  0  0
   12.4493    5.4228    7.2676 O   0  0  0  0  0  0  0  0  0  0  0  0
   16.7457    6.7628    8.8507 N   0  0  0  0  0  0  0  0  0  0  0  0
   17.2936    7.3798    9.4350 H   0  0  0  0  0  0  0  0  0  0  0  0
   14.5929    6.1794    8.0156 C   0  0  0  0  0  0  0  0  0  0  0  0
   13.2180    6.1107    8.2001 C   0  0  0  0  0  0  0  0  0  0  0  0
   12.5951    6.6898    9.2959 C   0  0  0  0  0  0  0  0  0  0  0  0
   11.5241    6.6216    9.4046 H   0  0  0  0  0  0  0  0  0  0  0  0
   13.3725    7.3488   10.2333 C   0  0  0  0  0  0  0  0  0  0  0  0
   12.9004    7.8126   11.0859 H   0  0  0  0  0  0  0  0  0  0  0  0
   14.7499    7.4041   10.0997 C   0  0  0  0  0  0  0  0  0  0  0  0
   15.3504    7.9003   10.8493 H   0  0  0  0  0  0  0  0  0  0  0  0
   15.3572    6.8127    8.9989 C   0  0  0  0  0  0  0  0  0  0  0  0
   12.9404    2.8068    6.7580 C   0  0  0  0  0  0  0  0  0  0  0  0
   11.5193    2.5774    7.2645 C   0  0  0  0  0  0  0  0  0  0  0  0
   11.4912    1.6642    7.8590 H   0  0  0  0  0  0  0  0  0  0  0  0
   10.8104    2.4659    6.4502 H   0  0  0  0  0  0  0  0  0  0  0  0
   11.1981    3.4032    7.8964 H   0  0  0  0  0  0  0  0  0  0  0  0
   13.3255    1.8080    5.6732 C   0  0  0  0  0  0  0  0  0  0  0  0
   12.5911    1.7917    4.8710 H   0  0  0  0  0  0  0  0  0  0  0  0
   13.3852    0.8041    6.0933 H   0  0  0  0  0  0  0  0  0  0  0  0
   14.2979    2.0604    5.2518 H   0  0  0  0  0  0  0  0  0  0  0  0
   13.9142    2.6728    7.9339 C   0  0  0  0  0  0  0  0  0  0  0  0
   14.9392    2.8267    7.5921 H   0  0  0  0  0  0  0  0  0  0  0  0
   13.8589    1.6747    8.3689 H   0  0  0  0  0  0  0  0  0  0  0  0
   13.6847    3.3973    8.7172 H   0  0  0  0  0  0  0  0  0  0  0  0
   12.2929    5.0096    4.6135 C   0  0  0  0  0  0  0  0  0  0  0  0
   10.8561    4.4997    4.6305 C   0  0  0  0  0  0  0  0  0  0  0  0
   10.8148    3.4221    4.4938 H   0  0  0  0  0  0  0  0  0  0  0  0
   10.2983    4.9590    3.8147 H   0  0  0  0  0  0  0  0  0  0  0  0
   10.3695    4.7637    5.5669 H   0  0  0  0  0  0  0  0  0  0  0  0
   13.0605    4.4776    3.4066 C   0  0  0  0  0  0  0  0  0  0  0  0
   12.6395    4.8794    2.4863 H   0  0  0  0  0  0  0  0  0  0  0  0
   13.0214    3.3934    3.3525 H   0  0  0  0  0  0  0  0  0  0  0  0
   14.1056    4.7761    3.4694 H   0  0  0  0  0  0  0  0  0  0  0  0
   12.2868    6.5390    4.5720 C   0  0  0  0  0  0  0  0  0  0  0  0
   11.7034    6.9454    5.3947 H   0  0  0  0  0  0  0  0  0  0  0  0
   11.8532    6.8850    3.6354 H   0  0  0  0  0  0  0  0  0  0  0  0
   13.3039    6.9229    4.6475 H   0  0  0  0  0  0  0  0  0  0  0  0
   18.5654    4.7803    8.2088 C   0  0  0  0  0  0  0  0  0  0  0  0
   19.3081    5.2655    9.4519 C   0  0  0  0  0  0  0  0  0  0  0  0
   19.9736    6.0959    9.2388 H   0  0  0  0  0  0  0  0  0  0  0  0
   19.9122    4.4477    9.8451 H   0  0  0  0  0  0  0  0  0  0  0  0
   18.6064    5.5635   10.2287 H   0  0  0  0  0  0  0  0  0  0  0  0
   19.5280    4.2671    7.1432 C   0  0  0  0  0  0  0  0  0  0  0  0
   20.0206    3.3600    7.4931 H   0  0  0  0  0  0  0  0  0  0  0  0
   20.2993    4.9976    6.9105 H   0  0  0  0  0  0  0  0  0  0  0  0
   18.9808    4.0257    6.2326 H   0  0  0  0  0  0  0  0  0  0  0  0
   17.6261    3.6398    8.6135 C   0  0  0  0  0  0  0  0  0  0  0  0
   18.1683    2.8705    9.1629 H   0  0  0  0  0  0  0  0  0  0  0  0
   17.2066    3.1756    7.7221 H   0  0  0  0  0  0  0  0  0  0  0  0
   16.8198    4.0080    9.2515 H   0  0  0  0  0  0  0  0  0  0  0  0
   18.3212    7.4721    6.6267 C   0  0  0  0  0  0  0  0  0  0  0  0
   19.5723    7.9459    7.3613 C   0  0  0  0  0  0  0  0  0  0  0  0
   19.3525    8.2054    8.3958 H   0  0  0  0  0  0  0  0  0  0  0  0
   19.9565    8.8400    6.8707 H   0  0  0  0  0  0  0  0  0  0  0  0
   20.3592    7.1966    7.3407 H   0  0  0  0  0  0  0  0  0  0  0  0
   18.6660    7.0277    5.2068 C   0  0  0  0  0  0  0  0  0  0  0  0
   19.4411    6.2671    5.2029 H   0  0  0  0  0  0  0  0  0  0  0  0
   19.0186    7.8759    4.6220 H   0  0  0  0  0  0  0  0  0  0  0  0
   17.7820    6.6148    4.7227 H   0  0  0  0  0  0  0  0  0  0  0  0
   17.3183    8.6272    6.5579 C   0  0  0  0  0  0  0  0  0  0  0  0
   17.7113    9.4227    5.9276 H   0  0  0  0  0  0  0  0  0  0  0  0
   17.1198    9.0422    7.5439 H   0  0  0  0  0  0  0  0  0  0  0  0
   16.3742    8.2846    6.1361 H   0  0  0  0  0  0  0  0  0  0  0  0
  1  5  1  0  0  0  0
  1  9  1  0  0  0  0
  2  1  1  0  0  0  0
  3  1  1  0  0  0  0
  4  1  1  0  0  0  0
  4 18  1  0  0  0  0
  4  6  1  0  0  0  0
  5 44  1  0  0  0  0
  5  7  1  0  0  0  0
  6 10  1  0  0  0  0
  7 17  1  0  0  0  0
  7  8  1  0  0  0  0
  9 10  2  0  0  0  0
  9 17  1  0  0  0  0
 10 11  1  0  0  0  0
 11 12  1  0  0  0  0
 11 13  2  0  0  0  0
 13 14  1  0  0  0  0
 15 13  1  0  0  0  0
 15 16  1  0  0  0  0
 17 15  2  0  0  0  0
 18 19  1  0  0  0  0
 18 27  1  0  0  0  0
 19 20  1  0  0  0  0
 19 22  1  0  0  0  0
 21 19  1  0  0  0  0
 23 25  1  0  0  0  0
 23 18  1  0  0  0  0
 24 23  1  0  0  0  0
 26 23  1  0  0  0  0
 27 29  1  0  0  0  0
 27 30  1  0  0  0  0
 28 27  1  0  0  0  0
 31 32  1  0  0  0  0
 31  4  1  0  0  0  0
 32 35  1  0  0  0  0
 33 32  1  0  0  0  0
 34 32  1  0  0  0  0
 36 39  1  0  0  0  0
 36 31  1  0  0  0  0
 37 36  1  0  0  0  0
 38 36  1  0  0  0  0
 40 31  1  0  0  0  0
 40 43  1  0  0  0  0
 40 41  1  0  0  0  0
 42 40  1  0  0  0  0
 44 53  1  0  0  0  0
 44 45  1  0  0  0  0
 45 47  1  0  0  0  0
 45 48  1  0  0  0  0
 46 45  1  0  0  0  0
 49 50  1  0  0  0  0
 49 44  1  0  0  0  0
 51 49  1  0  0  0  0
 52 49  1  0  0  0  0
 53 54  1  0  0  0  0
 53 56  1  0  0  0  0
 55 53  1  0  0  0  0
 57 58  1  0  0  0  0
 57  5  1  0  0  0  0
 58 59  1  0  0  0  0
 60 58  1  0  0  0  0
 61 58  1  0  0  0  0
 62 57  1  0  0  0  0
 63 62  1  0  0  0  0
 64 62  1  0  0  0  0
 65 62  1  0  0  0  0
 66 57  1  0  0  0  0
 66 68  1  0  0  0  0
 67 66  1  0  0  0  0
 69 66  1  0  0  0  0
M  END
$$$$
