CSD_code = LERHIA | q = 0 | S = 0 | Stoichiometry = C32H31ClO2P2W | MND = 8
 OpenBabel04212202063D

 69 71  0  0  1  0  0  0  0  0999 V2000
    0.2303    5.4035    7.7740 W   0  0  0  0  0  0  0  0  0  0  0  0
   -0.2830    6.9207    5.9219 Cl  0  0  0  0  0 15  0  0  0  0  0  0
    2.2508    6.7660    7.8798 P   0  0  0  0  0  0  0  0  0  0  0  0
   -0.6564    7.4088    8.8747 P   0  0  0  0  0  0  0  0  0  0  0  0
    0.0387    4.2043   10.6509 O   0  0  0  0  0  0  0  0  0  0  0  0
   -2.4968    3.9319    7.5391 O   0  0  0  0  0  1  0  0  0  0  0  0
    1.3437    3.4282    8.7047 C   0  0  0  0  0  0  0  0  0  0  0  0
    1.6387    3.7796    7.2795 C   0  0  1  0  0  0  0  0  0  0  0  0
    0.6461    3.5685    6.3295 C   0  0  0  0  0  3  0  0  0  0  0  0
    0.8985    3.8847    4.8820 C   0  0  0  0  0  0  0  0  0  0  0  0
    0.3277    4.4284    9.5138 C   0  0  0  0  0  0  0  0  0  0  0  0
   -1.5075    4.5165    7.6094 C   0  0  0  0  0  2  0  0  0  0  0  0
    1.7052    8.5303    7.9824 C   0  0  0  0  0  0  0  0  0  0  0  0
    0.7177    8.6210    9.1411 C   0  0  0  0  0  0  0  0  0  0  0  0
    3.3743    6.7294    6.4523 C   0  0  0  0  0  0  0  0  0  0  0  0
    3.0451    7.3777    5.2652 C   0  0  0  0  0  0  0  0  0  0  0  0
    3.8432    7.2216    4.1457 C   0  0  0  0  0  0  0  0  0  0  0  0
    4.9644    6.4098    4.1923 C   0  0  0  0  0  0  0  0  0  0  0  0
    5.2845    5.7418    5.3634 C   0  0  0  0  0  0  0  0  0  0  0  0
    4.4909    5.8934    6.4847 C   0  0  0  0  0  0  0  0  0  0  0  0
    3.4016    6.7914    9.2966 C   0  0  0  0  0  0  0  0  0  0  0  0
    4.6375    7.4287    9.2251 C   0  0  0  0  0  0  0  0  0  0  0  0
    5.4505    7.4903   10.3410 C   0  0  0  0  0  0  0  0  0  0  0  0
    5.0340    6.9304   11.5393 C   0  0  0  0  0  0  0  0  0  0  0  0
    3.7964    6.3157   11.6224 C   0  0  0  0  0  0  0  0  0  0  0  0
    2.9822    6.2472   10.5048 C   0  0  0  0  0  0  0  0  0  0  0  0
   -1.4125    7.2811   10.5271 C   0  0  0  0  0  0  0  0  0  0  0  0
   -1.3150    8.2822   11.4874 C   0  0  0  0  0  0  0  0  0  0  0  0
   -1.9483    8.1348   12.7085 C   0  0  0  0  0  0  0  0  0  0  0  0
   -2.6880    6.9955   12.9785 C   0  0  0  0  0  0  0  0  0  0  0  0
   -2.7988    6.0011   12.0209 C   0  0  0  0  0  0  0  0  0  0  0  0
   -2.1647    6.1431   10.8008 C   0  0  0  0  0  0  0  0  0  0  0  0
   -1.9661    8.3453    8.0179 C   0  0  0  0  0  0  0  0  0  0  0  0
   -3.1894    7.6921    7.8881 C   0  0  0  0  0  0  0  0  0  0  0  0
   -4.2376    8.2971    7.2232 C   0  0  0  0  0  0  0  0  0  0  0  0
   -4.0727    9.5596    6.6756 C   0  0  0  0  0  0  0  0  0  0  0  0
   -2.8554   10.2068    6.7910 C   0  0  0  0  0  0  0  0  0  0  0  0
   -1.8018    9.6051    7.4576 C   0  0  0  0  0  0  0  0  0  0  0  0
    2.2564    3.4180    9.3097 H   0  0  0  0  0  0  0  0  0  0  0  0
    0.8367    2.4579    8.7853 H   0  0  0  0  0  0  0  0  0  0  0  0
    2.6659    3.9938    6.9848 H   0  0  0  0  0  0  0  0  0  0  0  0
   -0.1049    2.7969    6.5001 H   0  0  0  0  0  0  0  0  0  0  0  0
   -0.0001    4.2901    4.4176 H   0  0  0  0  0  0  0  0  0  0  0  0
    1.6982    4.6194    4.7765 H   0  0  0  0  0  0  0  0  0  0  0  0
    1.1764    2.9813    4.3345 H   0  0  0  0  0  0  0  0  0  0  0  0
    2.5683    9.1893    8.1333 H   0  0  0  0  0  0  0  0  0  0  0  0
    1.2056    8.7827    7.0433 H   0  0  0  0  0  0  0  0  0  0  0  0
    0.3306    9.6369    9.2623 H   0  0  0  0  0  0  0  0  0  0  0  0
    1.2125    8.3213   10.0735 H   0  0  0  0  0  0  0  0  0  0  0  0
    2.1505    7.9788    5.2075 H   0  0  0  0  0  0  0  0  0  0  0  0
    3.5824    7.7304    3.2294 H   0  0  0  0  0  0  0  0  0  0  0  0
    5.5836    6.2892    3.3158 H   0  0  0  0  0  0  0  0  0  0  0  0
    6.1511    5.0974    5.4013 H   0  0  0  0  0  0  0  0  0  0  0  0
    4.7433    5.3701    7.3994 H   0  0  0  0  0  0  0  0  0  0  0  0
    4.9623    7.8710    8.2927 H   0  0  0  0  0  0  0  0  0  0  0  0
    6.4118    7.9795   10.2783 H   0  0  0  0  0  0  0  0  0  0  0  0
    5.6739    6.9792   12.4079 H   0  0  0  0  0  0  0  0  0  0  0  0
    3.4614    5.8885   12.5558 H   0  0  0  0  0  0  0  0  0  0  0  0
    2.0090    5.7780   10.5694 H   0  0  0  0  0  0  0  0  0  0  0  0
   -0.7478    9.1795   11.2888 H   0  0  0  0  0  0  0  0  0  0  0  0
   -1.8643    8.9138   13.4527 H   0  0  0  0  0  0  0  0  0  0  0  0
   -3.1766    6.8841   13.9352 H   0  0  0  0  0  0  0  0  0  0  0  0
   -3.3728    5.1106   12.2282 H   0  0  0  0  0  0  0  0  0  0  0  0
   -2.2311    5.3634   10.0547 H   0  0  0  0  0  0  0  0  0  0  0  0
   -3.3033    6.6994    8.3033 H   0  0  0  0  0  0  0  0  0  0  0  0
   -5.1817    7.7821    7.1234 H   0  0  0  0  0  0  0  0  0  0  0  0
   -4.8891   10.0328    6.1501 H   0  0  0  0  0  0  0  0  0  0  0  0
   -2.7199   11.1848    6.3519 H   0  0  0  0  0  0  0  0  0  0  0  0
   -0.8539   10.1191    7.5149 H   0  0  0  0  0  0  0  0  0  0  0  0
  1 11  1  0  0  0  0
  3 13  1  0  0  0  0
  3 21  1  0  0  0  0
  4 14  1  0  0  0  0
  4 27  1  0  0  0  0
  6 12  1  0  0  0  0
  7 40  1  0  0  0  0
  7 39  1  0  0  0  0
  7 11  1  0  0  0  0
  8 41  1  6  0  0  0
  8  1  1  0  0  0  0
  8  7  1  0  0  0  0
  9 42  1  0  0  0  0
  9  8  1  0  0  0  0
 10  9  1  0  0  0  0
 11  5  2  0  0  0  0
 12  1  1  0  0  0  0
 13 46  1  0  0  0  0
 13 14  1  0  0  0  0
 14 48  1  0  0  0  0
 14 49  1  0  0  0  0
 15 20  1  0  0  0  0
 15  3  1  0  0  0  0
 16 15  2  0  0  0  0
 17 18  2  0  0  0  0
 17 16  1  0  0  0  0
 18 19  1  0  0  0  0
 19 53  1  0  0  0  0
 19 20  2  0  0  0  0
 20 54  1  0  0  0  0
 21 26  1  0  0  0  0
 22 21  2  0  0  0  0
 22 23  1  0  0  0  0
 23 24  2  0  0  0  0
 24 25  1  0  0  0  0
 24 57  1  0  0  0  0
 25 58  1  0  0  0  0
 26 59  1  0  0  0  0
 26 25  2  0  0  0  0
 27 32  2  0  0  0  0
 27 28  1  0  0  0  0
 28 29  2  0  0  0  0
 29 30  1  0  0  0  0
 29 61  1  0  0  0  0
 30 62  1  0  0  0  0
 31 63  1  0  0  0  0
 31 30  2  0  0  0  0
 32 31  1  0  0  0  0
 33  4  1  0  0  0  0
 34 33  1  0  0  0  0
 34 65  1  0  0  0  0
 35 34  2  0  0  0  0
 36 37  2  0  0  0  0
 36 35  1  0  0  0  0
 37 38  1  0  0  0  0
 38 69  1  0  0  0  0
 38 33  2  0  0  0  0
 43 10  1  0  0  0  0
 44 10  1  0  0  0  0
 45 10  1  0  0  0  0
 47 13  1  0  0  0  0
 50 16  1  0  0  0  0
 51 17  1  0  0  0  0
 52 18  1  0  0  0  0
 55 22  1  0  0  0  0
 56 23  1  0  0  0  0
 60 28  1  0  0  0  0
 64 32  1  0  0  0  0
 66 35  1  0  0  0  0
 67 36  1  0  0  0  0
 68 37  1  0  0  0  0
M  END
$$$$
