CSD_code = LERSAC | q = 0 | S = 0 | Stoichiometry = C14H22CdI2N4S | MND = 4
 OpenBabel04212202063D

 44 46  0  0  1  0  0  0  0  0999 V2000
   -1.2574    1.4716    3.7936 Cd  0  0  0  0  0  0  0  0  0  0  0  0
    0.1411   -0.7199    3.0934 I   0  0  0  0  0  0  0  0  0  0  0  0
   -0.1343    3.8949    4.1939 I   0  0  0  0  0  0  0  0  0  0  0  0
   -4.0693    3.1891    5.3616 S   0  0  0  0  0  0  0  0  0  0  0  0
   -4.0653    2.8320    2.0332 N   0  0  2  0  0  0  0  0  0  0  0  0
   -3.3029    1.7390    2.2181 N   0  0  0  0  0  0  0  0  0  0  0  0
   -3.5302    0.2393    6.0732 N   0  0  1  0  0  0  0  0  0  0  0  0
   -2.2621    0.6051    5.8218 N   0  0  0  0  0  0  0  0  0  0  0  0
   -5.0686    2.5892    1.1616 C   0  0  2  0  0  3  0  0  0  0  0  0
   -4.9419    1.2720    0.7737 C   0  0  0  0  0  0  0  0  0  0  0  0
   -5.5629    0.7370    0.0853 H   0  0  0  0  0  0  0  0  0  0  0  0
   -3.8220    0.7788    1.4552 C   0  0  0  0  0  0  0  0  0  0  0  0
   -6.0514    3.6180    0.7387 C   0  0  0  0  0  0  0  0  0  0  0  0
   -6.6184    4.0046    1.5850 H   0  0  0  0  0  0  0  0  0  0  0  0
   -6.7456    3.1808    0.0269 H   0  0  0  0  0  0  0  0  0  0  0  0
   -5.5476    4.4572    0.2587 H   0  0  0  0  0  0  0  0  0  0  0  0
   -3.2565   -0.5921    1.3646 C   0  0  0  0  0  0  0  0  0  0  0  0
   -3.0685   -1.0158    2.3509 H   0  0  0  0  0  0  0  0  0  0  0  0
   -2.3092   -0.5763    0.8252 H   0  0  0  0  0  0  0  0  0  0  0  0
   -3.9464   -1.2386    0.8285 H   0  0  0  0  0  0  0  0  0  0  0  0
   -3.6574   -0.2506    7.3267 C   0  0  2  0  0  3  0  0  0  0  0  0
   -2.4025   -0.2021    7.8950 C   0  0  0  0  0  0  0  0  0  0  0  0
   -2.1275   -0.5189    8.8798 H   0  0  0  0  0  0  0  0  0  0  0  0
   -1.5588    0.3428    6.9171 C   0  0  0  0  0  0  0  0  0  0  0  0
   -4.9423   -0.7426    7.8842 C   0  0  0  0  0  0  0  0  0  0  0  0
   -5.3804   -1.5053    7.2406 H   0  0  0  0  0  0  0  0  0  0  0  0
   -5.6613    0.0690    7.9915 H   0  0  0  0  0  0  0  0  0  0  0  0
   -4.7656   -1.1765    8.8639 H   0  0  0  0  0  0  0  0  0  0  0  0
   -0.0978    0.5976    7.0098 C   0  0  0  0  0  0  0  0  0  0  0  0
    0.1414    1.6063    6.6686 H   0  0  0  0  0  0  0  0  0  0  0  0
    0.4519   -0.1151    6.3917 H   0  0  0  0  0  0  0  0  0  0  0  0
    0.2327    0.4877    8.0391 H   0  0  0  0  0  0  0  0  0  0  0  0
   -4.5967    4.2683    3.9838 C   0  0  0  0  0  0  0  0  0  0  0  0
   -5.6634    4.1156    3.8270 H   0  0  0  0  0  0  0  0  0  0  0  0
   -4.4296    5.2814    4.3479 H   0  0  0  0  0  0  0  0  0  0  0  0
   -3.7894    4.0736    2.7006 C   0  0  0  0  0  0  0  0  0  0  0  0
   -4.0132    4.8958    2.0144 H   0  0  0  0  0  0  0  0  0  0  0  0
   -2.7242    4.1077    2.9423 H   0  0  0  0  0  0  0  0  0  0  0  0
   -5.2655    1.7988    5.2927 C   0  0  0  0  0  0  0  0  0  0  0  0
   -5.8037    1.8116    6.2408 H   0  0  0  0  0  0  0  0  0  0  0  0
   -5.9645    1.9781    4.4787 H   0  0  0  0  0  0  0  0  0  0  0  0
   -4.5583    0.4569    5.0949 C   0  0  0  0  0  0  0  0  0  0  0  0
   -5.2908   -0.3542    5.1515 H   0  0  0  0  0  0  0  0  0  0  0  0
   -4.0822    0.4400    4.1108 H   0  0  0  0  0  0  0  0  0  0  0  0
  1  3  1  0  0  0  0
  1  8  1  0  0  0  0
  2  1  1  0  0  0  0
  5  6  1  6  0  0  0
  5 36  1  0  0  0  0
  6  1  1  0  0  0  0
  7 42  1  1  0  0  0
  7 21  1  0  0  0  0
  8  7  1  0  0  0  0
  8 24  1  0  0  0  0
  9 13  1  6  0  0  0
  9  5  1  0  0  0  0
 10  9  1  0  0  0  0
 10 12  2  0  0  0  0
 11 10  1  0  0  0  0
 12  6  1  0  0  0  0
 13 14  1  0  0  0  0
 15 13  1  0  0  0  0
 16 13  1  0  0  0  0
 17 12  1  0  0  0  0
 17 18  1  0  0  0  0
 19 17  1  0  0  0  0
 20 17  1  0  0  0  0
 21 25  1  6  0  0  0
 21 22  1  0  0  0  0
 22 23  1  0  0  0  0
 24 29  1  0  0  0  0
 24 22  2  0  0  0  0
 25 27  1  0  0  0  0
 25 28  1  0  0  0  0
 26 25  1  0  0  0  0
 29 32  1  0  0  0  0
 30 29  1  0  0  0  0
 31 29  1  0  0  0  0
 33 35  1  0  0  0  0
 33  4  1  0  0  0  0
 34 33  1  0  0  0  0
 36 38  1  0  0  0  0
 36 33  1  0  0  0  0
 37 36  1  0  0  0  0
 39  4  1  0  0  0  0
 39 40  1  0  0  0  0
 41 39  1  0  0  0  0
 42 43  1  0  0  0  0
 42 39  1  0  0  0  0
 44 42  1  0  0  0  0
M  END
$$$$
