CSD_code = LERSOS | q = 0 | S = 0 | Stoichiometry = C18H14Cl2N4OZn | MND = 5
 OpenBabel04212202063D

 40 44  0  0  1  0  0  0  0  0999 V2000
    0.7584    5.8357    2.3403 Zn  0  0  0  0  0  0  0  0  0  0  0  0
    2.5304    7.0595    2.0276 Cl  0  0  0  0  0  0  0  0  0  0  0  0
   -1.3022    6.4446    3.1110 Cl  0  0  0  0  0  0  0  0  0  0  0  0
    1.1766    4.6598    4.2229 O   0  0  0  0  0  0  0  0  0  0  0  0
   -0.4791    3.3593    3.4208 N   0  0  0  0  0  0  0  0  0  0  0  0
   -1.3264    2.8230    3.6001 H   0  0  0  0  0  0  0  0  0  0  0  0
   -0.2539    3.8681    2.2067 N   0  0  0  0  0  0  0  0  0  0  0  0
    0.2966    5.3969    0.2035 N   0  0  0  0  0  0  0  0  0  0  0  0
   -0.5898    2.6069    8.4125 N   0  0  0  0  0  0  0  0  0  0  0  0
    0.2675    3.8777    4.4412 C   0  0  1  0  0  3  0  0  0  0  0  0
   -1.0425    3.7248    1.2102 C   0  0  0  0  0  0  0  0  0  0  0  0
   -0.6664    4.4881    0.0190 C   0  0  0  0  0  0  0  0  0  0  0  0
   -1.3023    4.3383   -1.2114 C   0  0  0  0  0  0  0  0  0  0  0  0
   -2.0974    3.6190   -1.3287 H   0  0  0  0  0  0  0  0  0  0  0  0
   -0.8958    5.1335   -2.2704 C   0  0  0  0  0  0  0  0  0  0  0  0
   -1.3713    5.0381   -3.2352 H   0  0  0  0  0  0  0  0  0  0  0  0
    0.1227    6.0519   -2.0709 C   0  0  0  0  0  0  0  0  0  0  0  0
    0.4669    6.6871   -2.8709 H   0  0  0  0  0  0  0  0  0  0  0  0
    0.6852    6.1530   -0.8050 C   0  0  0  0  0  0  0  0  0  0  0  0
    1.4706    6.8618   -0.5803 H   0  0  0  0  0  0  0  0  0  0  0  0
   -0.0703    3.4095    5.8067 C   0  0  0  0  0  0  0  0  0  0  0  0
    0.9277    3.4450    6.7794 C   0  0  0  0  0  0  0  0  0  0  0  0
    1.9143    3.7937    6.5194 H   0  0  0  0  0  0  0  0  0  0  0  0
    0.6130    3.0279    8.0633 C   0  0  0  0  0  0  0  0  0  0  0  0
    1.3543    3.0336    8.8507 H   0  0  0  0  0  0  0  0  0  0  0  0
   -1.5409    2.5950    7.4971 C   0  0  0  0  0  0  0  0  0  0  0  0
   -2.5121    2.2601    7.8363 H   0  0  0  0  0  0  0  0  0  0  0  0
   -1.3434    2.9827    6.1794 C   0  0  0  0  0  0  0  0  0  0  0  0
   -2.1748    2.9854    5.4911 H   0  0  0  0  0  0  0  0  0  0  0  0
   -2.3183    2.9820    1.2783 C   0  0  0  0  0  0  0  0  0  0  0  0
   -3.3204    3.4823    2.1093 C   0  0  0  0  0  0  0  0  0  0  0  0
   -3.1508    4.4115    2.6369 H   0  0  0  0  0  0  0  0  0  0  0  0
   -4.5254    2.8100    2.2129 C   0  0  0  0  0  0  0  0  0  0  0  0
   -5.3038    3.2043    2.8482 H   0  0  0  0  0  0  0  0  0  0  0  0
   -4.7321    1.6378    1.5034 C   0  0  0  0  0  0  0  0  0  0  0  0
   -5.6725    1.1145    1.5875 H   0  0  0  0  0  0  0  0  0  0  0  0
   -3.7338    1.1366    0.6837 C   0  0  0  0  0  0  0  0  0  0  0  0
   -3.8944    0.2226    0.1320 H   0  0  0  0  0  0  0  0  0  0  0  0
   -2.5276    1.8050    0.5674 C   0  0  0  0  0  0  0  0  0  0  0  0
   -1.7417    1.4100   -0.0604 H   0  0  0  0  0  0  0  0  0  0  0  0
  1  3  1  0  0  0  0
  1  4  1  0  0  0  0
  2  1  1  0  0  0  0
  4 10  1  0  0  0  0
  5  6  1  0  0  0  0
  5 10  1  0  0  0  0
  7  1  1  0  0  0  0
  7  5  1  0  0  0  0
  8  1  1  0  0  0  0
 10 21  1  6  0  0  0
 11 30  1  0  0  0  0
 11  7  1  0  0  0  0
 12  8  1  0  0  0  0
 12 11  2  0  0  0  0
 13 12  1  0  0  0  0
 14 13  1  0  0  0  0
 15 17  1  0  0  0  0
 15 13  2  0  0  0  0
 16 15  1  0  0  0  0
 17 19  2  0  0  0  0
 18 17  1  0  0  0  0
 19 20  1  0  0  0  0
 19  8  1  0  0  0  0
 21 28  2  0  0  0  0
 21 22  1  0  0  0  0
 22 24  2  0  0  0  0
 23 22  1  0  0  0  0
 24  9  1  0  0  0  0
 24 25  1  0  0  0  0
 26 27  1  0  0  0  0
 26  9  2  0  0  0  0
 28 26  1  0  0  0  0
 29 28  1  0  0  0  0
 30 31  1  0  0  0  0
 31 33  2  0  0  0  0
 31 32  1  0  0  0  0
 33 34  1  0  0  0  0
 35 36  1  0  0  0  0
 35 33  1  0  0  0  0
 37 35  2  0  0  0  0
 38 37  1  0  0  0  0
 39 37  1  0  0  0  0
 39 30  2  0  0  0  0
 40 39  1  0  0  0  0
M  END
$$$$
