CSD_code = LERSUY | q = 0 | S = 0 | Stoichiometry = C14H12Cl2HgN2 | MND = 4
 OpenBabel04212202063D

 31 34  0  0  0  0  0  0  0  0999 V2000
    1.0179    3.0566    7.2592 Hg  0  0  0  0  0  0  0  0  0  0  0  0
   -1.0481    3.1927    6.2953 Cl  0  0  0  0  0  0  0  0  0  0  0  0
    2.9872    4.1664    7.5892 Cl  0  0  0  0  0  0  0  0  0  0  0  0
    1.8212   -2.1941    9.2655 C   0  0  0  0  0  0  0  0  0  0  0  0
    2.1259   -3.2292    9.2221 H   0  0  0  0  0  0  0  0  0  0  0  0
    1.6979    0.7283    7.0050 N   0  0  0  0  0  0  0  0  0  0  0  0
    2.1834    0.2283    5.8838 C   0  0  0  0  0  0  0  0  0  0  0  0
    0.1780    2.3553   10.4285 C   0  0  0  0  0  0  0  0  0  0  0  0
    1.5770   -0.0429    8.0983 C   0  0  0  0  0  0  0  0  0  0  0  0
    2.4754   -1.9263    6.8926 C   0  0  0  0  0  0  0  0  0  0  0  0
    2.7774   -2.9630    6.8533 H   0  0  0  0  0  0  0  0  0  0  0  0
    0.3938    0.2869   11.6202 C   0  0  0  0  0  0  0  0  0  0  0  0
    0.2877   -0.3137   12.5123 H   0  0  0  0  0  0  0  0  0  0  0  0
    1.0426    0.5250    9.3115 C   0  0  0  0  0  0  0  0  0  0  0  0
    0.6731    1.8164    9.3298 N   0  0  0  0  0  0  0  0  0  0  0  0
    0.9202   -0.2971   10.4547 C   0  0  0  0  0  0  0  0  0  0  0  0
   -0.2129    3.7927   10.3702 C   0  0  0  0  0  0  0  0  0  0  0  0
    0.6540    4.3992   10.0969 H   0  0  0  0  0  0  0  0  0  0  0  0
   -0.6012    4.1390   11.3238 H   0  0  0  0  0  0  0  0  0  0  0  0
   -0.9762    3.9347    9.6017 H   0  0  0  0  0  0  0  0  0  0  0  0
    1.9603   -1.4032    8.0917 C   0  0  0  0  0  0  0  0  0  0  0  0
    2.5862   -1.1156    5.7946 C   0  0  0  0  0  0  0  0  0  0  0  0
    2.9782   -1.4930    4.8631 H   0  0  0  0  0  0  0  0  0  0  0  0
    1.3204   -1.6609   10.4044 C   0  0  0  0  0  0  0  0  0  0  0  0
    1.2130   -2.2571   11.2985 H   0  0  0  0  0  0  0  0  0  0  0  0
    0.0234    1.6051   11.6074 C   0  0  0  0  0  0  0  0  0  0  0  0
   -0.3840    2.0759   12.4884 H   0  0  0  0  0  0  0  0  0  0  0  0
    2.2918    1.1466    4.7144 C   0  0  0  0  0  0  0  0  0  0  0  0
    2.6620    0.6285    3.8342 H   0  0  0  0  0  0  0  0  0  0  0  0
    2.9710    1.9679    4.9556 H   0  0  0  0  0  0  0  0  0  0  0  0
    1.3125    1.5767    4.4906 H   0  0  0  0  0  0  0  0  0  0  0  0
  1  3  1  0  0  0  0
  1 15  1  0  0  0  0
  2  1  1  0  0  0  0
  4 24  2  0  0  0  0
  5  4  1  0  0  0  0
  6  1  1  0  0  0  0
  6  9  1  0  0  0  0
  7  6  1  0  0  0  0
  8 26  2  0  0  0  0
  9 14  2  0  0  0  0
 10 21  2  0  0  0  0
 11 10  1  0  0  0  0
 12 13  1  0  0  0  0
 14 15  1  0  0  0  0
 14 16  1  0  0  0  0
 15  8  1  0  0  0  0
 16 12  2  0  0  0  0
 17  8  1  0  0  0  0
 17 19  1  0  0  0  0
 18 17  1  0  0  0  0
 20 17  1  0  0  0  0
 21  9  1  0  0  0  0
 21  4  1  0  0  0  0
 22  7  2  0  0  0  0
 22 10  1  0  0  0  0
 23 22  1  0  0  0  0
 24 16  1  0  0  0  0
 24 25  1  0  0  0  0
 26 12  1  0  0  0  0
 26 27  1  0  0  0  0
 28 30  1  0  0  0  0
 28  7  1  0  0  0  0
 29 28  1  0  0  0  0
 31 28  1  0  0  0  0
M  END
$$$$
