CSD_code = LERXEO | q = 0 | S = 0 | Stoichiometry = C20H21ClN4OZn | MND = 4
 OpenBabel04212202063D

 48 52  0  0  1  0  0  0  0  0999 V2000
    0.4556    3.9960    2.2298 Zn  0  0  0  0  0  0  0  0  0  0  0  0
    2.2186    2.8206    2.6704 Cl  0  0  0  0  0  0  0  0  0  0  0  0
    0.7184    5.1817    0.6001 N   0  0  2  0  0  0  0  0  0  0  0  0
    1.3659    6.0681    2.5222 N   0  0  0  0  0  0  0  0  0  0  0  0
   -0.6724    4.0791    3.9625 N   0  0  0  0  0  0  0  0  0  0  0  0
   -2.6938    3.8603    2.8818 N   0  0  0  0  0  0  0  0  0  0  0  0
   -2.1636    3.5651    2.0656 H   0  0  0  0  0  0  0  0  0  0  0  0
   -3.6626    3.5967    2.9297 H   0  0  0  0  0  0  0  0  0  0  0  0
   -0.8297    2.9991    0.9865 O   0  0  0  0  0  0  0  0  0  0  0  0
   -0.1368    3.8449   -1.1608 C   0  0  0  0  0  0  0  0  0  0  0  0
   -0.8084    2.9173   -0.2899 C   0  0  0  0  0  0  0  0  0  0  0  0
   -1.5134    1.8540   -0.9229 C   0  0  0  0  0  0  0  0  0  0  0  0
   -2.0149    1.1475   -0.2776 H   0  0  0  0  0  0  0  0  0  0  0  0
   -1.5497    1.7121   -2.2781 C   0  0  0  0  0  0  0  0  0  0  0  0
   -2.0923    0.8864   -2.7180 H   0  0  0  0  0  0  0  0  0  0  0  0
   -0.8899    2.6193   -3.1321 C   0  0  0  0  0  0  0  0  0  0  0  0
   -0.2038    3.6543   -2.5610 C   0  0  0  0  0  0  0  0  0  0  0  0
    0.3161    4.3655   -3.1899 H   0  0  0  0  0  0  0  0  0  0  0  0
   -0.9553    2.4231   -4.6166 C   0  0  0  0  0  0  0  0  0  0  0  0
   -0.4046    3.2027   -5.1366 H   0  0  0  0  0  0  0  0  0  0  0  0
   -1.9901    2.4409   -4.9576 H   0  0  0  0  0  0  0  0  0  0  0  0
   -0.5317    1.4572   -4.8900 H   0  0  0  0  0  0  0  0  0  0  0  0
    0.6044    4.9360   -0.6689 C   0  0  0  0  0  3  0  0  0  0  0  0
    1.0920    5.5791   -1.4090 H   0  0  0  0  0  0  0  0  0  0  0  0
    1.4053    6.2003    1.1911 C   0  0  2  0  0  3  0  0  0  0  0  0
    2.0678    7.2656    0.5749 C   0  0  0  0  0  0  0  0  0  0  0  0
    2.0803    7.3535   -0.5007 H   0  0  0  0  0  0  0  0  0  0  0  0
    2.7160    8.2015    1.3620 C   0  0  0  0  0  0  0  0  0  0  0  0
    2.6693    8.0381    2.7479 C   0  0  0  0  0  0  0  0  0  0  0  0
    3.1631    8.7435    3.3974 H   0  0  0  0  0  0  0  0  0  0  0  0
    1.9842    6.9595    3.2748 C   0  0  0  0  0  0  0  0  0  0  0  0
    1.9249    6.8009    4.3430 H   0  0  0  0  0  0  0  0  0  0  0  0
    3.4570    9.3508    0.7583 C   0  0  0  0  0  0  0  0  0  0  0  0
    3.1414   10.2872    1.2150 H   0  0  0  0  0  0  0  0  0  0  0  0
    3.2914    9.4060   -0.3143 H   0  0  0  0  0  0  0  0  0  0  0  0
    4.5253    9.2370    0.9397 H   0  0  0  0  0  0  0  0  0  0  0  0
    0.0214    4.2381    5.0935 C   0  0  0  0  0  3  0  0  0  0  0  0
    1.0941    4.2741    4.9741 H   0  0  0  0  0  0  0  0  0  0  0  0
   -0.5635    4.3302    6.3309 C   0  0  0  0  0  0  0  0  0  0  0  0
    0.0427    4.4528    7.2137 H   0  0  0  0  0  0  0  0  0  0  0  0
   -1.9600    4.2548    6.4336 C   0  0  0  0  0  0  0  0  0  0  0  0
   -2.6746    4.0805    5.2715 C   0  0  0  0  0  0  0  0  0  0  0  0
   -3.7520    4.0069    5.2890 H   0  0  0  0  0  0  0  0  0  0  0  0
   -2.0080    3.9887    4.0339 C   0  0  0  0  0  0  0  0  0  0  0  0
   -2.6277    4.3496    7.7667 C   0  0  0  0  0  0  0  0  0  0  0  0
   -2.3523    5.2812    8.2585 H   0  0  0  0  0  0  0  0  0  0  0  0
   -2.3008    3.5301    8.4051 H   0  0  0  0  0  0  0  0  0  0  0  0
   -3.7092    4.3084    7.6692 H   0  0  0  0  0  0  0  0  0  0  0  0
  1  4  1  0  0  0  0
  1  2  1  0  0  0  0
  1  5  1  0  0  0  0
  3 23  1  6  0  0  0
  3 25  1  0  0  0  0
  3  1  1  0  0  0  0
  4 31  1  0  0  0  0
  5 44  1  0  0  0  0
  5 37  1  0  0  0  0
  6  8  1  0  0  0  0
  6 44  1  0  0  0  0
  7  6  1  0  0  0  0
  9  1  1  0  0  0  0
 10 23  1  0  0  0  0
 10 11  1  0  0  0  0
 11  9  1  0  0  0  0
 12 11  2  0  0  0  0
 12 13  1  0  0  0  0
 14 12  1  0  0  0  0
 15 14  1  0  0  0  0
 16 17  1  0  0  0  0
 16 14  2  0  0  0  0
 17 10  2  0  0  0  0
 18 17  1  0  0  0  0
 19 16  1  0  0  0  0
 20 19  1  0  0  0  0
 21 19  1  0  0  0  0
 22 19  1  0  0  0  0
 24 23  1  0  0  0  0
 25 26  1  1  0  0  0
 25  4  1  0  0  0  0
 26 28  2  0  0  0  0
 27 26  1  0  0  0  0
 28 29  1  0  0  0  0
 29 31  2  0  0  0  0
 29 30  1  0  0  0  0
 31 32  1  0  0  0  0
 33 36  1  0  0  0  0
 33 34  1  0  0  0  0
 33 28  1  0  0  0  0
 35 33  1  0  0  0  0
 37 39  1  0  0  0  0
 38 37  1  0  0  0  0
 39 41  2  0  0  0  0
 39 40  1  0  0  0  0
 41 45  1  0  0  0  0
 42 43  1  0  0  0  0
 42 41  1  0  0  0  0
 44 42  2  0  0  0  0
 45 46  1  0  0  0  0
 45 47  1  0  0  0  0
 48 45  1  0  0  0  0
M  END
$$$$
