CSD_code = LERZAJ | q = 0 | S = 0 | Stoichiometry = C21H23Cl2N4NbO2 | MND = 7
 OpenBabel04212202063D

 53 52  0  0  0  0  0  0  0  0999 V2000
    7.8913    0.9810    4.8824 Nb  0  0  0  0  0  0  0  0  0  0  0  0
    5.7050    1.4667    4.3174 Cl  0  0  0  0  0 15  0  0  0  0  0  0
    8.0063   -0.2977    6.8710 Cl  0  0  0  0  0 15  0  0  0  0  0  0
    8.3465    1.5452    2.7297 O   0  0  0  0  0  1  0  0  0  0  0  0
    9.0665    1.0150    0.6838 O   0  0  0  0  0  0  0  0  0  0  0  0
    7.5325   -1.0167    3.9228 N   0  0  0  0  0  0  0  0  0  0  0  0
    8.2696   -1.3991    2.8656 N   0  0  0  0  0  0  0  0  0  0  0  0
    7.7573   -2.5112    2.2923 C   0  0  0  0  0  0  0  0  0  0  0  0
    6.6499   -2.8579    3.0403 C   0  0  0  0  0  0  0  0  0  0  0  0
    5.9991   -3.6915    2.8738 H   0  0  0  0  0  0  0  0  0  0  0  0
    6.5442   -1.8966    4.0529 C   0  0  0  0  0  0  0  0  0  0  0  0
    8.3363   -3.1511    1.0849 C   0  0  0  0  0  0  0  0  0  0  0  0
    8.3506   -2.4531    0.2480 H   0  0  0  0  0  0  0  0  0  0  0  0
    7.7307   -4.0098    0.8099 H   0  0  0  0  0  0  0  0  0  0  0  0
    9.3554   -3.4930    1.2694 H   0  0  0  0  0  0  0  0  0  0  0  0
    5.5298   -1.8001    5.1293 C   0  0  0  0  0  0  0  0  0  0  0  0
    6.0190   -1.7765    6.1042 H   0  0  0  0  0  0  0  0  0  0  0  0
    4.8511   -2.6472    5.0806 H   0  0  0  0  0  0  0  0  0  0  0  0
    4.9648   -0.8722    5.0197 H   0  0  0  0  0  0  0  0  0  0  0  0
   10.0047    0.2168    4.6064 N   0  0  0  0  0  0  0  0  0  0  0  0
   10.3443   -0.4124    3.4682 N   0  0  0  0  0  0  0  0  0  0  0  0
   11.6639   -0.7062    3.4496 C   0  0  0  0  0  0  0  0  0  0  0  0
   12.1777   -0.2605    4.6515 C   0  0  0  0  0  0  0  0  0  0  0  0
   13.1936   -0.3351    4.9811 H   0  0  0  0  0  0  0  0  0  0  0  0
   11.1058    0.3066    5.3491 C   0  0  0  0  0  0  0  0  0  0  0  0
   12.3404   -1.3715    2.3087 C   0  0  0  0  0  0  0  0  0  0  0  0
   11.9172   -2.3587    2.1218 H   0  0  0  0  0  0  0  0  0  0  0  0
   13.3959   -1.4880    2.5369 H   0  0  0  0  0  0  0  0  0  0  0  0
   12.2449   -0.7759    1.4010 H   0  0  0  0  0  0  0  0  0  0  0  0
   11.1086    0.8914    6.7134 C   0  0  0  0  0  0  0  0  0  0  0  0
   10.4685    1.7742    6.7565 H   0  0  0  0  0  0  0  0  0  0  0  0
   12.1227    1.1482    7.0084 H   0  0  0  0  0  0  0  0  0  0  0  0
   10.7067    0.1649    7.4216 H   0  0  0  0  0  0  0  0  0  0  0  0
    9.3883   -0.6186    2.4181 C   0  0  0  0  0  0  0  0  0  0  0  0
    9.8732   -1.1341    1.5866 H   0  0  0  0  0  0  0  0  0  0  0  0
    8.8654    0.8247    1.8606 C   0  0  0  0  0  0  0  0  0  0  0  0
    8.7686    2.9195    5.2362 C   0  0  0  0  0  0  0  0  0  0  0  0
    7.8750    2.7249    6.1523 C   0  0  0  0  0  3  0  0  0  0  0  0
    9.6942    3.9196    4.6573 C   0  0  0  0  0  0  0  0  0  0  0  0
    9.4260    4.9257    4.9846 H   0  0  0  0  0  0  0  0  0  0  0  0
    9.6492    3.8724    3.5681 H   0  0  0  0  0  0  0  0  0  0  0  0
   10.7212    3.7089    4.9632 H   0  0  0  0  0  0  0  0  0  0  0  0
    7.2210    3.3250    7.2867 C   0  0  0  0  0  0  0  0  0  0  0  0
    7.7722    4.4399    7.9256 C   0  0  0  0  0  0  0  0  0  0  0  0
    8.7023    4.8531    7.5635 H   0  0  0  0  0  0  0  0  0  0  0  0
    7.1338    5.0009    9.0146 C   0  0  0  0  0  0  0  0  0  0  0  0
    7.5643    5.8625    9.5045 H   0  0  0  0  0  0  0  0  0  0  0  0
    5.9433    4.4642    9.4794 C   0  0  0  0  0  0  0  0  0  0  0  0
    5.4470    4.9089   10.3295 H   0  0  0  0  0  0  0  0  0  0  0  0
    5.3927    3.3554    8.8553 C   0  0  0  0  0  0  0  0  0  0  0  0
    4.4670    2.9362    9.2215 H   0  0  0  0  0  0  0  0  0  0  0  0
    6.0270    2.7832    7.7701 C   0  0  0  0  0  0  0  0  0  0  0  0
    5.6098    1.9140    7.2750 H   0  0  0  0  0  0  0  0  0  0  0  0
  1 37  1  0  0  0  0
  5 36  2  0  0  0  0
  6 11  2  0  0  0  0
  7  6  1  0  0  0  0
  8  7  1  0  0  0  0
  8  9  2  0  0  0  0
  9 11  1  0  0  0  0
 10  9  1  0  0  0  0
 11 16  1  0  0  0  0
 12 15  1  0  0  0  0
 12  8  1  0  0  0  0
 13 12  1  0  0  0  0
 14 12  1  0  0  0  0
 16 17  1  0  0  0  0
 18 16  1  0  0  0  0
 19 16  1  0  0  0  0
 20 25  2  0  0  0  0
 21 20  1  0  0  0  0
 22 21  1  0  0  0  0
 22 23  2  0  0  0  0
 23 24  1  0  0  0  0
 23 25  1  0  0  0  0
 25 30  1  0  0  0  0
 26 28  1  0  0  0  0
 26 22  1  0  0  0  0
 27 26  1  0  0  0  0
 29 26  1  0  0  0  0
 30 31  1  0  0  0  0
 30 32  1  0  0  0  0
 30 33  1  0  0  0  0
 34  7  1  0  0  0  0
 34 21  1  0  0  0  0
 35 34  1  0  0  0  0
 36 34  1  0  0  0  0
 36  4  1  0  0  0  0
 37 38  2  0  0  0  0
 38 43  1  0  0  0  0
 39 42  1  0  0  0  0
 39 40  1  0  0  0  0
 39 37  1  0  0  0  0
 41 39  1  0  0  0  0
 43 52  2  0  0  0  0
 43 44  1  0  0  0  0
 44 46  2  0  0  0  0
 45 44  1  0  0  0  0
 46 48  1  0  0  0  0
 46 47  1  0  0  0  0
 48 49  1  0  0  0  0
 50 51  1  0  0  0  0
 50 48  2  0  0  0  0
 52 50  1  0  0  0  0
 53 52  1  0  0  0  0
M  END
$$$$
