CSD_code = LESNOM | q = 0 | S = 0 | Stoichiometry = C9H12AuClN3P | MND = 2
 OpenBabel04212202063D

 27 26  0  0  0  0  0  0  0  0999 V2000
    0.7337    2.1927    0.5766 Au  0  0  0  0  0  0  0  0  0  0  0  0
   -0.8428    1.6864   -0.9497 Cl  0  0  0  0  0  0  0  0  0  0  0  0
    2.4809    2.7137    1.8926 P   0  0  0  0  0  4  0  0  0  0  0  0
   -1.1518    3.1025    3.4665 N   0  0  0  0  0  0  0  0  0  0  0  0
    5.1603    5.6636   -1.3812 N   0  0  0  0  0  0  0  0  0  0  0  0
    5.2063   -1.6530    1.8492 N   0  0  0  0  0  0  0  0  0  0  0  0
    2.2386    3.4781    3.5532 C   0  0  0  0  0  0  0  0  0  0  0  0
    1.0536    4.4520    3.5245 C   0  0  0  0  0  0  0  0  0  0  0  0
   -0.1875    3.7137    3.4711 C   0  0  0  0  0  0  0  0  0  0  0  0
    3.6215    3.9324    1.1047 C   0  0  0  0  0  0  0  0  0  0  0  0
    3.5800    3.8546   -0.4268 C   0  0  0  0  0  0  0  0  0  0  0  0
    4.4531    4.8596   -0.9843 C   0  0  0  0  0  0  0  0  0  0  0  0
    3.5626    1.2945    2.3351 C   0  0  0  0  0  0  0  0  0  0  0  0
    3.9989    0.5057    1.0961 C   0  0  0  0  0  0  0  0  0  0  0  0
    4.6690   -0.7088    1.4981 C   0  0  0  0  0  0  0  0  0  0  0  0
    3.1581    3.9968    3.8461 H   0  0  0  0  0  0  0  0  0  0  0  0
    2.0433    2.6786    4.2748 H   0  0  0  0  0  0  0  0  0  0  0  0
    1.1068    5.1159    2.6548 H   0  0  0  0  0  0  0  0  0  0  0  0
    1.0431    5.0695    4.4278 H   0  0  0  0  0  0  0  0  0  0  0  0
    4.6407    3.7716    1.4750 H   0  0  0  0  0  0  0  0  0  0  0  0
    3.3020    4.9333    1.4169 H   0  0  0  0  0  0  0  0  0  0  0  0
    2.5605    4.0265   -0.7898 H   0  0  0  0  0  0  0  0  0  0  0  0
    3.9009    2.8745   -0.7909 H   0  0  0  0  0  0  0  0  0  0  0  0
    2.9659    0.6458    2.9869 H   0  0  0  0  0  0  0  0  0  0  0  0
    4.4318    1.6469    2.9027 H   0  0  0  0  0  0  0  0  0  0  0  0
    4.6934    1.0865    0.4814 H   0  0  0  0  0  0  0  0  0  0  0  0
    3.1251    0.2424    0.4879 H   0  0  0  0  0  0  0  0  0  0  0  0
  1  3  1  0  0  0  0
  2  1  1  0  0  0  0
  3 13  1  0  0  0  0
  3  7  1  0  0  0  0
  4  9  3  0  0  0  0
  5 12  3  0  0  0  0
  7 16  1  0  0  0  0
  7 17  1  0  0  0  0
  8  7  1  0  0  0  0
  8 19  1  0  0  0  0
  9  8  1  0  0  0  0
 10 21  1  0  0  0  0
 10 20  1  0  0  0  0
 10  3  1  0  0  0  0
 11 10  1  0  0  0  0
 12 11  1  0  0  0  0
 13 25  1  0  0  0  0
 13 24  1  0  0  0  0
 14 15  1  0  0  0  0
 14 13  1  0  0  0  0
 15  6  3  0  0  0  0
 18  8  1  0  0  0  0
 22 11  1  0  0  0  0
 23 11  1  0  0  0  0
 26 14  1  0  0  0  0
 27 14  1  0  0  0  0
M  END
$$$$
