CSD_code = LETGIC | q = 0 | S = 0 | Stoichiometry = C2H8Cl2N12Pd | MND = 4
 OpenBabel04212202063D

 25 26  0  0  1  0  0  0  0  0999 V2000
    3.0427    0.6993   -2.1817 Cl  0  0  0  0  0  0  0  0  0  0  0  0
    2.8672    0.0001    0.0016 Pd  0  0  0  0  0  0  0  0  0  0  0  0
    4.0080    1.4917    0.5503 N   0  0  0  0  0  0  0  0  0  0  0  0
    4.0092    2.7629    0.1380 C   0  0  2  0  0  3  0  0  0  0  0  0
    4.9654    1.3652    1.4625 N   0  0  0  0  0  0  0  0  0  0  0  0
    4.9903    3.3786    0.8499 N   0  0  0  0  0  0  0  0  0  0  0  0
    5.5541    2.4536    1.6645 N   0  0  0  0  0  0  0  0  0  0  0  0
    3.1849    3.3270   -0.7421 N   0  0  0  0  0  0  0  0  0  0  0  0
    2.7798    2.6454   -1.4060 H   0  0  0  0  0  0  0  0  0  0  0  0
    3.4441    4.2381   -1.0863 H   0  0  0  0  0  0  0  0  0  0  0  0
    5.3519    4.7037    0.7576 N   0  0  0  0  0  0  0  0  0  0  0  0
    6.3619    4.7780    0.6589 H   0  0  0  0  0  0  0  0  0  0  0  0
    5.0725    5.2119    1.5955 H   0  0  0  0  0  0  0  0  0  0  0  0
    2.6974   -0.7039    2.1843 Cl  0  0  0  0  0  0  0  0  0  0  0  0
    1.7256   -1.4908   -0.5474 N   0  0  0  0  0  0  0  0  0  0  0  0
    1.7254   -2.7630   -0.1380 C   0  0  1  0  0  3  0  0  0  0  0  0
    0.7664   -1.3625   -1.4573 N   0  0  0  0  0  0  0  0  0  0  0  0
    0.7430   -3.3772   -0.8492 N   0  0  0  0  0  0  0  0  0  0  0  0
    0.1776   -2.4505   -1.6608 N   0  0  0  0  0  0  0  0  0  0  0  0
    2.5517   -3.3289    0.7392 N   0  0  0  0  0  0  0  0  0  0  0  0
    2.9580   -2.6485    1.4036 H   0  0  0  0  0  0  0  0  0  0  0  0
    2.2938   -4.2408    1.0819 H   0  0  0  0  0  0  0  0  0  0  0  0
    0.3821   -4.7027   -0.7595 N   0  0  0  0  0  0  0  0  0  0  0  0
   -0.6280   -4.7775   -0.6607 H   0  0  0  0  0  0  0  0  0  0  0  0
    0.6615   -5.2092   -1.5986 H   0  0  0  0  0  0  0  0  0  0  0  0
  1  2  1  0  0  0  0
  2  3  1  0  0  0  0
  2 14  1  0  0  0  0
  3  5  1  0  0  0  0
  4  8  1  1  0  0  0
  4  3  1  0  0  0  0
  4  6  1  0  0  0  0
  5  7  2  0  0  0  0
  6  7  1  0  0  0  0
  9  8  1  0  0  0  0
 10  8  1  0  0  0  0
 11  6  1  0  0  0  0
 11 13  1  0  0  0  0
 12 11  1  0  0  0  0
 15 16  1  0  0  0  0
 15  2  1  0  0  0  0
 16 20  1  6  0  0  0
 17 15  1  0  0  0  0
 18 23  1  0  0  0  0
 18 16  1  0  0  0  0
 19 17  2  0  0  0  0
 19 18  1  0  0  0  0
 20 22  1  0  0  0  0
 20 21  1  0  0  0  0
 23 24  1  0  0  0  0
 25 23  1  0  0  0  0
M  END
$$$$
