CSD_code = LETTEL | q = 0 | S = 0 | Stoichiometry = C10H16I2N4Pd | MND = 4
 OpenBabel04212202063D

 33 34  0  0  1  0  0  0  0  0999 V2000
   -0.9971    4.2931    5.9748 I   0  0  0  0  0  0  0  0  0  0  0  0
    1.4883    4.2927    6.7497 Pd  0  0  0  0  0  0  0  0  0  0  0  0
    2.0956    4.2930    4.8406 C   0  0  2  0  0  3  0  0  0  0  0  0
    2.3514    3.2192    4.0774 N   0  0  0  0  0  0  0  0  0  0  0  0
    2.7704    3.6161    2.8340 C   0  0  0  0  0  0  0  0  0  0  0  0
    3.0281    2.9167    2.0658 H   0  0  0  0  0  0  0  0  0  0  0  0
    2.2009    1.8651    4.5382 C   0  0  0  0  0  0  0  0  0  0  0  0
    3.1701    1.3625    4.5844 H   0  0  0  0  0  0  0  0  0  0  0  0
    1.5326    1.3068    3.8800 H   0  0  0  0  0  0  0  0  0  0  0  0
    1.7633    1.8973    5.5509 H   0  0  0  0  0  0  0  0  0  0  0  0
    3.9731    4.2930    7.5260 I   0  0  0  0  0  0  0  0  0  0  0  0
    0.8806    4.2930    8.6588 C   0  0  0  0  0  0  0  0  0  0  0  0
    2.3516    5.3668    4.0775 N   0  0  0  0  0  0  0  0  0  0  0  0
    0.6242    3.2192    9.4218 N   0  0  0  0  0  0  0  0  0  0  0  0
    0.6240    5.3668    9.4217 N   0  0  0  0  0  0  0  0  0  0  0  0
    2.7706    4.9700    2.8340 C   0  0  0  0  0  0  0  0  0  0  0  0
    0.2044    3.6161   10.6650 C   0  0  0  0  0  0  0  0  0  0  0  0
    0.2042    4.9700   10.6649 C   0  0  0  0  0  0  0  0  0  0  0  0
    3.0284    5.6694    2.0659 H   0  0  0  0  0  0  0  0  0  0  0  0
   -0.0538    2.9167   11.4331 H   0  0  0  0  0  0  0  0  0  0  0  0
   -0.0540    5.6694   11.4330 H   0  0  0  0  0  0  0  0  0  0  0  0
    2.2013    6.7209    4.5384 C   0  0  0  0  0  0  0  0  0  0  0  0
    0.7744    1.8651    8.9610 C   0  0  0  0  0  0  0  0  0  0  0  0
    0.7739    6.7209    8.9608 C   0  0  0  0  0  0  0  0  0  0  0  0
    3.1706    7.2233    4.5846 H   0  0  0  0  0  0  0  0  0  0  0  0
   -0.1954    1.3641    8.9105 H   0  0  0  0  0  0  0  0  0  0  0  0
   -0.1959    7.2217    8.9102 H   0  0  0  0  0  0  0  0  0  0  0  0
    1.5331    7.2793    3.8803 H   0  0  0  0  0  0  0  0  0  0  0  0
    1.4389    1.3054    9.6217 H   0  0  0  0  0  0  0  0  0  0  0  0
    1.4384    7.2807    9.6214 H   0  0  0  0  0  0  0  0  0  0  0  0
    1.7638    6.6887    5.5511 H   0  0  0  0  0  0  0  0  0  0  0  0
    1.2163    1.8970    7.9503 H   0  0  0  0  0  0  0  0  0  0  0  0
    1.2159    6.6890    7.9501 H   0  0  0  0  0  0  0  0  0  0  0  0
  1  2  1  0  0  0  0
  2 11  1  0  0  0  0
  2 12  2  0  0  0  0
  3  2  1  1  0  0  0
  4  7  1  0  0  0  0
  4  3  1  0  0  0  0
  5 16  2  0  0  0  0
  5  4  1  0  0  0  0
  6  5  1  0  0  0  0
  7  8  1  0  0  0  0
  7 10  1  0  0  0  0
  9  7  1  0  0  0  0
 12 15  1  0  0  0  0
 12 14  1  0  0  0  0
 13 22  1  0  0  0  0
 13  3  1  0  0  0  0
 14 17  1  0  0  0  0
 15 18  1  0  0  0  0
 16 13  1  0  0  0  0
 17 20  1  0  0  0  0
 18 17  2  0  0  0  0
 18 21  1  0  0  0  0
 19 16  1  0  0  0  0
 22 25  1  0  0  0  0
 22 31  1  0  0  0  0
 23 14  1  0  0  0  0
 23 29  1  0  0  0  0
 24 15  1  0  0  0  0
 24 30  1  0  0  0  0
 26 23  1  0  0  0  0
 27 24  1  0  0  0  0
 28 22  1  0  0  0  0
 32 23  1  0  0  0  0
 33 24  1  0  0  0  0
M  END
$$$$
