CSD_code = LEVCUL | q = 0 | S = 0 | Stoichiometry = C27H22BClFeN6S3 | MND = 4
 OpenBabel04212202063D

 61 68  0  0  1  0  0  0  0  0999 V2000
   15.0373   -0.5216    7.8930 Fe  0  0  2  0  0  0  0  0  0  0  0  0
   15.0161   -1.8436    6.4485 Cl  0  0  0  0  0  0  0  0  0  0  0  0
   16.9563    0.3579    8.9001 S   0  0  0  0  0  0  0  0  0  0  0  0
   15.7633    1.2989   11.1754 N   0  0  0  0  0  0  0  0  0  0  0  0
   17.0680    2.7412   10.1530 N   0  0  0  0  0  0  0  0  0  0  0  0
   16.5861    1.4682   10.1219 C   0  0  2  0  0  3  0  0  0  0  0  0
   15.7116    2.4873   11.8540 C   0  0  0  0  0  0  0  0  0  0  0  0
   16.5073    3.3826   11.2315 C   0  0  0  0  0  0  0  0  0  0  0  0
   17.9365    3.3455    9.2253 C   0  0  0  0  0  0  0  0  0  0  0  0
   19.0731    2.6812    8.7824 C   0  0  0  0  0  0  0  0  0  0  0  0
   19.9122    3.2986    7.8721 C   0  0  0  0  0  0  0  0  0  0  0  0
   19.6306    4.5736    7.4122 C   0  0  0  0  0  0  0  0  0  0  0  0
   18.5005    5.2364    7.8627 C   0  0  0  0  0  0  0  0  0  0  0  0
   17.6504    4.6266    8.7660 C   0  0  0  0  0  0  0  0  0  0  0  0
   14.9647    0.0633   11.6797 B   0  0  2  0  0  0  0  0  0  0  0  0
   15.1119    2.5930   12.7335 H   0  0  0  0  0  0  0  0  0  0  0  0
   16.7476    4.3969   11.4726 H   0  0  0  0  0  0  0  0  0  0  0  0
   19.2909    1.6914    9.1485 H   0  0  0  0  0  0  0  0  0  0  0  0
   20.7925    2.7798    7.5245 H   0  0  0  0  0  0  0  0  0  0  0  0
   20.2885    5.0505    6.7015 H   0  0  0  0  0  0  0  0  0  0  0  0
   18.2746    6.2290    7.5035 H   0  0  0  0  0  0  0  0  0  0  0  0
   16.7564    5.1304    9.1021 H   0  0  0  0  0  0  0  0  0  0  0  0
   14.9940    0.0791   12.8708 H   0  0  0  0  0  0  0  0  0  0  0  0
   13.7720   -2.2846    9.4764 S   0  0  0  0  0  0  0  0  0  0  0  0
   13.8188    1.1990    8.7123 S   0  0  0  0  0  0  0  0  0  0  0  0
   15.6355   -1.2223   11.1778 N   0  0  0  0  0  0  0  0  0  0  0  0
   13.4987    0.1748   11.2293 N   0  0  0  0  0  0  0  0  0  0  0  0
   11.6382    0.3919   10.0875 N   0  0  0  0  0  0  0  0  0  0  0  0
   16.3273   -2.9494   10.0032 N   0  0  0  0  0  0  0  0  0  0  0  0
   15.2761   -2.1033   10.2146 C   0  0  1  0  0  3  0  0  0  0  0  0
   12.9820    0.5652   10.0498 C   0  0  1  0  0  3  0  0  0  0  0  0
   12.4635   -0.2795   12.0012 C   0  0  0  0  0  0  0  0  0  0  0  0
   16.9227   -1.5223   11.5553 C   0  0  0  0  0  0  0  0  0  0  0  0
   11.3139   -0.1557   11.3043 C   0  0  0  0  0  0  0  0  0  0  0  0
   17.3589   -2.5700   10.8282 C   0  0  0  0  0  0  0  0  0  0  0  0
   10.7309    0.6082    9.0323 C   0  0  0  0  0  0  0  0  0  0  0  0
   16.4237   -3.9012    8.9677 C   0  0  0  0  0  0  0  0  0  0  0  0
   10.7398    1.8038    8.3261 C   0  0  0  0  0  0  0  0  0  0  0  0
   15.4552   -4.8832    8.8141 C   0  0  0  0  0  0  0  0  0  0  0  0
    9.8409    1.9885    7.2906 C   0  0  0  0  0  0  0  0  0  0  0  0
   15.5642   -5.7849    7.7707 C   0  0  0  0  0  0  0  0  0  0  0  0
    8.9336    0.9946    6.9664 C   0  0  0  0  0  0  0  0  0  0  0  0
   16.6325   -5.7146    6.8936 C   0  0  0  0  0  0  0  0  0  0  0  0
    8.9262   -0.1948    7.6768 C   0  0  0  0  0  0  0  0  0  0  0  0
   17.5989   -4.7356    7.0549 C   0  0  0  0  0  0  0  0  0  0  0  0
    9.8240   -0.3942    8.7088 C   0  0  0  0  0  0  0  0  0  0  0  0
   17.4972   -3.8238    8.0884 C   0  0  0  0  0  0  0  0  0  0  0  0
   12.6365   -0.6608   12.9851 H   0  0  0  0  0  0  0  0  0  0  0  0
   17.4205   -0.9513   12.3111 H   0  0  0  0  0  0  0  0  0  0  0  0
   10.3021   -0.3829   11.5672 H   0  0  0  0  0  0  0  0  0  0  0  0
   18.2924   -3.0930   10.8350 H   0  0  0  0  0  0  0  0  0  0  0  0
   11.4463    2.5758    8.5862 H   0  0  0  0  0  0  0  0  0  0  0  0
   14.6227   -4.9272    9.4976 H   0  0  0  0  0  0  0  0  0  0  0  0
    9.8503    2.9154    6.7374 H   0  0  0  0  0  0  0  0  0  0  0  0
   14.8069   -6.5435    7.6427 H   0  0  0  0  0  0  0  0  0  0  0  0
    8.2347    1.1441    6.1572 H   0  0  0  0  0  0  0  0  0  0  0  0
   16.7090   -6.4178    6.0778 H   0  0  0  0  0  0  0  0  0  0  0  0
    8.2260   -0.9753    7.4203 H   0  0  0  0  0  0  0  0  0  0  0  0
   18.4271   -4.6713    6.3652 H   0  0  0  0  0  0  0  0  0  0  0  0
    9.8470   -1.3286    9.2485 H   0  0  0  0  0  0  0  0  0  0  0  0
   18.2270   -3.0361    8.2061 H   0  0  0  0  0  0  0  0  0  0  0  0
  1  2  1  6  0  0  0
  1 25  1  0  0  0  0
  1  3  1  0  0  0  0
  1 24  1  0  0  0  0
  4 15  1  0  0  0  0
  4  7  1  0  0  0  0
  5  8  1  0  0  0  0
  6  3  1  6  0  0  0
  6  5  1  0  0  0  0
  6  4  1  0  0  0  0
  7 16  1  0  0  0  0
  8 17  1  0  0  0  0
  8  7  2  0  0  0  0
  9  5  1  0  0  0  0
 10 18  1  0  0  0  0
 10  9  1  0  0  0  0
 11 10  2  0  0  0  0
 12 13  2  0  0  0  0
 12 11  1  0  0  0  0
 13 14  1  0  0  0  0
 14 22  1  0  0  0  0
 14  9  2  0  0  0  0
 15 23  1  1  0  0  0
 19 11  1  0  0  0  0
 20 12  1  0  0  0  0
 21 13  1  0  0  0  0
 26 33  1  0  0  0  0
 26 15  1  0  0  0  0
 27 15  1  0  0  0  0
 27 32  1  0  0  0  0
 28 34  1  0  0  0  0
 29 30  1  0  0  0  0
 29 35  1  0  0  0  0
 30 24  1  1  0  0  0
 30 26  1  0  0  0  0
 31 25  1  1  0  0  0
 31 28  1  0  0  0  0
 31 27  1  0  0  0  0
 32 48  1  0  0  0  0
 33 49  1  0  0  0  0
 34 50  1  0  0  0  0
 34 32  2  0  0  0  0
 35 51  1  0  0  0  0
 35 33  2  0  0  0  0
 36 28  1  0  0  0  0
 37 29  1  0  0  0  0
 38 52  1  0  0  0  0
 38 36  2  0  0  0  0
 39 37  1  0  0  0  0
 39 53  1  0  0  0  0
 40 38  1  0  0  0  0
 41 39  2  0  0  0  0
 42 40  2  0  0  0  0
 42 44  1  0  0  0  0
 43 45  2  0  0  0  0
 43 41  1  0  0  0  0
 44 46  2  0  0  0  0
 45 47  1  0  0  0  0
 46 36  1  0  0  0  0
 46 60  1  0  0  0  0
 47 61  1  0  0  0  0
 47 37  2  0  0  0  0
 54 40  1  0  0  0  0
 55 41  1  0  0  0  0
 56 42  1  0  0  0  0
 57 43  1  0  0  0  0
 58 44  1  0  0  0  0
 59 45  1  0  0  0  0
M  END
$$$$
