CSD_code = LEVFUO | q = 0 | S = 0 | Stoichiometry = C21H34BFeIN6S3 | MND = 4
 OpenBabel04212202063D

 67 71  0  0  1  0  0  0  0  0999 V2000
   -6.7879   11.9590    5.5334 I   0  0  0  0  0  0  0  0  0  0  0  0
   -6.4901   11.3940    7.8954 Fe  0  0  2  0  0  0  0  0  0  0  0  0
   -5.6652    9.6017    9.1989 S   0  0  0  0  0  0  0  0  0  0  0  0
   -5.3484   11.3860   11.2041 N   0  0  0  0  0  0  0  0  0  0  0  0
   -3.5220   11.0732   10.0045 N   0  0  0  0  0  0  0  0  0  0  0  0
   -4.8316   10.7386   10.1418 C   0  0  1  0  0  3  0  0  0  0  0  0
   -4.3434   12.1469   11.7384 C   0  0  0  0  0  0  0  0  0  0  0  0
   -3.2237   11.9610   11.0088 C   0  0  0  0  0  0  0  0  0  0  0  0
   -2.6432   10.6982    8.8896 C   0  0  0  0  0  0  0  0  0  0  0  0
   -2.4207    9.1832    8.9076 C   0  0  0  0  0  0  0  0  0  0  0  0
   -3.2827   11.1555    7.5717 C   0  0  0  0  0  0  0  0  0  0  0  0
   -1.2922   11.3998    9.0394 C   0  0  0  0  0  0  0  0  0  0  0  0
   -6.8046   11.6165   11.6659 B   0  0  2  0  0  0  0  0  0  0  0  0
   -6.8142   11.6325   12.8574 H   0  0  0  0  0  0  0  0  0  0  0  0
   -4.5142   12.7679   12.5926 H   0  0  0  0  0  0  0  0  0  0  0  0
   -2.2567   12.3936   11.1391 H   0  0  0  0  0  0  0  0  0  0  0  0
   -1.9537    8.8816    9.8433 H   0  0  0  0  0  0  0  0  0  0  0  0
   -1.7708    8.8991    8.0847 H   0  0  0  0  0  0  0  0  0  0  0  0
   -3.3621    8.6512    8.8034 H   0  0  0  0  0  0  0  0  0  0  0  0
   -4.1732   10.5659    7.3332 H   0  0  0  0  0  0  0  0  0  0  0  0
   -2.5784   11.0303    6.7542 H   0  0  0  0  0  0  0  0  0  0  0  0
   -3.5602   12.2090    7.6321 H   0  0  0  0  0  0  0  0  0  0  0  0
   -1.4067   12.4806    9.0044 H   0  0  0  0  0  0  0  0  0  0  0  0
   -0.6521   11.1020    8.2131 H   0  0  0  0  0  0  0  0  0  0  0  0
   -0.7979   11.1135    9.9652 H   0  0  0  0  0  0  0  0  0  0  0  0
   -8.5852   11.4703    8.8031 S   0  0  0  0  0  0  0  0  0  0  0  0
   -5.7729   13.3812    8.9584 S   0  0  0  0  0  0  0  0  0  0  0  0
   -7.7563   10.4958   11.1983 N   0  0  0  0  0  0  0  0  0  0  0  0
   -7.3014   12.9930   11.1668 N   0  0  0  0  0  0  0  0  0  0  0  0
   -7.7748   14.8421   10.0677 N   0  0  0  0  0  0  0  0  0  0  0  0
   -9.0049    9.0904   10.0483 N   0  0  0  0  0  0  0  0  0  0  0  0
   -8.4311   10.3184   10.0457 C   0  0  1  0  0  3  0  0  0  0  0  0
   -6.9891   13.7370   10.0871 C   0  0  1  0  0  3  0  0  0  0  0  0
   -8.3169   13.6335   11.8204 C   0  0  0  0  0  0  0  0  0  0  0  0
   -7.9011    9.3508   11.9303 C   0  0  0  0  0  0  0  0  0  0  0  0
   -8.6093   14.7702   11.1530 C   0  0  0  0  0  0  0  0  0  0  0  0
   -8.6667    8.4851   11.2315 C   0  0  0  0  0  0  0  0  0  0  0  0
   -7.8019   15.8852    9.0329 C   0  0  0  0  0  0  0  0  0  0  0  0
   -9.7269    8.4614    8.9332 C   0  0  0  0  0  0  0  0  0  0  0  0
   -6.4368   16.5758    8.9820 C   0  0  0  0  0  0  0  0  0  0  0  0
  -10.9821    9.2777    8.6158 C   0  0  0  0  0  0  0  0  0  0  0  0
   -8.1535   15.2403    7.6908 C   0  0  0  0  0  0  0  0  0  0  0  0
   -8.7893    8.3754    7.7240 C   0  0  0  0  0  0  0  0  0  0  0  0
   -8.8680   16.9274    9.3746 C   0  0  0  0  0  0  0  0  0  0  0  0
  -10.1486    7.0440    9.3250 C   0  0  0  0  0  0  0  0  0  0  0  0
   -8.7482   13.2254   12.7102 H   0  0  0  0  0  0  0  0  0  0  0  0
   -7.4405    9.2438   12.8896 H   0  0  0  0  0  0  0  0  0  0  0  0
   -9.3416   15.5129   11.3800 H   0  0  0  0  0  0  0  0  0  0  0  0
   -8.9840    7.5016   11.4989 H   0  0  0  0  0  0  0  0  0  0  0  0
   -6.2030   17.0266    9.9449 H   0  0  0  0  0  0  0  0  0  0  0  0
  -11.6266    9.3348    9.4910 H   0  0  0  0  0  0  0  0  0  0  0  0
   -6.4507   17.3539    8.2245 H   0  0  0  0  0  0  0  0  0  0  0  0
  -11.5309    8.8026    7.8077 H   0  0  0  0  0  0  0  0  0  0  0  0
   -5.6562   15.8647    8.7300 H   0  0  0  0  0  0  0  0  0  0  0  0
  -10.7221   10.2859    8.3080 H   0  0  0  0  0  0  0  0  0  0  0  0
   -7.3590   14.5826    7.3533 H   0  0  0  0  0  0  0  0  0  0  0  0
   -8.5253    9.3658    7.3536 H   0  0  0  0  0  0  0  0  0  0  0  0
   -8.2999   16.0076    6.9366 H   0  0  0  0  0  0  0  0  0  0  0  0
   -9.2751    7.8336    6.9178 H   0  0  0  0  0  0  0  0  0  0  0  0
   -9.0661   14.6543    7.7786 H   0  0  0  0  0  0  0  0  0  0  0  0
   -7.8717    7.8564    7.9966 H   0  0  0  0  0  0  0  0  0  0  0  0
   -9.8613   16.4850    9.3899 H   0  0  0  0  0  0  0  0  0  0  0  0
   -9.2837    6.4164    9.5268 H   0  0  0  0  0  0  0  0  0  0  0  0
   -8.8565   17.6955    8.6058 H   0  0  0  0  0  0  0  0  0  0  0  0
  -10.6946    6.6040    8.4947 H   0  0  0  0  0  0  0  0  0  0  0  0
   -8.6654   17.4072   10.3300 H   0  0  0  0  0  0  0  0  0  0  0  0
  -10.8059    7.0512   10.1918 H   0  0  0  0  0  0  0  0  0  0  0  0
  2  1  1  6  0  0  0
  2 26  1  0  0  0  0
  2 27  1  0  0  0  0
  2  3  1  0  0  0  0
  4 13  1  0  0  0  0
  4  7  1  0  0  0  0
  5  6  1  0  0  0  0
  5  8  1  0  0  0  0
  6  3  1  1  0  0  0
  6  4  1  0  0  0  0
  7 15  1  0  0  0  0
  8 16  1  0  0  0  0
  8  7  2  0  0  0  0
  9 10  1  0  0  0  0
  9 12  1  0  0  0  0
  9  5  1  0  0  0  0
 10 17  1  0  0  0  0
 11 22  1  0  0  0  0
 11  9  1  0  0  0  0
 12 25  1  0  0  0  0
 13 14  1  1  0  0  0
 18 10  1  0  0  0  0
 19 10  1  0  0  0  0
 20 11  1  0  0  0  0
 21 11  1  0  0  0  0
 23 12  1  0  0  0  0
 24 12  1  0  0  0  0
 28 13  1  0  0  0  0
 28 35  1  0  0  0  0
 29 13  1  0  0  0  0
 29 34  1  0  0  0  0
 30 33  1  0  0  0  0
 30 36  1  0  0  0  0
 31 37  1  0  0  0  0
 32 26  1  1  0  0  0
 32 31  1  0  0  0  0
 32 28  1  0  0  0  0
 33 27  1  1  0  0  0
 33 29  1  0  0  0  0
 34 46  1  0  0  0  0
 35 47  1  0  0  0  0
 36 48  1  0  0  0  0
 36 34  2  0  0  0  0
 37 49  1  0  0  0  0
 37 35  2  0  0  0  0
 38 44  1  0  0  0  0
 38 30  1  0  0  0  0
 39 45  1  0  0  0  0
 39 31  1  0  0  0  0
 40 38  1  0  0  0  0
 40 50  1  0  0  0  0
 41 39  1  0  0  0  0
 41 51  1  0  0  0  0
 42 60  1  0  0  0  0
 42 38  1  0  0  0  0
 43 61  1  0  0  0  0
 43 39  1  0  0  0  0
 44 62  1  0  0  0  0
 44 66  1  0  0  0  0
 45 63  1  0  0  0  0
 45 67  1  0  0  0  0
 52 40  1  0  0  0  0
 53 41  1  0  0  0  0
 54 40  1  0  0  0  0
 55 41  1  0  0  0  0
 56 42  1  0  0  0  0
 57 43  1  0  0  0  0
 58 42  1  0  0  0  0
 59 43  1  0  0  0  0
 64 44  1  0  0  0  0
 65 45  1  0  0  0  0
M  END
$$$$
