CSD_code = LEVYET | q = 0 | S = 0 | Stoichiometry = C24H23Cl2FeN3Si | MND = 4
 OpenBabel04212202063D

 54 58  0  0  1  0  0  0  0  0999 V2000
    4.3310    6.9210   13.5961 Fe  0  0  0  0  0  0  0  0  0  0  0  0
    2.7656    5.7359   14.0853 Cl  0  0  0  0  0  0  0  0  0  0  0  0
    5.5975    8.3748   13.0654 Cl  0  0  0  0  0  0  0  0  0  0  0  0
    7.0872    4.6383   13.9289 Si  0  0  2  0  0  0  0  0  0  0  0  0
    5.4688    6.1147   15.6122 N   0  0  0  0  0  0  0  0  0  0  0  0
    5.0972    5.1511   12.0815 N   0  0  0  0  0  0  0  0  0  0  0  0
    7.7623    2.0542   14.5664 N   0  0  0  0  0  0  0  0  0  0  0  0
    6.1714    4.9772   15.5621 C   0  0  2  0  0  3  0  0  0  0  0  0
    6.2640    4.1334   16.6619 C   0  0  0  0  0  0  0  0  0  0  0  0
    6.8213    3.2145   16.5762 H   0  0  0  0  0  0  0  0  0  0  0  0
    5.6334    4.4868   17.8435 C   0  0  0  0  0  0  0  0  0  0  0  0
    5.6901    3.8479   18.7133 H   0  0  0  0  0  0  0  0  0  0  0  0
    4.9362    5.6803   17.8913 C   0  0  0  0  0  0  0  0  0  0  0  0
    4.4414    6.0005   18.7957 H   0  0  0  0  0  0  0  0  0  0  0  0
    4.8670    6.4678   16.7458 C   0  0  0  0  0  0  0  0  0  0  0  0
    4.0932    7.7475   16.7269 C   0  0  0  0  0  0  0  0  0  0  0  0
    3.0434    7.5279   16.5290 H   0  0  0  0  0  0  0  0  0  0  0  0
    4.4661    8.3919   15.9286 H   0  0  0  0  0  0  0  0  0  0  0  0
    4.1626    8.2643   17.6809 H   0  0  0  0  0  0  0  0  0  0  0  0
    5.8622    4.1600   12.5535 C   0  0  1  0  0  3  0  0  0  0  0  0
    5.7962    2.8779   12.0226 C   0  0  0  0  0  0  0  0  0  0  0  0
    6.4127    2.1002   12.4435 H   0  0  0  0  0  0  0  0  0  0  0  0
    4.9355    2.6235   10.9674 C   0  0  0  0  0  0  0  0  0  0  0  0
    4.8662    1.6349   10.5362 H   0  0  0  0  0  0  0  0  0  0  0  0
    4.1724    3.6637   10.4693 C   0  0  0  0  0  0  0  0  0  0  0  0
    3.4988    3.5128    9.6393 H   0  0  0  0  0  0  0  0  0  0  0  0
    4.2733    4.9190   11.0623 C   0  0  0  0  0  0  0  0  0  0  0  0
    3.4423    6.0700   10.5922 C   0  0  0  0  0  0  0  0  0  0  0  0
    2.4647    6.0256   11.0738 H   0  0  0  0  0  0  0  0  0  0  0  0
    3.2973    6.0377    9.5151 H   0  0  0  0  0  0  0  0  0  0  0  0
    3.9216    7.0099   10.8734 H   0  0  0  0  0  0  0  0  0  0  0  0
    8.3108    3.2089   14.1905 C   0  0  0  0  0  0  0  0  0  0  0  0
    9.6823    3.3355   14.0082 C   0  0  0  0  0  0  0  0  0  0  0  0
   10.0943    4.2849   13.7034 H   0  0  0  0  0  0  0  0  0  0  0  0
   10.4946    2.2330   14.2231 C   0  0  0  0  0  0  0  0  0  0  0  0
   11.5651    2.3021   14.0887 H   0  0  0  0  0  0  0  0  0  0  0  0
    9.9119    1.0411   14.6129 C   0  0  0  0  0  0  0  0  0  0  0  0
   10.5088    0.1589   14.7905 H   0  0  0  0  0  0  0  0  0  0  0  0
    8.5276    0.9948   14.7748 C   0  0  0  0  0  0  0  0  0  0  0  0
    7.8358   -0.2650   15.1961 C   0  0  0  0  0  0  0  0  0  0  0  0
    6.7648   -0.0920   15.2487 H   0  0  0  0  0  0  0  0  0  0  0  0
    8.1960   -0.5856   16.1725 H   0  0  0  0  0  0  0  0  0  0  0  0
    8.0371   -1.0641   14.4845 H   0  0  0  0  0  0  0  0  0  0  0  0
    8.0392    6.1888   13.4090 C   0  0  0  0  0  0  0  0  0  0  0  0
    8.5229    7.0837   14.3601 C   0  0  0  0  0  0  0  0  0  0  0  0
    8.3433    6.8894   15.4082 H   0  0  0  0  0  0  0  0  0  0  0  0
    9.2130    8.2205   13.9827 C   0  0  0  0  0  0  0  0  0  0  0  0
    9.5715    8.9091   14.7344 H   0  0  0  0  0  0  0  0  0  0  0  0
    9.4347    8.4830   12.6416 C   0  0  0  0  0  0  0  0  0  0  0  0
    9.9649    9.3761   12.3443 H   0  0  0  0  0  0  0  0  0  0  0  0
    8.9658    7.6015   11.6826 C   0  0  0  0  0  0  0  0  0  0  0  0
    9.1309    7.8056   10.6344 H   0  0  0  0  0  0  0  0  0  0  0  0
    8.2763    6.4660   12.0650 C   0  0  0  0  0  0  0  0  0  0  0  0
    7.9034    5.7868   11.3114 H   0  0  0  0  0  0  0  0  0  0  0  0
  1  2  1  0  0  0  0
  1  5  1  0  0  0  0
  3  1  1  0  0  0  0
  4 44  1  6  0  0  0
  4 32  1  0  0  0  0
  4  8  1  0  0  0  0
  5 15  1  0  0  0  0
  6 20  1  0  0  0  0
  6  1  1  0  0  0  0
  7 39  1  0  0  0  0
  8  5  1  0  0  0  0
  8  9  1  1  0  0  0
  9 11  2  0  0  0  0
 10  9  1  0  0  0  0
 11 13  1  0  0  0  0
 11 12  1  0  0  0  0
 13 14  1  0  0  0  0
 15 13  2  0  0  0  0
 16 15  1  0  0  0  0
 16 19  1  0  0  0  0
 17 16  1  0  0  0  0
 18 16  1  0  0  0  0
 20 21  1  6  0  0  0
 20  4  1  0  0  0  0
 21 22  1  0  0  0  0
 23 21  2  0  0  0  0
 24 23  1  0  0  0  0
 25 23  1  0  0  0  0
 25 27  2  0  0  0  0
 26 25  1  0  0  0  0
 27  6  1  0  0  0  0
 28 31  1  0  0  0  0
 28 27  1  0  0  0  0
 28 29  1  0  0  0  0
 30 28  1  0  0  0  0
 32  7  2  0  0  0  0
 33 32  1  0  0  0  0
 33 35  2  0  0  0  0
 34 33  1  0  0  0  0
 35 37  1  0  0  0  0
 36 35  1  0  0  0  0
 37 39  2  0  0  0  0
 37 38  1  0  0  0  0
 39 40  1  0  0  0  0
 40 41  1  0  0  0  0
 40 42  1  0  0  0  0
 43 40  1  0  0  0  0
 44 45  1  0  0  0  0
 45 46  1  0  0  0  0
 47 45  2  0  0  0  0
 47 48  1  0  0  0  0
 49 47  1  0  0  0  0
 50 49  1  0  0  0  0
 51 53  1  0  0  0  0
 51 49  2  0  0  0  0
 52 51  1  0  0  0  0
 53 44  2  0  0  0  0
 54 53  1  0  0  0  0
M  END
$$$$
