CSD_code = LEWKIJ | q = 0 | S = 0 | Stoichiometry = C10H14AuCl2N | MND = 4
 OpenBabel04212202063D

 28 29  0  0  0  0  0  0  0  0999 V2000
    4.3259    4.6108    5.3101 C   0  0  0  0  0  0  0  0  0  0  0  0
    3.4049    4.6313    4.2646 C   0  0  0  0  0  0  0  0  0  0  0  0
    2.8119    3.4465    3.8549 C   0  0  0  0  0  0  0  0  0  0  0  0
    2.0979    3.4614    3.0442 H   0  0  0  0  0  0  0  0  0  0  0  0
    3.1310    2.2551    4.4808 C   0  0  0  0  0  0  0  0  0  0  0  0
    2.6625    1.3390    4.1526 H   0  0  0  0  0  0  0  0  0  0  0  0
    4.0460    2.2259    5.5231 C   0  0  0  0  0  0  0  0  0  0  0  0
    4.6432    3.4203    5.9253 C   0  0  0  0  0  0  0  0  0  0  0  0
    5.3523    3.4086    6.7377 H   0  0  0  0  0  0  0  0  0  0  0  0
    3.0713    5.9583    3.6552 C   0  0  0  0  0  0  0  0  0  0  0  0
    2.7544    5.8627    2.6100 H   0  0  0  0  0  0  0  0  0  0  0  0
    2.2463    6.4060    4.2197 H   0  0  0  0  0  0  0  0  0  0  0  0
    5.2096    6.5416    2.7084 C   0  0  0  0  0  0  0  0  0  0  0  0
    6.0968    7.1560    2.8466 H   0  0  0  0  0  0  0  0  0  0  0  0
    4.7866    6.7428    1.7196 H   0  0  0  0  0  0  0  0  0  0  0  0
    5.4886    5.4909    2.7680 H   0  0  0  0  0  0  0  0  0  0  0  0
    3.8180    8.2545    3.6104 C   0  0  0  0  0  0  0  0  0  0  0  0
    4.6833    8.9012    3.7462 H   0  0  0  0  0  0  0  0  0  0  0  0
    3.0894    8.5055    4.3787 H   0  0  0  0  0  0  0  0  0  0  0  0
    3.3785    8.4215    2.6237 H   0  0  0  0  0  0  0  0  0  0  0  0
    4.3850    0.9500    6.2270 C   0  0  0  0  0  0  0  0  0  0  0  0
    5.4375    0.9281    6.4979 H   0  0  0  0  0  0  0  0  0  0  0  0
    4.1569    0.0888    5.6042 H   0  0  0  0  0  0  0  0  0  0  0  0
    3.8036    0.8708    7.1456 H   0  0  0  0  0  0  0  0  0  0  0  0
    4.2352    6.8597    3.7567 N   0  0  0  0  0  4  0  0  0  0  0  0
    6.1809    8.4999    5.7034 Cl  0  0  0  0  0  0  0  0  0  0  0  0
    6.0194    5.7536    7.5826 Cl  0  0  0  0  0  0  0  0  0  0  0  0
    5.1634    6.4038    5.6334 Au  0  0  0  0  0  0  0  0  0  0  0  0
  1 28  1  0  0  0  0
  1  8  1  0  0  0  0
  2  1  2  0  0  0  0
  3  2  1  0  0  0  0
  3  5  2  0  0  0  0
  4  3  1  0  0  0  0
  5  7  1  0  0  0  0
  6  5  1  0  0  0  0
  7  8  2  0  0  0  0
  7 21  1  0  0  0  0
  8  9  1  0  0  0  0
 10 25  1  0  0  0  0
 10 12  1  0  0  0  0
 10  2  1  0  0  0  0
 11 10  1  0  0  0  0
 13 16  1  0  0  0  0
 13 14  1  0  0  0  0
 13 25  1  0  0  0  0
 15 13  1  0  0  0  0
 17 18  1  0  0  0  0
 17 25  1  0  0  0  0
 17 19  1  0  0  0  0
 20 17  1  0  0  0  0
 21 22  1  0  0  0  0
 21 24  1  0  0  0  0
 23 21  1  0  0  0  0
 25 28  1  0  0  0  0
 28 26  1  0  0  0  0
 28 27  1  0  0  0  0
M  END
$$$$
