CSD_code = LEWSIP | q = 1 | S = 0 | Stoichiometry = C10H22ClORuS5(1+) | MND = 6
 OpenBabel04212202063D

 40 43  0  0  0  0  0  0  0  0999 V2000
    0.9456    7.3348   19.9630 Ru  0  0  0  0  0  0  0  0  0  0  0  0
   -1.3948    7.3342   19.3908 S   0  0  2  0  0  3  0  0  0  0  0  0
   -1.8061    8.7787   20.4377 C   0  0  0  0  0  0  0  0  0  0  0  0
   -2.8821    8.9473   20.3839 H   0  0  0  0  0  0  0  0  0  0  0  0
   -1.4990    8.5294   21.4568 H   0  0  0  0  0  0  0  0  0  0  0  0
   -1.0488    9.9864   19.9242 C   0  0  0  0  0  0  0  0  0  0  0  0
   -1.1823   10.8233   20.6099 H   0  0  0  0  0  0  0  0  0  0  0  0
   -1.3789   10.2763   18.9273 H   0  0  0  0  0  0  0  0  0  0  0  0
    0.7792    9.7025   19.8334 S   0  0  2  0  0  3  0  0  0  0  0  0
    1.0996    9.9598   18.0402 C   0  0  0  0  0  0  0  0  0  0  0  0
    0.5805   10.8714   17.7457 H   0  0  0  0  0  0  0  0  0  0  0  0
    2.1768   10.1295   17.9872 H   0  0  0  0  0  0  0  0  0  0  0  0
    0.7164    8.7841   17.1626 C   0  0  0  0  0  0  0  0  0  0  0  0
    1.0028    8.9796   16.1289 H   0  0  0  0  0  0  0  0  0  0  0  0
   -0.3489    8.5549   17.2171 H   0  0  0  0  0  0  0  0  0  0  0  0
    1.6750    7.3342   17.7559 S   0  0  2  0  0  3  0  0  0  0  0  0
    0.4560    7.3339   22.2678 Cl  0  0  0  0  0  0  0  0  0  0  0  0
    3.0778    7.3342   20.7003 S   0  0  0  0  0  0  0  0  0  0  0  0
    3.9896    7.3342   19.5731 O   0  0  0  0  0  1  0  0  0  0  0  0
    3.5295    5.9539   21.7839 C   0  0  0  0  0  0  0  0  0  0  0  0
    2.8701    5.9677   22.6445 H   0  0  0  0  0  0  0  0  0  0  0  0
    4.5662    6.0738   22.0759 H   0  0  0  0  0  0  0  0  0  0  0  0
    3.4022    5.0328   21.2232 H   0  0  0  0  0  0  0  0  0  0  0  0
    0.7792    4.9667   19.8333 S   0  0  1  0  0  3  0  0  0  0  0  0
   -1.0488    4.6821   19.9242 C   0  0  0  0  0  0  0  0  0  0  0  0
   -1.8061    5.8898   20.4378 C   0  0  0  0  0  0  0  0  0  0  0  0
   -2.8822    5.7211   20.3840 H   0  0  0  0  0  0  0  0  0  0  0  0
   -1.4990    6.1391   21.4568 H   0  0  0  0  0  0  0  0  0  0  0  0
   -1.1821    3.8452   20.6099 H   0  0  0  0  0  0  0  0  0  0  0  0
   -1.3788    4.3922   18.9274 H   0  0  0  0  0  0  0  0  0  0  0  0
    1.0996    4.7088   18.0402 C   0  0  0  0  0  0  0  0  0  0  0  0
    0.5805    3.7971   17.7458 H   0  0  0  0  0  0  0  0  0  0  0  0
    2.1768    4.5391   17.9872 H   0  0  0  0  0  0  0  0  0  0  0  0
    0.7164    5.8844   17.1625 C   0  0  0  0  0  0  0  0  0  0  0  0
    1.0027    5.6888   16.1288 H   0  0  0  0  0  0  0  0  0  0  0  0
   -0.3490    6.1136   17.2170 H   0  0  0  0  0  0  0  0  0  0  0  0
    3.5295    8.7146   21.7839 C   0  0  0  0  0  0  0  0  0  0  0  0
    2.8701    8.7007   22.6445 H   0  0  0  0  0  0  0  0  0  0  0  0
    4.5662    8.5947   22.0759 H   0  0  0  0  0  0  0  0  0  0  0  0
    3.4022    9.6356   21.2231 H   0  0  0  0  0  0  0  0  0  0  0  0
  1 18  1  0  0  0  0
  1 17  1  0  0  0  0
  2  1  1  0  0  0  0
  2  3  1  1  0  0  0
  2 26  1  0  0  0  0
  3  5  1  0  0  0  0
  4  3  1  0  0  0  0
  6  3  1  0  0  0  0
  6  7  1  0  0  0  0
  8  6  1  0  0  0  0
  9 10  1  6  0  0  0
  9  6  1  0  0  0  0
  9  1  1  0  0  0  0
 11 10  1  0  0  0  0
 12 10  1  0  0  0  0
 13 15  1  0  0  0  0
 13 16  1  0  0  0  0
 13 10  1  0  0  0  0
 14 13  1  0  0  0  0
 16 34  1  6  0  0  0
 16  1  1  0  0  0  0
 18 37  1  0  0  0  0
 18 20  1  0  0  0  0
 19 18  1  0  0  0  0
 20 22  1  0  0  0  0
 20 21  1  0  0  0  0
 23 20  1  0  0  0  0
 24 31  1  6  0  0  0
 24 25  1  0  0  0  0
 24  1  1  0  0  0  0
 25 26  1  0  0  0  0
 25 29  1  0  0  0  0
 26 28  1  0  0  0  0
 27 26  1  0  0  0  0
 30 25  1  0  0  0  0
 32 31  1  0  0  0  0
 33 31  1  0  0  0  0
 34 36  1  0  0  0  0
 34 31  1  0  0  0  0
 35 34  1  0  0  0  0
 37 39  1  0  0  0  0
 37 38  1  0  0  0  0
 40 37  1  0  0  0  0
M  END
$$$$
