CSD_code = LEXHUS | q = 0 | S = 0 | Stoichiometry = C10H22Cl3O2SiTa | MND = 7
 OpenBabel04212202063D

 39 34  0  0  0  0  0  0  0  0999 V2000
    2.8673    5.3394   10.6818 Ta  0  0  0  0  0  0  0  0  0  0  0  0
    1.7613    7.2350   11.2895 Cl  0  0  0  0  0 15  0  0  0  0  0  0
    2.2673    4.1170   12.5790 Cl  0  0  0  0  0 15  0  0  0  0  0  0
    4.8496    4.2292   10.3763 Cl  0  0  0  0  0 15  0  0  0  0  0  0
    2.4104    5.2599    6.8040 Si  0  0  0  0  0  0  0  0  0  0  0  0
    4.5830    6.3963   12.5646 O   0  0  0  0  0  0  0  0  0  0  0  0
    4.4857    7.4304    9.8126 O   0  0  0  0  0  0  0  0  0  0  0  0
    0.4302    3.2517    9.2832 C   0  0  0  0  0  0  0  0  0  0  0  0
    1.4829    4.2846    9.4061 C   0  0  0  0  0  3  0  0  0  0  0  0
    2.2005    5.0813    8.6643 C   0  0  0  0  0  0  0  0  0  0  0  0
    1.3287    6.7107    6.1811 C   0  0  0  0  0  0  0  0  0  0  0  0
    1.8649    3.6482    5.9323 C   0  0  0  0  0  0  0  0  0  0  0  0
    4.2688    5.5733    6.4585 C   0  0  0  0  0  0  0  0  0  0  0  0
    5.0903    5.5290   13.5603 C   0  0  0  0  0  0  0  0  0  0  0  0
    5.6117    7.1125   11.9078 C   0  0  0  0  0  0  0  0  0  0  0  0
    4.9888    8.1136   10.9458 C   0  0  0  0  0  0  0  0  0  0  0  0
    3.8907    8.3168    8.8854 C   0  0  0  0  0  0  0  0  0  0  0  0
   -0.4322    3.6534    8.7518 H   0  0  0  0  0  0  0  0  0  0  0  0
    0.8142    2.3966    8.7273 H   0  0  0  0  0  0  0  0  0  0  0  0
    0.1153    2.9155   10.2696 H   0  0  0  0  0  0  0  0  0  0  0  0
    1.5076    7.6261    6.7368 H   0  0  0  0  0  0  0  0  0  0  0  0
    1.5238    6.9148    5.1328 H   0  0  0  0  0  0  0  0  0  0  0  0
    0.2736    6.4752    6.2773 H   0  0  0  0  0  0  0  0  0  0  0  0
    0.8066    3.4546    6.0745 H   0  0  0  0  0  0  0  0  0  0  0  0
    2.0474    3.7063    4.8633 H   0  0  0  0  0  0  0  0  0  0  0  0
    2.4126    2.7919    6.3142 H   0  0  0  0  0  0  0  0  0  0  0  0
    4.8351    5.5790    7.3863 H   0  0  0  0  0  0  0  0  0  0  0  0
    4.6859    4.7934    5.8290 H   0  0  0  0  0  0  0  0  0  0  0  0
    4.4415    6.5195    5.9541 H   0  0  0  0  0  0  0  0  0  0  0  0
    4.2318    5.0350   14.0109 H   0  0  0  0  0  0  0  0  0  0  0  0
    5.7541    4.7768   13.1206 H   0  0  0  0  0  0  0  0  0  0  0  0
    5.6331    6.0982   14.3225 H   0  0  0  0  0  0  0  0  0  0  0  0
    6.2151    7.6500   12.6529 H   0  0  0  0  0  0  0  0  0  0  0  0
    6.2540    6.4181   11.3484 H   0  0  0  0  0  0  0  0  0  0  0  0
    5.7527    8.8369   10.6262 H   0  0  0  0  0  0  0  0  0  0  0  0
    4.1732    8.6463   11.4541 H   0  0  0  0  0  0  0  0  0  0  0  0
    4.6173    9.0677    8.5554 H   0  0  0  0  0  0  0  0  0  0  0  0
    3.5725    7.7102    8.0429 H   0  0  0  0  0  0  0  0  0  0  0  0
    3.0231    8.8159    9.3292 H   0  0  0  0  0  0  0  0  0  0  0  0
  5 10  1  0  0  0  0
  6 14  1  0  0  0  0
  7 16  1  0  0  0  0
  8  9  1  0  0  0  0
  8 20  1  0  0  0  0
 10  9  2  0  0  0  0
 10  1  1  0  0  0  0
 11 23  1  0  0  0  0
 11 21  1  0  0  0  0
 11  5  1  0  0  0  0
 12 24  1  0  0  0  0
 12 26  1  0  0  0  0
 12  5  1  0  0  0  0
 13  5  1  0  0  0  0
 13 27  1  0  0  0  0
 14 30  1  0  0  0  0
 14 32  1  0  0  0  0
 15  6  1  0  0  0  0
 15 33  1  0  0  0  0
 16 36  1  0  0  0  0
 16 15  1  0  0  0  0
 17 39  1  0  0  0  0
 17  7  1  0  0  0  0
 18  8  1  0  0  0  0
 19  8  1  0  0  0  0
 22 11  1  0  0  0  0
 25 12  1  0  0  0  0
 28 13  1  0  0  0  0
 29 13  1  0  0  0  0
 31 14  1  0  0  0  0
 34 15  1  0  0  0  0
 35 16  1  0  0  0  0
 37 17  1  0  0  0  0
 38 17  1  0  0  0  0
M  END
$$$$
