CSD_code = LEXHOL | q = 0 | S = 0 | Stoichiometry = C3H9AuClP | MND = 2
 OpenBabel04212202063D

 15 14  0  0  0  0  0  0  0  0999 V2000
    4.0368    0.9032   10.2836 Au  0  0  0  0  0  0  0  0  0  0  0  0
    1.8007    1.1039   10.0508 Cl  0  0  0  0  0  0  0  0  0  0  0  0
    6.2627    0.7056   10.5107 P   0  0  0  0  0  4  0  0  0  0  0  0
    7.0952   -0.3072    9.2436 C   0  0  0  0  0  0  0  0  0  0  0  0
    6.8346   -0.0505   12.0682 C   0  0  0  0  0  0  0  0  0  0  0  0
    7.1996    2.2687   10.4552 C   0  0  0  0  0  0  0  0  0  0  0  0
    6.6715   -1.3108    9.2609 H   0  0  0  0  0  0  0  0  0  0  0  0
    8.1690   -0.3564    9.4297 H   0  0  0  0  0  0  0  0  0  0  0  0
    6.9098    0.1328    8.2642 H   0  0  0  0  0  0  0  0  0  0  0  0
    6.4127   -1.0517   12.1493 H   0  0  0  0  0  0  0  0  0  0  0  0
    6.4745    0.5486   12.9040 H   0  0  0  0  0  0  0  0  0  0  0  0
    7.9237   -0.1054   12.0951 H   0  0  0  0  0  0  0  0  0  0  0  0
    7.0091    2.7591    9.5012 H   0  0  0  0  0  0  0  0  0  0  0  0
    8.2688    2.0850   10.5692 H   0  0  0  0  0  0  0  0  0  0  0  0
    6.8489    2.9178   11.2568 H   0  0  0  0  0  0  0  0  0  0  0  0
  1  3  1  0  0  0  0
  2  1  1  0  0  0  0
  3  5  1  0  0  0  0
  4  7  1  0  0  0  0
  4  8  1  0  0  0  0
  4  3  1  0  0  0  0
  5 12  1  0  0  0  0
  5 10  1  0  0  0  0
  5 11  1  0  0  0  0
  6  3  1  0  0  0  0
  6 14  1  0  0  0  0
  6 15  1  0  0  0  0
  9  4  1  0  0  0  0
 13  6  1  0  0  0  0
M  END
$$$$
