CSD_code = LEXJEE | q = 0 | S = 0 | Stoichiometry = C16H34Cl3O2SiTa | MND = 7
 OpenBabel04212202063D

 57 52  0  0  0  0  0  0  0  0999 V2000
   -0.9403    1.4598    3.4559 Ta  0  0  0  0  0  0  0  0  0  0  0  0
    0.6868    2.7257    2.5243 Cl  0  0  0  0  0 15  0  0  0  0  0  0
    0.1494   -0.6010    3.5162 Cl  0  0  0  0  0 15  0  0  0  0  0  0
   -3.0341    0.5304    3.1693 Cl  0  0  0  0  0 15  0  0  0  0  0  0
    0.0320    1.0756    7.1578 Si  0  0  0  0  0  0  0  0  0  0  0  0
   -2.3109    3.1239    1.6375 O   0  0  0  0  0  0  0  0  0  0  0  0
   -0.9104    0.6510    0.8395 O   0  0  0  0  0  0  0  0  0  0  0  0
   -2.2805    3.8573    5.6521 C   0  0  0  0  0  0  0  0  0  0  0  0
   -1.5079    2.7060    5.1093 C   0  0  0  0  0  0  0  0  0  0  0  0
   -0.7121    1.7892    5.5853 C   0  0  0  0  0  3  0  0  0  0  0  0
   -1.2097   -0.2999    7.7045 C   0  0  0  0  0  0  0  0  0  0  0  0
   -0.6437   -1.1974    8.8030 C   0  0  0  0  0  0  0  0  0  0  0  0
   -1.6578   -1.1528    6.5204 C   0  0  0  0  0  0  0  0  0  0  0  0
    1.7620    0.3489    6.7018 C   0  0  0  0  0  0  0  0  0  0  0  0
    2.5024    1.2073    5.6763 C   0  0  0  0  0  0  0  0  0  0  0  0
    2.6658    0.1278    7.9151 C   0  0  0  0  0  0  0  0  0  0  0  0
    0.2091    2.3859    8.5685 C   0  0  0  0  0  0  0  0  0  0  0  0
    0.8081    3.6942    8.0564 C   0  0  0  0  0  0  0  0  0  0  0  0
   -1.1041    2.6530    9.3008 C   0  0  0  0  0  0  0  0  0  0  0  0
   -3.4590    3.7812    2.1320 C   0  0  0  0  0  0  0  0  0  0  0  0
   -2.5676    2.4122    0.4404 C   0  0  0  0  0  0  0  0  0  0  0  0
   -1.2701    1.7310    0.0019 C   0  0  0  0  0  0  0  0  0  0  0  0
   -1.4912   -0.5896    0.4819 C   0  0  0  0  0  0  0  0  0  0  0  0
   -1.9550    4.7787    5.1685 H   0  0  0  0  0  0  0  0  0  0  0  0
   -3.3406    3.7174    5.4400 H   0  0  0  0  0  0  0  0  0  0  0  0
   -2.1460    3.9584    6.7276 H   0  0  0  0  0  0  0  0  0  0  0  0
   -2.1027    0.1905    8.1042 H   0  0  0  0  0  0  0  0  0  0  0  0
   -0.3060   -0.6100    9.6537 H   0  0  0  0  0  0  0  0  0  0  0  0
   -1.4013   -1.8981    9.1525 H   0  0  0  0  0  0  0  0  0  0  0  0
    0.1961   -1.7738    8.4243 H   0  0  0  0  0  0  0  0  0  0  0  0
   -0.8080   -1.6323    6.0429 H   0  0  0  0  0  0  0  0  0  0  0  0
   -2.1616   -0.5403    5.7743 H   0  0  0  0  0  0  0  0  0  0  0  0
   -2.3475   -1.9290    6.8505 H   0  0  0  0  0  0  0  0  0  0  0  0
    1.5876   -0.6241    6.2328 H   0  0  0  0  0  0  0  0  0  0  0  0
    1.9098    1.3394    4.7739 H   0  0  0  0  0  0  0  0  0  0  0  0
    3.4429    0.7331    5.3995 H   0  0  0  0  0  0  0  0  0  0  0  0
    2.7282    2.1908    6.0810 H   0  0  0  0  0  0  0  0  0  0  0  0
    2.9395    1.0794    8.3649 H   0  0  0  0  0  0  0  0  0  0  0  0
    3.5838   -0.3764    7.6157 H   0  0  0  0  0  0  0  0  0  0  0  0
    2.1764   -0.4791    8.6713 H   0  0  0  0  0  0  0  0  0  0  0  0
    0.9045    1.9787    9.3084 H   0  0  0  0  0  0  0  0  0  0  0  0
    1.8034    3.5289    7.6546 H   0  0  0  0  0  0  0  0  0  0  0  0
    0.8856    4.4225    8.8634 H   0  0  0  0  0  0  0  0  0  0  0  0
    0.1951    4.1181    7.2665 H   0  0  0  0  0  0  0  0  0  0  0  0
   -1.8765    2.9852    8.6128 H   0  0  0  0  0  0  0  0  0  0  0  0
   -0.9668    3.4247   10.0578 H   0  0  0  0  0  0  0  0  0  0  0  0
   -1.4583    1.7537    9.7962 H   0  0  0  0  0  0  0  0  0  0  0  0
   -3.1297    4.3723    2.9821 H   0  0  0  0  0  0  0  0  0  0  0  0
   -4.2136    3.0560    2.4544 H   0  0  0  0  0  0  0  0  0  0  0  0
   -3.8863    4.4387    1.3670 H   0  0  0  0  0  0  0  0  0  0  0  0
   -2.8976    3.1118   -0.3411 H   0  0  0  0  0  0  0  0  0  0  0  0
   -3.3579    1.6680    0.6118 H   0  0  0  0  0  0  0  0  0  0  0  0
   -1.3543    1.3927   -1.0372 H   0  0  0  0  0  0  0  0  0  0  0  0
   -0.4568    2.4574    0.0894 H   0  0  0  0  0  0  0  0  0  0  0  0
   -1.1067   -1.3191    1.1935 H   0  0  0  0  0  0  0  0  0  0  0  0
   -2.5828   -0.5648    0.5492 H   0  0  0  0  0  0  0  0  0  0  0  0
   -1.1908   -0.8718   -0.5326 H   0  0  0  0  0  0  0  0  0  0  0  0
  1  9  1  0  0  0  0
  5 11  1  0  0  0  0
  5 17  1  0  0  0  0
  6 20  1  0  0  0  0
  8 26  1  0  0  0  0
  9 10  2  0  0  0  0
  9  8  1  0  0  0  0
 10  5  1  0  0  0  0
 11 27  1  0  0  0  0
 11 12  1  0  0  0  0
 12 29  1  0  0  0  0
 12 28  1  0  0  0  0
 13 33  1  0  0  0  0
 13 11  1  0  0  0  0
 14  5  1  0  0  0  0
 14 16  1  0  0  0  0
 15 37  1  0  0  0  0
 15 14  1  0  0  0  0
 16 38  1  0  0  0  0
 16 40  1  0  0  0  0
 17 19  1  0  0  0  0
 17 41  1  0  0  0  0
 18 17  1  0  0  0  0
 18 43  1  0  0  0  0
 19 47  1  0  0  0  0
 19 46  1  0  0  0  0
 20 49  1  0  0  0  0
 20 48  1  0  0  0  0
 21 52  1  0  0  0  0
 21  6  1  0  0  0  0
 22 54  1  0  0  0  0
 22 21  1  0  0  0  0
 22  7  1  0  0  0  0
 23 56  1  0  0  0  0
 23  7  1  0  0  0  0
 23 55  1  0  0  0  0
 24  8  1  0  0  0  0
 25  8  1  0  0  0  0
 30 12  1  0  0  0  0
 31 13  1  0  0  0  0
 32 13  1  0  0  0  0
 34 14  1  0  0  0  0
 35 15  1  0  0  0  0
 36 15  1  0  0  0  0
 39 16  1  0  0  0  0
 42 18  1  0  0  0  0
 44 18  1  0  0  0  0
 45 19  1  0  0  0  0
 50 20  1  0  0  0  0
 51 21  1  0  0  0  0
 53 22  1  0  0  0  0
 57 23  1  0  0  0  0
M  END
$$$$
