CSD_code = LEXJAA | q = 0 | S = 0 | Stoichiometry = C16H22Cl3N2SiTa | MND = 7
 OpenBabel04212202063D

 45 41  0  0  0  0  0  0  0  0999 V2000
    4.4730    1.6442   -3.4620 Ta  0  0  0  0  0  0  0  0  0  0  0  0
    4.1872    3.8346   -4.2025 Cl  0  0  0  0  0 15  0  0  0  0  0  0
    6.4645    1.5027   -4.7233 Cl  0  0  0  0  0 15  0  0  0  0  0  0
    5.0599   -0.1627   -2.1508 Cl  0  0  0  0  0 15  0  0  0  0  0  0
    0.7078    1.1064   -4.3593 Si  0  0  0  0  0  0  0  0  0  0  0  0
    6.1127    2.8056   -1.8968 N   0  0  0  0  0  0  0  0  0  0  0  0
    2.9655    2.1243   -1.7967 N   0  0  0  0  0  0  0  0  0  0  0  0
   -0.0538   -0.1464   -3.1312 C   0  0  0  0  0  0  0  0  0  0  0  0
    0.2390    2.8928   -3.8697 C   0  0  0  0  0  0  0  0  0  0  0  0
    0.0797    0.7253   -6.1241 C   0  0  0  0  0  0  0  0  0  0  0  0
    2.5765    0.9621   -4.3679 C   0  0  0  0  0  0  0  0  0  0  0  0
    3.5179    0.5477   -5.1289 C   0  0  0  0  0  3  0  0  0  0  0  0
    3.8841   -0.1647   -6.3637 C   0  0  0  0  0  0  0  0  0  0  0  0
    6.9608    3.6933   -2.4014 C   0  0  0  0  0  0  0  0  0  0  0  0
    7.9676    4.2778   -1.6502 C   0  0  0  0  0  0  0  0  0  0  0  0
    8.0971    3.9214   -0.3179 C   0  0  0  0  0  0  0  0  0  0  0  0
    7.2076    2.9970    0.2090 C   0  0  0  0  0  0  0  0  0  0  0  0
    6.2338    2.4659   -0.6187 C   0  0  0  0  0  0  0  0  0  0  0  0
    2.6676    3.3831   -1.4598 C   0  0  0  0  0  0  0  0  0  0  0  0
    1.8836    3.7148   -0.3724 C   0  0  0  0  0  0  0  0  0  0  0  0
    1.3674    2.7022    0.4244 C   0  0  0  0  0  0  0  0  0  0  0  0
    1.6681    1.3924    0.0767 C   0  0  0  0  0  0  0  0  0  0  0  0
    2.4574    1.1531   -1.0308 C   0  0  0  0  0  0  0  0  0  0  0  0
    0.0741    0.1752   -2.1023 H   0  0  0  0  0  0  0  0  0  0  0  0
   -1.1183   -0.2606   -3.3113 H   0  0  0  0  0  0  0  0  0  0  0  0
    0.4024   -1.1265   -3.2296 H   0  0  0  0  0  0  0  0  0  0  0  0
    0.1535    3.0016   -2.7926 H   0  0  0  0  0  0  0  0  0  0  0  0
    0.9969    3.5924   -4.2096 H   0  0  0  0  0  0  0  0  0  0  0  0
   -0.7089    3.1927   -4.3060 H   0  0  0  0  0  0  0  0  0  0  0  0
   -0.9968    0.8525   -6.1879 H   0  0  0  0  0  0  0  0  0  0  0  0
    0.5342    1.3862   -6.8553 H   0  0  0  0  0  0  0  0  0  0  0  0
    0.3065   -0.2960   -6.4132 H   0  0  0  0  0  0  0  0  0  0  0  0
    4.2077   -1.1763   -6.1161 H   0  0  0  0  0  0  0  0  0  0  0  0
    3.0379   -0.2152   -7.0483 H   0  0  0  0  0  0  0  0  0  0  0  0
    4.7192    0.3437   -6.8451 H   0  0  0  0  0  0  0  0  0  0  0  0
    6.8270    3.9384   -3.4460 H   0  0  0  0  0  0  0  0  0  0  0  0
    8.6362    4.9903   -2.1060 H   0  0  0  0  0  0  0  0  0  0  0  0
    8.8749    4.3503    0.2963 H   0  0  0  0  0  0  0  0  0  0  0  0
    7.2705    2.6859    1.2398 H   0  0  0  0  0  0  0  0  0  0  0  0
    5.5295    1.7296   -0.2536 H   0  0  0  0  0  0  0  0  0  0  0  0
    3.0735    4.1460   -2.1077 H   0  0  0  0  0  0  0  0  0  0  0  0
    1.6792    4.7516   -0.1568 H   0  0  0  0  0  0  0  0  0  0  0  0
    0.7500    2.9247    1.2807 H   0  0  0  0  0  0  0  0  0  0  0  0
    1.2910    0.5633    0.6545 H   0  0  0  0  0  0  0  0  0  0  0  0
    2.7052    0.1461   -1.3304 H   0  0  0  0  0  0  0  0  0  0  0  0
  5  9  1  0  0  0  0
  5  8  1  0  0  0  0
  6 18  1  0  0  0  0
  7 19  2  0  0  0  0
  7 23  1  0  0  0  0
  8 24  1  0  0  0  0
  9 27  1  0  0  0  0
 10  5  1  0  0  0  0
 11  5  1  0  0  0  0
 11  1  1  0  0  0  0
 12 11  2  0  0  0  0
 13 33  1  0  0  0  0
 13 12  1  0  0  0  0
 14  6  2  0  0  0  0
 14 15  1  0  0  0  0
 15 16  2  0  0  0  0
 16 17  1  0  0  0  0
 16 38  1  0  0  0  0
 17 39  1  0  0  0  0
 18 40  1  0  0  0  0
 18 17  2  0  0  0  0
 19 20  1  0  0  0  0
 20 42  1  0  0  0  0
 20 21  2  0  0  0  0
 21 43  1  0  0  0  0
 22 21  1  0  0  0  0
 22 44  1  0  0  0  0
 23 22  2  0  0  0  0
 25  8  1  0  0  0  0
 26  8  1  0  0  0  0
 28  9  1  0  0  0  0
 29  9  1  0  0  0  0
 30 10  1  0  0  0  0
 31 10  1  0  0  0  0
 32 10  1  0  0  0  0
 34 13  1  0  0  0  0
 35 13  1  0  0  0  0
 36 14  1  0  0  0  0
 37 15  1  0  0  0  0
 41 19  1  0  0  0  0
 45 23  1  0  0  0  0
M  END
$$$$
