CSD_code = LEXTUE | q = 0 | S = 0 | Stoichiometry = C7H9Br2NPtS | MND = 4
 OpenBabel04212202063D

 21 22  0  0  1  0  0  0  0  0999 V2000
    5.1499    3.8487    8.0091 Pt  0  0  0  0  0  0  0  0  0  0  0  0
    5.2687    2.7738   10.1349 Br  0  0  0  0  0  0  0  0  0  0  0  0
    4.5468    5.8940    9.0343 Br  0  0  0  0  0  0  0  0  0  0  0  0
    5.5530    2.1326    6.9216 N   0  0  0  0  0  0  0  0  0  0  0  0
    5.9408    2.2725    5.6420 C   0  0  1  0  0  3  0  0  0  0  0  0
    6.2624    3.6491    5.1541 C   0  0  0  0  0  0  0  0  0  0  0  0
    3.5823    4.4355    5.1765 C   0  0  0  0  0  0  0  0  0  0  0  0
    5.1750    4.9118    5.9084 S   0  0  1  0  0  3  0  0  0  0  0  0
    6.0503    1.1859    4.7874 C   0  0  0  0  0  0  0  0  0  0  0  0
    5.7730   -0.0872    5.2587 C   0  0  0  0  0  0  0  0  0  0  0  0
    5.3895   -0.2243    6.5835 C   0  0  0  0  0  0  0  0  0  0  0  0
    5.2900    0.9042    7.3745 C   0  0  0  0  0  0  0  0  0  0  0  0
    6.1942    3.7219    4.0680 H   0  0  0  0  0  0  0  0  0  0  0  0
    7.2711    3.9363    5.4660 H   0  0  0  0  0  0  0  0  0  0  0  0
    2.8204    5.0229    5.6812 H   0  0  0  0  0  0  0  0  0  0  0  0
    3.3874    3.3755    5.3154 H   0  0  0  0  0  0  0  0  0  0  0  0
    3.6000    4.6872    4.1191 H   0  0  0  0  0  0  0  0  0  0  0  0
    6.3586    1.3430    3.7654 H   0  0  0  0  0  0  0  0  0  0  0  0
    5.8543   -0.9430    4.6076 H   0  0  0  0  0  0  0  0  0  0  0  0
    5.1650   -1.1899    7.0051 H   0  0  0  0  0  0  0  0  0  0  0  0
    4.9984    0.8245    8.4126 H   0  0  0  0  0  0  0  0  0  0  0  0
  1  3  1  0  0  0  0
  1  2  1  0  0  0  0
  4 12  1  0  0  0  0
  4  1  1  0  0  0  0
  5  9  1  1  0  0  0
  5  4  1  0  0  0  0
  6 14  1  0  0  0  0
  6  5  1  0  0  0  0
  6  8  1  0  0  0  0
  7 16  1  0  0  0  0
  7 15  1  0  0  0  0
  8  7  1  6  0  0  0
  8  1  1  0  0  0  0
  9 10  2  0  0  0  0
 10 11  1  0  0  0  0
 11 20  1  0  0  0  0
 11 12  2  0  0  0  0
 12 21  1  0  0  0  0
 13  6  1  0  0  0  0
 17  7  1  0  0  0  0
 18  9  1  0  0  0  0
 19 10  1  0  0  0  0
M  END
$$$$
