CSD_code = LEXVEQ | q = 0 | S = 0 | Stoichiometry = C8H11Br2NPtS | MND = 4
 OpenBabel04212202063D

 24 25  0  0  1  0  0  0  0  0999 V2000
    1.7068    8.1435    8.4910 Pt  0  0  0  0  0  0  0  0  0  0  0  0
    2.0377    6.8791    6.4968 Br  0  0  0  0  0  0  0  0  0  0  0  0
    0.7834    9.9369    7.2525 Br  0  0  0  0  0  0  0  0  0  0  0  0
    2.5803    6.7328    9.7376 N   0  0  0  0  0  0  0  0  0  0  0  0
    2.3374    6.8151   11.0572 C   0  0  1  0  0  3  0  0  0  0  0  0
    1.3045    7.7936   11.5199 C   0  0  0  0  0  0  0  0  0  0  0  0
    1.2807    9.3053   10.4912 S   0  0  1  0  0  3  0  0  0  0  0  0
    2.9024   10.0031   10.9185 C   0  0  0  0  0  0  0  0  0  0  0  0
    3.0031    6.0217   11.9748 C   0  0  0  0  0  0  0  0  0  0  0  0
    3.9461    5.0895   11.5495 C   0  0  0  0  0  0  0  0  0  0  0  0
    4.6609    4.2204   12.5275 C   0  0  0  0  0  0  0  0  0  0  0  0
    4.1765    5.0157   10.1801 C   0  0  0  0  0  0  0  0  0  0  0  0
    3.4846    5.8442    9.3202 C   0  0  0  0  0  0  0  0  0  0  0  0
    1.4502    8.0748   12.5635 H   0  0  0  0  0  0  0  0  0  0  0  0
    0.3028    7.3690   11.4042 H   0  0  0  0  0  0  0  0  0  0  0  0
    3.0584   10.8505   10.2565 H   0  0  0  0  0  0  0  0  0  0  0  0
    3.6941    9.2719   10.7790 H   0  0  0  0  0  0  0  0  0  0  0  0
    2.8709   10.3435   11.9504 H   0  0  0  0  0  0  0  0  0  0  0  0
    2.7776    6.1242   13.0257 H   0  0  0  0  0  0  0  0  0  0  0  0
    5.1798    4.8281   13.2675 H   0  0  0  0  0  0  0  0  0  0  0  0
    5.3829    3.5828   12.0256 H   0  0  0  0  0  0  0  0  0  0  0  0
    3.9476    3.5917   13.0591 H   0  0  0  0  0  0  0  0  0  0  0  0
    4.8925    4.3179    9.7773 H   0  0  0  0  0  0  0  0  0  0  0  0
    3.6514    5.7895    8.2537 H   0  0  0  0  0  0  0  0  0  0  0  0
  1  4  1  0  0  0  0
  1  7  1  0  0  0  0
  2  1  1  0  0  0  0
  3  1  1  0  0  0  0
  4  5  1  0  0  0  0
  5  6  1  0  0  0  0
  5  9  1  6  0  0  0
  6 14  1  0  0  0  0
  7  8  1  1  0  0  0
  7  6  1  0  0  0  0
  8 18  1  0  0  0  0
  9 19  1  0  0  0  0
 10  9  2  0  0  0  0
 10 11  1  0  0  0  0
 11 22  1  0  0  0  0
 11 20  1  0  0  0  0
 12 10  1  0  0  0  0
 13  4  1  0  0  0  0
 13 12  2  0  0  0  0
 15  6  1  0  0  0  0
 16  8  1  0  0  0  0
 17  8  1  0  0  0  0
 21 11  1  0  0  0  0
 23 12  1  0  0  0  0
 24 13  1  0  0  0  0
M  END
$$$$
