CSD_code = LEXZEV | q = 0 | S = 0 | Stoichiometry = C17H13Cl2N5SZn | MND = 4
 OpenBabel04212202063D

 39 43  0  0  1  0  0  0  0  0999 V2000
   -0.1354    8.6035    1.7109 Cl  0  0  0  0  0  0  0  0  0  0  0  0
    1.1161    7.0277    2.5183 Zn  0  0  0  0  0  0  0  0  0  0  0  0
    2.8858    6.9610    3.8782 Cl  0  0  0  0  0  0  0  0  0  0  0  0
    2.0278    3.1315    2.0988 S   0  0  0  0  0  0  0  0  0  0  0  0
    1.8597    5.6987    1.0686 N   0  0  0  0  0  0  0  0  0  0  0  0
    3.0337    4.3278   -0.1089 N   0  0  0  0  0  0  0  0  0  0  0  0
    1.4478    3.9598    3.6266 C   0  0  0  0  0  0  0  0  0  0  0  0
    1.6368    3.2148    4.3991 H   0  0  0  0  0  0  0  0  0  0  0  0
    2.0731    4.8431    3.7912 H   0  0  0  0  0  0  0  0  0  0  0  0
   -0.3279    5.5401    3.1759 N   0  0  0  0  0  0  0  0  0  0  0  0
   -0.0015    4.3072    3.5616 C   0  0  1  0  0  3  0  0  0  0  0  0
    3.0492    5.5286   -0.6952 N   0  0  0  0  0  0  0  0  0  0  0  0
    3.0553    2.0317   -0.9562 C   0  0  0  0  0  0  0  0  0  0  0  0
    2.3620    6.3136    0.0027 N   0  0  0  0  0  0  0  0  0  0  0  0
    2.2855    4.4441    1.0171 C   0  0  1  0  0  3  0  0  0  0  0  0
    3.7492    3.2117   -0.5903 C   0  0  0  0  0  0  0  0  0  0  0  0
    3.8324    0.9217   -1.3842 C   0  0  0  0  0  0  0  0  0  0  0  0
    1.6496    1.9195   -0.9456 C   0  0  0  0  0  0  0  0  0  0  0  0
    1.0453    2.7701   -0.6669 H   0  0  0  0  0  0  0  0  0  0  0  0
   -0.9736    3.3665    3.8887 C   0  0  0  0  0  0  0  0  0  0  0  0
   -0.6779    2.3729    4.1885 H   0  0  0  0  0  0  0  0  0  0  0  0
    1.0432    0.7499   -1.3104 C   0  0  0  0  0  0  0  0  0  0  0  0
   -0.0338    0.6757   -1.3046 H   0  0  0  0  0  0  0  0  0  0  0  0
   -1.6084    5.8856    3.1099 C   0  0  0  0  0  0  0  0  0  0  0  0
   -1.7999    6.8972    2.7797 H   0  0  0  0  0  0  0  0  0  0  0  0
    5.2360    1.0417   -1.4560 C   0  0  0  0  0  0  0  0  0  0  0  0
    5.8097    0.1867   -1.7816 H   0  0  0  0  0  0  0  0  0  0  0  0
    5.1125    3.3128   -0.6949 C   0  0  0  0  0  0  0  0  0  0  0  0
    5.6022    4.2366   -0.4278 H   0  0  0  0  0  0  0  0  0  0  0  0
   -2.6340    5.0123    3.4290 C   0  0  0  0  0  0  0  0  0  0  0  0
   -3.6597    5.3368    3.3646 H   0  0  0  0  0  0  0  0  0  0  0  0
    3.1718   -0.2718   -1.7441 C   0  0  0  0  0  0  0  0  0  0  0  0
    3.7676   -1.1146   -2.0621 H   0  0  0  0  0  0  0  0  0  0  0  0
    5.8612    2.2140   -1.1344 C   0  0  0  0  0  0  0  0  0  0  0  0
    6.9338    2.3041   -1.2053 H   0  0  0  0  0  0  0  0  0  0  0  0
   -2.3091    3.7242    3.8244 C   0  0  0  0  0  0  0  0  0  0  0  0
   -3.0792    3.0114    4.0785 H   0  0  0  0  0  0  0  0  0  0  0  0
    1.8089   -0.3582   -1.7023 C   0  0  0  0  0  0  0  0  0  0  0  0
    1.3106   -1.2741   -1.9819 H   0  0  0  0  0  0  0  0  0  0  0  0
  1  2  1  0  0  0  0
  2 10  1  0  0  0  0
  2  3  1  0  0  0  0
  4  7  1  0  0  0  0
  5  2  1  0  0  0  0
  6 15  1  0  0  0  0
  7  9  1  0  0  0  0
  7  8  1  0  0  0  0
 10 11  1  0  0  0  0
 11  7  1  0  0  0  0
 11 20  1  6  0  0  0
 12  6  1  0  0  0  0
 12 14  2  0  0  0  0
 13 18  1  0  0  0  0
 13 16  2  0  0  0  0
 14  5  1  0  0  0  0
 15  5  1  0  0  0  0
 15  4  1  1  0  0  0
 16  6  1  0  0  0  0
 17 13  1  0  0  0  0
 18 19  1  0  0  0  0
 20 21  1  0  0  0  0
 22 23  1  0  0  0  0
 22 18  2  0  0  0  0
 24 10  1  0  0  0  0
 24 30  2  0  0  0  0
 25 24  1  0  0  0  0
 26 17  2  0  0  0  0
 26 34  1  0  0  0  0
 27 26  1  0  0  0  0
 28 16  1  0  0  0  0
 28 29  1  0  0  0  0
 30 36  1  0  0  0  0
 31 30  1  0  0  0  0
 32 38  2  0  0  0  0
 32 17  1  0  0  0  0
 33 32  1  0  0  0  0
 34 28  2  0  0  0  0
 35 34  1  0  0  0  0
 36 20  2  0  0  0  0
 36 37  1  0  0  0  0
 38 22  1  0  0  0  0
 39 38  1  0  0  0  0
M  END
$$$$
