CSD_code = LEYLAC | q = -1 | S = 0 | Stoichiometry = C4H12Cl4O2RhS2(1-) | MND = 6
 OpenBabel04212202063D

 25 24  0  0  0  0  0  0  0  0999 V2000
    8.7800    2.0226    2.9024 Rh  0  0  0  0  0  0  0  0  0  0  0  0
    7.1228    1.3080    4.3070 Cl  0  0  0  0  0  0  0  0  0  0  0  0
    8.0487    0.6048    1.2075 Cl  0  0  0  0  0  0  0  0  0  0  0  0
    7.5523    3.7630    2.0696 Cl  0  0  0  0  0  0  0  0  0  0  0  0
    9.6819    3.3739    4.5635 Cl  0  0  0  0  0  0  0  0  0  0  0  0
   10.5529    2.7310    1.6796 S   0  0  0  0  0  0  0  0  0  0  0  0
   10.0182    0.2343    3.5310 S   0  0  0  0  0  0  0  0  0  0  0  0
   11.8404    2.5224    2.3182 O   0  0  0  0  0  1  0  0  0  0  0  0
   10.9148   -0.2646    2.5021 O   0  0  0  0  0  1  0  0  0  0  0  0
   10.5218    4.4906    1.2031 C   0  0  0  0  0  0  0  0  0  0  0  0
   10.6877    2.0077    0.0164 C   0  0  0  0  0  0  0  0  0  0  0  0
    9.0627   -1.2141    4.0890 C   0  0  0  0  0  0  0  0  0  0  0  0
   11.0313    0.4762    5.0217 C   0  0  0  0  0  0  0  0  0  0  0  0
    9.6394    4.6629    0.5993 H   0  0  0  0  0  0  0  0  0  0  0  0
   10.4562    5.0605    2.1241 H   0  0  0  0  0  0  0  0  0  0  0  0
   11.4425    4.7130    0.6763 H   0  0  0  0  0  0  0  0  0  0  0  0
    9.7579    2.1954   -0.5070 H   0  0  0  0  0  0  0  0  0  0  0  0
   11.5422    2.4454   -0.4861 H   0  0  0  0  0  0  0  0  0  0  0  0
   10.8274    0.9417    0.1645 H   0  0  0  0  0  0  0  0  0  0  0  0
    8.4738   -0.9206    4.9492 H   0  0  0  0  0  0  0  0  0  0  0  0
    8.4080   -1.4872    3.2677 H   0  0  0  0  0  0  0  0  0  0  0  0
    9.7607   -2.0136    4.3086 H   0  0  0  0  0  0  0  0  0  0  0  0
   10.3729    0.7934    5.8216 H   0  0  0  0  0  0  0  0  0  0  0  0
   11.5458   -0.4496    5.2510 H   0  0  0  0  0  0  0  0  0  0  0  0
   11.7370    1.2649    4.7819 H   0  0  0  0  0  0  0  0  0  0  0  0
  1  7  1  0  0  0  0
  1  2  1  0  0  0  0
  1  5  1  0  0  0  0
  3  1  1  0  0  0  0
  4  1  1  0  0  0  0
  6  8  1  0  0  0  0
  6  1  1  0  0  0  0
  7 12  1  0  0  0  0
  7 13  1  0  0  0  0
  9  7  1  0  0  0  0
 10  6  1  0  0  0  0
 10 15  1  0  0  0  0
 11 19  1  0  0  0  0
 11  6  1  0  0  0  0
 12 22  1  0  0  0  0
 12 20  1  0  0  0  0
 13 24  1  0  0  0  0
 13 23  1  0  0  0  0
 14 10  1  0  0  0  0
 16 10  1  0  0  0  0
 17 11  1  0  0  0  0
 18 11  1  0  0  0  0
 21 12  1  0  0  0  0
 25 13  1  0  0  0  0
M  END
$$$$
