CSD_code = LEYWOE | q = 0 | S = 0 | Stoichiometry = C29H17ClN3O3Re | MND = 6
 OpenBabel04212202063D

 54 60  0  0  0  0  0  0  0  0999 V2000
    3.1074    5.7134   -1.8811 C   0  0  0  0  0  2  0  0  0  0  0  0
    2.7144    8.0933   -0.5352 C   0  0  0  0  0  2  0  0  0  0  0  0
    1.4493    5.6555    0.4087 C   0  0  0  0  0  2  0  0  0  0  0  0
    3.8619    7.8608    2.8193 C   0  0  0  0  0  0  0  0  0  0  0  0
    2.9120    8.9195    2.9440 C   0  0  0  0  0  0  0  0  0  0  0  0
    1.6658    8.8754    2.3096 C   0  0  0  0  0  0  0  0  0  0  0  0
    1.4120    8.0120    1.7113 H   0  0  0  0  0  0  0  0  0  0  0  0
    0.7722    9.9078    2.4572 C   0  0  0  0  0  0  0  0  0  0  0  0
   -0.1855    9.8713    1.9615 H   0  0  0  0  0  0  0  0  0  0  0  0
    1.1079   10.9962    3.2570 C   0  0  0  0  0  0  0  0  0  0  0  0
    0.4089   11.8106    3.3770 H   0  0  0  0  0  0  0  0  0  0  0  0
    2.3189   11.0386    3.9080 C   0  0  0  0  0  0  0  0  0  0  0  0
    2.5279   11.8900    4.5352 H   0  0  0  0  0  0  0  0  0  0  0  0
    3.2607   10.0071    3.7786 C   0  0  0  0  0  0  0  0  0  0  0  0
    4.5389   10.0283    4.4705 C   0  0  0  0  0  0  0  0  0  0  0  0
    4.9403   11.1314    5.2369 C   0  0  0  0  0  0  0  0  0  0  0  0
    4.3004   11.9953    5.3101 H   0  0  0  0  0  0  0  0  0  0  0  0
    6.1447   11.1603    5.8993 C   0  0  0  0  0  0  0  0  0  0  0  0
    6.4199   12.0292    6.4783 H   0  0  0  0  0  0  0  0  0  0  0  0
    7.0133   10.0777    5.8162 C   0  0  0  0  0  0  0  0  0  0  0  0
    7.9644   10.1017    6.3265 H   0  0  0  0  0  0  0  0  0  0  0  0
    6.6606    8.9791    5.0712 C   0  0  0  0  0  0  0  0  0  0  0  0
    7.3490    8.1538    4.9944 H   0  0  0  0  0  0  0  0  0  0  0  0
    5.4339    8.9271    4.3950 C   0  0  0  0  0  0  0  0  0  0  0  0
    5.0328    7.8309    3.5772 C   0  0  0  0  0  0  0  0  0  0  0  0
    4.8757    6.0192    2.3427 C   0  0  0  0  0  0  0  0  0  0  0  0
    5.0517    4.7193    1.7284 C   0  0  0  0  0  0  0  0  0  0  0  0
    5.9246    3.7316    2.1852 C   0  0  0  0  0  0  0  0  0  0  0  0
    6.5471    3.9086    3.0460 H   0  0  0  0  0  0  0  0  0  0  0  0
    5.9804    2.5220    1.5210 C   0  0  0  0  0  0  0  0  0  0  0  0
    6.6602    1.7519    1.8521 H   0  0  0  0  0  0  0  0  0  0  0  0
    5.1473    2.3170    0.4308 C   0  0  0  0  0  0  0  0  0  0  0  0
    5.1602    1.3896   -0.1180 H   0  0  0  0  0  0  0  0  0  0  0  0
    4.2885    3.3336    0.0542 C   0  0  0  0  0  0  0  0  0  0  0  0
    3.6143    3.2048   -0.7829 H   0  0  0  0  0  0  0  0  0  0  0  0
    6.9358    6.1968    3.6745 C   0  0  0  0  0  0  0  0  0  0  0  0
    7.9791    6.2779    2.7608 C   0  0  0  0  0  0  0  0  0  0  0  0
    7.7914    6.6798    1.7760 H   0  0  0  0  0  0  0  0  0  0  0  0
    9.2370    5.8354    3.1304 C   0  0  0  0  0  0  0  0  0  0  0  0
   10.0525    5.8982    2.4266 H   0  0  0  0  0  0  0  0  0  0  0  0
    9.4482    5.3154    4.3971 C   0  0  0  0  0  0  0  0  0  0  0  0
   10.4311    4.9717    4.6814 H   0  0  0  0  0  0  0  0  0  0  0  0
    8.4017    5.2335    5.3023 C   0  0  0  0  0  0  0  0  0  0  0  0
    8.5670    4.8264    6.2883 H   0  0  0  0  0  0  0  0  0  0  0  0
    7.1386    5.6718    4.9459 C   0  0  0  0  0  0  0  0  0  0  0  0
    6.3138    5.6170    5.6415 H   0  0  0  0  0  0  0  0  0  0  0  0
    3.8041    6.7469    2.0440 N   0  0  0  0  0  0  0  0  0  0  0  0
    4.2350    4.5063    0.6745 N   0  0  0  0  0  0  0  0  0  0  0  0
    5.6484    6.6363    3.2789 N   0  0  0  0  0  0  0  0  0  0  0  0
    3.1258    5.3587   -2.9700 O   0  0  0  0  0  1  0  0  0  0  0  0
    2.5575    9.1871   -0.8301 O   0  0  0  0  0  1  0  0  0  0  0  0
    0.4018    5.2661    0.6823 O   0  0  0  0  0  1  0  0  0  0  0  0
    5.5013    6.9650   -0.3760 Cl  0  0  0  0  0  0  0  0  0  0  0  0
    3.2323    6.2816   -0.0264 Re  0  0  0  0  0  0  0  0  0  0  0  0
  1 54  1  0  0  0  0
  2 54  1  0  0  0  0
  3 52  1  0  0  0  0
  4  5  2  0  0  0  0
  4 25  1  0  0  0  0
  5 14  1  0  0  0  0
  6  8  2  0  0  0  0
  6  5  1  0  0  0  0
  7  6  1  0  0  0  0
  8 10  1  0  0  0  0
  9  8  1  0  0  0  0
 10 11  1  0  0  0  0
 10 12  2  0  0  0  0
 12 13  1  0  0  0  0
 14 12  1  0  0  0  0
 14 15  2  0  0  0  0
 15 16  1  0  0  0  0
 16 17  1  0  0  0  0
 16 18  2  0  0  0  0
 18 19  1  0  0  0  0
 20 18  1  0  0  0  0
 20 21  1  0  0  0  0
 22 20  2  0  0  0  0
 23 22  1  0  0  0  0
 24 15  1  0  0  0  0
 24 22  1  0  0  0  0
 25 24  2  0  0  0  0
 26 49  1  0  0  0  0
 27 28  1  0  0  0  0
 27 26  2  0  0  0  0
 28 29  1  0  0  0  0
 30 31  1  0  0  0  0
 30 28  2  0  0  0  0
 32 30  1  0  0  0  0
 33 32  1  0  0  0  0
 34 32  2  0  0  0  0
 34 48  1  0  0  0  0
 35 34  1  0  0  0  0
 36 45  1  0  0  0  0
 37 39  1  0  0  0  0
 37 36  2  0  0  0  0
 38 37  1  0  0  0  0
 39 41  2  0  0  0  0
 40 39  1  0  0  0  0
 41 42  1  0  0  0  0
 41 43  1  0  0  0  0
 43 44  1  0  0  0  0
 45 43  2  0  0  0  0
 45 46  1  0  0  0  0
 47 26  1  0  0  0  0
 47  4  1  0  0  0  0
 48 27  1  0  0  0  0
 49 25  1  0  0  0  0
 49 36  1  0  0  0  0
 50  1  1  0  0  0  0
 51  2  1  0  0  0  0
 53 54  1  0  0  0  0
 54  3  1  0  0  0  0
 54 48  1  0  0  0  0
 54 47  1  0  0  0  0
M  END
$$$$
