CSD_code = LEYXAR | q = 0 | S = 0 | Stoichiometry = C29H16BrClN3O3Re | MND = 6
 OpenBabel04212202063D

 54 60  0  0  1  0  0  0  0  0999 V2000
   -1.9857   13.1802    6.3699 C   0  0  0  0  0  2  0  0  0  0  0  0
    0.3211   14.0238    7.6441 C   0  0  0  0  0  2  0  0  0  0  0  0
   -1.9776   13.1821    9.1976 C   0  0  0  0  0  2  0  0  0  0  0  0
   -0.3001   16.8709    9.6502 C   0  0  0  0  0  0  0  0  0  0  0  0
    0.8632   16.3547   10.2967 C   0  0  0  0  0  0  0  0  0  0  0  0
    1.0238   14.9881   10.5502 C   0  0  0  0  0  0  0  0  0  0  0  0
    0.2430   14.3037   10.2503 H   0  0  0  0  0  0  0  0  0  0  0  0
    2.1517   14.5259   11.1827 C   0  0  0  0  0  0  0  0  0  0  0  0
    2.2740   13.4708   11.3716 H   0  0  0  0  0  0  0  0  0  0  0  0
    3.1311   15.4294   11.5851 C   0  0  0  0  0  0  0  0  0  0  0  0
    4.0194   15.0713   12.0840 H   0  0  0  0  0  0  0  0  0  0  0  0
    2.9734   16.7778   11.3633 C   0  0  0  0  0  0  0  0  0  0  0  0
    3.7475   17.4428   11.7101 H   0  0  0  0  0  0  0  0  0  0  0  0
    1.8394   17.2889   10.7148 C   0  0  0  0  0  0  0  0  0  0  0  0
    1.6508   18.7105   10.4782 C   0  0  0  0  0  0  0  0  0  0  0  0
    2.6404   19.6467   10.8095 C   0  0  0  0  0  0  0  0  0  0  0  0
    3.5700   19.3144   11.2410 H   0  0  0  0  0  0  0  0  0  0  0  0
    2.4742   20.9936   10.5895 C   0  0  0  0  0  0  0  0  0  0  0  0
    3.2604   21.6838   10.8562 H   0  0  0  0  0  0  0  0  0  0  0  0
    1.3007   21.4673   10.0132 C   0  0  0  0  0  0  0  0  0  0  0  0
    1.1723   22.5229    9.8274 H   0  0  0  0  0  0  0  0  0  0  0  0
    0.3077   20.5829    9.6704 C   0  0  0  0  0  0  0  0  0  0  0  0
   -0.5888   20.9563    9.2035 H   0  0  0  0  0  0  0  0  0  0  0  0
    0.4530   19.2069    9.8958 C   0  0  0  0  0  0  0  0  0  0  0  0
   -0.5287   18.2414    9.5297 C   0  0  0  0  0  0  0  0  0  0  0  0
   -2.2234   17.1047    8.7066 C   0  0  2  0  0  3  0  0  0  0  0  0
   -3.4957   16.6817    8.1582 C   0  0  2  0  0  3  0  0  0  0  0  0
   -4.6259   17.4914    8.0468 C   0  0  0  0  0  0  0  0  0  0  0  0
   -4.5943   18.5198    8.3657 H   0  0  0  0  0  0  0  0  0  0  0  0
   -5.7890   16.9567    7.5279 C   0  0  0  0  0  0  0  0  0  0  0  0
   -6.6694   17.5715    7.4211 H   0  0  0  0  0  0  0  0  0  0  0  0
   -5.8033   15.6204    7.1549 C   0  0  0  0  0  0  0  0  0  0  0  0
   -6.6882   15.1636    6.7430 H   0  0  0  0  0  0  0  0  0  0  0  0
   -4.6516   14.8732    7.3233 C   0  0  0  0  0  0  0  0  0  0  0  0
   -4.6297   13.8240    7.0577 H   0  0  0  0  0  0  0  0  0  0  0  0
   -2.3883   19.5343    8.4386 C   0  0  0  0  0  0  0  0  0  0  0  0
   -2.9901   20.4535    9.2926 C   0  0  0  0  0  0  0  0  0  0  0  0
   -2.9698   20.2917   10.3602 H   0  0  0  0  0  0  0  0  0  0  0  0
   -3.6059   21.5728    8.7649 C   0  0  0  0  0  0  0  0  0  0  0  0
   -4.0759   22.2949    9.4141 H   0  0  0  0  0  0  0  0  0  0  0  0
   -3.6162   21.7576    7.3901 C   0  0  0  0  0  0  0  0  0  0  0  0
   -3.0216   20.8439    6.5337 C   0  0  0  0  0  0  0  0  0  0  0  0
   -3.0395   21.0047    5.4673 H   0  0  0  0  0  0  0  0  0  0  0  0
   -2.4051   19.7247    7.0611 C   0  0  0  0  0  0  0  0  0  0  0  0
   -1.9411   18.9915    6.4172 H   0  0  0  0  0  0  0  0  0  0  0  0
   -1.3453   16.1927    9.1076 N   0  0  0  0  0  0  0  0  0  0  0  0
   -3.5231   15.3786    7.8068 N   0  0  0  0  0  0  0  0  0  0  0  0
   -1.7742   18.3685    8.9513 N   0  0  0  0  0  0  0  0  0  0  0  0
   -2.2608   12.5072    5.4856 O   0  0  0  0  0  1  0  0  0  0  0  0
   -2.2319   12.4455   10.0432 O   0  0  0  0  0  1  0  0  0  0  0  0
    1.4460   13.8982    7.4828 O   0  0  0  0  0  1  0  0  0  0  0  0
   -1.1987   16.1632    6.1488 Cl  0  0  0  0  0  0  0  0  0  0  0  0
   -4.4733   23.2966    6.6691 Br  0  0  0  0  0  0  0  0  0  0  0  0
   -1.5788   14.4497    7.7849 Re  0  0  0  0  0  0  0  0  0  0  0  0
  1 54  1  0  0  0  0
  2 54  1  0  0  0  0
  3 50  1  0  0  0  0
  4  5  1  0  0  0  0
  5  6  2  0  0  0  0
  5 14  1  0  0  0  0
  6  8  1  0  0  0  0
  7  6  1  0  0  0  0
  8  9  1  0  0  0  0
  8 10  2  0  0  0  0
 10 11  1  0  0  0  0
 12 10  1  0  0  0  0
 12 13  1  0  0  0  0
 14 12  2  0  0  0  0
 15 14  1  0  0  0  0
 15 16  1  0  0  0  0
 16 17  1  0  0  0  0
 18 16  2  0  0  0  0
 18 19  1  0  0  0  0
 20 18  1  0  0  0  0
 21 20  1  0  0  0  0
 22 24  1  0  0  0  0
 22 20  2  0  0  0  0
 23 22  1  0  0  0  0
 24 15  2  0  0  0  0
 25  4  2  0  0  0  0
 25 24  1  0  0  0  0
 26 48  1  1  0  0  0
 26 46  1  0  0  0  0
 27 28  1  1  0  0  0
 27 26  1  0  0  0  0
 28 29  1  0  0  0  0
 30 28  2  0  0  0  0
 31 30  1  0  0  0  0
 32 34  2  0  0  0  0
 32 30  1  0  0  0  0
 33 32  1  0  0  0  0
 34 47  1  0  0  0  0
 35 34  1  0  0  0  0
 36 48  1  0  0  0  0
 36 37  1  0  0  0  0
 37 38  1  0  0  0  0
 39 37  2  0  0  0  0
 39 40  1  0  0  0  0
 41 39  1  0  0  0  0
 42 44  1  0  0  0  0
 42 41  2  0  0  0  0
 43 42  1  0  0  0  0
 44 36  2  0  0  0  0
 45 44  1  0  0  0  0
 46  4  1  0  0  0  0
 47 27  1  0  0  0  0
 48 25  1  0  0  0  0
 49  1  1  0  0  0  0
 51  2  1  0  0  0  0
 52 54  1  0  0  0  0
 53 41  1  0  0  0  0
 54 47  1  0  0  0  0
 54 46  1  0  0  0  0
 54  3  1  0  0  0  0
M  END
$$$$
