CSD_code = LEYZAT | q = 1 | S = 0 | Stoichiometry = C24H26ClN2O4Ru(1+) | MND = 9
 OpenBabel04212202063D

 58 60  0  0  1  0  0  0  0  0999 V2000
    2.7416    9.8637    2.8478 Ru  0  0  0  0  0  0  0  0  0  0  0  0
    4.9534   10.5028    2.4666 Cl  0  0  0  0  0 15  0  0  0  0  0  0
    2.8244   12.7963    7.3756 O   0  0  0  0  0  0  0  0  0  0  0  0
    5.9455    9.5413    8.9678 O   0  0  0  0  0  0  0  0  0  0  0  0
    3.4970    8.0390    2.8921 N   0  0  0  0  0  0  0  0  0  0  0  0
    3.3057    9.7311    4.7350 N   0  0  0  0  0  0  0  0  0  0  0  0
    3.8682    8.9447    9.6114 O   0  0  0  0  0  0  0  0  0  0  0  0
    4.1514   11.8282    8.9065 O   0  0  0  0  0  0  0  0  0  0  0  0
    1.1006   11.5376    3.0555 C   0  0  0  0  0  0  0  0  0  0  0  0
    0.8821   12.2696    3.8239 H   0  0  0  0  0  0  0  0  0  0  0  0
    2.0367   10.9403    0.9034 C   0  0  0  0  0  0  0  0  0  0  0  0
    2.5833   11.2265    0.0100 H   0  0  0  0  0  0  0  0  0  0  0  0
    1.3824    9.7090    0.9497 C   0  0  0  0  0  0  0  0  0  0  0  0
    1.3930    9.0593    0.0806 H   0  0  0  0  0  0  0  0  0  0  0  0
    4.3929    8.4287    6.4314 C   0  0  0  0  0  0  0  0  0  0  0  0
    4.8632    7.5067    6.7308 H   0  0  0  0  0  0  0  0  0  0  0  0
    3.9151    8.5869    5.1316 C   0  0  0  0  0  0  0  0  0  0  0  0
    3.5856   11.8137    7.8467 C   0  0  0  0  0  0  0  0  0  0  0  0
    0.5056   10.2542    3.1470 C   0  0  1  0  0  0  0  0  0  0  0  0
   -0.1499   10.0298    3.9821 H   0  0  0  0  0  0  0  0  0  0  0  0
    4.0285    7.6082    4.0606 C   0  0  0  0  0  0  0  0  0  0  0  0
   -0.1433    8.0405    2.1012 C   0  0  0  0  0  0  0  0  0  0  0  0
    0.3948    7.2501    1.5814 H   0  0  0  0  0  0  0  0  0  0  0  0
   -1.0951    8.1879    1.5882 H   0  0  0  0  0  0  0  0  0  0  0  0
   -0.3561    7.7150    3.1170 H   0  0  0  0  0  0  0  0  0  0  0  0
    1.8961   11.8931    1.9599 C   0  0  0  0  0  0  0  0  0  0  0  0
    3.2138   10.7405    5.5940 C   0  0  0  0  0  0  0  0  0  0  0  0
    2.7772   11.6634    5.2366 H   0  0  0  0  0  0  0  0  0  0  0  0
    0.6240    9.3263    2.0921 C   0  0  1  0  0  3  0  0  0  0  0  0
    2.4847   13.2752    1.8166 C   0  0  0  0  0  0  0  0  0  0  0  0
    3.2062   13.2533    0.9937 H   0  0  0  0  0  0  0  0  0  0  0  0
    4.2164    6.0257    1.8420 C   0  0  0  0  0  0  0  0  0  0  0  0
    4.2867    5.4412    0.9394 H   0  0  0  0  0  0  0  0  0  0  0  0
    3.6723   10.6593    6.8990 C   0  0  0  0  0  0  0  0  0  0  0  0
    3.6136    7.2685    1.8126 C   0  0  0  0  0  0  0  0  0  0  0  0
    3.2308    7.6729    0.8844 H   0  0  0  0  0  0  0  0  0  0  0  0
    4.2668    9.4683    7.3355 C   0  0  0  0  0  0  0  0  0  0  0  0
    4.6615    9.3065    8.7882 C   0  0  0  0  0  0  0  0  0  0  0  0
    2.6990   13.9422    8.2189 C   0  0  0  0  0  0  0  0  0  0  0  0
    1.9500   14.5794    7.7566 H   0  0  0  0  0  0  0  0  0  0  0  0
    3.6557   14.4623    8.2883 H   0  0  0  0  0  0  0  0  0  0  0  0
    2.3868   13.6410    9.2200 H   0  0  0  0  0  0  0  0  0  0  0  0
    1.3635   14.2574    1.4562 C   0  0  0  0  0  0  0  0  0  0  0  0
    0.8549   13.9479    0.5460 H   0  0  0  0  0  0  0  0  0  0  0  0
    1.7830   15.2463    1.2954 H   0  0  0  0  0  0  0  0  0  0  0  0
    0.6307   14.3206    2.2575 H   0  0  0  0  0  0  0  0  0  0  0  0
    4.7369    5.5574    3.0428 C   0  0  0  0  0  0  0  0  0  0  0  0
    5.2158    4.5931    3.0970 H   0  0  0  0  0  0  0  0  0  0  0  0
    3.2272   13.7212    3.0774 C   0  0  0  0  0  0  0  0  0  0  0  0
    2.5469   13.8714    3.9129 H   0  0  0  0  0  0  0  0  0  0  0  0
    3.7318   14.6638    2.8853 H   0  0  0  0  0  0  0  0  0  0  0  0
    3.9801   12.9821    3.3482 H   0  0  0  0  0  0  0  0  0  0  0  0
    4.6480    6.3635    4.1617 C   0  0  0  0  0  0  0  0  0  0  0  0
    5.0639    6.0433    5.1022 H   0  0  0  0  0  0  0  0  0  0  0  0
    6.4120    9.5034   10.3170 C   0  0  0  0  0  0  0  0  0  0  0  0
    7.4968    9.5259   10.2629 H   0  0  0  0  0  0  0  0  0  0  0  0
    6.0633    8.5969   10.8139 H   0  0  0  0  0  0  0  0  0  0  0  0
    6.0351   10.3756   10.8526 H   0  0  0  0  0  0  0  0  0  0  0  0
  1  5  1  0  0  0  0
  1 19  1  0  0  0  0
  1  6  1  0  0  0  0
  3 18  1  0  0  0  0
  3 39  1  0  0  0  0
  4 55  1  0  0  0  0
  5 21  1  0  0  0  0
  6 17  1  0  0  0  0
  6 27  1  0  0  0  0
  9 19  1  0  0  0  0
  9 10  1  0  0  0  0
 11 13  2  0  0  0  0
 11 26  1  0  0  0  0
 12 11  1  0  0  0  0
 13 29  1  0  0  0  0
 14 13  1  0  0  0  0
 15 16  1  0  0  0  0
 15 37  2  0  0  0  0
 17 15  1  0  0  0  0
 18  8  2  0  0  0  0
 19 20  1  1  0  0  0
 21 53  1  0  0  0  0
 21 17  2  0  0  0  0
 22 25  1  0  0  0  0
 23 22  1  0  0  0  0
 24 22  1  0  0  0  0
 26  9  2  0  0  0  0
 27 34  2  0  0  0  0
 28 27  1  0  0  0  0
 29 22  1  6  0  0  0
 29 19  1  0  0  0  0
 30 26  1  0  0  0  0
 30 49  1  0  0  0  0
 31 30  1  0  0  0  0
 32 47  1  0  0  0  0
 33 32  1  0  0  0  0
 34 37  1  0  0  0  0
 34 18  1  0  0  0  0
 35 32  2  0  0  0  0
 35  5  1  0  0  0  0
 36 35  1  0  0  0  0
 37 38  1  0  0  0  0
 38  4  1  0  0  0  0
 38  7  2  0  0  0  0
 39 41  1  0  0  0  0
 39 42  1  0  0  0  0
 40 39  1  0  0  0  0
 43 30  1  0  0  0  0
 43 46  1  0  0  0  0
 44 43  1  0  0  0  0
 45 43  1  0  0  0  0
 47 48  1  0  0  0  0
 47 53  2  0  0  0  0
 49 52  1  0  0  0  0
 49 50  1  0  0  0  0
 51 49  1  0  0  0  0
 53 54  1  0  0  0  0
 55 57  1  0  0  0  0
 55 58  1  0  0  0  0
 56 55  1  0  0  0  0
M  END
$$$$
