CSD_code = LEZNIP | q = 1 | S = 0 | Stoichiometry = C27H24BrN4Zn(1+) | MND = 5
 OpenBabel04212202063D

 57 63  0  0  0  0  0  0  0  0999 V2000
    8.7076    2.1102    8.2564 Br  0  0  0  0  0  0  0  0  0  0  0  0
   10.5477    2.4359    6.9222 Zn  0  0  0  0  0  0  0  0  0  0  0  0
    8.6673    2.6068    0.6244 C   0  0  0  0  0  0  0  0  0  0  0  0
    9.1396    2.9240   -0.2925 H   0  0  0  0  0  0  0  0  0  0  0  0
    9.8400    1.7729    5.0627 N   0  0  0  0  0  0  0  0  0  0  0  0
   13.2108    1.3748    7.3838 C   0  0  0  0  0  0  0  0  0  0  0  0
   14.7350   -0.2255    8.5194 C   0  0  0  0  0  0  0  0  0  0  0  0
   14.0747   -0.2096    9.3742 H   0  0  0  0  0  0  0  0  0  0  0  0
   13.1143    2.4681    8.3678 C   0  0  0  0  0  0  0  0  0  0  0  0
   15.8652   -1.0224    8.5249 C   0  0  0  0  0  0  0  0  0  0  0  0
   16.0921   -1.6201    9.3939 H   0  0  0  0  0  0  0  0  0  0  0  0
   11.9480    3.1206    8.4082 N   0  0  0  0  0  0  0  0  0  0  0  0
   12.2108    1.1940    6.6099 N   0  0  0  0  0  0  0  0  0  0  0  0
   13.9572    3.7700   10.1904 C   0  0  0  0  0  0  0  0  0  0  0  0
   14.7483    4.0303   10.8764 H   0  0  0  0  0  0  0  0  0  0  0  0
   14.1566    2.7849    9.2348 C   0  0  0  0  0  0  0  0  0  0  0  0
   15.0999    2.2674    9.1643 H   0  0  0  0  0  0  0  0  0  0  0  0
   12.7246    4.3986   10.2576 C   0  0  0  0  0  0  0  0  0  0  0  0
   12.5178    5.1489   11.0031 H   0  0  0  0  0  0  0  0  0  0  0  0
   11.7498    4.0421    9.3358 C   0  0  0  0  0  0  0  0  0  0  0  0
   10.7680    4.4965    9.3582 H   0  0  0  0  0  0  0  0  0  0  0  0
   16.7043   -1.0496    7.4222 C   0  0  0  0  0  0  0  0  0  0  0  0
   17.5895   -1.6657    7.4335 H   0  0  0  0  0  0  0  0  0  0  0  0
   14.4267    0.5381    7.3943 C   0  0  0  0  0  0  0  0  0  0  0  0
   12.1514    0.0997    5.6765 C   0  0  0  0  0  0  0  0  0  0  0  0
   12.8422   -0.7000    5.9692 H   0  0  0  0  0  0  0  0  0  0  0  0
   12.4594    0.4723    4.6931 H   0  0  0  0  0  0  0  0  0  0  0  0
   10.7217   -0.4404    5.5880 C   0  0  0  0  0  0  0  0  0  0  0  0
   10.7519   -1.4602    5.2040 H   0  0  0  0  0  0  0  0  0  0  0  0
   10.2928   -0.4743    6.5924 H   0  0  0  0  0  0  0  0  0  0  0  0
    9.3540    2.6871    4.3168 C   0  0  0  0  0  0  0  0  0  0  0  0
    9.4750    4.0767    4.7855 C   0  0  0  0  0  0  0  0  0  0  0  0
   10.2263    4.2828    5.8755 N   0  0  0  0  0  0  0  0  0  0  0  0
   16.4057   -0.2864    6.3053 C   0  0  0  0  0  0  0  0  0  0  0  0
   17.0584   -0.3036    5.4464 H   0  0  0  0  0  0  0  0  0  0  0  0
   15.2659    0.4969    6.2833 C   0  0  0  0  0  0  0  0  0  0  0  0
   15.0361    1.0985    5.4160 H   0  0  0  0  0  0  0  0  0  0  0  0
    9.8204    0.3878    4.6753 C   0  0  0  0  0  0  0  0  0  0  0  0
   10.1312    0.2885    3.6271 H   0  0  0  0  0  0  0  0  0  0  0  0
    8.7982    0.0011    4.7505 H   0  0  0  0  0  0  0  0  0  0  0  0
   10.3783    5.5205    6.3207 C   0  0  0  0  0  0  0  0  0  0  0  0
   11.0093    5.6415    7.1902 H   0  0  0  0  0  0  0  0  0  0  0  0
    9.7794    6.6189    5.7225 C   0  0  0  0  0  0  0  0  0  0  0  0
    9.9339    7.6066    6.1252 H   0  0  0  0  0  0  0  0  0  0  0  0
    8.8265    5.1215    4.1318 C   0  0  0  0  0  0  0  0  0  0  0  0
    8.2091    4.9181    3.2714 H   0  0  0  0  0  0  0  0  0  0  0  0
    8.9774    6.4122    4.6116 C   0  0  0  0  0  0  0  0  0  0  0  0
    8.4796    7.2375    4.1271 H   0  0  0  0  0  0  0  0  0  0  0  0
    9.2858    2.8580    1.8360 C   0  0  0  0  0  0  0  0  0  0  0  0
   10.2398    3.3651    1.8671 H   0  0  0  0  0  0  0  0  0  0  0  0
    6.8380    1.5558    1.7690 C   0  0  0  0  0  0  0  0  0  0  0  0
    5.8801    1.0601    1.7453 H   0  0  0  0  0  0  0  0  0  0  0  0
    7.4435    1.9583    0.5895 C   0  0  0  0  0  0  0  0  0  0  0  0
    6.9604    1.7701   -0.3564 H   0  0  0  0  0  0  0  0  0  0  0  0
    8.6870    2.4402    3.0221 C   0  0  0  0  0  0  0  0  0  0  0  0
    7.4586    1.7855    2.9836 C   0  0  0  0  0  0  0  0  0  0  0  0
    6.9801    1.4873    3.9048 H   0  0  0  0  0  0  0  0  0  0  0  0
  2  1  1  0  0  0  0
  2 12  1  0  0  0  0
  3 49  1  0  0  0  0
  4  3  1  0  0  0  0
  5  2  1  0  0  0  0
  6 24  1  0  0  0  0
  6  9  2  0  0  0  0
  7 10  1  0  0  0  0
  7  8  1  0  0  0  0
  9 12  1  0  0  0  0
  9 16  1  0  0  0  0
 10 11  1  0  0  0  0
 12 20  1  0  0  0  0
 13  2  1  0  0  0  0
 13  6  1  0  0  0  0
 14 18  1  0  0  0  0
 14 15  1  0  0  0  0
 16 14  2  0  0  0  0
 17 16  1  0  0  0  0
 18 19  1  0  0  0  0
 20 21  1  0  0  0  0
 20 18  2  0  0  0  0
 22 23  1  0  0  0  0
 22 10  2  0  0  0  0
 24  7  2  0  0  0  0
 25 26  1  0  0  0  0
 25 13  1  0  0  0  0
 27 25  1  0  0  0  0
 28 25  1  0  0  0  0
 28 30  1  0  0  0  0
 29 28  1  0  0  0  0
 31 32  2  0  0  0  0
 31  5  1  0  0  0  0
 32 33  1  0  0  0  0
 33 41  1  0  0  0  0
 33  2  1  0  0  0  0
 34 22  1  0  0  0  0
 35 34  1  0  0  0  0
 36 34  2  0  0  0  0
 36 24  1  0  0  0  0
 37 36  1  0  0  0  0
 38 40  1  0  0  0  0
 38  5  1  0  0  0  0
 38 28  1  0  0  0  0
 39 38  1  0  0  0  0
 41 42  1  0  0  0  0
 43 44  1  0  0  0  0
 43 41  2  0  0  0  0
 45 47  2  0  0  0  0
 45 32  1  0  0  0  0
 46 45  1  0  0  0  0
 47 43  1  0  0  0  0
 48 47  1  0  0  0  0
 49 50  1  0  0  0  0
 49 55  2  0  0  0  0
 51 56  2  0  0  0  0
 52 51  1  0  0  0  0
 53  3  2  0  0  0  0
 53 51  1  0  0  0  0
 54 53  1  0  0  0  0
 55 31  1  0  0  0  0
 56 55  1  0  0  0  0
 56 57  1  0  0  0  0
M  END
$$$$
