CSD_code = LICKAM | q = 0 | S = 0 | Stoichiometry = C6H12Cl2N4Pt | MND = 4
 OpenBabel04212202063D

 25 24  0  0  0  0  0  0  0  0999 V2000
    5.4436   10.8241   -0.0000 Pt  0  0  0  0  0  0  0  0  0  0  0  0
    6.4230   10.2521    2.0167 Cl  0  0  0  0  0  0  0  0  0  0  0  0
    5.3380    9.0156   -0.4791 N   0  0  0  0  0  2  0  0  0  0  0  0
    5.1481    6.6726   -1.1730 N   0  0  0  0  0  0  0  0  0  0  0  0
    5.2641    7.9085   -0.8113 C   0  0  0  0  0  2  0  0  0  0  0  0
    5.6907    5.6077   -0.3595 C   0  0  0  0  0  0  0  0  0  0  0  0
    6.5413    5.1370   -0.8611 H   0  0  0  0  0  0  0  0  0  0  0  0
    4.9216    4.8519   -0.1847 H   0  0  0  0  0  0  0  0  0  0  0  0
    6.0204    6.0081    0.5967 H   0  0  0  0  0  0  0  0  0  0  0  0
    4.6432    6.3371   -2.4859 C   0  0  0  0  0  0  0  0  0  0  0  0
    4.2689    7.2343   -2.9742 H   0  0  0  0  0  0  0  0  0  0  0  0
    3.8292    5.6146   -2.3924 H   0  0  0  0  0  0  0  0  0  0  0  0
    5.4350    5.9004   -3.1011 H   0  0  0  0  0  0  0  0  0  0  0  0
    4.4639   11.3971   -2.0166 Cl  0  0  0  0  0  0  0  0  0  0  0  0
    5.5491   12.6327    0.4792 N   0  0  0  0  0  2  0  0  0  0  0  0
    5.7389   14.9758    1.1730 N   0  0  0  0  0  0  0  0  0  0  0  0
    5.6229   13.7398    0.8114 C   0  0  0  0  0  2  0  0  0  0  0  0
    5.1964   16.0407    0.3595 C   0  0  0  0  0  0  0  0  0  0  0  0
    4.3460   16.5116    0.8611 H   0  0  0  0  0  0  0  0  0  0  0  0
    5.9656   16.7964    0.1845 H   0  0  0  0  0  0  0  0  0  0  0  0
    4.8666   15.6403   -0.5967 H   0  0  0  0  0  0  0  0  0  0  0  0
    6.2439   15.3114    2.4859 C   0  0  0  0  0  0  0  0  0  0  0  0
    6.6182   14.4142    2.9742 H   0  0  0  0  0  0  0  0  0  0  0  0
    7.0579   16.0338    2.3923 H   0  0  0  0  0  0  0  0  0  0  0  0
    5.4521   15.7482    3.1011 H   0  0  0  0  0  0  0  0  0  0  0  0
  1 15  1  0  0  0  0
  1  2  1  0  0  0  0
  3  1  1  0  0  0  0
  4  5  1  0  0  0  0
  4  6  1  0  0  0  0
  5  3  1  0  0  0  0
  6  8  1  0  0  0  0
  6  9  1  0  0  0  0
  7  6  1  0  0  0  0
 10 12  1  0  0  0  0
 10  4  1  0  0  0  0
 11 10  1  0  0  0  0
 13 10  1  0  0  0  0
 14  1  1  0  0  0  0
 15 17  1  0  0  0  0
 16 22  1  0  0  0  0
 17 16  1  0  0  0  0
 18 19  1  0  0  0  0
 18 16  1  0  0  0  0
 20 18  1  0  0  0  0
 21 18  1  0  0  0  0
 22 23  1  0  0  0  0
 22 25  1  0  0  0  0
 24 22  1  0  0  0  0
M  END
$$$$
