CSD_code = LIDLEP | q = 0 | S = 0 | Stoichiometry = C30H28BIN6Zn | MND = 4
 OpenBabel04212202063D

 67 74  0  0  1  0  0  0  0  0999 V2000
   16.8562   11.6821    8.2257 Zn  0  0  2  0  0  0  0  0  0  0  0  0
   17.0595   14.0453    8.9315 I   0  0  0  0  0  0  0  0  0  0  0  0
   17.3001   11.0515    6.3645 N   0  0  0  0  0  0  0  0  0  0  0  0
   16.9212    9.7743    6.1829 N   0  0  1  0  0  0  0  0  0  0  0  0
   15.1226   10.6601    8.2739 N   0  0  0  0  0  0  0  0  0  0  0  0
   15.3242    9.3517    8.0399 N   0  0  1  0  0  0  0  0  0  0  0  0
   17.8781   10.1879    9.1073 N   0  0  0  0  0  0  0  0  0  0  0  0
   17.7632    9.0458    8.4075 N   0  0  1  0  0  0  0  0  0  0  0  0
   16.4847    8.1696    4.3189 C   0  0  0  0  0  0  0  0  0  0  0  0
   16.8773    9.4926    4.8692 C   0  0  1  0  0  3  0  0  0  0  0  0
   17.2410   10.6353    4.1803 C   0  0  0  0  0  0  0  0  0  0  0  0
   17.5068   11.5944    5.1628 C   0  0  0  0  0  0  0  0  0  0  0  0
   18.9348   13.4991    5.8387 C   0  0  0  0  0  0  0  0  0  0  0  0
   19.3676   14.8010    5.6727 C   0  0  0  0  0  0  0  0  0  0  0  0
   18.8496   15.5797    4.6517 C   0  0  0  0  0  0  0  0  0  0  0  0
   17.9013   15.0510    3.7915 C   0  0  0  0  0  0  0  0  0  0  0  0
   17.4632   13.7507    3.9553 C   0  0  0  0  0  0  0  0  0  0  0  0
   17.9703   12.9658    4.9879 C   0  0  0  0  0  0  0  0  0  0  0  0
   14.1475    7.1676    8.3289 C   0  0  0  0  0  0  0  0  0  0  0  0
   14.2506    8.6459    8.4349 C   0  0  1  0  0  3  0  0  0  0  0  0
   13.3237    9.5372    8.9445 C   0  0  0  0  0  0  0  0  0  0  0  0
   13.9114   10.7998    8.8171 C   0  0  0  0  0  0  0  0  0  0  0  0
   13.5521   13.1977    8.3257 C   0  0  0  0  0  0  0  0  0  0  0  0
   13.0273   14.4322    8.6579 C   0  0  0  0  0  0  0  0  0  0  0  0
   12.2905   14.5831    9.8204 C   0  0  0  0  0  0  0  0  0  0  0  0
   12.0735   13.4936   10.6481 C   0  0  0  0  0  0  0  0  0  0  0  0
   12.5988   12.2578   10.3218 C   0  0  0  0  0  0  0  0  0  0  0  0
   13.3518   12.1016    9.1608 C   0  0  0  0  0  0  0  0  0  0  0  0
   18.8875    6.8254    8.1986 C   0  0  0  0  0  0  0  0  0  0  0  0
   18.7207    8.1806    8.7839 C   0  0  1  0  0  3  0  0  0  0  0  0
   19.4807    8.7925    9.7642 C   0  0  0  0  0  0  0  0  0  0  0  0
   18.9092   10.0563    9.9446 C   0  0  0  0  0  0  0  0  0  0  0  0
   20.6287   11.3513   11.1620 C   0  0  0  0  0  0  0  0  0  0  0  0
   20.9823   12.3363   12.0645 C   0  0  0  0  0  0  0  0  0  0  0  0
   20.0031   13.0723   12.7113 C   0  0  0  0  0  0  0  0  0  0  0  0
   18.6659   12.8146   12.4608 C   0  0  0  0  0  0  0  0  0  0  0  0
   18.3074   11.8285   11.5616 C   0  0  0  0  0  0  0  0  0  0  0  0
   19.2861   11.0952   10.8955 C   0  0  0  0  0  0  0  0  0  0  0  0
   16.6286    8.8670    7.3869 B   0  0  2  0  0  0  0  0  0  0  0  0
   17.1578    7.3893    4.6699 H   0  0  0  0  0  0  0  0  0  0  0  0
   16.5200    8.2032    3.2334 H   0  0  0  0  0  0  0  0  0  0  0  0
   15.4747    7.9099    4.6317 H   0  0  0  0  0  0  0  0  0  0  0  0
   17.3247   10.7544    3.1195 H   0  0  0  0  0  0  0  0  0  0  0  0
   19.3543   12.8840    6.6228 H   0  0  0  0  0  0  0  0  0  0  0  0
   20.1041   15.2100    6.3470 H   0  0  0  0  0  0  0  0  0  0  0  0
   19.1843   16.5984    4.5266 H   0  0  0  0  0  0  0  0  0  0  0  0
   17.4968   15.6563    2.9933 H   0  0  0  0  0  0  0  0  0  0  0  0
   16.7117   13.3414    3.2954 H   0  0  0  0  0  0  0  0  0  0  0  0
   13.1879    6.8416    8.7208 H   0  0  0  0  0  0  0  0  0  0  0  0
   14.9428    6.6874    8.8968 H   0  0  0  0  0  0  0  0  0  0  0  0
   14.2326    6.8473    7.2919 H   0  0  0  0  0  0  0  0  0  0  0  0
   12.3516    9.3113    9.3324 H   0  0  0  0  0  0  0  0  0  0  0  0
   14.1096   13.0748    7.4074 H   0  0  0  0  0  0  0  0  0  0  0  0
   13.2016   15.2791    8.0122 H   0  0  0  0  0  0  0  0  0  0  0  0
   11.8861   15.5492   10.0819 H   0  0  0  0  0  0  0  0  0  0  0  0
   11.4979   13.6089   11.5549 H   0  0  0  0  0  0  0  0  0  0  0  0
   12.4448   11.4104   10.9742 H   0  0  0  0  0  0  0  0  0  0  0  0
   19.7408    6.3340    8.6581 H   0  0  0  0  0  0  0  0  0  0  0  0
   19.0532    6.8909    7.1244 H   0  0  0  0  0  0  0  0  0  0  0  0
   17.9988    6.2194    8.3665 H   0  0  0  0  0  0  0  0  0  0  0  0
   20.3151    8.3778   10.2916 H   0  0  0  0  0  0  0  0  0  0  0  0
   21.3913   10.7871   10.6445 H   0  0  0  0  0  0  0  0  0  0  0  0
   22.0261   12.5348   12.2597 H   0  0  0  0  0  0  0  0  0  0  0  0
   20.2823   13.8466   13.4099 H   0  0  0  0  0  0  0  0  0  0  0  0
   17.8999   13.3874   12.9603 H   0  0  0  0  0  0  0  0  0  0  0  0
   17.2632   11.6121   11.3819 H   0  0  0  0  0  0  0  0  0  0  0  0
   16.5379    7.7397    7.0525 H   0  0  0  0  0  0  0  0  0  0  0  0
  1  5  1  0  0  0  0
  1  2  1  1  0  0  0
  1  7  1  0  0  0  0
  3  1  1  0  0  0  0
  4  3  1  1  0  0  0
  4 39  1  0  0  0  0
  5 22  1  0  0  0  0
  6  5  1  6  0  0  0
  6 20  1  0  0  0  0
  7 32  1  0  0  0  0
  8 30  1  0  0  0  0
  8  7  1  1  0  0  0
  9 42  1  0  0  0  0
  9 40  1  0  0  0  0
 10  9  1  6  0  0  0
 10  4  1  0  0  0  0
 11 10  1  0  0  0  0
 11 12  2  0  0  0  0
 12  3  1  0  0  0  0
 13 44  1  0  0  0  0
 14 13  1  0  0  0  0
 14 45  1  0  0  0  0
 15 14  2  0  0  0  0
 16 17  2  0  0  0  0
 16 15  1  0  0  0  0
 17 18  1  0  0  0  0
 18 12  1  0  0  0  0
 18 13  2  0  0  0  0
 19 49  1  0  0  0  0
 19 50  1  0  0  0  0
 20 19  1  1  0  0  0
 20 21  1  0  0  0  0
 21 52  1  0  0  0  0
 22 21  2  0  0  0  0
 22 28  1  0  0  0  0
 23 24  2  0  0  0  0
 23 28  1  0  0  0  0
 24 25  1  0  0  0  0
 25 55  1  0  0  0  0
 25 26  2  0  0  0  0
 26 56  1  0  0  0  0
 27 26  1  0  0  0  0
 27 57  1  0  0  0  0
 28 27  2  0  0  0  0
 29 60  1  0  0  0  0
 29 58  1  0  0  0  0
 30 29  1  6  0  0  0
 30 31  1  0  0  0  0
 31 32  2  0  0  0  0
 31 61  1  0  0  0  0
 32 38  1  0  0  0  0
 33 34  1  0  0  0  0
 34 63  1  0  0  0  0
 34 35  2  0  0  0  0
 35 64  1  0  0  0  0
 36 35  1  0  0  0  0
 36 65  1  0  0  0  0
 37 36  2  0  0  0  0
 38 33  2  0  0  0  0
 38 37  1  0  0  0  0
 39 67  1  6  0  0  0
 39  6  1  0  0  0  0
 39  8  1  0  0  0  0
 41  9  1  0  0  0  0
 43 11  1  0  0  0  0
 46 15  1  0  0  0  0
 47 16  1  0  0  0  0
 48 17  1  0  0  0  0
 51 19  1  0  0  0  0
 53 23  1  0  0  0  0
 54 24  1  0  0  0  0
 59 29  1  0  0  0  0
 62 33  1  0  0  0  0
 66 37  1  0  0  0  0
M  END
$$$$
