CSD_code = LIDPIX | q = -1 | S = 0 | Stoichiometry = C10H15I4Mo(1-) | MND = 9
 OpenBabel04212202063D

 30 26  0  0  1  0  0  0  0  0999 V2000
    4.6808    5.6849    2.5984 I   0  0  0  0  0 15  0  0  0  0  0  0
    4.2308    5.4352    6.3162 I   0  0  0  0  0 15  0  0  0  0  0  0
    2.0350    8.3827    2.4863 I   0  0  0  0  0 15  0  0  0  0  0  0
    1.6120    8.0907    6.2013 I   0  0  0  0  0 15  0  0  0  0  0  0
    2.4047    6.1669    4.2408 Mo  0  0  0  0  0  0  0  0  0  0  0  0
    0.5721    5.2595    2.8254 C   0  0  0  0  0  0  0  0  0  0  0  0
    0.1824    5.6014    4.1578 C   0  0  2  0  0  3  0  0  0  0  0  0
    0.9166    4.7497    5.0688 C   0  0  1  0  0  0  0  0  0  0  0  0
    1.7980    3.9383    4.2586 C   0  0  2  0  0  3  0  0  0  0  0  0
    1.5491    4.2480    2.8878 C   0  0  0  0  0  0  0  0  0  0  0  0
   -0.1017    5.7165    1.5703 C   0  0  0  0  0  0  0  0  0  0  0  0
   -1.0575    6.3830    4.4783 C   0  0  0  0  0  0  0  0  0  0  0  0
    0.5114    4.4365    6.4791 C   0  0  0  0  0  0  0  0  0  0  0  0
    2.5326    2.7090    4.7049 C   0  0  0  0  0  0  0  0  0  0  0  0
    2.0650    3.4828    1.7111 C   0  0  0  0  0  0  0  0  0  0  0  0
   -0.6320    6.6536    1.7214 H   0  0  0  0  0  0  0  0  0  0  0  0
    0.6151    5.8570    0.7619 H   0  0  0  0  0  0  0  0  0  0  0  0
   -0.8228    4.9571    1.2554 H   0  0  0  0  0  0  0  0  0  0  0  0
   -1.1396    6.5735    5.5460 H   0  0  0  0  0  0  0  0  0  0  0  0
   -1.0607    7.3460    3.9656 H   0  0  0  0  0  0  0  0  0  0  0  0
   -1.9415    5.8243    4.1584 H   0  0  0  0  0  0  0  0  0  0  0  0
    0.1164    5.3199    6.9792 H   0  0  0  0  0  0  0  0  0  0  0  0
   -0.2607    3.6617    6.4883 H   0  0  0  0  0  0  0  0  0  0  0  0
    1.3610    4.0803    7.0611 H   0  0  0  0  0  0  0  0  0  0  0  0
    1.9809    1.8160    4.3982 H   0  0  0  0  0  0  0  0  0  0  0  0
    3.5284    2.6611    4.2617 H   0  0  0  0  0  0  0  0  0  0  0  0
    2.6472    2.6875    5.7862 H   0  0  0  0  0  0  0  0  0  0  0  0
    1.3182    2.7414    1.4126 H   0  0  0  0  0  0  0  0  0  0  0  0
    2.2507    4.1373    0.8604 H   0  0  0  0  0  0  0  0  0  0  0  0
    2.9899    2.9625    1.9491 H   0  0  0  0  0  0  0  0  0  0  0  0
  6 10  2  0  0  0  0
  6  7  1  0  0  0  0
  7 12  1  6  0  0  0
  7  8  1  0  0  0  0
  8  5  1  1  0  0  0
  8 13  1  0  0  0  0
  9 14  1  6  0  0  0
  9  8  1  0  0  0  0
 10  9  1  0  0  0  0
 11 16  1  0  0  0  0
 11  6  1  0  0  0  0
 12 19  1  0  0  0  0
 13 23  1  0  0  0  0
 13 22  1  0  0  0  0
 13 24  1  0  0  0  0
 14 27  1  0  0  0  0
 15 30  1  0  0  0  0
 15 10  1  0  0  0  0
 17 11  1  0  0  0  0
 18 11  1  0  0  0  0
 20 12  1  0  0  0  0
 21 12  1  0  0  0  0
 25 14  1  0  0  0  0
 26 14  1  0  0  0  0
 28 15  1  0  0  0  0
 29 15  1  0  0  0  0
M  END
$$$$
