CSD_code = LIDQAQ | q = 0 | S = 0 | Stoichiometry = C10H10Cl3N4ORe | MND = 6
 OpenBabel04212202063D

 29 31  0  0  0  0  0  0  0  0999 V2000
    9.1729    5.9282    4.6013 Re  0  0  0  0  0  0  0  0  0  0  0  0
    8.2898    6.6337    2.6775 Cl  0  0  0  0  0  0  0  0  0  0  0  0
    7.2061    4.7052    4.9313 Cl  0  0  0  0  0  0  0  0  0  0  0  0
   10.7814    7.6475    4.3498 Cl  0  0  0  0  0  0  0  0  0  0  0  0
   10.1987    4.6687    4.2677 O   0  0  0  0  0  1  0  0  0  0  0  0
    8.0929    7.5103    5.5319 N   0  0  0  0  0  0  0  0  0  0  0  0
    7.7728    8.6999    7.3754 N   0  0  0  0  0  0  0  0  0  0  0  0
    9.2318    6.7748    7.4276 N   0  0  0  0  0  0  0  0  0  0  0  0
    9.6421    5.8631    6.6205 N   0  0  0  0  0  0  0  0  0  0  0  0
    7.2459    8.5257    5.2409 C   0  0  0  0  0  0  0  0  0  0  0  0
    6.8510    8.6506    4.2519 H   0  0  0  0  0  0  0  0  0  0  0  0
    7.0407    9.2678    6.3723 C   0  0  0  0  0  0  0  0  0  0  0  0
    6.4386   10.1381    6.5334 H   0  0  0  0  0  0  0  0  0  0  0  0
    8.4030    7.6397    6.8323 C   0  0  0  0  0  0  0  0  0  0  0  0
    7.8840    9.1438    8.7358 C   0  0  0  0  0  0  0  0  0  0  0  0
    6.8918    9.2833    9.1656 H   0  0  0  0  0  0  0  0  0  0  0  0
    8.4275   10.0893    8.7831 H   0  0  0  0  0  0  0  0  0  0  0  0
    8.4254    8.3877    9.2999 H   0  0  0  0  0  0  0  0  0  0  0  0
   10.5194    4.9381    7.1851 C   0  0  0  0  0  0  0  0  0  0  0  0
   11.3917    5.3426    8.2006 C   0  0  0  0  0  0  0  0  0  0  0  0
   11.3845    6.3754    8.5117 H   0  0  0  0  0  0  0  0  0  0  0  0
   12.2709    4.4340    8.7528 C   0  0  0  0  0  0  0  0  0  0  0  0
   12.9593    4.7554    9.5196 H   0  0  0  0  0  0  0  0  0  0  0  0
   12.2787    3.1168    8.3185 C   0  0  0  0  0  0  0  0  0  0  0  0
   12.9717    2.4105    8.7496 H   0  0  0  0  0  0  0  0  0  0  0  0
   11.3981    2.7081    7.3278 C   0  0  0  0  0  0  0  0  0  0  0  0
   11.3953    1.6812    6.9971 H   0  0  0  0  0  0  0  0  0  0  0  0
   10.5215    3.6094    6.7568 C   0  0  0  0  0  0  0  0  0  0  0  0
    9.8228    3.2934    5.9955 H   0  0  0  0  0  0  0  0  0  0  0  0
  1  3  1  0  0  0  0
  1  6  1  0  0  0  0
  1  9  1  0  0  0  0
  2  1  1  0  0  0  0
  4  1  1  0  0  0  0
  5  1  1  0  0  0  0
  6 14  1  0  0  0  0
  7 15  1  0  0  0  0
  9 19  1  0  0  0  0
  9  8  1  0  0  0  0
 10  6  1  0  0  0  0
 10 12  2  0  0  0  0
 11 10  1  0  0  0  0
 12 13  1  0  0  0  0
 12  7  1  0  0  0  0
 14  7  1  0  0  0  0
 14  8  2  0  0  0  0
 15 17  1  0  0  0  0
 15 16  1  0  0  0  0
 15 18  1  0  0  0  0
 19 20  1  0  0  0  0
 20 21  1  0  0  0  0
 20 22  2  0  0  0  0
 22 23  1  0  0  0  0
 24 25  1  0  0  0  0
 24 22  1  0  0  0  0
 26 24  2  0  0  0  0
 27 26  1  0  0  0  0
 28 19  2  0  0  0  0
 28 26  1  0  0  0  0
 29 28  1  0  0  0  0
M  END
$$$$
