CSD_code = LIFFOV | q = 0 | S = 0 | Stoichiometry = C21H14ClN2O3Re | MND = 6
 OpenBabel04212202063D

 42 45  0  0  0  0  0  0  0  0999 V2000
    0.2664    5.5162    4.0693 Re  0  0  0  0  0  0  0  0  0  0  0  0
   -1.5685    5.6456    2.5830 Cl  0  0  0  0  0  0  0  0  0  0  0  0
    0.7540    8.5412    3.6739 O   0  0  0  0  0  1  0  0  0  0  0  0
    2.7362    5.0643    5.8713 O   0  0  0  0  0  1  0  0  0  0  0  0
   -1.7457    5.9882    6.3660 O   0  0  0  0  0  1  0  0  0  0  0  0
   -0.2080    3.3296    4.1028 N   0  0  0  0  0  0  0  0  0  0  0  0
    1.4314    5.0367    2.2425 N   0  0  0  0  0  0  0  0  0  0  0  0
   -0.1539    2.6103    5.2513 C   0  0  0  0  0  3  0  0  0  0  0  0
   -0.5089    1.2949    5.3282 C   0  0  0  0  0  0  0  0  0  0  0  0
   -0.9562    0.6176    4.1737 C   0  0  0  0  0  0  0  0  0  0  0  0
   -1.3517   -0.7337    4.1583 C   0  0  0  0  0  0  0  0  0  0  0  0
   -1.7795   -1.3089    2.9931 C   0  0  0  0  0  0  0  0  0  0  0  0
   -1.8295   -0.5663    1.8012 C   0  0  0  0  0  0  0  0  0  0  0  0
   -1.4497    0.7469    1.7842 C   0  0  0  0  0  0  0  0  0  0  0  0
   -1.0068    1.3670    2.9706 C   0  0  0  0  0  0  0  0  0  0  0  0
   -0.6177    2.7200    3.0138 C   0  0  0  0  0  0  0  0  0  0  0  0
    2.3041    4.0015    2.1989 C   0  0  0  0  0  3  0  0  0  0  0  0
    2.9393    3.6016    1.0588 C   0  0  0  0  0  0  0  0  0  0  0  0
    2.7053    4.2869   -0.1521 C   0  0  0  0  0  0  0  0  0  0  0  0
    3.3152    3.9512   -1.3762 C   0  0  0  0  0  0  0  0  0  0  0  0
    3.0354    4.6762   -2.5021 C   0  0  0  0  0  0  0  0  0  0  0  0
    2.1398    5.7584   -2.4564 C   0  0  0  0  0  0  0  0  0  0  0  0
    1.5322    6.1086   -1.2831 C   0  0  0  0  0  0  0  0  0  0  0  0
    1.8021    5.3802   -0.1056 C   0  0  0  0  0  0  0  0  0  0  0  0
    1.2020    5.6963    1.1285 C   0  0  0  0  0  0  0  0  0  0  0  0
    0.6023    7.4215    3.8612 C   0  0  0  0  0  2  0  0  0  0  0  0
    1.8147    5.2464    5.2039 C   0  0  0  0  0  2  0  0  0  0  0  0
   -0.9582    5.8287    5.5505 C   0  0  0  0  0  2  0  0  0  0  0  0
    0.1907    3.1439    6.1275 H   0  0  0  0  0  0  0  0  0  0  0  0
   -0.4541    0.7717    6.2703 H   0  0  0  0  0  0  0  0  0  0  0  0
   -1.3143   -1.2998    5.0773 H   0  0  0  0  0  0  0  0  0  0  0  0
   -2.0866   -2.3441    2.9807 H   0  0  0  0  0  0  0  0  0  0  0  0
   -2.1748   -1.0444    0.8968 H   0  0  0  0  0  0  0  0  0  0  0  0
   -1.4902    1.3279    0.8746 H   0  0  0  0  0  0  0  0  0  0  0  0
   -0.6896    3.3087    2.1065 H   0  0  0  0  0  0  0  0  0  0  0  0
    2.4881    3.4924    3.1366 H   0  0  0  0  0  0  0  0  0  0  0  0
    3.6228    2.7665    1.0808 H   0  0  0  0  0  0  0  0  0  0  0  0
    4.0029    3.1188   -1.4072 H   0  0  0  0  0  0  0  0  0  0  0  0
    3.5039    4.4207   -3.4410 H   0  0  0  0  0  0  0  0  0  0  0  0
    1.9367    6.3120   -3.3608 H   0  0  0  0  0  0  0  0  0  0  0  0
    0.8408    6.9364   -1.2366 H   0  0  0  0  0  0  0  0  0  0  0  0
    0.4966    6.5169    1.1723 H   0  0  0  0  0  0  0  0  0  0  0  0
  1  6  1  0  0  0  0
  1 27  1  0  0  0  0
  1 28  1  0  0  0  0
  2  1  1  0  0  0  0
  3 26  1  0  0  0  0
  6  8  1  0  0  0  0
  7  1  1  0  0  0  0
  8  9  1  0  0  0  0
  8 29  1  0  0  0  0
  9 30  1  0  0  0  0
 10  9  2  0  0  0  0
 11 10  1  0  0  0  0
 11 31  1  0  0  0  0
 12 11  2  0  0  0  0
 13 12  1  0  0  0  0
 14 13  2  0  0  0  0
 14 15  1  0  0  0  0
 15 16  2  0  0  0  0
 15 10  1  0  0  0  0
 16  6  1  0  0  0  0
 17  7  1  0  0  0  0
 17 36  1  0  0  0  0
 18 37  1  0  0  0  0
 18 17  1  0  0  0  0
 19 24  1  0  0  0  0
 19 18  2  0  0  0  0
 20 19  1  0  0  0  0
 21 22  1  0  0  0  0
 21 20  2  0  0  0  0
 22 23  2  0  0  0  0
 23 41  1  0  0  0  0
 23 24  1  0  0  0  0
 24 25  2  0  0  0  0
 25 42  1  0  0  0  0
 25  7  1  0  0  0  0
 26  1  1  0  0  0  0
 27  4  1  0  0  0  0
 28  5  1  0  0  0  0
 32 12  1  0  0  0  0
 33 13  1  0  0  0  0
 34 14  1  0  0  0  0
 35 16  1  0  0  0  0
 38 20  1  0  0  0  0
 39 21  1  0  0  0  0
 40 22  1  0  0  0  0
M  END
$$$$
