CSD_code = LIFHAJ | q = 1 | S = 0 | Stoichiometry = C18H40ClN4Zn(1+) | MND = 5
 OpenBabel04212202063D

 64 67  0  0  1  0  0  0  0  0999 V2000
    7.9005   11.8418    1.8853 Zn  0  0  0  0  0  0  0  0  0  0  0  0
    5.7460   11.8578    1.5410 Cl  0  0  0  0  0  0  0  0  0  0  0  0
    9.4917   11.3385    0.4847 N   0  0  2  0  0  4  0  0  0  0  0  0
   10.3520   11.3803    1.0318 H   0  0  0  0  0  0  0  0  0  0  0  0
    8.3049   13.8689    1.1791 N   0  0  2  0  0  4  0  0  0  0  0  0
    7.5563   13.9826    0.4963 H   0  0  0  0  0  0  0  0  0  0  0  0
    8.8424   12.3276    3.7613 N   0  0  1  0  0  4  0  0  0  0  0  0
    9.8394   12.4076    3.5593 H   0  0  0  0  0  0  0  0  0  0  0  0
    8.0655    9.8216    2.6920 N   0  0  2  0  0  4  0  0  0  0  0  0
    7.1244    9.6874    3.0646 H   0  0  0  0  0  0  0  0  0  0  0  0
    9.5387   12.4897   -0.4366 C   0  0  1  0  0  0  0  0  0  0  0  0
   10.4732   12.4831   -1.0135 H   0  0  0  0  0  0  0  0  0  0  0  0
    8.3575   12.4702   -1.4023 C   0  0  0  0  0  0  0  0  0  0  0  0
    8.4977   11.7203   -2.1754 H   0  0  0  0  0  0  0  0  0  0  0  0
    8.2658   13.4341   -1.8964 H   0  0  0  0  0  0  0  0  0  0  0  0
    7.4281   12.2486   -0.8795 H   0  0  0  0  0  0  0  0  0  0  0  0
    9.5460   13.7683    0.4104 C   0  0  0  0  0  0  0  0  0  0  0  0
   10.3933   13.7421    1.1017 H   0  0  0  0  0  0  0  0  0  0  0  0
    9.6842   14.6198   -0.2635 H   0  0  0  0  0  0  0  0  0  0  0  0
    8.1680   15.0402    2.0855 C   0  0  0  0  0  0  0  0  0  0  0  0
    6.6703   15.3285    2.2038 C   0  0  0  0  0  0  0  0  0  0  0  0
    6.0968   14.4224    2.3600 H   0  0  0  0  0  0  0  0  0  0  0  0
    6.3150   15.7925    1.2857 H   0  0  0  0  0  0  0  0  0  0  0  0
    6.4721   16.0174    3.0182 H   0  0  0  0  0  0  0  0  0  0  0  0
    8.8190   16.3006    1.4902 C   0  0  0  0  0  0  0  0  0  0  0  0
    9.9042   16.2391    1.4749 H   0  0  0  0  0  0  0  0  0  0  0  0
    8.5446   17.1623    2.0919 H   0  0  0  0  0  0  0  0  0  0  0  0
    8.4612   16.4802    0.4791 H   0  0  0  0  0  0  0  0  0  0  0  0
    8.8565   14.7835    3.4408 C   0  0  0  0  0  0  0  0  0  0  0  0
    9.9296   14.6799    3.2514 H   0  0  0  0  0  0  0  0  0  0  0  0
    8.7348   15.6969    4.0250 H   0  0  0  0  0  0  0  0  0  0  0  0
    8.4470   13.6215    4.3627 C   0  0  1  0  0  0  0  0  0  0  0  0
    9.0442   13.7773    5.2744 H   0  0  0  0  0  0  0  0  0  0  0  0
    6.9806   13.6022    4.7755 C   0  0  0  0  0  0  0  0  0  0  0  0
    6.8537   13.0639    5.7115 H   0  0  0  0  0  0  0  0  0  0  0  0
    6.3655   13.1257    4.0176 H   0  0  0  0  0  0  0  0  0  0  0  0
    6.6244   14.6140    4.9341 H   0  0  0  0  0  0  0  0  0  0  0  0
    8.6975   11.1631    4.6526 C   0  0  2  0  0  0  0  0  0  0  0  0
    7.6580   11.1336    4.9900 H   0  0  0  0  0  0  0  0  0  0  0  0
    9.6310   11.2131    5.8608 C   0  0  0  0  0  0  0  0  0  0  0  0
    9.3793   12.0343    6.5252 H   0  0  0  0  0  0  0  0  0  0  0  0
   10.6670   11.3245    5.5452 H   0  0  0  0  0  0  0  0  0  0  0  0
    9.5479   10.2934    6.4326 H   0  0  0  0  0  0  0  0  0  0  0  0
    8.9714    9.8941    3.8394 C   0  0  0  0  0  0  0  0  0  0  0  0
   10.0033    9.9156    3.4798 H   0  0  0  0  0  0  0  0  0  0  0  0
    8.8592    9.0316    4.5034 H   0  0  0  0  0  0  0  0  0  0  0  0
    8.2812    8.6873    1.7584 C   0  0  0  0  0  0  0  0  0  0  0  0
    7.0315    8.5824    0.8841 C   0  0  0  0  0  0  0  0  0  0  0  0
    6.1977    8.2001    1.4680 H   0  0  0  0  0  0  0  0  0  0  0  0
    7.2030    7.8997    0.0571 H   0  0  0  0  0  0  0  0  0  0  0  0
    6.7412    9.5513    0.4874 H   0  0  0  0  0  0  0  0  0  0  0  0
    8.4440    7.3637    2.5207 C   0  0  0  0  0  0  0  0  0  0  0  0
    9.4074    7.2969    3.0197 H   0  0  0  0  0  0  0  0  0  0  0  0
    8.3709    6.5323    1.8256 H   0  0  0  0  0  0  0  0  0  0  0  0
    7.6544    7.2461    3.2596 H   0  0  0  0  0  0  0  0  0  0  0  0
    9.5417    8.9091    0.9059 C   0  0  0  0  0  0  0  0  0  0  0  0
   10.3995    9.0852    1.5590 H   0  0  0  0  0  0  0  0  0  0  0  0
    9.7331    7.9682    0.3896 H   0  0  0  0  0  0  0  0  0  0  0  0
    9.4984   10.0084   -0.1608 C   0  0  2  0  0  0  0  0  0  0  0  0
    8.5792    9.9150   -0.7397 H   0  0  0  0  0  0  0  0  0  0  0  0
   10.7007    9.8299   -1.0928 C   0  0  0  0  0  0  0  0  0  0  0  0
   10.6620   10.5075   -1.9404 H   0  0  0  0  0  0  0  0  0  0  0  0
   10.7128    8.8189   -1.4888 H   0  0  0  0  0  0  0  0  0  0  0  0
   11.6341    9.9932   -0.5564 H   0  0  0  0  0  0  0  0  0  0  0  0
  1  9  1  0  0  0  0
  1  7  1  0  0  0  0
  2  1  1  0  0  0  0
  3  4  1  1  0  0  0
  3  1  1  0  0  0  0
  5  6  1  6  0  0  0
  5  1  1  0  0  0  0
  5 20  1  0  0  0  0
  7  8  1  6  0  0  0
  7 32  1  0  0  0  0
  7 38  1  0  0  0  0
  9 10  1  1  0  0  0
  9 44  1  0  0  0  0
 11 12  1  6  0  0  0
 11 17  1  0  0  0  0
 11  3  1  0  0  0  0
 13 16  1  0  0  0  0
 13 11  1  0  0  0  0
 14 13  1  0  0  0  0
 15 13  1  0  0  0  0
 17 18  1  0  0  0  0
 17  5  1  0  0  0  0
 19 17  1  0  0  0  0
 20 21  1  0  0  0  0
 20 29  1  0  0  0  0
 21 22  1  0  0  0  0
 21 24  1  0  0  0  0
 23 21  1  0  0  0  0
 25 20  1  0  0  0  0
 25 27  1  0  0  0  0
 26 25  1  0  0  0  0
 28 25  1  0  0  0  0
 29 31  1  0  0  0  0
 29 32  1  0  0  0  0
 30 29  1  0  0  0  0
 32 34  1  0  0  0  0
 32 33  1  1  0  0  0
 34 37  1  0  0  0  0
 34 35  1  0  0  0  0
 36 34  1  0  0  0  0
 38 39  1  1  0  0  0
 38 40  1  0  0  0  0
 40 43  1  0  0  0  0
 40 41  1  0  0  0  0
 42 40  1  0  0  0  0
 44 46  1  0  0  0  0
 44 38  1  0  0  0  0
 45 44  1  0  0  0  0
 47 52  1  0  0  0  0
 47  9  1  0  0  0  0
 48 49  1  0  0  0  0
 48 47  1  0  0  0  0
 50 48  1  0  0  0  0
 51 48  1  0  0  0  0
 52 53  1  0  0  0  0
 52 55  1  0  0  0  0
 54 52  1  0  0  0  0
 56 57  1  0  0  0  0
 56 47  1  0  0  0  0
 58 56  1  0  0  0  0
 59 60  1  6  0  0  0
 59  3  1  0  0  0  0
 59 56  1  0  0  0  0
 61 64  1  0  0  0  0
 61 59  1  0  0  0  0
 62 61  1  0  0  0  0
 63 61  1  0  0  0  0
M  END
$$$$
