CSD_code = LIFLIX | q = 0 | S = 0 | Stoichiometry = C22H23Cl3N2OTi | MND = 6
 OpenBabel04212202063D

 52 56  0  0  0  0  0  0  0  0999 V2000
    7.3384   14.5593    0.9951 Ti  0  0  0  0  0  0  0  0  0  0  0  0
    6.6496   16.2353    1.3485 O   0  0  0  0  0  0  0  0  0  0  0  0
    6.0878   14.4641   -0.9082 Cl  0  0  0  0  0  0  0  0  0  0  0  0
    6.2007   13.2631    2.2790 Cl  0  0  0  0  0  0  0  0  0  0  0  0
    9.0376   14.9159    2.4511 Cl  0  0  0  0  0  0  0  0  0  0  0  0
    8.4931   15.6391   -0.2367 N   0  0  0  0  0  0  0  0  0  0  0  0
    8.7878   13.1858    0.0779 N   0  0  0  0  0  0  0  0  0  0  0  0
    7.1123   17.2405    0.6654 C   0  0  0  0  0  0  0  0  0  0  0  0
    6.7127   18.5720    0.7048 C   0  0  0  0  0  0  0  0  0  0  0  0
    5.9236   18.8800    1.3734 H   0  0  0  0  0  0  0  0  0  0  0  0
    7.3381   19.5026   -0.1303 C   0  0  0  0  0  0  0  0  0  0  0  0
    7.0052   20.5290   -0.0754 H   0  0  0  0  0  0  0  0  0  0  0  0
    8.3475   19.1840   -1.0188 C   0  0  0  0  0  3  0  0  0  0  0  0
    8.7879   19.9461   -1.6426 H   0  0  0  0  0  0  0  0  0  0  0  0
    8.7957   17.8590   -1.1101 C   0  0  0  0  0  0  0  0  0  0  0  0
    9.8010   17.3262   -1.9574 C   0  0  0  0  0  0  0  0  0  0  0  0
   10.3177   17.9893   -2.6362 H   0  0  0  0  0  0  0  0  0  0  0  0
   10.1171   15.9909   -1.9222 C   0  0  0  0  0  0  0  0  0  0  0  0
   10.8802   15.5844   -2.5678 H   0  0  0  0  0  0  0  0  0  0  0  0
    9.4293   15.1393   -1.0259 C   0  0  0  0  0  0  0  0  0  0  0  0
    8.1658   16.9218   -0.2545 C   0  0  0  0  0  0  0  0  0  0  0  0
    9.6074   13.7299   -0.7583 C   0  0  0  0  0  3  0  0  0  0  0  0
   10.4118   13.1696   -1.2368 H   0  0  0  0  0  0  0  0  0  0  0  0
    9.0597   11.9172    0.6134 C   0  0  0  0  0  0  0  0  0  0  0  0
   10.2873   11.6754    1.2675 C   0  0  0  0  0  0  0  0  0  0  0  0
   10.4661   10.4393    1.8755 C   0  0  0  0  0  0  0  0  0  0  0  0
   11.3928   10.2374    2.3891 H   0  0  0  0  0  0  0  0  0  0  0  0
    9.4944    9.4602    1.8333 C   0  0  0  0  0  0  0  0  0  0  0  0
    9.6659    8.5079    2.3119 H   0  0  0  0  0  0  0  0  0  0  0  0
    8.3104    9.6954    1.1597 C   0  0  0  0  0  0  0  0  0  0  0  0
    7.5663    8.9181    1.1080 H   0  0  0  0  0  0  0  0  0  0  0  0
    8.0744   10.9127    0.5421 C   0  0  0  0  0  0  0  0  0  0  0  0
   11.4002   12.6931    1.3746 C   0  0  0  0  0  0  0  0  0  0  0  0
   11.0571   13.6615    0.9924 H   0  0  0  0  0  0  0  0  0  0  0  0
   12.6071   12.2414    0.5440 C   0  0  0  0  0  0  0  0  0  0  0  0
   13.0189   11.3176    0.9428 H   0  0  0  0  0  0  0  0  0  0  0  0
   13.3834   13.0024    0.5707 H   0  0  0  0  0  0  0  0  0  0  0  0
   12.3319   12.0635   -0.4942 H   0  0  0  0  0  0  0  0  0  0  0  0
   11.8084   12.9246    2.8308 C   0  0  0  0  0  0  0  0  0  0  0  0
   10.9439   13.2430    3.4058 H   0  0  0  0  0  0  0  0  0  0  0  0
   12.5563   13.7123    2.8770 H   0  0  0  0  0  0  0  0  0  0  0  0
   12.2267   12.0289    3.2816 H   0  0  0  0  0  0  0  0  0  0  0  0
    6.8520   11.1197   -0.3169 C   0  0  0  0  0  0  0  0  0  0  0  0
    6.6279   12.1919   -0.3492 H   0  0  0  0  0  0  0  0  0  0  0  0
    7.1734   10.6684   -1.7474 C   0  0  0  0  0  0  0  0  0  0  0  0
    8.0186   11.2269   -2.1460 H   0  0  0  0  0  0  0  0  0  0  0  0
    6.3151   10.8440   -2.3902 H   0  0  0  0  0  0  0  0  0  0  0  0
    7.4167    9.6074   -1.7671 H   0  0  0  0  0  0  0  0  0  0  0  0
    5.6092   10.4042    0.2091 C   0  0  0  0  0  0  0  0  0  0  0  0
    5.6803    9.3257    0.0872 H   0  0  0  0  0  0  0  0  0  0  0  0
    4.7390   10.7483   -0.3446 H   0  0  0  0  0  0  0  0  0  0  0  0
    5.4608   10.6394    1.2600 H   0  0  0  0  0  0  0  0  0  0  0  0
  1  2  1  0  0  0  0
  1  4  1  0  0  0  0
  1  5  1  0  0  0  0
  3  1  1  0  0  0  0
  6  1  1  0  0  0  0
  7 24  1  0  0  0  0
  7  1  1  0  0  0  0
  8  9  1  0  0  0  0
  8  2  1  0  0  0  0
  9 10  1  0  0  0  0
 11 12  1  0  0  0  0
 11  9  2  0  0  0  0
 13 11  1  0  0  0  0
 14 13  1  0  0  0  0
 15 13  1  0  0  0  0
 15 21  1  0  0  0  0
 16 18  1  0  0  0  0
 16 15  2  0  0  0  0
 17 16  1  0  0  0  0
 18 20  2  0  0  0  0
 19 18  1  0  0  0  0
 20 22  1  0  0  0  0
 20  6  1  0  0  0  0
 21  6  1  0  0  0  0
 21  8  2  0  0  0  0
 22  7  1  0  0  0  0
 23 22  1  0  0  0  0
 24 25  1  0  0  0  0
 25 33  1  0  0  0  0
 25 26  2  0  0  0  0
 26 27  1  0  0  0  0
 28 26  1  0  0  0  0
 28 29  1  0  0  0  0
 30 28  2  0  0  0  0
 31 30  1  0  0  0  0
 32 24  2  0  0  0  0
 32 30  1  0  0  0  0
 33 39  1  0  0  0  0
 34 33  1  0  0  0  0
 35 37  1  0  0  0  0
 35 36  1  0  0  0  0
 35 33  1  0  0  0  0
 38 35  1  0  0  0  0
 39 41  1  0  0  0  0
 39 42  1  0  0  0  0
 39 40  1  0  0  0  0
 43 49  1  0  0  0  0
 43 32  1  0  0  0  0
 44 43  1  0  0  0  0
 45 43  1  0  0  0  0
 46 45  1  0  0  0  0
 47 45  1  0  0  0  0
 48 45  1  0  0  0  0
 49 52  1  0  0  0  0
 50 49  1  0  0  0  0
 51 49  1  0  0  0  0
M  END
$$$$
