CSD_code = LIFWOM | q = 0 | S = 0 | Stoichiometry = C21H39ClO4P2Pt | MND = 4
 OpenBabel04212202063D

 68 72  0  0  0  0  0  0  0  0999 V2000
   10.5677    1.3397   12.8783 Pt  0  0  1  0  0  0  0  0  0  0  0  0
   11.6884    2.1249   14.6675 Cl  0  0  0  0  0  0  0  0  0  0  0  0
    9.1797    0.4436   11.3383 P   0  0  2  0  0  4  0  0  0  0  0  0
    9.5054   -0.2544   14.2871 P   0  0  2  0  0  4  0  0  0  0  0  0
    9.7994   -0.7519   10.4332 O   0  0  0  0  0  0  0  0  0  0  0  0
    8.4379    1.3881   10.2579 O   0  0  0  0  0  0  0  0  0  0  0  0
    8.4971    0.8336   14.9329 O   0  0  0  0  0  0  0  0  0  0  0  0
    9.8819   -1.2372   15.5189 O   0  0  0  0  0  0  0  0  0  0  0  0
   11.2570    2.8822   11.6757 C   0  0  0  0  0  0  0  0  0  0  0  0
    9.1090   -1.2321    9.2869 C   0  0  0  0  0  0  0  0  0  0  0  0
    7.8112    0.8546    9.0984 C   0  0  0  0  0  0  0  0  0  0  0  0
    8.7314   -0.0992    8.3308 C   0  0  0  0  0  0  0  0  0  0  0  0
    8.0299   -0.6382    7.0646 C   0  0  0  0  0  0  0  0  0  0  0  0
    8.9961   -0.3677    5.9093 C   0  0  0  0  0  0  0  0  0  0  0  0
    9.7233    0.8999    6.3451 C   0  0  0  0  0  0  0  0  0  0  0  0
    9.9814    0.6502    7.8285 C   0  0  0  0  0  0  0  0  0  0  0  0
    7.6829    0.5209   16.0514 C   0  0  0  0  0  0  0  0  0  0  0  0
    9.0785   -1.3989   16.6796 C   0  0  0  0  0  0  0  0  0  0  0  0
    8.5113   -0.0731   17.1907 C   0  0  0  0  0  0  0  0  0  0  0  0
    7.6578   -0.2880   18.4575 C   0  0  0  0  0  0  0  0  0  0  0  0
   12.6468    2.5887   11.0889 C   0  0  0  0  0  0  0  0  0  0  0  0
   12.8160    1.0806   10.8533 C   0  0  0  0  0  0  0  0  0  0  0  0
   13.7471    3.0683   12.0387 C   0  0  0  0  0  0  0  0  0  0  0  0
   12.7990    3.3217    9.7487 C   0  0  0  0  0  0  0  0  0  0  0  0
    7.7504   -0.4002   12.1909 C   0  0  0  0  0  0  0  0  0  0  0  0
    8.2931   -1.2878   13.2951 C   0  0  0  0  0  0  0  0  0  0  0  0
    9.6433    0.8912   17.6028 C   0  0  0  0  0  0  0  0  0  0  0  0
    9.6138    0.9161   19.1288 C   0  0  0  0  0  0  0  0  0  0  0  0
    8.1286    0.7783   19.4470 C   0  0  0  0  0  0  0  0  0  0  0  0
   10.5398    3.0197   10.8582 H   0  0  0  0  0  0  0  0  0  0  0  0
    9.7998   -1.9297    8.8045 H   0  0  0  0  0  0  0  0  0  0  0  0
    6.8802    0.3419    9.3704 H   0  0  0  0  0  0  0  0  0  0  0  0
    7.7906   -1.6971    7.1571 H   0  0  0  0  0  0  0  0  0  0  0  0
    9.7093   -1.1875    5.8171 H   0  0  0  0  0  0  0  0  0  0  0  0
    9.0735    1.7661    6.2132 H   0  0  0  0  0  0  0  0  0  0  0  0
   10.1441    1.5687    8.3903 H   0  0  0  0  0  0  0  0  0  0  0  0
    7.2302    1.4691   16.3554 H   0  0  0  0  0  0  0  0  0  0  0  0
    8.2607   -2.1026   16.4726 H   0  0  0  0  0  0  0  0  0  0  0  0
    7.8507   -1.2816   18.8656 H   0  0  0  0  0  0  0  0  0  0  0  0
   12.7459    0.5455   11.8100 H   0  0  0  0  0  0  0  0  0  0  0  0
   14.7292    2.7974   11.6554 H   0  0  0  0  0  0  0  0  0  0  0  0
   12.6438    4.3900    9.8811 H   0  0  0  0  0  0  0  0  0  0  0  0
    7.1351    0.3973   12.6151 H   0  0  0  0  0  0  0  0  0  0  0  0
    7.4916   -1.6867   13.9247 H   0  0  0  0  0  0  0  0  0  0  0  0
   10.6070    0.5779   17.2038 H   0  0  0  0  0  0  0  0  0  0  0  0
   10.0496    1.8272   19.5330 H   0  0  0  0  0  0  0  0  0  0  0  0
    7.6201    1.7229   19.2499 H   0  0  0  0  0  0  0  0  0  0  0  0
   11.2925    3.8153   12.2487 H   0  0  0  0  0  0  0  0  0  0  0  0
    8.2091   -1.7854    9.5850 H   0  0  0  0  0  0  0  0  0  0  0  0
    7.5626    1.7236    8.4824 H   0  0  0  0  0  0  0  0  0  0  0  0
    7.0968   -0.0964    6.9031 H   0  0  0  0  0  0  0  0  0  0  0  0
    8.4781   -0.2542    4.9588 H   0  0  0  0  0  0  0  0  0  0  0  0
   10.6426    1.0710    5.7888 H   0  0  0  0  0  0  0  0  0  0  0  0
   10.8633    0.0205    7.9511 H   0  0  0  0  0  0  0  0  0  0  0  0
    6.8811   -0.1740   15.7637 H   0  0  0  0  0  0  0  0  0  0  0  0
    9.7425   -1.8448   17.4262 H   0  0  0  0  0  0  0  0  0  0  0  0
    6.5915   -0.2131   18.2444 H   0  0  0  0  0  0  0  0  0  0  0  0
   13.7887    0.8679   10.4120 H   0  0  0  0  0  0  0  0  0  0  0  0
   13.6163    2.6198   13.0194 H   0  0  0  0  0  0  0  0  0  0  0  0
   13.7976    3.1683    9.3438 H   0  0  0  0  0  0  0  0  0  0  0  0
    7.1390   -0.9668   11.4804 H   0  0  0  0  0  0  0  0  0  0  0  0
    8.8497   -2.1281   12.8748 H   0  0  0  0  0  0  0  0  0  0  0  0
    9.4428    1.8869   17.2069 H   0  0  0  0  0  0  0  0  0  0  0  0
   10.1599    0.0629   19.5345 H   0  0  0  0  0  0  0  0  0  0  0  0
    7.9386    0.4936   20.4806 H   0  0  0  0  0  0  0  0  0  0  0  0
   12.0409    0.7096   10.1859 H   0  0  0  0  0  0  0  0  0  0  0  0
   13.7077    4.1492   12.1518 H   0  0  0  0  0  0  0  0  0  0  0  0
   12.0754    2.9565    9.0229 H   0  0  0  0  0  0  0  0  0  0  0  0
  1  4  1  0  0  0  0
  1  2  1  6  0  0  0
  3  6  1  6  0  0  0
  3 25  1  0  0  0  0
  3  1  1  0  0  0  0
  4  7  1  1  0  0  0
  4  8  1  0  0  0  0
  5  3  1  0  0  0  0
  7 17  1  0  0  0  0
  8 18  1  0  0  0  0
  9 48  1  0  0  0  0
  9  1  1  0  0  0  0
 10 49  1  0  0  0  0
 10  5  1  0  0  0  0
 11 32  1  0  0  0  0
 11  6  1  0  0  0  0
 12 11  1  0  0  0  0
 12 10  1  0  0  0  0
 13 33  1  0  0  0  0
 13 12  1  0  0  0  0
 14 15  1  0  0  0  0
 14 13  1  0  0  0  0
 15 16  1  0  0  0  0
 16 54  1  0  0  0  0
 16 12  1  0  0  0  0
 16 36  1  0  0  0  0
 17 37  1  0  0  0  0
 17 19  1  0  0  0  0
 18 19  1  0  0  0  0
 18 56  1  0  0  0  0
 19 27  1  0  0  0  0
 19 20  1  0  0  0  0
 20 39  1  0  0  0  0
 20 29  1  0  0  0  0
 21  9  1  0  0  0  0
 21 23  1  0  0  0  0
 22 21  1  0  0  0  0
 22 40  1  0  0  0  0
 23 67  1  0  0  0  0
 23 59  1  0  0  0  0
 24 42  1  0  0  0  0
 24 21  1  0  0  0  0
 25 43  1  0  0  0  0
 25 26  1  0  0  0  0
 26 44  1  0  0  0  0
 26  4  1  0  0  0  0
 27 28  1  0  0  0  0
 28 29  1  0  0  0  0
 28 46  1  0  0  0  0
 28 64  1  0  0  0  0
 29 65  1  0  0  0  0
 30  9  1  0  0  0  0
 31 10  1  0  0  0  0
 34 14  1  0  0  0  0
 35 15  1  0  0  0  0
 38 18  1  0  0  0  0
 41 23  1  0  0  0  0
 45 27  1  0  0  0  0
 47 29  1  0  0  0  0
 50 11  1  0  0  0  0
 51 13  1  0  0  0  0
 52 14  1  0  0  0  0
 53 15  1  0  0  0  0
 55 17  1  0  0  0  0
 57 20  1  0  0  0  0
 58 22  1  0  0  0  0
 60 24  1  0  0  0  0
 61 25  1  0  0  0  0
 62 26  1  0  0  0  0
 63 27  1  0  0  0  0
 66 22  1  0  0  0  0
 68 24  1  0  0  0  0
M  END
$$$$
