CSD_code = LIGJUH | q = 0 | S = 0 | Stoichiometry = C26H24Cl2OP2Pt | MND = 4
 OpenBabel04212202063D

 56 61  0  0  1  0  0  0  0  0999 V2000
    3.5014   12.8397    3.8286 Pt  0  0  0  0  0  0  0  0  0  0  0  0
    1.8145   12.6920    5.3698 Cl  0  0  0  0  0  0  0  0  0  0  0  0
    4.0001   10.6071    4.0068 Cl  0  0  0  0  0  0  0  0  0  0  0  0
    2.9622   15.0244    3.6115 P   0  0  2  0  0  4  0  0  0  0  0  0
    5.1903   13.1915    2.3542 P   0  0  0  0  0  4  0  0  0  0  0  0
    4.3270   15.1908    0.7513 O   0  0  0  0  0  0  0  0  0  0  0  0
    4.4332   15.9348    2.9189 C   0  0  1  0  0  0  0  0  0  0  0  0
    5.0955   16.1886    3.7517 H   0  0  0  0  0  0  0  0  0  0  0  0
    5.1495   14.9929    1.8959 C   0  0  1  0  0  0  0  0  0  0  0  0
    6.4315   15.7066    1.5110 C   0  0  0  0  0  0  0  0  0  0  0  0
    7.4010   15.4556    1.8957 H   0  0  0  0  0  0  0  0  0  0  0  0
    6.0553   16.6877    0.7020 C   0  0  0  0  0  0  0  0  0  0  0  0
    6.6353   17.4595    0.2360 H   0  0  0  0  0  0  0  0  0  0  0  0
    4.5463   16.5833    0.6355 C   0  0  2  0  0  0  0  0  0  0  0  0
    4.0409   16.9926   -0.2344 H   0  0  0  0  0  0  0  0  0  0  0  0
    4.0722   17.1240    2.0184 C   0  0  0  0  0  0  0  0  0  0  0  0
    4.5949   18.0408    2.2868 H   0  0  0  0  0  0  0  0  0  0  0  0
    2.9996   17.3116    2.0023 H   0  0  0  0  0  0  0  0  0  0  0  0
    2.3667   16.0330    4.9758 C   0  0  0  0  0  0  0  0  0  0  0  0
    1.5022   15.5838    5.4533 H   0  0  0  0  0  0  0  0  0  0  0  0
    2.9126   17.1467    5.4423 C   0  0  0  0  0  0  0  0  0  0  0  0
    3.7838   17.6002    4.9982 H   0  0  0  0  0  0  0  0  0  0  0  0
    2.4993   17.6561    6.2982 H   0  0  0  0  0  0  0  0  0  0  0  0
    1.6338   15.1554    2.3857 C   0  0  0  0  0  0  0  0  0  0  0  0
    1.5099   14.1258    1.4576 C   0  0  0  0  0  0  0  0  0  0  0  0
    2.2051   13.2904    1.4927 H   0  0  0  0  0  0  0  0  0  0  0  0
    0.5062   14.1672    0.5091 C   0  0  0  0  0  0  0  0  0  0  0  0
    0.4113   13.3679   -0.2103 H   0  0  0  0  0  0  0  0  0  0  0  0
   -0.3843   15.2294    0.4895 C   0  0  0  0  0  0  0  0  0  0  0  0
   -1.1725   15.2596   -0.2481 H   0  0  0  0  0  0  0  0  0  0  0  0
   -0.2756   16.2467    1.4235 C   0  0  0  0  0  0  0  0  0  0  0  0
   -0.9790   17.0666    1.4156 H   0  0  0  0  0  0  0  0  0  0  0  0
    0.7293   16.2132    2.3739 C   0  0  0  0  0  0  0  0  0  0  0  0
    0.8054   16.9984    3.1148 H   0  0  0  0  0  0  0  0  0  0  0  0
    5.4399   12.3524    0.7702 C   0  0  0  0  0  0  0  0  0  0  0  0
    4.9197   11.0658    0.6562 C   0  0  0  0  0  0  0  0  0  0  0  0
    4.3917   10.6337    1.4968 H   0  0  0  0  0  0  0  0  0  0  0  0
    5.0930   10.3543   -0.5175 C   0  0  0  0  0  0  0  0  0  0  0  0
    4.6919    9.3557   -0.6042 H   0  0  0  0  0  0  0  0  0  0  0  0
    5.7776   10.9239   -1.5785 C   0  0  0  0  0  0  0  0  0  0  0  0
    5.9110   10.3702   -2.4964 H   0  0  0  0  0  0  0  0  0  0  0  0
    6.2914   12.2064   -1.4666 C   0  0  0  0  0  0  0  0  0  0  0  0
    6.8234   12.6496   -2.2960 H   0  0  0  0  0  0  0  0  0  0  0  0
    6.1278   12.9249   -0.2963 C   0  0  0  0  0  0  0  0  0  0  0  0
    6.5242   13.9266   -0.2162 H   0  0  0  0  0  0  0  0  0  0  0  0
    6.7762   13.0764    3.2324 C   0  0  0  0  0  0  0  0  0  0  0  0
    7.9828   12.7765    2.6104 C   0  0  0  0  0  0  0  0  0  0  0  0
    8.0106   12.5903    1.5458 H   0  0  0  0  0  0  0  0  0  0  0  0
    9.1418   12.7028    3.3634 C   0  0  0  0  0  0  0  0  0  0  0  0
   10.0791   12.4658    2.8817 H   0  0  0  0  0  0  0  0  0  0  0  0
    9.1017   12.9216    4.7308 C   0  0  0  0  0  0  0  0  0  0  0  0
   10.0088   12.8560    5.3130 H   0  0  0  0  0  0  0  0  0  0  0  0
    7.8975   13.2071    5.3557 C   0  0  0  0  0  0  0  0  0  0  0  0
    7.8640   13.3591    6.4240 H   0  0  0  0  0  0  0  0  0  0  0  0
    6.7369   13.2806    4.6095 C   0  0  0  0  0  0  0  0  0  0  0  0
    5.7774   13.4712    5.0894 H   0  0  0  0  0  0  0  0  0  0  0  0
  1  3  1  0  0  0  0
  1  2  1  0  0  0  0
  4  1  1  0  0  0  0
  4 19  1  1  0  0  0
  5 46  1  0  0  0  0
  5  1  1  0  0  0  0
  7  4  1  0  0  0  0
  7  8  1  1  0  0  0
  9  6  1  6  0  0  0
  9  5  1  0  0  0  0
  9  7  1  0  0  0  0
 10 11  1  0  0  0  0
 10  9  1  0  0  0  0
 12 10  2  0  0  0  0
 13 12  1  0  0  0  0
 14 15  1  6  0  0  0
 14 12  1  0  0  0  0
 14  6  1  0  0  0  0
 14 16  1  0  0  0  0
 16 17  1  0  0  0  0
 16  7  1  0  0  0  0
 18 16  1  0  0  0  0
 19 21  2  0  0  0  0
 19 20  1  0  0  0  0
 21 23  1  0  0  0  0
 22 21  1  0  0  0  0
 24  4  1  0  0  0  0
 25 26  1  0  0  0  0
 25 24  2  0  0  0  0
 27 25  1  0  0  0  0
 28 27  1  0  0  0  0
 29 27  2  0  0  0  0
 29 31  1  0  0  0  0
 30 29  1  0  0  0  0
 31 33  2  0  0  0  0
 32 31  1  0  0  0  0
 33 24  1  0  0  0  0
 33 34  1  0  0  0  0
 35  5  1  0  0  0  0
 36 35  1  0  0  0  0
 36 37  1  0  0  0  0
 38 36  2  0  0  0  0
 39 38  1  0  0  0  0
 40 42  2  0  0  0  0
 40 38  1  0  0  0  0
 41 40  1  0  0  0  0
 42 44  1  0  0  0  0
 43 42  1  0  0  0  0
 44 45  1  0  0  0  0
 44 35  2  0  0  0  0
 46 55  1  0  0  0  0
 47 46  2  0  0  0  0
 47 49  1  0  0  0  0
 48 47  1  0  0  0  0
 49 51  2  0  0  0  0
 50 49  1  0  0  0  0
 51 52  1  0  0  0  0
 51 53  1  0  0  0  0
 53 54  1  0  0  0  0
 55 56  1  0  0  0  0
 55 53  2  0  0  0  0
M  END
$$$$
