CSD_code = LIGNIZ | q = 0 | S = 0 | Stoichiometry = C21H21AuBrO3P | MND = 2
 OpenBabel04212202063D

 48 50  0  0  0  0  0  0  0  0999 V2000
   -0.0000    0.0001    4.6151 Au  0  0  0  0  0  0  0  0  0  0  0  0
    0.0001   -0.0000    2.2457 Br  0  0  0  0  0  0  0  0  0  0  0  0
   -0.0000    0.0000    6.8635 P   0  0  0  0  0  4  0  0  0  0  0  0
    0.4460   -2.5246    6.1492 O   0  0  0  0  0  0  0  0  0  0  0  0
    1.3094   -0.9793    7.6254 C   0  0  0  0  0  0  0  0  0  0  0  0
    1.4081   -2.2649    7.0712 C   0  0  0  0  0  0  0  0  0  0  0  0
    2.4135   -3.1242    7.4851 C   0  0  0  0  0  0  0  0  0  0  0  0
    3.3094   -2.6944    8.4531 C   0  0  0  0  0  0  0  0  0  0  0  0
    3.2160   -1.4271    9.0015 C   0  0  0  0  0  0  0  0  0  0  0  0
    2.2184   -0.5620    8.5822 C   0  0  0  0  0  0  0  0  0  0  0  0
    0.4734   -3.7504    5.4532 C   0  0  0  0  0  0  0  0  0  0  0  0
    2.5085   -4.1148    7.0683 H   0  0  0  0  0  0  0  0  0  0  0  0
    4.0912   -3.3643    8.7787 H   0  0  0  0  0  0  0  0  0  0  0  0
    3.9224   -1.1106    9.7539 H   0  0  0  0  0  0  0  0  0  0  0  0
    2.1394    0.4323    8.9987 H   0  0  0  0  0  0  0  0  0  0  0  0
    0.3196   -4.5937    6.1331 H   0  0  0  0  0  0  0  0  0  0  0  0
   -0.3467   -3.7058    4.7386 H   0  0  0  0  0  0  0  0  0  0  0  0
    1.4152   -3.8782    4.9120 H   0  0  0  0  0  0  0  0  0  0  0  0
    1.9634    1.6485    6.1493 O   0  0  0  0  0  0  0  0  0  0  0  0
   -2.4093    0.8761    6.1494 O   0  0  0  0  0  0  0  0  0  0  0  0
    0.1935    1.6236    7.6256 C   0  0  0  0  0  0  0  0  0  0  0  0
   -1.5028   -0.6441    7.6258 C   0  0  0  0  0  0  0  0  0  0  0  0
    1.2574    2.3519    7.0713 C   0  0  0  0  0  0  0  0  0  0  0  0
   -2.6655   -0.0870    7.0715 C   0  0  0  0  0  0  0  0  0  0  0  0
    1.4989    3.6522    7.4852 C   0  0  0  0  0  0  0  0  0  0  0  0
   -3.9124   -0.5281    7.4852 C   0  0  0  0  0  0  0  0  0  0  0  0
    0.6787    4.2133    8.4531 C   0  0  0  0  0  0  0  0  0  0  0  0
   -3.9882   -1.5189    8.4532 C   0  0  0  0  0  0  0  0  0  0  0  0
   -0.3721    3.4987    9.0016 C   0  0  0  0  0  0  0  0  0  0  0  0
   -2.8440   -2.0717    9.0016 C   0  0  0  0  0  0  0  0  0  0  0  0
   -0.6224    2.2022    8.5824 C   0  0  0  0  0  0  0  0  0  0  0  0
   -1.5960   -1.6401    8.5825 C   0  0  0  0  0  0  0  0  0  0  0  0
    3.0112    2.2851    5.4532 C   0  0  0  0  0  0  0  0  0  0  0  0
   -3.4844    1.4652    5.4532 C   0  0  0  0  0  0  0  0  0  0  0  0
    2.3092    4.2298    7.0682 H   0  0  0  0  0  0  0  0  0  0  0  0
   -4.8177   -0.1151    7.0682 H   0  0  0  0  0  0  0  0  0  0  0  0
    0.8679    5.2253    8.7786 H   0  0  0  0  0  0  0  0  0  0  0  0
   -4.9593   -1.8611    8.7785 H   0  0  0  0  0  0  0  0  0  0  0  0
   -0.9994    3.9522    9.7539 H   0  0  0  0  0  0  0  0  0  0  0  0
   -2.9231   -2.8418    9.7538 H   0  0  0  0  0  0  0  0  0  0  0  0
   -1.4441    1.6366    8.9989 H   0  0  0  0  0  0  0  0  0  0  0  0
   -0.6953   -2.0690    8.9989 H   0  0  0  0  0  0  0  0  0  0  0  0
    3.8184    2.5737    6.1330 H   0  0  0  0  0  0  0  0  0  0  0  0
   -4.1381    2.0199    6.1330 H   0  0  0  0  0  0  0  0  0  0  0  0
    3.3826    1.5526    4.7387 H   0  0  0  0  0  0  0  0  0  0  0  0
   -3.0357    2.1533    4.7388 H   0  0  0  0  0  0  0  0  0  0  0  0
    2.6509    3.1646    4.9119 H   0  0  0  0  0  0  0  0  0  0  0  0
   -4.0659    0.7135    4.9118 H   0  0  0  0  0  0  0  0  0  0  0  0
  1  3  1  0  0  0  0
  2  1  1  0  0  0  0
  3  5  1  0  0  0  0
  3 21  1  0  0  0  0
  3 22  1  0  0  0  0
  4  6  1  0  0  0  0
  5 10  1  0  0  0  0
  6  7  1  0  0  0  0
  6  5  2  0  0  0  0
  7  8  2  0  0  0  0
  8 13  1  0  0  0  0
  8  9  1  0  0  0  0
  9 14  1  0  0  0  0
 10 15  1  0  0  0  0
 10  9  2  0  0  0  0
 11 16  1  0  0  0  0
 11  4  1  0  0  0  0
 12  7  1  0  0  0  0
 17 11  1  0  0  0  0
 18 11  1  0  0  0  0
 19 23  1  0  0  0  0
 20 24  1  0  0  0  0
 21 31  1  0  0  0  0
 22 32  1  0  0  0  0
 23 25  1  0  0  0  0
 23 21  2  0  0  0  0
 24 26  1  0  0  0  0
 24 22  2  0  0  0  0
 25 27  2  0  0  0  0
 26 28  2  0  0  0  0
 27 37  1  0  0  0  0
 27 29  1  0  0  0  0
 28 38  1  0  0  0  0
 28 30  1  0  0  0  0
 29 39  1  0  0  0  0
 30 40  1  0  0  0  0
 31 41  1  0  0  0  0
 31 29  2  0  0  0  0
 32 42  1  0  0  0  0
 32 30  2  0  0  0  0
 33 43  1  0  0  0  0
 33 19  1  0  0  0  0
 34 44  1  0  0  0  0
 34 20  1  0  0  0  0
 35 25  1  0  0  0  0
 36 26  1  0  0  0  0
 45 33  1  0  0  0  0
 46 34  1  0  0  0  0
 47 33  1  0  0  0  0
 48 34  1  0  0  0  0
M  END
$$$$
