CSD_code = LIGNEV | q = 0 | S = 0 | Stoichiometry = C21H21AuClO3P | MND = 2
 OpenBabel04212202063D

 48 50  0  0  0  0  0  0  0  0999 V2000
   -0.3094    3.2959    1.7723 Au  0  0  0  0  0  0  0  0  0  0  0  0
   -1.6761    3.9839    0.0912 Cl  0  0  0  0  0  0  0  0  0  0  0  0
    1.1030    2.6592    3.3903 P   0  0  0  0  0  4  0  0  0  0  0  0
    1.6845    5.2031    3.0118 O   0  0  0  0  0  0  0  0  0  0  0  0
    1.6511    1.0772    1.3464 O   0  0  0  0  0  0  0  0  0  0  0  0
    2.7738    2.3930    5.7419 O   0  0  0  0  0  0  0  0  0  0  0  0
    2.7977    3.1907    3.0684 C   0  0  0  0  0  0  0  0  0  0  0  0
    2.8759    4.5733    2.8531 C   0  0  0  0  0  0  0  0  0  0  0  0
    4.0884    5.1558    2.5192 C   0  0  0  0  0  0  0  0  0  0  0  0
    5.2129    4.3512    2.4104 C   0  0  0  0  0  0  0  0  0  0  0  0
    5.1376    2.9856    2.6246 C   0  0  0  0  0  0  0  0  0  0  0  0
    3.9257    2.3992    2.9493 C   0  0  0  0  0  0  0  0  0  0  0  0
    1.5817    6.5740    2.7010 C   0  0  0  0  0  0  0  0  0  0  0  0
    1.1906    0.8704    3.5918 C   0  0  0  0  0  0  0  0  0  0  0  0
    1.4346    0.2170    2.3727 C   0  0  0  0  0  0  0  0  0  0  0  0
    1.4302   -1.1674    2.3103 C   0  0  0  0  0  0  0  0  0  0  0  0
    1.1677   -1.8912    3.4641 C   0  0  0  0  0  0  0  0  0  0  0  0
    0.8941   -1.2518    4.6608 C   0  0  0  0  0  0  0  0  0  0  0  0
    0.8907    0.1321    4.7242 C   0  0  0  0  0  0  0  0  0  0  0  0
    1.8130    0.5681    0.0422 C   0  0  0  0  0  0  0  0  0  0  0  0
    0.7516    3.3015    5.0440 C   0  0  0  0  0  0  0  0  0  0  0  0
    1.6747    3.1102    6.0828 C   0  0  0  0  0  0  0  0  0  0  0  0
    1.4043    3.6379    7.3379 C   0  0  0  0  0  0  0  0  0  0  0  0
    0.2306    4.3462    7.5486 C   0  0  0  0  0  0  0  0  0  0  0  0
   -0.6801    4.5370    6.5250 C   0  0  0  0  0  0  0  0  0  0  0  0
   -0.4137    4.0145    5.2707 C   0  0  0  0  0  0  0  0  0  0  0  0
    3.7706    2.1663    6.7073 C   0  0  0  0  0  0  0  0  0  0  0  0
    4.1682    6.2176    2.3445 H   0  0  0  0  0  0  0  0  0  0  0  0
    6.1593    4.8033    2.1537 H   0  0  0  0  0  0  0  0  0  0  0  0
    6.0246    2.3764    2.5354 H   0  0  0  0  0  0  0  0  0  0  0  0
    3.8532    1.3353    3.1205 H   0  0  0  0  0  0  0  0  0  0  0  0
    1.6187   -1.6848    1.3825 H   0  0  0  0  0  0  0  0  0  0  0  0
    1.1666   -2.9700    3.4190 H   0  0  0  0  0  0  0  0  0  0  0  0
    0.6744   -1.8322    5.5440 H   0  0  0  0  0  0  0  0  0  0  0  0
    0.6539    0.6381    5.6485 H   0  0  0  0  0  0  0  0  0  0  0  0
    2.0966    3.5053    8.1550 H   0  0  0  0  0  0  0  0  0  0  0  0
    0.0334    4.7525    8.5297 H   0  0  0  0  0  0  0  0  0  0  0  0
   -1.5887    5.0915    6.7008 H   0  0  0  0  0  0  0  0  0  0  0  0
   -1.1016    4.1560    4.4474 H   0  0  0  0  0  0  0  0  0  0  0  0
    2.1839    7.1802    3.3849 H   0  0  0  0  0  0  0  0  0  0  0  0
    1.8838    6.7698    1.6684 H   0  0  0  0  0  0  0  0  0  0  0  0
    0.5298    6.8272    2.8201 H   0  0  0  0  0  0  0  0  0  0  0  0
    1.8976    1.4376   -0.6070 H   0  0  0  0  0  0  0  0  0  0  0  0
    0.9460   -0.0248   -0.2624 H   0  0  0  0  0  0  0  0  0  0  0  0
    2.7220   -0.0368   -0.0354 H   0  0  0  0  0  0  0  0  0  0  0  0
    4.5501    1.6018    6.1985 H   0  0  0  0  0  0  0  0  0  0  0  0
    3.3880    1.5790    7.5486 H   0  0  0  0  0  0  0  0  0  0  0  0
    4.1903    3.1065    7.0788 H   0  0  0  0  0  0  0  0  0  0  0  0
  1  3  1  0  0  0  0
  2  1  1  0  0  0  0
  3 14  1  0  0  0  0
  3 21  1  0  0  0  0
  5 15  1  0  0  0  0
  6 22  1  0  0  0  0
  6 27  1  0  0  0  0
  7  3  1  0  0  0  0
  8  4  1  0  0  0  0
  8  7  2  0  0  0  0
  9  8  1  0  0  0  0
 10  9  2  0  0  0  0
 10 11  1  0  0  0  0
 11 12  2  0  0  0  0
 12  7  1  0  0  0  0
 12 31  1  0  0  0  0
 13 42  1  0  0  0  0
 13  4  1  0  0  0  0
 13 40  1  0  0  0  0
 14 19  1  0  0  0  0
 15 14  2  0  0  0  0
 16 15  1  0  0  0  0
 16 17  2  0  0  0  0
 17 18  1  0  0  0  0
 18 19  2  0  0  0  0
 18 34  1  0  0  0  0
 19 35  1  0  0  0  0
 20  5  1  0  0  0  0
 21 26  2  0  0  0  0
 21 22  1  0  0  0  0
 22 23  2  0  0  0  0
 23 24  1  0  0  0  0
 23 36  1  0  0  0  0
 24 37  1  0  0  0  0
 25 38  1  0  0  0  0
 25 24  2  0  0  0  0
 26 25  1  0  0  0  0
 27 48  1  0  0  0  0
 27 47  1  0  0  0  0
 28  9  1  0  0  0  0
 29 10  1  0  0  0  0
 30 11  1  0  0  0  0
 32 16  1  0  0  0  0
 33 17  1  0  0  0  0
 39 26  1  0  0  0  0
 41 13  1  0  0  0  0
 43 20  1  0  0  0  0
 44 20  1  0  0  0  0
 45 20  1  0  0  0  0
 46 27  1  0  0  0  0
M  END
$$$$
