CSD_code = LIGRIF | q = 0 | S = 0 | Stoichiometry = C22H21AuClOP | MND = 2
 OpenBabel04212202063D

 47 50  0  0  1  0  0  0  0  0999 V2000
    1.5685    1.8791   16.6312 Au  0  0  0  0  0  0  0  0  0  0  0  0
    0.2334    1.5308   14.8460 Cl  0  0  0  0  0  0  0  0  0  0  0  0
    2.9514    2.2572   18.3574 P   0  0  1  0  0  4  0  0  0  0  0  0
    3.7708    0.9718   18.9570 O   0  0  0  0  0  0  0  0  0  0  0  0
    5.0325    1.2929   18.2981 C   0  0  1  0  0  0  0  0  0  0  0  0
    5.1404    0.6389   17.4269 H   0  0  0  0  0  0  0  0  0  0  0  0
    4.6768    2.7364   17.8980 C   0  0  0  0  0  0  0  0  0  0  0  0
    4.8312    2.9891   16.8505 H   0  0  0  0  0  0  0  0  0  0  0  0
    5.1374    3.4814   18.5489 H   0  0  0  0  0  0  0  0  0  0  0  0
    6.2127    1.1209   19.2266 C   0  0  0  0  0  0  0  0  0  0  0  0
    7.1294    1.3477   18.6877 H   0  0  0  0  0  0  0  0  0  0  0  0
    6.1242    1.7869   20.0809 H   0  0  0  0  0  0  0  0  0  0  0  0
    6.2553    0.0946   19.5823 H   0  0  0  0  0  0  0  0  0  0  0  0
    2.3313    3.2739   19.8087 C   0  0  0  0  0  0  0  0  0  0  0  0
    1.5608    2.3542   20.7317 C   0  0  0  0  0  0  0  0  0  0  0  0
    1.0698    1.1379   20.2839 C   0  0  0  0  0  0  0  0  0  0  0  0
    1.2651    0.8235   19.2632 H   0  0  0  0  0  0  0  0  0  0  0  0
    0.3357    0.3187   21.1237 C   0  0  0  0  0  0  0  0  0  0  0  0
   -0.0363   -0.6263   20.7581 H   0  0  0  0  0  0  0  0  0  0  0  0
    0.0811    0.7129   22.4255 C   0  0  0  0  0  0  0  0  0  0  0  0
   -0.4908    0.0757   23.0830 H   0  0  0  0  0  0  0  0  0  0  0  0
    0.5637    1.9286   22.8816 C   0  0  0  0  0  0  0  0  0  0  0  0
    0.3667    2.2441   23.8955 H   0  0  0  0  0  0  0  0  0  0  0  0
    1.2986    2.7453   22.0420 C   0  0  0  0  0  0  0  0  0  0  0  0
    1.6734    3.6932   22.4024 H   0  0  0  0  0  0  0  0  0  0  0  0
    1.4224    4.2834   19.1387 C   0  0  0  0  0  0  0  0  0  0  0  0
    0.1723    4.6185   19.6387 C   0  0  0  0  0  0  0  0  0  0  0  0
   -0.1827    4.1709   20.5546 H   0  0  0  0  0  0  0  0  0  0  0  0
   -0.6311    5.5221   18.9634 C   0  0  0  0  0  0  0  0  0  0  0  0
   -1.6031    5.7694   19.3630 H   0  0  0  0  0  0  0  0  0  0  0  0
   -0.2008    6.0984   17.7815 C   0  0  0  0  0  0  0  0  0  0  0  0
   -0.8346    6.7942   17.2536 H   0  0  0  0  0  0  0  0  0  0  0  0
    1.0463    5.7737   17.2756 C   0  0  0  0  0  0  0  0  0  0  0  0
    1.3923    6.2149   16.3533 H   0  0  0  0  0  0  0  0  0  0  0  0
    1.8476    4.8709   17.9497 C   0  0  0  0  0  0  0  0  0  0  0  0
    2.8331    4.6350   17.5613 H   0  0  0  0  0  0  0  0  0  0  0  0
    3.5120    3.8864   20.5272 C   0  0  0  0  0  0  0  0  0  0  0  0
    3.8655    5.2236   20.3876 C   0  0  0  0  0  0  0  0  0  0  0  0
    3.2743    5.8776   19.7644 H   0  0  0  0  0  0  0  0  0  0  0  0
    4.9651    5.7323   21.0583 C   0  0  0  0  0  0  0  0  0  0  0  0
    5.2230    6.7744   20.9416 H   0  0  0  0  0  0  0  0  0  0  0  0
    5.7270    4.9160   21.8758 C   0  0  0  0  0  0  0  0  0  0  0  0
    6.5831    5.3158   22.3978 H   0  0  0  0  0  0  0  0  0  0  0  0
    5.3780    3.5840   22.0259 C   0  0  0  0  0  0  0  0  0  0  0  0
    5.9607    2.9403   22.6689 H   0  0  0  0  0  0  0  0  0  0  0  0
    4.2804    3.0724   21.3573 C   0  0  0  0  0  0  0  0  0  0  0  0
    4.0033    2.0361   21.4872 H   0  0  0  0  0  0  0  0  0  0  0  0
  2  1  1  0  0  0  0
  3  1  1  6  0  0  0
  3  4  1  0  0  0  0
  3 14  1  0  0  0  0
  5  6  1  6  0  0  0
  5  4  1  0  0  0  0
  5 10  1  0  0  0  0
  7  5  1  0  0  0  0
  7  3  1  0  0  0  0
  7  9  1  0  0  0  0
  8  7  1  0  0  0  0
 10 13  1  0  0  0  0
 10 12  1  0  0  0  0
 11 10  1  0  0  0  0
 14 37  1  0  0  0  0
 14 15  1  0  0  0  0
 15 24  1  0  0  0  0
 16 15  2  0  0  0  0
 16 18  1  0  0  0  0
 17 16  1  0  0  0  0
 18 20  2  0  0  0  0
 19 18  1  0  0  0  0
 20 22  1  0  0  0  0
 20 21  1  0  0  0  0
 22 23  1  0  0  0  0
 24 25  1  0  0  0  0
 24 22  2  0  0  0  0
 26 27  1  0  0  0  0
 26 14  1  0  0  0  0
 27 28  1  0  0  0  0
 29 30  1  0  0  0  0
 29 27  2  0  0  0  0
 31 29  1  0  0  0  0
 32 31  1  0  0  0  0
 33 31  2  0  0  0  0
 33 35  1  0  0  0  0
 34 33  1  0  0  0  0
 35 26  2  0  0  0  0
 36 35  1  0  0  0  0
 37 46  1  0  0  0  0
 38 37  2  0  0  0  0
 38 40  1  0  0  0  0
 39 38  1  0  0  0  0
 40 42  2  0  0  0  0
 41 40  1  0  0  0  0
 42 44  1  0  0  0  0
 42 43  1  0  0  0  0
 44 45  1  0  0  0  0
 46 47  1  0  0  0  0
 46 44  2  0  0  0  0
M  END
$$$$
