CSD_code = LIHDIR | q = 0 | S = 0 | Stoichiometry = C30H33ClN2Pd | MND = 5
 OpenBabel04212202063D

 67 69  0  0  1  0  0  0  0  0999 V2000
    6.0486   -0.5223   13.0009 Pd  0  0  0  0  0  0  0  0  0  0  0  0
    7.4663   -2.0944   12.0814 Cl  0  0  0  0  0 15  0  0  0  0  0  0
    6.1024    1.5060   10.7496 N   0  0  0  0  0  0  0  0  0  0  0  0
    5.7810    0.2673   11.1703 C   0  0  1  0  0  3  0  0  0  0  0  0
    5.3729   -0.4002   10.0766 N   0  0  0  0  0  0  0  0  0  0  0  0
    5.8899    1.6168    9.3980 C   0  0  0  0  0  0  0  0  0  0  0  0
    6.0920    2.5178    8.8566 H   0  0  0  0  0  0  0  0  0  0  0  0
    5.4349    0.4144    8.9751 C   0  0  0  0  0  0  0  0  0  0  0  0
    5.1326    0.0888    8.0010 H   0  0  0  0  0  0  0  0  0  0  0  0
    6.4876    2.5560   11.6266 C   0  0  0  0  0  0  0  0  0  0  0  0
    7.6997    2.4821   12.3190 C   0  0  0  0  0  0  0  0  0  0  0  0
    8.0314    3.5245   13.1749 C   0  0  0  0  0  0  0  0  0  0  0  0
    8.9672    3.4782   13.7135 H   0  0  0  0  0  0  0  0  0  0  0  0
    7.1936    4.6132   13.3611 C   0  0  0  0  0  0  0  0  0  0  0  0
    5.9858    4.6473   12.6779 C   0  0  0  0  0  0  0  0  0  0  0  0
    5.3139    5.4800   12.8294 H   0  0  0  0  0  0  0  0  0  0  0  0
    5.6130    3.6289   11.8151 C   0  0  0  0  0  0  0  0  0  0  0  0
    8.6191    1.3098   12.1717 C   0  0  0  0  0  0  0  0  0  0  0  0
    8.2593    0.4620   12.7873 H   0  0  0  0  0  0  0  0  0  0  0  0
    9.6220    1.5647   12.5051 H   0  0  0  0  0  0  0  0  0  0  0  0
    8.6649    0.9627   11.1400 H   0  0  0  0  0  0  0  0  0  0  0  0
    7.5849    5.7364   14.2717 C   0  0  0  0  0  0  0  0  0  0  0  0
    8.2849    5.3962   15.0307 H   0  0  0  0  0  0  0  0  0  0  0  0
    6.7114    6.1619   14.7604 H   0  0  0  0  0  0  0  0  0  0  0  0
    8.0672    6.5280   13.6974 H   0  0  0  0  0  0  0  0  0  0  0  0
    4.2802    3.6683   11.1277 C   0  0  0  0  0  0  0  0  0  0  0  0
    3.6233    4.3794   11.6218 H   0  0  0  0  0  0  0  0  0  0  0  0
    3.8092    2.6865   11.1470 H   0  0  0  0  0  0  0  0  0  0  0  0
    4.3846    3.9729   10.0866 H   0  0  0  0  0  0  0  0  0  0  0  0
    4.9764   -1.7665   10.0937 C   0  0  0  0  0  0  0  0  0  0  0  0
    3.8443   -2.1361   10.8223 C   0  0  0  0  0  0  0  0  0  0  0  0
    3.4977   -3.4791   10.8767 C   0  0  0  0  0  0  0  0  0  0  0  0
    2.6297   -3.7731   11.4504 H   0  0  0  0  0  0  0  0  0  0  0  0
    4.2455   -4.4456   10.2244 C   0  0  0  0  0  0  0  0  0  0  0  0
    5.3559   -4.0464    9.4938 C   0  0  0  0  0  0  0  0  0  0  0  0
    5.9532   -4.7941    8.9927 H   0  0  0  0  0  0  0  0  0  0  0  0
    5.7445   -2.7191    9.4193 C   0  0  0  0  0  0  0  0  0  0  0  0
    3.0068   -1.1139   11.5388 C   0  0  0  0  0  0  0  0  0  0  0  0
    2.8193   -0.2474   10.9043 H   0  0  0  0  0  0  0  0  0  0  0  0
    3.5275   -0.7665   12.4446 H   0  0  0  0  0  0  0  0  0  0  0  0
    2.0531   -1.5453   11.8333 H   0  0  0  0  0  0  0  0  0  0  0  0
    3.8887   -5.8970   10.3234 C   0  0  0  0  0  0  0  0  0  0  0  0
    2.8885   -6.0285   10.7290 H   0  0  0  0  0  0  0  0  0  0  0  0
    4.5965   -6.4045   10.9787 H   0  0  0  0  0  0  0  0  0  0  0  0
    3.9395   -6.3742    9.3466 H   0  0  0  0  0  0  0  0  0  0  0  0
    7.0082   -2.3394    8.7144 C   0  0  0  0  0  0  0  0  0  0  0  0
    7.4366   -3.2028    8.2136 H   0  0  0  0  0  0  0  0  0  0  0  0
    7.7175   -1.9865    9.4640 H   0  0  0  0  0  0  0  0  0  0  0  0
    6.8549   -1.5500    7.9816 H   0  0  0  0  0  0  0  0  0  0  0  0
    5.1854    0.8705   14.3387 C   0  0  0  0  0  3  0  0  0  0  0  0
    6.0373    1.5122   14.5733 H   0  0  0  0  0  0  0  0  0  0  0  0
    4.2539    1.4114   14.2106 H   0  0  0  0  0  0  0  0  0  0  0  0
    5.1427   -0.4263   14.8788 C   0  0  2  0  0  0  0  0  0  0  0  0
    4.1801   -0.9311   14.9830 H   0  0  0  0  0  0  0  0  0  0  0  0
    6.3249   -1.1811   14.9991 C   0  0  0  0  0  3  0  0  0  0  0  0
    7.2355   -0.6870   15.3577 H   0  0  0  0  0  0  0  0  0  0  0  0
    6.2268   -2.6282   15.2187 C   0  0  0  0  0  0  0  0  0  0  0  0
    5.3575   -3.3787   14.4193 C   0  0  0  0  0  0  0  0  0  0  0  0
    4.8024   -2.8880   13.6153 H   0  0  0  0  0  0  0  0  0  0  0  0
    5.2518   -4.7439   14.5879 C   0  0  0  0  0  0  0  0  0  0  0  0
    4.5890   -5.3135   13.9519 H   0  0  0  0  0  0  0  0  0  0  0  0
    6.0060   -5.3860   15.5580 C   0  0  0  0  0  0  0  0  0  0  0  0
    5.9248   -6.4555   15.6884 H   0  0  0  0  0  0  0  0  0  0  0  0
    6.8801   -4.6553   16.3446 C   0  0  0  0  0  0  0  0  0  0  0  0
    7.4811   -5.1550   17.0912 H   0  0  0  0  0  0  0  0  0  0  0  0
    6.9952   -3.2881   16.1746 C   0  0  0  0  0  0  0  0  0  0  0  0
    7.6868   -2.7228   16.7846 H   0  0  0  0  0  0  0  0  0  0  0  0
  1 53  1  0  0  0  0
  3  4  1  0  0  0  0
  3 10  1  0  0  0  0
  4  1  1  6  0  0  0
  5 30  1  0  0  0  0
  5  4  1  0  0  0  0
  6  3  1  0  0  0  0
  7  6  1  0  0  0  0
  8  6  2  0  0  0  0
  8  5  1  0  0  0  0
  9  8  1  0  0  0  0
 10 17  2  0  0  0  0
 10 11  1  0  0  0  0
 11 12  2  0  0  0  0
 12 14  1  0  0  0  0
 12 13  1  0  0  0  0
 14 22  1  0  0  0  0
 15 16  1  0  0  0  0
 15 14  2  0  0  0  0
 17 15  1  0  0  0  0
 18 11  1  0  0  0  0
 18 20  1  0  0  0  0
 18 19  1  0  0  0  0
 21 18  1  0  0  0  0
 22 24  1  0  0  0  0
 22 23  1  0  0  0  0
 25 22  1  0  0  0  0
 26 28  1  0  0  0  0
 26 27  1  0  0  0  0
 26 17  1  0  0  0  0
 29 26  1  0  0  0  0
 30 31  1  0  0  0  0
 31 32  2  0  0  0  0
 31 38  1  0  0  0  0
 32 33  1  0  0  0  0
 34 42  1  0  0  0  0
 34 32  1  0  0  0  0
 35 34  2  0  0  0  0
 36 35  1  0  0  0  0
 37 35  1  0  0  0  0
 37 30  2  0  0  0  0
 38 41  1  0  0  0  0
 38 40  1  0  0  0  0
 39 38  1  0  0  0  0
 42 43  1  0  0  0  0
 42 44  1  0  0  0  0
 45 42  1  0  0  0  0
 46 37  1  0  0  0  0
 46 48  1  0  0  0  0
 47 46  1  0  0  0  0
 49 46  1  0  0  0  0
 50 51  1  0  0  0  0
 50 53  1  0  0  0  0
 52 50  1  0  0  0  0
 53 54  1  1  0  0  0
 53 55  1  0  0  0  0
 55 57  1  0  0  0  0
 55 56  1  0  0  0  0
 57 66  1  0  0  0  0
 58 60  1  0  0  0  0
 58 57  2  0  0  0  0
 59 58  1  0  0  0  0
 60 62  2  0  0  0  0
 61 60  1  0  0  0  0
 62 63  1  0  0  0  0
 62 64  1  0  0  0  0
 64 65  1  0  0  0  0
 66 64  2  0  0  0  0
 66 67  1  0  0  0  0
M  END
$$$$
