CSD_code = LIHLOG | q = 0 | S = 0 | Stoichiometry = C6H12Cl2N4Pd | MND = 4
 OpenBabel04212202063D

 25 24  0  0  0  0  0  0  0  0999 V2000
   -0.2839    3.9194    6.2571 Pd  0  0  0  0  0  0  0  0  0  0  0  0
    0.9347    5.1753    4.7736 Cl  0  0  0  0  0  0  0  0  0  0  0  0
    1.9145    3.4846    9.8524 N   0  0  0  0  0  0  0  0  0  0  0  0
    1.0338    3.9955    7.6246 N   0  0  0  0  0  0  0  0  0  0  0  0
    1.4687    3.7731    8.6761 C   0  0  0  0  0  2  0  0  0  0  0  0
    1.0673    2.7122   10.7387 C   0  0  0  0  0  0  0  0  0  0  0  0
    0.8162    3.2991   11.6256 H   0  0  0  0  0  0  0  0  0  0  0  0
    1.5863    1.8021   11.0476 H   0  0  0  0  0  0  0  0  0  0  0  0
    0.1501    2.4432   10.2155 H   0  0  0  0  0  0  0  0  0  0  0  0
    3.1826    3.9625   10.3486 C   0  0  0  0  0  0  0  0  0  0  0  0
    3.7066    4.5048    9.5645 H   0  0  0  0  0  0  0  0  0  0  0  0
    3.7970    3.1176   10.6697 H   0  0  0  0  0  0  0  0  0  0  0  0
    3.0294    4.6293   11.2019 H   0  0  0  0  0  0  0  0  0  0  0  0
   -1.5030    2.6639    7.7408 Cl  0  0  0  0  0  0  0  0  0  0  0  0
   -2.4828    4.3562    2.6624 N   0  0  0  0  0  0  0  0  0  0  0  0
   -1.6017    3.8432    4.8896 N   0  0  0  0  0  2  0  0  0  0  0  0
   -2.0365    4.0663    3.8383 C   0  0  0  0  0  2  0  0  0  0  0  0
   -1.6356    5.1281    1.7759 C   0  0  0  0  0  0  0  0  0  0  0  0
   -1.3856    4.5413    0.8886 H   0  0  0  0  0  0  0  0  0  0  0  0
   -2.1538    6.0389    1.4678 H   0  0  0  0  0  0  0  0  0  0  0  0
   -0.7177    5.3960    2.2986 H   0  0  0  0  0  0  0  0  0  0  0  0
   -3.7512    3.8785    2.1665 C   0  0  0  0  0  0  0  0  0  0  0  0
   -4.2749    3.3360    2.9506 H   0  0  0  0  0  0  0  0  0  0  0  0
   -4.3656    4.7235    1.8458 H   0  0  0  0  0  0  0  0  0  0  0  0
   -3.5983    3.2120    1.3129 H   0  0  0  0  0  0  0  0  0  0  0  0
  1  4  2  0  0  0  0
  1 14  1  0  0  0  0
  2  1  1  0  0  0  0
  3 10  1  0  0  0  0
  3  6  1  0  0  0  0
  4  5  1  0  0  0  0
  5  3  1  0  0  0  0
  6  8  1  0  0  0  0
  6  7  1  0  0  0  0
  9  6  1  0  0  0  0
 10 12  1  0  0  0  0
 10 13  1  0  0  0  0
 11 10  1  0  0  0  0
 15 17  1  0  0  0  0
 16  1  1  0  0  0  0
 17 16  1  0  0  0  0
 18 21  1  0  0  0  0
 18 15  1  0  0  0  0
 19 18  1  0  0  0  0
 20 18  1  0  0  0  0
 22 15  1  0  0  0  0
 22 23  1  0  0  0  0
 24 22  1  0  0  0  0
 25 22  1  0  0  0  0
M  END
$$$$
