CSD_code = LIHNUM | q = 0 | S = 0 | Stoichiometry = C18H22Cl2N4Pd | MND = 4
 OpenBabel04212202063D

 47 50  0  0  1  0  0  0  0  0999 V2000
    6.8453    3.4548    1.5759 Pd  0  0  0  0  0  0  0  0  0  0  0  0
    6.8193    5.3430    0.3917 Cl  0  0  0  0  0  0  0  0  0  0  0  0
    7.0851    2.2743   -0.3016 Cl  0  0  0  0  0  0  0  0  0  0  0  0
    7.1121    1.8342    2.8308 N   0  0  2  0  0  0  0  0  0  0  0  0
    7.9804    1.9871    3.8495 N   0  0  0  0  0  0  0  0  0  0  0  0
    6.5787    4.4485    3.3468 N   0  0  2  0  0  0  0  0  0  0  0  0
    7.4059    4.2116    4.3776 N   0  0  0  0  0  0  0  0  0  0  0  0
    6.7718    0.5600    2.7761 C   0  0  1  0  0  3  0  0  0  0  0  0
    7.4504   -0.1380    3.7900 C   0  0  0  0  0  0  0  0  0  0  0  0
    7.3883   -1.1855    4.0000 H   0  0  0  0  0  0  0  0  0  0  0  0
    8.2118    0.7944    4.4564 C   0  0  0  0  0  0  0  0  0  0  0  0
    5.7955    0.0623    1.7786 C   0  0  0  0  0  0  0  0  0  0  0  0
    5.1844    0.8962    1.4247 H   0  0  0  0  0  0  0  0  0  0  0  0
    5.1646   -0.7121    2.2087 H   0  0  0  0  0  0  0  0  0  0  0  0
    6.3223   -0.3460    0.9170 H   0  0  0  0  0  0  0  0  0  0  0  0
    9.1387    0.6211    5.6029 C   0  0  0  0  0  0  0  0  0  0  0  0
    8.8132    1.1966    6.4703 H   0  0  0  0  0  0  0  0  0  0  0  0
   10.1466    0.9341    5.3314 H   0  0  0  0  0  0  0  0  0  0  0  0
    9.1661   -0.4281    5.8812 H   0  0  0  0  0  0  0  0  0  0  0  0
    5.6143    5.2435    3.7695 C   0  0  2  0  0  3  0  0  0  0  0  0
    5.8356    5.5432    5.1261 C   0  0  0  0  0  0  0  0  0  0  0  0
    5.2339    6.1693    5.7519 H   0  0  0  0  0  0  0  0  0  0  0  0
    6.9784    4.8669    5.4890 C   0  0  0  0  0  0  0  0  0  0  0  0
    4.5127    5.6538    2.8649 C   0  0  0  0  0  0  0  0  0  0  0  0
    4.4430    4.9353    2.0388 H   0  0  0  0  0  0  0  0  0  0  0  0
    4.7246    6.6325    2.4358 H   0  0  0  0  0  0  0  0  0  0  0  0
    3.5684    5.7012    3.4021 H   0  0  0  0  0  0  0  0  0  0  0  0
    7.6835    4.8037    6.7943 C   0  0  0  0  0  0  0  0  0  0  0  0
    8.7154    5.1411    6.6997 H   0  0  0  0  0  0  0  0  0  0  0  0
    7.6853    3.7879    7.1914 H   0  0  0  0  0  0  0  0  0  0  0  0
    7.1753    5.4473    7.5062 H   0  0  0  0  0  0  0  0  0  0  0  0
    8.5047    3.2890    4.2185 C   0  0  2  0  0  0  0  0  0  0  0  0
    8.9933    3.1691    5.1907 H   0  0  0  0  0  0  0  0  0  0  0  0
    9.5349    3.8176    3.1891 C   0  0  0  0  0  0  0  0  0  0  0  0
    9.0022    4.1902    2.2908 H   0  0  0  0  0  0  0  0  0  0  0  0
   10.0757    4.6491    3.6451 H   0  0  0  0  0  0  0  0  0  0  0  0
   10.4675    2.7053    2.7949 C   0  0  0  0  0  0  0  0  0  0  0  0
   11.5700    2.3863    3.5779 C   0  0  0  0  0  0  0  0  0  0  0  0
   11.8034    2.9846    4.4489 H   0  0  0  0  0  0  0  0  0  0  0  0
   12.3792    1.3157    3.2386 C   0  0  0  0  0  0  0  0  0  0  0  0
   13.2382    1.0768    3.8487 H   0  0  0  0  0  0  0  0  0  0  0  0
   12.0865    0.5530    2.1204 C   0  0  0  0  0  0  0  0  0  0  0  0
   12.7170   -0.2840    1.8601 H   0  0  0  0  0  0  0  0  0  0  0  0
   10.9922    0.8715    1.3335 C   0  0  0  0  0  0  0  0  0  0  0  0
   10.7642    0.2873    0.4555 H   0  0  0  0  0  0  0  0  0  0  0  0
   10.1857    1.9451    1.6669 C   0  0  0  0  0  0  0  0  0  0  0  0
    9.3342    2.2015    1.0388 H   0  0  0  0  0  0  0  0  0  0  0  0
  1  4  1  0  0  0  0
  1  6  1  0  0  0  0
  2  1  1  0  0  0  0
  3  1  1  0  0  0  0
  4  5  1  6  0  0  0
  5 32  1  0  0  0  0
  5 11  1  0  0  0  0
  6 20  1  0  0  0  0
  6  7  1  1  0  0  0
  7 23  1  0  0  0  0
  8 12  1  1  0  0  0
  8  4  1  0  0  0  0
  8  9  1  0  0  0  0
  9 10  1  0  0  0  0
  9 11  2  0  0  0  0
 11 16  1  0  0  0  0
 12 14  1  0  0  0  0
 13 12  1  0  0  0  0
 15 12  1  0  0  0  0
 16 19  1  0  0  0  0
 16 17  1  0  0  0  0
 18 16  1  0  0  0  0
 20 24  1  1  0  0  0
 20 21  1  0  0  0  0
 21 23  2  0  0  0  0
 21 22  1  0  0  0  0
 23 28  1  0  0  0  0
 24 27  1  0  0  0  0
 25 24  1  0  0  0  0
 26 24  1  0  0  0  0
 28 30  1  0  0  0  0
 28 31  1  0  0  0  0
 29 28  1  0  0  0  0
 32  7  1  0  0  0  0
 32 33  1  1  0  0  0
 34 36  1  0  0  0  0
 34 32  1  0  0  0  0
 35 34  1  0  0  0  0
 37 34  1  0  0  0  0
 37 38  1  0  0  0  0
 38 39  1  0  0  0  0
 40 38  2  0  0  0  0
 40 41  1  0  0  0  0
 42 40  1  0  0  0  0
 43 42  1  0  0  0  0
 44 46  1  0  0  0  0
 44 42  2  0  0  0  0
 45 44  1  0  0  0  0
 46 37  2  0  0  0  0
 47 46  1  0  0  0  0
M  END
$$$$
