CSD_code = LIHPIE | q = 1 | S = 0 | Stoichiometry = C6H18Cl2CoN4(1+) | MND = 6
 OpenBabel04212202063D

 31 33  0  0  0  0  0  0  0  0999 V2000
    4.2830    8.5203    6.4234 Co  0  0  0  0  0  0  0  0  0  0  0  0
    3.0128    8.7954    8.1761 Cl  0  0  0  0  0  0  0  0  0  0  0  0
    6.0561    8.6622    7.6274 Cl  0  0  0  0  0  0  0  0  0  0  0  0
    2.7723    8.3366    5.1128 N   0  0  0  0  0  4  0  0  0  0  0  0
    4.0724    6.5914    6.7258 N   0  0  0  0  0  4  0  0  0  0  0  0
    5.4530    8.2920    4.7982 N   0  0  0  0  0  4  0  0  0  0  0  0
    4.1296   10.4570    6.1721 N   0  0  0  0  0  4  0  0  0  0  0  0
    1.9788    7.2085    5.6235 C   0  0  0  0  0  0  0  0  0  0  0  0
    1.2214    6.8882    4.9006 H   0  0  0  0  0  0  0  0  0  0  0  0
    1.4797    7.5367    6.5356 H   0  0  0  0  0  0  0  0  0  0  0  0
    2.9206    6.0526    5.9703 C   0  0  0  0  0  0  0  0  0  0  0  0
    2.3780    5.3075    6.5586 H   0  0  0  0  0  0  0  0  0  0  0  0
    3.2743    5.5632    5.0617 H   0  0  0  0  0  0  0  0  0  0  0  0
    2.0634    9.6253    5.1839 C   0  0  0  0  0  0  0  0  0  0  0  0
    1.5282    9.6607    6.1335 H   0  0  0  0  0  0  0  0  0  0  0  0
    1.3430    9.7363    4.3673 H   0  0  0  0  0  0  0  0  0  0  0  0
    3.0949   10.7574    5.1640 C   0  0  0  0  0  0  0  0  0  0  0  0
    3.5681   10.8376    4.1823 H   0  0  0  0  0  0  0  0  0  0  0  0
    2.5977   11.7090    5.3732 H   0  0  0  0  0  0  0  0  0  0  0  0
    3.2701    8.0814    3.7434 C   0  0  0  0  0  0  0  0  0  0  0  0
    2.6278    7.3584    3.2336 H   0  0  0  0  0  0  0  0  0  0  0  0
    3.2267    9.0110    3.1762 H   0  0  0  0  0  0  0  0  0  0  0  0
    4.7200    7.5795    3.7465 C   0  0  0  0  0  0  0  0  0  0  0  0
    4.7647    6.5108    3.9524 H   0  0  0  0  0  0  0  0  0  0  0  0
    5.1618    7.7413    2.7576 H   0  0  0  0  0  0  0  0  0  0  0  0
    4.9754   11.0046    6.0070 H   0  0  0  0  0  0  0  0  0  0  0  0
    3.7864   10.7533    7.0923 H   0  0  0  0  0  0  0  0  0  0  0  0
    5.7582    9.2004    4.4518 H   0  0  0  0  0  0  0  0  0  0  0  0
    6.3106    7.8013    5.0505 H   0  0  0  0  0  0  0  0  0  0  0  0
    3.8424    6.5770    7.7244 H   0  0  0  0  0  0  0  0  0  0  0  0
    4.8896    5.9889    6.6251 H   0  0  0  0  0  0  0  0  0  0  0  0
  1  5  1  0  0  0  0
  1  3  1  0  0  0  0
  1  2  1  0  0  0  0
  4 14  1  0  0  0  0
  4  8  1  0  0  0  0
  4  1  1  0  0  0  0
  5 30  1  0  0  0  0
  6 29  1  0  0  0  0
  6  1  1  0  0  0  0
  7  1  1  0  0  0  0
  7 27  1  0  0  0  0
  8 11  1  0  0  0  0
  8 10  1  0  0  0  0
  9  8  1  0  0  0  0
 11 12  1  0  0  0  0
 11  5  1  0  0  0  0
 13 11  1  0  0  0  0
 14 15  1  0  0  0  0
 16 14  1  0  0  0  0
 17 14  1  0  0  0  0
 17 19  1  0  0  0  0
 17  7  1  0  0  0  0
 18 17  1  0  0  0  0
 20 23  1  0  0  0  0
 20  4  1  0  0  0  0
 21 20  1  0  0  0  0
 22 20  1  0  0  0  0
 23 24  1  0  0  0  0
 23  6  1  0  0  0  0
 25 23  1  0  0  0  0
 26  7  1  0  0  0  0
 28  6  1  0  0  0  0
 31  5  1  0  0  0  0
M  END
$$$$
