CSD_code = LIHPOK | q = 1 | S = 0 | Stoichiometry = C6H18Cl2CoN4(1+) | MND = 6
 OpenBabel04212202063D

 31 33  0  0  0  0  0  0  0  0999 V2000
   -0.1790    0.9652    9.4473 Co  0  0  0  0  0  0  0  0  0  0  0  0
    1.5277    1.3206   10.7590 Cl  0  0  0  0  0  0  0  0  0  0  0  0
    0.9298   -0.4949    8.3284 Cl  0  0  0  0  0  0  0  0  0  0  0  0
   -1.3882    2.3015   10.3333 N   0  0  0  0  0  4  0  0  0  0  0  0
   -0.7805   -0.3205   10.7974 N   0  0  0  0  0  4  0  0  0  0  0  0
    0.0779   -0.4574   11.3421 H   0  0  0  0  0  0  0  0  0  0  0  0
   -1.0674   -1.2542   10.5003 H   0  0  0  0  0  0  0  0  0  0  0  0
   -1.7657    0.6223    8.2532 N   0  0  0  0  0  4  0  0  0  0  0  0
   -1.4512    0.3779    7.3144 H   0  0  0  0  0  0  0  0  0  0  0  0
   -2.2855   -0.1906    8.5803 H   0  0  0  0  0  0  0  0  0  0  0  0
    0.4833    2.4764    8.3829 N   0  0  0  0  0  4  0  0  0  0  0  0
    1.4741    2.4780    8.6444 H   0  0  0  0  0  0  0  0  0  0  0  0
    0.4700    2.3998    7.3654 H   0  0  0  0  0  0  0  0  0  0  0  0
   -0.1225    3.7513    8.8255 C   0  0  0  0  0  0  0  0  0  0  0  0
   -0.9321    4.0276    8.1484 H   0  0  0  0  0  0  0  0  0  0  0  0
    0.6118    4.5613    8.8123 H   0  0  0  0  0  0  0  0  0  0  0  0
   -0.6540    3.5732   10.2501 C   0  0  0  0  0  0  0  0  0  0  0  0
    0.1939    3.5148   10.9332 H   0  0  0  0  0  0  0  0  0  0  0  0
   -1.2833    4.4217   10.5379 H   0  0  0  0  0  0  0  0  0  0  0  0
   -1.5388    1.8068   11.7119 C   0  0  0  0  0  0  0  0  0  0  0  0
   -2.3414    2.3279   12.2434 H   0  0  0  0  0  0  0  0  0  0  0  0
   -0.5980    1.9819   12.2349 H   0  0  0  0  0  0  0  0  0  0  0  0
   -1.7979    0.2978   11.6690 C   0  0  0  0  0  0  0  0  0  0  0  0
   -1.7560   -0.1096   12.6834 H   0  0  0  0  0  0  0  0  0  0  0  0
   -2.7901    0.0829   11.2647 H   0  0  0  0  0  0  0  0  0  0  0  0
   -2.6993    2.3796    9.6527 C   0  0  0  0  0  0  0  0  0  0  0  0
   -3.0482    3.4150    9.6164 H   0  0  0  0  0  0  0  0  0  0  0  0
   -3.4279    1.8112   10.2305 H   0  0  0  0  0  0  0  0  0  0  0  0
   -2.6421    1.7980    8.2342 C   0  0  0  0  0  0  0  0  0  0  0  0
   -3.6556    1.5482    7.9032 H   0  0  0  0  0  0  0  0  0  0  0  0
   -2.2382    2.5232    7.5288 H   0  0  0  0  0  0  0  0  0  0  0  0
  1  4  1  0  0  0  0
  1  2  1  0  0  0  0
  1  5  1  0  0  0  0
  3  1  1  0  0  0  0
  4 20  1  0  0  0  0
  5  6  1  0  0  0  0
  5 23  1  0  0  0  0
  7  5  1  0  0  0  0
  8 10  1  0  0  0  0
  8  1  1  0  0  0  0
  9  8  1  0  0  0  0
 11 12  1  0  0  0  0
 11 14  1  0  0  0  0
 11  1  1  0  0  0  0
 13 11  1  0  0  0  0
 14 17  1  0  0  0  0
 15 14  1  0  0  0  0
 16 14  1  0  0  0  0
 17  4  1  0  0  0  0
 17 19  1  0  0  0  0
 17 18  1  0  0  0  0
 20 22  1  0  0  0  0
 20 21  1  0  0  0  0
 23 20  1  0  0  0  0
 23 24  1  0  0  0  0
 25 23  1  0  0  0  0
 26 28  1  0  0  0  0
 26  4  1  0  0  0  0
 27 26  1  0  0  0  0
 29  8  1  0  0  0  0
 29 26  1  0  0  0  0
 30 29  1  0  0  0  0
 31 29  1  0  0  0  0
M  END
$$$$
