CSD_code = LIHRAV | q = 0 | S = 0 | Stoichiometry = C33H24ClN6O3Re | MND = 6
 OpenBabel04212202063D

 68 75  0  0  0  0  0  0  0  0999 V2000
    0.0502    2.9840    1.6516 Re  0  0  0  0  0  0  0  0  0  0  0  0
    1.9562    4.4090    1.8888 Cl  0  0  0  0  0  0  0  0  0  0  0  0
    1.7350    1.7350   -0.6167 O   0  0  0  0  0  1  0  0  0  0  0  0
    1.5806    1.2249    3.6783 O   0  0  0  0  0  1  0  0  0  0  0  0
   -2.5322    1.3091    1.3623 O   0  0  0  0  0  1  0  0  0  0  0  0
   -0.6443    4.6550    0.4825 N   0  0  0  0  0  0  0  0  0  0  0  0
   -0.6858    7.2250   -0.6552 N   0  0  0  0  0  0  0  0  0  0  0  0
   -0.7167    9.4158    0.9711 N   0  0  0  0  0  0  0  0  0  0  0  0
   -0.8397    9.0889    3.7490 N   0  0  0  0  0  0  0  0  0  0  0  0
   -0.8857    6.5804    4.8221 N   0  0  0  0  0  0  0  0  0  0  0  0
   -0.7374    4.3439    3.1258 N   0  0  0  0  0  0  0  0  0  0  0  0
    1.0469    2.1292    0.2066 C   0  0  0  0  0  2  0  0  0  0  0  0
    0.9499    1.8072    2.9235 C   0  0  0  0  0  2  0  0  0  0  0  0
   -1.5628    1.9212    1.4689 C   0  0  0  0  0  2  0  0  0  0  0  0
   -0.6810    5.7599    1.2272 C   0  0  0  0  0  0  0  0  0  0  0  0
   -0.7073    4.8148   -0.8585 C   0  0  0  0  0  0  0  0  0  0  0  0
   -0.7865    3.7130   -1.7283 C   0  0  0  0  0  0  0  0  0  0  0  0
   -0.8000    3.8733   -3.0899 C   0  0  0  0  0  0  0  0  0  0  0  0
   -0.7384    5.1794   -3.6516 C   0  0  0  0  0  0  0  0  0  0  0  0
   -0.7008    6.2689   -2.8229 C   0  0  0  0  0  0  0  0  0  0  0  0
   -0.6995    6.1287   -1.4219 C   0  0  0  0  0  0  0  0  0  0  0  0
   -0.7088    7.0585    0.6467 C   0  0  0  0  0  0  0  0  0  0  0  0
   -0.7363    8.2199    1.5203 C   0  0  0  0  0  0  0  0  0  0  0  0
   -0.7453   10.4775    1.7860 C   0  0  0  0  0  0  0  0  0  0  0  0
   -0.7142   11.7806    1.2522 C   0  0  0  0  0  0  0  0  0  0  0  0
   -0.7498   12.8787    2.0694 C   0  0  0  0  0  0  0  0  0  0  0  0
   -0.8221   12.7123    3.4835 C   0  0  0  0  0  0  0  0  0  0  0  0
   -0.8524   11.4545    4.0239 C   0  0  0  0  0  0  0  0  0  0  0  0
   -0.8127   10.3108    3.2027 C   0  0  0  0  0  0  0  0  0  0  0  0
   -0.7946    8.0530    2.9383 C   0  0  0  0  0  0  0  0  0  0  0  0
   -0.8162    6.7205    3.5187 C   0  0  0  0  0  0  0  0  0  0  0  0
   -0.9405    5.3363    5.3111 C   0  0  0  0  0  0  0  0  0  0  0  0
   -1.0385    5.1479    6.7029 C   0  0  0  0  0  0  0  0  0  0  0  0
   -1.1227    3.8962    7.2520 C   0  0  0  0  0  0  0  0  0  0  0  0
   -1.1348    2.7565    6.4000 C   0  0  0  0  0  0  0  0  0  0  0  0
   -1.0258    2.9161    5.0425 C   0  0  0  0  0  0  0  0  0  0  0  0
   -0.8961    4.1889    4.4594 C   0  0  0  0  0  0  0  0  0  0  0  0
   -0.7326    5.5916    2.6567 C   0  0  0  0  0  0  0  0  0  0  0  0
   -0.8763    2.6778   -3.9825 C   0  0  0  0  0  0  0  0  0  0  0  0
   -0.7279    5.3539   -5.1361 C   0  0  0  0  0  0  0  0  0  0  0  0
   -0.7136   14.2552    1.4848 C   0  0  0  0  0  0  0  0  0  0  0  0
   -0.8633   13.9157    4.3711 C   0  0  0  0  0  0  0  0  0  0  0  0
   -1.2142    3.7216    8.7338 C   0  0  0  0  0  0  0  0  0  0  0  0
   -1.2622    1.3872    6.9837 C   0  0  0  0  0  0  0  0  0  0  0  0
   -0.8492    2.7235   -1.2935 H   0  0  0  0  0  0  0  0  0  0  0  0
   -0.6755    7.2740   -3.2142 H   0  0  0  0  0  0  0  0  0  0  0  0
   -0.6593   11.8798    0.1789 H   0  0  0  0  0  0  0  0  0  0  0  0
   -0.9041   11.3020    5.0911 H   0  0  0  0  0  0  0  0  0  0  0  0
   -1.0490    6.0346    7.3174 H   0  0  0  0  0  0  0  0  0  0  0  0
   -1.0495    2.0549    4.3870 H   0  0  0  0  0  0  0  0  0  0  0  0
   -0.9338    1.7649   -3.3965 H   0  0  0  0  0  0  0  0  0  0  0  0
   -1.7511    2.7362   -4.6289 H   0  0  0  0  0  0  0  0  0  0  0  0
    0.0041    2.6253   -4.6217 H   0  0  0  0  0  0  0  0  0  0  0  0
   -0.6713    6.4068   -5.3978 H   0  0  0  0  0  0  0  0  0  0  0  0
    0.1262    4.8390   -5.5739 H   0  0  0  0  0  0  0  0  0  0  0  0
   -1.6298    4.9322   -5.5781 H   0  0  0  0  0  0  0  0  0  0  0  0
   -0.6542   14.2091    0.4010 H   0  0  0  0  0  0  0  0  0  0  0  0
   -1.6078   14.8128    1.7612 H   0  0  0  0  0  0  0  0  0  0  0  0
    0.1484   14.8071    1.8576 H   0  0  0  0  0  0  0  0  0  0  0  0
   -0.9228   13.6194    5.4148 H   0  0  0  0  0  0  0  0  0  0  0  0
    0.0295   14.5244    4.2326 H   0  0  0  0  0  0  0  0  0  0  0  0
   -1.7268   14.5368    4.1353 H   0  0  0  0  0  0  0  0  0  0  0  0
   -1.1831    4.6846    9.2358 H   0  0  0  0  0  0  0  0  0  0  0  0
   -2.1410    3.2168    9.0039 H   0  0  0  0  0  0  0  0  0  0  0  0
   -0.3880    3.1118    9.0969 H   0  0  0  0  0  0  0  0  0  0  0  0
   -1.2791    0.6360    6.1991 H   0  0  0  0  0  0  0  0  0  0  0  0
   -0.4232    1.1784    7.6463 H   0  0  0  0  0  0  0  0  0  0  0  0
   -2.1758    1.3031    7.5707 H   0  0  0  0  0  0  0  0  0  0  0  0
  1  2  1  0  0  0  0
  1 13  1  0  0  0  0
  1 11  1  0  0  0  0
  3 12  1  0  0  0  0
  5 14  1  0  0  0  0
  6 15  1  0  0  0  0
  6  1  1  0  0  0  0
  7 22  2  0  0  0  0
  8 23  2  0  0  0  0
  8 24  1  0  0  0  0
 10 32  1  0  0  0  0
 11 37  1  0  0  0  0
 12  1  1  0  0  0  0
 13  4  1  0  0  0  0
 14  1  1  0  0  0  0
 15 38  2  0  0  0  0
 16  6  1  0  0  0  0
 17 45  1  0  0  0  0
 17 16  1  0  0  0  0
 18 17  2  0  0  0  0
 19 18  1  0  0  0  0
 19 20  2  0  0  0  0
 20 21  1  0  0  0  0
 21 16  2  0  0  0  0
 21  7  1  0  0  0  0
 22 15  1  0  0  0  0
 22 23  1  0  0  0  0
 23 30  1  0  0  0  0
 24 29  1  0  0  0  0
 25 24  2  0  0  0  0
 25 26  1  0  0  0  0
 26 27  2  0  0  0  0
 27 28  1  0  0  0  0
 27 42  1  0  0  0  0
 28 48  1  0  0  0  0
 29  9  1  0  0  0  0
 29 28  2  0  0  0  0
 30 31  1  0  0  0  0
 30  9  2  0  0  0  0
 31 10  2  0  0  0  0
 32 33  1  0  0  0  0
 33 34  2  0  0  0  0
 33 49  1  0  0  0  0
 34 43  1  0  0  0  0
 35 44  1  0  0  0  0
 35 34  1  0  0  0  0
 36 35  2  0  0  0  0
 37 36  1  0  0  0  0
 37 32  2  0  0  0  0
 38 11  1  0  0  0  0
 38 31  1  0  0  0  0
 39 51  1  0  0  0  0
 39 18  1  0  0  0  0
 40 19  1  0  0  0  0
 41 58  1  0  0  0  0
 41 59  1  0  0  0  0
 41 26  1  0  0  0  0
 42 60  1  0  0  0  0
 43 64  1  0  0  0  0
 43 65  1  0  0  0  0
 43 63  1  0  0  0  0
 44 68  1  0  0  0  0
 44 67  1  0  0  0  0
 46 20  1  0  0  0  0
 47 25  1  0  0  0  0
 50 36  1  0  0  0  0
 52 39  1  0  0  0  0
 53 39  1  0  0  0  0
 54 40  1  0  0  0  0
 55 40  1  0  0  0  0
 56 40  1  0  0  0  0
 57 41  1  0  0  0  0
 61 42  1  0  0  0  0
 62 42  1  0  0  0  0
 66 44  1  0  0  0  0
M  END
$$$$
