CSD_code = LIHVIK | q = 0 | S = 0 | Stoichiometry = C29H34Cl3IrN2 | MND = 6
 OpenBabel04212202063D

 69 71  0  0  1  0  0  0  0  0999 V2000
    1.1525    9.1902    7.6698 C   0  0  2  0  0  3  0  0  0  0  0  0
    2.6348    8.8991    9.3352 C   0  0  0  0  0  0  0  0  0  0  0  0
    1.3902    8.7823    9.8689 C   0  0  0  0  0  0  0  0  0  0  0  0
    3.5734    9.1834    7.0837 C   0  0  0  0  0  0  0  0  0  0  0  0
    4.2133    7.9832    6.7521 C   0  0  0  0  0  0  0  0  0  0  0  0
    5.2712    8.0332    5.8606 C   0  0  0  0  0  0  0  0  0  0  0  0
    5.7644    7.1136    5.5814 H   0  0  0  0  0  0  0  0  0  0  0  0
    5.7108    9.2305    5.3102 C   0  0  0  0  0  0  0  0  0  0  0  0
    5.0895   10.4048    5.6978 C   0  0  0  0  0  0  0  0  0  0  0  0
    5.4363   11.3495    5.3035 H   0  0  0  0  0  0  0  0  0  0  0  0
    4.0274   10.4039    6.5936 C   0  0  0  0  0  0  0  0  0  0  0  0
    3.7603    6.6737    7.3138 C   0  0  0  0  0  0  0  0  0  0  0  0
    4.4316    5.8783    7.0025 H   0  0  0  0  0  0  0  0  0  0  0  0
    2.7624    6.4520    6.9357 H   0  0  0  0  0  0  0  0  0  0  0  0
    3.7216    6.6913    8.4009 H   0  0  0  0  0  0  0  0  0  0  0  0
    6.8466    9.2348    4.3334 C   0  0  0  0  0  0  0  0  0  0  0  0
    7.7398    8.8079    4.7886 H   0  0  0  0  0  0  0  0  0  0  0  0
    7.0732   10.2448    4.0008 H   0  0  0  0  0  0  0  0  0  0  0  0
    6.5949    8.6287    3.4639 H   0  0  0  0  0  0  0  0  0  0  0  0
    3.4249   11.7091    7.0139 C   0  0  0  0  0  0  0  0  0  0  0  0
    2.7721   12.0843    6.2291 H   0  0  0  0  0  0  0  0  0  0  0  0
    4.2110   12.4440    7.1794 H   0  0  0  0  0  0  0  0  0  0  0  0
    2.8441   11.6055    7.9266 H   0  0  0  0  0  0  0  0  0  0  0  0
   -0.9129    8.8952    9.0262 C   0  0  0  0  0  0  0  0  0  0  0  0
   -1.5612    9.9694    9.6348 C   0  0  0  0  0  0  0  0  0  0  0  0
   -2.9333    9.8895    9.8247 C   0  0  0  0  0  0  0  0  0  0  0  0
   -3.4468   10.7174   10.2918 H   0  0  0  0  0  0  0  0  0  0  0  0
   -3.6534    8.7742    9.4247 C   0  0  0  0  0  0  0  0  0  0  0  0
   -2.9757    7.7160    8.8336 C   0  0  0  0  0  0  0  0  0  0  0  0
   -3.5298    6.8401    8.5292 H   0  0  0  0  0  0  0  0  0  0  0  0
   -1.6047    7.7493    8.6314 C   0  0  0  0  0  0  0  0  0  0  0  0
   -0.7989   11.1850   10.0696 C   0  0  0  0  0  0  0  0  0  0  0  0
   -0.3128   11.0038   11.0280 H   0  0  0  0  0  0  0  0  0  0  0  0
   -1.4700   12.0321   10.1858 H   0  0  0  0  0  0  0  0  0  0  0  0
   -0.0293   11.4426    9.3442 H   0  0  0  0  0  0  0  0  0  0  0  0
   -5.1362    8.6975    9.6237 C   0  0  0  0  0  0  0  0  0  0  0  0
   -5.6407    8.6044    8.6629 H   0  0  0  0  0  0  0  0  0  0  0  0
   -5.5100    9.5847   10.1278 H   0  0  0  0  0  0  0  0  0  0  0  0
   -5.3936    7.8229   10.2191 H   0  0  0  0  0  0  0  0  0  0  0  0
   -0.8818    6.5913    8.0277 C   0  0  0  0  0  0  0  0  0  0  0  0
   -1.5639    5.7669    7.8418 H   0  0  0  0  0  0  0  0  0  0  0  0
   -0.0880    6.2473    8.6897 H   0  0  0  0  0  0  0  0  0  0  0  0
   -0.4174    6.8788    7.0838 H   0  0  0  0  0  0  0  0  0  0  0  0
   -0.6350    9.4966    3.8845 C   0  0  0  0  0  3  0  0  0  0  0  0
   -0.7684    8.4528    3.6139 H   0  0  0  0  0  0  0  0  0  0  0  0
    0.6194   10.0467    3.7151 C   0  0  0  0  0  3  0  0  0  0  0  0
    1.4011    9.4187    3.2917 H   0  0  0  0  0  0  0  0  0  0  0  0
    0.9044   11.5257    3.6022 C   0  0  0  0  0  0  0  0  0  0  0  0
    0.5903   11.8804    2.6144 H   0  0  0  0  0  0  0  0  0  0  0  0
    1.9864   11.6629    3.6633 H   0  0  0  0  0  0  0  0  0  0  0  0
    0.2272   12.3603    4.7053 C   0  0  0  0  0  0  0  0  0  0  0  0
    0.8396   13.2432    4.9036 H   0  0  0  0  0  0  0  0  0  0  0  0
   -0.7456   12.7204    4.3672 H   0  0  0  0  0  0  0  0  0  0  0  0
    0.0459   11.5773    5.9923 C   0  0  0  0  0  3  0  0  0  0  0  0
    0.5395   12.0287    6.8490 H   0  0  0  0  0  0  0  0  0  0  0  0
   -1.1149   10.8337    6.2794 C   0  0  1  0  0  0  0  0  0  0  0  0
   -1.4159   10.7801    7.3211 H   0  0  0  0  0  0  0  0  0  0  0  0
   -2.3008   10.6880    5.3531 C   0  0  0  0  0  0  0  0  0  0  0  0
   -2.8799   11.6182    5.3563 H   0  0  0  0  0  0  0  0  0  0  0  0
   -2.9433    9.9069    5.7655 H   0  0  0  0  0  0  0  0  0  0  0  0
   -1.9071   10.3099    3.9156 C   0  0  0  0  0  0  0  0  0  0  0  0
   -2.7148    9.7283    3.4674 H   0  0  0  0  0  0  0  0  0  0  0  0
   -1.7778   11.2053    3.3059 H   0  0  0  0  0  0  0  0  0  0  0  0
    1.2689    7.3784    5.2506 Cl  0  0  0  0  0 15  0  0  0  0  0  0
    4.1623    8.8544   10.0903 Cl  0  0  0  0  0  0  0  0  0  0  0  0
    0.9056    8.4447   11.4665 Cl  0  0  0  0  0  0  0  0  0  0  0  0
    0.4484    9.4865    5.7869 Ir  0  0  0  0  0  0  0  0  0  0  0  0
    2.4738    9.1391    7.9910 N   0  0  0  0  0  0  0  0  0  0  0  0
    0.4961    8.9593    8.8383 N   0  0  0  0  0  0  0  0  0  0  0  0
  1 67  1  6  0  0  0
  1 68  1  0  0  0  0
  1 69  1  0  0  0  0
  2  3  2  0  0  0  0
  2 65  1  0  0  0  0
  3 66  1  0  0  0  0
  4 68  1  0  0  0  0
  5  4  1  0  0  0  0
  5 12  1  0  0  0  0
  6  5  2  0  0  0  0
  7  6  1  0  0  0  0
  8  9  2  0  0  0  0
  8  6  1  0  0  0  0
  9 11  1  0  0  0  0
 10  9  1  0  0  0  0
 11 20  1  0  0  0  0
 11  4  2  0  0  0  0
 12 15  1  0  0  0  0
 13 12  1  0  0  0  0
 14 12  1  0  0  0  0
 16 17  1  0  0  0  0
 16  8  1  0  0  0  0
 18 16  1  0  0  0  0
 19 16  1  0  0  0  0
 20 22  1  0  0  0  0
 20 23  1  0  0  0  0
 21 20  1  0  0  0  0
 24 25  1  0  0  0  0
 25 26  2  0  0  0  0
 25 32  1  0  0  0  0
 26 27  1  0  0  0  0
 28 36  1  0  0  0  0
 28 26  1  0  0  0  0
 29 28  2  0  0  0  0
 30 29  1  0  0  0  0
 31 29  1  0  0  0  0
 31 24  2  0  0  0  0
 32 34  1  0  0  0  0
 32 33  1  0  0  0  0
 35 32  1  0  0  0  0
 36 38  1  0  0  0  0
 36 39  1  0  0  0  0
 37 36  1  0  0  0  0
 40 31  1  0  0  0  0
 40 42  1  0  0  0  0
 41 40  1  0  0  0  0
 43 40  1  0  0  0  0
 44 61  1  0  0  0  0
 45 44  1  0  0  0  0
 46 44  1  0  0  0  0
 47 46  1  0  0  0  0
 48 50  1  0  0  0  0
 48 46  1  0  0  0  0
 48 51  1  0  0  0  0
 49 48  1  0  0  0  0
 51 52  1  0  0  0  0
 51 54  1  0  0  0  0
 53 51  1  0  0  0  0
 54 56  1  0  0  0  0
 54 55  1  0  0  0  0
 56 57  1  1  0  0  0
 58 59  1  0  0  0  0
 58 60  1  0  0  0  0
 58 56  1  0  0  0  0
 61 58  1  0  0  0  0
 62 61  1  0  0  0  0
 63 61  1  0  0  0  0
 67 56  1  0  0  0  0
 68  2  1  0  0  0  0
 69 24  1  0  0  0  0
 69  3  1  0  0  0  0
M  END
$$$$
