CSD_code = LIHXOR | q = 0 | S = 0 | Stoichiometry = C20H26Cl2N2PtS2 | MND = 4
 OpenBabel04212202063D

 53 54  0  0  1  0  0  0  0  0999 V2000
    4.0050   15.9168    3.9433 Pt  0  0  0  0  0  0  0  0  0  0  0  0
    4.9131   17.2331    2.2271 Cl  0  0  0  0  0  0  0  0  0  0  0  0
    3.0336   14.7286    5.6695 Cl  0  0  0  0  0  0  0  0  0  0  0  0
    2.5699   15.4577    2.6661 N   0  0  0  0  0  0  0  0  0  0  0  0
    2.1091   16.3126    2.3481 H   0  0  0  0  0  0  0  0  0  0  0  0
    5.4446   16.6261    5.0989 N   0  0  0  0  0  0  0  0  0  0  0  0
    5.4624   17.6468    5.0516 H   0  0  0  0  0  0  0  0  0  0  0  0
    1.2184   14.3093    0.6516 S   0  0  0  0  0  0  0  0  0  0  0  0
    7.7931   16.9151    6.3687 S   0  0  0  0  0  0  0  0  0  0  0  0
    2.2942   14.3886    2.0290 C   0  0  2  0  0  3  0  0  0  0  0  0
    0.8683   16.0638    0.2553 C   0  0  0  0  0  0  0  0  0  0  0  0
    0.0439   16.0007   -0.4553 H   0  0  0  0  0  0  0  0  0  0  0  0
    0.5011   16.5558    1.1575 H   0  0  0  0  0  0  0  0  0  0  0  0
    2.0583   16.7756   -0.3630 C   0  0  0  0  0  0  0  0  0  0  0  0
    2.9109   16.8210    0.3123 H   0  0  0  0  0  0  0  0  0  0  0  0
    1.7763   17.7944   -0.6213 H   0  0  0  0  0  0  0  0  0  0  0  0
    2.3709   16.2633   -1.2698 H   0  0  0  0  0  0  0  0  0  0  0  0
    2.8655   13.0632    2.4316 C   0  0  0  0  0  0  0  0  0  0  0  0
    3.4921   12.6839    1.6217 H   0  0  0  0  0  0  0  0  0  0  0  0
    3.4736   13.2145    3.3290 H   0  0  0  0  0  0  0  0  0  0  0  0
    1.7497   12.0896    2.7231 C   0  0  0  0  0  0  0  0  0  0  0  0
    1.3243   11.1833    1.7621 C   0  0  0  0  0  0  0  0  0  0  0  0
    1.8118   11.1527    0.7981 H   0  0  0  0  0  0  0  0  0  0  0  0
    0.2787   10.3188    2.0350 C   0  0  0  0  0  0  0  0  0  0  0  0
   -0.0453    9.6141    1.2832 H   0  0  0  0  0  0  0  0  0  0  0  0
   -0.3495   10.3566    3.2679 C   0  0  0  0  0  0  0  0  0  0  0  0
   -1.1657    9.6816    3.4797 H   0  0  0  0  0  0  0  0  0  0  0  0
    0.0727   11.2597    4.2292 C   0  0  0  0  0  0  0  0  0  0  0  0
   -0.4127   11.2908    5.1933 H   0  0  0  0  0  0  0  0  0  0  0  0
    1.1173   12.1255    3.9589 C   0  0  0  0  0  0  0  0  0  0  0  0
    1.4525   12.8285    4.7073 H   0  0  0  0  0  0  0  0  0  0  0  0
    6.4272   16.0633    5.6844 C   0  0  2  0  0  3  0  0  0  0  0  0
    7.6590   18.6082    5.6847 C   0  0  0  0  0  0  0  0  0  0  0  0
    6.6809   19.0147    5.9467 H   0  0  0  0  0  0  0  0  0  0  0  0
    8.4176   19.1650    6.2352 H   0  0  0  0  0  0  0  0  0  0  0  0
    7.9334   18.6483    4.1926 C   0  0  0  0  0  0  0  0  0  0  0  0
    8.9125   18.2258    3.9792 H   0  0  0  0  0  0  0  0  0  0  0  0
    7.9181   19.6808    3.8494 H   0  0  0  0  0  0  0  0  0  0  0  0
    7.1920   18.0917    3.6222 H   0  0  0  0  0  0  0  0  0  0  0  0
    6.5477   14.5758    5.7823 C   0  0  0  0  0  0  0  0  0  0  0  0
    7.0612   14.3082    6.7061 H   0  0  0  0  0  0  0  0  0  0  0  0
    5.5460   14.1380    5.7679 H   0  0  0  0  0  0  0  0  0  0  0  0
    7.3452   14.1108    4.5854 C   0  0  0  0  0  0  0  0  0  0  0  0
    6.7422   14.0549    3.3365 C   0  0  0  0  0  0  0  0  0  0  0  0
    5.6899   14.3253    3.2376 H   0  0  0  0  0  0  0  0  0  0  0  0
    7.4682   13.6753    2.2232 C   0  0  0  0  0  0  0  0  0  0  0  0
    6.9917   13.6434    1.2551 H   0  0  0  0  0  0  0  0  0  0  0  0
    8.8074   13.3448    2.3513 C   0  0  0  0  0  0  0  0  0  0  0  0
    9.3771   13.0481    1.4833 H   0  0  0  0  0  0  0  0  0  0  0  0
    9.4149   13.3999    3.5938 C   0  0  0  0  0  0  0  0  0  0  0  0
   10.4594   13.1456    3.6975 H   0  0  0  0  0  0  0  0  0  0  0  0
    8.6888   13.7875    4.7072 C   0  0  0  0  0  0  0  0  0  0  0  0
    9.1682   13.8396    5.6739 H   0  0  0  0  0  0  0  0  0  0  0  0
  1  6  1  0  0  0  0
  1  3  1  0  0  0  0
  2  1  1  0  0  0  0
  4  1  1  0  0  0  0
  5  4  1  0  0  0  0
  6 32  1  0  0  0  0
  7  6  1  0  0  0  0
 10  8  1  1  0  0  0
 10 18  1  0  0  0  0
 10  4  1  0  0  0  0
 11  8  1  0  0  0  0
 11 13  1  0  0  0  0
 12 11  1  0  0  0  0
 14 11  1  0  0  0  0
 14 15  1  0  0  0  0
 16 14  1  0  0  0  0
 17 14  1  0  0  0  0
 18 21  1  0  0  0  0
 18 20  1  0  0  0  0
 19 18  1  0  0  0  0
 21 30  1  0  0  0  0
 22 24  1  0  0  0  0
 22 21  2  0  0  0  0
 23 22  1  0  0  0  0
 24 26  2  0  0  0  0
 25 24  1  0  0  0  0
 26 27  1  0  0  0  0
 26 28  1  0  0  0  0
 28 29  1  0  0  0  0
 30 28  2  0  0  0  0
 30 31  1  0  0  0  0
 32 40  1  0  0  0  0
 32  9  1  6  0  0  0
 33 34  1  0  0  0  0
 33 35  1  0  0  0  0
 33  9  1  0  0  0  0
 36 33  1  0  0  0  0
 37 36  1  0  0  0  0
 38 36  1  0  0  0  0
 39 36  1  0  0  0  0
 40 41  1  0  0  0  0
 42 40  1  0  0  0  0
 43 52  1  0  0  0  0
 43 40  1  0  0  0  0
 44 43  2  0  0  0  0
 45 44  1  0  0  0  0
 46 48  2  0  0  0  0
 46 44  1  0  0  0  0
 47 46  1  0  0  0  0
 48 50  1  0  0  0  0
 49 48  1  0  0  0  0
 50 51  1  0  0  0  0
 50 52  2  0  0  0  0
 52 53  1  0  0  0  0
M  END
$$$$
