CSD_code = LIJBUC | q = 0 | S = 0 | Stoichiometry = C11H23ClNOPPd | MND = 4
 OpenBabel04212202063D

 39 40  0  0  1  0  0  0  0  0999 V2000
    5.2942    2.2453    4.0066 Pd  0  0  2  0  0  0  0  0  0  0  0  0
    6.5494    1.5726    2.2876 Cl  0  0  0  0  0  0  0  0  0  0  0  0
    4.3776    2.8431    5.9640 P   0  0  0  0  0  4  0  0  0  0  0  0
    6.4601   -0.2428    7.3283 O   0  0  0  0  0  0  0  0  0  0  0  0
    6.1117    0.5880    5.2919 N   0  0  1  0  0  0  0  0  0  0  0  0
    7.2185   -0.3242    5.1019 C   0  0  0  0  0  0  0  0  0  0  0  0
    8.0753    0.2253    4.7025 H   0  0  0  0  0  0  0  0  0  0  0  0
    6.9379   -1.0889    4.3735 H   0  0  0  0  0  0  0  0  0  0  0  0
    7.4534   -0.8891    6.5232 C   0  0  0  0  0  0  0  0  0  0  0  0
    7.2980   -1.9685    6.5871 H   0  0  0  0  0  0  0  0  0  0  0  0
    8.4377   -0.6405    6.9274 H   0  0  0  0  0  0  0  0  0  0  0  0
    5.7632    0.5722    6.5126 C   0  0  1  0  0  3  0  0  0  0  0  0
    4.6516    1.3762    7.0859 C   0  0  0  0  0  0  0  0  0  0  0  0
    4.8791    1.6525    8.1189 H   0  0  0  0  0  0  0  0  0  0  0  0
    3.7459    0.7622    7.0800 H   0  0  0  0  0  0  0  0  0  0  0  0
    2.6129    3.3094    6.3072 C   0  0  0  0  0  0  0  0  0  0  0  0
    2.4850    4.2883    5.8290 H   0  0  0  0  0  0  0  0  0  0  0  0
    1.7384    2.3030    5.5597 C   0  0  0  0  0  0  0  0  0  0  0  0
    1.7107    1.3461    6.0786 H   0  0  0  0  0  0  0  0  0  0  0  0
    2.1408    2.1392    4.5547 H   0  0  0  0  0  0  0  0  0  0  0  0
    0.7170    2.6668    5.4705 H   0  0  0  0  0  0  0  0  0  0  0  0
    2.2476    3.4210    7.7822 C   0  0  0  0  0  0  0  0  0  0  0  0
    1.2109    3.7391    7.8801 H   0  0  0  0  0  0  0  0  0  0  0  0
    2.8735    4.1529    8.2875 H   0  0  0  0  0  0  0  0  0  0  0  0
    2.3531    2.4638    8.2876 H   0  0  0  0  0  0  0  0  0  0  0  0
    5.4477    4.1257    6.7799 C   0  0  0  0  0  0  0  0  0  0  0  0
    5.2418    4.1842    7.8557 H   0  0  0  0  0  0  0  0  0  0  0  0
    6.8966    3.6991    6.5431 C   0  0  0  0  0  0  0  0  0  0  0  0
    7.0478    3.4973    5.4676 H   0  0  0  0  0  0  0  0  0  0  0  0
    7.1458    2.8012    7.1079 H   0  0  0  0  0  0  0  0  0  0  0  0
    7.5829    4.4895    6.8430 H   0  0  0  0  0  0  0  0  0  0  0  0
    5.1896    5.4729    6.1120 C   0  0  0  0  0  0  0  0  0  0  0  0
    5.8874    6.2216    6.4828 H   0  0  0  0  0  0  0  0  0  0  0  0
    4.1788    5.8267    6.3037 H   0  0  0  0  0  0  0  0  0  0  0  0
    5.3309    5.3704    5.0343 H   0  0  0  0  0  0  0  0  0  0  0  0
    4.4746    3.6659    2.7833 C   0  0  0  0  0  0  0  0  0  0  0  0
    3.9870    3.1209    1.9643 H   0  0  0  0  0  0  0  0  0  0  0  0
    5.2744    4.2843    2.3606 H   0  0  0  0  0  0  0  0  0  0  0  0
    3.7375    4.3061    3.2811 H   0  0  0  0  0  0  0  0  0  0  0  0
  1  2  1  1  0  0  0
  1  5  1  0  0  0  0
  1  3  1  0  0  0  0
  3 16  1  0  0  0  0
  3 26  1  0  0  0  0
  3 13  1  0  0  0  0
  5  6  1  1  0  0  0
  5 12  1  0  0  0  0
  6  9  1  0  0  0  0
  7  6  1  0  0  0  0
  8  6  1  0  0  0  0
  9 10  1  0  0  0  0
  9 11  1  0  0  0  0
  9  4  1  0  0  0  0
 12 13  1  0  0  0  0
 12  4  1  6  0  0  0
 13 14  1  0  0  0  0
 15 13  1  0  0  0  0
 16 22  1  0  0  0  0
 17 16  1  0  0  0  0
 18 19  1  0  0  0  0
 18 16  1  0  0  0  0
 20 18  1  0  0  0  0
 21 18  1  0  0  0  0
 22 23  1  0  0  0  0
 22 24  1  0  0  0  0
 22 25  1  0  0  0  0
 26 27  1  0  0  0  0
 28 26  1  0  0  0  0
 28 31  1  0  0  0  0
 28 30  1  0  0  0  0
 29 28  1  0  0  0  0
 32 34  1  0  0  0  0
 32 33  1  0  0  0  0
 32 26  1  0  0  0  0
 35 32  1  0  0  0  0
 36 39  1  0  0  0  0
 36  1  1  0  0  0  0
 37 36  1  0  0  0  0
 38 36  1  0  0  0  0
M  END
$$$$
