CSD_code = LIJDIS | q = 0 | S = 0 | Stoichiometry = C27H33ClN2Ni | MND = 7
 OpenBabel04212202063D

 64 68  0  0  1  0  0  0  0  0999 V2000
    1.2534    3.7797   12.4770 Ni  0  0  1  0  0  0  0  0  0  0  0  0
    0.3493    3.5443   14.3428 Cl  0  0  0  0  0  0  0  0  0  0  0  0
   -1.4272    4.5980   11.7760 N   0  0  0  0  0  0  0  0  0  0  0  0
   -0.8144    2.8051   10.7318 N   0  0  0  0  0  0  0  0  0  0  0  0
    3.2046    2.7701   12.8363 C   0  0  0  0  0  0  0  0  0  0  0  0
    3.1976    4.1830   13.1737 C   0  0  1  0  0  0  0  0  0  0  0  0
    3.5181    4.5743   14.1286 H   0  0  0  0  0  0  0  0  0  0  0  0
    2.9758    4.9254   12.0125 C   0  0  0  0  0  3  0  0  0  0  0  0
    3.0536    5.9958   11.9047 H   0  0  0  0  0  0  0  0  0  0  0  0
    2.6481    3.9903   10.9926 C   0  0  1  0  0  0  0  0  0  0  0  0
    2.5298    4.2271    9.9440 H   0  0  0  0  0  0  0  0  0  0  0  0
    2.9045    2.6637   11.4898 C   0  0  0  0  0  0  0  0  0  0  0  0
    2.9094    1.7656   10.8951 H   0  0  0  0  0  0  0  0  0  0  0  0
    3.6081    1.6774   13.7721 C   0  0  0  0  0  0  0  0  0  0  0  0
    4.6653    1.7775   14.0263 H   0  0  0  0  0  0  0  0  0  0  0  0
    3.4479    0.7042   13.3117 H   0  0  0  0  0  0  0  0  0  0  0  0
    3.0340    1.7280   14.6967 H   0  0  0  0  0  0  0  0  0  0  0  0
   -0.4110    3.7603   11.5735 C   0  0  0  0  0  3  0  0  0  0  0  0
   -2.6259    4.2416   11.0219 C   0  0  0  0  0  0  0  0  0  0  0  0
   -2.8685    5.0396   10.3119 H   0  0  0  0  0  0  0  0  0  0  0  0
   -3.4754    4.1112   11.6944 H   0  0  0  0  0  0  0  0  0  0  0  0
   -2.2126    2.9401   10.3347 C   0  0  0  0  0  0  0  0  0  0  0  0
   -2.7846    2.0768   10.6895 H   0  0  0  0  0  0  0  0  0  0  0  0
   -2.2992    2.9841    9.2461 H   0  0  0  0  0  0  0  0  0  0  0  0
   -1.3827    5.7984   12.5379 C   0  0  0  0  0  0  0  0  0  0  0  0
   -0.6992    6.9009   12.0193 C   0  0  0  0  0  0  0  0  0  0  0  0
   -0.6610    8.0714   12.7597 C   0  0  0  0  0  0  0  0  0  0  0  0
   -0.1256    8.9251   12.3683 H   0  0  0  0  0  0  0  0  0  0  0  0
   -1.2939    8.1690   13.9902 C   0  0  0  0  0  0  0  0  0  0  0  0
   -1.9841    7.0668   14.4710 C   0  0  0  0  0  0  0  0  0  0  0  0
   -2.4809    7.1310   15.4283 H   0  0  0  0  0  0  0  0  0  0  0  0
   -2.0435    5.8746   13.7648 C   0  0  0  0  0  0  0  0  0  0  0  0
   -0.0292    6.8232   10.6793 C   0  0  0  0  0  0  0  0  0  0  0  0
    0.4676    7.7609   10.4452 H   0  0  0  0  0  0  0  0  0  0  0  0
   -0.7558    6.6104    9.8947 H   0  0  0  0  0  0  0  0  0  0  0  0
    0.7130    6.0240   10.6800 H   0  0  0  0  0  0  0  0  0  0  0  0
   -1.2159    9.4302   14.7952 C   0  0  0  0  0  0  0  0  0  0  0  0
   -2.1355    9.5914   15.3533 H   0  0  0  0  0  0  0  0  0  0  0  0
   -1.0327   10.2909   14.1563 H   0  0  0  0  0  0  0  0  0  0  0  0
   -0.3971    9.3590   15.5115 H   0  0  0  0  0  0  0  0  0  0  0  0
   -2.7946    4.7067   14.3237 C   0  0  0  0  0  0  0  0  0  0  0  0
   -2.9265    4.8278   15.3949 H   0  0  0  0  0  0  0  0  0  0  0  0
   -2.2391    3.7885   14.1506 H   0  0  0  0  0  0  0  0  0  0  0  0
   -3.7828    4.6266   13.8685 H   0  0  0  0  0  0  0  0  0  0  0  0
   -0.0279    1.7299   10.2366 C   0  0  0  0  0  0  0  0  0  0  0  0
    0.5041    1.8124    8.9489 C   0  0  0  0  0  0  0  0  0  0  0  0
    1.2522    0.7483    8.4694 C   0  0  0  0  0  0  0  0  0  0  0  0
    1.6747    0.8066    7.4761 H   0  0  0  0  0  0  0  0  0  0  0  0
    1.4802   -0.3836    9.2401 C   0  0  0  0  0  0  0  0  0  0  0  0
    0.9464   -0.4365   10.5187 C   0  0  0  0  0  0  0  0  0  0  0  0
    1.1261   -1.3069   11.1336 H   0  0  0  0  0  0  0  0  0  0  0  0
    0.1909    0.6060   11.0362 C   0  0  0  0  0  0  0  0  0  0  0  0
    0.2892    3.0260    8.0934 C   0  0  0  0  0  0  0  0  0  0  0  0
    0.1714    3.9179    8.7048 H   0  0  0  0  0  0  0  0  0  0  0  0
   -0.6042    2.9072    7.4783 H   0  0  0  0  0  0  0  0  0  0  0  0
    1.1342    3.1688    7.4236 H   0  0  0  0  0  0  0  0  0  0  0  0
    2.2942   -1.5154    8.6905 C   0  0  0  0  0  0  0  0  0  0  0  0
    2.4238   -2.2989    9.4324 H   0  0  0  0  0  0  0  0  0  0  0  0
    3.2768   -1.1621    8.3808 H   0  0  0  0  0  0  0  0  0  0  0  0
    1.8044   -1.9426    7.8160 H   0  0  0  0  0  0  0  0  0  0  0  0
   -0.3467    0.5473   12.4291 C   0  0  0  0  0  0  0  0  0  0  0  0
   -0.1262   -0.4113   12.8896 H   0  0  0  0  0  0  0  0  0  0  0  0
   -1.4235    0.7067   12.4455 H   0  0  0  0  0  0  0  0  0  0  0  0
    0.1099    1.3378   13.0337 H   0  0  0  0  0  0  0  0  0  0  0  0
  1  6  1  0  0  0  0
  1  2  1  1  0  0  0
  3 25  1  0  0  0  0
  4 18  1  0  0  0  0
  5  6  1  0  0  0  0
  5 14  1  0  0  0  0
  6  7  1  1  0  0  0
  8  6  1  0  0  0  0
  9  8  1  0  0  0  0
 10 11  1  6  0  0  0
 10 12  1  0  0  0  0
 10  8  1  0  0  0  0
 10  1  1  0  0  0  0
 12  5  2  0  0  0  0
 13 12  1  0  0  0  0
 14 15  1  0  0  0  0
 14 17  1  0  0  0  0
 16 14  1  0  0  0  0
 18  3  1  0  0  0  0
 18  1  1  0  0  0  0
 19 21  1  0  0  0  0
 19  3  1  0  0  0  0
 20 19  1  0  0  0  0
 22 23  1  0  0  0  0
 22  4  1  0  0  0  0
 22 19  1  0  0  0  0
 24 22  1  0  0  0  0
 25 32  1  0  0  0  0
 26 25  2  0  0  0  0
 26 27  1  0  0  0  0
 27 29  2  0  0  0  0
 28 27  1  0  0  0  0
 29 30  1  0  0  0  0
 29 37  1  0  0  0  0
 30 31  1  0  0  0  0
 32 41  1  0  0  0  0
 32 30  2  0  0  0  0
 33 36  1  0  0  0  0
 33 26  1  0  0  0  0
 34 33  1  0  0  0  0
 35 33  1  0  0  0  0
 37 38  1  0  0  0  0
 37 40  1  0  0  0  0
 39 37  1  0  0  0  0
 41 42  1  0  0  0  0
 43 41  1  0  0  0  0
 44 41  1  0  0  0  0
 45  4  1  0  0  0  0
 45 52  1  0  0  0  0
 46 45  2  0  0  0  0
 47 46  1  0  0  0  0
 47 49  2  0  0  0  0
 48 47  1  0  0  0  0
 49 50  1  0  0  0  0
 50 52  2  0  0  0  0
 50 51  1  0  0  0  0
 52 61  1  0  0  0  0
 53 54  1  0  0  0  0
 53 46  1  0  0  0  0
 55 53  1  0  0  0  0
 56 53  1  0  0  0  0
 57 49  1  0  0  0  0
 57 58  1  0  0  0  0
 59 57  1  0  0  0  0
 60 57  1  0  0  0  0
 61 63  1  0  0  0  0
 61 62  1  0  0  0  0
 61 64  1  0  0  0  0
M  END
$$$$
