CSD_code = LIJQUS | q = 0 | S = 0 | Stoichiometry = C10H20Cl4MoO2 | MND = 6
 OpenBabel04212202063D

 37 36  0  0  0  0  0  0  0  0999 V2000
  -23.9339   -2.6404    3.3036 C   0  0  0  0  0  0  0  0  0  0  0  0
  -24.0870   -3.3066    4.1670 H   0  0  0  0  0  0  0  0  0  0  0  0
  -24.4019   -1.6724    3.5025 H   0  0  0  0  0  0  0  0  0  0  0  0
  -22.4385   -2.4721    3.0380 C   0  0  0  0  0  0  0  0  0  0  0  0
  -21.9607   -2.0692    3.9315 H   0  0  0  0  0  0  0  0  0  0  0  0
  -22.3031   -1.7602    2.2209 H   0  0  0  0  0  0  0  0  0  0  0  0
  -21.8288   -3.8158    2.6472 C   0  0  0  0  0  0  0  0  0  0  0  0
  -20.7798   -3.6897    2.3789 H   0  0  0  0  0  0  0  0  0  0  0  0
  -21.8814   -4.5068    3.4928 H   0  0  0  0  0  0  0  0  0  0  0  0
  -22.6156   -4.3828    1.4692 C   0  0  0  0  0  0  0  0  0  0  0  0
  -22.5162   -3.7268    0.6013 H   0  0  0  0  0  0  0  0  0  0  0  0
  -22.2552   -5.3740    1.1961 H   0  0  0  0  0  0  0  0  0  0  0  0
  -24.0910   -4.4671    1.8412 C   0  0  0  0  0  0  0  0  0  0  0  0
  -24.6864   -4.8247    0.9976 H   0  0  0  0  0  0  0  0  0  0  0  0
  -24.2308   -5.1414    2.6997 H   0  0  0  0  0  0  0  0  0  0  0  0
  -24.0578   -0.4297    0.8080 Cl  0  0  0  0  0  0  0  0  0  0  0  0
  -26.8041   -0.6208   -1.1671 Cl  0  0  0  0  0  0  0  0  0  0  0  0
  -25.6661   -1.8567    0.5082 Mo  0  0  0  0  0  0  0  0  0  0  0  0
  -24.6187   -3.1907    2.1883 O   0  0  0  0  0  0  0  0  0  0  0  0
  -27.3977   -1.0727    3.3036 C   0  0  0  0  0  0  0  0  0  0  0  0
  -27.2445   -0.4065    4.1671 H   0  0  0  0  0  0  0  0  0  0  0  0
  -26.9296   -2.0408    3.5025 H   0  0  0  0  0  0  0  0  0  0  0  0
  -28.8930   -1.2411    3.0380 C   0  0  0  0  0  0  0  0  0  0  0  0
  -29.3708   -1.6439    3.9316 H   0  0  0  0  0  0  0  0  0  0  0  0
  -29.0283   -1.9530    2.2209 H   0  0  0  0  0  0  0  0  0  0  0  0
  -29.5027    0.1026    2.6472 C   0  0  0  0  0  0  0  0  0  0  0  0
  -30.5517   -0.0235    2.3789 H   0  0  0  0  0  0  0  0  0  0  0  0
  -29.4502    0.7936    3.4928 H   0  0  0  0  0  0  0  0  0  0  0  0
  -28.7159    0.6696    1.4692 C   0  0  0  0  0  0  0  0  0  0  0  0
  -28.8153    0.0136    0.6013 H   0  0  0  0  0  0  0  0  0  0  0  0
  -29.0764    1.6609    1.1961 H   0  0  0  0  0  0  0  0  0  0  0  0
  -27.2406    0.7540    1.8412 C   0  0  0  0  0  0  0  0  0  0  0  0
  -26.6452    1.1115    0.9976 H   0  0  0  0  0  0  0  0  0  0  0  0
  -27.1007    1.4283    2.6996 H   0  0  0  0  0  0  0  0  0  0  0  0
  -27.2735   -3.2842    0.8088 Cl  0  0  0  0  0  0  0  0  0  0  0  0
  -24.5270   -3.0915   -1.1667 Cl  0  0  0  0  0  0  0  0  0  0  0  0
  -26.7128   -0.5224    2.1884 O   0  0  0  0  0  0  0  0  0  0  0  0
  1  3  1  0  0  0  0
  1  2  1  0  0  0  0
  4  1  1  0  0  0  0
  4  5  1  0  0  0  0
  6  4  1  0  0  0  0
  7  4  1  0  0  0  0
  7  9  1  0  0  0  0
  8  7  1  0  0  0  0
 10 13  1  0  0  0  0
 10  7  1  0  0  0  0
 11 10  1  0  0  0  0
 12 10  1  0  0  0  0
 13 19  1  0  0  0  0
 13 15  1  0  0  0  0
 14 13  1  0  0  0  0
 17 18  1  0  0  0  0
 18 16  1  0  0  0  0
 18 35  1  0  0  0  0
 19  1  1  0  0  0  0
 20 22  1  0  0  0  0
 20 21  1  0  0  0  0
 23 20  1  0  0  0  0
 23 24  1  0  0  0  0
 25 23  1  0  0  0  0
 26 23  1  0  0  0  0
 26 28  1  0  0  0  0
 27 26  1  0  0  0  0
 29 32  1  0  0  0  0
 29 26  1  0  0  0  0
 30 29  1  0  0  0  0
 31 29  1  0  0  0  0
 32 37  1  0  0  0  0
 32 34  1  0  0  0  0
 33 32  1  0  0  0  0
 36 18  1  0  0  0  0
 37 20  1  0  0  0  0
M  END
$$$$
