CSD_code = LIJTEG | q = 0 | S = 0 | Stoichiometry = C28H29Br2NP2Pd | MND = 4
 OpenBabel04212202063D

 63 67  0  0  0  0  0  0  0  0999 V2000
    4.1789    4.0873   14.5428 Pd  0  0  0  0  0  0  0  0  0  0  0  0
    4.9794    5.0452   12.5040 Br  0  0  0  0  0  0  0  0  0  0  0  0
    1.8471    4.1079   14.0195 Br  0  0  0  0  0  0  0  0  0  0  0  0
    7.4969    2.8313   14.8600 C   0  0  0  0  0  0  0  0  0  0  0  0
    6.2107    3.9452   15.4705 P   0  0  0  0  0  4  0  0  0  0  0  0
    3.8883    3.2307   16.5902 P   0  0  0  0  0  4  0  0  0  0  0  0
    5.5740    3.3671   16.9779 N   0  0  0  0  0  0  0  0  0  0  0  0
    7.6388    1.5111   15.2694 C   0  0  0  0  0  0  0  0  0  0  0  0
    8.5500    0.6854   14.6375 C   0  0  0  0  0  0  0  0  0  0  0  0
    9.3022    1.1637   13.5769 C   0  0  0  0  0  0  0  0  0  0  0  0
    9.1303    2.4665   13.1343 C   0  0  0  0  0  0  0  0  0  0  0  0
    8.2255    3.2982   13.7648 C   0  0  0  0  0  0  0  0  0  0  0  0
    7.0281    5.5623   15.6789 C   0  0  0  0  0  0  0  0  0  0  0  0
    6.1950    6.6738   15.5709 C   0  0  0  0  0  0  0  0  0  0  0  0
    6.7125    7.9505   15.6739 C   0  0  0  0  0  0  0  0  0  0  0  0
    8.0732    8.1254   15.8702 C   0  0  0  0  0  0  0  0  0  0  0  0
    8.9118    7.0250   15.9454 C   0  0  0  0  0  0  0  0  0  0  0  0
    8.3974    5.7449   15.8448 C   0  0  0  0  0  0  0  0  0  0  0  0
    3.3112    1.5403   16.8696 C   0  0  0  0  0  0  0  0  0  0  0  0
    1.9309    1.3570   16.7694 C   0  0  0  0  0  0  0  0  0  0  0  0
    1.3990    0.0836   16.8252 C   0  0  0  0  0  0  0  0  0  0  0  0
    2.2358   -1.0135   16.9632 C   0  0  0  0  0  0  0  0  0  0  0  0
    3.6086   -0.8370   17.0221 C   0  0  0  0  0  0  0  0  0  0  0  0
    4.1477    0.4348   16.9611 C   0  0  0  0  0  0  0  0  0  0  0  0
    2.8746    4.2760   17.6879 C   0  0  0  0  0  0  0  0  0  0  0  0
    2.2044    3.8226   18.8197 C   0  0  0  0  0  0  0  0  0  0  0  0
    1.4223    4.6987   19.5506 C   0  0  0  0  0  0  0  0  0  0  0  0
    1.2939    6.0206   19.1555 C   0  0  0  0  0  0  0  0  0  0  0  0
    1.9343    6.4698   18.0115 C   0  0  0  0  0  0  0  0  0  0  0  0
    2.7143    5.5976   17.2774 C   0  0  0  0  0  0  0  0  0  0  0  0
    6.1850    3.4775   18.3149 C   0  0  0  0  0  0  0  0  0  0  0  0
    5.5099    2.4963   19.2718 C   0  0  0  0  0  0  0  0  0  0  0  0
    5.7058    1.4672   18.9838 H   0  0  0  0  0  0  0  0  0  0  0  0
    5.8941    2.6485   20.2776 H   0  0  0  0  0  0  0  0  0  0  0  0
    4.4360    2.6577   19.2871 H   0  0  0  0  0  0  0  0  0  0  0  0
    6.0118    4.9044   18.8490 C   0  0  0  0  0  0  0  0  0  0  0  0
    6.4922    5.6203   18.1858 H   0  0  0  0  0  0  0  0  0  0  0  0
    4.9563    5.1560   18.9267 H   0  0  0  0  0  0  0  0  0  0  0  0
    6.4611    4.9922   19.8352 H   0  0  0  0  0  0  0  0  0  0  0  0
    7.6743    3.1483   18.2271 C   0  0  0  0  0  0  0  0  0  0  0  0
    7.8319    2.1078   17.9566 H   0  0  0  0  0  0  0  0  0  0  0  0
    8.1604    3.7793   17.4888 H   0  0  0  0  0  0  0  0  0  0  0  0
    8.1428    3.3254   19.1922 H   0  0  0  0  0  0  0  0  0  0  0  0
    7.0306    1.1316   16.0771 H   0  0  0  0  0  0  0  0  0  0  0  0
    8.6651   -0.3375   14.9655 H   0  0  0  0  0  0  0  0  0  0  0  0
   10.0091    0.5145   13.0827 H   0  0  0  0  0  0  0  0  0  0  0  0
    9.6935    2.8310   12.2887 H   0  0  0  0  0  0  0  0  0  0  0  0
    8.0620    4.3056   13.4036 H   0  0  0  0  0  0  0  0  0  0  0  0
    5.1318    6.5274   15.3671 H   0  0  0  0  0  0  0  0  0  0  0  0
    6.0613    8.8062   15.5830 H   0  0  0  0  0  0  0  0  0  0  0  0
    8.4840    9.1209   15.9443 H   0  0  0  0  0  0  0  0  0  0  0  0
    9.9753    7.1630   16.0725 H   0  0  0  0  0  0  0  0  0  0  0  0
    9.0651    4.8943   15.8722 H   0  0  0  0  0  0  0  0  0  0  0  0
    1.2864    2.2156   16.6289 H   0  0  0  0  0  0  0  0  0  0  0  0
    0.3312   -0.0546   16.7487 H   0  0  0  0  0  0  0  0  0  0  0  0
    1.8190   -2.0085   17.0059 H   0  0  0  0  0  0  0  0  0  0  0  0
    4.2619   -1.6935   17.1040 H   0  0  0  0  0  0  0  0  0  0  0  0
    5.2188    0.5718   16.9781 H   0  0  0  0  0  0  0  0  0  0  0  0
    2.2721    2.7852   19.1185 H   0  0  0  0  0  0  0  0  0  0  0  0
    0.9020    4.3434   20.4276 H   0  0  0  0  0  0  0  0  0  0  0  0
    0.6772    6.6959   19.7290 H   0  0  0  0  0  0  0  0  0  0  0  0
    1.8107    7.4906   17.6837 H   0  0  0  0  0  0  0  0  0  0  0  0
    3.1836    5.9289   16.3486 H   0  0  0  0  0  0  0  0  0  0  0  0
  1  5  1  0  0  0  0
  1  6  1  0  0  0  0
  2  1  1  0  0  0  0
  3  1  1  0  0  0  0
  4  8  1  0  0  0  0
  4  5  1  0  0  0  0
  5 13  1  0  0  0  0
  5  7  1  0  0  0  0
  6 19  1  0  0  0  0
  6  7  1  0  0  0  0
  6 25  1  0  0  0  0
  7 31  1  0  0  0  0
  8 44  1  0  0  0  0
  9 45  1  0  0  0  0
  9  8  2  0  0  0  0
 10  9  1  0  0  0  0
 11 10  2  0  0  0  0
 11 12  1  0  0  0  0
 12  4  2  0  0  0  0
 13 18  1  0  0  0  0
 14 15  1  0  0  0  0
 14 13  2  0  0  0  0
 15 16  2  0  0  0  0
 16 51  1  0  0  0  0
 16 17  1  0  0  0  0
 17 52  1  0  0  0  0
 18 53  1  0  0  0  0
 18 17  2  0  0  0  0
 19 24  1  0  0  0  0
 20 21  1  0  0  0  0
 20 19  2  0  0  0  0
 21 22  2  0  0  0  0
 22 56  1  0  0  0  0
 22 23  1  0  0  0  0
 23 57  1  0  0  0  0
 24 58  1  0  0  0  0
 24 23  2  0  0  0  0
 25 26  1  0  0  0  0
 26 59  1  0  0  0  0
 26 27  2  0  0  0  0
 27 60  1  0  0  0  0
 28 27  1  0  0  0  0
 28 61  1  0  0  0  0
 29 28  2  0  0  0  0
 30 25  2  0  0  0  0
 30 29  1  0  0  0  0
 31 36  1  0  0  0  0
 31 32  1  0  0  0  0
 32 35  1  0  0  0  0
 32 34  1  0  0  0  0
 33 32  1  0  0  0  0
 36 38  1  0  0  0  0
 36 39  1  0  0  0  0
 37 36  1  0  0  0  0
 40 31  1  0  0  0  0
 40 43  1  0  0  0  0
 41 40  1  0  0  0  0
 42 40  1  0  0  0  0
 46 10  1  0  0  0  0
 47 11  1  0  0  0  0
 48 12  1  0  0  0  0
 49 14  1  0  0  0  0
 50 15  1  0  0  0  0
 54 20  1  0  0  0  0
 55 21  1  0  0  0  0
 62 29  1  0  0  0  0
 63 30  1  0  0  0  0
M  END
$$$$
