CSD_code = LIJTIK | q = 0 | S = 0 | Stoichiometry = C28H29I2NP2Pd | MND = 4
 OpenBabel04212202063D

 63 67  0  0  0  0  0  0  0  0999 V2000
    0.8699    4.1800    9.8342 Pd  0  0  0  0  0  0  0  0  0  0  0  0
    0.4333    5.2869   12.1180 I   0  0  0  0  0  0  0  0  0  0  0  0
   -1.4822    4.3449    8.7867 I   0  0  0  0  0  0  0  0  0  0  0  0
    2.9847    3.6946   10.3188 P   0  0  0  0  0  4  0  0  0  0  0  0
    3.3417    2.4622   11.5907 C   0  0  0  0  0  0  0  0  0  0  0  0
    3.3139    1.0947   11.3413 C   0  0  0  0  0  0  0  0  0  0  0  0
    3.4294    0.1978   12.3863 C   0  0  0  0  0  0  0  0  0  0  0  0
    3.5447    0.6600   13.6876 C   0  0  0  0  0  0  0  0  0  0  0  0
    3.5318    2.0218   13.9456 C   0  0  0  0  0  0  0  0  0  0  0  0
    3.4231    2.9241   12.9048 C   0  0  0  0  0  0  0  0  0  0  0  0
    4.0792    5.1097   10.6583 C   0  0  0  0  0  0  0  0  0  0  0  0
    5.2779    5.0403   11.3610 C   0  0  0  0  0  0  0  0  0  0  0  0
    6.0062    6.1944   11.5865 C   0  0  0  0  0  0  0  0  0  0  0  0
    5.5434    7.4175   11.1277 C   0  0  0  0  0  0  0  0  0  0  0  0
    4.3355    7.4958   10.4535 C   0  0  0  0  0  0  0  0  0  0  0  0
    3.6048    6.3458   10.2271 C   0  0  0  0  0  0  0  0  0  0  0  0
    1.7373    3.2694    8.0017 P   0  0  0  0  0  4  0  0  0  0  0  0
    1.8462    4.4868    6.6472 C   0  0  0  0  0  0  0  0  0  0  0  0
    1.5645    5.8046    7.0009 C   0  0  0  0  0  0  0  0  0  0  0  0
    1.6058    6.8113    6.0553 C   0  0  0  0  0  0  0  0  0  0  0  0
    1.9196    6.5046    4.7414 C   0  0  0  0  0  0  0  0  0  0  0  0
    2.1718    5.1918    4.3755 C   0  0  0  0  0  0  0  0  0  0  0  0
    2.1310    4.1817    5.3193 C   0  0  0  0  0  0  0  0  0  0  0  0
    1.1433    1.7371    7.2532 C   0  0  0  0  0  0  0  0  0  0  0  0
    0.1347    1.8461    6.2962 C   0  0  0  0  0  0  0  0  0  0  0  0
   -0.4764    0.7064    5.8089 C   0  0  0  0  0  0  0  0  0  0  0  0
   -0.1005   -0.5413    6.2802 C   0  0  0  0  0  0  0  0  0  0  0  0
    0.8748   -0.6498    7.2588 C   0  0  0  0  0  0  0  0  0  0  0  0
    1.4842    0.4860    7.7562 C   0  0  0  0  0  0  0  0  0  0  0  0
    3.2869    3.0383    8.7434 N   0  0  0  0  0  0  0  0  0  0  0  0
    4.5904    2.8255    8.0905 C   0  0  0  0  0  0  0  0  0  0  0  0
    5.5805    2.2560    9.1051 C   0  0  0  0  0  0  0  0  0  0  0  0
    4.4301    1.8344    6.9393 C   0  0  0  0  0  0  0  0  0  0  0  0
    5.1233    4.1580    7.5512 C   0  0  0  0  0  0  0  0  0  0  0  0
    3.1959    0.7369   10.3282 H   0  0  0  0  0  0  0  0  0  0  0  0
    3.4153   -0.8639   12.1869 H   0  0  0  0  0  0  0  0  0  0  0  0
    3.6262   -0.0431   14.5028 H   0  0  0  0  0  0  0  0  0  0  0  0
    3.5929    2.3830   14.9609 H   0  0  0  0  0  0  0  0  0  0  0  0
    3.3816    3.9865   13.1071 H   0  0  0  0  0  0  0  0  0  0  0  0
    5.6337    4.0962   11.7513 H   0  0  0  0  0  0  0  0  0  0  0  0
    6.9358    6.1385   12.1330 H   0  0  0  0  0  0  0  0  0  0  0  0
    6.1164    8.3131   11.3137 H   0  0  0  0  0  0  0  0  0  0  0  0
    3.9574    8.4506   10.1215 H   0  0  0  0  0  0  0  0  0  0  0  0
    2.6325    6.4011    9.7362 H   0  0  0  0  0  0  0  0  0  0  0  0
    1.2663    6.0360    8.0298 H   0  0  0  0  0  0  0  0  0  0  0  0
    1.3775    7.8275    6.3384 H   0  0  0  0  0  0  0  0  0  0  0  0
    1.9488    7.2856    3.9969 H   0  0  0  0  0  0  0  0  0  0  0  0
    2.3926    4.9498    3.3465 H   0  0  0  0  0  0  0  0  0  0  0  0
    2.3001    3.1581    5.0141 H   0  0  0  0  0  0  0  0  0  0  0  0
   -0.1799    2.8218    5.9511 H   0  0  0  0  0  0  0  0  0  0  0  0
   -1.2574    0.7949    5.0693 H   0  0  0  0  0  0  0  0  0  0  0  0
   -0.5810   -1.4297    5.8992 H   0  0  0  0  0  0  0  0  0  0  0  0
    1.1499   -1.6202    7.6454 H   0  0  0  0  0  0  0  0  0  0  0  0
    2.2221    0.4072    8.5417 H   0  0  0  0  0  0  0  0  0  0  0  0
    5.3662    1.7573    6.3918 H   0  0  0  0  0  0  0  0  0  0  0  0
    3.6566    2.1678    6.2530 H   0  0  0  0  0  0  0  0  0  0  0  0
    4.1650    0.8464    7.3068 H   0  0  0  0  0  0  0  0  0  0  0  0
    5.6650    2.9141    9.9653 H   0  0  0  0  0  0  0  0  0  0  0  0
    5.2708    1.2715    9.4463 H   0  0  0  0  0  0  0  0  0  0  0  0
    6.5614    2.1665    8.6443 H   0  0  0  0  0  0  0  0  0  0  0  0
    6.0846    4.0086    7.0658 H   0  0  0  0  0  0  0  0  0  0  0  0
    4.4314    4.5806    6.8255 H   0  0  0  0  0  0  0  0  0  0  0  0
    5.2531    4.8722    8.3619 H   0  0  0  0  0  0  0  0  0  0  0  0
  1  4  1  0  0  0  0
  1  2  1  0  0  0  0
  3  1  1  0  0  0  0
  4 11  1  0  0  0  0
  4  5  1  0  0  0  0
  5 10  1  0  0  0  0
  6  5  2  0  0  0  0
  6  7  1  0  0  0  0
  7  8  2  0  0  0  0
  8  9  1  0  0  0  0
  8 37  1  0  0  0  0
  9 38  1  0  0  0  0
 10 39  1  0  0  0  0
 10  9  2  0  0  0  0
 11 12  1  0  0  0  0
 12 13  2  0  0  0  0
 12 40  1  0  0  0  0
 13 41  1  0  0  0  0
 14 42  1  0  0  0  0
 14 13  1  0  0  0  0
 15 14  2  0  0  0  0
 16 15  1  0  0  0  0
 16 11  2  0  0  0  0
 17 30  1  0  0  0  0
 17  1  1  0  0  0  0
 18 19  1  0  0  0  0
 18 17  1  0  0  0  0
 19 45  1  0  0  0  0
 20 46  1  0  0  0  0
 20 19  2  0  0  0  0
 21 20  1  0  0  0  0
 22 21  2  0  0  0  0
 22 23  1  0  0  0  0
 23 18  2  0  0  0  0
 24 29  1  0  0  0  0
 24 17  1  0  0  0  0
 25 24  2  0  0  0  0
 26 27  2  0  0  0  0
 26 25  1  0  0  0  0
 27 28  1  0  0  0  0
 28 53  1  0  0  0  0
 28 29  2  0  0  0  0
 29 54  1  0  0  0  0
 30  4  1  0  0  0  0
 31 30  1  0  0  0  0
 31 32  1  0  0  0  0
 32 59  1  0  0  0  0
 32 58  1  0  0  0  0
 33 57  1  0  0  0  0
 33 31  1  0  0  0  0
 34 31  1  0  0  0  0
 34 63  1  0  0  0  0
 35  6  1  0  0  0  0
 36  7  1  0  0  0  0
 43 15  1  0  0  0  0
 44 16  1  0  0  0  0
 47 21  1  0  0  0  0
 48 22  1  0  0  0  0
 49 23  1  0  0  0  0
 50 25  1  0  0  0  0
 51 26  1  0  0  0  0
 52 27  1  0  0  0  0
 55 33  1  0  0  0  0
 56 33  1  0  0  0  0
 60 32  1  0  0  0  0
 61 34  1  0  0  0  0
 62 34  1  0  0  0  0
M  END
$$$$
