CSD_code = LIKRIG | q = 0 | S = 0 | Stoichiometry = C16H14Br2N4SZn | MND = 4
 OpenBabel04212202063D

 38 42  0  0  1  0  0  0  0  0999 V2000
   -0.7750    2.4738    2.3254 Zn  0  0  0  0  0  0  0  0  0  0  0  0
   -2.5504    1.5075    3.5311 Br  0  0  0  0  0  0  0  0  0  0  0  0
    1.3692    2.0471    1.4053 Br  0  0  0  0  0  0  0  0  0  0  0  0
   -1.2748    6.6854    1.3307 S   0  0  0  0  0  0  0  0  0  0  0  0
   -0.3932    4.1775    3.5875 N   0  0  0  0  0  0  0  0  0  0  0  0
   -0.6938    6.0587    4.7112 N   0  0  0  0  0  0  0  0  0  0  0  0
   -1.0746    6.9574    4.9582 H   0  0  0  0  0  0  0  0  0  0  0  0
    0.4782    4.1821    4.6549 C   0  0  0  0  0  0  0  0  0  0  0  0
    1.4202    3.2445    5.0617 C   0  0  0  0  0  0  0  0  0  0  0  0
    1.5752    2.3280    4.5151 H   0  0  0  0  0  0  0  0  0  0  0  0
    2.1542    3.5392    6.1906 C   0  0  0  0  0  0  0  0  0  0  0  0
    2.8953    2.8350    6.5350 H   0  0  0  0  0  0  0  0  0  0  0  0
    1.9664    4.7254    6.9042 C   0  0  0  0  0  0  0  0  0  0  0  0
    2.5648    4.9083    7.7834 H   0  0  0  0  0  0  0  0  0  0  0  0
    1.0358    5.6668    6.5140 C   0  0  0  0  0  0  0  0  0  0  0  0
    0.8886    6.5832    7.0639 H   0  0  0  0  0  0  0  0  0  0  0  0
    0.2963    5.3779    5.3788 C   0  0  0  0  0  0  0  0  0  0  0  0
   -1.0756    5.2959    3.6592 C   0  0  1  0  0  3  0  0  0  0  0  0
   -2.0841    5.7294    2.6762 C   0  0  0  0  0  0  0  0  0  0  0  0
   -2.8076    6.4141    3.1152 H   0  0  0  0  0  0  0  0  0  0  0  0
   -2.5979    4.8784    2.2307 H   0  0  0  0  0  0  0  0  0  0  0  0
   -1.6756    3.3208    0.5577 N   0  0  0  0  0  0  0  0  0  0  0  0
   -1.6866    4.4901   -1.3200 N   0  0  0  0  0  0  0  0  0  0  0  0
   -1.4519    5.2134   -1.9798 H   0  0  0  0  0  0  0  0  0  0  0  0
   -2.5369    2.7042   -0.3257 C   0  0  0  0  0  0  0  0  0  0  0  0
   -3.3209    1.5644   -0.1865 C   0  0  0  0  0  0  0  0  0  0  0  0
   -3.3314    0.9957    0.7287 H   0  0  0  0  0  0  0  0  0  0  0  0
   -4.0945    1.1980   -1.2673 C   0  0  0  0  0  0  0  0  0  0  0  0
   -4.7159    0.3192   -1.1945 H   0  0  0  0  0  0  0  0  0  0  0  0
   -4.0988    1.9310   -2.4561 C   0  0  0  0  0  0  0  0  0  0  0  0
   -4.7209    1.6011   -3.2741 H   0  0  0  0  0  0  0  0  0  0  0  0
   -3.3290    3.0659   -2.6097 C   0  0  0  0  0  0  0  0  0  0  0  0
   -3.3305    3.6354   -3.5258 H   0  0  0  0  0  0  0  0  0  0  0  0
   -2.5507    3.4417   -1.5270 C   0  0  0  0  0  0  0  0  0  0  0  0
   -1.1857    4.3662   -0.0684 C   0  0  1  0  0  3  0  0  0  0  0  0
   -0.2815    5.3619    0.5328 C   0  0  0  0  0  0  0  0  0  0  0  0
    0.3180    5.8689   -0.2212 H   0  0  0  0  0  0  0  0  0  0  0  0
    0.3699    4.9191    1.2843 H   0  0  0  0  0  0  0  0  0  0  0  0
  1  2  1  0  0  0  0
  1  5  1  0  0  0  0
  3  1  1  0  0  0  0
  4 19  1  0  0  0  0
  5 18  1  0  0  0  0
  5  8  1  0  0  0  0
  6  7  1  0  0  0  0
  6 17  1  0  0  0  0
  8  9  2  0  0  0  0
  8 17  1  0  0  0  0
  9 11  1  0  0  0  0
 10  9  1  0  0  0  0
 11 12  1  0  0  0  0
 11 13  2  0  0  0  0
 13 14  1  0  0  0  0
 15 13  1  0  0  0  0
 15 16  1  0  0  0  0
 17 15  2  0  0  0  0
 18 19  1  6  0  0  0
 18  6  1  0  0  0  0
 19 20  1  0  0  0  0
 21 19  1  0  0  0  0
 22  1  1  0  0  0  0
 24 23  1  0  0  0  0
 25 26  1  0  0  0  0
 25 22  1  0  0  0  0
 26 27  1  0  0  0  0
 28 29  1  0  0  0  0
 28 26  2  0  0  0  0
 30 28  1  0  0  0  0
 31 30  1  0  0  0  0
 32 30  2  0  0  0  0
 32 34  1  0  0  0  0
 33 32  1  0  0  0  0
 34 23  1  0  0  0  0
 34 25  2  0  0  0  0
 35 23  1  1  0  0  0
 35 36  1  0  0  0  0
 35 22  1  0  0  0  0
 36 38  1  0  0  0  0
 36  4  1  0  0  0  0
 37 36  1  0  0  0  0
M  END
$$$$
