CSD_code = LIKWUY | q = 0 | S = 0 | Stoichiometry = C13H13CdCl4N3S2 | MND = 4
 OpenBabel04212202063D

 36 39  0  0  1  0  0  0  0  0999 V2000
    4.5563   -1.7739    4.9108 C   0  0  0  0  0  0  0  0  0  0  0  0
    4.9379   -1.8206    3.5795 C   0  0  0  0  0  0  0  0  0  0  0  0
    5.1015   -0.8953    3.0501 H   0  0  0  0  0  0  0  0  0  0  0  0
    4.2855   -2.9493    5.6074 C   0  0  0  0  0  0  0  0  0  0  0  0
    4.3787   -4.1722    4.9534 C   0  0  0  0  0  0  0  0  0  0  0  0
    4.1547   -5.0775    5.4948 H   0  0  0  0  0  0  0  0  0  0  0  0
    4.7480   -4.2252    3.6262 C   0  0  0  0  0  0  0  0  0  0  0  0
    4.8261   -5.1763    3.1130 H   0  0  0  0  0  0  0  0  0  0  0  0
    5.0511   -3.0499    2.9301 C   0  0  0  0  0  0  0  0  0  0  0  0
    5.3947   -3.1830    1.5912 N   0  0  0  0  0  0  0  0  0  0  0  0
    6.2506   -2.4804    0.9596 C   0  0  2  0  0  3  0  0  0  0  0  0
    6.5720   -2.7132   -0.3577 N   0  0  2  0  0  0  0  0  0  0  0  0
    7.2060   -1.1614    1.6706 S   0  0  0  0  0  0  0  0  0  0  0  0
    6.9201   -1.5392   -1.1442 C   0  0  0  0  0  0  0  0  0  0  0  0
    6.2225   -0.7432   -0.8695 H   0  0  0  0  0  0  0  0  0  0  0  0
    6.7699   -1.7667   -2.1988 H   0  0  0  0  0  0  0  0  0  0  0  0
    8.6831   -1.3387    0.6057 C   0  0  0  0  0  0  0  0  0  0  0  0
    9.0556   -2.3500    0.7679 H   0  0  0  0  0  0  0  0  0  0  0  0
    9.4079   -0.6268    0.9940 H   0  0  0  0  0  0  0  0  0  0  0  0
    8.3580   -1.0946   -0.8639 C   0  0  0  0  0  0  0  0  0  0  0  0
    8.4555   -0.0383   -1.1120 H   0  0  0  0  0  0  0  0  0  0  0  0
    9.0586   -1.6601   -1.4796 H   0  0  0  0  0  0  0  0  0  0  0  0
    6.5349   -3.9526   -0.9255 C   0  0  2  0  0  3  0  0  0  0  0  0
    6.1149   -5.0122   -0.3531 N   0  0  2  0  0  0  0  0  0  0  0  0
    6.3428   -6.2132   -1.1264 C   0  0  0  0  0  0  0  0  0  0  0  0
    5.4907   -6.8877   -0.9980 H   0  0  0  0  0  0  0  0  0  0  0  0
    7.2420   -6.7032   -0.7292 H   0  0  0  0  0  0  0  0  0  0  0  0
    6.5293   -5.8280   -2.5970 C   0  0  0  0  0  0  0  0  0  0  0  0
    5.5743   -5.7541   -3.1208 H   0  0  0  0  0  0  0  0  0  0  0  0
    7.2036   -6.4902   -3.1328 H   0  0  0  0  0  0  0  0  0  0  0  0
    7.2366   -4.1571   -2.5394 S   0  0  0  0  0  0  0  0  0  0  0  0
    3.8208   -2.8938    7.2614 Cl  0  0  0  0  0  0  0  0  0  0  0  0
    4.4149   -0.2485    5.6922 Cl  0  0  0  0  0  0  0  0  0  0  0  0
    3.8757   -4.5161    0.3099 Cd  0  0  0  0  0  0  0  0  0  0  0  0
    3.0418   -6.6788    0.2248 Cl  0  0  0  0  0  0  0  0  0  0  0  0
    3.6395   -3.1882   -1.6054 Cl  0  0  0  0  0  0  0  0  0  0  0  0
  1  4  1  0  0  0  0
  1 33  1  0  0  0  0
  2  1  2  0  0  0  0
  3  2  1  0  0  0  0
  4 32  1  0  0  0  0
  5  6  1  0  0  0  0
  5  4  2  0  0  0  0
  7  5  1  0  0  0  0
  8  7  1  0  0  0  0
  9  2  1  0  0  0  0
  9  7  2  0  0  0  0
 10  9  1  0  0  0  0
 11 10  1  0  0  0  0
 11 13  1  1  0  0  0
 12 14  1  6  0  0  0
 12 11  1  0  0  0  0
 14 15  1  0  0  0  0
 14 20  1  0  0  0  0
 16 14  1  0  0  0  0
 17 18  1  0  0  0  0
 17 19  1  0  0  0  0
 17 13  1  0  0  0  0
 20 17  1  0  0  0  0
 21 20  1  0  0  0  0
 22 20  1  0  0  0  0
 23 31  1  1  0  0  0
 23 12  1  0  0  0  0
 23 24  1  0  0  0  0
 24 25  1  6  0  0  0
 24 34  1  0  0  0  0
 25 26  1  0  0  0  0
 25 27  1  0  0  0  0
 28 31  1  0  0  0  0
 28 25  1  0  0  0  0
 29 28  1  0  0  0  0
 30 28  1  0  0  0  0
 34 10  1  0  0  0  0
 35 34  1  0  0  0  0
 36 34  1  0  0  0  0
M  END
$$$$
