CSD_code = LILCOZ | q = 0 | S = 0 | Stoichiometry = C23H25Cl2NTi | MND = 8
 OpenBabel04212202063D

 52 55  0  0  1  0  0  0  0  0999 V2000
    1.2883    3.4595    3.8656 Ti  0  0  0  0  0  0  0  0  0  0  0  0
   -0.8404    3.1855    4.2785 Cl  0  0  0  0  0  0  0  0  0  0  0  0
    1.3306    2.1790    2.0831 Cl  0  0  0  0  0  0  0  0  0  0  0  0
    1.3523    5.0441    3.0577 N   0  0  0  0  0  2  0  0  0  0  0  0
    2.7462    4.4019    5.3884 C   0  0  0  0  0  0  0  0  0  0  0  0
    3.4594    3.4954    4.5434 C   0  0  1  0  0  0  0  0  0  0  0  0
    2.9548    2.1865    4.7674 C   0  0  2  0  0  3  0  0  0  0  0  0
    1.8980    2.2861    5.7150 C   0  0  1  0  0  0  0  0  0  0  0  0
    1.7792    3.6506    6.1092 C   0  0  0  0  0  0  0  0  0  0  0  0
    3.1183    5.8453    5.5797 C   0  0  0  0  0  0  0  0  0  0  0  0
    4.6222    3.8511    3.6645 C   0  0  0  0  0  0  0  0  0  0  0  0
    3.5430    0.9269    4.2032 C   0  0  0  0  0  0  0  0  0  0  0  0
    1.1183    1.1515    6.3113 C   0  0  0  0  0  0  0  0  0  0  0  0
    0.8503    4.1397    7.1835 C   0  0  0  0  0  0  0  0  0  0  0  0
    0.6217    5.8467    2.4127 C   0  0  0  0  0  3  0  0  0  0  0  0
    1.0538    6.3620    1.0948 C   0  0  0  0  0  0  0  0  0  0  0  0
    0.7134    7.6379    0.6521 C   0  0  0  0  0  0  0  0  0  0  0  0
    1.1655    8.0857   -0.5762 C   0  0  0  0  0  0  0  0  0  0  0  0
    1.9516    7.2675   -1.3714 C   0  0  0  0  0  0  0  0  0  0  0  0
    2.2998    5.9995   -0.9317 C   0  0  0  0  0  0  0  0  0  0  0  0
    1.8613    5.5495    0.2985 C   0  0  0  0  0  0  0  0  0  0  0  0
   -0.6709    6.2924    2.9856 C   0  0  0  0  0  0  0  0  0  0  0  0
   -0.7932    6.3863    4.3725 C   0  0  0  0  0  0  0  0  0  0  0  0
   -2.0046    6.7254    4.9425 C   0  0  0  0  0  0  0  0  0  0  0  0
   -3.1093    6.9564    4.1369 C   0  0  0  0  0  0  0  0  0  0  0  0
   -2.9982    6.8483    2.7608 C   0  0  0  0  0  0  0  0  0  0  0  0
   -1.7848    6.5210    2.1819 C   0  0  0  0  0  0  0  0  0  0  0  0
    4.1225    5.9133    6.0039 H   0  0  0  0  0  0  0  0  0  0  0  0
    3.1147    6.3806    4.6285 H   0  0  0  0  0  0  0  0  0  0  0  0
    2.4293    6.3453    6.2573 H   0  0  0  0  0  0  0  0  0  0  0  0
    4.6760    3.1769    2.8097 H   0  0  0  0  0  0  0  0  0  0  0  0
    4.5253    4.8720    3.2955 H   0  0  0  0  0  0  0  0  0  0  0  0
    5.5598    3.7728    4.2210 H   0  0  0  0  0  0  0  0  0  0  0  0
    2.8778    0.0792    4.3565 H   0  0  0  0  0  0  0  0  0  0  0  0
    4.4939    0.7094    4.6961 H   0  0  0  0  0  0  0  0  0  0  0  0
    3.7282    1.0245    3.1328 H   0  0  0  0  0  0  0  0  0  0  0  0
    1.0489    0.3134    5.6175 H   0  0  0  0  0  0  0  0  0  0  0  0
    0.1072    1.4719    6.5628 H   0  0  0  0  0  0  0  0  0  0  0  0
    1.6032    0.7974    7.2252 H   0  0  0  0  0  0  0  0  0  0  0  0
    1.0354    3.5960    8.1120 H   0  0  0  0  0  0  0  0  0  0  0  0
   -0.1917    3.9794    6.8969 H   0  0  0  0  0  0  0  0  0  0  0  0
    0.9954    5.2009    7.3768 H   0  0  0  0  0  0  0  0  0  0  0  0
    0.1114    8.2819    1.2769 H   0  0  0  0  0  0  0  0  0  0  0  0
    0.9030    9.0772   -0.9153 H   0  0  0  0  0  0  0  0  0  0  0  0
    2.2953    7.6196   -2.3329 H   0  0  0  0  0  0  0  0  0  0  0  0
    2.9140    5.3626   -1.5508 H   0  0  0  0  0  0  0  0  0  0  0  0
    2.1186    4.5603    0.6601 H   0  0  0  0  0  0  0  0  0  0  0  0
    0.0809    6.1932    4.9858 H   0  0  0  0  0  0  0  0  0  0  0  0
   -2.0941    6.8011    6.0162 H   0  0  0  0  0  0  0  0  0  0  0  0
   -4.0593    7.2113    4.5830 H   0  0  0  0  0  0  0  0  0  0  0  0
   -3.8631    7.0125    2.1346 H   0  0  0  0  0  0  0  0  0  0  0  0
   -1.7063    6.4130    1.1095 H   0  0  0  0  0  0  0  0  0  0  0  0
  1  2  1  0  0  0  0
  1  6  1  0  0  0  0
  1  8  1  0  0  0  0
  3  1  1  0  0  0  0
  4  1  1  0  0  0  0
  5 10  1  0  0  0  0
  5  9  2  0  0  0  0
  6 11  1  6  0  0  0
  6  7  1  0  0  0  0
  6  5  1  0  0  0  0
  7 12  1  1  0  0  0
  7  8  1  0  0  0  0
  8  9  1  0  0  0  0
  8 13  1  1  0  0  0
  9 14  1  0  0  0  0
 10 28  1  0  0  0  0
 10 30  1  0  0  0  0
 11 33  1  0  0  0  0
 12 34  1  0  0  0  0
 12 35  1  0  0  0  0
 13 38  1  0  0  0  0
 13 39  1  0  0  0  0
 14 42  1  0  0  0  0
 14 40  1  0  0  0  0
 15 22  1  0  0  0  0
 15  4  1  0  0  0  0
 16 15  1  0  0  0  0
 17 16  1  0  0  0  0
 17 43  1  0  0  0  0
 18 17  2  0  0  0  0
 19 20  2  0  0  0  0
 19 18  1  0  0  0  0
 20 21  1  0  0  0  0
 21 47  1  0  0  0  0
 21 16  2  0  0  0  0
 22 23  1  0  0  0  0
 23 24  2  0  0  0  0
 23 48  1  0  0  0  0
 24 49  1  0  0  0  0
 25 50  1  0  0  0  0
 25 24  1  0  0  0  0
 26 25  2  0  0  0  0
 27 26  1  0  0  0  0
 27 22  2  0  0  0  0
 29 10  1  0  0  0  0
 31 11  1  0  0  0  0
 32 11  1  0  0  0  0
 36 12  1  0  0  0  0
 37 13  1  0  0  0  0
 41 14  1  0  0  0  0
 44 18  1  0  0  0  0
 45 19  1  0  0  0  0
 46 20  1  0  0  0  0
 51 26  1  0  0  0  0
 52 27  1  0  0  0  0
M  END
$$$$
