CSD_code = LILJAT | q = 1 | S = 0 | Stoichiometry = C26H19ClN3Ru(1+) | MND = 9
 OpenBabel04212202063D

 50 55  0  0  1  0  0  0  0  0999 V2000
    1.1117    6.5178    3.0799 Ru  0  0  0  0  0  0  0  0  0  0  0  0
    3.2409    6.8718    2.2095 Cl  0  0  0  0  0 15  0  0  0  0  0  0
    1.8246    7.3503    4.7257 N   0  0  0  0  0  0  0  0  0  0  0  0
    0.7249    8.4426    2.7658 N   0  0  0  0  0  0  0  0  0  0  0  0
    1.8952   10.5456    6.5656 N   0  0  0  0  0  0  0  0  0  0  0  0
   -0.3355   10.2095    1.5005 C   0  0  0  0  0  0  0  0  0  0  0  0
    0.7729    9.2400    3.8419 C   0  0  0  0  0  0  0  0  0  0  0  0
    3.1619    9.4157    8.0790 C   0  0  0  0  0  0  0  0  0  0  0  0
    1.5095    8.6488    4.9490 C   0  0  0  0  0  0  0  0  0  0  0  0
    0.1624   10.5103    3.8292 C   0  0  0  0  0  0  0  0  0  0  0  0
    0.1128   11.0914    4.7335 H   0  0  0  0  0  0  0  0  0  0  0  0
    2.5891   10.6648    7.7541 C   0  0  2  0  0  3  0  0  0  0  0  0
    2.0055    9.2744    6.0998 C   0  0  0  0  0  0  0  0  0  0  0  0
    3.9113    9.2742    9.2441 C   0  0  0  0  0  0  0  0  0  0  0  0
    4.3555    8.3260    9.5012 H   0  0  0  0  0  0  0  0  0  0  0  0
    3.1125    7.2047    6.7289 C   0  0  0  0  0  0  0  0  0  0  0  0
    3.7394    6.6158    7.3769 H   0  0  0  0  0  0  0  0  0  0  0  0
    2.8032    8.5245    7.0192 C   0  0  0  0  0  0  0  0  0  0  0  0
    2.6065    6.6691    5.5607 C   0  0  0  0  0  0  0  0  0  0  0  0
    2.8558    5.6594    5.2616 H   0  0  0  0  0  0  0  0  0  0  0  0
    2.7504   11.7723    8.5699 C   0  0  0  0  0  0  0  0  0  0  0  0
    2.3111   12.7247    8.3179 H   0  0  0  0  0  0  0  0  0  0  0  0
    3.4974   11.6087    9.7219 C   0  0  0  0  0  0  0  0  0  0  0  0
    3.6419   12.4506   10.3806 H   0  0  0  0  0  0  0  0  0  0  0  0
    0.0367    8.6823   -0.8051 C   0  0  0  0  0  0  0  0  0  0  0  0
    0.2170    8.1272   -1.7124 H   0  0  0  0  0  0  0  0  0  0  0  0
   -0.4268   10.9701    2.6851 C   0  0  0  0  0  0  0  0  0  0  0  0
   -0.9380   11.9201    2.6675 H   0  0  0  0  0  0  0  0  0  0  0  0
   -0.6487    9.9047   -0.8710 C   0  0  0  0  0  0  0  0  0  0  0  0
   -1.0139   10.2581   -1.8224 H   0  0  0  0  0  0  0  0  0  0  0  0
    0.4898    8.1977    0.3936 C   0  0  0  0  0  0  0  0  0  0  0  0
    1.0746    7.2881    0.4418 H   0  0  0  0  0  0  0  0  0  0  0  0
    0.4683    4.7885    1.5303 C   0  0  0  0  0  0  0  0  0  0  0  0
    0.7645    4.5640    0.5124 H   0  0  0  0  0  0  0  0  0  0  0  0
    4.0686   10.3794   10.0541 C   0  0  0  0  0  0  0  0  0  0  0  0
    4.6448   10.2979   10.9622 H   0  0  0  0  0  0  0  0  0  0  0  0
   -0.8187   10.6607    0.2576 C   0  0  0  0  0  3  0  0  0  0  0  0
   -1.3053   11.6228    0.2114 H   0  0  0  0  0  0  0  0  0  0  0  0
    1.1947    4.2165    2.6115 C   0  0  0  0  0  0  0  0  0  0  0  0
    2.0391    3.5691    2.4011 H   0  0  0  0  0  0  0  0  0  0  0  0
   -0.6683    5.5530    1.7838 C   0  0  0  0  0  0  0  0  0  0  0  0
   -1.2717    5.9245    0.9640 H   0  0  0  0  0  0  0  0  0  0  0  0
   -0.3819    5.2049    4.1850 C   0  0  1  0  0  0  0  0  0  0  0  0
   -0.7622    5.2900    5.1971 H   0  0  0  0  0  0  0  0  0  0  0  0
   -1.0748    5.8044    3.1198 C   0  0  0  0  0  3  0  0  0  0  0  0
   -1.9899    6.3547    3.3079 H   0  0  0  0  0  0  0  0  0  0  0  0
    0.7414    4.3792    3.9220 C   0  0  0  0  0  0  0  0  0  0  0  0
    1.2093    3.8350    4.7342 H   0  0  0  0  0  0  0  0  0  0  0  0
    0.2869    8.9318    1.5784 C   0  0  0  0  0  0  0  0  0  0  0  0
    1.4757   11.3263    6.0909 H   0  0  0  0  0  0  0  0  0  0  0  0
  1 43  1  0  0  0  0
  1  3  1  0  0  0  0
  3  9  1  0  0  0  0
  3 19  1  0  0  0  0
  4  1  1  0  0  0  0
  4  7  1  0  0  0  0
  5 12  1  0  0  0  0
  6 49  1  0  0  0  0
  6 27  2  0  0  0  0
  7  9  1  0  0  0  0
  8 14  1  0  0  0  0
  9 13  2  0  0  0  0
 10  7  2  0  0  0  0
 10 11  1  0  0  0  0
 12  8  1  1  0  0  0
 12 21  1  0  0  0  0
 13  5  1  0  0  0  0
 13 18  1  0  0  0  0
 14 15  1  0  0  0  0
 14 35  2  0  0  0  0
 16 18  1  0  0  0  0
 16 17  1  0  0  0  0
 18  8  2  0  0  0  0
 19 16  2  0  0  0  0
 20 19  1  0  0  0  0
 21 23  2  0  0  0  0
 22 21  1  0  0  0  0
 23 35  1  0  0  0  0
 23 24  1  0  0  0  0
 25 31  1  0  0  0  0
 26 25  1  0  0  0  0
 27 10  1  0  0  0  0
 28 27  1  0  0  0  0
 29 25  2  0  0  0  0
 29 37  1  0  0  0  0
 30 29  1  0  0  0  0
 31 32  1  0  0  0  0
 31 49  2  0  0  0  0
 33 41  2  0  0  0  0
 33 39  1  0  0  0  0
 34 33  1  0  0  0  0
 35 36  1  0  0  0  0
 37  6  1  0  0  0  0
 38 37  1  0  0  0  0
 39 47  2  0  0  0  0
 40 39  1  0  0  0  0
 41 45  1  0  0  0  0
 42 41  1  0  0  0  0
 43 44  1  1  0  0  0
 45 46  1  0  0  0  0
 45 43  1  0  0  0  0
 47 43  1  0  0  0  0
 47 48  1  0  0  0  0
 49  4  1  0  0  0  0
 50  5  1  0  0  0  0
M  END
$$$$
