CSD_code = LILLAV | q = 0 | S = 0 | Stoichiometry = C23H30ClMnN2O2 | MND = 5
 OpenBabel04212202063D

 59 63  0  0  1  0  0  0  0  0999 V2000
   10.0675    3.9938    3.0263 Mn  0  0  2  0  0  0  0  0  0  0  0  0
   10.0648    6.0480    3.7847 Cl  0  0  0  0  0  0  0  0  0  0  0  0
    8.7679    3.0728    3.0869 O   0  0  0  0  0  0  0  0  0  0  0  0
    6.7447    3.4872    1.9713 C   0  0  0  0  0  0  0  0  0  0  0  0
    8.6721    4.6771    0.9804 N   0  0  2  0  0  0  0  0  0  0  0  0
    7.5357    2.6761    2.8106 C   0  0  0  0  0  0  0  0  0  0  0  0
    8.7229    3.7362   -0.1339 C   0  0  0  0  0  0  0  0  0  0  0  0
    8.4814    2.7411    0.2502 H   0  0  0  0  0  0  0  0  0  0  0  0
    7.9611    3.9984   -0.8909 H   0  0  0  0  0  0  0  0  0  0  0  0
    7.0289    1.4668    3.3089 C   0  0  0  0  0  0  0  0  0  0  0  0
    7.3014    4.7990    1.4823 C   0  0  0  0  0  0  0  0  0  0  0  0
    7.3286    5.5006    2.3262 H   0  0  0  0  0  0  0  0  0  0  0  0
    6.6336    5.2098    0.7053 H   0  0  0  0  0  0  0  0  0  0  0  0
    5.4682    3.0712    1.6486 C   0  0  0  0  0  0  0  0  0  0  0  0
    4.8575    3.6912    1.0068 H   0  0  0  0  0  0  0  0  0  0  0  0
    4.9464    1.8774    2.1393 C   0  0  0  0  0  0  0  0  0  0  0  0
    5.7388    1.0937    2.9637 C   0  0  0  0  0  0  0  0  0  0  0  0
    5.3485    0.1636    3.3521 H   0  0  0  0  0  0  0  0  0  0  0  0
    9.2379    5.9720    0.6180 C   0  0  0  0  0  0  0  0  0  0  0  0
    8.8890    6.6974    1.3542 H   0  0  0  0  0  0  0  0  0  0  0  0
    8.8901    6.2905   -0.3770 H   0  0  0  0  0  0  0  0  0  0  0  0
   10.0894    3.7119   -0.8104 C   0  0  0  0  0  0  0  0  0  0  0  0
   10.1978    4.5908   -1.4468 H   0  0  0  0  0  0  0  0  0  0  0  0
   10.1335    2.8391   -1.4656 H   0  0  0  0  0  0  0  0  0  0  0  0
    7.8774    0.6097    4.1999 C   0  0  0  0  0  0  0  0  0  0  0  0
    8.8601    1.0612    4.3406 H   0  0  0  0  0  0  0  0  0  0  0  0
    8.0050   -0.3821    3.7673 H   0  0  0  0  0  0  0  0  0  0  0  0
    7.4056    0.4939    5.1750 H   0  0  0  0  0  0  0  0  0  0  0  0
    3.5509    1.4660    1.7809 C   0  0  0  0  0  0  0  0  0  0  0  0
    3.3280    0.4721    2.1595 H   0  0  0  0  0  0  0  0  0  0  0  0
    3.4178    1.4672    0.7000 H   0  0  0  0  0  0  0  0  0  0  0  0
    2.8322    2.1671    2.2046 H   0  0  0  0  0  0  0  0  0  0  0  0
   11.6359    3.6073    3.8270 O   0  0  0  0  0  0  0  0  0  0  0  0
   13.3004    3.5895    2.1524 C   0  0  0  0  0  0  0  0  0  0  0  0
   11.3001    4.6758    1.2006 N   0  0  2  0  0  4  0  0  0  0  0  0
   12.6654    3.0020    3.2679 C   0  0  0  0  0  0  0  0  0  0  0  0
   11.2676    3.6265    0.1572 C   0  0  0  0  0  0  0  0  0  0  0  0
   11.2652    2.6535    0.6579 H   0  0  0  0  0  0  0  0  0  0  0  0
   12.1884    3.6900   -0.4422 H   0  0  0  0  0  0  0  0  0  0  0  0
   13.1930    1.8064    3.7943 C   0  0  0  0  0  0  0  0  0  0  0  0
   12.7053    4.8662    1.6234 C   0  0  0  0  0  0  0  0  0  0  0  0
   12.7078    5.6190    2.4226 H   0  0  0  0  0  0  0  0  0  0  0  0
   13.3043    5.2386    0.7776 H   0  0  0  0  0  0  0  0  0  0  0  0
   14.4191    3.0018    1.5954 C   0  0  0  0  0  0  0  0  0  0  0  0
   14.8979    3.4705    0.7456 H   0  0  0  0  0  0  0  0  0  0  0  0
   14.9455    1.8241    2.1130 C   0  0  0  0  0  0  0  0  0  0  0  0
   14.3154    1.2476    3.2072 C   0  0  0  0  0  0  0  0  0  0  0  0
   14.7106    0.3300    3.6217 H   0  0  0  0  0  0  0  0  0  0  0  0
   10.7835    5.9498    0.6806 C   0  0  0  0  0  0  0  0  0  0  0  0
   11.0988    6.7321    1.3738 H   0  0  0  0  0  0  0  0  0  0  0  0
   11.2286    6.1607   -0.3016 H   0  0  0  0  0  0  0  0  0  0  0  0
   12.5316    1.1577    4.9750 C   0  0  0  0  0  0  0  0  0  0  0  0
   11.7191    1.7873    5.3318 H   0  0  0  0  0  0  0  0  0  0  0  0
   12.1312    0.1803    4.7031 H   0  0  0  0  0  0  0  0  0  0  0  0
   13.2466    1.0160    5.7843 H   0  0  0  0  0  0  0  0  0  0  0  0
   16.1755    1.2107    1.5119 C   0  0  0  0  0  0  0  0  0  0  0  0
   16.2731    0.1690    1.8073 H   0  0  0  0  0  0  0  0  0  0  0  0
   16.1451    1.2667    0.4252 H   0  0  0  0  0  0  0  0  0  0  0  0
   17.0651    1.7442    1.8489 H   0  0  0  0  0  0  0  0  0  0  0  0
  1  3  1  0  0  0  0
  1  2  1  1  0  0  0
  1 33  1  0  0  0  0
  4  6  1  0  0  0  0
  5  7  1  6  0  0  0
  5 11  1  0  0  0  0
  6  3  1  0  0  0  0
  6 10  2  0  0  0  0
  7  8  1  0  0  0  0
  9  7  1  0  0  0  0
 10 25  1  0  0  0  0
 11  4  1  0  0  0  0
 11 12  1  0  0  0  0
 13 11  1  0  0  0  0
 14  4  2  0  0  0  0
 14 16  1  0  0  0  0
 15 14  1  0  0  0  0
 16 17  2  0  0  0  0
 17 10  1  0  0  0  0
 17 18  1  0  0  0  0
 19 49  1  0  0  0  0
 19  5  1  0  0  0  0
 19 20  1  0  0  0  0
 21 19  1  0  0  0  0
 22  7  1  0  0  0  0
 22 37  1  0  0  0  0
 23 22  1  0  0  0  0
 24 22  1  0  0  0  0
 25 26  1  0  0  0  0
 25 28  1  0  0  0  0
 27 25  1  0  0  0  0
 29 16  1  0  0  0  0
 29 30  1  0  0  0  0
 29 32  1  0  0  0  0
 31 29  1  0  0  0  0
 34 36  1  0  0  0  0
 35 37  1  6  0  0  0
 35 41  1  0  0  0  0
 35  1  1  0  0  0  0
 36 40  2  0  0  0  0
 36 33  1  0  0  0  0
 37 38  1  0  0  0  0
 39 37  1  0  0  0  0
 40 52  1  0  0  0  0
 41 34  1  0  0  0  0
 41 42  1  0  0  0  0
 43 41  1  0  0  0  0
 44 46  1  0  0  0  0
 44 34  2  0  0  0  0
 45 44  1  0  0  0  0
 46 47  2  0  0  0  0
 47 48  1  0  0  0  0
 47 40  1  0  0  0  0
 49 35  1  0  0  0  0
 49 50  1  0  0  0  0
 51 49  1  0  0  0  0
 52 53  1  0  0  0  0
 52 55  1  0  0  0  0
 54 52  1  0  0  0  0
 56 57  1  0  0  0  0
 56 59  1  0  0  0  0
 56 46  1  0  0  0  0
 58 56  1  0  0  0  0
M  END
$$$$
