CSD_code = LILVIM | q = 0 | S = 0 | Stoichiometry = C22H17BrN2Ni | MND = 4
 OpenBabel04212202063D

 43 47  0  0  0  0  0  0  0  0999 V2000
    9.9700    2.6585    3.5872 Br  0  0  0  0  0  0  0  0  0  0  0  0
    8.0714    2.9085    2.3163 Ni  0  0  2  0  0  0  0  0  0  0  0  0
    8.5421    4.5712    1.4440 N   0  0  0  0  0  0  0  0  0  0  0  0
    7.2498    1.4644    3.1983 N   0  0  0  0  0  0  0  0  0  0  0  0
    6.6857    2.8300    0.9808 C   0  0  0  0  0  0  0  0  0  0  0  0
    5.7901    1.8178    0.6469 C   0  0  0  0  0  0  0  0  0  0  0  0
    5.8681    0.8327    1.0928 H   0  0  0  0  0  0  0  0  0  0  0  0
    4.7743    2.0300   -0.2727 C   0  0  0  0  0  0  0  0  0  0  0  0
    4.0995    1.2209   -0.5163 H   0  0  0  0  0  0  0  0  0  0  0  0
    4.6146    3.2677   -0.8726 C   0  0  0  0  0  0  0  0  0  0  0  0
    3.8097    3.4318   -1.5743 H   0  0  0  0  0  0  0  0  0  0  0  0
    5.4991    4.2854   -0.5812 C   0  0  0  0  0  0  0  0  0  0  0  0
    5.3876    5.2447   -1.0655 H   0  0  0  0  0  0  0  0  0  0  0  0
    6.5342    4.0709    0.3262 C   0  0  0  0  0  0  0  0  0  0  0  0
    7.5673    5.0469    0.6356 C   0  0  0  0  0  0  0  0  0  0  0  0
    7.6137    6.3499    0.1446 C   0  0  0  0  0  0  0  0  0  0  0  0
    6.8143    6.7147   -0.4799 H   0  0  0  0  0  0  0  0  0  0  0  0
    8.6806    7.1664    0.4628 C   0  0  0  0  0  0  0  0  0  0  0  0
    8.7281    8.1791    0.0904 H   0  0  0  0  0  0  0  0  0  0  0  0
    9.6900    6.6540    1.2618 C   0  0  0  0  0  0  0  0  0  0  0  0
   10.5530    7.2437    1.5250 H   0  0  0  0  0  0  0  0  0  0  0  0
    9.5756    5.3573    1.7316 C   0  0  0  0  0  0  0  0  0  0  0  0
   10.3537    4.9448    2.3597 H   0  0  0  0  0  0  0  0  0  0  0  0
    7.7399    0.2278    3.2219 C   0  0  0  0  0  3  0  0  0  0  0  0
    8.6536    0.0551    2.6666 H   0  0  0  0  0  0  0  0  0  0  0  0
    7.1339   -0.7985    3.9228 C   0  0  0  0  0  0  0  0  0  0  0  0
    7.5685   -1.7848    3.9121 H   0  0  0  0  0  0  0  0  0  0  0  0
    5.9739   -0.5309    4.6339 C   0  0  0  0  0  0  0  0  0  0  0  0
    5.4788   -1.3074    5.1968 H   0  0  0  0  0  0  0  0  0  0  0  0
    5.4636    0.7547    4.6080 C   0  0  0  0  0  0  0  0  0  0  0  0
    4.5686    1.0141    5.1516 H   0  0  0  0  0  0  0  0  0  0  0  0
    6.1247    1.7352    3.8788 C   0  0  0  0  0  0  0  0  0  0  0  0
    5.6163    3.1146    3.7699 C   0  0  0  0  0  0  0  0  0  0  0  0
    6.4817    4.1925    3.9844 C   0  0  0  0  0  0  0  0  0  0  0  0
    7.4660    4.0272    4.4178 H   0  0  0  0  0  0  0  0  0  0  0  0
    6.0374    5.4871    3.7656 C   0  0  0  0  0  0  0  0  0  0  0  0
    6.7053    6.3186    3.9388 H   0  0  0  0  0  0  0  0  0  0  0  0
    4.7461    5.7135    3.3201 C   0  0  0  0  0  0  0  0  0  0  0  0
    4.4102    6.7219    3.1288 H   0  0  0  0  0  0  0  0  0  0  0  0
    3.8801    4.6486    3.1324 C   0  0  0  0  0  0  0  0  0  0  0  0
    2.8698    4.8264    2.7954 H   0  0  0  0  0  0  0  0  0  0  0  0
    4.3080    3.3542    3.3630 C   0  0  0  0  0  0  0  0  0  0  0  0
    3.6420    2.5215    3.1896 H   0  0  0  0  0  0  0  0  0  0  0  0
  2  4  1  0  0  0  0
  2  1  1  6  0  0  0
  3 22  1  0  0  0  0
  3  2  1  0  0  0  0
  4 24  1  0  0  0  0
  4 32  1  0  0  0  0
  5  2  2  0  0  0  0
  6  5  1  0  0  0  0
  6  7  1  0  0  0  0
  8  6  2  0  0  0  0
  9  8  1  0  0  0  0
 10 12  2  0  0  0  0
 10  8  1  0  0  0  0
 11 10  1  0  0  0  0
 12 14  1  0  0  0  0
 13 12  1  0  0  0  0
 14 15  2  0  0  0  0
 14  5  1  0  0  0  0
 15  3  1  0  0  0  0
 16 18  2  0  0  0  0
 16 15  1  0  0  0  0
 17 16  1  0  0  0  0
 18 20  1  0  0  0  0
 19 18  1  0  0  0  0
 20 21  1  0  0  0  0
 20 22  2  0  0  0  0
 22 23  1  0  0  0  0
 24 26  1  0  0  0  0
 25 24  1  0  0  0  0
 26 28  2  0  0  0  0
 27 26  1  0  0  0  0
 28 29  1  0  0  0  0
 30 28  1  0  0  0  0
 30 31  1  0  0  0  0
 32 30  2  0  0  0  0
 33 32  1  0  0  0  0
 33 34  1  0  0  0  0
 34 35  1  0  0  0  0
 36 37  1  0  0  0  0
 36 34  2  0  0  0  0
 38 36  1  0  0  0  0
 39 38  1  0  0  0  0
 40 38  2  0  0  0  0
 40 42  1  0  0  0  0
 41 40  1  0  0  0  0
 42 33  2  0  0  0  0
 43 42  1  0  0  0  0
M  END
$$$$
