CSD_code = LILXOU | q = 0 | S = 0 | Stoichiometry = C14H20I2N4Ni | MND = 4
 OpenBabel04212202063D

 41 42  0  0  1  0  0  0  0  0999 V2000
   -1.3922    4.4854    5.9057 Ni  0  0  0  0  0  0  0  0  0  0  0  0
   -0.4354    2.3492    5.0611 I   0  0  0  0  0  0  0  0  0  0  0  0
    0.2216    4.8515    6.8140 C   0  0  0  0  0  0  0  0  0  0  0  0
    1.2465    5.5152    6.2515 N   0  0  0  0  0  0  0  0  0  0  0  0
    0.6131    4.5598    8.0672 N   0  0  0  0  0  0  0  0  0  0  0  0
    2.2746    5.6474    7.1447 C   0  0  0  0  0  0  0  0  0  0  0  0
    3.1853    6.1502    6.8937 H   0  0  0  0  0  0  0  0  0  0  0  0
    1.8748    5.0453    8.2884 C   0  0  0  0  0  0  0  0  0  0  0  0
    2.3760    4.9212    9.2261 H   0  0  0  0  0  0  0  0  0  0  0  0
    1.2320    6.0264    4.9006 C   0  0  0  0  0  0  0  0  0  0  0  0
    0.2795    5.6913    4.4482 H   0  0  0  0  0  0  0  0  0  0  0  0
    2.0585    5.5900    4.3303 H   0  0  0  0  0  0  0  0  0  0  0  0
    1.2966    7.5235    4.8840 C   0  0  0  0  0  0  0  0  0  0  0  0
    0.5694    8.0192    5.5131 H   0  0  0  0  0  0  0  0  0  0  0  0
    2.1590    8.2126    4.1626 C   0  0  0  0  0  0  0  0  0  0  0  0
    2.8862    7.7292    3.5297 H   0  0  0  0  0  0  0  0  0  0  0  0
    2.1670    9.2885    4.1650 H   0  0  0  0  0  0  0  0  0  0  0  0
   -0.1968    3.8583    9.0260 C   0  0  0  0  0  0  0  0  0  0  0  0
   -0.6090    2.9537    8.5700 H   0  0  0  0  0  0  0  0  0  0  0  0
   -1.0210    4.4936    9.3638 H   0  0  0  0  0  0  0  0  0  0  0  0
    0.4108    3.5766    9.8834 H   0  0  0  0  0  0  0  0  0  0  0  0
   -2.3478    6.6216    6.7493 I   0  0  0  0  0  0  0  0  0  0  0  0
   -3.0060    4.1189    4.9976 C   0  0  2  0  0  3  0  0  0  0  0  0
   -4.0305    3.4549    5.5605 N   0  0  0  0  0  0  0  0  0  0  0  0
   -3.3976    4.4097    3.7443 N   0  0  0  0  0  0  0  0  0  0  0  0
   -5.0586    3.3218    4.6674 C   0  0  0  0  0  0  0  0  0  0  0  0
   -5.9689    2.8187    4.9188 H   0  0  0  0  0  0  0  0  0  0  0  0
   -4.6590    3.9234    3.5233 C   0  0  0  0  0  0  0  0  0  0  0  0
   -5.1603    4.0468    2.5856 H   0  0  0  0  0  0  0  0  0  0  0  0
   -4.0153    2.9435    6.9113 C   0  0  0  0  0  0  0  0  0  0  0  0
   -3.0626    3.2787    7.3634 H   0  0  0  0  0  0  0  0  0  0  0  0
   -4.8416    3.3796    7.4821 H   0  0  0  0  0  0  0  0  0  0  0  0
   -4.0796    1.4464    6.9271 C   0  0  0  0  0  0  0  0  0  0  0  0
   -3.3534    0.9513    6.2963 H   0  0  0  0  0  0  0  0  0  0  0  0
   -4.9403    0.7565    7.6497 C   0  0  0  0  0  0  0  0  0  0  0  0
   -5.6660    1.2391    8.2849 H   0  0  0  0  0  0  0  0  0  0  0  0
   -4.9475   -0.3193    7.6469 H   0  0  0  0  0  0  0  0  0  0  0  0
   -2.5876    5.1101    2.7847 C   0  0  0  0  0  0  0  0  0  0  0  0
   -2.1691    6.0109    3.2424 H   0  0  0  0  0  0  0  0  0  0  0  0
   -1.7681    4.4718    2.4416 H   0  0  0  0  0  0  0  0  0  0  0  0
   -3.1969    5.3981    1.9306 H   0  0  0  0  0  0  0  0  0  0  0  0
  1 22  1  0  0  0  0
  1  3  2  0  0  0  0
  2  1  1  0  0  0  0
  3  5  1  0  0  0  0
  4  3  1  0  0  0  0
  4  6  1  0  0  0  0
  5  8  1  0  0  0  0
  5 18  1  0  0  0  0
  6  8  2  0  0  0  0
  7  6  1  0  0  0  0
  8  9  1  0  0  0  0
 10  4  1  0  0  0  0
 11 10  1  0  0  0  0
 12 10  1  0  0  0  0
 13 10  1  0  0  0  0
 13 14  1  0  0  0  0
 15 17  1  0  0  0  0
 15 13  2  0  0  0  0
 16 15  1  0  0  0  0
 18 20  1  0  0  0  0
 18 21  1  0  0  0  0
 19 18  1  0  0  0  0
 23 24  1  0  0  0  0
 23  1  1  6  0  0  0
 24 30  1  0  0  0  0
 25 23  1  0  0  0  0
 26 27  1  0  0  0  0
 26 24  1  0  0  0  0
 28 25  1  0  0  0  0
 28 26  2  0  0  0  0
 29 28  1  0  0  0  0
 30 33  1  0  0  0  0
 30 31  1  0  0  0  0
 30 32  1  0  0  0  0
 33 35  2  0  0  0  0
 34 33  1  0  0  0  0
 35 36  1  0  0  0  0
 37 35  1  0  0  0  0
 38 39  1  0  0  0  0
 38 25  1  0  0  0  0
 40 38  1  0  0  0  0
 41 38  1  0  0  0  0
M  END
$$$$
