CSD_code = LILXEK | q = 0 | S = 0 | Stoichiometry = C18H24I2N4Pd | MND = 4
 OpenBabel04212202063D

 49 50  0  0  1  0  0  0  0  0999 V2000
    6.2056    3.6622   14.1367 Pd  0  0  0  0  0  0  0  0  0  0  0  0
    6.3474    1.5868   15.7255 I   0  0  0  0  0  0  0  0  0  0  0  0
    5.9023    5.4640   16.0112 I   0  0  0  0  0  0  0  0  0  0  0  0
    6.7873    2.4040   12.7073 C   0  0  1  0  0  3  0  0  0  0  0  0
    8.0873    2.1505   12.4790 N   0  0  0  0  0  0  0  0  0  0  0  0
    8.2119    1.1521   11.5468 C   0  0  0  0  0  0  0  0  0  0  0  0
    9.1662    0.7888   11.2266 H   0  0  0  0  0  0  0  0  0  0  0  0
    6.9591    0.7796   11.2004 C   0  0  0  0  0  0  0  0  0  0  0  0
    6.6142    0.0350   10.5132 H   0  0  0  0  0  0  0  0  0  0  0  0
    6.0943    1.5543   11.9330 N   0  0  0  0  0  0  0  0  0  0  0  0
    9.1822    2.7188   13.2381 C   0  0  0  0  0  0  0  0  0  0  0  0
    8.7303    3.3567   14.0323 H   0  0  0  0  0  0  0  0  0  0  0  0
    9.8053    3.3409   12.5862 H   0  0  0  0  0  0  0  0  0  0  0  0
    9.9975    1.6397   13.8859 C   0  0  0  0  0  0  0  0  0  0  0  0
    9.4325    0.9421   14.4890 H   0  0  0  0  0  0  0  0  0  0  0  0
   11.3063    1.5365   13.7626 C   0  0  0  0  0  0  0  0  0  0  0  0
   11.8817    2.2321   13.1720 H   0  0  0  0  0  0  0  0  0  0  0  0
   11.8601    0.7606   14.2607 H   0  0  0  0  0  0  0  0  0  0  0  0
    4.6616    1.4210   11.9561 C   0  0  0  0  0  0  0  0  0  0  0  0
    4.3120    1.7508   12.9511 H   0  0  0  0  0  0  0  0  0  0  0  0
    4.4028    0.3611   11.8559 H   0  0  0  0  0  0  0  0  0  0  0  0
    3.9597    2.2116   10.8908 C   0  0  0  0  0  0  0  0  0  0  0  0
    2.8876    2.0689   10.8774 H   0  0  0  0  0  0  0  0  0  0  0  0
    4.5481    3.0198   10.0301 C   0  0  0  0  0  0  0  0  0  0  0  0
    5.6167    3.1633   10.0220 H   0  0  0  0  0  0  0  0  0  0  0  0
    3.9907    3.5671    9.2901 H   0  0  0  0  0  0  0  0  0  0  0  0
    5.7493    5.1334   12.8755 C   0  0  0  0  0  0  0  0  0  0  0  0
    6.5057    6.0881   12.3115 N   0  0  0  0  0  0  0  0  0  0  0  0
    5.7080    6.9723   11.6282 C   0  0  0  0  0  0  0  0  0  0  0  0
    6.1104    7.8119   11.1003 H   0  0  0  0  0  0  0  0  0  0  0  0
    4.4311    6.5585   11.7917 C   0  0  0  0  0  0  0  0  0  0  0  0
    3.5087    6.9728   11.4414 H   0  0  0  0  0  0  0  0  0  0  0  0
    4.4748    5.4272   12.5661 N   0  0  0  0  0  0  0  0  0  0  0  0
    7.9276    6.2102   12.4974 C   0  0  0  0  0  0  0  0  0  0  0  0
    8.1822    5.7147   13.4517 H   0  0  0  0  0  0  0  0  0  0  0  0
    8.1810    7.2708   12.6051 H   0  0  0  0  0  0  0  0  0  0  0  0
    8.7420    5.6111   11.3883 C   0  0  0  0  0  0  0  0  0  0  0  0
    9.8087    5.7403   11.5128 H   0  0  0  0  0  0  0  0  0  0  0  0
    8.2529    4.9760   10.3406 C   0  0  0  0  0  0  0  0  0  0  0  0
    7.1921    4.8500   10.1943 H   0  0  0  0  0  0  0  0  0  0  0  0
    8.8889    4.5618    9.5779 H   0  0  0  0  0  0  0  0  0  0  0  0
    3.3175    4.7579   13.1238 C   0  0  0  0  0  0  0  0  0  0  0  0
    3.6979    3.9971   13.8437 H   0  0  0  0  0  0  0  0  0  0  0  0
    2.7576    4.2544   12.3283 H   0  0  0  0  0  0  0  0  0  0  0  0
    2.4442    5.7306   13.8588 C   0  0  0  0  0  0  0  0  0  0  0  0
    2.9490    6.3124   14.6180 H   0  0  0  0  0  0  0  0  0  0  0  0
    1.1535    5.8743   13.6298 C   0  0  0  0  0  0  0  0  0  0  0  0
    0.6373    5.2929   12.8819 H   0  0  0  0  0  0  0  0  0  0  0  0
    0.5549    6.5686   14.1921 H   0  0  0  0  0  0  0  0  0  0  0  0
  1  2  1  0  0  0  0
  1  3  1  0  0  0  0
  4  1  1  1  0  0  0
  5  4  1  0  0  0  0
  5 11  1  0  0  0  0
  6  5  1  0  0  0  0
  7  6  1  0  0  0  0
  8  6  2  0  0  0  0
  8 10  1  0  0  0  0
  9  8  1  0  0  0  0
 10 19  1  0  0  0  0
 10  4  1  0  0  0  0
 11 14  1  0  0  0  0
 11 12  1  0  0  0  0
 13 11  1  0  0  0  0
 14 15  1  0  0  0  0
 16 14  2  0  0  0  0
 16 18  1  0  0  0  0
 17 16  1  0  0  0  0
 19 20  1  0  0  0  0
 21 19  1  0  0  0  0
 22 19  1  0  0  0  0
 23 22  1  0  0  0  0
 24 22  2  0  0  0  0
 25 24  1  0  0  0  0
 26 24  1  0  0  0  0
 27  1  2  0  0  0  0
 28 34  1  0  0  0  0
 28 27  1  0  0  0  0
 29 31  2  0  0  0  0
 29 28  1  0  0  0  0
 30 29  1  0  0  0  0
 31 33  1  0  0  0  0
 32 31  1  0  0  0  0
 33 27  1  0  0  0  0
 33 42  1  0  0  0  0
 34 36  1  0  0  0  0
 34 35  1  0  0  0  0
 37 38  1  0  0  0  0
 37 34  1  0  0  0  0
 39 37  2  0  0  0  0
 40 39  1  0  0  0  0
 41 39  1  0  0  0  0
 42 43  1  0  0  0  0
 42 45  1  0  0  0  0
 44 42  1  0  0  0  0
 45 46  1  0  0  0  0
 47 45  2  0  0  0  0
 47 49  1  0  0  0  0
 48 47  1  0  0  0  0
M  END
$$$$
