CSD_code = LIMBAM | q = 1 | S = 0 | Stoichiometry = C26H19BrN5OZn(1+) | MND = 6
 OpenBabel04212202063D

 53 61  0  0  1  0  0  0  0  0999 V2000
    8.8654    6.7271    8.9969 Zn  0  0  0  0  0  0  0  0  0  0  0  0
   11.0242    7.4913    8.4969 Br  0  0  0  0  0  0  0  0  0  0  0  0
    8.4432    8.9943    6.8749 C   0  0  0  0  0  3  0  0  0  0  0  0
    9.2458    9.4081    7.4681 H   0  0  0  0  0  0  0  0  0  0  0  0
    7.9687    9.6652    5.7613 C   0  0  0  0  0  0  0  0  0  0  0  0
    8.3921   10.6164    5.4841 H   0  0  0  0  0  0  0  0  0  0  0  0
    6.9550    9.0817    5.0202 C   0  0  0  0  0  0  0  0  0  0  0  0
    6.5590    9.5657    4.1411 H   0  0  0  0  0  0  0  0  0  0  0  0
    6.4535    7.8552    5.4264 C   0  0  0  0  0  0  0  0  0  0  0  0
    5.6643    7.3604    4.8862 H   0  0  0  0  0  0  0  0  0  0  0  0
    6.9896    7.2613    6.5582 C   0  0  0  0  0  0  0  0  0  0  0  0
    6.4616    5.9080    7.0356 C   0  0  2  0  0  0  0  0  0  0  0  0
    5.9468    6.0967    8.4612 C   0  0  2  0  0  3  0  0  0  0  0  0
    4.5993    5.9093    8.7565 C   0  0  0  0  0  0  0  0  0  0  0  0
    3.9032    5.6022    7.9933 H   0  0  0  0  0  0  0  0  0  0  0  0
    4.1635    6.1613   10.0463 C   0  0  0  0  0  0  0  0  0  0  0  0
    3.1258    6.0178   10.3049 H   0  0  0  0  0  0  0  0  0  0  0  0
    5.0619    6.6258   10.9918 C   0  0  0  0  0  0  0  0  0  0  0  0
    4.7239    6.8583   11.9871 H   0  0  0  0  0  0  0  0  0  0  0  0
    6.3898    6.8086   10.6138 C   0  0  0  0  0  0  0  0  0  0  0  0
    7.4142    7.3995   11.4893 C   0  0  2  0  0  3  0  0  0  0  0  0
    7.1964    7.6891   12.8342 C   0  0  0  0  0  0  0  0  0  0  0  0
    6.2691    7.4270   13.3154 H   0  0  0  0  0  0  0  0  0  0  0  0
    8.1960    8.3182   13.5595 C   0  0  0  0  0  0  0  0  0  0  0  0
    8.0456    8.5513   14.6024 H   0  0  0  0  0  0  0  0  0  0  0  0
    9.3822    8.6453   12.9230 C   0  0  0  0  0  0  0  0  0  0  0  0
   10.1798    9.1485   13.4443 H   0  0  0  0  0  0  0  0  0  0  0  0
    9.5296    8.2999   11.5876 C   0  0  0  0  0  0  0  0  0  0  0  0
   10.4450    8.5176   11.0532 H   0  0  0  0  0  0  0  0  0  0  0  0
   10.6168    5.0695   11.2276 C   0  0  0  0  0  3  0  0  0  0  0  0
   10.2076    5.7253   11.9842 H   0  0  0  0  0  0  0  0  0  0  0  0
   11.8022    4.3871   11.4544 C   0  0  0  0  0  0  0  0  0  0  0  0
   12.3273    4.5042   12.3880 H   0  0  0  0  0  0  0  0  0  0  0  0
   12.2977    3.5781   10.4458 C   0  0  0  0  0  0  0  0  0  0  0  0
   13.2331    3.0544   10.5660 H   0  0  0  0  0  0  0  0  0  0  0  0
   11.5700    3.4524    9.2741 C   0  0  0  0  0  0  0  0  0  0  0  0
   11.9394    2.8358    8.4721 H   0  0  0  0  0  0  0  0  0  0  0  0
   10.3796    4.1611    9.1408 C   0  0  0  0  0  0  0  0  0  0  0  0
    9.5168    4.0662    7.9553 C   0  0  1  0  0  3  0  0  0  0  0  0
    9.6448    3.0918    6.9684 C   0  0  0  0  0  0  0  0  0  0  0  0
   10.4352    2.3617    7.0065 H   0  0  0  0  0  0  0  0  0  0  0  0
    8.7331    3.0793    5.9271 C   0  0  0  0  0  0  0  0  0  0  0  0
    8.8255    2.3583    5.1297 H   0  0  0  0  0  0  0  0  0  0  0  0
    7.6854    3.9865    5.9249 C   0  0  0  0  0  0  0  0  0  0  0  0
    6.9565    3.9909    5.1304 H   0  0  0  0  0  0  0  0  0  0  0  0
    7.6126    4.9107    6.9611 C   0  0  0  0  0  0  0  0  0  0  0  0
    7.9684    7.8165    7.2661 N   0  0  0  0  0  0  0  0  0  0  0  0
    6.7992    6.5189    9.3794 N   0  0  0  0  0  0  0  0  0  0  0  0
    8.5775    7.6918   10.8975 N   0  0  0  0  0  0  0  0  0  0  0  0
    9.9297    4.9794   10.1018 N   0  0  0  0  0  0  0  0  0  0  0  0
    8.5323    4.9663    7.9081 N   0  0  0  0  0  0  0  0  0  0  0  0
    5.4215    5.5240    6.1764 O   0  0  0  0  0  0  0  0  0  0  0  0
    5.1420    4.6251    6.3880 H   0  0  0  0  0  0  0  0  0  0  0  0
  1 48  1  0  0  0  0
  1 50  1  0  0  0  0
  1 49  1  0  0  0  0
  2  1  1  0  0  0  0
  3 47  1  0  0  0  0
  3  4  1  0  0  0  0
  5  3  1  0  0  0  0
  6  5  1  0  0  0  0
  7  9  1  0  0  0  0
  7  5  2  0  0  0  0
  8  7  1  0  0  0  0
  9 11  2  0  0  0  0
 10  9  1  0  0  0  0
 11 12  1  0  0  0  0
 11 47  1  0  0  0  0
 12 52  1  6  0  0  0
 12 13  1  0  0  0  0
 13 14  1  6  0  0  0
 13 48  1  0  0  0  0
 14 16  2  0  0  0  0
 15 14  1  0  0  0  0
 16 17  1  0  0  0  0
 16 18  1  0  0  0  0
 18 19  1  0  0  0  0
 20 18  2  0  0  0  0
 21 20  1  6  0  0  0
 21 22  1  0  0  0  0
 22 23  1  0  0  0  0
 22 24  2  0  0  0  0
 24 25  1  0  0  0  0
 26 27  1  0  0  0  0
 26 24  1  0  0  0  0
 28 26  2  0  0  0  0
 29 28  1  0  0  0  0
 30 32  1  0  0  0  0
 30 31  1  0  0  0  0
 32 33  1  0  0  0  0
 34 35  1  0  0  0  0
 34 32  2  0  0  0  0
 36 34  1  0  0  0  0
 37 36  1  0  0  0  0
 38 36  2  0  0  0  0
 38 50  1  0  0  0  0
 39 40  1  1  0  0  0
 39 38  1  0  0  0  0
 40 41  1  0  0  0  0
 42 40  2  0  0  0  0
 43 42  1  0  0  0  0
 44 42  1  0  0  0  0
 44 46  2  0  0  0  0
 45 44  1  0  0  0  0
 46 12  1  0  0  0  0
 46 51  1  0  0  0  0
 47  1  1  0  0  0  0
 48 20  1  0  0  0  0
 49 21  1  0  0  0  0
 49 28  1  0  0  0  0
 50 30  1  0  0  0  0
 51 39  1  0  0  0  0
 51  1  1  0  0  0  0
 52 53  1  0  0  0  0
M  END
$$$$
