CSD_code = LIMJOH | q = 0 | S = 0 | Stoichiometry = C28H28Cl2F5N3OTi | MND = 6
 OpenBabel04212202063D

 68 73  0  0  1  0  0  0  0  0999 V2000
    2.9671    7.7109    4.7445 Ti  0  0  0  0  0  0  0  0  0  0  0  0
    1.8266    9.4381    5.5627 Cl  0  0  0  0  0  0  0  0  0  0  0  0
    2.5197    6.3400    6.4090 Cl  0  0  0  0  0  0  0  0  0  0  0  0
    1.6885    7.2825    3.6344 O   0  0  0  0  0  0  0  0  0  0  0  0
    4.6108    8.3686    5.6135 N   0  0  0  0  0  0  0  0  0  0  0  0
    4.2704    6.3394    3.9658 N   0  0  1  0  0  0  0  0  0  0  0  0
    3.4344    9.1144    3.0040 N   0  0  0  0  0  0  0  0  0  0  0  0
    3.3306   11.7484    3.9162 F   0  0  0  0  0  0  0  0  0  0  0  0
    5.5958   13.0890    4.5961 F   0  0  0  0  0  0  0  0  0  0  0  0
    8.0340   11.9211    4.2460 F   0  0  0  0  0  0  0  0  0  0  0  0
    8.1944    9.4236    3.1477 F   0  0  0  0  0  0  0  0  0  0  0  0
    5.9164    8.1042    2.4396 F   0  0  0  0  0  0  0  0  0  0  0  0
    5.0447    9.3073    6.4619 C   0  0  0  0  0  0  0  0  0  0  0  0
    4.3973   10.1089    6.7815 H   0  0  0  0  0  0  0  0  0  0  0  0
    6.3694    9.0658    6.8341 C   0  0  0  0  0  0  0  0  0  0  0  0
    6.9583    9.6630    7.5025 H   0  0  0  0  0  0  0  0  0  0  0  0
    6.7624    7.9042    6.1848 C   0  0  0  0  0  0  0  0  0  0  0  0
    7.7163    7.4162    6.2406 H   0  0  0  0  0  0  0  0  0  0  0  0
    5.6558    7.4805    5.4323 C   0  0  0  0  0  0  0  0  0  0  0  0
    5.4144    6.3930    4.5734 C   0  0  0  0  0  3  0  0  0  0  0  0
    6.1904    5.6401    4.4323 H   0  0  0  0  0  0  0  0  0  0  0  0
    4.9475    4.9561    1.9991 C   0  0  0  0  0  0  0  0  0  0  0  0
    5.9181    4.6907    2.4211 H   0  0  0  0  0  0  0  0  0  0  0  0
    5.0736    5.8674    1.4113 H   0  0  0  0  0  0  0  0  0  0  0  0
    4.4565    3.8126    1.1152 C   0  0  0  0  0  0  0  0  0  0  0  0
    3.5087    4.0942    0.6506 H   0  0  0  0  0  0  0  0  0  0  0  0
    5.1789    3.6304    0.3175 H   0  0  0  0  0  0  0  0  0  0  0  0
    4.2606    2.5427    1.9395 C   0  0  0  0  0  0  0  0  0  0  0  0
    5.2220    2.2273    2.3508 H   0  0  0  0  0  0  0  0  0  0  0  0
    3.8930    1.7392    1.2988 H   0  0  0  0  0  0  0  0  0  0  0  0
    3.2769    2.7881    3.0809 C   0  0  0  0  0  0  0  0  0  0  0  0
    3.1716    1.8837    3.6822 H   0  0  0  0  0  0  0  0  0  0  0  0
    2.2952    3.0328    2.6702 H   0  0  0  0  0  0  0  0  0  0  0  0
    3.7570    3.9360    3.9629 C   0  0  0  0  0  0  0  0  0  0  0  0
    3.0435    4.1324    4.7685 H   0  0  0  0  0  0  0  0  0  0  0  0
    4.7138    3.6719    4.4195 H   0  0  0  0  0  0  0  0  0  0  0  0
    3.9323    5.2080    3.1207 C   0  0  0  0  0  0  0  0  0  0  0  0
    2.9676    5.4558    2.6543 H   0  0  0  0  0  0  0  0  0  0  0  0
    0.8260    7.8136    2.8286 C   0  0  0  0  0  0  0  0  0  0  0  0
   -0.5069    7.3228    2.7167 C   0  0  0  0  0  0  0  0  0  0  0  0
   -1.3352    7.9118    1.7833 C   0  0  0  0  0  0  0  0  0  0  0  0
   -2.3457    7.5572    1.6656 H   0  0  0  0  0  0  0  0  0  0  0  0
   -0.9262    8.9740    0.9719 C   0  0  0  0  0  0  0  0  0  0  0  0
   -1.6175    9.3908    0.2562 H   0  0  0  0  0  0  0  0  0  0  0  0
    0.3300    9.4961    1.1106 C   0  0  0  0  0  0  0  0  0  0  0  0
    0.6477   10.3419    0.5191 H   0  0  0  0  0  0  0  0  0  0  0  0
    1.2271    8.9362    2.0400 C   0  0  0  0  0  0  0  0  0  0  0  0
    2.4989    9.5410    2.2182 C   0  0  0  0  0  3  0  0  0  0  0  0
    2.6787   10.4410    1.6199 H   0  0  0  0  0  0  0  0  0  0  0  0
    4.5747    9.8725    3.2124 C   0  0  0  0  0  0  0  0  0  0  0  0
    4.5215   11.1748    3.7297 C   0  0  0  0  0  0  0  0  0  0  0  0
    5.6769   11.8609    4.0851 C   0  0  0  0  0  0  0  0  0  0  0  0
    6.9236   11.2682    3.9025 C   0  0  0  0  0  0  0  0  0  0  0  0
    7.0048    9.9926    3.3487 C   0  0  0  0  0  0  0  0  0  0  0  0
    5.8426    9.3201    3.0046 C   0  0  0  0  0  0  0  0  0  0  0  0
   -0.9895    6.2356    3.6689 C   0  0  0  0  0  0  0  0  0  0  0  0
   -0.0777    5.0020    3.5925 C   0  0  0  0  0  0  0  0  0  0  0  0
    0.9004    5.2167    4.0194 H   0  0  0  0  0  0  0  0  0  0  0  0
    0.0395    4.6795    2.5587 H   0  0  0  0  0  0  0  0  0  0  0  0
   -0.5187    4.1858    4.1602 H   0  0  0  0  0  0  0  0  0  0  0  0
   -2.4218    5.7871    3.3585 C   0  0  0  0  0  0  0  0  0  0  0  0
   -3.1265    6.6076    3.4676 H   0  0  0  0  0  0  0  0  0  0  0  0
   -2.7104    5.0097    4.0622 H   0  0  0  0  0  0  0  0  0  0  0  0
   -2.4981    5.3766    2.3539 H   0  0  0  0  0  0  0  0  0  0  0  0
   -0.9631    6.8135    5.0928 C   0  0  0  0  0  0  0  0  0  0  0  0
   -1.6140    7.6833    5.1598 H   0  0  0  0  0  0  0  0  0  0  0  0
    0.0455    7.1146    5.3820 H   0  0  0  0  0  0  0  0  0  0  0  0
   -1.3082    6.0643    5.8015 H   0  0  0  0  0  0  0  0  0  0  0  0
  1  2  1  0  0  0  0
  1  5  1  0  0  0  0
  1  3  1  0  0  0  0
  4  1  1  0  0  0  0
  5 13  1  0  0  0  0
  6 37  1  1  0  0  0
  6 20  1  0  0  0  0
  6  1  1  0  0  0  0
  7 50  1  0  0  0  0
  7  1  1  0  0  0  0
 11 54  1  0  0  0  0
 12 55  1  0  0  0  0
 13 14  1  0  0  0  0
 13 15  2  0  0  0  0
 15 16  1  0  0  0  0
 17 18  1  0  0  0  0
 17 15  1  0  0  0  0
 19  5  1  0  0  0  0
 19 17  2  0  0  0  0
 20 19  1  0  0  0  0
 21 20  1  0  0  0  0
 22 23  1  0  0  0  0
 22 37  1  0  0  0  0
 24 22  1  0  0  0  0
 25 28  1  0  0  0  0
 25 22  1  0  0  0  0
 26 25  1  0  0  0  0
 27 25  1  0  0  0  0
 28 29  1  0  0  0  0
 28 31  1  0  0  0  0
 30 28  1  0  0  0  0
 31 32  1  0  0  0  0
 31 34  1  0  0  0  0
 33 31  1  0  0  0  0
 34 36  1  0  0  0  0
 34 35  1  0  0  0  0
 37 34  1  0  0  0  0
 38 37  1  0  0  0  0
 39  4  1  0  0  0  0
 40 39  1  0  0  0  0
 40 56  1  0  0  0  0
 41 40  2  0  0  0  0
 42 41  1  0  0  0  0
 43 45  2  0  0  0  0
 43 41  1  0  0  0  0
 44 43  1  0  0  0  0
 45 47  1  0  0  0  0
 46 45  1  0  0  0  0
 47 48  1  0  0  0  0
 47 39  2  0  0  0  0
 48  7  1  0  0  0  0
 49 48  1  0  0  0  0
 50 51  1  0  0  0  0
 51  8  1  0  0  0  0
 51 52  2  0  0  0  0
 52  9  1  0  0  0  0
 53 52  1  0  0  0  0
 53 10  1  0  0  0  0
 54 53  2  0  0  0  0
 55 50  2  0  0  0  0
 55 54  1  0  0  0  0
 56 65  1  0  0  0  0
 57 56  1  0  0  0  0
 57 58  1  0  0  0  0
 57 60  1  0  0  0  0
 59 57  1  0  0  0  0
 61 62  1  0  0  0  0
 61 56  1  0  0  0  0
 61 63  1  0  0  0  0
 64 61  1  0  0  0  0
 65 66  1  0  0  0  0
 65 67  1  0  0  0  0
 65 68  1  0  0  0  0
M  END
$$$$
