CSD_code = LIMJUN | q = 0 | S = 0 | Stoichiometry = C24H22Cl2F5N3OTi | MND = 6
 OpenBabel04212202063D

 58 62  0  0  0  0  0  0  0  0999 V2000
    5.1067    4.3459    4.2496 Ti  0  0  0  0  0  0  0  0  0  0  0  0
    3.7244    6.0695    2.4211 C   0  0  0  0  0  0  0  0  0  0  0  0
    2.6447    5.2188    2.0277 C   0  0  0  0  0  0  0  0  0  0  0  0
    1.8372    5.5741    0.9304 C   0  0  0  0  0  0  0  0  0  0  0  0
    1.0255    4.9221    0.6439 H   0  0  0  0  0  0  0  0  0  0  0  0
    2.0901    6.7268    0.2397 C   0  0  0  0  0  0  0  0  0  0  0  0
    1.4726    7.0106   -0.5981 H   0  0  0  0  0  0  0  0  0  0  0  0
    3.1723    7.5351    0.5996 C   0  0  0  0  0  0  0  0  0  0  0  0
    3.3523    8.4173    0.0079 H   0  0  0  0  0  0  0  0  0  0  0  0
    4.0046    7.2403    1.6602 C   0  0  0  0  0  0  0  0  0  0  0  0
    5.2394    8.0698    1.9880 C   0  0  0  0  0  0  0  0  0  0  0  0
    5.2375    8.4908    3.4655 C   0  0  0  0  0  0  0  0  0  0  0  0
    4.2866    8.9499    3.7319 H   0  0  0  0  0  0  0  0  0  0  0  0
    6.0309    9.2142    3.6389 H   0  0  0  0  0  0  0  0  0  0  0  0
    5.4186    7.6333    4.1120 H   0  0  0  0  0  0  0  0  0  0  0  0
    6.4741    7.2020    1.6971 C   0  0  0  0  0  0  0  0  0  0  0  0
    6.4733    6.2938    2.3028 H   0  0  0  0  0  0  0  0  0  0  0  0
    7.3794    7.7598    1.9248 H   0  0  0  0  0  0  0  0  0  0  0  0
    6.4956    6.9148    0.6475 H   0  0  0  0  0  0  0  0  0  0  0  0
    5.3279    9.3388    1.1333 C   0  0  0  0  0  0  0  0  0  0  0  0
    5.4143    9.1002    0.0762 H   0  0  0  0  0  0  0  0  0  0  0  0
    6.2168    9.8971    1.4175 H   0  0  0  0  0  0  0  0  0  0  0  0
    4.4630    9.9801    1.2893 H   0  0  0  0  0  0  0  0  0  0  0  0
    2.3966    3.9914    2.6958 C   0  0  0  0  0  3  0  0  0  0  0  0
    1.5842    3.3860    2.2792 H   0  0  0  0  0  0  0  0  0  0  0  0
    2.7889    2.2846    4.2242 C   0  0  0  0  0  0  0  0  0  0  0  0
    2.4736    2.0871    5.5726 C   0  0  0  0  0  0  0  0  0  0  0  0
    2.3699    0.8211    6.1273 C   0  0  0  0  0  0  0  0  0  0  0  0
    2.5690   -0.3004    5.3250 C   0  0  0  0  0  0  0  0  0  0  0  0
    2.8543   -0.1367    3.9719 C   0  0  0  0  0  0  0  0  0  0  0  0
    2.9485    1.1398    3.4303 C   0  0  0  0  0  0  0  0  0  0  0  0
    5.8947    1.3874    4.9041 C   0  0  0  0  0  0  0  0  0  0  0  0
    6.1013    1.0607    3.8970 H   0  0  0  0  0  0  0  0  0  0  0  0
    6.0540    0.6724    6.0931 C   0  0  0  0  0  0  0  0  0  0  0  0
    6.4055   -0.3369    6.1832 H   0  0  0  0  0  0  0  0  0  0  0  0
    5.6850    1.5238    7.1249 C   0  0  0  0  0  0  0  0  0  0  0  0
    5.6866    1.3139    8.1771 H   0  0  0  0  0  0  0  0  0  0  0  0
    5.3076    2.7328    6.5207 C   0  0  0  0  0  0  0  0  0  0  0  0
    4.8479    3.9684    7.0114 C   0  0  0  0  0  3  0  0  0  0  0  0
    4.7708    4.1343    8.0892 H   0  0  0  0  0  0  0  0  0  0  0  0
    4.0793    6.1760    6.6314 C   0  0  0  0  0  0  0  0  0  0  0  0
    4.7937    6.9299    6.2735 H   0  0  0  0  0  0  0  0  0  0  0  0
    4.0680    6.1972    7.7313 H   0  0  0  0  0  0  0  0  0  0  0  0
    2.6843    6.4959    6.0961 C   0  0  0  0  0  0  0  0  0  0  0  0
    2.6838    6.4585    5.0069 H   0  0  0  0  0  0  0  0  0  0  0  0
    2.3841    7.4904    6.4159 H   0  0  0  0  0  0  0  0  0  0  0  0
    1.9655    5.7717    6.4736 H   0  0  0  0  0  0  0  0  0  0  0  0
    5.6987    3.4395    2.3039 Cl  0  0  0  0  0  0  0  0  0  0  0  0
    7.1018    5.1425    4.7499 Cl  0  0  0  0  0  0  0  0  0  0  0  0
    2.2574    3.1717    6.3345 F   0  0  0  0  0  0  0  0  0  0  0  0
    2.0796    0.6763    7.4210 F   0  0  0  0  0  0  0  0  0  0  0  0
    2.4801   -1.5226    5.8489 F   0  0  0  0  0  0  0  0  0  0  0  0
    3.0326   -1.2070    3.1983 F   0  0  0  0  0  0  0  0  0  0  0  0
    3.2400    1.2865    2.1355 F   0  0  0  0  0  0  0  0  0  0  0  0
    3.0272    3.5604    3.7414 N   0  0  0  0  0  0  0  0  0  0  0  0
    5.4373    2.6209    5.1482 N   0  0  0  0  0  0  0  0  0  0  0  0
    4.5221    4.8874    6.1615 N   0  0  0  0  0  0  0  0  0  0  0  0
    4.4226    5.7422    3.4607 O   0  0  0  0  0  0  0  0  0  0  0  0
  1 49  1  0  0  0  0
  1 56  1  0  0  0  0
  1 57  1  0  0  0  0
  2 58  1  0  0  0  0
  3  2  1  0  0  0  0
  3 24  1  0  0  0  0
  4  3  2  0  0  0  0
  5  4  1  0  0  0  0
  6  8  2  0  0  0  0
  6  4  1  0  0  0  0
  7  6  1  0  0  0  0
  8 10  1  0  0  0  0
  9  8  1  0  0  0  0
 10 11  1  0  0  0  0
 10  2  2  0  0  0  0
 11 12  1  0  0  0  0
 12 14  1  0  0  0  0
 12 13  1  0  0  0  0
 12 15  1  0  0  0  0
 16 18  1  0  0  0  0
 16 11  1  0  0  0  0
 16 17  1  0  0  0  0
 19 16  1  0  0  0  0
 20 23  1  0  0  0  0
 20 22  1  0  0  0  0
 20 11  1  0  0  0  0
 21 20  1  0  0  0  0
 24 55  1  0  0  0  0
 25 24  1  0  0  0  0
 26 27  1  0  0  0  0
 27 28  2  0  0  0  0
 27 50  1  0  0  0  0
 28 51  1  0  0  0  0
 29 52  1  0  0  0  0
 29 28  1  0  0  0  0
 30 29  2  0  0  0  0
 31 30  1  0  0  0  0
 31 26  2  0  0  0  0
 32 56  1  0  0  0  0
 32 34  2  0  0  0  0
 33 32  1  0  0  0  0
 34 35  1  0  0  0  0
 34 36  1  0  0  0  0
 36 37  1  0  0  0  0
 38 39  1  0  0  0  0
 38 36  2  0  0  0  0
 39 40  1  0  0  0  0
 41 43  1  0  0  0  0
 42 41  1  0  0  0  0
 44 46  1  0  0  0  0
 44 47  1  0  0  0  0
 44 41  1  0  0  0  0
 45 44  1  0  0  0  0
 48  1  1  0  0  0  0
 53 30  1  0  0  0  0
 54 31  1  0  0  0  0
 55 26  1  0  0  0  0
 55  1  1  0  0  0  0
 56 38  1  0  0  0  0
 57 41  1  0  0  0  0
 57 39  1  0  0  0  0
 58  1  1  0  0  0  0
M  END
$$$$
