CSD_code = LIMMAX | q = 0 | S = 0 | Stoichiometry = C19H29Cl2N5Pt | MND = 4
 OpenBabel04212202063D

 56 59  0  0  1  0  0  0  0  0999 V2000
    5.9250    8.1978    8.7063 Pt  0  0  0  0  0  0  0  0  0  0  0  0
    5.8522    9.3433    6.7626 Cl  0  0  0  0  0  0  0  0  0  0  0  0
    5.7686    6.2261    7.6107 Cl  0  0  0  0  0  0  0  0  0  0  0  0
    5.9139    7.3672   10.5444 N   0  0  2  0  0  0  0  0  0  0  0  0
    6.5693    6.1915   10.8715 N   0  0  0  0  0  0  0  0  0  0  0  0
    4.4975    9.0986   11.3002 N   0  0  0  0  0  0  0  0  0  0  0  0
    3.7804    9.2610   11.9902 H   0  0  0  0  0  0  0  0  0  0  0  0
    4.2037   11.3485   10.6979 N   0  0  0  0  0  0  0  0  0  0  0  0
    5.7976   10.0036    9.6372 N   0  0  0  0  0  0  0  0  0  0  0  0
    6.0382   10.8007    9.0595 H   0  0  0  0  0  0  0  0  0  0  0  0
    7.8261    6.0237   10.1578 C   0  0  0  0  0  0  0  0  0  0  0  0
    8.3476    6.9859   10.1627 H   0  0  0  0  0  0  0  0  0  0  0  0
    7.6601    5.7114    9.1190 H   0  0  0  0  0  0  0  0  0  0  0  0
    8.6422    4.9630   10.8901 C   0  0  0  0  0  0  0  0  0  0  0  0
    9.6012    4.8358   10.3875 H   0  0  0  0  0  0  0  0  0  0  0  0
    8.8315    5.2887   11.9153 H   0  0  0  0  0  0  0  0  0  0  0  0
    7.8696    3.6481   10.9071 C   0  0  0  0  0  0  0  0  0  0  0  0
    8.4269    2.8865   11.4554 H   0  0  0  0  0  0  0  0  0  0  0  0
    7.7320    3.2996    9.8822 H   0  0  0  0  0  0  0  0  0  0  0  0
    6.5044    3.8692   11.5507 C   0  0  0  0  0  0  0  0  0  0  0  0
    6.6312    4.1517   12.5982 H   0  0  0  0  0  0  0  0  0  0  0  0
    5.9112    2.9548   11.5110 H   0  0  0  0  0  0  0  0  0  0  0  0
    5.7597    4.9813   10.8210 C   0  0  0  0  0  0  0  0  0  0  0  0
    5.5747    4.6966    9.7760 H   0  0  0  0  0  0  0  0  0  0  0  0
    4.8018    5.1772   11.3080 H   0  0  0  0  0  0  0  0  0  0  0  0
    5.1631    7.8889   11.4629 C   0  0  1  0  0  3  0  0  0  0  0  0
    4.9083    7.2596   12.7775 C   0  0  0  0  0  0  0  0  0  0  0  0
    5.9714    6.8595   13.5843 C   0  0  0  0  0  0  0  0  0  0  0  0
    6.9814    6.9967   13.2338 H   0  0  0  0  0  0  0  0  0  0  0  0
    5.7322    6.3029   14.8246 C   0  0  0  0  0  0  0  0  0  0  0  0
    6.5663    6.0025   15.4418 H   0  0  0  0  0  0  0  0  0  0  0  0
    4.4354    6.1219   15.2940 C   0  0  0  0  0  0  0  0  0  0  0  0
    4.1817    5.4860   16.6244 C   0  0  0  0  0  0  0  0  0  0  0  0
    5.0221    5.6404   17.2962 H   0  0  0  0  0  0  0  0  0  0  0  0
    4.0429    4.4120   16.4994 H   0  0  0  0  0  0  0  0  0  0  0  0
    3.2815    5.8881   17.0829 H   0  0  0  0  0  0  0  0  0  0  0  0
    3.3785    6.5248   14.4867 C   0  0  0  0  0  0  0  0  0  0  0  0
    2.3633    6.3904   14.8310 H   0  0  0  0  0  0  0  0  0  0  0  0
    3.6073    7.0931   13.2480 C   0  0  0  0  0  0  0  0  0  0  0  0
    2.7658    7.3728   12.6285 H   0  0  0  0  0  0  0  0  0  0  0  0
    4.8428   10.1589   10.4900 C   0  0  1  0  0  3  0  0  0  0  0  0
    3.2455   11.5627   11.7654 C   0  0  0  0  0  0  0  0  0  0  0  0
    3.2744   12.6320   12.0008 H   0  0  0  0  0  0  0  0  0  0  0  0
    3.5486   11.0311   12.6704 H   0  0  0  0  0  0  0  0  0  0  0  0
    1.8284   11.1921   11.3203 C   0  0  0  0  0  0  0  0  0  0  0  0
    1.7854   10.1335   11.0550 H   0  0  0  0  0  0  0  0  0  0  0  0
    1.1255   11.3699   12.1352 H   0  0  0  0  0  0  0  0  0  0  0  0
    1.4576   12.0333   10.0996 C   0  0  0  0  0  0  0  0  0  0  0  0
    0.4807   11.7327    9.7200 H   0  0  0  0  0  0  0  0  0  0  0  0
    1.3952   13.0842   10.3916 H   0  0  0  0  0  0  0  0  0  0  0  0
    2.5148   11.8712    9.0100 C   0  0  0  0  0  0  0  0  0  0  0  0
    2.2932   12.5250    8.1668 H   0  0  0  0  0  0  0  0  0  0  0  0
    2.5211   10.8423    8.6444 H   0  0  0  0  0  0  0  0  0  0  0  0
    3.9054   12.2033    9.5553 C   0  0  0  0  0  0  0  0  0  0  0  0
    4.6447   12.0664    8.7681 H   0  0  0  0  0  0  0  0  0  0  0  0
    3.9478   13.2432    9.8921 H   0  0  0  0  0  0  0  0  0  0  0  0
  1  9  1  0  0  0  0
  1  4  1  0  0  0  0
  2  1  1  0  0  0  0
  3  1  1  0  0  0  0
  4  5  1  6  0  0  0
  4 26  1  0  0  0  0
  6 26  1  0  0  0  0
  6  7  1  0  0  0  0
  8 42  1  0  0  0  0
  9 41  1  0  0  0  0
 10  9  1  0  0  0  0
 11 12  1  0  0  0  0
 11  5  1  0  0  0  0
 11 14  1  0  0  0  0
 13 11  1  0  0  0  0
 14 17  1  0  0  0  0
 14 16  1  0  0  0  0
 15 14  1  0  0  0  0
 17 18  1  0  0  0  0
 17 20  1  0  0  0  0
 19 17  1  0  0  0  0
 20 21  1  0  0  0  0
 22 20  1  0  0  0  0
 23  5  1  0  0  0  0
 23 25  1  0  0  0  0
 23 20  1  0  0  0  0
 24 23  1  0  0  0  0
 26 27  1  6  0  0  0
 27 39  2  0  0  0  0
 27 28  1  0  0  0  0
 28 30  2  0  0  0  0
 29 28  1  0  0  0  0
 30 32  1  0  0  0  0
 30 31  1  0  0  0  0
 32 33  1  0  0  0  0
 33 36  1  0  0  0  0
 33 34  1  0  0  0  0
 35 33  1  0  0  0  0
 37 38  1  0  0  0  0
 37 32  2  0  0  0  0
 39 37  1  0  0  0  0
 40 39  1  0  0  0  0
 41  8  1  1  0  0  0
 41  6  1  0  0  0  0
 42 43  1  0  0  0  0
 42 44  1  0  0  0  0
 45 42  1  0  0  0  0
 45 47  1  0  0  0  0
 46 45  1  0  0  0  0
 48 50  1  0  0  0  0
 48 45  1  0  0  0  0
 49 48  1  0  0  0  0
 51 54  1  0  0  0  0
 51 48  1  0  0  0  0
 52 51  1  0  0  0  0
 53 51  1  0  0  0  0
 54 56  1  0  0  0  0
 54  8  1  0  0  0  0
 55 54  1  0  0  0  0
M  END
$$$$
