CSD_code = LIMNEB | q = 1 | S = 0 | Stoichiometry = C20H14ClN4Pd(1+) | MND = 4
 OpenBabel04212202063D

 40 45  0  0  0  0  0  0  0  0999 V2000
    0.1140    6.1251    9.2785 C   0  0  0  0  0  3  0  0  0  0  0  0
   -0.0381    6.2084   10.6549 C   0  0  0  0  0  0  0  0  0  0  0  0
   -0.0884    5.0377   11.3959 C   0  0  0  0  0  0  0  0  0  0  0  0
    0.0175    3.8216   10.7387 C   0  0  0  0  0  0  0  0  0  0  0  0
    0.1712    3.8007    9.3564 C   0  0  0  0  0  0  0  0  0  0  0  0
    0.2998    2.5716    8.5564 C   0  0  0  0  0  0  0  0  0  0  0  0
    0.2972    1.2580    9.0065 C   0  0  0  0  0  0  0  0  0  0  0  0
    0.4292    0.2171    8.0807 C   0  0  0  0  0  0  0  0  0  0  0  0
    0.5631    0.5254    6.7224 C   0  0  0  0  0  0  0  0  0  0  0  0
    0.5657    1.8559    6.3250 C   0  0  0  0  0  0  0  0  0  0  0  0
    0.6973    2.3904    4.9596 C   0  0  0  0  0  0  0  0  0  0  0  0
    0.8522    1.6033    3.8233 C   0  0  0  0  0  0  0  0  0  0  0  0
    0.9607    2.2103    2.5817 C   0  0  0  0  0  0  0  0  0  0  0  0
    0.9119    3.5937    2.5035 C   0  0  0  0  0  0  0  0  0  0  0  0
    0.7592    4.3266    3.6715 C   0  0  0  0  0  0  0  0  0  0  0  0
    0.4291   -1.1807    8.5283 C   0  0  0  0  0  0  0  0  0  0  0  0
   -0.2231   -2.1712    7.7941 C   0  0  0  0  0  0  0  0  0  0  0  0
   -0.1909   -3.4746    8.2666 C   0  0  0  0  0  0  0  0  0  0  0  0
    1.0556   -2.8963   10.0706 C   0  0  0  0  0  0  0  0  0  0  0  0
    1.0830   -1.5602    9.7003 C   0  0  0  0  0  0  0  0  0  0  0  0
    0.2154    4.9605    8.6447 N   0  0  0  0  0  0  0  0  0  0  0  0
    0.4342    2.8236    7.2453 N   0  0  0  0  0  0  0  0  0  0  0  0
    0.6551    3.7478    4.8641 N   0  0  0  0  0  0  0  0  0  0  0  0
    0.4337   -3.8285    9.3738 N   0  0  0  0  0  0  0  0  0  0  0  0
    0.4351    4.6282    6.6664 Pd  0  0  2  0  0  0  0  0  0  0  0  0
    0.4343    6.7190    5.9956 Cl  0  0  0  0  0  0  0  0  0  0  0  0
    0.1567    7.0149    8.6590 H   0  0  0  0  0  0  0  0  0  0  0  0
   -0.1154    7.1729   11.1292 H   0  0  0  0  0  0  0  0  0  0  0  0
   -0.2078    5.0676   12.4675 H   0  0  0  0  0  0  0  0  0  0  0  0
   -0.0199    2.8984   11.2935 H   0  0  0  0  0  0  0  0  0  0  0  0
    0.1766    1.0294   10.0525 H   0  0  0  0  0  0  0  0  0  0  0  0
    0.6811   -0.2691    6.0043 H   0  0  0  0  0  0  0  0  0  0  0  0
    0.8885    0.5296    3.9090 H   0  0  0  0  0  0  0  0  0  0  0  0
    1.0810    1.6115    1.6926 H   0  0  0  0  0  0  0  0  0  0  0  0
    0.9911    4.1023    1.5568 H   0  0  0  0  0  0  0  0  0  0  0  0
    0.7183    5.4108    3.6581 H   0  0  0  0  0  0  0  0  0  0  0  0
   -0.7691   -1.9284    6.8957 H   0  0  0  0  0  0  0  0  0  0  0  0
   -0.6877   -4.2722    7.7318 H   0  0  0  0  0  0  0  0  0  0  0  0
    1.5544   -3.2347   10.9681 H   0  0  0  0  0  0  0  0  0  0  0  0
    1.6271   -0.8398   10.2914 H   0  0  0  0  0  0  0  0  0  0  0  0
  1  2  1  0  0  0  0
  2 28  1  0  0  0  0
  2  3  2  0  0  0  0
  3 29  1  0  0  0  0
  4 30  1  0  0  0  0
  4  3  1  0  0  0  0
  5  4  2  0  0  0  0
  6  7  2  0  0  0  0
  6  5  1  0  0  0  0
  7 31  1  0  0  0  0
  8 16  1  0  0  0  0
  8  7  1  0  0  0  0
  9  8  2  0  0  0  0
 10  9  1  0  0  0  0
 10 22  1  0  0  0  0
 11 10  2  0  0  0  0
 12 33  1  0  0  0  0
 12 11  1  0  0  0  0
 13 12  2  0  0  0  0
 14 13  1  0  0  0  0
 14 15  2  0  0  0  0
 15 23  1  0  0  0  0
 16 20  1  0  0  0  0
 17 18  1  0  0  0  0
 17 16  2  0  0  0  0
 18 24  2  0  0  0  0
 19 39  1  0  0  0  0
 20 19  2  0  0  0  0
 20 40  1  0  0  0  0
 21  1  1  0  0  0  0
 21  5  1  0  0  0  0
 22  6  1  0  0  0  0
 23 11  1  0  0  0  0
 23 25  1  0  0  0  0
 24 19  1  0  0  0  0
 25 26  1  6  0  0  0
 25 22  1  0  0  0  0
 25 21  1  0  0  0  0
 27  1  1  0  0  0  0
 32  9  1  0  0  0  0
 34 13  1  0  0  0  0
 35 14  1  0  0  0  0
 36 15  1  0  0  0  0
 37 17  1  0  0  0  0
 38 18  1  0  0  0  0
M  END
$$$$
