CSD_code = LIMTIK | q = -1 | S = 0 | Stoichiometry = C4H12Cl4O2RhS2(1-) | MND = 6
 OpenBabel04212202063D

 25 24  0  0  0  0  0  0  0  0999 V2000
    3.0149    9.9651   11.5940 Rh  0  0  0  0  0  0  0  0  0  0  0  0
    0.8184    9.9419   10.8422 Cl  0  0  0  0  0  0  0  0  0  0  0  0
    2.6989   12.0991   12.4587 Cl  0  0  0  0  0  0  0  0  0  0  0  0
    5.2112    9.9878   12.3462 Cl  0  0  0  0  0  0  0  0  0  0  0  0
    3.3350    7.8310   10.7310 Cl  0  0  0  0  0  0  0  0  0  0  0  0
    3.6421   11.0387    9.7244 S   0  0  0  0  0  0  0  0  0  0  0  0
    2.3844    8.8914   13.4627 S   0  0  0  0  0  0  0  0  0  0  0  0
    4.0420   10.2797    8.5553 O   0  0  0  0  0  1  0  0  0  0  0  0
    1.9689    9.6500   14.6265 O   0  0  0  0  0  1  0  0  0  0  0  0
    4.9762   12.2352   10.0331 C   0  0  0  0  0  0  0  0  0  0  0  0
    2.3832   12.2210    9.1551 C   0  0  0  0  0  0  0  0  0  0  0  0
    3.6503    7.7227   14.0444 C   0  0  0  0  0  0  0  0  0  0  0  0
    1.0639    7.6814   13.1480 C   0  0  0  0  0  0  0  0  0  0  0  0
    4.6525   12.8747   10.8463 H   0  0  0  0  0  0  0  0  0  0  0  0
    5.8575   11.6735   10.3242 H   0  0  0  0  0  0  0  0  0  0  0  0
    5.1528   12.7845    9.1156 H   0  0  0  0  0  0  0  0  0  0  0  0
    2.1442   12.8647    9.9939 H   0  0  0  0  0  0  0  0  0  0  0  0
    2.7931   12.7672    8.3136 H   0  0  0  0  0  0  0  0  0  0  0  0
    1.5098   11.6501    8.8584 H   0  0  0  0  0  0  0  0  0  0  0  0
    3.9063    7.0834   13.2072 H   0  0  0  0  0  0  0  0  0  0  0  0
    4.5135    8.3030   14.3523 H   0  0  0  0  0  0  0  0  0  0  0  0
    3.2374    7.1697   14.8801 H   0  0  0  0  0  0  0  0  0  0  0  0
    1.4019    7.0391   12.3429 H   0  0  0  0  0  0  0  0  0  0  0  0
    0.8824    7.1372   14.0676 H   0  0  0  0  0  0  0  0  0  0  0  0
    0.1811    8.2333   12.8435 H   0  0  0  0  0  0  0  0  0  0  0  0
  1  4  1  0  0  0  0
  1  3  1  0  0  0  0
  1  7  1  0  0  0  0
  2  1  1  0  0  0  0
  5  1  1  0  0  0  0
  6 10  1  0  0  0  0
  6  1  1  0  0  0  0
  7 12  1  0  0  0  0
  7  9  1  0  0  0  0
  8  6  1  0  0  0  0
 10 15  1  0  0  0  0
 10 14  1  0  0  0  0
 11  6  1  0  0  0  0
 11 17  1  0  0  0  0
 12 21  1  0  0  0  0
 12 22  1  0  0  0  0
 13  7  1  0  0  0  0
 13 24  1  0  0  0  0
 16 10  1  0  0  0  0
 18 11  1  0  0  0  0
 19 11  1  0  0  0  0
 20 12  1  0  0  0  0
 23 13  1  0  0  0  0
 25 13  1  0  0  0  0
M  END
$$$$
