CSD_code = LIMVIN | q = 0 | S = 0 | Stoichiometry = C27H34Br2N3OV | MND = 6
 OpenBabel04212202063D

 68 73  0  0  1  0  0  0  0  0999 V2000
    0.7506    6.5391    0.4238 Br  0  0  0  0  0  0  0  0  0  0  0  0
    1.3901    4.4962    3.1308 Br  0  0  0  0  0  0  0  0  0  0  0  0
    2.7553    5.4973    1.3931 V   0  0  0  0  0  0  0  0  0  0  0  0
    2.8501    4.3130    0.3296 O   0  0  0  0  0  0  0  0  0  0  0  0
    3.2085    7.2466    2.2066 N   0  0  0  0  0  0  0  0  0  0  0  0
    4.1782    6.3525   -0.1789 N   0  0  2  0  0  4  0  0  0  0  0  0
    4.6100    5.1355    2.3083 N   0  0  0  0  0  0  0  0  0  0  0  0
    2.9885    7.5172    3.4971 C   0  0  0  0  0  3  0  0  0  0  0  0
    3.6170    8.5471    4.1715 C   0  0  0  0  0  0  0  0  0  0  0  0
    4.5207    9.3483    3.4900 C   0  0  0  0  0  0  0  0  0  0  0  0
    4.7213    9.0973    2.1394 C   0  0  0  0  0  0  0  0  0  0  0  0
    4.0432    8.0530    1.5368 C   0  0  0  0  0  0  0  0  0  0  0  0
    4.1426    7.7805    0.0650 C   0  0  0  0  0  0  0  0  0  0  0  0
    3.7893    6.0352   -1.5517 C   0  0  0  0  0  0  0  0  0  0  0  0
    3.6900    4.5528   -1.8029 C   0  0  0  0  0  0  0  0  0  0  0  0
    4.0693    4.0066   -3.0111 C   0  0  0  0  0  0  0  0  0  0  0  0
    3.9303    2.6459   -3.2655 C   0  0  0  0  0  0  0  0  0  0  0  0
    3.3881    1.8520   -2.2622 C   0  0  0  0  0  0  0  0  0  0  0  0
    2.9888    2.3474   -1.0296 C   0  0  0  0  0  0  0  0  0  0  0  0
    3.1515    3.7283   -0.7920 C   0  0  0  0  0  0  0  0  0  0  0  0
    2.3669    1.4698    0.0459 C   0  0  0  0  0  0  0  0  0  0  0  0
    0.9418    1.9734    0.3199 C   0  0  0  0  0  0  0  0  0  0  0  0
    3.2176    1.5434    1.3233 C   0  0  0  0  0  0  0  0  0  0  0  0
    2.2763   -0.0018   -0.3706 C   0  0  0  0  0  0  0  0  0  0  0  0
    4.3598    2.0922   -4.6147 C   0  0  0  0  0  0  0  0  0  0  0  0
    4.1675    0.5774   -4.7233 C   0  0  0  0  0  0  0  0  0  0  0  0
    5.8480    2.4003   -4.8348 C   0  0  0  0  0  0  0  0  0  0  0  0
    3.5216    2.7614   -5.7132 C   0  0  0  0  0  0  0  0  0  0  0  0
    5.4791    5.7760    0.1477 C   0  0  0  0  0  0  0  0  0  0  0  0
    5.6552    5.6352    1.6303 C   0  0  1  0  0  3  0  0  0  0  0  0
    6.8227    6.0274    2.2622 C   0  0  0  0  0  0  0  0  0  0  0  0
    6.9361    5.8922    3.6395 C   0  0  0  0  0  0  0  0  0  0  0  0
    5.8601    5.3552    4.3323 C   0  0  0  0  0  0  0  0  0  0  0  0
    4.7260    4.9950    3.6302 C   0  0  0  0  0  0  0  0  0  0  0  0
    2.2631    6.8975    4.0099 H   0  0  0  0  0  0  0  0  0  0  0  0
    3.3973    8.7136    5.2137 H   0  0  0  0  0  0  0  0  0  0  0  0
    5.0411   10.1525    3.9857 H   0  0  0  0  0  0  0  0  0  0  0  0
    5.3908    9.7098    1.5546 H   0  0  0  0  0  0  0  0  0  0  0  0
    5.0117    8.3002   -0.3722 H   0  0  0  0  0  0  0  0  0  0  0  0
    3.2309    8.1823   -0.3969 H   0  0  0  0  0  0  0  0  0  0  0  0
    2.8004    6.4778   -1.7283 H   0  0  0  0  0  0  0  0  0  0  0  0
    4.5012    6.4829   -2.2656 H   0  0  0  0  0  0  0  0  0  0  0  0
    4.4715    4.6669   -3.7652 H   0  0  0  0  0  0  0  0  0  0  0  0
    3.2668    0.8007   -2.4457 H   0  0  0  0  0  0  0  0  0  0  0  0
    0.9321    3.0236    0.6057 H   0  0  0  0  0  0  0  0  0  0  0  0
    0.3271    1.8604   -0.5714 H   0  0  0  0  0  0  0  0  0  0  0  0
    0.4940    1.4020    1.1292 H   0  0  0  0  0  0  0  0  0  0  0  0
    2.7785    0.9143    2.0939 H   0  0  0  0  0  0  0  0  0  0  0  0
    4.2306    1.1942    1.1230 H   0  0  0  0  0  0  0  0  0  0  0  0
    3.2696    2.5590    1.7125 H   0  0  0  0  0  0  0  0  0  0  0  0
    1.8206   -0.5685    0.4381 H   0  0  0  0  0  0  0  0  0  0  0  0
    1.6548   -0.1250   -1.2544 H   0  0  0  0  0  0  0  0  0  0  0  0
    3.2618   -0.4222   -0.5613 H   0  0  0  0  0  0  0  0  0  0  0  0
    3.1201    0.3068   -4.6151 H   0  0  0  0  0  0  0  0  0  0  0  0
    4.4998    0.2411   -5.7033 H   0  0  0  0  0  0  0  0  0  0  0  0
    4.7534    0.0522   -3.9725 H   0  0  0  0  0  0  0  0  0  0  0  0
    6.4461    1.9528   -4.0435 H   0  0  0  0  0  0  0  0  0  0  0  0
    6.1767    1.9920   -5.7878 H   0  0  0  0  0  0  0  0  0  0  0  0
    6.0364    3.4703   -4.8426 H   0  0  0  0  0  0  0  0  0  0  0  0
    3.6712    3.8374   -5.7272 H   0  0  0  0  0  0  0  0  0  0  0  0
    3.7980    2.3657   -6.6880 H   0  0  0  0  0  0  0  0  0  0  0  0
    2.4642    2.5676   -5.5479 H   0  0  0  0  0  0  0  0  0  0  0  0
    5.5266    4.7763   -0.3036 H   0  0  0  0  0  0  0  0  0  0  0  0
    6.2991    6.3783   -0.2777 H   0  0  0  0  0  0  0  0  0  0  0  0
    7.6353    6.4357    1.6801 H   0  0  0  0  0  0  0  0  0  0  0  0
    7.8369    6.1946    4.1502 H   0  0  0  0  0  0  0  0  0  0  0  0
    5.8974    5.2151    5.4006 H   0  0  0  0  0  0  0  0  0  0  0  0
    3.8812    4.5474    4.1387 H   0  0  0  0  0  0  0  0  0  0  0  0
  1  3  1  0  0  0  0
  3  5  1  0  0  0  0
  3  7  1  0  0  0  0
  3  2  1  0  0  0  0
  4  3  1  0  0  0  0
  5  8  1  0  0  0  0
  6 14  1  6  0  0  0
  6 13  1  0  0  0  0
  6 29  1  0  0  0  0
  6  3  1  0  0  0  0
  7 34  1  0  0  0  0
  8 35  1  0  0  0  0
  8  9  1  0  0  0  0
  9 36  1  0  0  0  0
 10 37  1  0  0  0  0
 10  9  2  0  0  0  0
 11 10  1  0  0  0  0
 12 11  2  0  0  0  0
 12  5  1  0  0  0  0
 13 12  1  0  0  0  0
 15 14  1  0  0  0  0
 15 20  1  0  0  0  0
 16 15  2  0  0  0  0
 17 16  1  0  0  0  0
 17 18  2  0  0  0  0
 18 19  1  0  0  0  0
 19 20  2  0  0  0  0
 19 21  1  0  0  0  0
 20  4  1  0  0  0  0
 21 22  1  0  0  0  0
 21 23  1  0  0  0  0
 22 45  1  0  0  0  0
 22 47  1  0  0  0  0
 23 50  1  0  0  0  0
 23 48  1  0  0  0  0
 24 21  1  0  0  0  0
 24 51  1  0  0  0  0
 25 17  1  0  0  0  0
 26 54  1  0  0  0  0
 26 25  1  0  0  0  0
 26 56  1  0  0  0  0
 27 25  1  0  0  0  0
 27 57  1  0  0  0  0
 28 62  1  0  0  0  0
 28 25  1  0  0  0  0
 29 30  1  0  0  0  0
 30 31  1  1  0  0  0
 30  7  1  0  0  0  0
 31 32  2  0  0  0  0
 32 66  1  0  0  0  0
 32 33  1  0  0  0  0
 33 67  1  0  0  0  0
 34 68  1  0  0  0  0
 34 33  2  0  0  0  0
 38 11  1  0  0  0  0
 39 13  1  0  0  0  0
 40 13  1  0  0  0  0
 41 14  1  0  0  0  0
 42 14  1  0  0  0  0
 43 16  1  0  0  0  0
 44 18  1  0  0  0  0
 46 22  1  0  0  0  0
 49 23  1  0  0  0  0
 52 24  1  0  0  0  0
 53 24  1  0  0  0  0
 55 26  1  0  0  0  0
 58 27  1  0  0  0  0
 59 27  1  0  0  0  0
 60 28  1  0  0  0  0
 61 28  1  0  0  0  0
 63 29  1  0  0  0  0
 64 29  1  0  0  0  0
 65 31  1  0  0  0  0
M  END
$$$$
