CSD_code = LINGEV | q = 0 | S = 0 | Stoichiometry = C19H27INPPd | MND = 4
 OpenBabel04212202063D

 50 52  0  0  0  0  0  0  0  0999 V2000
    0.1953    3.9558    1.7156 I   0  0  0  0  0  0  0  0  0  0  0  0
    0.9134    3.2547    4.0862 Pd  0  0  1  0  0  0  0  0  0  0  0  0
    1.7153    2.7342    6.0888 P   0  0  0  0  0  4  0  0  0  0  0  0
    1.6153    5.4204    4.8044 N   0  0  0  0  0  4  0  0  0  0  0  0
    0.4369    1.2953    3.6704 C   0  0  0  0  0  0  0  0  0  0  0  0
    0.5195    6.3723    4.5749 C   0  0  0  0  0  0  0  0  0  0  0  0
   -0.8216    5.7833    5.0116 C   0  0  0  0  0  0  0  0  0  0  0  0
    2.7529    5.6341    3.8949 C   0  0  0  0  0  0  0  0  0  0  0  0
    3.5391    6.9322    4.0842 C   0  0  0  0  0  0  0  0  0  0  0  0
    2.0085    5.4256    6.2169 C   0  0  0  0  0  0  0  0  0  0  0  0
    2.7691    4.1611    6.6138 C   0  0  0  0  0  0  0  0  0  0  0  0
    2.8504    1.3277    6.2499 C   0  0  0  0  0  0  0  0  0  0  0  0
    3.6799    1.1327    5.1470 C   0  0  0  0  0  0  0  0  0  0  0  0
    4.5949    0.0989    5.1381 C   0  0  0  0  0  0  0  0  0  0  0  0
    4.6730   -0.7568    6.2266 C   0  0  0  0  0  0  0  0  0  0  0  0
    3.8307   -0.5827    7.3117 C   0  0  0  0  0  0  0  0  0  0  0  0
    2.9159    0.4567    7.3283 C   0  0  0  0  0  0  0  0  0  0  0  0
    0.4779    2.6061    7.4099 C   0  0  0  0  0  0  0  0  0  0  0  0
    0.7694    2.6558    8.7695 C   0  0  0  0  0  0  0  0  0  0  0  0
   -0.2548    2.5747    9.6955 C   0  0  0  0  0  0  0  0  0  0  0  0
   -1.5695    2.4496    9.2742 C   0  0  0  0  0  0  0  0  0  0  0  0
   -1.8663    2.4089    7.9215 C   0  0  0  0  0  0  0  0  0  0  0  0
   -0.8452    2.4880    6.9926 C   0  0  0  0  0  0  0  0  0  0  0  0
    0.5722    0.6265    4.5291 H   0  0  0  0  0  0  0  0  0  0  0  0
   -0.6095    1.2713    3.3431 H   0  0  0  0  0  0  0  0  0  0  0  0
    1.0854    0.9710    2.8468 H   0  0  0  0  0  0  0  0  0  0  0  0
    0.7024    7.3206    5.1017 H   0  0  0  0  0  0  0  0  0  0  0  0
    0.4696    6.5797    3.5028 H   0  0  0  0  0  0  0  0  0  0  0  0
   -1.6338    6.3966    4.6301 H   0  0  0  0  0  0  0  0  0  0  0  0
   -0.9322    4.7671    4.5924 H   0  0  0  0  0  0  0  0  0  0  0  0
   -0.9152    5.7269    6.0958 H   0  0  0  0  0  0  0  0  0  0  0  0
    3.4370    4.7783    3.9944 H   0  0  0  0  0  0  0  0  0  0  0  0
    2.3598    5.6222    2.8729 H   0  0  0  0  0  0  0  0  0  0  0  0
    4.1015    6.9422    5.0156 H   0  0  0  0  0  0  0  0  0  0  0  0
    4.2485    7.0318    3.2668 H   0  0  0  0  0  0  0  0  0  0  0  0
    2.8762    7.7939    4.0626 H   0  0  0  0  0  0  0  0  0  0  0  0
    2.6001    6.3205    6.4592 H   0  0  0  0  0  0  0  0  0  0  0  0
    1.0939    5.4627    6.8179 H   0  0  0  0  0  0  0  0  0  0  0  0
    2.9580    4.1487    7.6903 H   0  0  0  0  0  0  0  0  0  0  0  0
    3.7318    4.0883    6.0993 H   0  0  0  0  0  0  0  0  0  0  0  0
    3.5748    1.7922    4.2857 H   0  0  0  0  0  0  0  0  0  0  0  0
    5.2380   -0.0505    4.2837 H   0  0  0  0  0  0  0  0  0  0  0  0
    5.3827   -1.5707    6.2218 H   0  0  0  0  0  0  0  0  0  0  0  0
    3.8814   -1.2632    8.1489 H   0  0  0  0  0  0  0  0  0  0  0  0
    2.2471    0.5778    8.1682 H   0  0  0  0  0  0  0  0  0  0  0  0
    1.7919    2.7613    9.1065 H   0  0  0  0  0  0  0  0  0  0  0  0
   -0.0275    2.6115   10.7511 H   0  0  0  0  0  0  0  0  0  0  0  0
   -2.3633    2.3885   10.0036 H   0  0  0  0  0  0  0  0  0  0  0  0
   -2.8910    2.3188    7.5934 H   0  0  0  0  0  0  0  0  0  0  0  0
   -1.0605    2.4631    5.9241 H   0  0  0  0  0  0  0  0  0  0  0  0
  2  1  1  6  0  0  0
  2  4  1  0  0  0  0
  2  3  1  0  0  0  0
  3 12  1  0  0  0  0
  3 11  1  0  0  0  0
  3 18  1  0  0  0  0
  4 10  1  0  0  0  0
  5  2  1  0  0  0  0
  5 24  1  0  0  0  0
  6  4  1  0  0  0  0
  6  7  1  0  0  0  0
  6 27  1  0  0  0  0
  7 31  1  0  0  0  0
  8 32  1  0  0  0  0
  8  9  1  0  0  0  0
  8  4  1  0  0  0  0
  9 34  1  0  0  0  0
 10 37  1  0  0  0  0
 10 11  1  0  0  0  0
 10 38  1  0  0  0  0
 11 39  1  0  0  0  0
 12 17  1  0  0  0  0
 13 12  2  0  0  0  0
 14 13  1  0  0  0  0
 14 15  2  0  0  0  0
 15 16  1  0  0  0  0
 16 17  2  0  0  0  0
 16 44  1  0  0  0  0
 17 45  1  0  0  0  0
 18 19  1  0  0  0  0
 19 46  1  0  0  0  0
 19 20  2  0  0  0  0
 20 47  1  0  0  0  0
 21 20  1  0  0  0  0
 21 48  1  0  0  0  0
 22 21  2  0  0  0  0
 23 18  2  0  0  0  0
 23 22  1  0  0  0  0
 25  5  1  0  0  0  0
 26  5  1  0  0  0  0
 28  6  1  0  0  0  0
 29  7  1  0  0  0  0
 30  7  1  0  0  0  0
 33  8  1  0  0  0  0
 35  9  1  0  0  0  0
 36  9  1  0  0  0  0
 40 11  1  0  0  0  0
 41 13  1  0  0  0  0
 42 14  1  0  0  0  0
 43 15  1  0  0  0  0
 49 22  1  0  0  0  0
 50 23  1  0  0  0  0
M  END
$$$$
