CSD_code = LINSIM | q = -1 | S = 0 | Stoichiometry = C7H6Cl4N3OOs(1-) | MND = 6
 OpenBabel04212202063D

 22 23  0  0  0  0  0  0  0  0999 V2000
    4.4502   10.9722    8.6784 Os  0  0  0  0  0  0  0  0  0  0  0  0
    4.6543   12.4865    6.9125 Cl  0  0  0  0  0  0  0  0  0  0  0  0
    4.8699    9.1954    7.1900 Cl  0  0  0  0  0  0  0  0  0  0  0  0
    4.0218    9.3812   10.4238 Cl  0  0  0  0  0  0  0  0  0  0  0  0
    3.5049   12.6678   10.0074 Cl  0  0  0  0  0  0  0  0  0  0  0  0
    7.1376   11.2944    9.5711 O   0  0  0  0  0  1  0  0  0  0  0  0
    2.4373   10.6435    8.0896 N   0  0  0  0  0  0  0  0  0  0  0  0
    1.7083    9.6942    8.6943 N   0  0  0  0  0  0  0  0  0  0  0  0
    2.1558    9.1855    9.4679 H   0  0  0  0  0  0  0  0  0  0  0  0
    6.0415   11.1778    9.1917 N   0  0  0  0  0  2  0  0  0  0  0  0
    1.7016   11.2101    7.1568 C   0  0  0  0  0  0  0  0  0  0  0  0
    2.0969   11.9993    6.5445 H   0  0  0  0  0  0  0  0  0  0  0  0
    0.4217   10.6135    7.1394 C   0  0  0  0  0  0  0  0  0  0  0  0
   -0.7503   10.7847    6.3952 C   0  0  0  0  0  3  0  0  0  0  0  0
   -0.7980   11.5288    5.6147 H   0  0  0  0  0  0  0  0  0  0  0  0
   -1.8232    9.9816    6.6899 C   0  0  0  0  0  0  0  0  0  0  0  0
   -2.7433   10.0886    6.1333 H   0  0  0  0  0  0  0  0  0  0  0  0
   -1.7602    9.0126    7.7052 C   0  0  0  0  0  0  0  0  0  0  0  0
   -2.6336    8.4057    7.8973 H   0  0  0  0  0  0  0  0  0  0  0  0
   -0.6246    8.8192    8.4530 C   0  0  0  0  0  0  0  0  0  0  0  0
   -0.5728    8.0757    9.2330 H   0  0  0  0  0  0  0  0  0  0  0  0
    0.4730    9.6304    8.1627 C   0  0  0  0  0  0  0  0  0  0  0  0
  1 10  1  0  0  0  0
  1  5  1  0  0  0  0
  1  4  1  0  0  0  0
  2  1  1  0  0  0  0
  3  1  1  0  0  0  0
  7  1  1  0  0  0  0
  7  8  1  0  0  0  0
  8  9  1  0  0  0  0
 10  6  1  0  0  0  0
 11  7  1  0  0  0  0
 12 11  1  0  0  0  0
 13 11  2  0  0  0  0
 13 22  1  0  0  0  0
 14 16  1  0  0  0  0
 14 13  1  0  0  0  0
 15 14  1  0  0  0  0
 16 18  2  0  0  0  0
 17 16  1  0  0  0  0
 18 19  1  0  0  0  0
 18 20  1  0  0  0  0
 20 21  1  0  0  0  0
 22 20  2  0  0  0  0
 22  8  1  0  0  0  0
M  END
$$$$
