CSD_code = LINTAF | q = -1 | S = 0 | Stoichiometry = C3H4Cl4N3OOs(1-) | MND = 6
 OpenBabel04212202063D

 16 16  0  0  0  0  0  0  0  0999 V2000
    2.6704    2.7825    3.1449 Os  0  0  0  0  0  0  0  0  0  0  0  0
    4.0871    4.6857    3.4459 Cl  0  0  0  0  0  0  0  0  0  0  0  0
    1.0480    4.1503    2.4088 Cl  0  0  0  0  0  0  0  0  0  0  0  0
    1.1766    0.9451    2.9706 Cl  0  0  0  0  0  0  0  0  0  0  0  0
    3.4546    2.4288    1.0055 Cl  0  0  0  0  0  0  0  0  0  0  0  0
    4.5759    1.1432    4.4994 O   0  0  0  0  0  1  0  0  0  0  0  0
    1.7989    3.2328    5.0916 N   0  0  0  0  0  0  0  0  0  0  0  0
    0.8988    4.4914    6.6236 N   0  0  0  0  0  0  0  0  0  0  0  0
    0.6364    5.3136    7.1418 H   0  0  0  0  0  0  0  0  0  0  0  0
    3.8324    1.7910    3.8645 N   0  0  0  0  0  2  0  0  0  0  0  0
    1.6782    4.4618    5.5298 C   0  0  0  0  0  3  0  0  0  0  0  0
    2.1554    5.3123    5.0809 H   0  0  0  0  0  0  0  0  0  0  0  0
    0.4989    3.2085    6.8802 C   0  0  0  0  0  0  0  0  0  0  0  0
   -0.1412    2.9602    7.7011 H   0  0  0  0  0  0  0  0  0  0  0  0
    1.0693    2.4345    5.9160 C   0  0  0  0  0  0  0  0  0  0  0  0
    0.9947    1.3808    5.7348 H   0  0  0  0  0  0  0  0  0  0  0  0
  1  2  1  0  0  0  0
  1 10  1  0  0  0  0
  1  7  1  0  0  0  0
  3  1  1  0  0  0  0
  4  1  1  0  0  0  0
  5  1  1  0  0  0  0
  7 11  1  0  0  0  0
  7 15  1  0  0  0  0
  8 13  1  0  0  0  0
  8  9  1  0  0  0  0
 10  6  1  0  0  0  0
 11  8  1  0  0  0  0
 12 11  1  0  0  0  0
 13 14  1  0  0  0  0
 15 13  2  0  0  0  0
 16 15  1  0  0  0  0
M  END
$$$$
