CSD_code = LINTIN | q = -1 | S = 0 | Stoichiometry = C3H4Cl4N3ORu(1-) | MND = 6
 OpenBabel04212202063D

 16 16  0  0  0  0  0  0  0  0999 V2000
    2.8379    8.2242    1.7631 Ru  0  0  0  0  0  0  0  0  0  0  0  0
    4.4155    6.4729    1.8080 Cl  0  0  0  0  0  0  0  0  0  0  0  0
    1.0893    6.6336    1.5411 Cl  0  0  0  0  0  0  0  0  0  0  0  0
    1.2277   10.0160    1.5024 Cl  0  0  0  0  0  0  0  0  0  0  0  0
    4.5961    9.7924    1.4301 Cl  0  0  0  0  0  0  0  0  0  0  0  0
    2.7227    8.4593    4.5669 O   0  0  0  0  0  1  0  0  0  0  0  0
    2.8758    8.1370   -0.3148 N   0  0  0  0  0  0  0  0  0  0  0  0
    2.2752    9.0811   -1.0328 N   0  0  0  0  0  0  0  0  0  0  0  0
    1.7455    9.7968   -0.5101 H   0  0  0  0  0  0  0  0  0  0  0  0
    2.7781    8.3507    3.4182 N   0  0  0  0  0  2  0  0  0  0  0  0
    2.4464    8.8712   -2.3410 C   0  0  0  0  0  3  0  0  0  0  0  0
    2.0322    9.5286   -3.0792 H   0  0  0  0  0  0  0  0  0  0  0  0
    3.2066    7.7274   -2.4729 C   0  0  0  0  0  0  0  0  0  0  0  0
    3.5402    7.2624   -3.3776 H   0  0  0  0  0  0  0  0  0  0  0  0
    3.4512    7.3015   -1.1667 C   0  0  0  0  0  0  0  0  0  0  0  0
    4.0067    6.4515   -0.8149 H   0  0  0  0  0  0  0  0  0  0  0  0
  1  2  1  0  0  0  0
  1 10  1  0  0  0  0
  3  1  1  0  0  0  0
  4  1  1  0  0  0  0
  5  1  1  0  0  0  0
  7  1  1  0  0  0  0
  8  9  1  0  0  0  0
  8  7  1  0  0  0  0
 10  6  1  0  0  0  0
 11  8  1  0  0  0  0
 12 11  1  0  0  0  0
 13 11  1  0  0  0  0
 13 15  2  0  0  0  0
 14 13  1  0  0  0  0
 15 16  1  0  0  0  0
 15  7  1  0  0  0  0
M  END
$$$$
