CSD_code = LIPDEW | q = 0 | S = 0 | Stoichiometry = C21H24ClCuN4O2S | MND = 4
 OpenBabel04212202063D

 54 58  0  0  1  0  0  0  0  0999 V2000
    1.5422    0.0513   11.1222 Cu  0  0  1  0  0  0  0  0  0  0  0  0
    2.0202    2.0784   11.7298 Cl  0  0  0  0  0  0  0  0  0  0  0  0
    1.3700    2.1770   15.6194 S   0  0  0  0  0  0  0  0  0  0  0  0
    0.9339    3.5334   15.5030 O   0  0  0  0  0  0  0  0  0  0  0  0
    1.1222    1.4875   16.8596 O   0  0  0  0  0  0  0  0  0  0  0  0
    3.0248   -1.0816   11.9710 N   0  0  0  0  0  0  0  0  0  0  0  0
    0.2567   -1.3719   12.4531 N   0  0  2  0  0  4  0  0  0  0  0  0
    0.5201   -0.8261    9.7225 N   0  0  0  0  0  0  0  0  0  0  0  0
    0.6335    1.2875   14.4199 N   0  0  0  0  0  0  0  0  0  0  0  0
    0.9130    1.6506   13.5042 H   0  0  0  0  0  0  0  0  0  0  0  0
    4.2721   -0.6409   12.0697 C   0  0  0  0  0  3  0  0  0  0  0  0
    4.5436    0.1588   11.3962 H   0  0  0  0  0  0  0  0  0  0  0  0
    5.1738   -1.1591   12.9816 C   0  0  0  0  0  0  0  0  0  0  0  0
    6.1797   -0.7774   13.0271 H   0  0  0  0  0  0  0  0  0  0  0  0
    4.7519   -2.1757   13.8243 C   0  0  0  0  0  0  0  0  0  0  0  0
    5.4254   -2.6098   14.5476 H   0  0  0  0  0  0  0  0  0  0  0  0
    3.4452   -2.6272   13.7259 C   0  0  0  0  0  0  0  0  0  0  0  0
    3.0805   -3.4129   14.3695 H   0  0  0  0  0  0  0  0  0  0  0  0
    2.6026   -2.0458   12.7890 C   0  0  0  0  0  0  0  0  0  0  0  0
    1.1763   -2.4974   12.5969 C   0  0  0  0  0  0  0  0  0  0  0  0
    1.1510   -3.0801   11.6692 H   0  0  0  0  0  0  0  0  0  0  0  0
    0.8792   -3.1582   13.4253 H   0  0  0  0  0  0  0  0  0  0  0  0
   -0.8336   -1.6785   11.5344 C   0  0  0  0  0  0  0  0  0  0  0  0
   -1.5450   -0.8477   11.5786 H   0  0  0  0  0  0  0  0  0  0  0  0
   -1.3661   -2.6015   11.8141 H   0  0  0  0  0  0  0  0  0  0  0  0
   -0.3437   -1.7728   10.1142 C   0  0  1  0  0  3  0  0  0  0  0  0
   -0.7907   -2.7573    9.2487 C   0  0  0  0  0  0  0  0  0  0  0  0
   -1.4910   -3.5021    9.5954 H   0  0  0  0  0  0  0  0  0  0  0  0
   -0.3397   -2.7665    7.9362 C   0  0  0  0  0  0  0  0  0  0  0  0
   -0.6810   -3.5203    7.2436 H   0  0  0  0  0  0  0  0  0  0  0  0
    0.5503   -1.7799    7.5370 C   0  0  0  0  0  0  0  0  0  0  0  0
    0.9207   -1.7415    6.5253 H   0  0  0  0  0  0  0  0  0  0  0  0
    0.9493   -0.8319    8.4600 C   0  0  0  0  0  0  0  0  0  0  0  0
    1.6259   -0.0347    8.1884 H   0  0  0  0  0  0  0  0  0  0  0  0
   -0.2431   -0.9062   13.7426 C   0  0  0  0  0  0  0  0  0  0  0  0
   -0.6181   -1.7617   14.3278 H   0  0  0  0  0  0  0  0  0  0  0  0
   -1.0744   -0.2217   13.5687 H   0  0  0  0  0  0  0  0  0  0  0  0
    0.7925   -0.1375   14.5702 C   0  0  0  0  0  0  0  0  0  0  0  0
    0.6302   -0.3295   15.6337 H   0  0  0  0  0  0  0  0  0  0  0  0
    1.8077   -0.4654   14.3121 H   0  0  0  0  0  0  0  0  0  0  0  0
    3.1152    2.0671   15.2401 C   0  0  0  0  0  0  0  0  0  0  0  0
    3.6662    2.9517   14.3342 C   0  0  0  0  0  0  0  0  0  0  0  0
    3.0427    3.7169   13.9038 H   0  0  0  0  0  0  0  0  0  0  0  0
    5.0029    2.8277   14.0039 C   0  0  0  0  0  0  0  0  0  0  0  0
    5.4449    3.5124   13.2956 H   0  0  0  0  0  0  0  0  0  0  0  0
    5.7884    1.8300   14.5744 C   0  0  0  0  0  0  0  0  0  0  0  0
    5.2095    0.9501   15.4811 C   0  0  0  0  0  0  0  0  0  0  0  0
    5.8110    0.1763   15.9374 H   0  0  0  0  0  0  0  0  0  0  0  0
    3.8695    1.0638   15.8121 C   0  0  0  0  0  0  0  0  0  0  0  0
    3.4032    0.4024   16.5259 H   0  0  0  0  0  0  0  0  0  0  0  0
    7.2442    1.7326   14.2272 C   0  0  0  0  0  0  0  0  0  0  0  0
    7.7847    2.5750   14.6577 H   0  0  0  0  0  0  0  0  0  0  0  0
    7.3857    1.7685   13.1485 H   0  0  0  0  0  0  0  0  0  0  0  0
    7.6821    0.8158   14.6151 H   0  0  0  0  0  0  0  0  0  0  0  0
  1  2  1  1  0  0  0
  1  6  1  0  0  0  0
  1  7  1  0  0  0  0
  3  5  2  0  0  0  0
  4  3  2  0  0  0  0
  6 11  1  0  0  0  0
  6 19  1  0  0  0  0
  7 20  1  0  0  0  0
  7 35  1  1  0  0  0
  8 26  1  0  0  0  0
  8  1  1  0  0  0  0
  9 38  1  0  0  0  0
  9  3  1  0  0  0  0
 10  9  1  0  0  0  0
 11 13  1  0  0  0  0
 12 11  1  0  0  0  0
 13 14  1  0  0  0  0
 13 15  2  0  0  0  0
 15 16  1  0  0  0  0
 17 15  1  0  0  0  0
 17 18  1  0  0  0  0
 19 17  2  0  0  0  0
 20 19  1  0  0  0  0
 20 22  1  0  0  0  0
 21 20  1  0  0  0  0
 23 24  1  0  0  0  0
 23 25  1  0  0  0  0
 23  7  1  0  0  0  0
 26 27  1  6  0  0  0
 26 23  1  0  0  0  0
 27 28  1  0  0  0  0
 29 27  2  0  0  0  0
 30 29  1  0  0  0  0
 31 29  1  0  0  0  0
 31 33  2  0  0  0  0
 32 31  1  0  0  0  0
 33  8  1  0  0  0  0
 34 33  1  0  0  0  0
 35 36  1  0  0  0  0
 35 38  1  0  0  0  0
 37 35  1  0  0  0  0
 38 39  1  0  0  0  0
 40 38  1  0  0  0  0
 41  3  1  0  0  0  0
 41 49  1  0  0  0  0
 42 41  2  0  0  0  0
 43 42  1  0  0  0  0
 44 42  1  0  0  0  0
 44 46  2  0  0  0  0
 45 44  1  0  0  0  0
 46 47  1  0  0  0  0
 47 49  2  0  0  0  0
 47 48  1  0  0  0  0
 49 50  1  0  0  0  0
 51 46  1  0  0  0  0
 51 54  1  0  0  0  0
 51 52  1  0  0  0  0
 53 51  1  0  0  0  0
M  END
$$$$
