CSD_code = LIPKOK | q = 0 | S = 0 | Stoichiometry = C15H45ClN3Si4Ta | MND = 5
 OpenBabel04212202063D

 69 68  0  0  0  0  0  0  0  0999 V2000
   11.6489    2.4941    2.1968 Ta  0  0  0  0  0  0  0  0  0  0  0  0
   11.7159    0.2491    2.7113 Cl  0  0  0  0  0  0  0  0  0  0  0  0
   11.6141    2.2247   -0.5174 Si  0  0  0  0  0  0  0  0  0  0  0  0
   11.0823   -0.0955   -0.8923 Si  0  0  0  0  0  0  0  0  0  0  0  0
    9.9505    3.4785   -1.7674 Si  0  0  0  0  0  0  0  0  0  0  0  0
   13.7083    2.8199   -1.5932 Si  0  0  0  0  0  0  0  0  0  0  0  0
   11.6362    4.4578    1.9911 N   0  0  0  0  0  0  0  0  0  0  0  0
    9.6928    2.4354    2.6043 N   0  0  0  0  0  0  0  0  0  0  0  0
   13.6425    2.5085    2.5141 N   0  0  0  0  0  0  0  0  0  0  0  0
   12.6208    5.2375    1.2750 C   0  0  0  0  0  0  0  0  0  0  0  0
   10.7319    5.3657    2.6551 C   0  0  0  0  0  0  0  0  0  0  0  0
    9.1754    1.8176    3.8008 C   0  0  0  0  0  0  0  0  0  0  0  0
    8.5979    2.9687    1.8318 C   0  0  0  0  0  0  0  0  0  0  0  0
   14.2360    3.4086    3.4763 C   0  0  0  0  0  0  0  0  0  0  0  0
   14.4959    1.3485    2.3844 C   0  0  0  0  0  0  0  0  0  0  0  0
   12.5249   -1.2654   -0.4260 C   0  0  0  0  0  0  0  0  0  0  0  0
   10.7028   -0.4327   -2.7419 C   0  0  0  0  0  0  0  0  0  0  0  0
    9.5128   -0.6131    0.0747 C   0  0  0  0  0  0  0  0  0  0  0  0
   10.4311    3.4507   -3.6249 C   0  0  0  0  0  0  0  0  0  0  0  0
    8.1732    2.7456   -1.7789 C   0  0  0  0  0  0  0  0  0  0  0  0
    9.7500    5.3355   -1.3157 C   0  0  0  0  0  0  0  0  0  0  0  0
   15.3578    2.5383   -0.6575 C   0  0  0  0  0  0  0  0  0  0  0  0
   13.8725    1.7766   -3.1942 C   0  0  0  0  0  0  0  0  0  0  0  0
   13.8048    4.6632   -2.1427 C   0  0  0  0  0  0  0  0  0  0  0  0
   13.4170    4.5835    0.9301 H   0  0  0  0  0  0  0  0  0  0  0  0
   13.0547    6.0202    1.9115 H   0  0  0  0  0  0  0  0  0  0  0  0
   12.1677    5.7328    0.4079 H   0  0  0  0  0  0  0  0  0  0  0  0
    9.9690    4.8035    3.1862 H   0  0  0  0  0  0  0  0  0  0  0  0
   10.2445    6.0450    1.9425 H   0  0  0  0  0  0  0  0  0  0  0  0
   11.2686    5.9915    3.3836 H   0  0  0  0  0  0  0  0  0  0  0  0
    9.9906    1.4249    4.4083 H   0  0  0  0  0  0  0  0  0  0  0  0
    8.5000    0.9862    3.5530 H   0  0  0  0  0  0  0  0  0  0  0  0
    8.6048    2.5357    4.4099 H   0  0  0  0  0  0  0  0  0  0  0  0
    8.9898    3.5944    1.0325 H   0  0  0  0  0  0  0  0  0  0  0  0
    7.9151    3.5687    2.4520 H   0  0  0  0  0  0  0  0  0  0  0  0
    8.0062    2.1551    1.3896 H   0  0  0  0  0  0  0  0  0  0  0  0
   13.6046    4.2859    3.6079 H   0  0  0  0  0  0  0  0  0  0  0  0
   15.2348    3.7393    3.1589 H   0  0  0  0  0  0  0  0  0  0  0  0
   14.3530    2.9130    4.4532 H   0  0  0  0  0  0  0  0  0  0  0  0
   14.1679    0.7354    1.5462 H   0  0  0  0  0  0  0  0  0  0  0  0
   14.4595    0.7363    3.2990 H   0  0  0  0  0  0  0  0  0  0  0  0
   15.5419    1.6354    2.2249 H   0  0  0  0  0  0  0  0  0  0  0  0
   13.4444   -0.9847   -0.9319 H   0  0  0  0  0  0  0  0  0  0  0  0
   12.3124   -2.2995   -0.6847 H   0  0  0  0  0  0  0  0  0  0  0  0
   12.7084   -1.2291    0.6425 H   0  0  0  0  0  0  0  0  0  0  0  0
   11.5500   -0.1857   -3.3704 H   0  0  0  0  0  0  0  0  0  0  0  0
    9.8582    0.1517   -3.0890 H   0  0  0  0  0  0  0  0  0  0  0  0
   10.4658   -1.4784   -2.9136 H   0  0  0  0  0  0  0  0  0  0  0  0
    9.6295   -0.3758    1.1271 H   0  0  0  0  0  0  0  0  0  0  0  0
    9.3186   -1.6800    0.0008 H   0  0  0  0  0  0  0  0  0  0  0  0
    8.6304   -0.0936   -0.2873 H   0  0  0  0  0  0  0  0  0  0  0  0
   10.4788    2.4319   -3.9927 H   0  0  0  0  0  0  0  0  0  0  0  0
   11.3966    3.9066   -3.8092 H   0  0  0  0  0  0  0  0  0  0  0  0
    9.7018    3.9795   -4.2324 H   0  0  0  0  0  0  0  0  0  0  0  0
    8.2011    1.6789   -1.9755 H   0  0  0  0  0  0  0  0  0  0  0  0
    7.5667    3.1999   -2.5586 H   0  0  0  0  0  0  0  0  0  0  0  0
    7.6524    2.8918   -0.8395 H   0  0  0  0  0  0  0  0  0  0  0  0
   10.6451    5.8984   -1.5616 H   0  0  0  0  0  0  0  0  0  0  0  0
    9.5631    5.4687   -0.2551 H   0  0  0  0  0  0  0  0  0  0  0  0
    8.9228    5.7950   -1.8506 H   0  0  0  0  0  0  0  0  0  0  0  0
   15.5306    1.4847   -0.4642 H   0  0  0  0  0  0  0  0  0  0  0  0
   15.3549    3.0517    0.2979 H   0  0  0  0  0  0  0  0  0  0  0  0
   16.2084    2.9094   -1.2246 H   0  0  0  0  0  0  0  0  0  0  0  0
   13.9095    0.7158   -2.9704 H   0  0  0  0  0  0  0  0  0  0  0  0
   14.7765    2.0235   -3.7438 H   0  0  0  0  0  0  0  0  0  0  0  0
   13.0330    1.9395   -3.8597 H   0  0  0  0  0  0  0  0  0  0  0  0
   12.8372    5.0445   -2.4484 H   0  0  0  0  0  0  0  0  0  0  0  0
   14.4810    4.7870   -2.9843 H   0  0  0  0  0  0  0  0  0  0  0  0
   14.1659    5.3005   -1.3419 H   0  0  0  0  0  0  0  0  0  0  0  0
  1  9  1  0  0  0  0
  1  8  1  0  0  0  0
  1  2  1  0  0  0  0
  3  1  1  0  0  0  0
  4  3  1  0  0  0  0
  4 16  1  0  0  0  0
  4 18  1  0  0  0  0
  5 21  1  0  0  0  0
  5  3  1  0  0  0  0
  6 22  1  0  0  0  0
  6  3  1  0  0  0  0
  7  1  1  0  0  0  0
  7 11  1  0  0  0  0
  8 12  1  0  0  0  0
  9 14  1  0  0  0  0
 10 26  1  0  0  0  0
 10  7  1  0  0  0  0
 11 28  1  0  0  0  0
 11 30  1  0  0  0  0
 12 31  1  0  0  0  0
 12 33  1  0  0  0  0
 13 35  1  0  0  0  0
 13  8  1  0  0  0  0
 14 37  1  0  0  0  0
 14 39  1  0  0  0  0
 15  9  1  0  0  0  0
 15 41  1  0  0  0  0
 16 45  1  0  0  0  0
 17  4  1  0  0  0  0
 18 49  1  0  0  0  0
 19  5  1  0  0  0  0
 20  5  1  0  0  0  0
 20 57  1  0  0  0  0
 21 59  1  0  0  0  0
 22 61  1  0  0  0  0
 22 62  1  0  0  0  0
 23 64  1  0  0  0  0
 23  6  1  0  0  0  0
 24  6  1  0  0  0  0
 24 69  1  0  0  0  0
 25 10  1  0  0  0  0
 27 10  1  0  0  0  0
 29 11  1  0  0  0  0
 32 12  1  0  0  0  0
 34 13  1  0  0  0  0
 36 13  1  0  0  0  0
 38 14  1  0  0  0  0
 40 15  1  0  0  0  0
 42 15  1  0  0  0  0
 43 16  1  0  0  0  0
 44 16  1  0  0  0  0
 46 17  1  0  0  0  0
 47 17  1  0  0  0  0
 48 17  1  0  0  0  0
 50 18  1  0  0  0  0
 51 18  1  0  0  0  0
 52 19  1  0  0  0  0
 53 19  1  0  0  0  0
 54 19  1  0  0  0  0
 55 20  1  0  0  0  0
 56 20  1  0  0  0  0
 58 21  1  0  0  0  0
 60 21  1  0  0  0  0
 63 22  1  0  0  0  0
 65 23  1  0  0  0  0
 66 23  1  0  0  0  0
 67 24  1  0  0  0  0
 68 24  1  0  0  0  0
M  END
$$$$
