CSD_code = LIPMAY | q = 0 | S = 0 | Stoichiometry = C19H25Cl2N3Ru | MND = 6
 OpenBabel04212202063D

 50 53  0  0  1  0  0  0  0  0999 V2000
    6.4911    3.6614    3.4730 Ru  0  0  0  0  0  0  0  0  0  0  0  0
    4.7901    2.4803    2.2393 Cl  0  0  0  0  0  0  0  0  0  0  0  0
    6.9127    1.6765    4.6824 Cl  0  0  0  0  0  0  0  0  0  0  0  0
    4.8583    4.4492    4.6494 N   0  0  0  0  0  4  0  0  0  0  0  0
    5.9960    5.0940    2.3211 N   0  0  0  0  0  0  0  0  0  0  0  0
    7.9565    3.3003    1.9178 N   0  0  0  0  0  4  0  0  0  0  0  0
    7.7644    4.6315    4.4100 C   0  0  0  0  0  2  0  0  0  0  0  0
    8.6305    5.3372    5.0841 C   0  0  0  0  0  3  0  0  0  0  0  0
    9.2526    4.9370    6.3442 C   0  0  0  0  0  0  0  0  0  0  0  0
    8.9958    3.6762    6.8876 C   0  0  0  0  0  0  0  0  0  0  0  0
    9.5739    3.3102    8.0862 C   0  0  0  0  0  0  0  0  0  0  0  0
   10.4128    4.1861    8.7591 C   0  0  0  0  0  0  0  0  0  0  0  0
   10.6740    5.4355    8.2222 C   0  0  0  0  0  0  0  0  0  0  0  0
   10.0994    5.8115    7.0224 C   0  0  0  0  0  0  0  0  0  0  0  0
    5.2408    5.4540    5.6430 C   0  0  0  0  0  0  0  0  0  0  0  0
    4.1264    3.3796    5.3296 C   0  0  0  0  0  0  0  0  0  0  0  0
    4.0019    5.0928    3.6266 C   0  0  0  0  0  0  0  0  0  0  0  0
    4.8059    5.6694    2.4922 C   0  0  2  0  0  3  0  0  0  0  0  0
    4.3670    6.6362    1.6025 C   0  0  0  0  0  0  0  0  0  0  0  0
    5.1706    6.9588    0.5150 C   0  0  0  0  0  0  0  0  0  0  0  0
    6.3906    6.3158    0.3420 C   0  0  0  0  0  0  0  0  0  0  0  0
    6.7854    5.3804    1.2838 C   0  0  0  0  0  0  0  0  0  0  0  0
    8.1012    4.6426    1.3091 C   0  0  0  0  0  0  0  0  0  0  0  0
    7.5016    2.3579    0.8951 C   0  0  0  0  0  0  0  0  0  0  0  0
    9.2410    2.8194    2.4292 C   0  0  0  0  0  0  0  0  0  0  0  0
    8.9186    6.3185    4.7120 H   0  0  0  0  0  0  0  0  0  0  0  0
    8.3480    2.9938    6.3546 H   0  0  0  0  0  0  0  0  0  0  0  0
    9.3698    2.3331    8.4983 H   0  0  0  0  0  0  0  0  0  0  0  0
   10.8630    3.8956    9.6971 H   0  0  0  0  0  0  0  0  0  0  0  0
   11.3290    6.1218    8.7402 H   0  0  0  0  0  0  0  0  0  0  0  0
   10.3070    6.7900    6.6097 H   0  0  0  0  0  0  0  0  0  0  0  0
    4.3535    5.8246    6.1721 H   0  0  0  0  0  0  0  0  0  0  0  0
    5.7397    6.2921    5.1563 H   0  0  0  0  0  0  0  0  0  0  0  0
    5.9241    5.0108    6.3662 H   0  0  0  0  0  0  0  0  0  0  0  0
    4.7796    2.9287    6.0782 H   0  0  0  0  0  0  0  0  0  0  0  0
    3.8532    2.6075    4.6101 H   0  0  0  0  0  0  0  0  0  0  0  0
    3.2215    3.7643    5.8153 H   0  0  0  0  0  0  0  0  0  0  0  0
    3.3803    4.3074    3.1769 H   0  0  0  0  0  0  0  0  0  0  0  0
    3.3444    5.8457    4.0811 H   0  0  0  0  0  0  0  0  0  0  0  0
    3.4094    7.1122    1.7424 H   0  0  0  0  0  0  0  0  0  0  0  0
    4.8419    7.6961   -0.2002 H   0  0  0  0  0  0  0  0  0  0  0  0
    7.0173    6.5369   -0.5075 H   0  0  0  0  0  0  0  0  0  0  0  0
    8.5354    4.5707    0.3025 H   0  0  0  0  0  0  0  0  0  0  0  0
    8.7857    5.2217    1.9437 H   0  0  0  0  0  0  0  0  0  0  0  0
    6.5915    2.7224    0.4193 H   0  0  0  0  0  0  0  0  0  0  0  0
    7.2839    1.3977    1.3631 H   0  0  0  0  0  0  0  0  0  0  0  0
    8.2753    2.2177    0.1291 H   0  0  0  0  0  0  0  0  0  0  0  0
    9.6341    3.5113    3.1727 H   0  0  0  0  0  0  0  0  0  0  0  0
    9.9683    2.6990    1.6174 H   0  0  0  0  0  0  0  0  0  0  0  0
    9.0793    1.8583    2.9188 H   0  0  0  0  0  0  0  0  0  0  0  0
  1  7  1  0  0  0  0
  1  4  1  0  0  0  0
  1  3  1  0  0  0  0
  2  1  1  0  0  0  0
  4 16  1  0  0  0  0
  4 15  1  0  0  0  0
  5 18  1  0  0  0  0
  5  1  1  0  0  0  0
  6 25  1  0  0  0  0
  6  1  1  0  0  0  0
  7  8  1  0  0  0  0
  8  9  1  0  0  0  0
  9 10  2  0  0  0  0
  9 14  1  0  0  0  0
 10 11  1  0  0  0  0
 11 28  1  0  0  0  0
 11 12  2  0  0  0  0
 12 29  1  0  0  0  0
 13 30  1  0  0  0  0
 13 12  1  0  0  0  0
 14 13  2  0  0  0  0
 15 32  1  0  0  0  0
 15 34  1  0  0  0  0
 16 37  1  0  0  0  0
 16 35  1  0  0  0  0
 17 39  1  0  0  0  0
 17  4  1  0  0  0  0
 18 19  1  6  0  0  0
 18 17  1  0  0  0  0
 19 40  1  0  0  0  0
 20 19  2  0  0  0  0
 21 20  1  0  0  0  0
 21 22  2  0  0  0  0
 22 23  1  0  0  0  0
 22  5  1  0  0  0  0
 23  6  1  0  0  0  0
 23 44  1  0  0  0  0
 24 46  1  0  0  0  0
 24  6  1  0  0  0  0
 25 50  1  0  0  0  0
 25 48  1  0  0  0  0
 26  8  1  0  0  0  0
 27 10  1  0  0  0  0
 31 14  1  0  0  0  0
 33 15  1  0  0  0  0
 36 16  1  0  0  0  0
 38 17  1  0  0  0  0
 41 20  1  0  0  0  0
 42 21  1  0  0  0  0
 43 23  1  0  0  0  0
 45 24  1  0  0  0  0
 47 24  1  0  0  0  0
 49 25  1  0  0  0  0
M  END
$$$$
