CSD_code = LIQNEG | q = 0 | S = 0 | Stoichiometry = C25H25ClN4OPd | MND = 4
 OpenBabel04212202063D

 57 60  0  0  0  0  0  0  0  0999 V2000
   10.2202    1.9976    2.0004 Pd  0  0  1  0  0  0  0  0  0  0  0  0
   12.4400    1.1023    1.9255 Cl  0  0  0  0  0  0  0  0  0  0  0  0
    9.5543    0.1883    2.6465 N   0  0  0  0  0  0  0  0  0  0  0  0
    8.3542    2.6331    2.3091 C   0  0  0  0  0  0  0  0  0  0  0  0
    8.0877    3.6761    2.9679 N   0  0  0  0  0  2  0  0  0  0  0  0
    7.2715    1.7874    1.8052 C   0  0  0  0  0  0  0  0  0  0  0  0
    7.2744    0.3893    1.9608 C   0  0  0  0  0  0  0  0  0  0  0  0
    6.2310   -0.3613    1.4241 C   0  0  0  0  0  0  0  0  0  0  0  0
    6.2445   -1.4374    1.5183 H   0  0  0  0  0  0  0  0  0  0  0  0
    5.2004    0.2494    0.7351 C   0  0  0  0  0  0  0  0  0  0  0  0
    4.4082   -0.3495    0.3120 H   0  0  0  0  0  0  0  0  0  0  0  0
    5.1888    1.6284    0.5894 C   0  0  0  0  0  0  0  0  0  0  0  0
    4.3792    2.1092    0.0609 H   0  0  0  0  0  0  0  0  0  0  0  0
    6.2105    2.3872    1.1238 C   0  0  0  0  0  0  0  0  0  0  0  0
    6.2097    3.4615    1.0212 H   0  0  0  0  0  0  0  0  0  0  0  0
    8.3559   -0.2926    2.6862 C   0  0  0  0  0  0  0  0  0  0  0  0
    8.0862   -1.4590    3.3235 N   0  0  0  0  0  0  0  0  0  0  0  0
    7.1427   -1.7020    3.5603 H   0  0  0  0  0  0  0  0  0  0  0  0
    8.8398   -1.8558    3.8624 H   0  0  0  0  0  0  0  0  0  0  0  0
   10.5101   -0.5387    3.3742 O   0  0  0  0  0  0  0  0  0  0  0  0
   11.3794   -0.1945    3.0135 H   0  0  0  0  0  0  0  0  0  0  0  0
   10.9166    3.6579    1.4055 C   0  0  0  0  0  2  0  0  0  0  0  0
   11.6080    4.5786    1.2140 N   0  0  0  0  0  2  0  0  0  0  0  0
   12.4818    5.6120    1.1336 C   0  0  0  0  0  0  0  0  0  0  0  0
   12.1895    6.6990    0.3032 C   0  0  0  0  0  0  0  0  0  0  0  0
   13.1010    7.7409    0.2549 C   0  0  0  0  0  0  0  0  0  0  0  0
   12.8984    8.5919   -0.3785 H   0  0  0  0  0  0  0  0  0  0  0  0
   14.2631    7.6993    1.0067 C   0  0  0  0  0  0  0  0  0  0  0  0
   14.9632    8.5197    0.9565 H   0  0  0  0  0  0  0  0  0  0  0  0
   14.5344    6.6128    1.8206 C   0  0  0  0  0  0  0  0  0  0  0  0
   15.4443    6.5886    2.4015 H   0  0  0  0  0  0  0  0  0  0  0  0
   13.6531    5.5464    1.9013 C   0  0  0  0  0  0  0  0  0  0  0  0
   10.9208    6.7128   -0.4888 C   0  0  0  0  0  0  0  0  0  0  0  0
   10.8870    7.5759   -1.1481 H   0  0  0  0  0  0  0  0  0  0  0  0
   10.0641    6.7480    0.1830 H   0  0  0  0  0  0  0  0  0  0  0  0
   10.8328    5.8068   -1.0881 H   0  0  0  0  0  0  0  0  0  0  0  0
   13.9088    4.3618    2.7716 C   0  0  0  0  0  0  0  0  0  0  0  0
   14.8517    4.4639    3.3012 H   0  0  0  0  0  0  0  0  0  0  0  0
   13.9358    3.4458    2.1810 H   0  0  0  0  0  0  0  0  0  0  0  0
   13.1009    4.2475    3.4956 H   0  0  0  0  0  0  0  0  0  0  0  0
    9.0476    4.5836    3.3934 C   0  0  0  0  0  0  0  0  0  0  0  0
    8.9361    5.8932    2.8966 C   0  0  0  0  0  0  0  0  0  0  0  0
    9.8624    6.8461    3.2778 C   0  0  0  0  0  0  0  0  0  0  0  0
    9.7932    7.8473    2.8766 H   0  0  0  0  0  0  0  0  0  0  0  0
   10.8707    6.5314    4.1739 C   0  0  0  0  0  0  0  0  0  0  0  0
   11.5881    7.2830    4.4673 H   0  0  0  0  0  0  0  0  0  0  0  0
   10.9479    5.2555    4.6977 C   0  0  0  0  0  0  0  0  0  0  0  0
   11.7165    5.0190    5.4205 H   0  0  0  0  0  0  0  0  0  0  0  0
   10.0604    4.2579    4.3100 C   0  0  0  0  0  0  0  0  0  0  0  0
    7.8313    6.2093    1.9339 C   0  0  0  0  0  0  0  0  0  0  0  0
    7.8055    7.2721    1.7051 H   0  0  0  0  0  0  0  0  0  0  0  0
    6.8754    5.9117    2.3621 H   0  0  0  0  0  0  0  0  0  0  0  0
    7.9631    5.6483    1.0076 H   0  0  0  0  0  0  0  0  0  0  0  0
   10.1962    2.8806    4.9091 C   0  0  0  0  0  0  0  0  0  0  0  0
    9.2461    2.3410    4.8749 H   0  0  0  0  0  0  0  0  0  0  0  0
   10.5099    2.9590    5.9493 H   0  0  0  0  0  0  0  0  0  0  0  0
   10.9738    2.2980    4.3782 H   0  0  0  0  0  0  0  0  0  0  0  0
  1  2  1  1  0  0  0
  1  4  1  0  0  0  0
  1  3  1  0  0  0  0
  3 16  1  0  0  0  0
  3 20  1  0  0  0  0
  4  5  1  0  0  0  0
  5 41  1  0  0  0  0
  6  7  1  0  0  0  0
  6  4  2  0  0  0  0
  7 16  2  0  0  0  0
  8  9  1  0  0  0  0
  8  7  1  0  0  0  0
 10  8  2  0  0  0  0
 11 10  1  0  0  0  0
 12 10  1  0  0  0  0
 12 14  2  0  0  0  0
 13 12  1  0  0  0  0
 14  6  1  0  0  0  0
 15 14  1  0  0  0  0
 16 17  1  0  0  0  0
 17 18  1  0  0  0  0
 17 19  1  0  0  0  0
 21 20  1  0  0  0  0
 22  1  1  0  0  0  0
 23 22  1  0  0  0  0
 24 23  1  0  0  0  0
 24 32  1  0  0  0  0
 25 24  2  0  0  0  0
 26 25  1  0  0  0  0
 26 28  2  0  0  0  0
 27 26  1  0  0  0  0
 28 30  1  0  0  0  0
 29 28  1  0  0  0  0
 30 32  2  0  0  0  0
 30 31  1  0  0  0  0
 32 37  1  0  0  0  0
 33 35  1  0  0  0  0
 33 25  1  0  0  0  0
 34 33  1  0  0  0  0
 36 33  1  0  0  0  0
 37 38  1  0  0  0  0
 37 40  1  0  0  0  0
 39 37  1  0  0  0  0
 41 49  1  0  0  0  0
 42 43  1  0  0  0  0
 42 41  2  0  0  0  0
 43 45  2  0  0  0  0
 44 43  1  0  0  0  0
 45 46  1  0  0  0  0
 45 47  1  0  0  0  0
 47 48  1  0  0  0  0
 49 47  2  0  0  0  0
 49 54  1  0  0  0  0
 50 52  1  0  0  0  0
 50 42  1  0  0  0  0
 51 50  1  0  0  0  0
 53 50  1  0  0  0  0
 54 56  1  0  0  0  0
 55 54  1  0  0  0  0
 57 54  1  0  0  0  0
M  END
$$$$
