CSD_code = LIQNAC | q = 0 | S = 0 | Stoichiometry = C28H28ClN2OPPd | MND = 4
 OpenBabel04212202063D

 62 66  0  0  0  0  0  0  0  0999 V2000
    6.3731    9.3830    4.0601 Pd  0  0  2  0  0  0  0  0  0  0  0  0
    7.4294    7.5826    5.1079 Cl  0  0  0  0  0  0  0  0  0  0  0  0
    8.1176   10.3689    4.0964 N   0  0  0  0  0  0  0  0  0  0  0  0
    9.3069    9.8240    4.5808 O   0  0  0  0  0  0  0  0  0  0  0  0
    9.0159    8.9231    4.8924 H   0  0  0  0  0  0  0  0  0  0  0  0
    4.4056    8.3605    4.0503 P   0  0  0  0  0  4  0  0  0  0  0  0
    5.7857   11.1150    3.2020 C   0  0  0  0  0  0  0  0  0  0  0  0
    6.8474   12.0447    3.1272 C   0  0  0  0  0  0  0  0  0  0  0  0
    6.6549   13.3216    2.6094 C   0  0  0  0  0  0  0  0  0  0  0  0
    7.4713   14.0302    2.5696 H   0  0  0  0  0  0  0  0  0  0  0  0
    5.4067   13.6981    2.1488 C   0  0  0  0  0  0  0  0  0  0  0  0
    5.2555   14.6901    1.7487 H   0  0  0  0  0  0  0  0  0  0  0  0
    4.3570   12.7977    2.2014 C   0  0  0  0  0  0  0  0  0  0  0  0
    3.3812   13.0867    1.8368 H   0  0  0  0  0  0  0  0  0  0  0  0
    4.5478   11.5254    2.7220 C   0  0  0  0  0  0  0  0  0  0  0  0
    3.7034   10.8449    2.7460 H   0  0  0  0  0  0  0  0  0  0  0  0
    8.1435   11.5697    3.6232 C   0  0  0  0  0  0  0  0  0  0  0  0
    9.2679   12.3304    3.6363 N   0  0  0  0  0  0  0  0  0  0  0  0
    9.3316   13.1377    3.0438 H   0  0  0  0  0  0  0  0  0  0  0  0
   10.1228   11.8516    3.8721 H   0  0  0  0  0  0  0  0  0  0  0  0
    4.2327    6.7629    4.8995 C   0  0  0  0  0  0  0  0  0  0  0  0
    3.6412    6.6291    6.1502 C   0  0  0  0  0  0  0  0  0  0  0  0
    3.2127    7.4925    6.6408 H   0  0  0  0  0  0  0  0  0  0  0  0
    3.6069    5.3927    6.7664 C   0  0  0  0  0  0  0  0  0  0  0  0
    3.1462    5.2939    7.7394 H   0  0  0  0  0  0  0  0  0  0  0  0
    4.1670    4.2733    6.1606 C   0  0  0  0  0  0  0  0  0  0  0  0
    4.7677    4.4189    4.9153 C   0  0  0  0  0  0  0  0  0  0  0  0
    5.2198    3.5621    4.4363 H   0  0  0  0  0  0  0  0  0  0  0  0
    4.8054    5.6492    4.2910 C   0  0  0  0  0  0  0  0  0  0  0  0
    5.2928    5.7629    3.3302 H   0  0  0  0  0  0  0  0  0  0  0  0
    4.1314    2.9460    6.8537 C   0  0  0  0  0  0  0  0  0  0  0  0
    3.1105    2.6874    7.1316 H   0  0  0  0  0  0  0  0  0  0  0  0
    4.7245    2.9847    7.7668 H   0  0  0  0  0  0  0  0  0  0  0  0
    4.5309    2.1617    6.2161 H   0  0  0  0  0  0  0  0  0  0  0  0
    3.2053    9.4152    4.9210 C   0  0  0  0  0  0  0  0  0  0  0  0
    3.7673   10.2539    5.8837 C   0  0  0  0  0  0  0  0  0  0  0  0
    4.8540   10.2345    6.0331 H   0  0  0  0  0  0  0  0  0  0  0  0
    2.9670   11.0962    6.6269 C   0  0  0  0  0  0  0  0  0  0  0  0
    3.4068   11.7419    7.3733 H   0  0  0  0  0  0  0  0  0  0  0  0
    1.5902   11.1303    6.4189 C   0  0  0  0  0  0  0  0  0  0  0  0
    1.0401   10.3005    5.4504 C   0  0  0  0  0  0  0  0  0  0  0  0
   -0.0262   10.3231    5.2741 H   0  0  0  0  0  0  0  0  0  0  0  0
    1.8350    9.4457    4.7064 C   0  0  0  0  0  0  0  0  0  0  0  0
    1.3884    8.8157    3.9513 H   0  0  0  0  0  0  0  0  0  0  0  0
    0.7320   12.0665    7.2124 C   0  0  0  0  0  0  0  0  0  0  0  0
    0.8647   13.0869    6.8523 H   0  0  0  0  0  0  0  0  0  0  0  0
    1.0119   12.0467    8.2637 H   0  0  0  0  0  0  0  0  0  0  0  0
   -0.3195   11.8061    7.1216 H   0  0  0  0  0  0  0  0  0  0  0  0
    3.7595    7.9510    2.4031 C   0  0  0  0  0  0  0  0  0  0  0  0
    4.5047    8.3760    1.3079 C   0  0  0  0  0  0  0  0  0  0  0  0
    5.4191    8.9468    1.4848 H   0  0  0  0  0  0  0  0  0  0  0  0
    4.0966    8.0646    0.0245 C   0  0  0  0  0  0  0  0  0  0  0  0
    4.6816    8.3978   -0.8208 H   0  0  0  0  0  0  0  0  0  0  0  0
    2.9444    7.3177   -0.1904 C   0  0  0  0  0  0  0  0  0  0  0  0
    2.2193    6.8728    0.9117 C   0  0  0  0  0  0  0  0  0  0  0  0
    1.3340    6.2726    0.7551 H   0  0  0  0  0  0  0  0  0  0  0  0
    2.6223    7.1756    2.1973 C   0  0  0  0  0  0  0  0  0  0  0  0
    2.0704    6.7917    3.0445 H   0  0  0  0  0  0  0  0  0  0  0  0
    2.4833    6.9878   -1.5763 C   0  0  0  0  0  0  0  0  0  0  0  0
    1.6008    7.5771   -1.8260 H   0  0  0  0  0  0  0  0  0  0  0  0
    2.2122    5.9363   -1.6509 H   0  0  0  0  0  0  0  0  0  0  0  0
    3.2577    7.2048   -2.3073 H   0  0  0  0  0  0  0  0  0  0  0  0
  1  3  1  0  0  0  0
  1  2  1  6  0  0  0
  3  4  1  0  0  0  0
  4  5  1  0  0  0  0
  6  1  1  0  0  0  0
  6 21  1  0  0  0  0
  6 35  1  0  0  0  0
  7  1  2  0  0  0  0
  8  7  1  0  0  0  0
  8 17  2  0  0  0  0
  9  8  1  0  0  0  0
 10  9  1  0  0  0  0
 11 13  1  0  0  0  0
 11  9  2  0  0  0  0
 12 11  1  0  0  0  0
 13 15  2  0  0  0  0
 14 13  1  0  0  0  0
 15 16  1  0  0  0  0
 15  7  1  0  0  0  0
 17 18  1  0  0  0  0
 17  3  1  0  0  0  0
 18 20  1  0  0  0  0
 19 18  1  0  0  0  0
 21 22  1  0  0  0  0
 22 23  1  0  0  0  0
 22 24  2  0  0  0  0
 24 25  1  0  0  0  0
 26 24  1  0  0  0  0
 26 31  1  0  0  0  0
 27 26  2  0  0  0  0
 28 27  1  0  0  0  0
 29 21  2  0  0  0  0
 29 27  1  0  0  0  0
 30 29  1  0  0  0  0
 31 32  1  0  0  0  0
 31 33  1  0  0  0  0
 34 31  1  0  0  0  0
 35 36  1  0  0  0  0
 36 37  1  0  0  0  0
 36 38  2  0  0  0  0
 38 39  1  0  0  0  0
 40 38  1  0  0  0  0
 40 45  1  0  0  0  0
 41 40  2  0  0  0  0
 42 41  1  0  0  0  0
 43 35  2  0  0  0  0
 43 41  1  0  0  0  0
 44 43  1  0  0  0  0
 45 47  1  0  0  0  0
 46 45  1  0  0  0  0
 48 45  1  0  0  0  0
 49  6  1  0  0  0  0
 50 51  1  0  0  0  0
 50 49  2  0  0  0  0
 52 50  1  0  0  0  0
 53 52  1  0  0  0  0
 54 52  2  0  0  0  0
 54 55  1  0  0  0  0
 55 57  2  0  0  0  0
 56 55  1  0  0  0  0
 57 49  1  0  0  0  0
 57 58  1  0  0  0  0
 59 54  1  0  0  0  0
 60 59  1  0  0  0  0
 61 59  1  0  0  0  0
 62 59  1  0  0  0  0
M  END
$$$$
