CSD_code = LIQSUA | q = 0 | S = 0 | Stoichiometry = C23H29AuClN2P | MND = 2
 OpenBabel04212202063D

 57 59  0  0  0  0  0  0  0  0999 V2000
   -4.1161    2.5845    9.8337 Au  0  0  0  0  0  0  0  0  0  0  0  0
   -4.4291    1.3091   11.6769 Cl  0  0  0  0  0  0  0  0  0  0  0  0
   -3.8311    3.7979    7.9633 P   0  0  0  0  0  4  0  0  0  0  0  0
   -2.4923    4.8388    7.7949 N   0  0  0  0  0  0  0  0  0  0  0  0
   -1.9346    4.7254    6.5667 N   0  0  0  0  0  0  0  0  0  0  0  0
   -1.8414    5.7831    8.5434 C   0  0  0  0  0  0  0  0  0  0  0  0
   -0.8359    6.2655    7.7421 C   0  0  0  0  0  0  0  0  0  0  0  0
   -0.1183    7.0187    7.9916 H   0  0  0  0  0  0  0  0  0  0  0  0
   -0.9330    5.5688    6.5174 C   0  0  0  0  0  0  0  0  0  0  0  0
   -2.2062    6.1630    9.9486 C   0  0  0  0  0  0  0  0  0  0  0  0
   -3.7220    6.3411   10.0731 C   0  0  0  0  0  0  0  0  0  0  0  0
   -4.2447    5.3981    9.9075 H   0  0  0  0  0  0  0  0  0  0  0  0
   -4.0841    7.0725    9.3518 H   0  0  0  0  0  0  0  0  0  0  0  0
   -3.9736    6.6869   11.0729 H   0  0  0  0  0  0  0  0  0  0  0  0
   -1.7177    5.0716   10.9093 C   0  0  0  0  0  0  0  0  0  0  0  0
   -2.1988    4.1163   10.6952 H   0  0  0  0  0  0  0  0  0  0  0  0
   -1.9527    5.3438   11.9351 H   0  0  0  0  0  0  0  0  0  0  0  0
   -0.6410    4.9423   10.8210 H   0  0  0  0  0  0  0  0  0  0  0  0
   -1.5240    7.4869   10.3126 C   0  0  0  0  0  0  0  0  0  0  0  0
   -0.4426    7.3809   10.3046 H   0  0  0  0  0  0  0  0  0  0  0  0
   -1.8263    7.7918   11.3114 H   0  0  0  0  0  0  0  0  0  0  0  0
   -1.8059    8.2706    9.6130 H   0  0  0  0  0  0  0  0  0  0  0  0
   -0.0936    5.7290    5.2832 C   0  0  0  0  0  0  0  0  0  0  0  0
   -0.3142    4.5307    4.3578 C   0  0  0  0  0  0  0  0  0  0  0  0
   -1.3662    4.4379    4.1034 H   0  0  0  0  0  0  0  0  0  0  0  0
   -0.0089    3.6116    4.8513 H   0  0  0  0  0  0  0  0  0  0  0  0
    0.2643    4.6491    3.4447 H   0  0  0  0  0  0  0  0  0  0  0  0
    1.3854    5.8209    5.6701 C   0  0  0  0  0  0  0  0  0  0  0  0
    1.6854    4.9422    6.2367 H   0  0  0  0  0  0  0  0  0  0  0  0
    1.5773    6.7041    6.2741 H   0  0  0  0  0  0  0  0  0  0  0  0
    1.9998    5.8801    4.7746 H   0  0  0  0  0  0  0  0  0  0  0  0
   -0.5243    7.0193    4.5730 C   0  0  0  0  0  0  0  0  0  0  0  0
   -1.5672    6.9538    4.2705 H   0  0  0  0  0  0  0  0  0  0  0  0
    0.0833    7.1782    3.6852 H   0  0  0  0  0  0  0  0  0  0  0  0
   -0.4080    7.8781    5.2308 H   0  0  0  0  0  0  0  0  0  0  0  0
   -3.5184    2.6786    6.5744 C   0  0  0  0  0  0  0  0  0  0  0  0
   -2.5260    1.7222    6.7751 C   0  0  0  0  0  0  0  0  0  0  0  0
   -1.9933    1.7006    7.7181 H   0  0  0  0  0  0  0  0  0  0  0  0
   -2.2254    0.8200    5.7750 C   0  0  0  0  0  0  0  0  0  0  0  0
   -1.4487    0.0851    5.9259 H   0  0  0  0  0  0  0  0  0  0  0  0
   -2.9308    0.8530    4.5815 C   0  0  0  0  0  0  0  0  0  0  0  0
   -2.6992    0.1451    3.7998 H   0  0  0  0  0  0  0  0  0  0  0  0
   -3.9374    1.7845    4.3936 C   0  0  0  0  0  0  0  0  0  0  0  0
   -4.4929    1.8010    3.4674 H   0  0  0  0  0  0  0  0  0  0  0  0
   -4.2383    2.6991    5.3882 C   0  0  0  0  0  0  0  0  0  0  0  0
   -5.0256    3.4245    5.2398 H   0  0  0  0  0  0  0  0  0  0  0  0
   -5.2224    4.8222    7.4138 C   0  0  0  0  0  0  0  0  0  0  0  0
   -6.4775    4.5679    7.9543 C   0  0  0  0  0  0  0  0  0  0  0  0
   -6.5885    3.7798    8.6890 H   0  0  0  0  0  0  0  0  0  0  0  0
   -7.5648    5.3233    7.5538 C   0  0  0  0  0  0  0  0  0  0  0  0
   -8.5403    5.1281    7.9734 H   0  0  0  0  0  0  0  0  0  0  0  0
   -7.3971    6.3355    6.6227 C   0  0  0  0  0  0  0  0  0  0  0  0
   -8.2444    6.9306    6.3167 H   0  0  0  0  0  0  0  0  0  0  0  0
   -6.1446    6.5913    6.0852 C   0  0  0  0  0  0  0  0  0  0  0  0
   -6.0186    7.3801    5.3582 H   0  0  0  0  0  0  0  0  0  0  0  0
   -5.0541    5.8369    6.4759 C   0  0  0  0  0  0  0  0  0  0  0  0
   -4.0761    6.0212    6.0532 H   0  0  0  0  0  0  0  0  0  0  0  0
  1  2  1  0  0  0  0
  3  1  1  0  0  0  0
  4  3  1  0  0  0  0
  4  6  1  0  0  0  0
  5  4  1  0  0  0  0
  6 10  1  0  0  0  0
  7  8  1  0  0  0  0
  7  6  2  0  0  0  0
  9  5  2  0  0  0  0
  9  7  1  0  0  0  0
 10 11  1  0  0  0  0
 10 19  1  0  0  0  0
 10 15  1  0  0  0  0
 11 14  1  0  0  0  0
 12 11  1  0  0  0  0
 13 11  1  0  0  0  0
 15 17  1  0  0  0  0
 16 15  1  0  0  0  0
 18 15  1  0  0  0  0
 19 21  1  0  0  0  0
 20 19  1  0  0  0  0
 22 19  1  0  0  0  0
 23 28  1  0  0  0  0
 23  9  1  0  0  0  0
 24 26  1  0  0  0  0
 24 23  1  0  0  0  0
 25 24  1  0  0  0  0
 27 24  1  0  0  0  0
 28 29  1  0  0  0  0
 28 30  1  0  0  0  0
 31 28  1  0  0  0  0
 32 35  1  0  0  0  0
 32 23  1  0  0  0  0
 33 32  1  0  0  0  0
 34 32  1  0  0  0  0
 36 37  1  0  0  0  0
 36  3  1  0  0  0  0
 37 38  1  0  0  0  0
 39 40  1  0  0  0  0
 39 37  2  0  0  0  0
 41 39  1  0  0  0  0
 42 41  1  0  0  0  0
 43 41  2  0  0  0  0
 43 45  1  0  0  0  0
 44 43  1  0  0  0  0
 45 36  2  0  0  0  0
 46 45  1  0  0  0  0
 47 48  1  0  0  0  0
 47  3  1  0  0  0  0
 48 49  1  0  0  0  0
 50 48  2  0  0  0  0
 50 51  1  0  0  0  0
 52 50  1  0  0  0  0
 53 52  1  0  0  0  0
 54 56  1  0  0  0  0
 54 52  2  0  0  0  0
 55 54  1  0  0  0  0
 56 47  2  0  0  0  0
 57 56  1  0  0  0  0
M  END
$$$$
