CSD_code = LIQXUF | q = 0 | S = 0 | Stoichiometry = C21H14ClN2O3Re | MND = 6
 OpenBabel04212202063D

 42 45  0  0  0  0  0  0  0  0999 V2000
   -5.2870    5.8457    4.8279 Re  0  0  0  0  0  0  0  0  0  0  0  0
   -4.7062    6.2753    7.0962 Cl  0  0  0  0  0  0  0  0  0  0  0  0
   -5.8576    5.4583    1.8144 O   0  0  0  0  0  1  0  0  0  0  0  0
   -8.0818    6.9052    5.6113 O   0  0  0  0  0  1  0  0  0  0  0  0
   -5.9247    2.9503    5.6985 O   0  0  0  0  0  1  0  0  0  0  0  0
   -4.4196    7.7991    4.5966 N   0  0  0  0  0  0  0  0  0  0  0  0
   -3.1963    5.4585    4.6874 N   0  0  0  0  0  0  0  0  0  0  0  0
   -5.6639    5.5956    2.9395 C   0  0  0  0  0  2  0  0  0  0  0  0
   -7.0846    6.4735    5.2575 C   0  0  0  0  0  2  0  0  0  0  0  0
   -5.7465    4.0137    5.3205 C   0  0  0  0  0  2  0  0  0  0  0  0
   -5.0502    8.9660    4.5475 C   0  0  0  0  0  3  0  0  0  0  0  0
   -6.1236    8.9282    4.4133 H   0  0  0  0  0  0  0  0  0  0  0  0
   -4.3987   10.1820    4.6627 C   0  0  0  0  0  0  0  0  0  0  0  0
   -4.9639   11.0992    4.6263 H   0  0  0  0  0  0  0  0  0  0  0  0
   -3.0201   10.1955    4.8342 C   0  0  0  0  0  0  0  0  0  0  0  0
   -2.4847   11.1269    4.9367 H   0  0  0  0  0  0  0  0  0  0  0  0
   -2.3508    8.9894    4.8730 C   0  0  0  0  0  0  0  0  0  0  0  0
   -1.2809    8.9437    5.0060 H   0  0  0  0  0  0  0  0  0  0  0  0
   -3.0797    7.8044    4.7557 C   0  0  0  0  0  0  0  0  0  0  0  0
   -2.4556    6.5066    4.7974 C   0  0  0  0  0  3  0  0  0  0  0  0
   -1.3746    6.4457    4.9003 H   0  0  0  0  0  0  0  0  0  0  0  0
   -2.6177    4.1909    4.7751 C   0  0  0  0  0  0  0  0  0  0  0  0
   -1.6163    3.9076    5.7047 C   0  0  0  0  0  0  0  0  0  0  0  0
   -1.2970    4.6714    6.3994 H   0  0  0  0  0  0  0  0  0  0  0  0
   -1.0926    2.6348    5.7928 C   0  0  0  0  0  0  0  0  0  0  0  0
   -0.3470    2.4193    6.5436 H   0  0  0  0  0  0  0  0  0  0  0  0
   -1.5377    1.6159    4.9523 C   0  0  0  0  0  0  0  0  0  0  0  0
   -2.5392    1.9078    4.0246 C   0  0  0  0  0  0  0  0  0  0  0  0
   -2.8876    1.1354    3.3559 H   0  0  0  0  0  0  0  0  0  0  0  0
   -3.0807    3.1711    3.9402 C   0  0  0  0  0  0  0  0  0  0  0  0
   -3.8552    3.3928    3.2186 H   0  0  0  0  0  0  0  0  0  0  0  0
   -0.9767    0.2624    5.0526 C   0  0  0  0  0  0  0  0  0  0  0  0
    0.3909    0.0728    5.2410 C   0  0  0  0  0  0  0  0  0  0  0  0
    1.0463    0.9303    5.2925 H   0  0  0  0  0  0  0  0  0  0  0  0
    0.9175   -1.2019    5.3329 C   0  0  0  0  0  0  0  0  0  0  0  0
    1.9806   -1.3348    5.4719 H   0  0  0  0  0  0  0  0  0  0  0  0
    0.0864   -2.3064    5.2468 C   0  0  0  0  0  0  0  0  0  0  0  0
    0.4984   -3.3017    5.3229 H   0  0  0  0  0  0  0  0  0  0  0  0
   -1.2750   -2.1289    5.0639 C   0  0  0  0  0  0  0  0  0  0  0  0
   -1.9279   -2.9870    5.0014 H   0  0  0  0  0  0  0  0  0  0  0  0
   -1.8034   -0.8557    4.9632 C   0  0  0  0  0  0  0  0  0  0  0  0
   -2.8681   -0.7220    4.8402 H   0  0  0  0  0  0  0  0  0  0  0  0
  1  9  1  0  0  0  0
  1 10  1  0  0  0  0
  1  2  1  0  0  0  0
  3  8  1  0  0  0  0
  6 19  1  0  0  0  0
  6  1  1  0  0  0  0
  7 22  1  0  0  0  0
  7 20  1  0  0  0  0
  7  1  1  0  0  0  0
  8  1  1  0  0  0  0
  9  4  1  0  0  0  0
 10  5  1  0  0  0  0
 11  6  1  0  0  0  0
 11 13  1  0  0  0  0
 12 11  1  0  0  0  0
 13 15  2  0  0  0  0
 14 13  1  0  0  0  0
 15 17  1  0  0  0  0
 15 16  1  0  0  0  0
 17 18  1  0  0  0  0
 19 20  1  0  0  0  0
 19 17  2  0  0  0  0
 20 21  1  0  0  0  0
 22 23  1  0  0  0  0
 23 25  2  0  0  0  0
 23 24  1  0  0  0  0
 25 26  1  0  0  0  0
 27 32  1  0  0  0  0
 27 25  1  0  0  0  0
 28 27  2  0  0  0  0
 29 28  1  0  0  0  0
 30 28  1  0  0  0  0
 30 22  2  0  0  0  0
 31 30  1  0  0  0  0
 32 33  1  0  0  0  0
 33 34  1  0  0  0  0
 33 35  2  0  0  0  0
 35 36  1  0  0  0  0
 37 38  1  0  0  0  0
 37 35  1  0  0  0  0
 39 37  2  0  0  0  0
 40 39  1  0  0  0  0
 41 32  2  0  0  0  0
 41 39  1  0  0  0  0
 42 41  1  0  0  0  0
M  END
$$$$
