CSD_code = LIRDUM | q = 0 | S = 0 | Stoichiometry = C9H7ClFeO4 | MND = 8
 OpenBabel04212202063D

 22 22  0  0  1  0  0  0  0  0999 V2000
    4.6272    4.9589    6.8150 Fe  0  0  0  0  0  0  0  0  0  0  0  0
    2.8929    3.9946    7.5058 Cl  0  0  0  0  0  0  0  0  0  0  0  0
    4.5523    7.1526    8.6897 O   0  0  0  0  0  1  0  0  0  0  0  0
    6.4223    3.7663    8.7347 O   0  0  0  0  0  1  0  0  0  0  0  0
    2.2489    7.1852    3.9080 O   0  0  0  0  0  0  0  0  0  0  0  0
    3.8113    8.3762    5.0061 O   0  0  0  0  0  0  0  0  0  0  0  0
    4.5619    6.2988    7.9352 C   0  0  0  0  0  2  0  0  0  0  0  0
    5.7176    4.2110    7.9553 C   0  0  0  0  0  2  0  0  0  0  0  0
    5.5589    6.1449    5.1616 C   0  0  1  0  0  0  0  0  0  0  0  0
    6.1248    7.0476    5.3184 H   0  0  0  0  0  0  0  0  0  0  0  0
    6.0864    4.8323    5.0739 C   0  0  0  0  0  0  0  0  0  0  0  0
    7.1231    4.5650    5.1965 H   0  0  0  0  0  0  0  0  0  0  0  0
    5.0547    3.9693    4.6333 C   0  0  0  0  0  0  0  0  0  0  0  0
    5.1606    2.9242    4.3982 H   0  0  0  0  0  0  0  0  0  0  0  0
    3.9000    4.7480    4.4130 C   0  0  0  0  0  0  0  0  0  0  0  0
    2.9560    4.4023    4.0270 H   0  0  0  0  0  0  0  0  0  0  0  0
    4.1995    6.0988    4.7208 C   0  0  0  0  0  0  0  0  0  0  0  0
    3.3018    7.2403    4.4925 C   0  0  0  0  0  0  0  0  0  0  0  0
    3.0195    9.5414    4.8261 C   0  0  0  0  0  0  0  0  0  0  0  0
    3.5435   10.3458    5.3355 H   0  0  0  0  0  0  0  0  0  0  0  0
    2.0272    9.3947    5.2573 H   0  0  0  0  0  0  0  0  0  0  0  0
    2.9105    9.7660    3.7630 H   0  0  0  0  0  0  0  0  0  0  0  0
  1  2  1  0  0  0  0
  1  7  1  0  0  0  0
  1  8  1  0  0  0  0
  5 18  2  0  0  0  0
  7  3  1  0  0  0  0
  8  4  1  0  0  0  0
  9 10  1  1  0  0  0
  9  1  1  0  0  0  0
 11  9  1  0  0  0  0
 11 12  1  0  0  0  0
 13 11  2  0  0  0  0
 14 13  1  0  0  0  0
 15 13  1  0  0  0  0
 15 17  2  0  0  0  0
 16 15  1  0  0  0  0
 17  9  1  0  0  0  0
 18 17  1  0  0  0  0
 18  6  1  0  0  0  0
 19  6  1  0  0  0  0
 19 21  1  0  0  0  0
 19 20  1  0  0  0  0
 22 19  1  0  0  0  0
M  END
$$$$
