CSD_code = LIRDAT | q = 0 | S = 0 | Stoichiometry = C12H11ClN3O5ReS | MND = 6
 OpenBabel04212202063D

 34 35  0  0  1  0  0  0  0  0999 V2000
    2.8546    9.7173    1.3198 Re  0  0  0  0  0  0  0  0  0  0  0  0
    3.5008   11.3204   -0.6081 S   0  0  0  0  0  0  0  0  0  0  0  0
    1.4771   11.4869    2.0252 Cl  0  0  0  0  0  0  0  0  0  0  0  0
    1.0393    9.5891   -0.1014 N   0  0  0  0  0  0  0  0  0  0  0  0
   -1.7917    8.2120    2.1480 O   0  0  0  0  0  0  0  0  0  0  0  0
   -2.2376    7.9619    2.9669 H   0  0  0  0  0  0  0  0  0  0  0  0
    0.9236   10.6961   -0.8883 N   0  0  0  0  0  0  0  0  0  0  0  0
   -0.0105   10.9687   -1.1820 H   0  0  0  0  0  0  0  0  0  0  0  0
    1.6498   12.6152   -1.9167 N   0  0  0  0  0  0  0  0  0  0  0  0
    0.6986   12.9164   -2.0541 H   0  0  0  0  0  0  0  0  0  0  0  0
    2.3651   13.3189   -1.9985 H   0  0  0  0  0  0  0  0  0  0  0  0
    0.1154    7.6286    0.8519 C   0  0  0  0  0  0  0  0  0  0  0  0
    4.3242   10.3101    2.4405 C   0  0  0  0  0  2  0  0  0  0  0  0
   -0.6370    6.1815    2.6327 C   0  0  0  0  0  0  0  0  0  0  0  0
   -1.3100    5.9608    3.4479 H   0  0  0  0  0  0  0  0  0  0  0  0
    1.9341   11.5598   -1.1196 C   0  0  2  0  0  3  0  0  0  0  0  0
    0.4959    4.1863    3.1312 O   0  0  0  0  0  0  0  0  0  0  0  0
    1.2853    3.6851    2.8911 H   0  0  0  0  0  0  0  0  0  0  0  0
   -0.7928    7.3359    1.8844 C   0  0  0  0  0  0  0  0  0  0  0  0
   -0.0075    8.8592    0.0713 C   0  0  2  0  0  3  0  0  0  0  0  0
    2.1983    8.5679    2.7380 C   0  0  0  0  0  2  0  0  0  0  0  0
    3.9185    8.3297    0.4890 C   0  0  0  0  0  2  0  0  0  0  0  0
    1.8123    7.9317    3.6145 O   0  0  0  0  0  1  0  0  0  0  0  0
    1.2864    5.5661    1.3280 C   0  0  0  0  0  0  0  0  0  0  0  0
    2.0902    4.8798    1.1065 H   0  0  0  0  0  0  0  0  0  0  0  0
    5.1503   10.7749    3.0794 O   0  0  0  0  0  1  0  0  0  0  0  0
    1.1455    6.7235    0.5943 C   0  0  0  0  0  0  0  0  0  0  0  0
    1.8214    6.9230   -0.2220 H   0  0  0  0  0  0  0  0  0  0  0  0
    4.5500    7.5218   -0.0314 O   0  0  0  0  0  1  0  0  0  0  0  0
    0.4007    5.2953    2.3680 C   0  0  0  0  0  0  0  0  0  0  0  0
   -1.3523    9.1990   -0.5044 C   0  0  0  0  0  0  0  0  0  0  0  0
   -1.7282   10.1296   -0.0751 H   0  0  0  0  0  0  0  0  0  0  0  0
   -2.0630    8.4149   -0.2682 H   0  0  0  0  0  0  0  0  0  0  0  0
   -1.2981    9.2955   -1.5911 H   0  0  0  0  0  0  0  0  0  0  0  0
  1  3  1  0  0  0  0
  1 13  1  0  0  0  0
  1 21  1  0  0  0  0
  2  1  1  0  0  0  0
  4 20  1  0  0  0  0
  4  1  1  0  0  0  0
  5  6  1  0  0  0  0
  7  4  1  0  0  0  0
  8  7  1  0  0  0  0
 10  9  1  0  0  0  0
 11  9  1  0  0  0  0
 12 19  1  0  0  0  0
 13 26  1  0  0  0  0
 14 15  1  0  0  0  0
 16  9  1  6  0  0  0
 16  7  1  0  0  0  0
 16  2  1  0  0  0  0
 18 17  1  0  0  0  0
 19  5  1  0  0  0  0
 19 14  2  0  0  0  0
 20 31  1  6  0  0  0
 20 12  1  0  0  0  0
 21 23  1  0  0  0  0
 22  1  1  0  0  0  0
 24 30  2  0  0  0  0
 25 24  1  0  0  0  0
 27 12  2  0  0  0  0
 27 24  1  0  0  0  0
 28 27  1  0  0  0  0
 29 22  1  0  0  0  0
 30 14  1  0  0  0  0
 30 17  1  0  0  0  0
 31 33  1  0  0  0  0
 31 32  1  0  0  0  0
 34 31  1  0  0  0  0
M  END
$$$$
