CSD_code = LIRDIZ | q = 0 | S = 0 | Stoichiometry = C19H21Cl3N2Ti | MND = 8
 OpenBabel04212202063D

 46 48  0  0  1  0  0  0  0  0999 V2000
    5.4606    6.8594    4.6668 Ti  0  0  0  0  0  0  0  0  0  0  0  0
    6.0475    8.3956    3.2891 Cl  0  0  0  0  0  0  0  0  0  0  0  0
    6.3772    7.4907    6.5906 Cl  0  0  0  0  0  0  0  0  0  0  0  0
    7.1038    5.3739    4.4888 Cl  0  0  0  0  0  0  0  0  0  0  0  0
    4.3177    5.5670    3.7719 N   0  0  0  0  0  0  0  0  0  0  0  0
    3.7431    7.3699    5.4342 N   0  0  0  0  0  0  0  0  0  0  0  0
    3.8037    3.2078    4.3264 C   0  0  0  0  0  0  0  0  0  0  0  0
    4.2795    2.9918    3.3724 H   0  0  0  0  0  0  0  0  0  0  0  0
    2.7539    2.9215    4.2726 H   0  0  0  0  0  0  0  0  0  0  0  0
    4.2754    2.6111    5.1046 H   0  0  0  0  0  0  0  0  0  0  0  0
    3.9462    4.6654    4.6703 C   0  0  2  0  0  3  0  0  0  0  0  0
    3.6473    5.0822    5.9767 C   0  0  0  0  0  3  0  0  0  0  0  0
    3.4050    4.3286    6.7129 H   0  0  0  0  0  0  0  0  0  0  0  0
    3.3628    6.4253    6.2784 C   0  0  2  0  0  3  0  0  0  0  0  0
    2.6044    6.7382    7.5387 C   0  0  0  0  0  0  0  0  0  0  0  0
    2.6639    7.8000    7.7673 H   0  0  0  0  0  0  0  0  0  0  0  0
    3.0303    6.1695    8.3627 H   0  0  0  0  0  0  0  0  0  0  0  0
    1.5568    6.4553    7.4397 H   0  0  0  0  0  0  0  0  0  0  0  0
    4.2437    5.3395    2.3936 C   0  0  0  0  0  0  0  0  0  0  0  0
    5.3303    5.6160    1.5626 C   0  0  0  0  0  0  0  0  0  0  0  0
    6.2680    5.9470    1.9943 H   0  0  0  0  0  0  0  0  0  0  0  0
    5.2194    5.4346    0.1966 C   0  0  0  0  0  0  0  0  0  0  0  0
    6.0724    5.6434   -0.4322 H   0  0  0  0  0  0  0  0  0  0  0  0
    4.0366    4.9890   -0.3811 C   0  0  0  0  0  0  0  0  0  0  0  0
    2.9532    4.7281    0.4516 C   0  0  0  0  0  0  0  0  0  0  0  0
    2.0215    4.3892    0.0217 H   0  0  0  0  0  0  0  0  0  0  0  0
    3.0493    4.8974    1.8175 C   0  0  0  0  0  0  0  0  0  0  0  0
    2.1940    4.7108    2.4521 H   0  0  0  0  0  0  0  0  0  0  0  0
    3.9143    4.8002   -1.8617 C   0  0  0  0  0  0  0  0  0  0  0  0
    4.8725    4.9459   -2.3528 H   0  0  0  0  0  0  0  0  0  0  0  0
    3.2019    5.5135   -2.2751 H   0  0  0  0  0  0  0  0  0  0  0  0
    3.5518    3.7992   -2.0902 H   0  0  0  0  0  0  0  0  0  0  0  0
    3.2029    8.6620    5.4497 C   0  0  0  0  0  0  0  0  0  0  0  0
    1.8239    8.8464    5.3395 C   0  0  0  0  0  0  0  0  0  0  0  0
    1.1792    7.9812    5.2687 H   0  0  0  0  0  0  0  0  0  0  0  0
    1.2904   10.1203    5.2924 C   0  0  0  0  0  0  0  0  0  0  0  0
    0.2207   10.2429    5.2015 H   0  0  0  0  0  0  0  0  0  0  0  0
    2.1085   11.2402    5.3578 C   0  0  0  0  0  0  0  0  0  0  0  0
    3.4833   11.0494    5.4681 C   0  0  0  0  0  0  0  0  0  0  0  0
    4.1331   11.9105    5.5226 H   0  0  0  0  0  0  0  0  0  0  0  0
    4.0330    9.7837    5.5093 C   0  0  0  0  0  0  0  0  0  0  0  0
    5.1041    9.6543    5.6143 H   0  0  0  0  0  0  0  0  0  0  0  0
    1.5396   12.6248    5.3155 C   0  0  0  0  0  0  0  0  0  0  0  0
    0.4627   12.6010    5.1710 H   0  0  0  0  0  0  0  0  0  0  0  0
    1.9890   13.1949    4.5041 H   0  0  0  0  0  0  0  0  0  0  0  0
    1.7536   13.1490    6.2463 H   0  0  0  0  0  0  0  0  0  0  0  0
  1  6  1  0  0  0  0
  1  3  1  0  0  0  0
  2  1  1  0  0  0  0
  4  1  1  0  0  0  0
  5  1  1  0  0  0  0
  5 11  1  0  0  0  0
  6 33  1  0  0  0  0
  6 14  1  0  0  0  0
  7 10  1  0  0  0  0
  8  7  1  0  0  0  0
  9  7  1  0  0  0  0
 11  7  1  6  0  0  0
 11 12  1  0  0  0  0
 12 14  1  0  0  0  0
 12 13  1  0  0  0  0
 14 15  1  6  0  0  0
 15 16  1  0  0  0  0
 15 17  1  0  0  0  0
 18 15  1  0  0  0  0
 19  5  1  0  0  0  0
 20 21  1  0  0  0  0
 20 19  2  0  0  0  0
 22 20  1  0  0  0  0
 23 22  1  0  0  0  0
 24 22  2  0  0  0  0
 24 25  1  0  0  0  0
 25 27  2  0  0  0  0
 26 25  1  0  0  0  0
 27 19  1  0  0  0  0
 27 28  1  0  0  0  0
 29 24  1  0  0  0  0
 30 29  1  0  0  0  0
 31 29  1  0  0  0  0
 32 29  1  0  0  0  0
 33 41  1  0  0  0  0
 34 33  2  0  0  0  0
 35 34  1  0  0  0  0
 36 34  1  0  0  0  0
 36 38  2  0  0  0  0
 37 36  1  0  0  0  0
 38 39  1  0  0  0  0
 39 41  2  0  0  0  0
 39 40  1  0  0  0  0
 41 42  1  0  0  0  0
 43 38  1  0  0  0  0
 43 46  1  0  0  0  0
 44 43  1  0  0  0  0
 45 43  1  0  0  0  0
M  END
$$$$
