CSD_code = LIRQAE | q = 0 | S = 0 | Stoichiometry = C6H9AuClNOS | MND = 2
 OpenBabel04212202063D

 20 20  0  0  0  0  0  0  0  0999 V2000
    5.1316    5.7507    0.5409 Au  0  0  0  0  0  0  0  0  0  0  0  0
    6.5835    4.2811   -0.3401 Cl  0  0  0  0  0  0  0  0  0  0  0  0
    3.6172    7.2796    1.5079 S   0  0  1  0  0  3  0  0  0  0  0  0
    2.4994    8.0018    4.6656 O   0  0  0  0  0  0  0  0  0  0  0  0
    1.4655    8.6693    5.2270 N   0  0  0  0  0  0  0  0  0  0  0  0
    2.0227    7.1538    3.7326 C   0  0  0  0  0  0  0  0  0  0  0  0
    0.6644    7.2732    3.6756 C   0  0  0  0  0  0  0  0  0  0  0  0
    0.3645    8.2564    4.6581 C   0  0  0  0  0  0  0  0  0  0  0  0
    2.9862    6.3359    2.9689 C   0  0  0  0  0  0  0  0  0  0  0  0
    4.6903    8.4712    2.3627 C   0  0  0  0  0  0  0  0  0  0  0  0
   -0.9659    8.7887    5.0328 C   0  0  0  0  0  0  0  0  0  0  0  0
   -0.0182    6.7469    3.0433 H   0  0  0  0  0  0  0  0  0  0  0  0
    3.8443    6.0607    3.5802 H   0  0  0  0  0  0  0  0  0  0  0  0
    2.5042    5.4506    2.5599 H   0  0  0  0  0  0  0  0  0  0  0  0
    5.1413    9.0927    1.5956 H   0  0  0  0  0  0  0  0  0  0  0  0
    4.0778    9.0783    3.0232 H   0  0  0  0  0  0  0  0  0  0  0  0
    5.4588    7.9492    2.9235 H   0  0  0  0  0  0  0  0  0  0  0  0
   -1.6367    7.9721    5.2917 H   0  0  0  0  0  0  0  0  0  0  0  0
   -1.3986    9.3313    4.1933 H   0  0  0  0  0  0  0  0  0  0  0  0
   -0.8648    9.4616    5.8787 H   0  0  0  0  0  0  0  0  0  0  0  0
  2  1  1  0  0  0  0
  3  1  1  6  0  0  0
  3 10  1  0  0  0  0
  3  9  1  0  0  0  0
  4  5  1  0  0  0  0
  6  4  1  0  0  0  0
  7  6  2  0  0  0  0
  7  8  1  0  0  0  0
  8 11  1  0  0  0  0
  8  5  2  0  0  0  0
  9 13  1  0  0  0  0
  9  6  1  0  0  0  0
 10 17  1  0  0  0  0
 10 16  1  0  0  0  0
 11 18  1  0  0  0  0
 11 20  1  0  0  0  0
 12  7  1  0  0  0  0
 14  9  1  0  0  0  0
 15 10  1  0  0  0  0
 19 11  1  0  0  0  0
M  END
$$$$
