CSD_code = LISCIZ | q = 0 | S = 0 | Stoichiometry = C22H27ClF2P2PdSi | MND = 4
 OpenBabel04212202063D

 56 58  0  0  0  0  0  0  0  0999 V2000
   -0.2704    2.0872    4.0680 Pd  0  0  0  0  0  0  0  0  0  0  0  0
    0.3673    0.0664    5.0910 Cl  0  0  0  0  0  0  0  0  0  0  0  0
    1.7301    2.0895    2.9865 P   0  0  0  0  0  4  0  0  0  0  0  0
   -2.1517    2.0998    5.3567 P   0  0  0  0  0  4  0  0  0  0  0  0
   -1.0488    3.8290    2.7710 Si  0  0  0  0  0  0  0  0  0  0  0  0
   -0.0638    4.8562    1.9570 F   0  0  0  0  0  0  0  0  0  0  0  0
   -2.0605    4.9986    3.3156 F   0  0  0  0  0  0  0  0  0  0  0  0
   -2.0276    2.8722    1.4309 C   0  0  0  0  0  0  0  0  0  0  0  0
   -2.0406    1.4782    1.4692 C   0  0  0  0  0  0  0  0  0  0  0  0
   -2.7405    0.7473    0.5263 C   0  0  0  0  0  0  0  0  0  0  0  0
   -3.4416    1.4018   -0.4739 C   0  0  0  0  0  0  0  0  0  0  0  0
   -3.4377    2.7854   -0.5255 C   0  0  0  0  0  0  0  0  0  0  0  0
   -2.7356    3.5119    0.4205 C   0  0  0  0  0  0  0  0  0  0  0  0
    1.7237    2.1681    1.1555 C   0  0  0  0  0  0  0  0  0  0  0  0
    2.9158    0.7302    3.2884 C   0  0  0  0  0  0  0  0  0  0  0  0
    2.6797    3.5494    3.5135 C   0  0  0  0  0  0  0  0  0  0  0  0
    3.8706    3.9374    2.9118 C   0  0  0  0  0  0  0  0  0  0  0  0
    4.5529    5.0451    3.3807 C   0  0  0  0  0  0  0  0  0  0  0  0
    4.0574    5.7662    4.4554 C   0  0  0  0  0  0  0  0  0  0  0  0
    2.8738    5.3809    5.0627 C   0  0  0  0  0  0  0  0  0  0  0  0
    2.1870    4.2771    4.5913 C   0  0  0  0  0  0  0  0  0  0  0  0
   -3.7998    2.6147    4.7506 C   0  0  0  0  0  0  0  0  0  0  0  0
   -2.5835    0.6297    6.3582 C   0  0  0  0  0  0  0  0  0  0  0  0
   -1.6803    3.3105    6.6304 C   0  0  0  0  0  0  0  0  0  0  0  0
   -0.3584    3.2233    7.0717 C   0  0  0  0  0  0  0  0  0  0  0  0
    0.1242    4.1180    8.0083 C   0  0  0  0  0  0  0  0  0  0  0  0
   -0.7058    5.1117    8.5041 C   0  0  0  0  0  0  0  0  0  0  0  0
   -2.0159    5.2035    8.0660 C   0  0  0  0  0  0  0  0  0  0  0  0
   -2.5063    4.3071    7.1312 C   0  0  0  0  0  0  0  0  0  0  0  0
   -1.4887    0.9403    2.2579 H   0  0  0  0  0  0  0  0  0  0  0  0
   -2.7420   -0.3329    0.5685 H   0  0  0  0  0  0  0  0  0  0  0  0
   -3.9896    0.8328   -1.2110 H   0  0  0  0  0  0  0  0  0  0  0  0
   -3.9836    3.2977   -1.3048 H   0  0  0  0  0  0  0  0  0  0  0  0
   -2.7326    4.5910    0.3811 H   0  0  0  0  0  0  0  0  0  0  0  0
    1.3104    3.1221    0.8371 H   0  0  0  0  0  0  0  0  0  0  0  0
    2.7305    2.0491    0.7581 H   0  0  0  0  0  0  0  0  0  0  0  0
    1.0906    1.3653    0.7744 H   0  0  0  0  0  0  0  0  0  0  0  0
    2.4877   -0.2009    2.9178 H   0  0  0  0  0  0  0  0  0  0  0  0
    3.8595    0.9391    2.7841 H   0  0  0  0  0  0  0  0  0  0  0  0
    3.0774    0.6284    4.3606 H   0  0  0  0  0  0  0  0  0  0  0  0
    4.2628    3.3813    2.0722 H   0  0  0  0  0  0  0  0  0  0  0  0
    5.4746    5.3491    2.9063 H   0  0  0  0  0  0  0  0  0  0  0  0
    4.5945    6.6307    4.8167 H   0  0  0  0  0  0  0  0  0  0  0  0
    2.4829    5.9426    5.8982 H   0  0  0  0  0  0  0  0  0  0  0  0
    1.2449    3.9745    5.0547 H   0  0  0  0  0  0  0  0  0  0  0  0
   -4.5359    2.5569    5.5517 H   0  0  0  0  0  0  0  0  0  0  0  0
   -3.7510    3.6262    4.3561 H   0  0  0  0  0  0  0  0  0  0  0  0
   -4.0958    1.9424    3.9445 H   0  0  0  0  0  0  0  0  0  0  0  0
   -3.3455    0.8949    7.0916 H   0  0  0  0  0  0  0  0  0  0  0  0
   -2.9557   -0.1512    5.6952 H   0  0  0  0  0  0  0  0  0  0  0  0
   -1.6894    0.2602    6.8575 H   0  0  0  0  0  0  0  0  0  0  0  0
    0.2848    2.4285    6.6856 H   0  0  0  0  0  0  0  0  0  0  0  0
    1.1471    4.0460    8.3484 H   0  0  0  0  0  0  0  0  0  0  0  0
   -0.3298    5.8170    9.2305 H   0  0  0  0  0  0  0  0  0  0  0  0
   -2.6600    5.9807    8.4509 H   0  0  0  0  0  0  0  0  0  0  0  0
   -3.5260    4.3939    6.7881 H   0  0  0  0  0  0  0  0  0  0  0  0
  1  2  1  0  0  0  0
  1  4  1  0  0  0  0
  3 15  1  0  0  0  0
  3 16  1  0  0  0  0
  3  1  1  0  0  0  0
  4 23  1  0  0  0  0
  4 24  1  0  0  0  0
  5  7  1  0  0  0  0
  5  1  1  0  0  0  0
  6  5  1  0  0  0  0
  8  9  1  0  0  0  0
  8  5  1  0  0  0  0
  9 30  1  0  0  0  0
 10 31  1  0  0  0  0
 10  9  2  0  0  0  0
 11 10  1  0  0  0  0
 12 11  2  0  0  0  0
 12 13  1  0  0  0  0
 13  8  2  0  0  0  0
 14  3  1  0  0  0  0
 15 40  1  0  0  0  0
 16 21  1  0  0  0  0
 17 18  1  0  0  0  0
 17 16  2  0  0  0  0
 18 19  2  0  0  0  0
 19 43  1  0  0  0  0
 19 20  1  0  0  0  0
 20 44  1  0  0  0  0
 21 45  1  0  0  0  0
 21 20  2  0  0  0  0
 22  4  1  0  0  0  0
 22 46  1  0  0  0  0
 23 51  1  0  0  0  0
 23 49  1  0  0  0  0
 24 25  2  0  0  0  0
 24 29  1  0  0  0  0
 25 26  1  0  0  0  0
 26 53  1  0  0  0  0
 26 27  2  0  0  0  0
 27 54  1  0  0  0  0
 28 55  1  0  0  0  0
 28 27  1  0  0  0  0
 29 28  2  0  0  0  0
 32 11  1  0  0  0  0
 33 12  1  0  0  0  0
 34 13  1  0  0  0  0
 35 14  1  0  0  0  0
 36 14  1  0  0  0  0
 37 14  1  0  0  0  0
 38 15  1  0  0  0  0
 39 15  1  0  0  0  0
 41 17  1  0  0  0  0
 42 18  1  0  0  0  0
 47 22  1  0  0  0  0
 48 22  1  0  0  0  0
 50 23  1  0  0  0  0
 52 25  1  0  0  0  0
 56 29  1  0  0  0  0
M  END
$$$$
