CSD_code = LISPOS | q = 0 | S = 0 | Stoichiometry = C22H27ClOZr | MND = 12
 OpenBabel04212202063D

 52 53  0  0  1  0  0  0  0  0999 V2000
    0.2291   14.0009    5.7460 Zr  0  0  0  0  0  0  0  0  0  0  0  0
    2.0852   13.9349    7.2038 Cl  0  0  0  0  0  0  0  0  0  0  0  0
   -0.6718   15.5413    6.2963 O   0  0  0  0  0  0  0  0  0  0  0  0
    0.3871   15.4333    3.6919 C   0  0  0  0  0  0  0  0  0  0  0  0
    0.1622   14.1107    3.2450 C   0  0  0  0  0  0  0  0  0  0  0  0
    1.3170   13.3482    3.5502 C   0  0  0  0  0  0  0  0  0  0  0  0
    2.2375   14.1921    4.1962 C   0  0  0  0  0  0  0  0  0  0  0  0
    1.6597   15.4777    4.3027 C   0  0  0  0  0  3  0  0  0  0  0  0
   -0.7090   11.7432    5.1352 C   0  0  0  0  0  0  0  0  0  0  0  0
    0.0828   11.5709    6.2889 C   0  0  2  0  0  0  0  0  0  0  0  0
   -0.5494   12.2524    7.3557 C   0  0  0  0  0  0  0  0  0  0  0  0
   -1.7236   12.8559    6.8568 C   0  0  0  0  0  0  0  0  0  0  0  0
   -1.8136   12.5563    5.4766 C   0  0  0  0  0  0  0  0  0  0  0  0
   -1.7086   15.9104    7.0596 C   0  0  0  0  0  0  0  0  0  0  0  0
   -1.5353   16.0735    8.4490 C   0  0  0  0  0  0  0  0  0  0  0  0
   -2.6038   16.5223    9.2068 C   0  0  0  0  0  0  0  0  0  0  0  0
   -3.8287   16.7932    8.6200 C   0  0  0  0  0  0  0  0  0  0  0  0
   -4.0039   16.6038    7.2621 C   0  0  0  0  0  0  0  0  0  0  0  0
   -2.9606   16.1551    6.4672 C   0  0  0  0  0  0  0  0  0  0  0  0
   -0.1758   15.7414    9.0197 C   0  0  0  0  0  0  0  0  0  0  0  0
    0.8544   16.7847    8.5641 C   0  0  0  0  0  0  0  0  0  0  0  0
   -0.1558   15.6112   10.5402 C   0  0  0  0  0  0  0  0  0  0  0  0
   -3.1101   15.9560    4.9756 C   0  0  0  0  0  0  0  0  0  0  0  0
   -2.9723   17.3057    4.2639 C   0  0  0  0  0  0  0  0  0  0  0  0
   -4.4304   15.2816    4.6019 C   0  0  0  0  0  0  0  0  0  0  0  0
   -0.2474   16.2882    3.4964 H   0  0  0  0  0  0  0  0  0  0  0  0
   -0.6695   13.7846    2.6300 H   0  0  0  0  0  0  0  0  0  0  0  0
    1.5226   12.3387    3.2144 H   0  0  0  0  0  0  0  0  0  0  0  0
    3.2490   13.9290    4.4804 H   0  0  0  0  0  0  0  0  0  0  0  0
    2.1551   16.3658    4.6796 H   0  0  0  0  0  0  0  0  0  0  0  0
   -0.5817   11.2232    4.1939 H   0  0  0  0  0  0  0  0  0  0  0  0
    0.9507   10.9276    6.3802 H   0  0  0  0  0  0  0  0  0  0  0  0
   -0.2432   12.2153    8.3948 H   0  0  0  0  0  0  0  0  0  0  0  0
   -2.4840   13.3505    7.4500 H   0  0  0  0  0  0  0  0  0  0  0  0
   -2.6640   12.7603    4.8381 H   0  0  0  0  0  0  0  0  0  0  0  0
   -2.4874   16.6666   10.2689 H   0  0  0  0  0  0  0  0  0  0  0  0
   -4.6487   17.1494    9.2253 H   0  0  0  0  0  0  0  0  0  0  0  0
   -4.9647   16.8111    6.8168 H   0  0  0  0  0  0  0  0  0  0  0  0
    0.1227   14.7700    8.5874 H   0  0  0  0  0  0  0  0  0  0  0  0
    1.8411   16.5155    8.9341 H   0  0  0  0  0  0  0  0  0  0  0  0
    0.8958   16.8254    7.4729 H   0  0  0  0  0  0  0  0  0  0  0  0
    0.5883   17.7688    8.9465 H   0  0  0  0  0  0  0  0  0  0  0  0
   -0.3271   16.5738   11.0170 H   0  0  0  0  0  0  0  0  0  0  0  0
   -0.9128   14.9079   10.8805 H   0  0  0  0  0  0  0  0  0  0  0  0
    0.8185   15.2462   10.8569 H   0  0  0  0  0  0  0  0  0  0  0  0
   -2.2804   15.3034    4.6489 H   0  0  0  0  0  0  0  0  0  0  0  0
   -2.0235   17.7711    4.5234 H   0  0  0  0  0  0  0  0  0  0  0  0
   -3.0201   17.1777    3.1840 H   0  0  0  0  0  0  0  0  0  0  0  0
   -3.7738   17.9749    4.5694 H   0  0  0  0  0  0  0  0  0  0  0  0
   -5.2697   15.9545    4.7567 H   0  0  0  0  0  0  0  0  0  0  0  0
   -4.4203   14.9972    3.5514 H   0  0  0  0  0  0  0  0  0  0  0  0
   -4.5907   14.3901    5.2046 H   0  0  0  0  0  0  0  0  0  0  0  0
  1 10  1  0  0  0  0
  1  3  1  0  0  0  0
  1  2  1  0  0  0  0
  3 14  1  0  0  0  0
  4  8  1  0  0  0  0
  5  6  1  0  0  0  0
  5  4  2  0  0  0  0
  6  7  2  0  0  0  0
  7  8  1  0  0  0  0
  7 29  1  0  0  0  0
  8 30  1  0  0  0  0
  9 13  2  0  0  0  0
  9 10  1  0  0  0  0
 10 32  1  1  0  0  0
 10 11  1  0  0  0  0
 11 33  1  0  0  0  0
 12 11  2  0  0  0  0
 12 34  1  0  0  0  0
 13 12  1  0  0  0  0
 14 15  1  0  0  0  0
 15 20  1  0  0  0  0
 15 16  2  0  0  0  0
 16 36  1  0  0  0  0
 17 16  1  0  0  0  0
 17 37  1  0  0  0  0
 18 17  2  0  0  0  0
 19 14  2  0  0  0  0
 19 18  1  0  0  0  0
 20 22  1  0  0  0  0
 21 40  1  0  0  0  0
 21 42  1  0  0  0  0
 21 20  1  0  0  0  0
 22 45  1  0  0  0  0
 22 44  1  0  0  0  0
 22 43  1  0  0  0  0
 23 19  1  0  0  0  0
 24 47  1  0  0  0  0
 24 49  1  0  0  0  0
 24 23  1  0  0  0  0
 25 50  1  0  0  0  0
 25 23  1  0  0  0  0
 25 52  1  0  0  0  0
 26  4  1  0  0  0  0
 27  5  1  0  0  0  0
 28  6  1  0  0  0  0
 31  9  1  0  0  0  0
 35 13  1  0  0  0  0
 38 18  1  0  0  0  0
 39 20  1  0  0  0  0
 41 21  1  0  0  0  0
 46 23  1  0  0  0  0
 48 24  1  0  0  0  0
 51 25  1  0  0  0  0
M  END
$$$$
