CSD_code = LISPUY | q = 0 | S = 0 | Stoichiometry = C16H15ClOZr | MND = 12
 OpenBabel04212202063D

 34 35  0  0  1  0  0  0  0  0999 V2000
   11.2647    1.9319    0.7393 Zr  0  0  0  0  0  0  0  0  0  0  0  0
   12.0075   -0.2567    0.3216 Cl  0  0  0  0  0  0  0  0  0  0  0  0
   10.7411    2.4626   -0.9972 O   0  0  0  0  0  0  0  0  0  0  0  0
   12.4671    3.8425    1.8349 C   0  0  0  0  0  0  0  0  0  0  0  0
   13.1557    2.6699    2.2300 C   0  0  0  0  0  3  0  0  0  0  0  0
   13.7578    2.1136    1.0819 C   0  0  0  0  0  0  0  0  0  0  0  0
   13.4280    2.9247   -0.0262 C   0  0  0  0  0  0  0  0  0  0  0  0
   12.6337    3.9986    0.4411 C   0  0  0  0  0  0  0  0  0  0  0  0
    9.1885    0.7696    1.4725 C   0  0  0  0  0  0  0  0  0  0  0  0
    8.7925    2.0885    1.1574 C   0  0  0  0  0  0  0  0  0  0  0  0
    9.4122    2.9630    2.0791 C   0  0  0  0  0  0  0  0  0  0  0  0
   10.1653    2.1783    2.9849 C   0  0  0  0  0  0  0  0  0  0  0  0
   10.0407    0.8266    2.6022 C   0  0  2  0  0  0  0  0  0  0  0  0
    9.7086    2.0249   -1.7221 C   0  0  0  0  0  0  0  0  0  0  0  0
    8.8448    2.9407   -2.3359 C   0  0  0  0  0  0  0  0  0  0  0  0
    7.7715    2.4957   -3.0836 C   0  0  0  0  0  0  0  0  0  0  0  0
    7.5369    1.1390   -3.2364 C   0  0  0  0  0  0  0  0  0  0  0  0
    8.3931    0.2246   -2.6427 C   0  0  0  0  0  0  0  0  0  0  0  0
    9.4711    0.6525   -1.8900 C   0  0  0  0  0  0  0  0  0  0  0  0
   12.0246    4.5739    2.5010 H   0  0  0  0  0  0  0  0  0  0  0  0
   13.3247    2.3416    3.2497 H   0  0  0  0  0  0  0  0  0  0  0  0
   14.4374    1.2697    1.0679 H   0  0  0  0  0  0  0  0  0  0  0  0
   13.8001    2.8019   -1.0372 H   0  0  0  0  0  0  0  0  0  0  0  0
   12.3094    4.8482   -0.1482 H   0  0  0  0  0  0  0  0  0  0  0  0
    8.8156   -0.1354    1.0066 H   0  0  0  0  0  0  0  0  0  0  0  0
    8.0460    2.3676    0.4232 H   0  0  0  0  0  0  0  0  0  0  0  0
    9.2135    4.0247    2.1691 H   0  0  0  0  0  0  0  0  0  0  0  0
   10.6303    2.5367    3.8955 H   0  0  0  0  0  0  0  0  0  0  0  0
   10.4196   -0.0299    3.1486 H   0  0  0  0  0  0  0  0  0  0  0  0
    9.0415    3.9972   -2.2116 H   0  0  0  0  0  0  0  0  0  0  0  0
    7.1130    3.2141   -3.5498 H   0  0  0  0  0  0  0  0  0  0  0  0
    6.6964    0.7964   -3.8201 H   0  0  0  0  0  0  0  0  0  0  0  0
    8.2203   -0.8342   -2.7693 H   0  0  0  0  0  0  0  0  0  0  0  0
   10.1602   -0.0600   -1.4461 H   0  0  0  0  0  0  0  0  0  0  0  0
  1 13  1  0  0  0  0
  2  1  1  0  0  0  0
  3  1  1  0  0  0  0
  4  5  1  0  0  0  0
  4 20  1  0  0  0  0
  5 21  1  0  0  0  0
  6  5  1  0  0  0  0
  7  8  1  0  0  0  0
  7  6  2  0  0  0  0
  8  4  2  0  0  0  0
  9 13  1  0  0  0  0
 10  9  2  0  0  0  0
 10 11  1  0  0  0  0
 11 27  1  0  0  0  0
 11 12  2  0  0  0  0
 12 28  1  0  0  0  0
 13 12  1  0  0  0  0
 13 29  1  1  0  0  0
 14  3  1  0  0  0  0
 15 30  1  0  0  0  0
 15 14  2  0  0  0  0
 16 15  1  0  0  0  0
 17 16  2  0  0  0  0
 17 18  1  0  0  0  0
 18 19  2  0  0  0  0
 19 14  1  0  0  0  0
 19 34  1  0  0  0  0
 22  6  1  0  0  0  0
 23  7  1  0  0  0  0
 24  8  1  0  0  0  0
 25  9  1  0  0  0  0
 26 10  1  0  0  0  0
 31 16  1  0  0  0  0
 32 17  1  0  0  0  0
 33 18  1  0  0  0  0
M  END
$$$$
