CSD_code = LISRAH | q = 0 | S = 0 | Stoichiometry = C23H32Cl2N2OPtS | MND = 4
 OpenBabel04212202063D

 62 64  0  0  0  0  0  0  0  0999 V2000
    1.3976    2.1053    1.7519 Pt  0  0  0  0  0  0  0  0  0  0  0  0
    2.3529    1.2242   -0.1572 Cl  0  0  0  0  0  0  0  0  0  0  0  0
    0.9370    4.0548    0.6804 Cl  0  0  0  0  0  0  0  0  0  0  0  0
    1.8712    0.0343    2.5724 S   0  0  0  0  0  0  0  0  0  0  0  0
    1.3961   -0.2760    3.9198 O   0  0  0  0  0  1  0  0  0  0  0  0
   -0.5453    3.3946    3.5952 N   0  0  0  0  0  0  0  0  0  0  0  0
    1.3794    3.0922    4.5475 N   0  0  0  0  0  0  0  0  0  0  0  0
    0.6730    2.9001    3.4359 C   0  0  0  0  0  0  0  0  0  0  0  0
   -0.7580    3.9485    4.9281 C   0  0  0  0  0  0  0  0  0  0  0  0
   -1.4870    3.3367    5.4709 H   0  0  0  0  0  0  0  0  0  0  0  0
   -1.1403    4.9683    4.8666 H   0  0  0  0  0  0  0  0  0  0  0  0
    0.6430    3.8742    5.5392 C   0  0  0  0  0  0  0  0  0  0  0  0
    1.1067    4.8625    5.6366 H   0  0  0  0  0  0  0  0  0  0  0  0
    0.6555    3.3912    6.5157 H   0  0  0  0  0  0  0  0  0  0  0  0
   -1.6051    3.2676    2.6569 C   0  0  0  0  0  0  0  0  0  0  0  0
   -2.1925    2.0152    2.4578 C   0  0  0  0  0  0  0  0  0  0  0  0
   -3.2100    1.9031    1.5222 C   0  0  0  0  0  0  0  0  0  0  0  0
   -3.6638    0.9368    1.3538 H   0  0  0  0  0  0  0  0  0  0  0  0
   -3.6590    2.9995    0.8013 C   0  0  0  0  0  0  0  0  0  0  0  0
   -3.0825    4.2366    1.0467 C   0  0  0  0  0  0  0  0  0  0  0  0
   -3.4287    5.1002    0.4978 H   0  0  0  0  0  0  0  0  0  0  0  0
   -2.0576    4.3937    1.9667 C   0  0  0  0  0  0  0  0  0  0  0  0
   -1.7956    0.8235    3.2790 C   0  0  0  0  0  0  0  0  0  0  0  0
   -0.7154    0.7078    3.3449 H   0  0  0  0  0  0  0  0  0  0  0  0
   -2.2167   -0.0840    2.8550 H   0  0  0  0  0  0  0  0  0  0  0  0
   -2.1796    0.9279    4.2947 H   0  0  0  0  0  0  0  0  0  0  0  0
   -4.7322    2.8502   -0.2326 C   0  0  0  0  0  0  0  0  0  0  0  0
   -5.3556    1.9834   -0.0268 H   0  0  0  0  0  0  0  0  0  0  0  0
   -4.2781    2.7161   -1.2145 H   0  0  0  0  0  0  0  0  0  0  0  0
   -5.3592    3.7379   -0.2723 H   0  0  0  0  0  0  0  0  0  0  0  0
   -1.4645    5.7478    2.2051 C   0  0  0  0  0  0  0  0  0  0  0  0
   -1.9361    6.2275    3.0642 H   0  0  0  0  0  0  0  0  0  0  0  0
   -1.6237    6.3802    1.3368 H   0  0  0  0  0  0  0  0  0  0  0  0
   -0.3945    5.6686    2.3744 H   0  0  0  0  0  0  0  0  0  0  0  0
    2.7149    2.6671    4.7707 C   0  0  0  0  0  0  0  0  0  0  0  0
    2.9722    1.6944    5.7433 C   0  0  0  0  0  0  0  0  0  0  0  0
    4.2819    1.2858    5.9456 C   0  0  0  0  0  0  0  0  0  0  0  0
    4.4828    0.5288    6.6899 H   0  0  0  0  0  0  0  0  0  0  0  0
    5.3347    1.8119    5.2106 C   0  0  0  0  0  0  0  0  0  0  0  0
    5.0556    2.7842    4.2629 C   0  0  0  0  0  0  0  0  0  0  0  0
    5.8634    3.2112    3.6866 H   0  0  0  0  0  0  0  0  0  0  0  0
    3.7609    3.2302    4.0316 C   0  0  0  0  0  0  0  0  0  0  0  0
    1.8796    1.0730    6.5581 C   0  0  0  0  0  0  0  0  0  0  0  0
    0.9756    0.9627    5.9666 H   0  0  0  0  0  0  0  0  0  0  0  0
    1.6680    1.6705    7.4464 H   0  0  0  0  0  0  0  0  0  0  0  0
    2.1853    0.0839    6.8877 H   0  0  0  0  0  0  0  0  0  0  0  0
    6.7416    1.3570    5.4530 C   0  0  0  0  0  0  0  0  0  0  0  0
    6.7636    0.3196    5.7786 H   0  0  0  0  0  0  0  0  0  0  0  0
    7.1983    1.9645    6.2348 H   0  0  0  0  0  0  0  0  0  0  0  0
    7.3430    1.4596    4.5530 H   0  0  0  0  0  0  0  0  0  0  0  0
    3.5286    4.2922    3.0040 C   0  0  0  0  0  0  0  0  0  0  0  0
    3.3305    3.8356    2.0272 H   0  0  0  0  0  0  0  0  0  0  0  0
    4.4117    4.9174    2.8996 H   0  0  0  0  0  0  0  0  0  0  0  0
    2.6764    4.9202    3.2516 H   0  0  0  0  0  0  0  0  0  0  0  0
    1.2635   -1.3144    1.5132 C   0  0  0  0  0  0  0  0  0  0  0  0
    0.1842   -1.2242    1.4480 H   0  0  0  0  0  0  0  0  0  0  0  0
    1.5354   -2.2540    1.9796 H   0  0  0  0  0  0  0  0  0  0  0  0
    1.7110   -1.1974    0.5338 H   0  0  0  0  0  0  0  0  0  0  0  0
    3.6423   -0.3653    2.5231 C   0  0  0  0  0  0  0  0  0  0  0  0
    3.7748   -1.3981    2.8225 H   0  0  0  0  0  0  0  0  0  0  0  0
    4.1518    0.2975    3.2147 H   0  0  0  0  0  0  0  0  0  0  0  0
    3.9784   -0.1928    1.5073 H   0  0  0  0  0  0  0  0  0  0  0  0
  1  4  1  0  0  0  0
  1  8  2  0  0  0  0
  2  1  1  0  0  0  0
  3  1  1  0  0  0  0
  4  5  1  0  0  0  0
  6  9  1  0  0  0  0
  7 35  1  0  0  0  0
  7 12  1  0  0  0  0
  8  6  1  0  0  0  0
  8  7  1  0  0  0  0
  9 10  1  0  0  0  0
  9 12  1  0  0  0  0
 11  9  1  0  0  0  0
 12 13  1  0  0  0  0
 12 14  1  0  0  0  0
 15  6  1  0  0  0  0
 16 15  1  0  0  0  0
 16 23  1  0  0  0  0
 17 16  2  0  0  0  0
 18 17  1  0  0  0  0
 19 20  2  0  0  0  0
 19 17  1  0  0  0  0
 20 22  1  0  0  0  0
 21 20  1  0  0  0  0
 22 31  1  0  0  0  0
 22 15  2  0  0  0  0
 23 24  1  0  0  0  0
 23 26  1  0  0  0  0
 25 23  1  0  0  0  0
 27 28  1  0  0  0  0
 27 19  1  0  0  0  0
 29 27  1  0  0  0  0
 30 27  1  0  0  0  0
 31 34  1  0  0  0  0
 31 32  1  0  0  0  0
 33 31  1  0  0  0  0
 35 36  1  0  0  0  0
 36 37  2  0  0  0  0
 36 43  1  0  0  0  0
 37 38  1  0  0  0  0
 39 47  1  0  0  0  0
 39 37  1  0  0  0  0
 40 39  2  0  0  0  0
 41 40  1  0  0  0  0
 42 40  1  0  0  0  0
 42 35  2  0  0  0  0
 43 46  1  0  0  0  0
 43 45  1  0  0  0  0
 44 43  1  0  0  0  0
 47 48  1  0  0  0  0
 47 49  1  0  0  0  0
 50 47  1  0  0  0  0
 51 54  1  0  0  0  0
 51 42  1  0  0  0  0
 52 51  1  0  0  0  0
 53 51  1  0  0  0  0
 55 57  1  0  0  0  0
 55  4  1  0  0  0  0
 56 55  1  0  0  0  0
 58 55  1  0  0  0  0
 59  4  1  0  0  0  0
 59 60  1  0  0  0  0
 59 61  1  0  0  0  0
 62 59  1  0  0  0  0
M  END
$$$$
