CSD_code = LISYAP | q = 0 | S = 0 | Stoichiometry = C21H16I2N4Zn | MND = 4
 OpenBabel04212202063D

 44 49  0  0  1  0  0  0  0  0999 V2000
    5.4278    5.8499    6.4341 I   0  0  0  0  0  0  0  0  0  0  0  0
    4.0531    3.8542    7.1733 Zn  0  0  0  0  0  0  0  0  0  0  0  0
    1.4598    5.1566    6.1150 N   0  0  1  0  0  0  0  0  0  0  0  0
    2.0653    4.6650    7.2003 N   0  0  0  0  0  0  0  0  0  0  0  0
    1.1898    5.6443    3.7316 C   0  0  0  0  0  0  0  0  0  0  0  0
    2.5338    3.7422    4.4852 N   0  0  1  0  0  0  0  0  0  0  0  0
   -0.4962    3.8648    4.2078 C   0  0  0  0  0  0  0  0  0  0  0  0
    0.1178    3.4271    4.9788 H   0  0  0  0  0  0  0  0  0  0  0  0
    2.3433    3.0536    3.3431 C   0  0  0  0  0  3  0  0  0  0  0  0
    1.7548    3.4352    2.5356 H   0  0  0  0  0  0  0  0  0  0  0  0
    3.1398    8.5504    2.4124 C   0  0  0  0  0  0  0  0  0  0  0  0
    4.0818    9.0502    2.5769 H   0  0  0  0  0  0  0  0  0  0  0  0
    0.3217    5.7916    6.4552 C   0  0  0  0  0  3  0  0  0  0  0  0
   -0.2959    6.2845    5.7342 H   0  0  0  0  0  0  0  0  0  0  0  0
    3.6357    1.9263    4.7140 C   0  0  0  0  0  0  0  0  0  0  0  0
    4.2584    1.2000    5.1995 H   0  0  0  0  0  0  0  0  0  0  0  0
   -0.5154    6.6448    1.7520 C   0  0  0  0  0  0  0  0  0  0  0  0
   -1.1733    7.0334    0.9876 H   0  0  0  0  0  0  0  0  0  0  0  0
   -0.9133    5.5303    2.4811 C   0  0  0  0  0  0  0  0  0  0  0  0
    2.8175    7.4644    3.1690 C   0  0  0  0  0  0  0  0  0  0  0  0
    3.5347    7.1514    3.9104 H   0  0  0  0  0  0  0  0  0  0  0  0
    3.3390    3.0664    5.3110 N   0  0  0  0  0  0  0  0  0  0  0  0
   -0.0466    5.0105    3.4932 C   0  0  0  0  0  0  0  0  0  0  0  0
    0.7033    7.2725    1.9772 C   0  0  0  0  0  0  0  0  0  0  0  0
    1.5879    6.7721    2.9901 C   0  0  0  0  0  0  0  0  0  0  0  0
   -2.1618    4.9036    2.2349 C   0  0  0  0  0  0  0  0  0  0  0  0
   -2.7947    5.3200    1.4652 H   0  0  0  0  0  0  0  0  0  0  0  0
    2.2652    9.0328    1.4190 C   0  0  0  0  0  0  0  0  0  0  0  0
    2.5472    9.8948    0.8343 H   0  0  0  0  0  0  0  0  0  0  0  0
    1.0773    8.4064    1.2107 C   0  0  0  0  0  0  0  0  0  0  0  0
    0.3882    8.7562    0.4560 H   0  0  0  0  0  0  0  0  0  0  0  0
    1.2952    4.9516    8.2348 C   0  0  0  0  0  0  0  0  0  0  0  0
    1.5663    4.6339    9.2230 H   0  0  0  0  0  0  0  0  0  0  0  0
    2.0961    5.0921    4.8072 C   0  0  2  0  0  0  0  0  0  0  0  0
    3.0100    5.6970    4.8846 H   0  0  0  0  0  0  0  0  0  0  0  0
   -2.5503    3.8115    2.9455 C   0  0  0  0  0  0  0  0  0  0  0  0
   -3.5008    3.3370    2.7561 H   0  0  0  0  0  0  0  0  0  0  0  0
   -1.7018    3.2899    3.9419 C   0  0  0  0  0  0  0  0  0  0  0  0
   -2.0157    2.4211    4.5005 H   0  0  0  0  0  0  0  0  0  0  0  0
    3.0318    1.8692    3.4580 C   0  0  0  0  0  0  0  0  0  0  0  0
    3.0943    1.0797    2.7394 H   0  0  0  0  0  0  0  0  0  0  0  0
    0.1758    5.6709    7.8170 C   0  0  0  0  0  0  0  0  0  0  0  0
   -0.6190    6.0508    8.4232 H   0  0  0  0  0  0  0  0  0  0  0  0
    4.0853    1.9573    8.7896 I   0  0  0  0  0  0  0  0  0  0  0  0
  1  2  1  0  0  0  0
  2  4  1  0  0  0  0
  2 44  1  0  0  0  0
  3 13  1  1  0  0  0
  3  4  1  0  0  0  0
  4 32  1  0  0  0  0
  5 34  1  0  0  0  0
  6  9  1  6  0  0  0
  6 34  1  0  0  0  0
  6 22  1  0  0  0  0
  7  8  1  0  0  0  0
  9 40  1  0  0  0  0
 10  9  1  0  0  0  0
 11 12  1  0  0  0  0
 11 20  2  0  0  0  0
 13 42  1  0  0  0  0
 14 13  1  0  0  0  0
 15 16  1  0  0  0  0
 15 22  1  0  0  0  0
 17 24  2  0  0  0  0
 17 19  1  0  0  0  0
 18 17  1  0  0  0  0
 19 23  1  0  0  0  0
 20 21  1  0  0  0  0
 22  2  1  0  0  0  0
 23  5  1  0  0  0  0
 23  7  2  0  0  0  0
 24 25  1  0  0  0  0
 25 20  1  0  0  0  0
 25  5  2  0  0  0  0
 26 19  2  0  0  0  0
 26 36  1  0  0  0  0
 27 26  1  0  0  0  0
 28 11  1  0  0  0  0
 29 28  1  0  0  0  0
 30 28  2  0  0  0  0
 30 24  1  0  0  0  0
 31 30  1  0  0  0  0
 32 33  1  0  0  0  0
 34 35  1  1  0  0  0
 34  3  1  0  0  0  0
 36 38  2  0  0  0  0
 37 36  1  0  0  0  0
 38  7  1  0  0  0  0
 38 39  1  0  0  0  0
 40 15  2  0  0  0  0
 41 40  1  0  0  0  0
 42 32  2  0  0  0  0
 42 43  1  0  0  0  0
M  END
$$$$
