CSD_code = LITKEH | q = 0 | S = 0 | Stoichiometry = C18H16Cl2HgN2 | MND = 4
 OpenBabel04212202063D

 39 41  0  0  0  0  0  0  0  0999 V2000
    0.5634    3.0959    9.5466 Hg  0  0  0  0  0  0  0  0  0  0  0  0
    2.7078    2.4845   10.0846 Cl  0  0  0  0  0  0  0  0  0  0  0  0
   -1.5423    3.2878   10.4067 Cl  0  0  0  0  0  0  0  0  0  0  0  0
    0.6611    1.8551    7.4079 N   0  0  0  0  0  0  0  0  0  0  0  0
    1.2946    4.5375    7.6650 N   0  0  0  0  0  0  0  0  0  0  0  0
    1.4073    2.4549    6.4971 C   0  0  0  0  0  0  0  0  0  0  0  0
    1.8758    1.7823    5.3463 C   0  0  0  0  0  0  0  0  0  0  0  0
    2.4817    2.3155    4.6298 H   0  0  0  0  0  0  0  0  0  0  0  0
    1.5583    0.4655    5.1649 C   0  0  0  0  0  0  0  0  0  0  0  0
    1.9086   -0.0796    4.3002 H   0  0  0  0  0  0  0  0  0  0  0  0
    0.7643   -0.1941    6.1242 C   0  0  0  0  0  0  0  0  0  0  0  0
    0.3949   -1.5499    6.0213 C   0  0  0  0  0  3  0  0  0  0  0  0
    0.7319   -2.1163    5.1654 H   0  0  0  0  0  0  0  0  0  0  0  0
   -0.3733   -2.1329    6.9904 C   0  0  0  0  0  0  0  0  0  0  0  0
   -0.6525   -3.1727    6.9105 H   0  0  0  0  0  0  0  0  0  0  0  0
   -0.8083   -1.3877    8.1004 C   0  0  0  0  0  0  0  0  0  0  0  0
   -1.4156   -1.8674    8.8527 H   0  0  0  0  0  0  0  0  0  0  0  0
   -0.4695   -0.0708    8.2313 C   0  0  0  0  0  0  0  0  0  0  0  0
   -0.8034    0.5163    9.0789 H   0  0  0  0  0  0  0  0  0  0  0  0
    0.3280    0.5602    7.2527 C   0  0  0  0  0  0  0  0  0  0  0  0
    1.7563    3.8546    6.6953 C   0  0  0  0  0  0  0  0  0  0  0  0
    2.4108    4.2964    5.9411 H   0  0  0  0  0  0  0  0  0  0  0  0
    1.6705    5.8637    7.8768 C   0  0  0  0  0  0  0  0  0  0  0  0
    3.0176    6.2479    7.9762 C   0  0  0  0  0  0  0  0  0  0  0  0
    3.2991    7.5811    8.2458 C   0  0  0  0  0  0  0  0  0  0  0  0
    4.3310    7.8859    8.3410 H   0  0  0  0  0  0  0  0  0  0  0  0
    2.2916    8.5145    8.3958 C   0  0  0  0  0  0  0  0  0  0  0  0
    2.5365    9.5464    8.5967 H   0  0  0  0  0  0  0  0  0  0  0  0
    0.9675    8.1217    8.3021 C   0  0  0  0  0  0  0  0  0  0  0  0
    0.1789    8.8485    8.4287 H   0  0  0  0  0  0  0  0  0  0  0  0
    0.6374    6.8002    8.0565 C   0  0  0  0  0  0  0  0  0  0  0  0
    4.1475    5.2658    7.8843 C   0  0  0  0  0  0  0  0  0  0  0  0
    3.8435    4.2728    8.2106 H   0  0  0  0  0  0  0  0  0  0  0  0
    4.5246    5.1969    6.8634 H   0  0  0  0  0  0  0  0  0  0  0  0
    4.9690    5.5948    8.5167 H   0  0  0  0  0  0  0  0  0  0  0  0
   -0.7905    6.3721    7.9337 C   0  0  0  0  0  0  0  0  0  0  0  0
   -1.0027    5.5449    8.6150 H   0  0  0  0  0  0  0  0  0  0  0  0
   -1.4586    7.1966    8.1668 H   0  0  0  0  0  0  0  0  0  0  0  0
   -1.0039    6.0241    6.9232 H   0  0  0  0  0  0  0  0  0  0  0  0
  1  2  1  0  0  0  0
  1  3  1  0  0  0  0
  4  1  1  0  0  0  0
  5 23  1  0  0  0  0
  6 21  1  0  0  0  0
  6  4  1  0  0  0  0
  7  6  2  0  0  0  0
  8  7  1  0  0  0  0
  9  7  1  0  0  0  0
  9 11  2  0  0  0  0
 10  9  1  0  0  0  0
 11 20  1  0  0  0  0
 12 11  1  0  0  0  0
 12 14  1  0  0  0  0
 13 12  1  0  0  0  0
 14 16  2  0  0  0  0
 15 14  1  0  0  0  0
 16 18  1  0  0  0  0
 16 17  1  0  0  0  0
 18 19  1  0  0  0  0
 20  4  1  0  0  0  0
 20 18  2  0  0  0  0
 21  5  2  0  0  0  0
 22 21  1  0  0  0  0
 23 24  2  0  0  0  0
 23 31  1  0  0  0  0
 24 25  1  0  0  0  0
 25 26  1  0  0  0  0
 25 27  2  0  0  0  0
 27 28  1  0  0  0  0
 29 27  1  0  0  0  0
 29 30  1  0  0  0  0
 31 29  2  0  0  0  0
 32 24  1  0  0  0  0
 32 33  1  0  0  0  0
 32 35  1  0  0  0  0
 34 32  1  0  0  0  0
 36 31  1  0  0  0  0
 36 38  1  0  0  0  0
 36 37  1  0  0  0  0
 39 36  1  0  0  0  0
M  END
$$$$
