CSD_code = LITNAE | q = 0 | S = 0 | Stoichiometry = C26H30ClN2Rh | MND = 6
 OpenBabel04212202063D

 60 63  0  0  1  0  0  0  0  0999 V2000
    0.8612    3.3075    7.0252 C   0  0  2  0  0  3  0  0  0  0  0  0
    2.6850    2.9698    5.3956 C   0  0  0  0  0  0  0  0  0  0  0  0
    3.2224    3.5122    4.2690 C   0  0  0  0  0  0  0  0  0  0  0  0
    4.1892    3.1755    3.9308 H   0  0  0  0  0  0  0  0  0  0  0  0
    2.4569    4.3409    3.4087 C   0  0  0  0  0  0  0  0  0  0  0  0
    2.8823    4.6222    2.4575 H   0  0  0  0  0  0  0  0  0  0  0  0
    1.1478    4.6037    3.6818 C   0  0  0  0  0  0  0  0  0  0  0  0
    0.6964    4.2803    4.9910 C   0  0  0  0  0  0  0  0  0  0  0  0
   -0.4473    4.5434    5.6927 C   0  0  0  0  0  0  0  0  0  0  0  0
   -1.3081    5.1210    5.4277 H   0  0  0  0  0  0  0  0  0  0  0  0
    3.1828    1.7057    6.0202 C   0  0  0  0  0  0  0  0  0  0  0  0
    2.9980    1.7272    7.1090 H   0  0  0  0  0  0  0  0  0  0  0  0
    4.2535    1.6159    5.8404 H   0  0  0  0  0  0  0  0  0  0  0  0
    2.4393    0.4492    5.4300 C   0  0  0  0  0  0  0  0  0  0  0  0
    3.1809   -0.2329    5.0137 H   0  0  0  0  0  0  0  0  0  0  0  0
    1.9119   -0.0492    6.2429 H   0  0  0  0  0  0  0  0  0  0  0  0
    1.4515    0.8634    4.3797 C   0  0  0  0  0  0  0  0  0  0  0  0
    1.8637    1.1502    3.0829 C   0  0  0  0  0  0  0  0  0  0  0  0
    2.8344    0.8179    2.7427 H   0  0  0  0  0  0  0  0  0  0  0  0
    1.0943    1.9588    2.2680 C   0  0  0  0  0  0  0  0  0  0  0  0
    1.4709    2.2579    1.3000 H   0  0  0  0  0  0  0  0  0  0  0  0
   -0.1036    2.4897    2.7329 C   0  0  0  0  0  0  0  0  0  0  0  0
   -0.6269    1.9784    3.9158 C   0  0  0  0  0  0  0  0  0  0  0  0
   -1.6099    2.2884    4.2423 H   0  0  0  0  0  0  0  0  0  0  0  0
    0.1431    1.1732    4.7349 C   0  0  0  0  0  0  0  0  0  0  0  0
   -0.2291    0.8661    5.7013 H   0  0  0  0  0  0  0  0  0  0  0  0
   -0.6623    3.7458    2.1275 C   0  0  0  0  0  0  0  0  0  0  0  0
   -1.7079    3.8611    2.4140 H   0  0  0  0  0  0  0  0  0  0  0  0
   -0.6082    3.7085    1.0392 H   0  0  0  0  0  0  0  0  0  0  0  0
    0.1531    4.9949    2.6290 C   0  0  0  0  0  0  0  0  0  0  0  0
    0.6881    5.4350    1.7874 H   0  0  0  0  0  0  0  0  0  0  0  0
   -0.5409    5.7402    3.0184 H   0  0  0  0  0  0  0  0  0  0  0  0
   -1.3155    3.9858    7.9451 C   0  0  0  0  0  0  0  0  0  0  0  0
   -0.9796    3.3456    8.7688 H   0  0  0  0  0  0  0  0  0  0  0  0
   -2.2624    3.6035    7.5613 H   0  0  0  0  0  0  0  0  0  0  0  0
   -1.4611    5.0065    8.3057 H   0  0  0  0  0  0  0  0  0  0  0  0
    3.1214    3.8934    8.9722 C   0  0  0  0  0  3  0  0  0  0  0  0
    3.4297    4.2856    8.0029 H   0  0  0  0  0  0  0  0  0  0  0  0
    1.9416    4.4120    9.5131 C   0  0  2  0  0  0  0  0  0  0  0  0
    1.4383    5.1955    8.9438 H   0  0  0  0  0  0  0  0  0  0  0  0
    1.6255    4.4717   10.9911 C   0  0  0  0  0  0  0  0  0  0  0  0
    0.5694    4.7339   11.0995 H   0  0  0  0  0  0  0  0  0  0  0  0
    2.2059    5.2792   11.4527 H   0  0  0  0  0  0  0  0  0  0  0  0
    1.8885    3.1450   11.7275 C   0  0  0  0  0  0  0  0  0  0  0  0
    2.9013    3.1294   12.1329 H   0  0  0  0  0  0  0  0  0  0  0  0
    1.2017    3.0694   12.5732 H   0  0  0  0  0  0  0  0  0  0  0  0
    1.6992    1.9438   10.8280 C   0  0  0  0  0  3  0  0  0  0  0  0
    0.8227    1.3351   11.0488 H   0  0  0  0  0  0  0  0  0  0  0  0
    2.7282    1.3586   10.1199 C   0  0  0  0  0  3  0  0  0  0  0  0
    2.6255    0.3088    9.8420 H   0  0  0  0  0  0  0  0  0  0  0  0
    4.1540    1.8618   10.1035 C   0  0  0  0  0  0  0  0  0  0  0  0
    4.7002    1.3137    9.3314 H   0  0  0  0  0  0  0  0  0  0  0  0
    4.6288    1.6255   11.0623 H   0  0  0  0  0  0  0  0  0  0  0  0
    4.2646    3.3732    9.8193 C   0  0  0  0  0  0  0  0  0  0  0  0
    4.2963    3.9342   10.7549 H   0  0  0  0  0  0  0  0  0  0  0  0
    5.2063    3.5638    9.3000 H   0  0  0  0  0  0  0  0  0  0  0  0
    1.4920    3.5001    5.8366 N   0  0  0  0  0  0  0  0  0  0  0  0
   -0.3143    3.9491    6.9147 N   0  0  0  0  0  0  0  0  0  0  0  0
    0.2505    0.6666    8.2731 Cl  0  0  0  0  0 15  0  0  0  0  0  0
    1.5385    2.4927    8.7321 Rh  0  0  0  0  0  0  0  0  0  0  0  0
  1 60  1  1  0  0  0
  2 57  1  0  0  0  0
  2 11  1  0  0  0  0
  3  2  2  0  0  0  0
  4  3  1  0  0  0  0
  5  7  2  0  0  0  0
  5  3  1  0  0  0  0
  6  5  1  0  0  0  0
  7  8  1  0  0  0  0
  8  9  2  0  0  0  0
  8 57  1  0  0  0  0
  9 58  1  0  0  0  0
 10  9  1  0  0  0  0
 11 12  1  0  0  0  0
 13 11  1  0  0  0  0
 14 11  1  0  0  0  0
 14 16  1  0  0  0  0
 15 14  1  0  0  0  0
 17 25  1  0  0  0  0
 17 14  1  0  0  0  0
 18 17  2  0  0  0  0
 19 18  1  0  0  0  0
 20 22  2  0  0  0  0
 20 18  1  0  0  0  0
 21 20  1  0  0  0  0
 22 23  1  0  0  0  0
 23 24  1  0  0  0  0
 23 25  2  0  0  0  0
 25 26  1  0  0  0  0
 27 28  1  0  0  0  0
 27 30  1  0  0  0  0
 27 22  1  0  0  0  0
 29 27  1  0  0  0  0
 30 32  1  0  0  0  0
 30  7  1  0  0  0  0
 31 30  1  0  0  0  0
 33 36  1  0  0  0  0
 33 34  1  0  0  0  0
 35 33  1  0  0  0  0
 37 39  1  0  0  0  0
 37 54  1  0  0  0  0
 38 37  1  0  0  0  0
 39 40  1  6  0  0  0
 39 41  1  0  0  0  0
 41 42  1  0  0  0  0
 41 43  1  0  0  0  0
 41 44  1  0  0  0  0
 44 45  1  0  0  0  0
 44 46  1  0  0  0  0
 47 48  1  0  0  0  0
 47 44  1  0  0  0  0
 49 47  1  0  0  0  0
 50 49  1  0  0  0  0
 51 49  1  0  0  0  0
 51 53  1  0  0  0  0
 52 51  1  0  0  0  0
 54 51  1  0  0  0  0
 54 55  1  0  0  0  0
 56 54  1  0  0  0  0
 57  1  1  0  0  0  0
 58  1  1  0  0  0  0
 58 33  1  0  0  0  0
 60 39  1  0  0  0  0
M  END
$$$$
