CSD_code = LIVBEA | q = 0 | S = 0 | Stoichiometry = C14H15I2N3Pd | MND = 4
 OpenBabel04212202063D

 35 37  0  0  0  0  0  0  0  0999 V2000
    0.2262    5.4311    2.2509 I   0  0  0  0  0  0  0  0  0  0  0  0
    5.0045    5.1734    4.3013 I   0  0  0  0  0  0  0  0  0  0  0  0
    2.6483    5.3816    3.2095 Pd  0  0  0  0  0  0  0  0  0  0  0  0
    1.2812    7.2711    6.6961 N   0  0  0  0  0  0  0  0  0  0  0  0
    3.3595    4.6973    1.4662 N   0  0  0  0  0  0  0  0  0  0  0  0
    1.4763    5.2477    5.8918 N   0  0  0  0  0  0  0  0  0  0  0  0
    1.9568    6.0817    4.9163 C   0  0  0  0  0  0  0  0  0  0  0  0
    1.3922    3.8959    5.8526 C   0  0  0  0  0  3  0  0  0  0  0  0
    1.7502    3.4241    4.9341 H   0  0  0  0  0  0  0  0  0  0  0  0
    0.8841    3.2282    6.9229 C   0  0  0  0  0  0  0  0  0  0  0  0
    0.8112    2.1539    6.9051 H   0  0  0  0  0  0  0  0  0  0  0  0
    0.4527    3.9451    8.0579 C   0  0  0  0  0  0  0  0  0  0  0  0
    0.0522    3.4078    8.9020 H   0  0  0  0  0  0  0  0  0  0  0  0
    0.5398    5.3141    8.0959 C   0  0  0  0  0  0  0  0  0  0  0  0
    0.2156    5.8729    8.9587 H   0  0  0  0  0  0  0  0  0  0  0  0
    1.0640    5.9727    6.9831 C   0  0  0  0  0  0  0  0  0  0  0  0
    1.8322    7.3454    5.4291 C   0  0  0  0  0  0  0  0  0  0  0  0
    2.2137    8.6170    4.7670 C   0  0  0  0  0  0  0  0  0  0  0  0
    2.6396    8.3700    3.7878 H   0  0  0  0  0  0  0  0  0  0  0  0
    2.9599    9.1597    5.3474 H   0  0  0  0  0  0  0  0  0  0  0  0
    1.3484    9.2636    4.6176 H   0  0  0  0  0  0  0  0  0  0  0  0
    1.0204    8.4010    7.5426 C   0  0  0  0  0  0  0  0  0  0  0  0
    0.4741    8.0826    8.4271 H   0  0  0  0  0  0  0  0  0  0  0  0
    0.4244    9.1385    7.0029 H   0  0  0  0  0  0  0  0  0  0  0  0
    1.9589    8.8671    7.8514 H   0  0  0  0  0  0  0  0  0  0  0  0
    3.7885    5.6035    0.5933 C   0  0  0  0  0  3  0  0  0  0  0  0
    3.7140    6.6487    0.9039 H   0  0  0  0  0  0  0  0  0  0  0  0
    4.3013    5.2518   -0.6416 C   0  0  0  0  0  0  0  0  0  0  0  0
    4.6399    6.0149   -1.3243 H   0  0  0  0  0  0  0  0  0  0  0  0
    4.3686    3.9073   -0.9759 C   0  0  0  0  0  0  0  0  0  0  0  0
    4.7639    3.5980   -1.9314 H   0  0  0  0  0  0  0  0  0  0  0  0
    3.9199    2.9687   -0.0599 C   0  0  0  0  0  0  0  0  0  0  0  0
    3.9543    1.9134   -0.2790 H   0  0  0  0  0  0  0  0  0  0  0  0
    3.4210    3.4083    1.1532 C   0  0  0  0  0  0  0  0  0  0  0  0
    3.0569    2.7079    1.9041 H   0  0  0  0  0  0  0  0  0  0  0  0
  1  3  1  0  0  0  0
  3  2  1  0  0  0  0
  3  7  1  0  0  0  0
  4 16  1  0  0  0  0
  4 22  1  0  0  0  0
  5  3  1  0  0  0  0
  6 16  1  0  0  0  0
  7 17  2  0  0  0  0
  7  6  1  0  0  0  0
  8  6  1  0  0  0  0
  8 10  1  0  0  0  0
  9  8  1  0  0  0  0
 10 12  2  0  0  0  0
 11 10  1  0  0  0  0
 12 14  1  0  0  0  0
 12 13  1  0  0  0  0
 14 15  1  0  0  0  0
 16 14  2  0  0  0  0
 17  4  1  0  0  0  0
 18 20  1  0  0  0  0
 18 17  1  0  0  0  0
 19 18  1  0  0  0  0
 21 18  1  0  0  0  0
 22 25  1  0  0  0  0
 22 23  1  0  0  0  0
 24 22  1  0  0  0  0
 26 27  1  0  0  0  0
 26  5  1  0  0  0  0
 28 26  1  0  0  0  0
 29 28  1  0  0  0  0
 30 28  2  0  0  0  0
 30 32  1  0  0  0  0
 31 30  1  0  0  0  0
 32 34  2  0  0  0  0
 33 32  1  0  0  0  0
 34  5  1  0  0  0  0
 34 35  1  0  0  0  0
M  END
$$$$
