CSD_code = LIVCOL | q = 0 | S = 0 | Stoichiometry = C19H17I2N3Pd | MND = 4
 OpenBabel04212202063D

 42 45  0  0  1  0  0  0  0  0999 V2000
   10.4688   14.6552   10.3800 C   0  0  0  0  0  3  0  0  0  0  0  0
    9.8593   14.2635   11.1994 H   0  0  0  0  0  0  0  0  0  0  0  0
   11.7163   14.1317   10.0951 C   0  0  0  0  0  0  0  0  0  0  0  0
   12.1089   13.3180   10.6842 H   0  0  0  0  0  0  0  0  0  0  0  0
   12.4419   14.6766    9.0456 C   0  0  0  0  0  0  0  0  0  0  0  0
   13.4197   14.2929    8.7967 H   0  0  0  0  0  0  0  0  0  0  0  0
   11.8885   15.7223    8.3233 C   0  0  0  0  0  0  0  0  0  0  0  0
   12.4164   16.1745    7.4988 H   0  0  0  0  0  0  0  0  0  0  0  0
   10.6333   16.1853    8.6768 C   0  0  0  0  0  0  0  0  0  0  0  0
   10.1578   17.0029    8.1373 H   0  0  0  0  0  0  0  0  0  0  0  0
    6.3413   16.8230   10.8705 C   0  0  0  0  0  0  0  0  0  0  0  0
    4.4982   18.0897   11.0437 C   0  0  2  0  0  3  0  0  0  0  0  0
    5.4191   16.1707   11.6852 C   0  0  0  0  0  0  0  0  0  0  0  0
    5.4579   14.9378   12.3531 C   0  0  0  0  0  0  0  0  0  0  0  0
    6.3498   14.3317   12.2453 H   0  0  0  0  0  0  0  0  0  0  0  0
    4.3847   14.5529   13.0999 C   0  0  0  0  0  0  0  0  0  0  0  0
    4.3767   13.6101   13.6212 H   0  0  0  0  0  0  0  0  0  0  0  0
    3.2650   15.4151   13.2029 C   0  0  0  0  0  0  0  0  0  0  0  0
    2.4264   15.1254   13.8151 H   0  0  0  0  0  0  0  0  0  0  0  0
    3.2248   16.6032   12.5502 C   0  0  0  0  0  0  0  0  0  0  0  0
    2.4004   17.2951   12.6187 H   0  0  0  0  0  0  0  0  0  0  0  0
    3.5624   19.1822   10.8334 C   0  0  0  0  0  0  0  0  0  0  0  0
    2.2383   18.9151   10.4796 C   0  0  0  0  0  0  0  0  0  0  0  0
    1.9163   17.8937   10.3381 H   0  0  0  0  0  0  0  0  0  0  0  0
    1.3518   19.9542   10.2707 C   0  0  0  0  0  0  0  0  0  0  0  0
    0.3318   19.7370    9.9918 H   0  0  0  0  0  0  0  0  0  0  0  0
    1.7706   21.2678   10.4078 C   0  0  0  0  0  0  0  0  0  0  0  0
    1.0763   22.0770   10.2402 H   0  0  0  0  0  0  0  0  0  0  0  0
    3.0829   21.5403   10.7577 C   0  0  0  0  0  0  0  0  0  0  0  0
    3.4127   22.5621   10.8698 H   0  0  0  0  0  0  0  0  0  0  0  0
    3.9762   20.5079   10.9708 C   0  0  0  0  0  0  0  0  0  0  0  0
    4.9898   20.7257   11.2707 H   0  0  0  0  0  0  0  0  0  0  0  0
    6.3795   18.9195    9.6183 C   0  0  0  0  0  0  0  0  0  0  0  0
    6.9584   19.6542   10.1859 H   0  0  0  0  0  0  0  0  0  0  0  0
    5.6350   19.4303    9.0086 H   0  0  0  0  0  0  0  0  0  0  0  0
    7.0721   18.3556    8.9673 H   0  0  0  0  0  0  0  0  0  0  0  0
    9.1862   17.8711   12.0271 I   0  0  0  0  0  0  0  0  0  0  0  0
    7.0029   14.8437    8.3964 I   0  0  0  0  0  0  0  0  0  0  0  0
    5.7433   17.9820   10.5093 N   0  0  0  0  0  0  0  0  0  0  0  0
    4.2824   16.9789   11.7689 N   0  0  0  0  0  0  0  0  0  0  0  0
    9.9456   15.6599    9.6836 N   0  0  0  0  0  0  0  0  0  0  0  0
    8.1217   16.2727   10.2646 Pd  0  0  0  0  0  0  0  0  0  0  0  0
  1  2  1  0  0  0  0
  3  1  1  0  0  0  0
  3  4  1  0  0  0  0
  5  3  2  0  0  0  0
  6  5  1  0  0  0  0
  7  9  2  0  0  0  0
  7  5  1  0  0  0  0
  8  7  1  0  0  0  0
  9 41  1  0  0  0  0
 10  9  1  0  0  0  0
 11 13  2  0  0  0  0
 12 22  1  6  0  0  0
 12 40  1  0  0  0  0
 13 40  1  0  0  0  0
 13 14  1  0  0  0  0
 14 16  2  0  0  0  0
 15 14  1  0  0  0  0
 16 18  1  0  0  0  0
 16 17  1  0  0  0  0
 18 19  1  0  0  0  0
 20 21  1  0  0  0  0
 20 18  2  0  0  0  0
 22 31  1  0  0  0  0
 23 22  2  0  0  0  0
 24 23  1  0  0  0  0
 25 27  2  0  0  0  0
 25 23  1  0  0  0  0
 26 25  1  0  0  0  0
 27 29  1  0  0  0  0
 28 27  1  0  0  0  0
 29 30  1  0  0  0  0
 29 31  2  0  0  0  0
 31 32  1  0  0  0  0
 33 34  1  0  0  0  0
 33 39  1  0  0  0  0
 35 33  1  0  0  0  0
 36 33  1  0  0  0  0
 38 42  1  0  0  0  0
 39 11  1  0  0  0  0
 39 12  1  0  0  0  0
 40 20  1  0  0  0  0
 41 42  1  0  0  0  0
 41  1  1  0  0  0  0
 42 11  1  0  0  0  0
 42 37  1  0  0  0  0
M  END
$$$$
