CSD_code = LIVCEY | q = 0 | S = 0 | Stoichiometry = C10H12Cl2HgN4O2 | MND = 4
 OpenBabel04212202063D

 31 31  0  0  0  0  0  0  0  0999 V2000
    7.8405    3.2586    6.2372 Hg  0  0  0  0  0  0  0  0  0  0  0  0
    8.5157    3.2285    8.4317 Cl  0  0  0  0  0  0  0  0  0  0  0  0
    6.8819    2.4411    4.3497 Cl  0  0  0  0  0  0  0  0  0  0  0  0
    7.0515    8.3332    8.3427 N   0  0  0  0  0  0  0  0  0  0  0  0
    6.4689    9.3373    9.2128 C   0  0  0  0  0  0  0  0  0  0  0  0
    6.3523    7.1926    8.0947 C   0  0  0  0  0  0  0  0  0  0  0  0
    8.3013    8.5623    7.8035 C   0  0  0  0  0  0  0  0  0  0  0  0
    8.9225    9.5723    8.0187 O   0  0  0  0  0  0  0  0  0  0  0  0
    8.8174    7.5603    6.9832 N   0  0  0  0  0  0  0  0  0  0  0  0
   10.1425    7.8255    6.4435 C   0  0  0  0  0  0  0  0  0  0  0  0
    8.2027    6.3799    6.6643 C   0  0  0  0  0  0  0  0  0  0  0  0
    8.7333    5.5632    5.9210 O   0  0  0  0  0  0  0  0  0  0  0  0
    6.8847    6.1985    7.2659 C   0  0  0  0  0  0  0  0  0  0  0  0
    6.1992    5.0765    7.0244 N   0  0  0  0  0  0  0  0  0  0  0  0
    5.0091    4.9235    7.5758 C   0  0  0  0  0  0  0  0  0  0  0  0
    4.2584    3.6703    7.2975 C   0  0  0  0  0  0  0  0  0  0  0  0
    4.4805    5.9394    8.4156 C   0  0  0  0  0  0  0  0  0  0  0  0
    3.1496    5.7986    9.0635 C   0  0  0  0  0  0  0  0  0  0  0  0
    5.1521    7.0461    8.6594 N   0  0  0  0  0  0  0  0  0  0  0  0
    6.2740    8.9027   10.1921 H   0  0  0  0  0  0  0  0  0  0  0  0
    5.5295    9.6888    8.7885 H   0  0  0  0  0  0  0  0  0  0  0  0
    7.1775   10.1582    9.2966 H   0  0  0  0  0  0  0  0  0  0  0  0
   10.8142    8.0965    7.2565 H   0  0  0  0  0  0  0  0  0  0  0  0
   10.0941    8.6545    5.7380 H   0  0  0  0  0  0  0  0  0  0  0  0
   10.4882    6.9250    5.9430 H   0  0  0  0  0  0  0  0  0  0  0  0
    3.2756    3.8943    6.8861 H   0  0  0  0  0  0  0  0  0  0  0  0
    4.1192    3.1036    8.2174 H   0  0  0  0  0  0  0  0  0  0  0  0
    4.8130    3.0596    6.5842 H   0  0  0  0  0  0  0  0  0  0  0  0
    3.1307    4.9104    9.6927 H   0  0  0  0  0  0  0  0  0  0  0  0
    2.3713    5.6879    8.3102 H   0  0  0  0  0  0  0  0  0  0  0  0
    2.9461    6.6768    9.6685 H   0  0  0  0  0  0  0  0  0  0  0  0
  1  2  1  0  0  0  0
  3  1  1  0  0  0  0
  4  5  1  0  0  0  0
  5 22  1  0  0  0  0
  5 20  1  0  0  0  0
  6  4  1  0  0  0  0
  6 19  1  0  0  0  0
  7  8  2  0  0  0  0
  7  4  1  0  0  0  0
  9  7  1  0  0  0  0
 10  9  1  0  0  0  0
 10 23  1  0  0  0  0
 11  9  1  0  0  0  0
 11 13  1  0  0  0  0
 12 11  2  0  0  0  0
 13  6  2  0  0  0  0
 14 13  1  0  0  0  0
 14 15  2  0  0  0  0
 15 17  1  0  0  0  0
 16 15  1  0  0  0  0
 16 27  1  0  0  0  0
 17 19  2  0  0  0  0
 17 18  1  0  0  0  0
 18 31  1  0  0  0  0
 18 29  1  0  0  0  0
 21  5  1  0  0  0  0
 24 10  1  0  0  0  0
 25 10  1  0  0  0  0
 26 16  1  0  0  0  0
 28 16  1  0  0  0  0
 30 18  1  0  0  0  0
M  END
$$$$
