CSD_code = LIVFOM | q = 0 | S = 0 | Stoichiometry = C13H17Cl2FN2OPtS | MND = 4
 OpenBabel04212202063D

 38 39  0  0  0  0  0  0  0  0999 V2000
    3.3991   10.0772   -1.0321 Pt  0  0  0  0  0  0  0  0  0  0  0  0
    4.2178   11.7348   -2.3912 Cl  0  0  0  0  0  0  0  0  0  0  0  0
    4.9452    8.5779   -1.7231 Cl  0  0  0  0  0  0  0  0  0  0  0  0
    2.5896    8.6829    0.1654 C   0  0  0  0  0  0  0  0  0  0  0  0
    2.6695    8.6482    1.5023 N   0  0  0  0  0  0  0  0  0  0  0  0
    3.4258    9.5760    2.2960 C   0  0  0  0  0  0  0  0  0  0  0  0
    4.2226    9.9958    1.6756 H   0  0  0  0  0  0  0  0  0  0  0  0
    3.8645    9.0643    3.1515 H   0  0  0  0  0  0  0  0  0  0  0  0
    2.7771   10.3824    2.6452 H   0  0  0  0  0  0  0  0  0  0  0  0
    1.8970    7.6315    1.9891 C   0  0  0  0  0  0  0  0  0  0  0  0
    1.8113    7.4239    3.0356 H   0  0  0  0  0  0  0  0  0  0  0  0
    1.3329    7.0195    0.9205 C   0  0  0  0  0  0  0  0  0  0  0  0
    0.6754    6.1771    0.8638 H   0  0  0  0  0  0  0  0  0  0  0  0
    1.7702    7.6842   -0.1915 N   0  0  0  0  0  0  0  0  0  0  0  0
    1.4270    7.3351   -1.5526 C   0  0  0  0  0  0  0  0  0  0  0  0
    1.9988    8.0085   -2.2066 H   0  0  0  0  0  0  0  0  0  0  0  0
    0.3563    7.4998   -1.7078 H   0  0  0  0  0  0  0  0  0  0  0  0
    1.7887    5.8990   -1.8344 C   0  0  0  0  0  0  0  0  0  0  0  0
    3.1298    5.5363   -1.8995 C   0  0  0  0  0  0  0  0  0  0  0  0
    3.8913    6.2954   -1.7879 H   0  0  0  0  0  0  0  0  0  0  0  0
    3.4849    4.2188   -2.1200 C   0  0  0  0  0  0  0  0  0  0  0  0
    4.5191    3.9210   -2.1779 H   0  0  0  0  0  0  0  0  0  0  0  0
    2.8232    1.9864   -2.4852 F   0  0  0  0  0  0  0  0  0  0  0  0
    2.4852    3.2748   -2.2739 C   0  0  0  0  0  0  0  0  0  0  0  0
    1.1457    3.6115   -2.2168 C   0  0  0  0  0  0  0  0  0  0  0  0
    0.3936    2.8498   -2.3459 H   0  0  0  0  0  0  0  0  0  0  0  0
    0.8042    4.9336   -1.9922 C   0  0  0  0  0  0  0  0  0  0  0  0
   -0.2391    5.2114   -1.9475 H   0  0  0  0  0  0  0  0  0  0  0  0
    0.9367   12.3405   -1.7326 C   0  0  0  0  0  0  0  0  0  0  0  0
    0.3210   13.1535   -1.3666 H   0  0  0  0  0  0  0  0  0  0  0  0
    0.3127   11.5344   -2.1040 H   0  0  0  0  0  0  0  0  0  0  0  0
    1.6280   12.6706   -2.4997 H   0  0  0  0  0  0  0  0  0  0  0  0
    1.9362   11.6878   -0.3623 S   0  0  0  0  0  0  0  0  0  0  0  0
    1.0196   11.2984    0.7084 O   0  0  0  0  0  1  0  0  0  0  0  0
    2.7241   13.2444    0.1504 C   0  0  0  0  0  0  0  0  0  0  0  0
    1.9487   13.9645    0.3819 H   0  0  0  0  0  0  0  0  0  0  0  0
    3.3529   13.5716   -0.6691 H   0  0  0  0  0  0  0  0  0  0  0  0
    3.3249   13.0437    1.0307 H   0  0  0  0  0  0  0  0  0  0  0  0
  1 33  1  0  0  0  0
  1  4  2  0  0  0  0
  2  1  1  0  0  0  0
  3  1  1  0  0  0  0
  4  5  1  0  0  0  0
  5 10  1  0  0  0  0
  5  6  1  0  0  0  0
  6  9  1  0  0  0  0
  6  8  1  0  0  0  0
  7  6  1  0  0  0  0
 10 11  1  0  0  0  0
 12 10  2  0  0  0  0
 13 12  1  0  0  0  0
 14  4  1  0  0  0  0
 14 12  1  0  0  0  0
 15 14  1  0  0  0  0
 16 15  1  0  0  0  0
 17 15  1  0  0  0  0
 18 15  1  0  0  0  0
 19 18  1  0  0  0  0
 19 20  1  0  0  0  0
 21 19  2  0  0  0  0
 22 21  1  0  0  0  0
 23 24  1  0  0  0  0
 24 25  2  0  0  0  0
 24 21  1  0  0  0  0
 25 27  1  0  0  0  0
 26 25  1  0  0  0  0
 27 28  1  0  0  0  0
 27 18  2  0  0  0  0
 29 30  1  0  0  0  0
 29 33  1  0  0  0  0
 31 29  1  0  0  0  0
 32 29  1  0  0  0  0
 33 35  1  0  0  0  0
 33 34  1  0  0  0  0
 35 36  1  0  0  0  0
 35 38  1  0  0  0  0
 37 35  1  0  0  0  0
M  END
$$$$
