CSD_code = LIWLAH | q = 0 | S = 0 | Stoichiometry = C9H9ClIrNO2 | MND = 4
 OpenBabel04212202063D

 23 23  0  0  0  0  0  0  0  0999 V2000
   10.7532    8.3610    1.6034 Ir  0  0  0  0  0  0  0  0  0  0  0  0
   10.5318    9.9347    3.1970 Cl  0  0  0  0  0  0  0  0  0  0  0  0
    9.5956    7.1763    2.9871 N   0  0  0  0  0  4  0  0  0  0  0  0
   10.2372    6.6951    3.6206 H   0  0  0  0  0  0  0  0  0  0  0  0
    9.1630    7.9458    3.5110 H   0  0  0  0  0  0  0  0  0  0  0  0
   12.4135   10.2900    0.0064 O   0  0  0  0  0  1  0  0  0  0  0  0
   10.8304    6.0562   -0.3315 O   0  0  0  0  0  1  0  0  0  0  0  0
    8.6134    6.2582    2.4980 C   0  0  0  0  0  0  0  0  0  0  0  0
    8.8106    4.8917    2.6359 C   0  0  0  0  0  0  0  0  0  0  0  0
    9.7006    4.5275    3.1305 H   0  0  0  0  0  0  0  0  0  0  0  0
    7.8825    3.9980    2.1334 C   0  0  0  0  0  0  0  0  0  0  0  0
    8.0453    2.9369    2.2422 H   0  0  0  0  0  0  0  0  0  0  0  0
    6.7499    4.4715    1.4955 C   0  0  0  0  0  0  0  0  0  0  0  0
    6.0208    3.7803    1.1020 H   0  0  0  0  0  0  0  0  0  0  0  0
    6.5551    5.8344    1.3560 C   0  0  0  0  0  0  0  0  0  0  0  0
    5.6736    6.2004    0.8508 H   0  0  0  0  0  0  0  0  0  0  0  0
    7.4760    6.7473    1.8492 C   0  0  0  0  0  0  0  0  0  0  0  0
    7.2861    8.2206    1.6765 C   0  0  0  0  0  0  0  0  0  0  0  0
    6.4331    8.4265    1.0359 H   0  0  0  0  0  0  0  0  0  0  0  0
    8.1799    8.6695    1.2224 H   0  0  0  0  0  0  0  0  0  0  0  0
    7.1200    8.7119    2.6363 H   0  0  0  0  0  0  0  0  0  0  0  0
   11.7827    9.5184    0.5697 C   0  0  0  0  0  2  0  0  0  0  0  0
   10.8267    6.9510    0.3897 C   0  0  0  0  0  2  0  0  0  0  0  0
  1  3  1  0  0  0  0
  1  2  1  0  0  0  0
  3  5  1  0  0  0  0
  3  4  1  0  0  0  0
  6 22  1  0  0  0  0
  7 23  1  0  0  0  0
  8  9  1  0  0  0  0
  8  3  1  0  0  0  0
  9 10  1  0  0  0  0
 11 12  1  0  0  0  0
 11  9  2  0  0  0  0
 13 11  1  0  0  0  0
 14 13  1  0  0  0  0
 15 13  2  0  0  0  0
 15 17  1  0  0  0  0
 16 15  1  0  0  0  0
 17  8  2  0  0  0  0
 18 17  1  0  0  0  0
 18 21  1  0  0  0  0
 19 18  1  0  0  0  0
 20 18  1  0  0  0  0
 22  1  1  0  0  0  0
 23  1  1  0  0  0  0
M  END
$$$$
