CSD_code = LIWNAI | q = 0 | S = 0 | Stoichiometry = C19H32ClOPPd | MND = 3
 OpenBabel04212202063D

 55 55  0  0  0  0  0  0  0  0999 V2000
    7.9498   12.3139   10.0054 Pd  0  0  0  0  0  0  0  0  0  0  0  0
    5.9422   12.2798   11.0673 P   0  0  0  0  0  4  0  0  0  0  0  0
    4.3242   12.8496   10.2258 C   0  0  0  0  0  0  0  0  0  0  0  0
    6.4130   13.5099   12.4672 C   0  0  0  0  0  0  0  0  0  0  0  0
    7.6254   11.5928    5.9055 C   0  0  0  0  0  0  0  0  0  0  0  0
    7.5498   10.5168    5.8504 H   0  0  0  0  0  0  0  0  0  0  0  0
    5.7226   10.5260   11.8174 C   0  0  0  0  0  0  0  0  0  0  0  0
    5.3043   13.9275   13.4300 C   0  0  0  0  0  0  0  0  0  0  0  0
    5.7350   14.5306   14.2297 H   0  0  0  0  0  0  0  0  0  0  0  0
    4.8174   13.0696   13.8838 H   0  0  0  0  0  0  0  0  0  0  0  0
    4.5500   14.5330   12.9341 H   0  0  0  0  0  0  0  0  0  0  0  0
    7.5635   12.8549   13.2435 C   0  0  0  0  0  0  0  0  0  0  0  0
    8.0457   13.5980   13.8795 H   0  0  0  0  0  0  0  0  0  0  0  0
    8.3265   12.4701   12.5475 H   0  0  0  0  0  0  0  0  0  0  0  0
    7.2201   12.0531   13.8899 H   0  0  0  0  0  0  0  0  0  0  0  0
    7.0327   14.7584   11.8153 C   0  0  0  0  0  0  0  0  0  0  0  0
    7.5579   15.3362   12.5762 H   0  0  0  0  0  0  0  0  0  0  0  0
    6.2997   15.4156   11.3612 H   0  0  0  0  0  0  0  0  0  0  0  0
    7.7759   14.4688   11.0506 H   0  0  0  0  0  0  0  0  0  0  0  0
    7.7871   13.5906    7.2520 C   0  0  0  0  0  0  0  0  0  0  0  0
    7.8534   14.0688    8.2404 H   0  0  0  0  0  0  0  0  0  0  0  0
    4.9139   10.4449   13.1119 C   0  0  0  0  0  0  0  0  0  0  0  0
    4.7898    9.3967   13.3835 H   0  0  0  0  0  0  0  0  0  0  0  0
    3.9245   10.8785   12.9965 H   0  0  0  0  0  0  0  0  0  0  0  0
    5.4163   10.9376   13.9397 H   0  0  0  0  0  0  0  0  0  0  0  0
    7.7807   13.7446    4.8583 C   0  0  0  0  0  0  0  0  0  0  0  0
    7.8257   14.3458    3.9623 H   0  0  0  0  0  0  0  0  0  0  0  0
    7.8342   14.3553    6.1032 C   0  0  0  0  0  0  0  0  0  0  0  0
    7.9212   15.4295    6.1721 H   0  0  0  0  0  0  0  0  0  0  0  0
    5.0567    9.6433   10.7563 C   0  0  0  0  0  0  0  0  0  0  0  0
    5.0844    8.6051   11.0859 H   0  0  0  0  0  0  0  0  0  0  0  0
    5.6009    9.7063    9.8153 H   0  0  0  0  0  0  0  0  0  0  0  0
    4.0137    9.9016   10.6015 H   0  0  0  0  0  0  0  0  0  0  0  0
    7.6771   12.3662    4.7614 C   0  0  0  0  0  0  0  0  0  0  0  0
    7.6415   11.8933    3.7913 H   0  0  0  0  0  0  0  0  0  0  0  0
   10.1617   12.4856    9.6141 Cl  0  0  0  0  0  0  0  0  0  0  0  0
    7.4926   10.1546    8.3968 O   0  0  0  0  0  0  0  0  0  0  0  0
    7.6834   12.1992    7.1612 C   0  0  0  0  0  0  0  0  0  0  0  0
    3.0432   12.6058   11.0188 C   0  0  0  0  0  0  0  0  0  0  0  0
    2.2069   13.0669   10.4934 H   0  0  0  0  0  0  0  0  0  0  0  0
    3.0973   13.0433   12.0115 H   0  0  0  0  0  0  0  0  0  0  0  0
    2.8242   11.5466   11.1156 H   0  0  0  0  0  0  0  0  0  0  0  0
    4.4610   14.3451    9.9254 C   0  0  0  0  0  0  0  0  0  0  0  0
    3.6821   14.6481    9.2266 H   0  0  0  0  0  0  0  0  0  0  0  0
    5.4254   14.5468    9.4556 H   0  0  0  0  0  0  0  0  0  0  0  0
    4.3481   14.9520   10.8187 H   0  0  0  0  0  0  0  0  0  0  0  0
    7.1265    9.9294   12.0362 C   0  0  0  0  0  0  0  0  0  0  0  0
    7.0532    8.8429   12.0541 H   0  0  0  0  0  0  0  0  0  0  0  0
    7.5717   10.2344   12.9782 H   0  0  0  0  0  0  0  0  0  0  0  0
    7.8121   10.1940   11.2100 H   0  0  0  0  0  0  0  0  0  0  0  0
    7.6453   11.3416    8.3616 C   0  0  0  0  0  0  0  0  0  0  0  0
    4.2484   12.1607    8.8574 C   0  0  0  0  0  0  0  0  0  0  0  0
    3.4722   12.6328    8.2563 H   0  0  0  0  0  0  0  0  0  0  0  0
    4.0141   11.1055    8.9240 H   0  0  0  0  0  0  0  0  0  0  0  0
    5.1974   12.2706    8.3298 H   0  0  0  0  0  0  0  0  0  0  0  0
  1  2  1  0  0  0  0
  2  7  1  0  0  0  0
  2  4  1  0  0  0  0
  3 39  1  0  0  0  0
  3  2  1  0  0  0  0
  4 12  1  0  0  0  0
  4  8  1  0  0  0  0
  5 38  1  0  0  0  0
  6  5  1  0  0  0  0
  7 47  1  0  0  0  0
  7 22  1  0  0  0  0
  8 10  1  0  0  0  0
  8  9  1  0  0  0  0
 11  8  1  0  0  0  0
 12 13  1  0  0  0  0
 12 15  1  0  0  0  0
 14 12  1  0  0  0  0
 16  4  1  0  0  0  0
 16 17  1  0  0  0  0
 18 16  1  0  0  0  0
 19 16  1  0  0  0  0
 20 21  1  0  0  0  0
 22 23  1  0  0  0  0
 22 25  1  0  0  0  0
 24 22  1  0  0  0  0
 26 28  2  0  0  0  0
 27 26  1  0  0  0  0
 28 29  1  0  0  0  0
 28 20  1  0  0  0  0
 30 31  1  0  0  0  0
 30  7  1  0  0  0  0
 32 30  1  0  0  0  0
 33 30  1  0  0  0  0
 34 26  1  0  0  0  0
 34  5  2  0  0  0  0
 35 34  1  0  0  0  0
 36  1  1  0  0  0  0
 38 20  2  0  0  0  0
 38 51  1  0  0  0  0
 39 42  1  0  0  0  0
 39 41  1  0  0  0  0
 40 39  1  0  0  0  0
 43  3  1  0  0  0  0
 43 46  1  0  0  0  0
 44 43  1  0  0  0  0
 45 43  1  0  0  0  0
 47 48  1  0  0  0  0
 47 49  1  0  0  0  0
 50 47  1  0  0  0  0
 51 37  2  0  0  0  0
 51  1  1  0  0  0  0
 52 54  1  0  0  0  0
 52  3  1  0  0  0  0
 53 52  1  0  0  0  0
 55 52  1  0  0  0  0
M  END
$$$$
