CSD_code = LIWVES | q = 0 | S = 0 | Stoichiometry = C26H31Cl2N2NbO2 | MND = 11
 OpenBabel04212202063D

 64 67  0  0  1  0  0  0  0  0999 V2000
    1.5686    0.5512    4.7779 Nb  0  0  0  0  0  0  0  0  0  0  0  0
    2.9014   -1.2653    5.5881 Cl  0  0  0  0  0  0  0  0  0  0  0  0
    1.5843   -0.8335    2.8209 Cl  0  0  0  0  0  0  0  0  0  0  0  0
    2.7986    1.9132   11.5992 O   0  0  0  0  0  0  0  0  0  0  0  0
   -3.0153    3.6161    0.2970 O   0  0  0  0  0  0  0  0  0  0  0  0
    0.6756    0.5185    6.6398 N   0  0  0  0  0  0  0  0  0  0  0  0
   -0.4321    0.8370    4.3772 N   0  0  0  0  0  0  0  0  0  0  0  0
    3.7478    1.8171    5.1912 C   0  0  0  0  0  0  0  0  0  0  0  0
    3.7337    1.4596    3.8158 C   0  0  0  0  0  0  0  0  0  0  0  0
    2.6703    2.1600    3.1788 C   0  0  1  0  0  3  0  0  0  0  0  0
    1.9845    2.9153    4.1752 C   0  0  2  0  0  0  0  0  0  0  0  0
    2.6536    2.7000    5.4265 C   0  0  2  0  0  3  0  0  0  0  0  0
    4.8475    1.4729    6.1475 C   0  0  0  0  0  0  0  0  0  0  0  0
    4.7653    0.6254    3.1230 C   0  0  0  0  0  0  0  0  0  0  0  0
    2.4743    2.2487    1.6966 C   0  0  0  0  0  0  0  0  0  0  0  0
    0.9877    4.0097    3.9380 C   0  0  0  0  0  0  0  0  0  0  0  0
    2.4367    3.5493    6.6426 C   0  0  0  0  0  0  0  0  0  0  0  0
    2.0967    2.7297   12.5031 C   0  0  0  0  0  0  0  0  0  0  0  0
    2.2097    1.6039   10.4092 C   0  0  0  0  0  0  0  0  0  0  0  0
    2.9337    0.7575    9.5674 C   0  0  0  0  0  0  0  0  0  0  0  0
    2.4388    0.3846    8.3374 C   0  0  0  0  0  0  0  0  0  0  0  0
    1.1935    0.8444    7.8995 C   0  0  0  0  0  0  0  0  0  0  0  0
    0.4747    1.6896    8.7491 C   0  0  0  0  0  0  0  0  0  0  0  0
    0.9703    2.0675    9.9837 C   0  0  0  0  0  0  0  0  0  0  0  0
   -0.6714    0.3077    6.6060 C   0  0  0  0  0  0  0  0  0  0  0  0
   -1.2637    0.4806    5.3980 C   0  0  0  0  0  0  0  0  0  0  0  0
   -1.0629    1.4949    3.3110 C   0  0  0  0  0  0  0  0  0  0  0  0
   -0.7534    1.2358    1.9787 C   0  0  0  0  0  0  0  0  0  0  0  0
   -1.3818    1.9181    0.9509 C   0  0  0  0  0  0  0  0  0  0  0  0
   -2.3399    2.8859    1.2292 C   0  0  0  0  0  0  0  0  0  0  0  0
   -2.6532    3.1561    2.5627 C   0  0  0  0  0  0  0  0  0  0  0  0
   -2.0318    2.4718    3.5818 C   0  0  0  0  0  0  0  0  0  0  0  0
   -2.7757    3.3510   -1.0636 C   0  0  0  0  0  0  0  0  0  0  0  0
    4.5946    1.7686    7.1628 H   0  0  0  0  0  0  0  0  0  0  0  0
    5.7624    1.9898    5.8508 H   0  0  0  0  0  0  0  0  0  0  0  0
    5.0469    0.4016    6.1386 H   0  0  0  0  0  0  0  0  0  0  0  0
    5.1723   -0.1209    3.8036 H   0  0  0  0  0  0  0  0  0  0  0  0
    5.5854    1.2524    2.7667 H   0  0  0  0  0  0  0  0  0  0  0  0
    4.3293    0.1106    2.2680 H   0  0  0  0  0  0  0  0  0  0  0  0
    3.2651    2.8629    1.2609 H   0  0  0  0  0  0  0  0  0  0  0  0
    1.5129    2.6955    1.4534 H   0  0  0  0  0  0  0  0  0  0  0  0
    2.5220    1.2605    1.2408 H   0  0  0  0  0  0  0  0  0  0  0  0
    1.5049    4.9706    3.8886 H   0  0  0  0  0  0  0  0  0  0  0  0
    0.4477    3.8623    3.0056 H   0  0  0  0  0  0  0  0  0  0  0  0
    0.2616    4.0578    4.7479 H   0  0  0  0  0  0  0  0  0  0  0  0
    1.3748    3.7034    6.8270 H   0  0  0  0  0  0  0  0  0  0  0  0
    2.8737    3.0961    7.5291 H   0  0  0  0  0  0  0  0  0  0  0  0
    2.9000    4.5269    6.4904 H   0  0  0  0  0  0  0  0  0  0  0  0
    2.7384    2.8204   13.3778 H   0  0  0  0  0  0  0  0  0  0  0  0
    1.1450    2.2770   12.7981 H   0  0  0  0  0  0  0  0  0  0  0  0
    1.9115    3.7252   12.0871 H   0  0  0  0  0  0  0  0  0  0  0  0
    3.8902    0.3941    9.9088 H   0  0  0  0  0  0  0  0  0  0  0  0
    3.0042   -0.2918    7.7159 H   0  0  0  0  0  0  0  0  0  0  0  0
   -0.4796    2.0809    8.4259 H   0  0  0  0  0  0  0  0  0  0  0  0
    0.3797    2.7272   10.6000 H   0  0  0  0  0  0  0  0  0  0  0  0
   -1.2120    0.0603    7.5113 H   0  0  0  0  0  0  0  0  0  0  0  0
   -2.3302    0.3931    5.2309 H   0  0  0  0  0  0  0  0  0  0  0  0
   -0.0297    0.4722    1.7398 H   0  0  0  0  0  0  0  0  0  0  0  0
   -1.1163    1.6748   -0.0658 H   0  0  0  0  0  0  0  0  0  0  0  0
   -3.3932    3.9120    2.7729 H   0  0  0  0  0  0  0  0  0  0  0  0
   -2.2760    2.7050    4.6083 H   0  0  0  0  0  0  0  0  0  0  0  0
   -1.7369    3.5615   -1.3387 H   0  0  0  0  0  0  0  0  0  0  0  0
   -3.4353    4.0196   -1.6145 H   0  0  0  0  0  0  0  0  0  0  0  0
   -3.0161    2.3142   -1.3193 H   0  0  0  0  0  0  0  0  0  0  0  0
  1  2  1  0  0  0  0
  1  6  1  0  0  0  0
  3  1  1  0  0  0  0
  4 18  1  0  0  0  0
  5 30  1  0  0  0  0
  6 22  1  0  0  0  0
  7  1  1  0  0  0  0
  7 26  1  0  0  0  0
  8 12  1  0  0  0  0
  8 13  1  0  0  0  0
  9  8  2  0  0  0  0
 10 15  1  6  0  0  0
 10  9  1  0  0  0  0
 10 11  1  0  0  0  0
 11 16  1  6  0  0  0
 11  1  1  0  0  0  0
 11 12  1  0  0  0  0
 12 17  1  6  0  0  0
 13 34  1  0  0  0  0
 14 37  1  0  0  0  0
 14  9  1  0  0  0  0
 16 45  1  0  0  0  0
 17 46  1  0  0  0  0
 17 47  1  0  0  0  0
 18 50  1  0  0  0  0
 18 49  1  0  0  0  0
 19  4  1  0  0  0  0
 20 52  1  0  0  0  0
 20 19  2  0  0  0  0
 21 20  1  0  0  0  0
 22 21  2  0  0  0  0
 22 23  1  0  0  0  0
 23 24  2  0  0  0  0
 24 19  1  0  0  0  0
 24 55  1  0  0  0  0
 25  6  1  0  0  0  0
 25 56  1  0  0  0  0
 26 25  2  0  0  0  0
 27 32  1  0  0  0  0
 27  7  1  0  0  0  0
 28 27  2  0  0  0  0
 29 30  2  0  0  0  0
 29 28  1  0  0  0  0
 30 31  1  0  0  0  0
 31 60  1  0  0  0  0
 31 32  2  0  0  0  0
 32 61  1  0  0  0  0
 33  5  1  0  0  0  0
 35 13  1  0  0  0  0
 36 13  1  0  0  0  0
 38 14  1  0  0  0  0
 39 14  1  0  0  0  0
 40 15  1  0  0  0  0
 41 15  1  0  0  0  0
 42 15  1  0  0  0  0
 43 16  1  0  0  0  0
 44 16  1  0  0  0  0
 48 17  1  0  0  0  0
 51 18  1  0  0  0  0
 53 21  1  0  0  0  0
 54 23  1  0  0  0  0
 57 26  1  0  0  0  0
 58 28  1  0  0  0  0
 59 29  1  0  0  0  0
 62 33  1  0  0  0  0
 63 33  1  0  0  0  0
 64 33  1  0  0  0  0
M  END
$$$$
