CSD_code = LIXGOQ | q = 0 | S = 0 | Stoichiometry = C30H25Cl2N3O2PRe | MND = 6
 OpenBabel04212202063D

 64 69  0  0  1  0  0  0  0  0999 V2000
   -4.3918   10.7177    7.2073 Re  0  0  0  0  0  0  0  0  0  0  0  0
   -6.0069   11.8392    6.4081 N   0  0  0  0  0  0  0  0  0  0  0  0
   -3.3211   12.0368    7.6360 N   0  0  0  0  0  2  0  0  0  0  0  0
   -8.2722   12.9696    5.2829 N   0  0  0  0  0  0  0  0  0  0  0  0
   -5.7015    9.3217    6.6915 O   0  0  0  0  0  0  0  0  0  0  0  0
   -7.7017    8.7995    5.8500 O   0  0  0  0  0  0  0  0  0  0  0  0
   -5.4634   10.6830    9.3413 Cl  0  0  0  0  0  0  0  0  0  0  0  0
   -3.6243   10.5502    4.9701 Cl  0  0  0  0  0  0  0  0  0  0  0  0
   -2.9445    8.9663    8.0840 P   0  0  0  0  0  4  0  0  0  0  0  0
   -1.5517    9.6995    8.9982 C   0  0  0  0  0  0  0  0  0  0  0  0
   -1.8705   10.6512    9.9669 C   0  0  0  0  0  0  0  0  0  0  0  0
   -2.9109   10.8818   10.1556 H   0  0  0  0  0  0  0  0  0  0  0  0
   -0.8652   11.2857   10.6702 C   0  0  0  0  0  0  0  0  0  0  0  0
   -1.1153   12.0247   11.4163 H   0  0  0  0  0  0  0  0  0  0  0  0
    0.4621   10.9786   10.4122 C   0  0  0  0  0  0  0  0  0  0  0  0
    1.2485   11.4821   10.9545 H   0  0  0  0  0  0  0  0  0  0  0  0
    0.7797   10.0218    9.4636 C   0  0  0  0  0  0  0  0  0  0  0  0
    1.8129    9.7737    9.2703 H   0  0  0  0  0  0  0  0  0  0  0  0
   -0.2223    9.3781    8.7565 C   0  0  0  0  0  0  0  0  0  0  0  0
    0.0304    8.6295    8.0199 H   0  0  0  0  0  0  0  0  0  0  0  0
   -2.2095    7.8975    6.8220 C   0  0  0  0  0  0  0  0  0  0  0  0
   -1.3955    8.5006    5.8634 C   0  0  0  0  0  0  0  0  0  0  0  0
   -1.2189    9.5659    5.9152 H   0  0  0  0  0  0  0  0  0  0  0  0
   -0.8478    7.7409    4.8483 C   0  0  0  0  0  0  0  0  0  0  0  0
   -0.2247    8.2105    4.1022 H   0  0  0  0  0  0  0  0  0  0  0  0
   -1.1127    6.3815    4.7790 C   0  0  0  0  0  0  0  0  0  0  0  0
   -0.6925    5.7902    3.9790 H   0  0  0  0  0  0  0  0  0  0  0  0
   -1.9231    5.7819    5.7283 C   0  0  0  0  0  0  0  0  0  0  0  0
   -2.1337    4.7241    5.6702 H   0  0  0  0  0  0  0  0  0  0  0  0
   -2.4756    6.5352    6.7500 C   0  0  0  0  0  0  0  0  0  0  0  0
   -3.1132    6.0663    7.4862 H   0  0  0  0  0  0  0  0  0  0  0  0
   -3.7424    7.8510    9.2693 C   0  0  0  0  0  0  0  0  0  0  0  0
   -3.1466    7.5450   10.4884 C   0  0  0  0  0  0  0  0  0  0  0  0
   -2.1963    7.9862   10.7524 H   0  0  0  0  0  0  0  0  0  0  0  0
   -3.7794    6.6804   11.3636 C   0  0  0  0  0  0  0  0  0  0  0  0
   -3.3171    6.4476   12.3116 H   0  0  0  0  0  0  0  0  0  0  0  0
   -5.0019    6.1203   11.0318 C   0  0  0  0  0  0  0  0  0  0  0  0
   -5.4945    5.4519   11.7224 H   0  0  0  0  0  0  0  0  0  0  0  0
   -5.5962    6.4217    9.8168 C   0  0  0  0  0  0  0  0  0  0  0  0
   -6.5516    5.9907    9.5571 H   0  0  0  0  0  0  0  0  0  0  0  0
   -4.9700    7.2826    8.9355 C   0  0  0  0  0  0  0  0  0  0  0  0
   -5.4386    7.5276    7.9924 H   0  0  0  0  0  0  0  0  0  0  0  0
   -6.8334    9.5791    6.1736 C   0  0  0  0  0  0  0  0  0  0  0  0
   -7.0269   11.0878    5.9881 C   0  0  2  0  0  3  0  0  0  0  0  0
   -8.1597   11.6616    5.4258 C   0  0  0  0  0  0  0  0  0  0  0  0
   -8.9753   11.0376    5.0905 H   0  0  0  0  0  0  0  0  0  0  0  0
   -7.2558   13.7091    5.6996 C   0  0  0  0  0  0  0  0  0  0  0  0
   -7.3555   14.7779    5.5773 H   0  0  0  0  0  0  0  0  0  0  0  0
   -6.1150   13.1589    6.2650 C   0  0  0  0  0  0  0  0  0  0  0  0
   -5.2837   13.7628    6.6010 H   0  0  0  0  0  0  0  0  0  0  0  0
   -2.4929   12.9976    8.0354 C   0  0  0  0  0  0  0  0  0  0  0  0
   -1.2056   13.1091    7.4746 C   0  0  0  0  0  0  0  0  0  0  0  0
   -0.9328   12.4235    6.6880 H   0  0  0  0  0  0  0  0  0  0  0  0
   -0.3322   14.0636    7.9413 C   0  0  0  0  0  0  0  0  0  0  0  0
    0.6557   14.1349    7.5102 H   0  0  0  0  0  0  0  0  0  0  0  0
   -0.6984   14.9419    8.9594 C   0  0  0  0  0  0  0  0  0  0  0  0
   -1.9784   14.8388    9.5047 C   0  0  0  0  0  0  0  0  0  0  0  0
   -2.2723   15.5166   10.2930 H   0  0  0  0  0  0  0  0  0  0  0  0
   -2.8675   13.8888    9.0616 C   0  0  0  0  0  0  0  0  0  0  0  0
   -3.8537   13.7895    9.4885 H   0  0  0  0  0  0  0  0  0  0  0  0
    0.2472   15.9907    9.4486 C   0  0  0  0  0  0  0  0  0  0  0  0
    0.1807   16.0976   10.5291 H   0  0  0  0  0  0  0  0  0  0  0  0
   -0.0067   16.9539    9.0049 H   0  0  0  0  0  0  0  0  0  0  0  0
    1.2717   15.7520    9.1762 H   0  0  0  0  0  0  0  0  0  0  0  0
  1  3  1  0  0  0  0
  1  9  1  0  0  0  0
  1  7  1  0  0  0  0
  2  1  1  0  0  0  0
  3 51  1  0  0  0  0
  4 45  2  0  0  0  0
  4 47  1  0  0  0  0
  5  1  1  0  0  0  0
  6 43  2  0  0  0  0
  8  1  1  0  0  0  0
  9 10  1  0  0  0  0
  9 32  1  0  0  0  0
 10 11  1  0  0  0  0
 11 12  1  0  0  0  0
 11 13  2  0  0  0  0
 13 14  1  0  0  0  0
 15 13  1  0  0  0  0
 15 16  1  0  0  0  0
 17 15  2  0  0  0  0
 18 17  1  0  0  0  0
 19 10  2  0  0  0  0
 19 17  1  0  0  0  0
 20 19  1  0  0  0  0
 21  9  1  0  0  0  0
 22 23  1  0  0  0  0
 22 21  2  0  0  0  0
 24 22  1  0  0  0  0
 25 24  1  0  0  0  0
 26 24  2  0  0  0  0
 26 28  1  0  0  0  0
 27 26  1  0  0  0  0
 28 30  2  0  0  0  0
 29 28  1  0  0  0  0
 30 21  1  0  0  0  0
 30 31  1  0  0  0  0
 32 33  1  0  0  0  0
 33 34  1  0  0  0  0
 33 35  2  0  0  0  0
 35 36  1  0  0  0  0
 37 35  1  0  0  0  0
 37 38  1  0  0  0  0
 39 37  2  0  0  0  0
 40 39  1  0  0  0  0
 41 32  2  0  0  0  0
 41 39  1  0  0  0  0
 42 41  1  0  0  0  0
 43  5  1  0  0  0  0
 44 45  1  6  0  0  0
 44 43  1  0  0  0  0
 44  2  1  0  0  0  0
 46 45  1  0  0  0  0
 47 49  2  0  0  0  0
 48 47  1  0  0  0  0
 49  2  1  0  0  0  0
 49 50  1  0  0  0  0
 51 59  1  0  0  0  0
 52 54  1  0  0  0  0
 52 51  2  0  0  0  0
 53 52  1  0  0  0  0
 54 56  2  0  0  0  0
 55 54  1  0  0  0  0
 56 61  1  0  0  0  0
 56 57  1  0  0  0  0
 57 58  1  0  0  0  0
 59 60  1  0  0  0  0
 59 57  2  0  0  0  0
 61 62  1  0  0  0  0
 63 61  1  0  0  0  0
 64 61  1  0  0  0  0
M  END
$$$$
