CSD_code = LIXHIJ | q = 0 | S = 0 | Stoichiometry = C10H20Cl2N2O4Pt | MND = 6
 OpenBabel04212202063D

 39 40  0  0  1  0  0  0  0  0999 V2000
    0.3037    1.7819    5.3955 Pt  0  0  0  0  0  0  0  0  0  0  0  0
    1.1746    0.8698    7.3155 Cl  0  0  0  0  0  0  0  0  0  0  0  0
    0.9327    3.8994    6.0232 Cl  0  0  0  0  0  0  0  0  0  0  0  0
   -0.4583    2.7128    3.6217 N   0  0  0  0  0  4  0  0  0  0  0  0
   -0.2692   -0.2233    4.9002 N   0  0  0  0  0  4  0  0  0  0  0  0
   -0.9108    1.9720    2.4366 C   0  0  2  0  0  0  0  0  0  0  0  0
   -2.3184    1.4150    2.6488 C   0  0  0  0  0  0  0  0  0  0  0  0
   -2.3910    0.3661    3.7612 C   0  0  0  0  0  0  0  0  0  0  0  0
   -1.1687   -0.5680    3.7912 C   0  0  1  0  0  0  0  0  0  0  0  0
   -0.4220   -0.5420    2.4577 C   0  0  0  0  0  0  0  0  0  0  0  0
    0.0799    0.8522    2.0737 C   0  0  0  0  0  0  0  0  0  0  0  0
   -1.4476    2.0352    6.4814 O   0  0  0  0  0  0  0  0  0  0  0  0
   -2.3882    3.6283    5.2401 O   0  0  0  0  0  0  0  0  0  0  0  0
   -2.2812    2.9816    6.2774 C   0  0  0  0  0  0  0  0  0  0  0  0
   -3.2114    3.2341    7.4498 C   0  0  0  0  0  0  0  0  0  0  0  0
    2.1845    1.6350    4.5290 O   0  0  0  0  0  0  0  0  0  0  0  0
    2.3471   -0.5853    4.4420 O   0  0  0  0  0  0  0  0  0  0  0  0
    2.8337    0.5408    4.4142 C   0  0  0  0  0  0  0  0  0  0  0  0
    4.3196    0.7401    4.1776 C   0  0  0  0  0  0  0  0  0  0  0  0
   -1.2478    3.2595    4.0422 H   0  0  0  0  0  0  0  0  0  0  0  0
    0.2834    3.3691    3.3761 H   0  0  0  0  0  0  0  0  0  0  0  0
    0.6813   -0.6399    4.7513 H   0  0  0  0  0  0  0  0  0  0  0  0
   -0.6333   -0.5783    5.7847 H   0  0  0  0  0  0  0  0  0  0  0  0
   -0.9607    2.6860    1.6019 H   0  0  0  0  0  0  0  0  0  0  0  0
   -2.6457    0.9758    1.7051 H   0  0  0  0  0  0  0  0  0  0  0  0
   -2.9976    2.2340    2.8884 H   0  0  0  0  0  0  0  0  0  0  0  0
   -2.4726    0.8596    4.7288 H   0  0  0  0  0  0  0  0  0  0  0  0
   -3.3015   -0.2183    3.6242 H   0  0  0  0  0  0  0  0  0  0  0  0
   -1.5139   -1.5989    3.9560 H   0  0  0  0  0  0  0  0  0  0  0  0
   -1.1028   -0.9137    1.6903 H   0  0  0  0  0  0  0  0  0  0  0  0
    0.4279   -1.2238    2.5074 H   0  0  0  0  0  0  0  0  0  0  0  0
    1.0271    1.0537    2.5723 H   0  0  0  0  0  0  0  0  0  0  0  0
    0.2763    0.8638    1.0011 H   0  0  0  0  0  0  0  0  0  0  0  0
   -3.2729    2.3529    8.0804 H   0  0  0  0  0  0  0  0  0  0  0  0
   -4.1909    3.5281    7.0842 H   0  0  0  0  0  0  0  0  0  0  0  0
   -2.7891    4.0541    8.0271 H   0  0  0  0  0  0  0  0  0  0  0  0
    4.5063    1.7203    3.7506 H   0  0  0  0  0  0  0  0  0  0  0  0
    4.6984   -0.0496    3.5357 H   0  0  0  0  0  0  0  0  0  0  0  0
    4.8128    0.6768    5.1454 H   0  0  0  0  0  0  0  0  0  0  0  0
  1  3  1  0  0  0  0
  1 12  1  0  0  0  0
  1  2  1  0  0  0  0
  4 20  1  0  0  0  0
  4  1  1  0  0  0  0
  5  1  1  0  0  0  0
  5 23  1  0  0  0  0
  6 24  1  6  0  0  0
  6  7  1  0  0  0  0
  6  4  1  0  0  0  0
  7 26  1  0  0  0  0
  7  8  1  0  0  0  0
  8  9  1  0  0  0  0
  8 27  1  0  0  0  0
  9 29  1  1  0  0  0
  9  5  1  0  0  0  0
 10 31  1  0  0  0  0
 10  9  1  0  0  0  0
 11  6  1  0  0  0  0
 11 10  1  0  0  0  0
 11 32  1  0  0  0  0
 13 14  2  0  0  0  0
 14 12  1  0  0  0  0
 14 15  1  0  0  0  0
 15 36  1  0  0  0  0
 15 34  1  0  0  0  0
 16  1  1  0  0  0  0
 18 17  2  0  0  0  0
 18 16  1  0  0  0  0
 19 18  1  0  0  0  0
 19 39  1  0  0  0  0
 21  4  1  0  0  0  0
 22  5  1  0  0  0  0
 25  7  1  0  0  0  0
 28  8  1  0  0  0  0
 30 10  1  0  0  0  0
 33 11  1  0  0  0  0
 35 15  1  0  0  0  0
 37 19  1  0  0  0  0
 38 19  1  0  0  0  0
M  END
$$$$
