CSD_code = LIXWIY | q = 0 | S = 0 | Stoichiometry = C15H26Cl3NW | MND = 9
 OpenBabel04212202063D

 46 43  0  0  1  0  0  0  0  0999 V2000
    3.0243   15.0841    6.8330 W   0  0  0  0  0  0  0  0  0  0  0  0
    2.4674   15.5844    9.1511 Cl  0  0  0  0  0 15  0  0  0  0  0  0
    4.2145   17.0963    7.1112 Cl  0  0  0  0  0 15  0  0  0  0  0  0
    5.0129   14.5583    5.5617 Cl  0  0  0  0  0 15  0  0  0  0  0  0
    0.8869   14.5063    6.4100 C   0  0  1  0  0  0  0  0  0  0  0  0
   -0.0600   13.6200    7.1698 C   0  0  0  0  0  0  0  0  0  0  0  0
    0.1716   12.5697    7.0110 H   0  0  0  0  0  0  0  0  0  0  0  0
   -1.0852   13.7981    6.8411 H   0  0  0  0  0  0  0  0  0  0  0  0
   -0.0010   13.8320    8.2367 H   0  0  0  0  0  0  0  0  0  0  0  0
    0.8764   15.9517    6.5026 C   0  0  0  0  0  0  0  0  0  0  0  0
   -0.0032   16.7329    7.4289 C   0  0  0  0  0  0  0  0  0  0  0  0
   -0.0033   16.2886    8.4228 H   0  0  0  0  0  0  0  0  0  0  0  0
   -1.0269   16.7385    7.0497 H   0  0  0  0  0  0  0  0  0  0  0  0
    0.3392   17.7613    7.5176 H   0  0  0  0  0  0  0  0  0  0  0  0
    1.6323   16.4799    5.4220 C   0  0  0  0  0  0  0  0  0  0  0  0
    1.7668   17.9303    5.0757 C   0  0  0  0  0  0  0  0  0  0  0  0
    2.6864   18.1164    4.5252 H   0  0  0  0  0  0  0  0  0  0  0  0
    1.7794   18.5465    5.9725 H   0  0  0  0  0  0  0  0  0  0  0  0
    0.9235   18.2402    4.4553 H   0  0  0  0  0  0  0  0  0  0  0  0
    2.1620   15.3937    4.6752 C   0  0  0  0  0  0  0  0  0  0  0  0
    2.8742   15.4942    3.3616 C   0  0  0  0  0  0  0  0  0  0  0  0
    3.5506   14.6529    3.2264 H   0  0  0  0  0  0  0  0  0  0  0  0
    3.4590   16.4097    3.3028 H   0  0  0  0  0  0  0  0  0  0  0  0
    2.1482   15.4938    2.5462 H   0  0  0  0  0  0  0  0  0  0  0  0
    1.6934   14.1565    5.2626 C   0  0  0  0  0  0  0  0  0  0  0  0
    1.7729   12.8225    4.5741 C   0  0  0  0  0  0  0  0  0  0  0  0
    1.4326   12.0238    5.2284 H   0  0  0  0  0  0  0  0  0  0  0  0
    2.7986   12.6096    4.2753 H   0  0  0  0  0  0  0  0  0  0  0  0
    1.1473   12.8239    3.6800 H   0  0  0  0  0  0  0  0  0  0  0  0
    4.3050   12.9313    8.5205 N   0  0  0  0  0  0  0  0  0  0  0  0
    3.3478   13.2540    7.6640 C   0  0  0  0  0  3  0  0  0  0  0  0
    2.6760   12.4029    7.5060 H   0  0  0  0  0  0  0  0  0  0  0  0
    4.2828   11.6936    9.2783 C   0  0  0  0  0  0  0  0  0  0  0  0
    5.2981   11.4483    9.5952 H   0  0  0  0  0  0  0  0  0  0  0  0
    3.9232   10.8903    8.6291 H   0  0  0  0  0  0  0  0  0  0  0  0
    3.3714   11.8189   10.4987 C   0  0  0  0  0  0  0  0  0  0  0  0
    3.3367   10.8771   11.0397 H   0  0  0  0  0  0  0  0  0  0  0  0
    2.3648   12.0883   10.1880 H   0  0  0  0  0  0  0  0  0  0  0  0
    3.7333   12.5938   11.1694 H   0  0  0  0  0  0  0  0  0  0  0  0
    5.3316   13.8954    8.8863 C   0  0  0  0  0  0  0  0  0  0  0  0
    5.3558   13.9940    9.9774 H   0  0  0  0  0  0  0  0  0  0  0  0
    5.0517   14.8822    8.4558 H   0  0  0  0  0  0  0  0  0  0  0  0
    6.7060   13.5039    8.3500 C   0  0  0  0  0  0  0  0  0  0  0  0
    7.4338   14.2582    8.6360 H   0  0  0  0  0  0  0  0  0  0  0  0
    6.6734   13.4464    7.2642 H   0  0  0  0  0  0  0  0  0  0  0  0
    7.0310   12.5439    8.7447 H   0  0  0  0  0  0  0  0  0  0  0  0
  1 31  1  0  0  0  0
  5 10  1  0  0  0  0
  5  1  1  1  0  0  0
  5  6  1  0  0  0  0
  6  9  1  0  0  0  0
  7  6  1  0  0  0  0
  8  6  1  0  0  0  0
 10 11  1  0  0  0  0
 11 14  1  0  0  0  0
 11 12  1  0  0  0  0
 13 11  1  0  0  0  0
 15 10  2  0  0  0  0
 16 15  1  0  0  0  0
 16 18  1  0  0  0  0
 17 16  1  0  0  0  0
 19 16  1  0  0  0  0
 20 25  2  0  0  0  0
 20 15  1  0  0  0  0
 21 20  1  0  0  0  0
 22 21  1  0  0  0  0
 23 21  1  0  0  0  0
 24 21  1  0  0  0  0
 25  5  1  0  0  0  0
 26 27  1  0  0  0  0
 26 25  1  0  0  0  0
 28 26  1  0  0  0  0
 29 26  1  0  0  0  0
 30 40  1  0  0  0  0
 30 33  1  0  0  0  0
 31 30  1  0  0  0  0
 32 31  1  0  0  0  0
 33 34  1  0  0  0  0
 33 36  1  0  0  0  0
 35 33  1  0  0  0  0
 36 37  1  0  0  0  0
 36 39  1  0  0  0  0
 38 36  1  0  0  0  0
 40 41  1  0  0  0  0
 42 40  1  0  0  0  0
 43 44  1  0  0  0  0
 43 46  1  0  0  0  0
 43 40  1  0  0  0  0
 45 43  1  0  0  0  0
M  END
$$$$
