CSD_code = LIYCIH | q = 0 | S = 0 | Stoichiometry = C6H16Cl2N4NiO2 | MND = 6
 OpenBabel04212202063D

 31 32  0  0  1  0  0  0  0  0999 V2000
   -0.0000    1.5492    3.5784 Ni  0  0  0  0  0  0  0  0  0  0  0  0
    1.2950    3.0162    2.8286 Cl  0  0  0  0  0  0  0  0  0  0  0  0
    0.3330    1.8437    6.8271 O   0  0  0  0  0  0  0  0  0  0  0  0
   -0.2779    2.4975    6.4232 H   0  0  0  0  0  0  0  0  0  0  0  0
    0.7269    1.0867    5.7457 N   0  0  0  0  0  0  0  0  0  0  0  0
    1.5864    0.1090    3.4472 N   0  0  0  0  0  4  0  0  0  0  0  0
    1.5221   -0.5156    2.6496 H   0  0  0  0  0  0  0  0  0  0  0  0
    2.3148    0.7942    3.2402 H   0  0  0  0  0  0  0  0  0  0  0  0
    1.5834    0.1678    5.9058 C   0  0  1  0  0  3  0  0  0  0  0  0
    2.2471   -0.2057    7.1907 C   0  0  0  0  0  0  0  0  0  0  0  0
    1.7239    0.2610    8.0213 H   0  0  0  0  0  0  0  0  0  0  0  0
    2.2563   -1.2866    7.3178 H   0  0  0  0  0  0  0  0  0  0  0  0
    3.2781    0.1468    7.1880 H   0  0  0  0  0  0  0  0  0  0  0  0
    1.9283   -0.6249    4.6648 C   0  0  0  0  0  0  0  0  0  0  0  0
    2.9945   -0.8922    4.7003 H   0  0  0  0  0  0  0  0  0  0  0  0
    1.3534   -1.5584    4.6920 H   0  0  0  0  0  0  0  0  0  0  0  0
   -1.2953    3.0159    4.3283 Cl  0  0  0  0  0  0  0  0  0  0  0  0
   -0.3327    1.8436    0.3296 O   0  0  0  0  0  0  0  0  0  0  0  0
    0.2778    2.4976    0.7336 H   0  0  0  0  0  0  0  0  0  0  0  0
   -0.7270    1.0868    1.4110 N   0  0  0  0  0  0  0  0  0  0  0  0
   -1.5864    0.1090    3.7095 N   0  0  0  0  0  4  0  0  0  0  0  0
   -1.5221   -0.5156    4.5071 H   0  0  0  0  0  0  0  0  0  0  0  0
   -2.3149    0.7941    3.9165 H   0  0  0  0  0  0  0  0  0  0  0  0
   -1.5834    0.1678    1.2509 C   0  0  1  0  0  3  0  0  0  0  0  0
   -2.2471   -0.2056   -0.0339 C   0  0  0  0  0  0  0  0  0  0  0  0
   -1.7236    0.2605   -0.8646 H   0  0  0  0  0  0  0  0  0  0  0  0
   -2.2568   -1.2865   -0.1608 H   0  0  0  0  0  0  0  0  0  0  0  0
   -3.2779    0.1473   -0.0317 H   0  0  0  0  0  0  0  0  0  0  0  0
   -1.9282   -0.6249    2.4918 C   0  0  0  0  0  0  0  0  0  0  0  0
   -2.9944   -0.8923    2.4563 H   0  0  0  0  0  0  0  0  0  0  0  0
   -1.3532   -1.5584    2.4647 H   0  0  0  0  0  0  0  0  0  0  0  0
  1 21  1  0  0  0  0
  1 17  1  0  0  0  0
  1  5  1  0  0  0  0
  2  1  1  0  0  0  0
  4  3  1  0  0  0  0
  5  9  1  0  0  0  0
  5  3  1  0  0  0  0
  6  1  1  0  0  0  0
  6 14  1  0  0  0  0
  7  6  1  0  0  0  0
  8  6  1  0  0  0  0
  9 10  1  1  0  0  0
 10 12  1  0  0  0  0
 10 11  1  0  0  0  0
 13 10  1  0  0  0  0
 14 16  1  0  0  0  0
 14 15  1  0  0  0  0
 14  9  1  0  0  0  0
 18 19  1  0  0  0  0
 18 20  1  0  0  0  0
 20  1  1  0  0  0  0
 21 23  1  0  0  0  0
 21 22  1  0  0  0  0
 24 25  1  6  0  0  0
 24 20  1  0  0  0  0
 24 29  1  0  0  0  0
 25 28  1  0  0  0  0
 26 25  1  0  0  0  0
 27 25  1  0  0  0  0
 29 21  1  0  0  0  0
 30 29  1  0  0  0  0
 31 29  1  0  0  0  0
M  END
$$$$
