CSD_code = LIZQAN | q = 0 | S = 0 | Stoichiometry = C22H24F2I2P2Pt | MND = 6
 OpenBabel04212202063D

 53 56  0  0  0  0  0  0  0  0999 V2000
    7.2490    2.2152    2.4419 Pt  0  0  0  0  0  0  0  0  0  0  0  0
    9.9231    2.0518    2.5971 I   0  0  0  0  0  0  0  0  0  0  0  0
    4.5927    2.5377    2.1082 I   0  0  0  0  0  0  0  0  0  0  0  0
    7.4075    2.4231   -0.0385 P   0  0  0  0  0  4  0  0  0  0  0  0
    7.3248    4.6669    2.1856 P   0  0  0  0  0  4  0  0  0  0  0  0
    6.7289    4.0667   -0.4669 C   0  0  0  0  0  0  0  0  0  0  0  0
    6.2692    4.3620   -1.7445 C   0  0  0  0  0  0  0  0  0  0  0  0
    6.2761    3.6076   -2.5164 H   0  0  0  0  0  0  0  0  0  0  0  0
    5.7864    5.6235   -2.0401 C   0  0  0  0  0  0  0  0  0  0  0  0
    5.4225    5.8381   -3.0337 H   0  0  0  0  0  0  0  0  0  0  0  0
    5.7652    6.6069   -1.0651 C   0  0  0  0  0  0  0  0  0  0  0  0
    5.3856    7.5910   -1.2952 H   0  0  0  0  0  0  0  0  0  0  0  0
    6.2265    6.3267    0.2074 C   0  0  0  0  0  0  0  0  0  0  0  0
    6.2040    7.0970    0.9642 H   0  0  0  0  0  0  0  0  0  0  0  0
    6.7059    5.0597    0.5157 C   0  0  0  0  0  0  0  0  0  0  0  0
    9.0393    2.5341   -0.8635 C   0  0  0  0  0  0  0  0  0  0  0  0
    9.5421    1.5700   -0.7787 H   0  0  0  0  0  0  0  0  0  0  0  0
    9.6596    3.2896   -0.3822 H   0  0  0  0  0  0  0  0  0  0  0  0
    8.9014    2.7915   -1.9143 H   0  0  0  0  0  0  0  0  0  0  0  0
    6.5519    1.2848   -1.1866 C   0  0  0  0  0  0  0  0  0  0  0  0
    6.7644    1.5477   -2.2221 H   0  0  0  0  0  0  0  0  0  0  0  0
    5.4763    1.3130   -1.0098 H   0  0  0  0  0  0  0  0  0  0  0  0
    6.9251    0.2762   -1.0018 H   0  0  0  0  0  0  0  0  0  0  0  0
    8.8900    5.6207    2.1819 C   0  0  0  0  0  0  0  0  0  0  0  0
    9.6027    5.1694    1.4917 H   0  0  0  0  0  0  0  0  0  0  0  0
    9.3243    5.6085    3.1818 H   0  0  0  0  0  0  0  0  0  0  0  0
    8.6902    6.6495    1.8798 H   0  0  0  0  0  0  0  0  0  0  0  0
    6.2807    5.6917    3.2839 C   0  0  0  0  0  0  0  0  0  0  0  0
    6.4403    5.3728    4.3152 H   0  0  0  0  0  0  0  0  0  0  0  0
    5.2307    5.5419    3.0335 H   0  0  0  0  0  0  0  0  0  0  0  0
    6.5423    6.7456    3.1936 H   0  0  0  0  0  0  0  0  0  0  0  0
    7.1312    0.1523    2.6067 C   0  0  0  0  0  0  0  0  0  0  0  0
    7.8320   -0.5444    3.5864 C   0  0  0  0  0  0  0  0  0  0  0  0
    8.4433   -0.0310    4.3150 H   0  0  0  0  0  0  0  0  0  0  0  0
    7.7638   -1.9251    3.6649 C   0  0  0  0  0  0  0  0  0  0  0  0
    8.3123   -2.4619    4.4226 H   0  0  0  0  0  0  0  0  0  0  0  0
    6.9850   -2.6117    2.7539 C   0  0  0  0  0  0  0  0  0  0  0  0
    6.2653   -1.9480    1.7816 C   0  0  0  0  0  0  0  0  0  0  0  0
    5.6476   -2.4997    1.0902 H   0  0  0  0  0  0  0  0  0  0  0  0
    6.3425   -0.5654    1.7181 C   0  0  0  0  0  0  0  0  0  0  0  0
    5.7435   -0.0688    0.9691 H   0  0  0  0  0  0  0  0  0  0  0  0
    6.9194   -3.9591    2.8197 F   0  0  0  0  0  0  0  0  0  0  0  0
    7.0230    2.3178    4.4892 C   0  0  0  0  0  0  0  0  0  0  0  0
    6.1057    1.5334    5.1782 C   0  0  0  0  0  0  0  0  0  0  0  0
    5.5035    0.7951    4.6674 H   0  0  0  0  0  0  0  0  0  0  0  0
    5.9374    1.6770    6.5454 C   0  0  0  0  0  0  0  0  0  0  0  0
    5.2240    1.0706    7.0803 H   0  0  0  0  0  0  0  0  0  0  0  0
    6.6939    2.6155    7.2203 C   0  0  0  0  0  0  0  0  0  0  0  0
    7.6120    3.4093    6.5624 C   0  0  0  0  0  0  0  0  0  0  0  0
    8.1969    4.1321    7.1097 H   0  0  0  0  0  0  0  0  0  0  0  0
    7.7685    3.2541    5.1940 C   0  0  0  0  0  0  0  0  0  0  0  0
    8.5056    3.8754    4.6985 H   0  0  0  0  0  0  0  0  0  0  0  0
    6.5314    2.7638    8.5522 F   0  0  0  0  0  0  0  0  0  0  0  0
  1  2  1  0  0  0  0
  1 32  1  0  0  0  0
  1 43  1  0  0  0  0
  3  1  1  0  0  0  0
  4  1  1  0  0  0  0
  5  1  1  0  0  0  0
  5 28  1  0  0  0  0
  6  4  1  0  0  0  0
  6 15  1  0  0  0  0
  7  6  2  0  0  0  0
  8  7  1  0  0  0  0
  9  7  1  0  0  0  0
  9 11  2  0  0  0  0
 10  9  1  0  0  0  0
 11 13  1  0  0  0  0
 12 11  1  0  0  0  0
 13 15  2  0  0  0  0
 13 14  1  0  0  0  0
 15  5  1  0  0  0  0
 16 17  1  0  0  0  0
 16 18  1  0  0  0  0
 16  4  1  0  0  0  0
 19 16  1  0  0  0  0
 20 22  1  0  0  0  0
 20 23  1  0  0  0  0
 20  4  1  0  0  0  0
 21 20  1  0  0  0  0
 24  5  1  0  0  0  0
 24 26  1  0  0  0  0
 25 24  1  0  0  0  0
 27 24  1  0  0  0  0
 28 29  1  0  0  0  0
 30 28  1  0  0  0  0
 31 28  1  0  0  0  0
 32 33  1  0  0  0  0
 33 35  2  0  0  0  0
 33 34  1  0  0  0  0
 35 36  1  0  0  0  0
 37 42  1  0  0  0  0
 37 35  1  0  0  0  0
 38 37  2  0  0  0  0
 39 38  1  0  0  0  0
 40 38  1  0  0  0  0
 40 32  2  0  0  0  0
 41 40  1  0  0  0  0
 43 44  2  0  0  0  0
 43 51  1  0  0  0  0
 44 46  1  0  0  0  0
 45 44  1  0  0  0  0
 46 47  1  0  0  0  0
 46 48  2  0  0  0  0
 48 53  1  0  0  0  0
 49 50  1  0  0  0  0
 49 48  1  0  0  0  0
 51 49  2  0  0  0  0
 52 51  1  0  0  0  0
M  END
$$$$
