CSD_code = LIZQER | q = 0 | S = 0 | Stoichiometry = C16H20FIP2Pt | MND = 4
 OpenBabel04212202063D

 41 43  0  0  0  0  0  0  0  0999 V2000
    1.0726    2.7017   -1.4625 Pt  0  0  0  0  0  0  0  0  0  0  0  0
    0.2563    3.7663   -3.6539 I   0  0  0  0  0  0  0  0  0  0  0  0
    1.7902    1.7877    0.4628 P   0  0  0  0  0  4  0  0  0  0  0  0
   -0.4418    3.9157   -0.1622 P   0  0  0  0  0  4  0  0  0  0  0  0
    3.5152    2.1108    0.9734 C   0  0  0  0  0  0  0  0  0  0  0  0
    3.7232    1.6842    1.9540 H   0  0  0  0  0  0  0  0  0  0  0  0
    3.6900    3.1860    0.9975 H   0  0  0  0  0  0  0  0  0  0  0  0
    4.1737    1.6636    0.2288 H   0  0  0  0  0  0  0  0  0  0  0  0
    1.6609   -0.0241    0.6625 C   0  0  0  0  0  0  0  0  0  0  0  0
    2.2897   -0.4891   -0.0968 H   0  0  0  0  0  0  0  0  0  0  0  0
    0.6286   -0.3320    0.5006 H   0  0  0  0  0  0  0  0  0  0  0  0
    1.9861   -0.3386    1.6532 H   0  0  0  0  0  0  0  0  0  0  0  0
   -0.2641    5.7343   -0.0594 C   0  0  0  0  0  0  0  0  0  0  0  0
   -0.4684    6.1421   -1.0501 H   0  0  0  0  0  0  0  0  0  0  0  0
    0.7604    5.9836    0.2159 H   0  0  0  0  0  0  0  0  0  0  0  0
   -0.9553    6.1634    0.6653 H   0  0  0  0  0  0  0  0  0  0  0  0
   -2.2471    3.7439   -0.4051 C   0  0  0  0  0  0  0  0  0  0  0  0
   -2.8102    4.3432    0.3093 H   0  0  0  0  0  0  0  0  0  0  0  0
   -2.5278    2.6952   -0.3111 H   0  0  0  0  0  0  0  0  0  0  0  0
   -2.4731    4.0756   -1.4194 H   0  0  0  0  0  0  0  0  0  0  0  0
    0.7988    2.4513    1.8494 C   0  0  0  0  0  0  0  0  0  0  0  0
    1.0162    2.0378    3.1588 C   0  0  0  0  0  0  0  0  0  0  0  0
    1.7874    1.3122    3.3767 H   0  0  0  0  0  0  0  0  0  0  0  0
    0.2495    2.5489    4.1894 C   0  0  0  0  0  0  0  0  0  0  0  0
    0.4228    2.2218    5.2038 H   0  0  0  0  0  0  0  0  0  0  0  0
   -0.7415    3.4800    3.9198 C   0  0  0  0  0  0  0  0  0  0  0  0
   -1.3415    3.8783    4.7245 H   0  0  0  0  0  0  0  0  0  0  0  0
   -0.9616    3.8996    2.6210 C   0  0  0  0  0  0  0  0  0  0  0  0
   -1.7349    4.6272    2.4191 H   0  0  0  0  0  0  0  0  0  0  0  0
   -0.1978    3.3920    1.5772 C   0  0  0  0  0  0  0  0  0  0  0  0
    2.4333    1.5884   -2.4504 C   0  0  0  0  0  0  0  0  0  0  0  0
    3.7234    2.0601   -2.6726 C   0  0  0  0  0  0  0  0  0  0  0  0
    4.0006    3.0561   -2.3403 H   0  0  0  0  0  0  0  0  0  0  0  0
    4.6655    1.2863   -3.3301 C   0  0  0  0  0  0  0  0  0  0  0  0
    5.6668    1.6473   -3.5096 H   0  0  0  0  0  0  0  0  0  0  0  0
    4.2995    0.0272   -3.7652 C   0  0  0  0  0  0  0  0  0  0  0  0
    3.0253   -0.4709   -3.5726 C   0  0  0  0  0  0  0  0  0  0  0  0
    2.7709   -1.4544   -3.9375 H   0  0  0  0  0  0  0  0  0  0  0  0
    2.0987    0.3191   -2.9127 C   0  0  0  0  0  0  0  0  0  0  0  0
    1.0912   -0.0608   -2.7691 H   0  0  0  0  0  0  0  0  0  0  0  0
    5.2212   -0.7463   -4.3933 F   0  0  0  0  0  0  0  0  0  0  0  0
  1  4  1  0  0  0  0
  1  3  1  0  0  0  0
  2  1  1  0  0  0  0
  3  9  1  0  0  0  0
  3  5  1  0  0  0  0
  3 21  1  0  0  0  0
  4 13  1  0  0  0  0
  4 30  1  0  0  0  0
  5  7  1  0  0  0  0
  5  6  1  0  0  0  0
  8  5  1  0  0  0  0
  9 12  1  0  0  0  0
 10  9  1  0  0  0  0
 11  9  1  0  0  0  0
 13 15  1  0  0  0  0
 13 16  1  0  0  0  0
 14 13  1  0  0  0  0
 17 19  1  0  0  0  0
 17  4  1  0  0  0  0
 17 18  1  0  0  0  0
 20 17  1  0  0  0  0
 21 22  1  0  0  0  0
 22 23  1  0  0  0  0
 22 24  2  0  0  0  0
 24 25  1  0  0  0  0
 26 24  1  0  0  0  0
 26 27  1  0  0  0  0
 28 26  2  0  0  0  0
 29 28  1  0  0  0  0
 30 21  2  0  0  0  0
 30 28  1  0  0  0  0
 31  1  1  0  0  0  0
 32 31  1  0  0  0  0
 32 33  1  0  0  0  0
 34 32  2  0  0  0  0
 35 34  1  0  0  0  0
 36 37  2  0  0  0  0
 36 34  1  0  0  0  0
 37 39  1  0  0  0  0
 38 37  1  0  0  0  0
 39 40  1  0  0  0  0
 39 31  2  0  0  0  0
 41 36  1  0  0  0  0
M  END
$$$$
