CSD_code = LOBPOI | q = 0 | S = 0 | Stoichiometry = C8H10Br2N6Zn | MND = 4
 OpenBabel04212202063D

 27 28  0  0  1  0  0  0  0  0999 V2000
    3.9389    5.8866    3.2334 Br  0  0  0  0  0  0  0  0  0  0  0  0
    5.5607    2.0160    4.3432 Br  0  0  0  0  0  0  0  0  0  0  0  0
    2.2732    1.4480    2.0692 C   0  0  2  0  0  3  0  0  0  0  0  0
    0.2459    1.8079    1.1014 C   0  0  0  0  0  0  0  0  0  0  0  0
   -0.5992    1.3808    0.5780 H   0  0  0  0  0  0  0  0  0  0  0  0
    0.3132    3.1626    1.4163 C   0  0  0  0  0  0  0  0  0  0  0  0
   -0.4627    3.8562    1.1453 H   0  0  0  0  0  0  0  0  0  0  0  0
    1.4353    3.5734    2.1029 C   0  0  0  0  0  0  0  0  0  0  0  0
    1.5649    4.6089    2.3857 H   0  0  0  0  0  0  0  0  0  0  0  0
    1.8346    2.3515    5.8535 C   0  0  1  0  0  3  0  0  0  0  0  0
   -0.0101    3.3460    6.7357 C   0  0  0  0  0  0  0  0  0  0  0  0
   -0.9476    3.2169    7.2600 H   0  0  0  0  0  0  0  0  0  0  0  0
    0.4480    4.5977    6.3358 C   0  0  0  0  0  0  0  0  0  0  0  0
   -0.0949    5.5028    6.5426 H   0  0  0  0  0  0  0  0  0  0  0  0
    1.6377    4.6177    5.6378 C   0  0  0  0  0  0  0  0  0  0  0  0
    2.0545    5.5459    5.2708 H   0  0  0  0  0  0  0  0  0  0  0  0
    2.4164    2.7373    2.4480 N   0  0  0  0  0  0  0  0  0  0  0  0
    1.2055    0.9713    1.4160 N   0  0  0  0  0  0  0  0  0  0  0  0
    3.2250    0.5613    2.3591 N   0  0  0  0  0  0  0  0  0  0  0  0
    4.1041    0.8262    2.7800 H   0  0  0  0  0  0  0  0  0  0  0  0
    3.1001   -0.3763    2.0203 H   0  0  0  0  0  0  0  0  0  0  0  0
    2.3336    3.5109    5.3743 N   0  0  0  0  0  0  0  0  0  0  0  0
    0.6716    2.2475    6.5064 N   0  0  0  0  0  0  0  0  0  0  0  0
    2.5001    1.2116    5.6404 N   0  0  0  0  0  0  0  0  0  0  0  0
    3.4723    1.2200    5.3635 H   0  0  0  0  0  0  0  0  0  0  0  0
    2.1359    0.3889    6.0896 H   0  0  0  0  0  0  0  0  0  0  0  0
    3.8468    3.6265    3.8221 Zn  0  0  0  0  0  0  0  0  0  0  0  0
  1 27  1  0  0  0  0
  3 19  1  1  0  0  0
  3 17  1  0  0  0  0
  4 18  2  0  0  0  0
  4  6  1  0  0  0  0
  5  4  1  0  0  0  0
  6  8  2  0  0  0  0
  7  6  1  0  0  0  0
  8  9  1  0  0  0  0
  8 17  1  0  0  0  0
 10 24  1  6  0  0  0
 10 23  1  0  0  0  0
 11 12  1  0  0  0  0
 13 14  1  0  0  0  0
 13 11  1  0  0  0  0
 15 13  2  0  0  0  0
 16 15  1  0  0  0  0
 17 27  1  0  0  0  0
 18  3  1  0  0  0  0
 19 20  1  0  0  0  0
 21 19  1  0  0  0  0
 22 15  1  0  0  0  0
 22 10  1  0  0  0  0
 23 11  2  0  0  0  0
 24 26  1  0  0  0  0
 25 24  1  0  0  0  0
 27  2  1  0  0  0  0
 27 22  1  0  0  0  0
M  END
$$$$
