CSD_code = LOBRIE | q = 0 | S = 0 | Stoichiometry = C19H23ClNNiPS2 | MND = 4
 OpenBabel04212202063D

 48 51  0  0  1  0  0  0  0  0999 V2000
    2.1945   10.4326   11.5235 Ni  0  0  2  0  0  0  0  0  0  0  0  0
    1.5067    8.5598   12.0006 Cl  0  0  0  0  0  0  0  0  0  0  0  0
    0.7293   11.2975   12.8509 P   0  0  0  0  0  4  0  0  0  0  0  0
    3.0015   12.4068   10.7775 S   0  0  0  0  0  0  0  0  0  0  0  0
    3.8779    9.7291   10.1782 S   0  0  0  0  0  0  0  0  0  0  0  0
    4.6232   11.8337    8.7570 N   0  0  0  0  0  0  0  0  0  0  0  0
   -0.0375   12.8548   12.3049 C   0  0  0  0  0  0  0  0  0  0  0  0
    0.6498   14.0595   12.4201 C   0  0  0  0  0  0  0  0  0  0  0  0
    1.6232   14.0764   12.8894 H   0  0  0  0  0  0  0  0  0  0  0  0
    0.0897   15.2264   11.9345 C   0  0  0  0  0  0  0  0  0  0  0  0
    0.6255   16.1592   12.0326 H   0  0  0  0  0  0  0  0  0  0  0  0
   -1.1504   15.1999   11.3173 C   0  0  0  0  0  0  0  0  0  0  0  0
   -1.5844   16.1124   10.9357 H   0  0  0  0  0  0  0  0  0  0  0  0
   -1.8278   13.9994   11.1783 C   0  0  0  0  0  0  0  0  0  0  0  0
   -2.7884   13.9742   10.6846 H   0  0  0  0  0  0  0  0  0  0  0  0
   -1.2723   12.8293   11.6628 C   0  0  0  0  0  0  0  0  0  0  0  0
   -1.7920   11.8898   11.5367 H   0  0  0  0  0  0  0  0  0  0  0  0
    1.7240   11.7939   14.2919 C   0  0  0  0  0  0  0  0  0  0  0  0
    1.2370   12.6180   15.3004 C   0  0  0  0  0  0  0  0  0  0  0  0
    0.2332   13.0142   15.2341 H   0  0  0  0  0  0  0  0  0  0  0  0
    2.0460   12.9319   16.3771 C   0  0  0  0  0  0  0  0  0  0  0  0
    1.6716   13.5730   17.1620 H   0  0  0  0  0  0  0  0  0  0  0  0
    3.3353   12.4267   16.4527 C   0  0  0  0  0  0  0  0  0  0  0  0
    3.9608   12.6767   17.2969 H   0  0  0  0  0  0  0  0  0  0  0  0
    3.8236   11.6041   15.4503 C   0  0  0  0  0  0  0  0  0  0  0  0
    4.8278   11.2121   15.5114 H   0  0  0  0  0  0  0  0  0  0  0  0
    3.0172   11.2881   14.3726 C   0  0  0  0  0  0  0  0  0  0  0  0
    3.3800   10.6348   13.5690 H   0  0  0  0  0  0  0  0  0  0  0  0
   -0.6933   10.4007   13.6145 C   0  0  0  0  0  0  0  0  0  0  0  0
   -1.3977   11.1535   13.9818 H   0  0  0  0  0  0  0  0  0  0  0  0
   -1.1720    9.8216   12.8207 H   0  0  0  0  0  0  0  0  0  0  0  0
   -0.2692    9.4623   14.7366 C   0  0  0  0  0  0  0  0  0  0  0  0
   -1.1341    8.9124   15.1011 H   0  0  0  0  0  0  0  0  0  0  0  0
    0.1643   10.0161   15.5667 H   0  0  0  0  0  0  0  0  0  0  0  0
    0.4639    8.7500   14.3666 H   0  0  0  0  0  0  0  0  0  0  0  0
    3.9190   11.3747    9.7816 C   0  0  1  0  0  3  0  0  0  0  0  0
    4.6507   13.2235    8.3483 C   0  0  0  0  0  0  0  0  0  0  0  0
    3.6457   13.6512    8.3914 H   0  0  0  0  0  0  0  0  0  0  0  0
    5.2936   13.7956    9.0281 H   0  0  0  0  0  0  0  0  0  0  0  0
    5.2317   13.1702    6.9388 C   0  0  0  0  0  0  0  0  0  0  0  0
    4.4380   12.9819    6.2148 H   0  0  0  0  0  0  0  0  0  0  0  0
    5.7409   14.0921    6.6679 H   0  0  0  0  0  0  0  0  0  0  0  0
    6.1737   11.9684    7.0086 C   0  0  0  0  0  0  0  0  0  0  0  0
    7.1050   12.2521    7.4999 H   0  0  0  0  0  0  0  0  0  0  0  0
    6.4064   11.5568    6.0294 H   0  0  0  0  0  0  0  0  0  0  0  0
    5.4019   10.9815    7.8793 C   0  0  0  0  0  0  0  0  0  0  0  0
    4.7293   10.3532    7.2832 H   0  0  0  0  0  0  0  0  0  0  0  0
    6.0471   10.3228    8.4661 H   0  0  0  0  0  0  0  0  0  0  0  0
  1  2  1  6  0  0  0
  1  3  1  0  0  0  0
  3 29  1  0  0  0  0
  3 18  1  0  0  0  0
  4  1  1  0  0  0  0
  5  1  1  0  0  0  0
  7  8  1  0  0  0  0
  7  3  1  0  0  0  0
  8  9  1  0  0  0  0
 10 11  1  0  0  0  0
 10  8  2  0  0  0  0
 12 10  1  0  0  0  0
 13 12  1  0  0  0  0
 14 12  2  0  0  0  0
 14 16  1  0  0  0  0
 15 14  1  0  0  0  0
 16  7  2  0  0  0  0
 17 16  1  0  0  0  0
 18 27  2  0  0  0  0
 18 19  1  0  0  0  0
 19 21  2  0  0  0  0
 20 19  1  0  0  0  0
 21 23  1  0  0  0  0
 21 22  1  0  0  0  0
 23 24  1  0  0  0  0
 25 26  1  0  0  0  0
 25 23  2  0  0  0  0
 27 25  1  0  0  0  0
 28 27  1  0  0  0  0
 29 30  1  0  0  0  0
 29 32  1  0  0  0  0
 31 29  1  0  0  0  0
 32 33  1  0  0  0  0
 32 34  1  0  0  0  0
 35 32  1  0  0  0  0
 36  6  1  6  0  0  0
 36  5  1  0  0  0  0
 36  4  1  0  0  0  0
 37 38  1  0  0  0  0
 37  6  1  0  0  0  0
 37 39  1  0  0  0  0
 40 43  1  0  0  0  0
 40 37  1  0  0  0  0
 41 40  1  0  0  0  0
 42 40  1  0  0  0  0
 43 44  1  0  0  0  0
 43 46  1  0  0  0  0
 45 43  1  0  0  0  0
 46 48  1  0  0  0  0
 46  6  1  0  0  0  0
 47 46  1  0  0  0  0
M  END
$$$$
