CSD_code = LOBYOR | q = 0 | S = 0 | Stoichiometry = C14H20Cl2N2OZn | MND = 4
 OpenBabel04212202063D

 40 42  0  0  0  0  0  0  0  0999 V2000
   -0.5893    9.0828    5.3784 Zn  0  0  0  0  0  0  0  0  0  0  0  0
    0.6884    7.2129    5.3086 Cl  0  0  0  0  0  0  0  0  0  0  0  0
   -2.3503    8.8486    4.0012 Cl  0  0  0  0  0  0  0  0  0  0  0  0
   -0.5731   10.0951    6.9321 O   0  0  0  0  0  0  0  0  0  0  0  0
    0.4424   10.4287    4.2341 N   0  0  0  0  0  0  0  0  0  0  0  0
    1.0089    7.9450    1.6602 N   0  0  0  0  0  4  0  0  0  0  0  0
    0.5371   12.0419    6.0371 C   0  0  0  0  0  0  0  0  0  0  0  0
   -0.1039   11.2816    7.0674 C   0  0  0  0  0  0  0  0  0  0  0  0
   -0.2330   11.9013    8.3406 C   0  0  0  0  0  0  0  0  0  0  0  0
   -0.7181   11.3219    9.1117 H   0  0  0  0  0  0  0  0  0  0  0  0
    0.2315   13.1611    8.5887 C   0  0  0  0  0  0  0  0  0  0  0  0
    0.1168   13.5946    9.5720 H   0  0  0  0  0  0  0  0  0  0  0  0
    0.8549   13.9013    7.5760 C   0  0  0  0  0  0  0  0  0  0  0  0
    1.2166   14.8980    7.7771 H   0  0  0  0  0  0  0  0  0  0  0  0
    0.9937   13.3455    6.3359 C   0  0  0  0  0  0  0  0  0  0  0  0
    1.4715   13.9086    5.5447 H   0  0  0  0  0  0  0  0  0  0  0  0
    0.7262   11.5916    4.7063 C   0  0  0  0  0  3  0  0  0  0  0  0
    1.1583   12.3344    4.0208 H   0  0  0  0  0  0  0  0  0  0  0  0
    0.6363   10.1630    2.8309 C   0  0  0  0  0  0  0  0  0  0  0  0
    1.0755   11.0361    2.3242 H   0  0  0  0  0  0  0  0  0  0  0  0
   -0.3572    9.9787    2.4081 H   0  0  0  0  0  0  0  0  0  0  0  0
    1.5223    8.9207    2.6532 C   0  0  0  0  0  0  0  0  0  0  0  0
    2.5269    9.2212    2.3501 H   0  0  0  0  0  0  0  0  0  0  0  0
    1.5791    8.3891    3.6125 H   0  0  0  0  0  0  0  0  0  0  0  0
    2.0681    6.9744    1.3023 C   0  0  0  0  0  0  0  0  0  0  0  0
    2.3018    6.4095    2.2071 H   0  0  0  0  0  0  0  0  0  0  0  0
    2.9609    7.5190    0.9852 H   0  0  0  0  0  0  0  0  0  0  0  0
    1.5996    6.0408    0.1933 C   0  0  0  0  0  0  0  0  0  0  0  0
    2.4031    5.3421   -0.0392 H   0  0  0  0  0  0  0  0  0  0  0  0
    1.3903    6.6176   -0.7115 H   0  0  0  0  0  0  0  0  0  0  0  0
    0.3459    5.2893    0.6284 C   0  0  0  0  0  0  0  0  0  0  0  0
   -0.0166    4.6636   -0.1867 H   0  0  0  0  0  0  0  0  0  0  0  0
    0.5831    4.6415    1.4726 H   0  0  0  0  0  0  0  0  0  0  0  0
   -0.7199    6.2959    1.0464 C   0  0  0  0  0  0  0  0  0  0  0  0
   -1.0352    6.8877    0.1824 H   0  0  0  0  0  0  0  0  0  0  0  0
   -1.5999    5.7838    1.4310 H   0  0  0  0  0  0  0  0  0  0  0  0
   -0.1887    7.2047    2.1410 C   0  0  0  0  0  0  0  0  0  0  0  0
   -0.9652    7.9044    2.4671 H   0  0  0  0  0  0  0  0  0  0  0  0
    0.1137    6.6358    3.0241 H   0  0  0  0  0  0  0  0  0  0  0  0
    0.7315    8.4470    0.8090 H   0  0  0  0  0  0  0  0  0  0  0  0
  1  4  1  0  0  0  0
  2  1  1  0  0  0  0
  3  1  1  0  0  0  0
  4  8  1  0  0  0  0
  5 17  1  0  0  0  0
  5  1  1  0  0  0  0
  6 37  1  0  0  0  0
  6 22  1  0  0  0  0
  7 15  2  0  0  0  0
  7  8  1  0  0  0  0
  8  9  2  0  0  0  0
  9 11  1  0  0  0  0
  9 10  1  0  0  0  0
 11 12  1  0  0  0  0
 13 14  1  0  0  0  0
 13 11  2  0  0  0  0
 15 13  1  0  0  0  0
 16 15  1  0  0  0  0
 17  7  1  0  0  0  0
 18 17  1  0  0  0  0
 19  5  1  0  0  0  0
 20 19  1  0  0  0  0
 21 19  1  0  0  0  0
 22 19  1  0  0  0  0
 22 24  1  0  0  0  0
 23 22  1  0  0  0  0
 25  6  1  0  0  0  0
 25 26  1  0  0  0  0
 27 25  1  0  0  0  0
 28 31  1  0  0  0  0
 28 25  1  0  0  0  0
 29 28  1  0  0  0  0
 30 28  1  0  0  0  0
 31 34  1  0  0  0  0
 31 33  1  0  0  0  0
 32 31  1  0  0  0  0
 34 36  1  0  0  0  0
 34 37  1  0  0  0  0
 35 34  1  0  0  0  0
 37 38  1  0  0  0  0
 37 39  1  0  0  0  0
 40  6  1  0  0  0  0
M  END
$$$$
