CSD_code = LOCFER | q = 0 | S = 0 | Stoichiometry = C31H28Cl2N2OPRh | MND = 6
 OpenBabel04212202063D

 66 71  0  0  1  0  0  0  0  0999 V2000
    6.6885    9.3927    5.5142 C   0  0  0  0  0  0  0  0  0  0  0  0
    6.1986    7.9520    5.3851 C   0  0  0  0  0  0  0  0  0  0  0  0
    5.4768    7.7965    6.1926 H   0  0  0  0  0  0  0  0  0  0  0  0
    7.0498    7.2979    5.5941 H   0  0  0  0  0  0  0  0  0  0  0  0
    5.5503    7.6317    4.0383 C   0  0  2  0  0  0  0  0  0  0  0  0
    4.4896    7.9144    4.1003 H   0  0  0  0  0  0  0  0  0  0  0  0
    5.6334    6.2059    3.5907 C   0  0  0  0  0  0  0  0  0  0  0  0
    6.8274    5.4931    3.5663 C   0  0  0  0  0  0  0  0  0  0  0  0
    7.7460    5.9581    3.8898 H   0  0  0  0  0  0  0  0  0  0  0  0
    6.8596    4.1840    3.1193 C   0  0  0  0  0  0  0  0  0  0  0  0
    7.7981    3.6491    3.1035 H   0  0  0  0  0  0  0  0  0  0  0  0
    5.6994    3.5612    2.6931 C   0  0  0  0  0  0  0  0  0  0  0  0
    5.7280    2.5397    2.3441 H   0  0  0  0  0  0  0  0  0  0  0  0
    4.5027    4.2568    2.7210 C   0  0  0  0  0  0  0  0  0  0  0  0
    3.5904    3.7795    2.3950 H   0  0  0  0  0  0  0  0  0  0  0  0
    4.4716    5.5656    3.1655 C   0  0  0  0  0  0  0  0  0  0  0  0
    3.5354    6.1050    3.1800 H   0  0  0  0  0  0  0  0  0  0  0  0
    4.9918    8.6495    1.4329 C   0  0  0  0  0  0  0  0  0  0  0  0
    4.0654    9.6417    1.1358 C   0  0  0  0  0  0  0  0  0  0  0  0
    4.0939   10.5780    1.6737 H   0  0  0  0  0  0  0  0  0  0  0  0
    3.1227    9.4284    0.1447 C   0  0  0  0  0  0  0  0  0  0  0  0
    2.4048   10.2010   -0.0863 H   0  0  0  0  0  0  0  0  0  0  0  0
    3.1002    8.2291   -0.5464 C   0  0  0  0  0  0  0  0  0  0  0  0
    2.3619    8.0618   -1.3172 H   0  0  0  0  0  0  0  0  0  0  0  0
    4.0282    7.2404   -0.2552 C   0  0  0  0  0  0  0  0  0  0  0  0
    4.0137    6.3055   -0.7968 H   0  0  0  0  0  0  0  0  0  0  0  0
    4.9755    7.4448    0.7295 C   0  0  0  0  0  0  0  0  0  0  0  0
    5.7026    6.6760    0.9510 H   0  0  0  0  0  0  0  0  0  0  0  0
    7.7614    8.3192    2.1358 C   0  0  0  0  0  0  0  0  0  0  0  0
    8.0165    8.2674    0.7696 C   0  0  0  0  0  0  0  0  0  0  0  0
    7.2259    8.4857    0.0664 H   0  0  0  0  0  0  0  0  0  0  0  0
    9.2815    7.9481    0.3073 C   0  0  0  0  0  0  0  0  0  0  0  0
    9.4669    7.9052   -0.7559 H   0  0  0  0  0  0  0  0  0  0  0  0
   10.3081    7.6927    1.1998 C   0  0  0  0  0  0  0  0  0  0  0  0
   11.2941    7.4438    0.8365 H   0  0  0  0  0  0  0  0  0  0  0  0
   10.0708    7.7730    2.5629 C   0  0  0  0  0  0  0  0  0  0  0  0
   10.8731    7.5934    3.2642 H   0  0  0  0  0  0  0  0  0  0  0  0
    8.8102    8.0947    3.0267 C   0  0  0  0  0  0  0  0  0  0  0  0
    8.6390    8.1941    4.0900 H   0  0  0  0  0  0  0  0  0  0  0  0
    6.8321   13.5008    5.0909 C   0  0  0  0  0  3  0  0  0  0  0  0
    7.3572   13.5454    4.1454 H   0  0  0  0  0  0  0  0  0  0  0  0
    6.7152   14.6357    5.8734 C   0  0  0  0  0  0  0  0  0  0  0  0
    7.1697   15.5577    5.5472 H   0  0  0  0  0  0  0  0  0  0  0  0
    6.0023   14.5656    7.0591 C   0  0  0  0  0  0  0  0  0  0  0  0
    5.8843   15.4357    7.6874 H   0  0  0  0  0  0  0  0  0  0  0  0
    5.4413   13.3503    7.4122 C   0  0  0  0  0  0  0  0  0  0  0  0
    4.8737   13.2397    8.3223 H   0  0  0  0  0  0  0  0  0  0  0  0
    5.6063   12.2620    6.5726 C   0  0  0  0  0  0  0  0  0  0  0  0
    5.1654   11.3080    6.8272 H   0  0  0  0  0  0  0  0  0  0  0  0
    9.2143   11.1793    4.6073 C   0  0  0  0  0  3  0  0  0  0  0  0
    8.8857   11.0547    5.6318 H   0  0  0  0  0  0  0  0  0  0  0  0
   10.5439   11.4336    4.3243 C   0  0  0  0  0  0  0  0  0  0  0  0
   11.2541   11.5222    5.1312 H   0  0  0  0  0  0  0  0  0  0  0  0
   10.9381   11.5710    3.0026 C   0  0  0  0  0  0  0  0  0  0  0  0
   11.9687   11.7682    2.7492 H   0  0  0  0  0  0  0  0  0  0  0  0
    9.9714   11.4540    2.0180 C   0  0  0  0  0  0  0  0  0  0  0  0
   10.2195   11.5603    0.9743 H   0  0  0  0  0  0  0  0  0  0  0  0
    8.6629   11.1954    2.3842 C   0  0  0  0  0  0  0  0  0  0  0  0
    7.8817   11.1347    1.6375 H   0  0  0  0  0  0  0  0  0  0  0  0
    4.0794   10.4134    4.5318 Cl  0  0  0  0  0  0  0  0  0  0  0  0
    5.8219   12.4080    2.3235 Cl  0  0  0  0  0  0  0  0  0  0  0  0
    7.3195    9.7367    6.4870 O   0  0  0  0  0  0  0  0  0  0  0  0
    6.1601    8.8929    2.7956 P   0  0  0  0  0  4  0  0  0  0  0  0
    6.2995   10.7272    4.0816 Rh  0  0  0  0  0  0  0  0  0  0  0  0
    6.2855   12.3333    5.4290 N   0  0  0  0  0  0  0  0  0  0  0  0
    8.2884   11.0541    3.6567 N   0  0  0  0  0  0  0  0  0  0  0  0
  1 62  2  0  0  0  0
  2  1  1  0  0  0  0
  2  4  1  0  0  0  0
  2  3  1  0  0  0  0
  5  6  1  1  0  0  0
  5  2  1  0  0  0  0
  7  5  1  0  0  0  0
  8  7  1  0  0  0  0
  8  9  1  0  0  0  0
 10  8  2  0  0  0  0
 11 10  1  0  0  0  0
 12 14  2  0  0  0  0
 12 10  1  0  0  0  0
 13 12  1  0  0  0  0
 14 16  1  0  0  0  0
 15 14  1  0  0  0  0
 16 17  1  0  0  0  0
 16  7  2  0  0  0  0
 18 63  1  0  0  0  0
 19 18  1  0  0  0  0
 19 20  1  0  0  0  0
 21 19  2  0  0  0  0
 22 21  1  0  0  0  0
 23 25  2  0  0  0  0
 23 21  1  0  0  0  0
 24 23  1  0  0  0  0
 25 27  1  0  0  0  0
 26 25  1  0  0  0  0
 27 28  1  0  0  0  0
 27 18  2  0  0  0  0
 29 63  1  0  0  0  0
 29 38  1  0  0  0  0
 30 29  2  0  0  0  0
 31 30  1  0  0  0  0
 32 30  1  0  0  0  0
 32 34  2  0  0  0  0
 33 32  1  0  0  0  0
 34 36  1  0  0  0  0
 35 34  1  0  0  0  0
 36 38  2  0  0  0  0
 36 37  1  0  0  0  0
 38 39  1  0  0  0  0
 40 65  1  0  0  0  0
 40 42  1  0  0  0  0
 41 40  1  0  0  0  0
 42 44  2  0  0  0  0
 43 42  1  0  0  0  0
 44 46  1  0  0  0  0
 44 45  1  0  0  0  0
 46 47  1  0  0  0  0
 48 49  1  0  0  0  0
 48 46  2  0  0  0  0
 50 51  1  0  0  0  0
 52 50  1  0  0  0  0
 52 53  1  0  0  0  0
 54 52  2  0  0  0  0
 55 54  1  0  0  0  0
 56 58  2  0  0  0  0
 56 54  1  0  0  0  0
 57 56  1  0  0  0  0
 58 66  1  0  0  0  0
 59 58  1  0  0  0  0
 61 64  1  0  0  0  0
 63  5  1  0  0  0  0
 63 64  1  0  0  0  0
 64 60  1  0  0  0  0
 64 65  1  0  0  0  0
 64  1  1  0  0  0  0
 65 48  1  0  0  0  0
 66 64  1  0  0  0  0
 66 50  1  0  0  0  0
M  END
$$$$
