CSD_code = LODBUB | q = 0 | S = 0 | Stoichiometry = C9H10Cl2N2Pt | MND = 4
 OpenBabel04212202063D

 24 25  0  0  0  0  0  0  0  0999 V2000
   -1.2060    2.3806    8.7245 Pt  0  0  0  0  0  0  0  0  0  0  0  0
    0.8148    2.1848    9.8314 Cl  0  0  0  0  0  0  0  0  0  0  0  0
   -3.2412    2.6708    7.6619 Cl  0  0  0  0  0  0  0  0  0  0  0  0
   -1.1891    0.4955    8.2792 N   0  0  0  0  0  0  0  0  0  0  0  0
   -1.7583   -0.3643    9.1013 C   0  0  0  0  0  0  0  0  0  0  0  0
   -1.7900   -1.7406    8.8568 C   0  0  0  0  0  0  0  0  0  0  0  0
   -1.2086   -2.2347    7.7185 C   0  0  0  0  0  0  0  0  0  0  0  0
   -0.5921   -1.3413    6.8198 C   0  0  0  0  0  0  0  0  0  0  0  0
    0.0308   -1.7585    5.6252 C   0  0  0  0  0  3  0  0  0  0  0  0
    0.6141   -0.8477    4.7889 C   0  0  0  0  0  0  0  0  0  0  0  0
    0.6013    0.5196    5.1065 C   0  0  0  0  0  0  0  0  0  0  0  0
    0.0056    0.9587    6.2569 C   0  0  0  0  0  0  0  0  0  0  0  0
   -0.6019    0.0432    7.1379 C   0  0  0  0  0  0  0  0  0  0  0  0
   -1.2590    4.3890    9.2465 N   0  0  0  0  0  4  0  0  0  0  0  0
   -2.2138    0.0447    9.9975 H   0  0  0  0  0  0  0  0  0  0  0  0
   -2.2718   -2.3912    9.5689 H   0  0  0  0  0  0  0  0  0  0  0  0
   -1.2141   -3.2916    7.4980 H   0  0  0  0  0  0  0  0  0  0  0  0
    0.0360   -2.8120    5.3876 H   0  0  0  0  0  0  0  0  0  0  0  0
    1.0894   -1.1748    3.8765 H   0  0  0  0  0  0  0  0  0  0  0  0
    1.0663    1.2241    4.4342 H   0  0  0  0  0  0  0  0  0  0  0  0
   -0.0149    2.0139    6.5204 H   0  0  0  0  0  0  0  0  0  0  0  0
   -2.2200    4.7253    9.1555 H   0  0  0  0  0  0  0  0  0  0  0  0
   -0.6543    4.9391    8.6349 H   0  0  0  0  0  0  0  0  0  0  0  0
   -0.9332    4.5027   10.2077 H   0  0  0  0  0  0  0  0  0  0  0  0
  1 14  1  0  0  0  0
  1  2  1  0  0  0  0
  3  1  1  0  0  0  0
  4  1  1  0  0  0  0
  4  5  1  0  0  0  0
  5 15  1  0  0  0  0
  6  5  2  0  0  0  0
  6 16  1  0  0  0  0
  7  6  1  0  0  0  0
  8 13  1  0  0  0  0
  8  7  2  0  0  0  0
  9  8  1  0  0  0  0
 10 11  2  0  0  0  0
 10  9  1  0  0  0  0
 11 12  1  0  0  0  0
 12 21  1  0  0  0  0
 12 13  2  0  0  0  0
 13  4  1  0  0  0  0
 14 24  1  0  0  0  0
 17  7  1  0  0  0  0
 18  9  1  0  0  0  0
 19 10  1  0  0  0  0
 20 11  1  0  0  0  0
 22 14  1  0  0  0  0
 23 14  1  0  0  0  0
M  END
$$$$
