CSD_code = LODFAL | q = 0 | S = 0 | Stoichiometry = C21H31BrN4Ni | MND = 4
 OpenBabel04212202063D

 58 60  0  0  1  0  0  0  0  0999 V2000
   12.2510   10.4417    7.4108 Ni  0  0  1  0  0  0  0  0  0  0  0  0
   12.6904   11.9560    9.1390 Br  0  0  0  0  0  0  0  0  0  0  0  0
   11.7339    9.2514    5.9835 C   0  0  0  0  0  0  0  0  0  0  0  0
   12.5049    8.1773    5.5206 C   0  0  0  0  0  0  0  0  0  0  0  0
   12.0696    7.4037    4.4507 C   0  0  0  0  0  0  0  0  0  0  0  0
   10.8708    7.6619    3.8163 C   0  0  0  0  0  0  0  0  0  0  0  0
   10.0911    8.7117    4.2639 C   0  0  0  0  0  0  0  0  0  0  0  0
   10.5193    9.4846    5.3295 C   0  0  0  0  0  0  0  0  0  0  0  0
   13.8312    7.8253    6.1393 C   0  0  0  0  0  0  0  0  0  0  0  0
   13.6604   11.1638    6.3200 C   0  0  2  0  0  3  0  0  0  0  0  0
   14.9755   11.1076    6.6204 N   0  0  0  0  0  0  0  0  0  0  0  0
   15.5404   10.5036    7.7951 C   0  0  0  0  0  0  0  0  0  0  0  0
   15.7255   11.7806    5.6822 C   0  0  0  0  0  0  0  0  0  0  0  0
   17.2042   11.8803    5.7766 C   0  0  0  0  0  0  0  0  0  0  0  0
   14.8484   12.2753    4.7685 C   0  0  0  0  0  0  0  0  0  0  0  0
   15.0637   13.0834    3.5412 C   0  0  0  0  0  0  0  0  0  0  0  0
   13.5919   11.8884    5.1840 N   0  0  0  0  0  0  0  0  0  0  0  0
   12.3851   12.2561    4.5000 C   0  0  0  0  0  0  0  0  0  0  0  0
   10.8212    9.6783    8.4022 C   0  0  0  0  0  0  0  0  0  0  0  0
   10.6881    8.5317    9.0956 N   0  0  0  0  0  0  0  0  0  0  0  0
   11.6922    7.5136    9.2081 C   0  0  0  0  0  0  0  0  0  0  0  0
    9.4536    8.4706    9.7092 C   0  0  0  0  0  0  0  0  0  0  0  0
    9.0433    7.3132   10.5443 C   0  0  0  0  0  0  0  0  0  0  0  0
    8.8039    9.6205    9.3854 C   0  0  0  0  0  0  0  0  0  0  0  0
    7.4593   10.1287    9.7582 C   0  0  0  0  0  0  0  0  0  0  0  0
    9.6608   10.3402    8.5831 N   0  0  0  0  0  0  0  0  0  0  0  0
    9.3838   11.6553    8.0760 C   0  0  0  0  0  0  0  0  0  0  0  0
   13.8811    6.7618    6.3727 H   0  0  0  0  0  0  0  0  0  0  0  0
   13.9879    8.3944    7.0546 H   0  0  0  0  0  0  0  0  0  0  0  0
   14.6431    8.0563    5.4478 H   0  0  0  0  0  0  0  0  0  0  0  0
   12.6906    6.5831    4.1135 H   0  0  0  0  0  0  0  0  0  0  0  0
   10.5473    7.0497    2.9861 H   0  0  0  0  0  0  0  0  0  0  0  0
    9.1440    8.9303    3.7885 H   0  0  0  0  0  0  0  0  0  0  0  0
    9.8655   10.2884    5.6508 H   0  0  0  0  0  0  0  0  0  0  0  0
   16.0969   11.2474    8.3678 H   0  0  0  0  0  0  0  0  0  0  0  0
   16.2065    9.6800    7.5290 H   0  0  0  0  0  0  0  0  0  0  0  0
   14.7287   10.1303    8.4230 H   0  0  0  0  0  0  0  0  0  0  0  0
   17.4956   12.4263    6.6741 H   0  0  0  0  0  0  0  0  0  0  0  0
   17.6006   12.4031    4.9111 H   0  0  0  0  0  0  0  0  0  0  0  0
   17.6562   10.8894    5.8222 H   0  0  0  0  0  0  0  0  0  0  0  0
   14.5832   14.0581    3.6304 H   0  0  0  0  0  0  0  0  0  0  0  0
   14.6471   12.5793    2.6690 H   0  0  0  0  0  0  0  0  0  0  0  0
   16.1263   13.2382    3.3782 H   0  0  0  0  0  0  0  0  0  0  0  0
   12.3212   13.3413    4.3992 H   0  0  0  0  0  0  0  0  0  0  0  0
   12.3488   11.8003    3.5081 H   0  0  0  0  0  0  0  0  0  0  0  0
   11.5361   11.8991    5.0800 H   0  0  0  0  0  0  0  0  0  0  0  0
   11.9329    7.3276   10.2565 H   0  0  0  0  0  0  0  0  0  0  0  0
   12.5866    7.8594    8.6923 H   0  0  0  0  0  0  0  0  0  0  0  0
   11.3529    6.5837    8.7465 H   0  0  0  0  0  0  0  0  0  0  0  0
    8.0310    7.4574   10.9103 H   0  0  0  0  0  0  0  0  0  0  0  0
    9.0762    6.3891    9.9667 H   0  0  0  0  0  0  0  0  0  0  0  0
    9.7076    7.2009   11.4016 H   0  0  0  0  0  0  0  0  0  0  0  0
    6.9430    9.4028   10.3795 H   0  0  0  0  0  0  0  0  0  0  0  0
    7.5441   11.0630   10.3135 H   0  0  0  0  0  0  0  0  0  0  0  0
    6.8569   10.3165    8.8692 H   0  0  0  0  0  0  0  0  0  0  0  0
    9.2356   12.3559    8.9003 H   0  0  0  0  0  0  0  0  0  0  0  0
    8.4947   11.6504    7.4418 H   0  0  0  0  0  0  0  0  0  0  0  0
   10.2492   11.9881    7.4934 H   0  0  0  0  0  0  0  0  0  0  0  0
  1 19  2  0  0  0  0
  1  2  1  6  0  0  0
  3  1  1  0  0  0  0
  4  3  1  0  0  0  0
  4  9  1  0  0  0  0
  5  4  2  0  0  0  0
  6  7  2  0  0  0  0
  6  5  1  0  0  0  0
  7  8  1  0  0  0  0
  8 34  1  0  0  0  0
  8  3  2  0  0  0  0
  9 28  1  0  0  0  0
  9 29  1  0  0  0  0
 10 11  1  0  0  0  0
 10  1  1  1  0  0  0
 11 12  1  0  0  0  0
 12 35  1  0  0  0  0
 12 37  1  0  0  0  0
 13 14  1  0  0  0  0
 13 11  1  0  0  0  0
 14 40  1  0  0  0  0
 14 38  1  0  0  0  0
 15 17  1  0  0  0  0
 15 13  2  0  0  0  0
 16 41  1  0  0  0  0
 16 15  1  0  0  0  0
 17 10  1  0  0  0  0
 18 46  1  0  0  0  0
 18 17  1  0  0  0  0
 19 26  1  0  0  0  0
 19 20  1  0  0  0  0
 20 21  1  0  0  0  0
 20 22  1  0  0  0  0
 21 47  1  0  0  0  0
 22 23  1  0  0  0  0
 23 50  1  0  0  0  0
 23 52  1  0  0  0  0
 24 22  2  0  0  0  0
 24 25  1  0  0  0  0
 25 54  1  0  0  0  0
 25 53  1  0  0  0  0
 26 24  1  0  0  0  0
 27 26  1  0  0  0  0
 27 56  1  0  0  0  0
 30  9  1  0  0  0  0
 31  5  1  0  0  0  0
 32  6  1  0  0  0  0
 33  7  1  0  0  0  0
 36 12  1  0  0  0  0
 39 14  1  0  0  0  0
 42 16  1  0  0  0  0
 43 16  1  0  0  0  0
 44 18  1  0  0  0  0
 45 18  1  0  0  0  0
 48 21  1  0  0  0  0
 49 21  1  0  0  0  0
 51 23  1  0  0  0  0
 55 25  1  0  0  0  0
 57 27  1  0  0  0  0
 58 27  1  0  0  0  0
M  END
$$$$
