CSD_code = LODNEY | q = 0 | S = 0 | Stoichiometry = C11H16BrO3ReS2 | MND = 6
 OpenBabel04212202063D

 34 35  0  0  0  0  0  0  0  0999 V2000
    0.6177    5.9565   11.0407 Br  0  0  0  0  0  0  0  0  0  0  0  0
    3.7896    5.1859   11.1922 C   0  0  0  0  0  2  0  0  0  0  0  0
    2.0889    3.4627   12.5756 C   0  0  0  0  0  2  0  0  0  0  0  0
    3.3282    2.5679   10.2459 C   0  0  0  0  0  2  0  0  0  0  0  0
   -1.0111    2.8999   11.4099 C   0  0  0  0  0  0  0  0  0  0  0  0
   -0.5089    3.4001   12.2371 H   0  0  0  0  0  0  0  0  0  0  0  0
   -1.8960    3.4727   11.1376 H   0  0  0  0  0  0  0  0  0  0  0  0
   -1.3102    1.4423   11.7234 C   0  0  0  0  0  0  0  0  0  0  0  0
   -1.5676    1.3287   12.7760 H   0  0  0  0  0  0  0  0  0  0  0  0
   -2.1526    1.0929   11.1222 H   0  0  0  0  0  0  0  0  0  0  0  0
   -0.0602    0.6484   11.3582 C   0  0  0  0  0  0  0  0  0  0  0  0
    0.7567    0.8995   12.0398 H   0  0  0  0  0  0  0  0  0  0  0  0
   -0.2336   -0.4269   11.4017 H   0  0  0  0  0  0  0  0  0  0  0  0
    0.2948    1.0878    9.9507 C   0  0  0  0  0  0  0  0  0  0  0  0
   -0.4136    0.7002    9.2167 H   0  0  0  0  0  0  0  0  0  0  0  0
    1.3071    0.8286    9.6515 H   0  0  0  0  0  0  0  0  0  0  0  0
    3.9267    4.4486    7.5102 C   0  0  0  0  0  0  0  0  0  0  0  0
    4.5770    4.0567    8.2919 H   0  0  0  0  0  0  0  0  0  0  0  0
    3.7431    3.6766    6.7652 H   0  0  0  0  0  0  0  0  0  0  0  0
    4.4724    5.7390    6.9237 C   0  0  0  0  0  0  0  0  0  0  0  0
    3.9780    5.9578    5.9746 H   0  0  0  0  0  0  0  0  0  0  0  0
    5.5445    5.6556    6.7458 H   0  0  0  0  0  0  0  0  0  0  0  0
    4.1469    6.8289    7.9390 C   0  0  0  0  0  0  0  0  0  0  0  0
    4.3630    7.8240    7.5504 H   0  0  0  0  0  0  0  0  0  0  0  0
    4.7350    6.6763    8.8461 H   0  0  0  0  0  0  0  0  0  0  0  0
    2.6663    6.6903    8.2440 C   0  0  0  0  0  0  0  0  0  0  0  0
    2.0472    7.1102    7.4502 H   0  0  0  0  0  0  0  0  0  0  0  0
    2.3712    7.1288    9.1950 H   0  0  0  0  0  0  0  0  0  0  0  0
    4.6822    5.8701   11.4198 O   0  0  0  0  0  1  0  0  0  0  0  0
    1.9692    3.0957   13.6569 O   0  0  0  0  0  1  0  0  0  0  0  0
    3.9605    1.6596    9.9391 O   0  0  0  0  0  1  0  0  0  0  0  0
    2.2461    4.0910   10.7418 Re  0  0  0  0  0  0  0  0  0  0  0  0
    0.1170    2.9066    9.9582 S   0  0  0  0  0  3  0  0  0  0  0  0
    2.3145    4.8930    8.2667 S   0  0  0  0  0  3  0  0  0  0  0  0
  2 29  1  0  0  0  0
  3 30  1  0  0  0  0
  4 32  1  0  0  0  0
  5  8  1  0  0  0  0
  5  6  1  0  0  0  0
  7  5  1  0  0  0  0
  8  9  1  0  0  0  0
 10  8  1  0  0  0  0
 11 13  1  0  0  0  0
 11  8  1  0  0  0  0
 11 12  1  0  0  0  0
 14 33  1  0  0  0  0
 14 11  1  0  0  0  0
 15 14  1  0  0  0  0
 16 14  1  0  0  0  0
 17 34  1  0  0  0  0
 17 18  1  0  0  0  0
 19 17  1  0  0  0  0
 20 17  1  0  0  0  0
 20 23  1  0  0  0  0
 21 20  1  0  0  0  0
 22 20  1  0  0  0  0
 23 26  1  0  0  0  0
 23 25  1  0  0  0  0
 24 23  1  0  0  0  0
 26 34  1  0  0  0  0
 26 28  1  0  0  0  0
 27 26  1  0  0  0  0
 31  4  1  0  0  0  0
 32  1  1  0  0  0  0
 32  2  1  0  0  0  0
 32  3  1  0  0  0  0
 33 32  1  0  0  0  0
 33  5  1  0  0  0  0
 34 32  1  0  0  0  0
M  END
$$$$
