CSD_code = LODQEC | q = 0 | S = 0 | Stoichiometry = C16H14Br2N6Zn | MND = 4
 OpenBabel04212202063D

 39 42  0  0  0  0  0  0  0  0999 V2000
    2.9233   -1.6614   16.1768 Br  0  0  0  0  0  0  0  0  0  0  0  0
    1.3829   -2.0704   12.0421 Br  0  0  0  0  0  0  0  0  0  0  0  0
   -0.6805    1.7581   17.9341 C   0  0  0  0  0  0  0  0  0  0  0  0
    0.3681    1.7202   18.8456 C   0  0  0  0  0  0  0  0  0  0  0  0
    1.2229    1.0872   18.6621 H   0  0  0  0  0  0  0  0  0  0  0  0
    0.2901    2.4813   19.9979 C   0  0  0  0  0  0  0  0  0  0  0  0
    1.1004    2.4511   20.7094 H   0  0  0  0  0  0  0  0  0  0  0  0
   -0.8229    3.2696   20.2416 C   0  0  0  0  0  0  0  0  0  0  0  0
   -0.8796    3.8592   21.1436 H   0  0  0  0  0  0  0  0  0  0  0  0
   -1.8652    3.3000   19.3299 C   0  0  0  0  0  0  0  0  0  0  0  0
   -2.7328    3.9138   19.5171 H   0  0  0  0  0  0  0  0  0  0  0  0
   -1.7996    2.5461   18.1719 C   0  0  0  0  0  0  0  0  0  0  0  0
   -2.6038    2.5771   17.4522 H   0  0  0  0  0  0  0  0  0  0  0  0
   -1.6093    0.2958   16.1355 C   0  0  0  0  0  0  0  0  0  0  0  0
   -2.6297    0.2837   16.4561 H   0  0  0  0  0  0  0  0  0  0  0  0
    0.4939    0.6806   16.0452 C   0  0  0  0  0  3  0  0  0  0  0  0
    1.4783    1.0622   16.2253 H   0  0  0  0  0  0  0  0  0  0  0  0
    4.9747    2.3881   11.3991 C   0  0  0  0  0  0  0  0  0  0  0  0
    5.7030    1.5110   10.6043 C   0  0  0  0  0  0  0  0  0  0  0  0
    5.6392    0.4469   10.7706 H   0  0  0  0  0  0  0  0  0  0  0  0
    6.5217    2.0147    9.6099 C   0  0  0  0  0  0  0  0  0  0  0  0
    7.0873    1.3344    8.9927 H   0  0  0  0  0  0  0  0  0  0  0  0
    6.6184    3.3819    9.4101 C   0  0  0  0  0  0  0  0  0  0  0  0
    7.2594    3.7699    8.6339 H   0  0  0  0  0  0  0  0  0  0  0  0
    5.8912    4.2514   10.2060 C   0  0  0  0  0  0  0  0  0  0  0  0
    5.9611    5.3170   10.0505 H   0  0  0  0  0  0  0  0  0  0  0  0
    5.0658    3.7605   11.2014 C   0  0  0  0  0  0  0  0  0  0  0  0
    4.4842    4.4364   11.8098 H   0  0  0  0  0  0  0  0  0  0  0  0
    3.8429    2.4339   13.6224 C   0  0  0  0  0  0  0  0  0  0  0  0
    4.2373    3.3626   13.9781 H   0  0  0  0  0  0  0  0  0  0  0  0
    3.4525    0.7156   12.4093 C   0  0  0  0  0  3  0  0  0  0  0  0
    3.4200    0.0183   11.5967 H   0  0  0  0  0  0  0  0  0  0  0  0
    0.1733   -0.1161   15.0603 N   0  0  0  0  0  0  0  0  0  0  0  0
   -1.1440   -0.3603   15.1199 N   0  0  0  0  0  0  0  0  0  0  0  0
   -0.6082    0.9772   16.7651 N   0  0  0  0  0  0  0  0  0  0  0  0
    2.7976    0.5865   13.5306 N   0  0  0  0  0  0  0  0  0  0  0  0
    3.0443    1.6638   14.2935 N   0  0  0  0  0  0  0  0  0  0  0  0
    4.1388    1.8808   12.4122 N   0  0  0  0  0  0  0  0  0  0  0  0
    1.7480   -1.1904   14.1766 Zn  0  0  0  0  0  0  0  0  0  0  0  0
  2 39  1  0  0  0  0
  3 12  2  0  0  0  0
  3  4  1  0  0  0  0
  4  6  2  0  0  0  0
  5  4  1  0  0  0  0
  6  8  1  0  0  0  0
  6  7  1  0  0  0  0
  8  9  1  0  0  0  0
 10 11  1  0  0  0  0
 10  8  2  0  0  0  0
 12 10  1  0  0  0  0
 13 12  1  0  0  0  0
 14 15  1  0  0  0  0
 14 35  1  0  0  0  0
 16 17  1  0  0  0  0
 16 35  1  0  0  0  0
 18 38  1  0  0  0  0
 19 20  1  0  0  0  0
 19 18  2  0  0  0  0
 21 19  1  0  0  0  0
 22 21  1  0  0  0  0
 23 21  2  0  0  0  0
 23 25  1  0  0  0  0
 24 23  1  0  0  0  0
 25 27  2  0  0  0  0
 26 25  1  0  0  0  0
 27 18  1  0  0  0  0
 27 28  1  0  0  0  0
 29 30  1  0  0  0  0
 29 37  2  0  0  0  0
 31 38  1  0  0  0  0
 31 36  1  0  0  0  0
 32 31  1  0  0  0  0
 33 34  1  0  0  0  0
 33 16  1  0  0  0  0
 34 14  2  0  0  0  0
 35  3  1  0  0  0  0
 36 39  1  0  0  0  0
 36 37  1  0  0  0  0
 38 29  1  0  0  0  0
 39 33  1  0  0  0  0
 39  1  1  0  0  0  0
M  END
$$$$
