CSD_code = LOFNUQ | q = 0 | S = 0 | Stoichiometry = C14H20ClNSi2Zr | MND = 12
 OpenBabel04212202063D

 39 42  0  0  1  0  0  0  0  0999 V2000
   27.7631   20.2985    0.6238 Zr  0  0  2  0  0  0  0  0  0  0  0  0
   29.5207   17.8564    0.5509 Si  0  0  0  0  0  0  0  0  0  0  0  0
   26.1880   17.7351    0.5821 Si  0  0  0  0  0  0  0  0  0  0  0  0
   27.7725   20.5375    2.9514 Cl  0  0  0  0  0  0  0  0  0  0  0  0
   27.8389   18.2230    0.5724 N   0  0  1  0  0  0  0  0  0  0  0  0
   29.9962   19.6385    0.0215 C   0  0  2  0  0  0  0  0  0  0  0  0
   30.1555   20.6798    0.9742 C   0  0  0  0  0  0  0  0  0  0  0  0
   30.6152   20.5710    1.9509 H   0  0  0  0  0  0  0  0  0  0  0  0
   29.7063   21.8966    0.4146 C   0  0  0  0  0  0  0  0  0  0  0  0
   29.8185   22.8816    0.8574 H   0  0  0  0  0  0  0  0  0  0  0  0
   29.2766   21.6271   -0.9091 C   0  0  0  0  0  0  0  0  0  0  0  0
   29.0250   22.3753   -1.6533 H   0  0  0  0  0  0  0  0  0  0  0  0
   29.4327   20.2436   -1.1407 C   0  0  0  0  0  0  0  0  0  0  0  0
   29.2634   19.7377   -2.0863 H   0  0  0  0  0  0  0  0  0  0  0  0
   25.5749   19.4762    0.0577 C   0  0  1  0  0  0  0  0  0  0  0  0
   25.3556   20.5054    1.0118 C   0  0  0  0  0  0  0  0  0  0  0  0
   24.9207   20.3657    1.9958 H   0  0  0  0  0  0  0  0  0  0  0  0
   25.7060   21.7503    0.4436 C   0  0  0  0  0  0  0  0  0  0  0  0
   25.5295   22.7256    0.8869 H   0  0  0  0  0  0  0  0  0  0  0  0
   26.1327   21.5097   -0.8866 C   0  0  0  0  0  0  0  0  0  0  0  0
   26.3172   22.2725   -1.6357 H   0  0  0  0  0  0  0  0  0  0  0  0
   26.0741   20.1181   -1.1141 C   0  0  0  0  0  0  0  0  0  0  0  0
   26.2648   19.6236   -2.0616 H   0  0  0  0  0  0  0  0  0  0  0  0
   30.2162   17.5169    2.3024 C   0  0  0  0  0  0  0  0  0  0  0  0
   29.7560   18.1918    3.0214 H   0  0  0  0  0  0  0  0  0  0  0  0
   31.2921   17.6496    2.3500 H   0  0  0  0  0  0  0  0  0  0  0  0
   29.9965   16.5020    2.6158 H   0  0  0  0  0  0  0  0  0  0  0  0
   30.0547   16.5152   -0.6977 C   0  0  0  0  0  0  0  0  0  0  0  0
   29.6499   15.5546   -0.4025 H   0  0  0  0  0  0  0  0  0  0  0  0
   31.1335   16.4226   -0.7406 H   0  0  0  0  0  0  0  0  0  0  0  0
   29.6951   16.7317   -1.6971 H   0  0  0  0  0  0  0  0  0  0  0  0
   25.7317   16.3527   -0.6523 C   0  0  0  0  0  0  0  0  0  0  0  0
   26.0498   16.5940   -1.6601 H   0  0  0  0  0  0  0  0  0  0  0  0
   24.6628   16.1754   -0.6699 H   0  0  0  0  0  0  0  0  0  0  0  0
   26.2176   15.4278   -0.3657 H   0  0  0  0  0  0  0  0  0  0  0  0
   25.5498   17.3543    2.3467 C   0  0  0  0  0  0  0  0  0  0  0  0
   25.8427   16.3574    2.6577 H   0  0  0  0  0  0  0  0  0  0  0  0
   24.4684   17.4150    2.4139 H   0  0  0  0  0  0  0  0  0  0  0  0
   25.9771   18.0611    3.0553 H   0  0  0  0  0  0  0  0  0  0  0  0
  1  4  1  1  0  0  0
  2 24  1  0  0  0  0
  3 36  1  0  0  0  0
  5  2  1  1  0  0  0
  5  3  1  0  0  0  0
  5  1  1  0  0  0  0
  6 13  1  6  0  0  0
  6  2  1  0  0  0  0
  6  1  1  0  0  0  0
  6  7  1  0  0  0  0
  7  8  1  0  0  0  0
  9 10  1  0  0  0  0
  9  7  2  0  0  0  0
 11  9  1  0  0  0  0
 12 11  1  0  0  0  0
 13 11  2  0  0  0  0
 14 13  1  0  0  0  0
 15 22  1  6  0  0  0
 15  3  1  0  0  0  0
 15  1  1  0  0  0  0
 15 16  1  0  0  0  0
 16 17  1  0  0  0  0
 18 19  1  0  0  0  0
 18 16  2  0  0  0  0
 20 18  1  0  0  0  0
 21 20  1  0  0  0  0
 22 20  2  0  0  0  0
 23 22  1  0  0  0  0
 24 26  1  0  0  0  0
 24 27  1  0  0  0  0
 24 25  1  0  0  0  0
 28 29  1  0  0  0  0
 28  2  1  0  0  0  0
 30 28  1  0  0  0  0
 31 28  1  0  0  0  0
 32 35  1  0  0  0  0
 32  3  1  0  0  0  0
 33 32  1  0  0  0  0
 34 32  1  0  0  0  0
 36 38  1  0  0  0  0
 36 37  1  0  0  0  0
 36 39  1  0  0  0  0
M  END
$$$$
