CSD_code = LOFRIH | q = 0 | S = 0 | Stoichiometry = C26H35BClN6Ta | MND = 7
 OpenBabel04212202063D

 70 70  0  0  0  0  0  0  0  0999 V2000
   10.4406    2.2281    2.0260 Ta  0  0  0  0  0  0  0  0  0  0  0  0
   12.3539    2.6823    0.8609 Cl  0  0  0  0  0 15  0  0  0  0  0  0
   11.6939    0.6580    3.2516 N   0  0  0  0  0  0  0  0  0  0  0  0
   11.6629    0.6740    4.5979 N   0  0  0  0  0  0  0  0  0  0  0  0
    8.9403    1.8305    3.7012 N   0  0  0  0  0  0  0  0  0  0  0  0
    9.3387    1.5875    4.9644 N   0  0  0  0  0  0  0  0  0  0  0  0
   11.3796    3.6164    3.9581 N   0  0  0  0  0  0  0  0  0  0  0  0
   11.3275    3.0847    5.1888 N   0  0  0  0  0  0  0  0  0  0  0  0
    9.5041    0.3698    0.9841 C   0  0  0  0  0  3  0  0  0  0  0  0
    9.1800   -0.8334    1.8650 C   0  0  0  0  0  0  0  0  0  0  0  0
    8.8349    3.4629   -0.8640 C   0  0  0  0  0  0  0  0  0  0  0  0
    9.3346    3.3607    0.5300 C   0  0  0  0  0  3  0  0  0  0  0  0
    9.2980    4.0307    1.6401 C   0  0  0  0  0  0  0  0  0  0  0  0
    8.8509    5.2874    2.1816 C   0  0  0  0  0  0  0  0  0  0  0  0
    8.4329    5.3833    3.5121 C   0  0  0  0  0  0  0  0  0  0  0  0
    8.0379    6.5967    4.0387 C   0  0  0  0  0  0  0  0  0  0  0  0
    8.0607    7.7398    3.2545 C   0  0  0  0  0  0  0  0  0  0  0  0
    8.4802    7.6599    1.9359 C   0  0  0  0  0  0  0  0  0  0  0  0
    8.8698    6.4479    1.4004 C   0  0  0  0  0  0  0  0  0  0  0  0
   12.5777   -0.2648    2.8719 C   0  0  0  0  0  0  0  0  0  0  0  0
   13.1305   -0.8594    4.0073 C   0  0  0  0  0  0  0  0  0  0  0  0
   12.5268   -0.2373    5.0845 C   0  0  0  0  0  0  0  0  0  0  0  0
   12.8876   -0.5991    1.4570 C   0  0  0  0  0  0  0  0  0  0  0  0
   12.7598   -0.5013    6.5288 C   0  0  0  0  0  0  0  0  0  0  0  0
    7.6047    1.7909    3.6800 C   0  0  0  0  0  0  0  0  0  0  0  0
    7.1371    1.5127    4.9630 C   0  0  0  0  0  0  0  0  0  0  0  0
    8.2676    1.3927    5.7534 C   0  0  0  0  0  0  0  0  0  0  0  0
    6.7788    2.0153    2.4654 C   0  0  0  0  0  0  0  0  0  0  0  0
    8.3235    1.1054    7.2105 C   0  0  0  0  0  0  0  0  0  0  0  0
   11.8975    4.8336    4.0531 C   0  0  0  0  0  0  0  0  0  0  0  0
   12.1900    5.1004    5.3960 C   0  0  0  0  0  0  0  0  0  0  0  0
   11.8138    3.9653    6.0882 C   0  0  0  0  0  0  0  0  0  0  0  0
   12.1157    5.7209    2.8808 C   0  0  0  0  0  0  0  0  0  0  0  0
   11.9054    3.7063    7.5496 C   0  0  0  0  0  0  0  0  0  0  0  0
   10.8104    1.6582    5.4139 B   0  0  0  0  0  0  0  0  0  0  0  0
   10.8800    1.3816    6.5566 H   0  0  0  0  0  0  0  0  0  0  0  0
   10.2304    0.0533    0.2312 H   0  0  0  0  0  0  0  0  0  0  0  0
    8.5976    0.6204    0.4278 H   0  0  0  0  0  0  0  0  0  0  0  0
    8.7987   -1.6646    1.2661 H   0  0  0  0  0  0  0  0  0  0  0  0
   10.0596   -1.1887    2.3986 H   0  0  0  0  0  0  0  0  0  0  0  0
    8.4183   -0.5858    2.6042 H   0  0  0  0  0  0  0  0  0  0  0  0
    8.0709    4.2364   -0.9583 H   0  0  0  0  0  0  0  0  0  0  0  0
    9.6696    3.7084   -1.5221 H   0  0  0  0  0  0  0  0  0  0  0  0
    8.4234    2.5103   -1.1958 H   0  0  0  0  0  0  0  0  0  0  0  0
    8.4218    4.4927    4.1243 H   0  0  0  0  0  0  0  0  0  0  0  0
    7.7146    6.6572    5.0684 H   0  0  0  0  0  0  0  0  0  0  0  0
    7.7554    8.6892    3.6696 H   0  0  0  0  0  0  0  0  0  0  0  0
    8.5018    8.5503    1.3233 H   0  0  0  0  0  0  0  0  0  0  0  0
    9.2073    6.3858    0.3762 H   0  0  0  0  0  0  0  0  0  0  0  0
   13.8704   -1.6333    4.0376 H   0  0  0  0  0  0  0  0  0  0  0  0
   13.8364   -1.1283    1.4093 H   0  0  0  0  0  0  0  0  0  0  0  0
   12.9475    0.3041    0.8544 H   0  0  0  0  0  0  0  0  0  0  0  0
   12.1138   -1.2405    1.0368 H   0  0  0  0  0  0  0  0  0  0  0  0
   13.4866   -1.3026    6.6333 H   0  0  0  0  0  0  0  0  0  0  0  0
   13.1432    0.3869    7.0273 H   0  0  0  0  0  0  0  0  0  0  0  0
   11.8365   -0.7970    7.0235 H   0  0  0  0  0  0  0  0  0  0  0  0
    6.1171    1.4149    5.2745 H   0  0  0  0  0  0  0  0  0  0  0  0
    5.7523    2.2211    2.7587 H   0  0  0  0  0  0  0  0  0  0  0  0
    7.1702    2.8504    1.8888 H   0  0  0  0  0  0  0  0  0  0  0  0
    6.7878    1.1317    1.8300 H   0  0  0  0  0  0  0  0  0  0  0  0
    7.3146    0.9557    7.5854 H   0  0  0  0  0  0  0  0  0  0  0  0
    8.7789    1.9336    7.7501 H   0  0  0  0  0  0  0  0  0  0  0  0
    8.9096    0.2101    7.4066 H   0  0  0  0  0  0  0  0  0  0  0  0
   12.6173    5.9954    5.8007 H   0  0  0  0  0  0  0  0  0  0  0  0
   13.1364    6.1006    2.8865 H   0  0  0  0  0  0  0  0  0  0  0  0
   11.9419    5.1760    1.9559 H   0  0  0  0  0  0  0  0  0  0  0  0
   11.4353    6.5712    2.9209 H   0  0  0  0  0  0  0  0  0  0  0  0
   12.3194    4.5805    8.0449 H   0  0  0  0  0  0  0  0  0  0  0  0
   12.5480    2.8513    7.7528 H   0  0  0  0  0  0  0  0  0  0  0  0
   10.9226    3.4976    7.9688 H   0  0  0  0  0  0  0  0  0  0  0  0
  3  4  1  0  0  0  0
  4 22  1  0  0  0  0
  4 35  1  0  0  0  0
  5  6  1  0  0  0  0
  6 35  1  0  0  0  0
  6 27  1  0  0  0  0
  7 30  2  0  0  0  0
  7  8  1  0  0  0  0
  8 35  1  0  0  0  0
  8 32  1  0  0  0  0
  9 10  1  0  0  0  0
 10 40  1  0  0  0  0
 10 41  1  0  0  0  0
 11 12  1  0  0  0  0
 12 13  2  0  0  0  0
 13  1  1  0  0  0  0
 13 14  1  0  0  0  0
 14 15  1  0  0  0  0
 15 16  2  0  0  0  0
 15 45  1  0  0  0  0
 16 46  1  0  0  0  0
 17 47  1  0  0  0  0
 17 16  1  0  0  0  0
 18 17  2  0  0  0  0
 19 18  1  0  0  0  0
 19 14  2  0  0  0  0
 20  3  2  0  0  0  0
 20 21  1  0  0  0  0
 21 50  1  0  0  0  0
 21 22  2  0  0  0  0
 22 24  1  0  0  0  0
 23 20  1  0  0  0  0
 24 54  1  0  0  0  0
 24 56  1  0  0  0  0
 24 55  1  0  0  0  0
 25  5  2  0  0  0  0
 25 26  1  0  0  0  0
 26 57  1  0  0  0  0
 26 27  2  0  0  0  0
 27 29  1  0  0  0  0
 28 58  1  0  0  0  0
 28 25  1  0  0  0  0
 29 63  1  0  0  0  0
 29 61  1  0  0  0  0
 29 62  1  0  0  0  0
 30 31  1  0  0  0  0
 31 64  1  0  0  0  0
 31 32  2  0  0  0  0
 32 34  1  0  0  0  0
 33 65  1  0  0  0  0
 33 67  1  0  0  0  0
 33 30  1  0  0  0  0
 34 69  1  0  0  0  0
 34 70  1  0  0  0  0
 34 68  1  0  0  0  0
 35 36  1  0  0  0  0
 37  9  1  0  0  0  0
 38  9  1  0  0  0  0
 39 10  1  0  0  0  0
 42 11  1  0  0  0  0
 43 11  1  0  0  0  0
 44 11  1  0  0  0  0
 48 18  1  0  0  0  0
 49 19  1  0  0  0  0
 51 23  1  0  0  0  0
 52 23  1  0  0  0  0
 53 23  1  0  0  0  0
 59 28  1  0  0  0  0
 60 28  1  0  0  0  0
 66 33  1  0  0  0  0
M  END
$$$$
