CSD_code = LOFTIM | q = 0 | S = 0 | Stoichiometry = C14H12Br2N4Pd | MND = 4
 OpenBabel04212202063D

 33 36  0  0  0  0  0  0  0  0999 V2000
    6.3557    2.3488   -0.0010 Pd  0  0  0  0  0  0  0  0  0  0  0  0
    7.4933    0.6703    1.3482 Br  0  0  0  0  0  0  0  0  0  0  0  0
    5.3243    2.9188    1.5782 N   0  0  0  0  0  0  0  0  0  0  0  0
    4.3353    3.7074    3.3855 N   0  0  0  0  0  0  0  0  0  0  0  0
    4.1834    4.2702    4.2056 H   0  0  0  0  0  0  0  0  0  0  0  0
    5.4090    3.7734    2.5586 C   0  0  0  0  0  3  0  0  0  0  0  0
    6.2245    4.4580    2.7116 H   0  0  0  0  0  0  0  0  0  0  0  0
    3.4983    2.7345    2.8950 C   0  0  0  0  0  0  0  0  0  0  0  0
    2.2741    2.2241    3.3019 C   0  0  0  0  0  0  0  0  0  0  0  0
    1.7723    2.5940    4.1823 H   0  0  0  0  0  0  0  0  0  0  0  0
    1.7287    1.2205    2.5267 C   0  0  0  0  0  0  0  0  0  0  0  0
    0.7772    0.7976    2.8108 H   0  0  0  0  0  0  0  0  0  0  0  0
    2.3670    0.7304    1.3823 C   0  0  0  0  0  0  0  0  0  0  0  0
    1.8904   -0.0553    0.8168 H   0  0  0  0  0  0  0  0  0  0  0  0
    3.5828    1.2288    0.9680 C   0  0  0  0  0  0  0  0  0  0  0  0
    4.1004    0.8605    0.0759 H   0  0  0  0  0  0  0  0  0  0  0  0
    4.1414    2.2415    1.7440 C   0  0  0  0  0  0  0  0  0  0  0  0
    5.2208    4.0289   -1.3465 Br  0  0  0  0  0  0  0  0  0  0  0  0
    7.3891    1.7802   -1.5794 N   0  0  0  0  0  0  0  0  0  0  0  0
    8.3796    0.9921   -3.3862 N   0  0  0  0  0  0  0  0  0  0  0  0
    8.5321    0.4294   -4.2062 H   0  0  0  0  0  0  0  0  0  0  0  0
    7.3054    0.9256   -2.5599 C   0  0  0  0  0  3  0  0  0  0  0  0
    6.4904    0.2406   -2.7133 H   0  0  0  0  0  0  0  0  0  0  0  0
    9.2159    1.9653   -2.8952 C   0  0  0  0  0  0  0  0  0  0  0  0
   10.4401    2.4762   -3.3014 C   0  0  0  0  0  0  0  0  0  0  0  0
   10.9424    2.1065   -4.1816 H   0  0  0  0  0  0  0  0  0  0  0  0
   10.9847    3.4798   -2.5257 C   0  0  0  0  0  0  0  0  0  0  0  0
   11.9362    3.9031   -2.8094 H   0  0  0  0  0  0  0  0  0  0  0  0
   10.3458    3.9695   -1.3816 C   0  0  0  0  0  0  0  0  0  0  0  0
   10.8218    4.7554   -0.8158 H   0  0  0  0  0  0  0  0  0  0  0  0
    9.1300    3.4706   -0.9679 C   0  0  0  0  0  0  0  0  0  0  0  0
    8.6118    3.8388   -0.0759 H   0  0  0  0  0  0  0  0  0  0  0  0
    8.5719    2.4579   -1.7443 C   0  0  0  0  0  0  0  0  0  0  0  0
  1  2  1  0  0  0  0
  1  3  1  0  0  0  0
  3 17  1  0  0  0  0
  3  6  1  0  0  0  0
  4  5  1  0  0  0  0
  6  7  1  0  0  0  0
  6  4  1  0  0  0  0
  8  9  1  0  0  0  0
  8  4  1  0  0  0  0
  9 10  1  0  0  0  0
 11 12  1  0  0  0  0
 11  9  2  0  0  0  0
 13 11  1  0  0  0  0
 14 13  1  0  0  0  0
 15 13  2  0  0  0  0
 15 17  1  0  0  0  0
 16 15  1  0  0  0  0
 17  8  2  0  0  0  0
 18  1  1  0  0  0  0
 19  1  1  0  0  0  0
 20 24  1  0  0  0  0
 20 22  1  0  0  0  0
 21 20  1  0  0  0  0
 22 19  1  0  0  0  0
 23 22  1  0  0  0  0
 24 33  1  0  0  0  0
 25 24  2  0  0  0  0
 25 27  1  0  0  0  0
 26 25  1  0  0  0  0
 27 29  2  0  0  0  0
 28 27  1  0  0  0  0
 29 31  1  0  0  0  0
 29 30  1  0  0  0  0
 31 32  1  0  0  0  0
 33 19  1  0  0  0  0
 33 31  2  0  0  0  0
M  END
$$$$
