CSD_code = LOGKOJ | q = 0 | S = 0 | Stoichiometry = C17H14ClN3O2Pd | MND = 4
 OpenBabel04212202063D

 38 42  0  0  0  0  0  0  0  0999 V2000
    5.5665    3.7817   -0.3731 Pd  0  0  2  0  0  0  0  0  0  0  0  0
    5.8994    1.9600   -1.6056 Cl  0  0  0  0  0  0  0  0  0  0  0  0
    3.2389    6.4757    4.1623 O   0  0  0  0  0  0  0  0  0  0  0  0
    4.2886    8.4135    3.8012 O   0  0  0  0  0  0  0  0  0  0  0  0
    4.4465    3.0399    1.2019 N   0  0  0  0  0  0  0  0  0  0  0  0
    5.2891    5.3001    0.6453 N   0  0  0  0  0  0  0  0  0  0  0  0
    6.5752    5.2193   -1.4980 N   0  0  0  0  0  0  0  0  0  0  0  0
    4.0581    1.7833    1.3855 C   0  0  0  0  0  0  0  0  0  0  0  0
    4.3656    1.0731    0.6246 H   0  0  0  0  0  0  0  0  0  0  0  0
    3.3052    1.3899    2.4793 C   0  0  0  0  0  0  0  0  0  0  0  0
    3.0124    0.3585    2.5894 H   0  0  0  0  0  0  0  0  0  0  0  0
    2.9418    2.3495    3.4153 C   0  0  0  0  0  0  0  0  0  0  0  0
    2.3537    2.0774    4.2788 H   0  0  0  0  0  0  0  0  0  0  0  0
    3.3381    3.6605    3.2327 C   0  0  0  0  0  0  0  0  0  0  0  0
    3.0705    4.4385    3.9293 H   0  0  0  0  0  0  0  0  0  0  0  0
    4.0988    4.0023    2.1150 C   0  0  0  0  0  0  0  0  0  0  0  0
    4.5946    5.3249    1.7799 C   0  0  0  0  0  0  0  0  0  0  0  0
    4.6164    6.6796    2.2466 C   0  0  0  0  0  0  0  0  0  0  0  0
    5.3576    7.4249    1.2987 C   0  0  0  0  0  0  0  0  0  0  0  0
    5.7665    6.5124    0.3048 C   0  0  0  0  0  0  0  0  0  0  0  0
    6.5200    6.4639   -0.9266 C   0  0  0  0  0  0  0  0  0  0  0  0
    7.1705    7.5393   -1.5365 C   0  0  0  0  0  0  0  0  0  0  0  0
    7.1312    8.5111   -1.0735 H   0  0  0  0  0  0  0  0  0  0  0  0
    7.8584    7.3439   -2.7176 C   0  0  0  0  0  0  0  0  0  0  0  0
    8.3629    8.1701   -3.1956 H   0  0  0  0  0  0  0  0  0  0  0  0
    7.8957    6.0748   -3.2817 C   0  0  0  0  0  0  0  0  0  0  0  0
    8.4232    5.8871   -4.2023 H   0  0  0  0  0  0  0  0  0  0  0  0
    7.2404    5.0415   -2.6330 C   0  0  0  0  0  0  0  0  0  0  0  0
    7.2431    4.0315   -3.0298 H   0  0  0  0  0  0  0  0  0  0  0  0
    3.9796    7.1425    3.4695 C   0  0  0  0  0  0  0  0  0  0  0  0
    3.6865    8.8976    4.9897 C   0  0  0  0  0  0  0  0  0  0  0  0
    2.5980    8.8790    4.9006 H   0  0  0  0  0  0  0  0  0  0  0  0
    4.0425    9.9169    5.1172 H   0  0  0  0  0  0  0  0  0  0  0  0
    3.9773    8.2804    5.8425 H   0  0  0  0  0  0  0  0  0  0  0  0
    5.6546    8.8836    1.2848 C   0  0  0  0  0  0  0  0  0  0  0  0
    5.0876    9.4000    2.0500 H   0  0  0  0  0  0  0  0  0  0  0  0
    5.4046    9.3064    0.3120 H   0  0  0  0  0  0  0  0  0  0  0  0
    6.7160    9.0536    1.4695 H   0  0  0  0  0  0  0  0  0  0  0  0
  1  2  1  6  0  0  0
  1  6  1  0  0  0  0
  1  5  1  0  0  0  0
  4 31  1  0  0  0  0
  5  8  1  0  0  0  0
  5 16  1  0  0  0  0
  6 17  1  0  0  0  0
  7 21  1  0  0  0  0
  7  1  1  0  0  0  0
  8 10  2  0  0  0  0
  9  8  1  0  0  0  0
 10 11  1  0  0  0  0
 10 12  1  0  0  0  0
 12 13  1  0  0  0  0
 14 12  2  0  0  0  0
 14 15  1  0  0  0  0
 16 14  1  0  0  0  0
 17 16  2  0  0  0  0
 17 18  1  0  0  0  0
 18 30  1  0  0  0  0
 19 18  2  0  0  0  0
 20  6  1  0  0  0  0
 20 19  1  0  0  0  0
 21 20  2  0  0  0  0
 22 23  1  0  0  0  0
 22 21  1  0  0  0  0
 24 22  2  0  0  0  0
 25 24  1  0  0  0  0
 26 24  1  0  0  0  0
 26 28  2  0  0  0  0
 27 26  1  0  0  0  0
 28  7  1  0  0  0  0
 29 28  1  0  0  0  0
 30  4  1  0  0  0  0
 30  3  2  0  0  0  0
 31 33  1  0  0  0  0
 31 34  1  0  0  0  0
 32 31  1  0  0  0  0
 35 19  1  0  0  0  0
 35 38  1  0  0  0  0
 35 36  1  0  0  0  0
 37 35  1  0  0  0  0
M  END
$$$$
