CSD_code = LOGLAW | q = 0 | S = 0 | Stoichiometry = C27H22ClN5O2Ru | MND = 6
 OpenBabel04212202063D

 58 65  0  0  1  0  0  0  0  0999 V2000
    2.4278    3.1993    1.9842 Ru  0  0  0  0  0  0  0  0  0  0  0  0
    0.8724    1.8353    3.1207 Cl  0  0  0  0  0  0  0  0  0  0  0  0
    5.6838    2.7673    6.7795 O   0  0  0  0  0  0  0  0  0  0  0  0
    4.2894    3.9894    8.0284 O   0  0  0  0  0  0  0  0  0  0  0  0
    3.8973    1.8279    2.5154 N   0  0  0  0  0  0  0  0  0  0  0  0
    2.9539    3.7890    3.6863 N   0  0  0  0  0  0  0  0  0  0  0  0
    1.1141    4.7865    2.3267 N   0  0  0  0  0  0  0  0  0  0  0  0
    4.3113    0.7807    1.8126 C   0  0  0  0  0  3  0  0  0  0  0  0
    3.8627    0.6540    0.8325 H   0  0  0  0  0  0  0  0  0  0  0  0
    5.2530   -0.1185    2.2751 C   0  0  0  0  0  0  0  0  0  0  0  0
    5.5497   -0.9539    1.6615 H   0  0  0  0  0  0  0  0  0  0  0  0
    5.7964    0.0817    3.5399 C   0  0  0  0  0  0  0  0  0  0  0  0
    6.5342   -0.6008    3.9337 H   0  0  0  0  0  0  0  0  0  0  0  0
    5.3778    1.1626    4.2850 C   0  0  0  0  0  0  0  0  0  0  0  0
    5.7718    1.3650    5.2675 H   0  0  0  0  0  0  0  0  0  0  0  0
    4.4155    2.0334    3.7655 C   0  0  0  0  0  0  0  0  0  0  0  0
    3.8549    3.1750    4.4464 C   0  0  0  0  0  0  0  0  0  0  0  0
    3.8417    3.8235    5.7283 C   0  0  0  0  0  0  0  0  0  0  0  0
    2.8605    4.8354    5.6554 C   0  0  0  0  0  0  0  0  0  0  0  0
    2.3178    4.7698    4.3527 C   0  0  0  0  0  0  0  0  0  0  0  0
    1.2543    5.3391    3.5707 C   0  0  2  0  0  3  0  0  0  0  0  0
    0.3796    6.3442    3.9989 C   0  0  0  0  0  0  0  0  0  0  0  0
    0.4974    6.7543    4.9877 H   0  0  0  0  0  0  0  0  0  0  0  0
   -0.6259    6.7820    3.1652 C   0  0  0  0  0  0  0  0  0  0  0  0
   -1.3099    7.5523    3.4885 H   0  0  0  0  0  0  0  0  0  0  0  0
   -0.7512    6.2110    1.9033 C   0  0  0  0  0  0  0  0  0  0  0  0
   -1.5266    6.5214    1.2220 H   0  0  0  0  0  0  0  0  0  0  0  0
    0.1379    5.2174    1.5383 C   0  0  0  0  0  0  0  0  0  0  0  0
    0.0606    4.7406    0.5666 H   0  0  0  0  0  0  0  0  0  0  0  0
    4.6925    3.4672    6.8473 C   0  0  0  0  0  0  0  0  0  0  0  0
    5.0841    3.6460    9.1486 C   0  0  0  0  0  0  0  0  0  0  0  0
    6.1083    4.0035    9.0162 H   0  0  0  0  0  0  0  0  0  0  0  0
    5.1085    2.5619    9.2804 H   0  0  0  0  0  0  0  0  0  0  0  0
    4.6204    4.1235   10.0085 H   0  0  0  0  0  0  0  0  0  0  0  0
    2.4637    5.8192    6.7003 C   0  0  0  0  0  0  0  0  0  0  0  0
    2.4402    6.8261    6.2825 H   0  0  0  0  0  0  0  0  0  0  0  0
    3.1584    5.7967    7.5321 H   0  0  0  0  0  0  0  0  0  0  0  0
    1.4693    5.5815    7.0797 H   0  0  0  0  0  0  0  0  0  0  0  0
    1.8960    2.6042    0.1768 N   0  0  0  0  0  0  0  0  0  0  0  0
    3.6666    4.2749    0.9078 N   0  0  0  0  0  0  0  0  0  0  0  0
    0.9447    1.7043   -0.1051 C   0  0  0  0  0  3  0  0  0  0  0  0
    0.4438    1.2766    0.7559 H   0  0  0  0  0  0  0  0  0  0  0  0
    0.6137    1.3385   -1.3915 C   0  0  0  0  0  0  0  0  0  0  0  0
   -0.1613    0.6081   -1.5593 H   0  0  0  0  0  0  0  0  0  0  0  0
    1.2901    1.9223   -2.4613 C   0  0  0  0  0  0  0  0  0  0  0  0
    1.0522    1.6560   -3.4792 H   0  0  0  0  0  0  0  0  0  0  0  0
    2.2735    2.8503   -2.1873 C   0  0  0  0  0  0  0  0  0  0  0  0
    2.8164    3.3212   -2.9910 H   0  0  0  0  0  0  0  0  0  0  0  0
    2.5639    3.1785   -0.8619 C   0  0  0  0  0  0  0  0  0  0  0  0
    3.5765    4.1300   -0.4431 C   0  0  2  0  0  3  0  0  0  0  0  0
    4.4075    4.8463   -1.3053 C   0  0  0  0  0  0  0  0  0  0  0  0
    4.3159    4.7149   -2.3713 H   0  0  0  0  0  0  0  0  0  0  0  0
    5.3439    5.7186   -0.7901 C   0  0  0  0  0  0  0  0  0  0  0  0
    5.9937    6.2795   -1.4428 H   0  0  0  0  0  0  0  0  0  0  0  0
    5.4305    5.8549    0.5941 C   0  0  0  0  0  0  0  0  0  0  0  0
    6.1491    6.5219    1.0421 H   0  0  0  0  0  0  0  0  0  0  0  0
    4.5818    5.1216    1.3929 C   0  0  0  0  0  0  0  0  0  0  0  0
    4.6278    5.2064    2.4713 H   0  0  0  0  0  0  0  0  0  0  0  0
  1  7  1  0  0  0  0
  1  5  1  0  0  0  0
  1  2  1  0  0  0  0
  1  6  1  0  0  0  0
  3 30  2  0  0  0  0
  4 31  1  0  0  0  0
  5 16  1  0  0  0  0
  6 20  1  0  0  0  0
  6 17  1  0  0  0  0
  7 21  1  0  0  0  0
  8 10  1  0  0  0  0
  8  5  1  0  0  0  0
  9  8  1  0  0  0  0
 10 12  2  0  0  0  0
 11 10  1  0  0  0  0
 12 13  1  0  0  0  0
 12 14  1  0  0  0  0
 14 15  1  0  0  0  0
 16 14  2  0  0  0  0
 16 17  1  0  0  0  0
 17 18  2  0  0  0  0
 18 30  1  0  0  0  0
 19 18  1  0  0  0  0
 19 35  1  0  0  0  0
 20 19  2  0  0  0  0
 21 22  1  1  0  0  0
 21 20  1  0  0  0  0
 22 23  1  0  0  0  0
 24 25  1  0  0  0  0
 24 22  2  0  0  0  0
 26 24  1  0  0  0  0
 27 26  1  0  0  0  0
 28 26  2  0  0  0  0
 28  7  1  0  0  0  0
 29 28  1  0  0  0  0
 30  4  1  0  0  0  0
 31 33  1  0  0  0  0
 31 34  1  0  0  0  0
 32 31  1  0  0  0  0
 35 38  1  0  0  0  0
 35 37  1  0  0  0  0
 36 35  1  0  0  0  0
 39  1  1  0  0  0  0
 40 57  1  0  0  0  0
 40  1  1  0  0  0  0
 41 39  1  0  0  0  0
 41 42  1  0  0  0  0
 43 41  1  0  0  0  0
 44 43  1  0  0  0  0
 45 47  1  0  0  0  0
 45 43  2  0  0  0  0
 46 45  1  0  0  0  0
 47 49  2  0  0  0  0
 48 47  1  0  0  0  0
 49 50  1  0  0  0  0
 49 39  1  0  0  0  0
 50 51  1  1  0  0  0
 50 40  1  0  0  0  0
 51 53  2  0  0  0  0
 52 51  1  0  0  0  0
 53 55  1  0  0  0  0
 54 53  1  0  0  0  0
 55 56  1  0  0  0  0
 55 57  2  0  0  0  0
 57 58  1  0  0  0  0
M  END
$$$$
