CSD_code = LOGLUR | q = 0 | S = 0 | Stoichiometry = C15H9BrMnN3O3 | MND = 6
 OpenBabel04212202063D

 32 35  0  0  0  0  0  0  0  0999 V2000
   -0.3042    5.9923    2.3518 Br  0  0  0  0  0  0  0  0  0  0  0  0
    1.6280    7.1495    3.3708 Mn  0  0  0  0  0  0  0  0  0  0  0  0
    3.9210    8.4813    4.6055 O   0  0  0  0  0  1  0  0  0  0  0  0
    0.0104    9.5960    3.3859 O   0  0  0  0  0  1  0  0  0  0  0  0
    0.4637    6.6613    6.0160 O   0  0  0  0  0  1  0  0  0  0  0  0
    2.3739    7.2956    1.4734 N   0  0  0  0  0  0  0  0  0  0  0  0
    3.2167    6.2248   -0.2846 N   0  0  0  0  0  0  0  0  0  0  0  0
    3.5749    5.4762   -0.8529 H   0  0  0  0  0  0  0  0  0  0  0  0
    2.5754    5.3142    3.1838 N   0  0  0  0  0  0  0  0  0  0  0  0
    2.3806    8.1625    0.4141 C   0  0  0  0  0  0  0  0  0  0  0  0
    1.9736    9.4910    0.3156 C   0  0  0  0  0  0  0  0  0  0  0  0
    1.5747   10.0100    1.1727 H   0  0  0  0  0  0  0  0  0  0  0  0
    2.1004   10.1033   -0.9113 C   0  0  0  0  0  0  0  0  0  0  0  0
    1.7913   11.1309   -1.0242 H   0  0  0  0  0  0  0  0  0  0  0  0
    2.6182    9.4290   -2.0220 C   0  0  0  0  0  0  0  0  0  0  0  0
    2.6939    9.9518   -2.9630 H   0  0  0  0  0  0  0  0  0  0  0  0
    3.0322    8.1156   -1.9449 C   0  0  0  0  0  0  0  0  0  0  0  0
    3.4317    7.5951   -2.8013 H   0  0  0  0  0  0  0  0  0  0  0  0
    2.9076    7.4909   -0.7134 C   0  0  0  0  0  0  0  0  0  0  0  0
    2.8726    6.1532    1.0302 C   0  0  0  0  0  0  0  0  0  0  0  0
    3.0029    5.0374    1.9326 C   0  0  0  0  0  0  0  0  0  0  0  0
    2.6520    4.3453    4.0925 C   0  0  0  0  0  0  0  0  0  0  0  0
    2.3058    4.5850    5.0897 H   0  0  0  0  0  0  0  0  0  0  0  0
    3.1347    3.0797    3.8100 C   0  0  0  0  0  0  0  0  0  0  0  0
    3.1632    2.3327    4.5863 H   0  0  0  0  0  0  0  0  0  0  0  0
    3.5676    2.7916    2.5223 C   0  0  0  0  0  0  0  0  0  0  0  0
    3.9409    1.8116    2.2696 H   0  0  0  0  0  0  0  0  0  0  0  0
    3.5050    3.7886    1.5694 C   0  0  0  0  0  0  0  0  0  0  0  0
    3.8275    3.6075    0.5560 H   0  0  0  0  0  0  0  0  0  0  0  0
    3.0337    7.9484    4.1021 C   0  0  0  0  0  2  0  0  0  0  0  0
    0.6747    8.6602    3.3463 C   0  0  0  0  0  2  0  0  0  0  0  0
    0.9360    6.8273    4.9817 C   0  0  0  0  0  2  0  0  0  0  0  0
  1  2  1  0  0  0  0
  2 30  1  0  0  0  0
  2 32  1  0  0  0  0
  6  2  1  0  0  0  0
  7 20  1  0  0  0  0
  8  7  1  0  0  0  0
  9  2  1  0  0  0  0
  9 22  1  0  0  0  0
 10  6  1  0  0  0  0
 11 10  1  0  0  0  0
 11 12  1  0  0  0  0
 13 11  2  0  0  0  0
 14 13  1  0  0  0  0
 15 17  2  0  0  0  0
 15 13  1  0  0  0  0
 16 15  1  0  0  0  0
 17 19  1  0  0  0  0
 18 17  1  0  0  0  0
 19  7  1  0  0  0  0
 19 10  2  0  0  0  0
 20  6  1  0  0  0  0
 20 21  2  0  0  0  0
 21  9  1  0  0  0  0
 22 23  1  0  0  0  0
 24 22  2  0  0  0  0
 24 25  1  0  0  0  0
 26 24  1  0  0  0  0
 27 26  1  0  0  0  0
 28 21  1  0  0  0  0
 28 26  2  0  0  0  0
 29 28  1  0  0  0  0
 30  3  1  0  0  0  0
 31  2  1  0  0  0  0
 31  4  1  0  0  0  0
 32  5  1  0  0  0  0
M  END
$$$$
