CSD_code = LOGMIG | q = 0 | S = 0 | Stoichiometry = C22H13BrMnN5O3 | MND = 6
 OpenBabel04212202063D

 45 50  0  0  0  0  0  0  0  0999 V2000
   -0.8629    2.3350    1.9330 Br  0  0  0  0  0  0  0  0  0  0  0  0
    1.3996    2.3438    2.9317 Mn  0  0  0  0  0  0  0  0  0  0  0  0
    2.0530    1.5448    1.1854 N   0  0  0  0  0  0  0  0  0  0  0  0
    2.5149    0.9085   -0.9324 C   0  0  0  0  0  0  0  0  0  0  0  0
   -0.3337   -0.1875    6.5639 N   0  0  0  0  0  0  0  0  0  0  0  0
    0.9633   -0.4203    2.0447 C   0  0  0  0  0  0  0  0  0  0  0  0
    1.8696   -0.1127   -0.2824 N   0  0  0  0  0  0  0  0  0  0  0  0
    1.5996   -0.9945   -0.6839 H   0  0  0  0  0  0  0  0  0  0  0  0
    1.2974    1.1447    7.4112 C   0  0  0  0  0  0  0  0  0  0  0  0
    1.0072    0.1910    3.2475 N   0  0  0  0  0  0  0  0  0  0  0  0
    3.0150    2.3733    3.6475 C   0  0  0  0  0  2  0  0  0  0  0  0
    0.4509   -0.4430    4.2879 C   0  0  0  0  0  0  0  0  0  0  0  0
    2.6318    1.9526    0.0134 C   0  0  0  0  0  0  0  0  0  0  0  0
    0.5607    2.9302    4.4003 C   0  0  0  0  0  2  0  0  0  0  0  0
    1.6086    0.3169    0.9820 C   0  0  0  0  0  0  0  0  0  0  0  0
    4.0674    2.4526    4.1221 O   0  0  0  0  0  1  0  0  0  0  0  0
    3.6218    2.2249   -2.5432 C   0  0  0  0  0  0  0  0  0  0  0  0
    4.0159    2.3648   -3.5380 H   0  0  0  0  0  0  0  0  0  0  0  0
   -0.0272    3.3884    5.2732 O   0  0  0  0  0  1  0  0  0  0  0  0
    0.3319   -1.6428    1.8352 C   0  0  0  0  0  0  0  0  0  0  0  0
    0.3125   -2.0842    0.8517 H   0  0  0  0  0  0  0  0  0  0  0  0
    1.6226    5.1710    2.2001 O   0  0  0  0  0  1  0  0  0  0  0  0
    3.2621    3.1466   -0.3284 C   0  0  0  0  0  0  0  0  0  0  0  0
    3.3605    3.9434    0.3920 H   0  0  0  0  0  0  0  0  0  0  0  0
   -0.3138   -2.2497    2.8994 C   0  0  0  0  0  0  0  0  0  0  0  0
   -0.8514   -3.1745    2.7603 H   0  0  0  0  0  0  0  0  0  0  0  0
    1.5653    4.0532    2.4573 C   0  0  0  0  0  2  0  0  0  0  0  0
    3.0076    1.0322   -2.2225 C   0  0  0  0  0  0  0  0  0  0  0  0
    2.9109    0.2324   -2.9401 H   0  0  0  0  0  0  0  0  0  0  0  0
    1.9600    1.8842    8.3787 C   0  0  0  0  0  0  0  0  0  0  0  0
    2.8789    2.4047    8.1566 H   0  0  0  0  0  0  0  0  0  0  0  0
    1.5661    0.8855    6.0963 N   0  0  0  0  0  0  0  0  0  0  0  0
    2.3803    1.1834    5.5826 H   0  0  0  0  0  0  0  0  0  0  0  0
    0.0858    0.4616    7.6867 C   0  0  0  0  0  0  0  0  0  0  0  0
    0.5450    0.0934    5.6341 C   0  0  0  0  0  0  0  0  0  0  0  0
    1.3809    1.9309    9.6290 C   0  0  0  0  0  0  0  0  0  0  0  0
    1.8587    2.5006   10.4118 H   0  0  0  0  0  0  0  0  0  0  0  0
    0.1838    1.2627    9.9123 C   0  0  0  0  0  0  0  0  0  0  0  0
   -0.2264    1.3358   10.9085 H   0  0  0  0  0  0  0  0  0  0  0  0
   -0.2443   -1.6491    4.1391 C   0  0  0  0  0  0  0  0  0  0  0  0
   -0.7128   -2.0695    5.0132 H   0  0  0  0  0  0  0  0  0  0  0  0
    3.7483    3.2608   -1.6120 C   0  0  0  0  0  0  0  0  0  0  0  0
    4.2397    4.1732   -1.9124 H   0  0  0  0  0  0  0  0  0  0  0  0
   -0.4796    0.5245    8.9589 C   0  0  0  0  0  0  0  0  0  0  0  0
   -1.4037    0.0125    9.1718 H   0  0  0  0  0  0  0  0  0  0  0  0
  1  2  1  0  0  0  0
  2 10  1  0  0  0  0
  2 11  1  0  0  0  0
  2 14  1  0  0  0  0
  3  2  1  0  0  0  0
  4  7  1  0  0  0  0
  4 13  1  0  0  0  0
  5 34  1  0  0  0  0
  6 10  1  0  0  0  0
  7 15  1  0  0  0  0
  8  7  1  0  0  0  0
  9 34  2  0  0  0  0
  9 30  1  0  0  0  0
 10 12  1  0  0  0  0
 11 16  1  0  0  0  0
 12 35  1  0  0  0  0
 13  3  1  0  0  0  0
 14 19  1  0  0  0  0
 15  3  1  0  0  0  0
 15  6  2  0  0  0  0
 17 28  1  0  0  0  0
 17 42  2  0  0  0  0
 18 17  1  0  0  0  0
 20  6  1  0  0  0  0
 20 25  2  0  0  0  0
 21 20  1  0  0  0  0
 22 27  1  0  0  0  0
 23 13  2  0  0  0  0
 23 24  1  0  0  0  0
 25 40  1  0  0  0  0
 26 25  1  0  0  0  0
 27  2  1  0  0  0  0
 28  4  2  0  0  0  0
 29 28  1  0  0  0  0
 30 36  2  0  0  0  0
 31 30  1  0  0  0  0
 32  9  1  0  0  0  0
 33 32  1  0  0  0  0
 34 44  1  0  0  0  0
 35 32  1  0  0  0  0
 35  5  2  0  0  0  0
 36 38  1  0  0  0  0
 36 37  1  0  0  0  0
 38 39  1  0  0  0  0
 40 12  2  0  0  0  0
 40 41  1  0  0  0  0
 42 23  1  0  0  0  0
 43 42  1  0  0  0  0
 44 45  1  0  0  0  0
 44 38  2  0  0  0  0
M  END
$$$$
