CSD_code = LOGRUV | q = 0 | S = 0 | Stoichiometry = C6H16Cl2N2O2Pt | MND = 4
 OpenBabel04212202063D

 29 29  0  0  0  0  0  0  0  0999 V2000
    1.2497    2.9361    3.3679 Pt  0  0  0  0  0  0  0  0  0  0  0  0
   -0.0660    2.2711    5.0911 Cl  0  0  0  0  0  0  0  0  0  0  0  0
   -0.4024    3.5661    1.9481 Cl  0  0  0  0  0  0  0  0  0  0  0  0
    2.2617    3.3091    0.6107 O   0  0  0  0  0  0  0  0  0  0  0  0
    1.2708    3.3305    0.6187 H   0  0  0  0  0  0  0  0  0  0  0  0
    2.8071    2.5909    5.8621 O   0  0  0  0  0  0  0  0  0  0  0  0
    1.8358    2.5474    6.0544 H   0  0  0  0  0  0  0  0  0  0  0  0
    2.6225    3.5676    1.9484 N   0  0  0  0  0  4  0  0  0  0  0  0
    2.7669    4.5827    2.0098 H   0  0  0  0  0  0  0  0  0  0  0  0
    2.8959    2.3396    4.4781 N   0  0  0  0  0  4  0  0  0  0  0  0
    3.0498    1.3283    4.3852 H   0  0  0  0  0  0  0  0  0  0  0  0
    3.8898    2.8869    2.3131 C   0  0  0  0  0  0  0  0  0  0  0  0
    3.7327    1.4193    1.8895 C   0  0  0  0  0  0  0  0  0  0  0  0
    3.7721    1.3622    0.8050 H   0  0  0  0  0  0  0  0  0  0  0  0
    2.7625    1.0227    2.1987 H   0  0  0  0  0  0  0  0  0  0  0  0
    4.5265    0.7994    2.2934 H   0  0  0  0  0  0  0  0  0  0  0  0
    5.0546    3.5048    1.5369 C   0  0  0  0  0  0  0  0  0  0  0  0
    4.7976    3.5167    0.4801 H   0  0  0  0  0  0  0  0  0  0  0  0
    5.9565    2.9141    1.6646 H   0  0  0  0  0  0  0  0  0  0  0  0
    5.2577    4.5254    1.8501 H   0  0  0  0  0  0  0  0  0  0  0  0
    4.0462    3.0509    3.8670 C   0  0  0  0  0  0  0  0  0  0  0  0
    5.3587    2.4645    4.3909 C   0  0  0  0  0  0  0  0  0  0  0  0
    5.3175    2.4427    5.4775 H   0  0  0  0  0  0  0  0  0  0  0  0
    6.2005    3.0811    4.0915 H   0  0  0  0  0  0  0  0  0  0  0  0
    5.5237    1.4509    4.0353 H   0  0  0  0  0  0  0  0  0  0  0  0
    3.9412    4.5151    4.3175 C   0  0  0  0  0  0  0  0  0  0  0  0
    2.9193    4.8871    4.2108 H   0  0  0  0  0  0  0  0  0  0  0  0
    4.6222    5.1533    3.7639 H   0  0  0  0  0  0  0  0  0  0  0  0
    4.1965    4.5755    5.3721 H   0  0  0  0  0  0  0  0  0  0  0  0
  1 10  1  0  0  0  0
  1  2  1  0  0  0  0
  3  1  1  0  0  0  0
  4  5  1  0  0  0  0
  4  8  1  0  0  0  0
  6  7  1  0  0  0  0
  8  9  1  0  0  0  0
  8 12  1  0  0  0  0
  8  1  1  0  0  0  0
 10  6  1  0  0  0  0
 11 10  1  0  0  0  0
 12 21  1  0  0  0  0
 13 15  1  0  0  0  0
 13 16  1  0  0  0  0
 13 12  1  0  0  0  0
 14 13  1  0  0  0  0
 17 19  1  0  0  0  0
 17 20  1  0  0  0  0
 17 12  1  0  0  0  0
 18 17  1  0  0  0  0
 21 26  1  0  0  0  0
 21 22  1  0  0  0  0
 21 10  1  0  0  0  0
 22 23  1  0  0  0  0
 24 22  1  0  0  0  0
 25 22  1  0  0  0  0
 26 29  1  0  0  0  0
 27 26  1  0  0  0  0
 28 26  1  0  0  0  0
M  END
$$$$
