CSD_code = LOGTEJ | q = 0 | S = 0 | Stoichiometry = C24H20CdCl2N4O2 | MND = 6
 OpenBabel04212202063D

 53 58  0  0  1  0  0  0  0  0999 V2000
    0.0861    2.8002    7.4082 Cd  0  0  0  0  0  0  0  0  0  0  0  0
   -1.7592    1.9610    5.9507 Cl  0  0  0  0  0  0  0  0  0  0  0  0
    1.2914    4.5626    6.4335 Cl  0  0  0  0  0  0  0  0  0  0  0  0
   -1.7455    0.5120    8.5460 O   0  0  0  0  0  0  0  0  0  0  0  0
   -0.2530    4.0514    9.4890 N   0  0  0  0  0  0  0  0  0  0  0  0
   -1.3517    1.7346    8.9805 N   0  0  0  0  0  0  0  0  0  0  0  0
    0.7310    0.6752    5.0440 O   0  0  0  0  0  0  0  0  0  0  0  0
    2.1974    2.0376    8.5194 N   0  0  0  0  0  0  0  0  0  0  0  0
    1.2694    1.0976    6.2210 N   0  0  0  0  0  0  0  0  0  0  0  0
    0.1124    5.3103    9.6499 C   0  0  0  0  0  3  0  0  0  0  0  0
   -0.0978    6.0034   10.8353 C   0  0  0  0  0  0  0  0  0  0  0  0
   -0.7236    5.3440   11.8814 C   0  0  0  0  0  0  0  0  0  0  0  0
   -1.1049    4.0227   11.7137 C   0  0  0  0  0  0  0  0  0  0  0  0
   -0.8444    3.3986   10.4941 C   0  0  0  0  0  0  0  0  0  0  0  0
   -1.2532    2.0074   10.2254 C   0  0  1  0  0  3  0  0  0  0  0  0
   -1.5282    1.0860   11.3418 C   0  0  0  0  0  0  0  0  0  0  0  0
   -2.6661    0.2836   11.3349 C   0  0  0  0  0  0  0  0  0  0  0  0
   -2.9075   -0.5873   12.3814 C   0  0  0  0  0  0  0  0  0  0  0  0
   -2.0124   -0.6784   13.4342 C   0  0  0  0  0  0  0  0  0  0  0  0
   -0.8705    0.1064   13.4398 C   0  0  0  0  0  0  0  0  0  0  0  0
   -0.6294    0.9880   12.4031 C   0  0  0  0  0  0  0  0  0  0  0  0
    2.6467    2.4464    9.6922 C   0  0  0  0  0  3  0  0  0  0  0  0
    3.9899    2.4598   10.0362 C   0  0  0  0  0  0  0  0  0  0  0  0
    4.9087    2.0083    9.1018 C   0  0  0  0  0  0  0  0  0  0  0  0
    4.4486    1.5700    7.8740 C   0  0  0  0  0  0  0  0  0  0  0  0
    3.0780    1.6104    7.6078 C   0  0  0  0  0  0  0  0  0  0  0  0
    2.5457    1.1576    6.3168 C   0  0  2  0  0  3  0  0  0  0  0  0
    3.4689    0.8242    5.2124 C   0  0  0  0  0  0  0  0  0  0  0  0
    4.3153    1.8078    4.7066 C   0  0  0  0  0  0  0  0  0  0  0  0
    5.1509    1.5189    3.6436 C   0  0  0  0  0  0  0  0  0  0  0  0
    5.1539    0.2511    3.0847 C   0  0  0  0  0  0  0  0  0  0  0  0
    4.3079   -0.7262    3.5814 C   0  0  0  0  0  0  0  0  0  0  0  0
    3.4606   -0.4418    4.6370 C   0  0  0  0  0  0  0  0  0  0  0  0
   -1.8406    0.6602    7.5604 H   0  0  0  0  0  0  0  0  0  0  0  0
   -0.2393    0.8962    5.1361 H   0  0  0  0  0  0  0  0  0  0  0  0
    0.5976    5.7679    8.7959 H   0  0  0  0  0  0  0  0  0  0  0  0
    0.2165    7.0302   10.9308 H   0  0  0  0  0  0  0  0  0  0  0  0
   -0.9168    5.8502   12.8157 H   0  0  0  0  0  0  0  0  0  0  0  0
   -1.6082    3.4856   12.5028 H   0  0  0  0  0  0  0  0  0  0  0  0
   -3.3625    0.3526   10.5139 H   0  0  0  0  0  0  0  0  0  0  0  0
   -3.7962   -1.2002   12.3728 H   0  0  0  0  0  0  0  0  0  0  0  0
   -2.2008   -1.3628   14.2477 H   0  0  0  0  0  0  0  0  0  0  0  0
   -0.1661    0.0313   14.2552 H   0  0  0  0  0  0  0  0  0  0  0  0
    0.2682    1.5906   12.4023 H   0  0  0  0  0  0  0  0  0  0  0  0
    1.8947    2.7800   10.3956 H   0  0  0  0  0  0  0  0  0  0  0  0
    4.3046    2.8128   11.0055 H   0  0  0  0  0  0  0  0  0  0  0  0
    5.9649    1.9962    9.3268 H   0  0  0  0  0  0  0  0  0  0  0  0
    5.1329    1.2004    7.1266 H   0  0  0  0  0  0  0  0  0  0  0  0
    4.2908    2.8000    5.1333 H   0  0  0  0  0  0  0  0  0  0  0  0
    5.7996    2.2865    3.2482 H   0  0  0  0  0  0  0  0  0  0  0  0
    5.8100    0.0278    2.2564 H   0  0  0  0  0  0  0  0  0  0  0  0
    4.3023   -1.7122    3.1411 H   0  0  0  0  0  0  0  0  0  0  0  0
    2.7938   -1.1984    5.0221 H   0  0  0  0  0  0  0  0  0  0  0  0
  1  8  1  0  0  0  0
  1  6  1  0  0  0  0
  1  5  1  0  0  0  0
  2  1  1  0  0  0  0
  3  1  1  0  0  0  0
  4  6  1  0  0  0  0
  5 10  1  0  0  0  0
  5 14  1  0  0  0  0
  6 15  1  0  0  0  0
  7 35  1  0  0  0  0
  7  9  1  0  0  0  0
  8 22  1  0  0  0  0
  9 27  1  0  0  0  0
  9  1  1  0  0  0  0
 10 11  1  0  0  0  0
 11 37  1  0  0  0  0
 11 12  2  0  0  0  0
 12 38  1  0  0  0  0
 13 12  1  0  0  0  0
 13 39  1  0  0  0  0
 14 13  2  0  0  0  0
 15 14  1  0  0  0  0
 15 16  1  1  0  0  0
 16 21  1  0  0  0  0
 17 16  2  0  0  0  0
 17 18  1  0  0  0  0
 18 19  2  0  0  0  0
 19 20  1  0  0  0  0
 19 42  1  0  0  0  0
 20 43  1  0  0  0  0
 21 20  2  0  0  0  0
 22 23  1  0  0  0  0
 22 45  1  0  0  0  0
 23 46  1  0  0  0  0
 24 47  1  0  0  0  0
 24 23  2  0  0  0  0
 25 24  1  0  0  0  0
 26 25  2  0  0  0  0
 26  8  1  0  0  0  0
 27 28  1  6  0  0  0
 27 26  1  0  0  0  0
 29 49  1  0  0  0  0
 29 28  1  0  0  0  0
 30 29  2  0  0  0  0
 31 32  2  0  0  0  0
 31 30  1  0  0  0  0
 32 33  1  0  0  0  0
 33 53  1  0  0  0  0
 33 28  2  0  0  0  0
 34  4  1  0  0  0  0
 36 10  1  0  0  0  0
 40 17  1  0  0  0  0
 41 18  1  0  0  0  0
 44 21  1  0  0  0  0
 48 25  1  0  0  0  0
 50 30  1  0  0  0  0
 51 31  1  0  0  0  0
 52 32  1  0  0  0  0
M  END
$$$$
