CSD_code = LOHKUP | q = 0 | S = 0 | Stoichiometry = C24H22Cl2N6Ru | MND = 6
 OpenBabel04212202063D

 55 60  0  0  0  0  0  0  0  0999 V2000
    2.1464    6.0270    2.7172 Ru  0  0  0  0  0  0  0  0  0  0  0  0
    1.3501    4.1941    2.3152 N   0  0  0  0  0  0  0  0  0  0  0  0
    1.1082    4.2967    4.6100 N   0  0  0  0  0  2  0  0  0  0  0  0
    1.4959    5.5192    4.4278 N   0  0  0  0  0  0  0  0  0  0  0  0
    2.9547    6.4808    0.8769 N   0  0  0  0  0  0  0  0  0  0  0  0
    4.6534    5.2135    1.7880 N   0  0  0  0  0  2  0  0  0  0  0  0
    3.8475    5.1821    2.7839 N   0  0  0  0  0  0  0  0  0  0  0  0
    1.1988    3.5499    1.1635 C   0  0  0  0  0  3  0  0  0  0  0  0
    0.7668    2.2387    1.0856 C   0  0  0  0  0  0  0  0  0  0  0  0
    0.6110    1.5453   -0.2289 C   0  0  0  0  0  0  0  0  0  0  0  0
    0.4774    1.5770    2.2889 C   0  0  0  0  0  0  0  0  0  0  0  0
    0.6058    2.2362    3.4841 C   0  0  0  0  0  0  0  0  0  0  0  0
    1.0421    3.5713    3.4784 C   0  0  0  0  0  0  0  0  0  0  0  0
    1.4174    6.3149    5.5674 C   0  0  0  0  0  0  0  0  0  0  0  0
    1.0549    7.6588    5.4562 C   0  0  0  0  0  0  0  0  0  0  0  0
    1.0075    8.4468    6.5904 C   0  0  0  0  0  0  0  0  0  0  0  0
    1.3143    7.9127    7.8312 C   0  0  0  0  0  0  0  0  0  0  0  0
    1.6414    6.5691    7.9467 C   0  0  0  0  0  0  0  0  0  0  0  0
    1.6817    5.7664    6.8262 C   0  0  0  0  0  0  0  0  0  0  0  0
    2.4747    7.2491   -0.0899 C   0  0  0  0  0  3  0  0  0  0  0  0
    3.2073    7.5921   -1.2185 C   0  0  0  0  0  0  0  0  0  0  0  0
    2.6290    8.4920   -2.2608 C   0  0  0  0  0  0  0  0  0  0  0  0
    4.5066    7.0882   -1.3303 C   0  0  0  0  0  0  0  0  0  0  0  0
    5.0191    6.2877   -0.3357 C   0  0  0  0  0  0  0  0  0  0  0  0
    4.2178    6.0061    0.7764 C   0  0  0  0  0  0  0  0  0  0  0  0
    4.1776    4.3030    3.8235 C   0  0  0  0  0  0  0  0  0  0  0  0
    4.3518    4.8158    5.1068 C   0  0  0  0  0  0  0  0  0  0  0  0
    4.6265    3.9531    6.1501 C   0  0  0  0  0  0  0  0  0  0  0  0
    4.7110    2.5878    5.9240 C   0  0  0  0  0  0  0  0  0  0  0  0
    4.5472    2.0825    4.6448 C   0  0  0  0  0  0  0  0  0  0  0  0
    4.2957    2.9357    3.5866 C   0  0  0  0  0  0  0  0  0  0  0  0
    0.0856    6.9358    2.1227 Cl  0  0  0  0  0  0  0  0  0  0  0  0
    3.1560    8.0693    3.3274 Cl  0  0  0  0  0  0  0  0  0  0  0  0
    1.4371    4.1133    0.2686 H   0  0  0  0  0  0  0  0  0  0  0  0
    0.1462    0.5494    2.2630 H   0  0  0  0  0  0  0  0  0  0  0  0
    0.3808    1.7747    4.4306 H   0  0  0  0  0  0  0  0  0  0  0  0
    0.7781    8.0666    4.4948 H   0  0  0  0  0  0  0  0  0  0  0  0
    0.7298    9.4858    6.5017 H   0  0  0  0  0  0  0  0  0  0  0  0
    1.2893    8.5387    8.7107 H   0  0  0  0  0  0  0  0  0  0  0  0
    1.8660    6.1479    8.9155 H   0  0  0  0  0  0  0  0  0  0  0  0
    1.9380    4.7199    6.8896 H   0  0  0  0  0  0  0  0  0  0  0  0
    1.4618    7.6082    0.0517 H   0  0  0  0  0  0  0  0  0  0  0  0
    5.1057    7.3352   -2.1944 H   0  0  0  0  0  0  0  0  0  0  0  0
    6.0174    5.8848   -0.3706 H   0  0  0  0  0  0  0  0  0  0  0  0
    4.2829    5.8843    5.2592 H   0  0  0  0  0  0  0  0  0  0  0  0
    4.7712    4.3488    7.1440 H   0  0  0  0  0  0  0  0  0  0  0  0
    4.9091    1.9167    6.7461 H   0  0  0  0  0  0  0  0  0  0  0  0
    4.6186    1.0197    4.4680 H   0  0  0  0  0  0  0  0  0  0  0  0
    4.1678    2.5595    2.5815 H   0  0  0  0  0  0  0  0  0  0  0  0
   -0.4389    1.3156   -0.4077 H   0  0  0  0  0  0  0  0  0  0  0  0
    1.1610    0.6054   -0.2311 H   0  0  0  0  0  0  0  0  0  0  0  0
    0.9720    2.1674   -1.0434 H   0  0  0  0  0  0  0  0  0  0  0  0
    1.5444    8.5132   -2.1959 H   0  0  0  0  0  0  0  0  0  0  0  0
    2.9245    8.1694   -3.2571 H   0  0  0  0  0  0  0  0  0  0  0  0
    2.9972    9.5078   -2.1146 H   0  0  0  0  0  0  0  0  0  0  0  0
  1  7  1  0  0  0  0
  1 33  1  0  0  0  0
  1  4  1  0  0  0  0
  2  1  1  0  0  0  0
  2 13  1  0  0  0  0
  4  3  1  0  0  0  0
  4 14  1  0  0  0  0
  5  1  1  0  0  0  0
  6  7  1  0  0  0  0
  7 26  1  0  0  0  0
  8  2  1  0  0  0  0
  9  8  1  0  0  0  0
  9 11  2  0  0  0  0
 10  9  1  0  0  0  0
 11 12  1  0  0  0  0
 12 36  1  0  0  0  0
 13 12  2  0  0  0  0
 13  3  1  0  0  0  0
 14 19  1  0  0  0  0
 15 14  2  0  0  0  0
 15 16  1  0  0  0  0
 16 17  2  0  0  0  0
 17 18  1  0  0  0  0
 17 39  1  0  0  0  0
 18 40  1  0  0  0  0
 19 41  1  0  0  0  0
 19 18  2  0  0  0  0
 20 42  1  0  0  0  0
 20  5  1  0  0  0  0
 21 20  1  0  0  0  0
 22 53  1  0  0  0  0
 22 55  1  0  0  0  0
 22 21  1  0  0  0  0
 23 21  2  0  0  0  0
 23 24  1  0  0  0  0
 24 25  2  0  0  0  0
 25  5  1  0  0  0  0
 25  6  1  0  0  0  0
 26 27  1  0  0  0  0
 27 45  1  0  0  0  0
 27 28  2  0  0  0  0
 28 46  1  0  0  0  0
 29 28  1  0  0  0  0
 29 47  1  0  0  0  0
 30 29  2  0  0  0  0
 31 26  2  0  0  0  0
 31 30  1  0  0  0  0
 32  1  1  0  0  0  0
 34  8  1  0  0  0  0
 35 11  1  0  0  0  0
 37 15  1  0  0  0  0
 38 16  1  0  0  0  0
 43 23  1  0  0  0  0
 44 24  1  0  0  0  0
 48 30  1  0  0  0  0
 49 31  1  0  0  0  0
 50 10  1  0  0  0  0
 51 10  1  0  0  0  0
 52 10  1  0  0  0  0
 54 22  1  0  0  0  0
M  END
$$$$
