CSD_code = LOJJUP | q = 0 | S = 0 | Stoichiometry = C28H28Cl2NOP2Tc | MND = 5
 OpenBabel04212202063D

 63 67  0  0  0  0  0  0  0  0999 V2000
    3.2437    1.6316    7.3701 Tc  0  0  0  0  0  0  0  0  0  0  0  0
    4.7182    1.3952    5.5708 Cl  0  0  0  0  0  0  0  0  0  0  0  0
    1.5460    2.7747    8.5240 Cl  0  0  0  0  0  0  0  0  0  0  0  0
    4.6713    3.3277    8.2235 P   0  0  0  0  0  4  0  0  0  0  0  0
    1.5035    0.9549    5.9031 P   0  0  0  0  0  4  0  0  0  0  0  0
    2.7977    3.6902    5.8757 O   0  0  0  0  0  0  0  0  0  0  0  0
    3.6012    0.2553    8.2991 N   0  0  0  0  0  1  0  0  0  0  0  0
    4.6082    4.6969    6.9861 C   0  0  0  0  0  0  0  0  0  0  0  0
    5.0217    5.6230    7.3898 H   0  0  0  0  0  0  0  0  0  0  0  0
    5.2241    4.3712    6.1404 H   0  0  0  0  0  0  0  0  0  0  0  0
    3.1730    4.8925    6.5056 C   0  0  0  0  0  0  0  0  0  0  0  0
    2.4982    5.1093    7.3495 H   0  0  0  0  0  0  0  0  0  0  0  0
    3.1106    5.7243    5.7852 H   0  0  0  0  0  0  0  0  0  0  0  0
    1.5144    3.6530    5.2969 C   0  0  0  0  0  0  0  0  0  0  0  0
    1.4180    4.4622    4.5549 H   0  0  0  0  0  0  0  0  0  0  0  0
    0.7417    3.7935    6.0700 H   0  0  0  0  0  0  0  0  0  0  0  0
    1.3822    2.2867    4.6299 C   0  0  0  0  0  0  0  0  0  0  0  0
    2.2312    2.1385    3.9533 H   0  0  0  0  0  0  0  0  0  0  0  0
    0.4555    2.2139    4.0576 H   0  0  0  0  0  0  0  0  0  0  0  0
    6.4553    3.0556    8.4308 C   0  0  0  0  0  0  0  0  0  0  0  0
    6.9490    1.7631    8.2969 C   0  0  0  0  0  0  0  0  0  0  0  0
    6.2610    0.9594    8.0629 H   0  0  0  0  0  0  0  0  0  0  0  0
    8.3029    1.5263    8.4603 C   0  0  0  0  0  0  0  0  0  0  0  0
    8.6889    0.5243    8.3506 H   0  0  0  0  0  0  0  0  0  0  0  0
    9.1594    2.5717    8.7636 C   0  0  0  0  0  0  0  0  0  0  0  0
   10.2161    2.3868    8.8889 H   0  0  0  0  0  0  0  0  0  0  0  0
    8.6639    3.8577    8.9150 C   0  0  0  0  0  0  0  0  0  0  0  0
    9.3323    4.6698    9.1619 H   0  0  0  0  0  0  0  0  0  0  0  0
    7.3133    4.1025    8.7531 C   0  0  0  0  0  0  0  0  0  0  0  0
    6.9240    5.1032    8.8859 H   0  0  0  0  0  0  0  0  0  0  0  0
    4.2303    4.0557    9.8285 C   0  0  0  0  0  0  0  0  0  0  0  0
    4.0612    5.4066   10.0977 C   0  0  0  0  0  0  0  0  0  0  0  0
    4.1695    6.1488    9.3188 H   0  0  0  0  0  0  0  0  0  0  0  0
    3.7318    5.8149   11.3796 C   0  0  0  0  0  0  0  0  0  0  0  0
    3.5949    6.8669   11.5860 H   0  0  0  0  0  0  0  0  0  0  0  0
    3.5708    4.8835   12.3902 C   0  0  0  0  0  0  0  0  0  0  0  0
    3.3086    5.2106   13.3857 H   0  0  0  0  0  0  0  0  0  0  0  0
    3.7318    3.5322   12.1222 C   0  0  0  0  0  0  0  0  0  0  0  0
    3.5920    2.8038   12.9067 H   0  0  0  0  0  0  0  0  0  0  0  0
    4.0575    3.1184   10.8461 C   0  0  0  0  0  0  0  0  0  0  0  0
    4.1569    2.0659   10.6022 H   0  0  0  0  0  0  0  0  0  0  0  0
   -0.1563    0.7607    6.6160 C   0  0  0  0  0  0  0  0  0  0  0  0
   -1.3199    1.3639    6.1595 C   0  0  0  0  0  0  0  0  0  0  0  0
   -1.3048    2.0373    5.3136 H   0  0  0  0  0  0  0  0  0  0  0  0
   -2.5200    1.1163    6.8051 C   0  0  0  0  0  0  0  0  0  0  0  0
   -3.4241    1.5906    6.4515 H   0  0  0  0  0  0  0  0  0  0  0  0
   -2.5633    0.2716    7.9004 C   0  0  0  0  0  0  0  0  0  0  0  0
   -3.5028    0.0878    8.4003 H   0  0  0  0  0  0  0  0  0  0  0  0
   -1.4006   -0.3269    8.3632 C   0  0  0  0  0  0  0  0  0  0  0  0
   -1.4310   -0.9748    9.2264 H   0  0  0  0  0  0  0  0  0  0  0  0
   -0.2005   -0.0816    7.7262 C   0  0  0  0  0  0  0  0  0  0  0  0
    0.7283   -0.5101    8.0882 H   0  0  0  0  0  0  0  0  0  0  0  0
    1.6444   -0.5528    4.8996 C   0  0  0  0  0  0  0  0  0  0  0  0
    2.6592   -1.4543    5.2000 C   0  0  0  0  0  0  0  0  0  0  0  0
    3.3418   -1.2261    6.0101 H   0  0  0  0  0  0  0  0  0  0  0  0
    2.7840   -2.6175    4.4604 C   0  0  0  0  0  0  0  0  0  0  0  0
    3.5751   -3.3158    4.6883 H   0  0  0  0  0  0  0  0  0  0  0  0
    1.8978   -2.8839    3.4300 C   0  0  0  0  0  0  0  0  0  0  0  0
    1.9981   -3.7897    2.8504 H   0  0  0  0  0  0  0  0  0  0  0  0
    0.8751   -1.9932    3.1424 C   0  0  0  0  0  0  0  0  0  0  0  0
    0.1788   -2.2077    2.3447 H   0  0  0  0  0  0  0  0  0  0  0  0
    0.7427   -0.8300    3.8772 C   0  0  0  0  0  0  0  0  0  0  0  0
   -0.0644   -0.1426    3.6625 H   0  0  0  0  0  0  0  0  0  0  0  0
  1  4  1  0  0  0  0
  1  7  1  0  0  0  0
  1  3  1  0  0  0  0
  2  1  1  0  0  0  0
  4 20  1  0  0  0  0
  4 31  1  0  0  0  0
  5 42  1  0  0  0  0
  5  1  1  0  0  0  0
  6 11  1  0  0  0  0
  8  9  1  0  0  0  0
  8  4  1  0  0  0  0
 10  8  1  0  0  0  0
 11  8  1  0  0  0  0
 11 12  1  0  0  0  0
 13 11  1  0  0  0  0
 14  6  1  0  0  0  0
 14 16  1  0  0  0  0
 15 14  1  0  0  0  0
 17 14  1  0  0  0  0
 17  5  1  0  0  0  0
 18 17  1  0  0  0  0
 19 17  1  0  0  0  0
 20 29  1  0  0  0  0
 21 20  2  0  0  0  0
 21 23  1  0  0  0  0
 22 21  1  0  0  0  0
 23 25  2  0  0  0  0
 24 23  1  0  0  0  0
 25 26  1  0  0  0  0
 25 27  1  0  0  0  0
 27 28  1  0  0  0  0
 29 30  1  0  0  0  0
 29 27  2  0  0  0  0
 31 32  2  0  0  0  0
 31 40  1  0  0  0  0
 32 34  1  0  0  0  0
 33 32  1  0  0  0  0
 34 35  1  0  0  0  0
 34 36  2  0  0  0  0
 36 37  1  0  0  0  0
 38 36  1  0  0  0  0
 38 39  1  0  0  0  0
 40 38  2  0  0  0  0
 41 40  1  0  0  0  0
 42 51  1  0  0  0  0
 43 42  2  0  0  0  0
 43 45  1  0  0  0  0
 44 43  1  0  0  0  0
 45 47  2  0  0  0  0
 46 45  1  0  0  0  0
 47 49  1  0  0  0  0
 47 48  1  0  0  0  0
 49 50  1  0  0  0  0
 51 52  1  0  0  0  0
 51 49  2  0  0  0  0
 53 54  1  0  0  0  0
 53  5  1  0  0  0  0
 54 55  1  0  0  0  0
 56 57  1  0  0  0  0
 56 54  2  0  0  0  0
 58 56  1  0  0  0  0
 59 58  1  0  0  0  0
 60 58  2  0  0  0  0
 60 62  1  0  0  0  0
 61 60  1  0  0  0  0
 62 53  2  0  0  0  0
 63 62  1  0  0  0  0
M  END
$$$$
