CSD_code = LOJMUS | q = 0 | S = 0 | Stoichiometry = C18H16Cl6N6O6Pt | MND = 6
 OpenBabel04212202063D

 53 54  0  0  1  0  0  0  0  0999 V2000
    2.1568    5.9040    6.7777 Pt  0  0  0  0  0  0  0  0  0  0  0  0
    2.9607    5.8585    9.0118 Cl  0  0  0  0  0  0  0  0  0  0  0  0
    0.3074    7.2039    7.5020 Cl  0  0  0  0  0  0  0  0  0  0  0  0
    5.0552   12.1686    5.6144 Cl  0  0  0  0  0  0  0  0  0  0  0  0
    4.4518    9.4457    6.2830 O   0  0  0  0  0  0  0  0  0  0  0  0
   -1.9745   13.6807    3.3947 O   0  0  0  0  0  0  0  0  0  0  0  0
   -0.6620   15.2640    2.7730 O   0  0  0  0  0  0  0  0  0  0  0  0
    3.0238    7.6649    6.3781 N   0  0  0  0  0  0  0  0  0  0  0  0
    3.3740   10.1418    5.7410 N   0  0  0  0  0  0  0  0  0  0  0  0
   -0.8841   14.1936    3.2923 N   0  0  0  0  0  0  0  0  0  0  0  0
    4.1721    8.1733    6.6027 C   0  0  2  0  0  3  0  0  0  0  0  0
    5.3172    7.4717    7.2210 C   0  0  0  0  0  0  0  0  0  0  0  0
    3.5430   11.3524    5.4215 C   0  0  0  0  0  0  0  0  0  0  0  0
    2.4108   12.0958    4.8712 C   0  0  0  0  0  0  0  0  0  0  0  0
    1.1246   11.5480    4.9532 C   0  0  0  0  0  0  0  0  0  0  0  0
    0.0452   12.2325    4.4357 C   0  0  0  0  0  0  0  0  0  0  0  0
    0.2483   13.4697    3.8348 C   0  0  0  0  0  0  0  0  0  0  0  0
    1.5167   14.0277    3.7461 C   0  0  0  0  0  0  0  0  0  0  0  0
    2.5951   13.3398    4.2650 C   0  0  0  0  0  0  0  0  0  0  0  0
    2.3713    8.3228    5.9350 H   0  0  0  0  0  0  0  0  0  0  0  0
    5.0354    7.1344    8.2196 H   0  0  0  0  0  0  0  0  0  0  0  0
    6.1777    8.1318    7.2704 H   0  0  0  0  0  0  0  0  0  0  0  0
    5.5513    6.5758    6.6458 H   0  0  0  0  0  0  0  0  0  0  0  0
    0.9828   10.5931    5.4309 H   0  0  0  0  0  0  0  0  0  0  0  0
   -0.9540   11.8277    4.4899 H   0  0  0  0  0  0  0  0  0  0  0  0
    1.6393   14.9901    3.2729 H   0  0  0  0  0  0  0  0  0  0  0  0
    3.5836   13.7646    4.1949 H   0  0  0  0  0  0  0  0  0  0  0  0
    1.3512    5.9485    4.5446 Cl  0  0  0  0  0  0  0  0  0  0  0  0
    4.0059    4.6029    6.0563 Cl  0  0  0  0  0  0  0  0  0  0  0  0
    1.2901    4.1433    7.1794 N   0  0  0  0  0  0  0  0  0  0  0  0
    0.1418    3.6349    6.9551 C   0  0  2  0  0  3  0  0  0  0  0  0
   -0.1378    2.3624    7.2745 O   0  0  0  0  0  0  0  0  0  0  0  0
    0.9399    1.6662    7.8165 N   0  0  0  0  0  0  0  0  0  0  0  0
    0.7710    0.4555    8.1356 C   0  0  0  0  0  0  0  0  0  0  0  0
   -0.7410   -0.3608    7.9422 Cl  0  0  0  0  0  0  0  0  0  0  0  0
    1.9032   -0.2878    8.6861 C   0  0  0  0  0  0  0  0  0  0  0  0
    3.1893    0.2604    8.6050 C   0  0  0  0  0  0  0  0  0  0  0  0
    4.2686   -0.4240    9.1229 C   0  0  0  0  0  0  0  0  0  0  0  0
    4.0656   -1.6615    9.7231 C   0  0  0  0  0  0  0  0  0  0  0  0
    5.1978   -2.3853   10.2660 N   0  0  0  0  0  0  0  0  0  0  0  0
    6.2882   -1.8721   10.1640 O   0  0  0  0  0  0  0  0  0  0  0  0
    4.9758   -3.4556   10.7855 O   0  0  0  0  0  0  0  0  0  0  0  0
    2.7973   -2.2200    9.8108 C   0  0  0  0  0  0  0  0  0  0  0  0
    1.7190   -1.5322    9.2916 C   0  0  0  0  0  0  0  0  0  0  0  0
    0.7305   -1.9574    9.3609 H   0  0  0  0  0  0  0  0  0  0  0  0
    2.6747   -3.1826   10.2835 H   0  0  0  0  0  0  0  0  0  0  0  0
    5.2677   -0.0189    9.0693 H   0  0  0  0  0  0  0  0  0  0  0  0
    3.3310    1.2156    8.1278 H   0  0  0  0  0  0  0  0  0  0  0  0
   -1.0033    4.3365    6.3367 C   0  0  0  0  0  0  0  0  0  0  0  0
   -0.7214    4.6744    5.3384 H   0  0  0  0  0  0  0  0  0  0  0  0
   -1.8634    3.6761    6.2867 H   0  0  0  0  0  0  0  0  0  0  0  0
   -1.2379    5.2318    6.9123 H   0  0  0  0  0  0  0  0  0  0  0  0
    1.9428    3.4852    7.6220 H   0  0  0  0  0  0  0  0  0  0  0  0
  1 30  1  0  0  0  0
  1  3  1  0  0  0  0
  1  2  1  0  0  0  0
  7 10  2  0  0  0  0
  8 11  1  0  0  0  0
  8  1  1  0  0  0  0
  9  5  1  0  0  0  0
 10  6  2  0  0  0  0
 10 17  1  0  0  0  0
 11  5  1  1  0  0  0
 11 12  1  0  0  0  0
 12 22  1  0  0  0  0
 12 21  1  0  0  0  0
 13  4  1  0  0  0  0
 13  9  2  0  0  0  0
 14 15  1  0  0  0  0
 14 13  1  0  0  0  0
 15 24  1  0  0  0  0
 16 25  1  0  0  0  0
 16 15  2  0  0  0  0
 17 16  1  0  0  0  0
 18 17  2  0  0  0  0
 18 19  1  0  0  0  0
 19 14  2  0  0  0  0
 20  8  1  0  0  0  0
 23 12  1  0  0  0  0
 26 18  1  0  0  0  0
 27 19  1  0  0  0  0
 28  1  1  0  0  0  0
 29  1  1  0  0  0  0
 30 53  1  0  0  0  0
 31 30  1  0  0  0  0
 31 32  1  6  0  0  0
 32 33  1  0  0  0  0
 33 34  2  0  0  0  0
 34 36  1  0  0  0  0
 35 34  1  0  0  0  0
 36 44  1  0  0  0  0
 37 36  2  0  0  0  0
 37 38  1  0  0  0  0
 38 39  2  0  0  0  0
 39 43  1  0  0  0  0
 39 40  1  0  0  0  0
 40 42  2  0  0  0  0
 41 40  2  0  0  0  0
 43 46  1  0  0  0  0
 44 45  1  0  0  0  0
 44 43  2  0  0  0  0
 47 38  1  0  0  0  0
 48 37  1  0  0  0  0
 49 52  1  0  0  0  0
 49 31  1  0  0  0  0
 50 49  1  0  0  0  0
 51 49  1  0  0  0  0
M  END
$$$$
