CSD_code = LOJMOO | q = 1 | S = 0 | Stoichiometry = C13H18ClN2O3RuS3(1+) | MND = 6
 OpenBabel04212202063D

 41 45  0  0  0  0  0  0  0  0999 V2000
   -0.3136   14.0078    7.2813 C   0  0  0  0  0  0  0  0  0  0  0  0
   -0.7828   12.8041    6.7034 C   0  0  0  0  0  0  0  0  0  0  0  0
   -2.1340   12.5098    6.6402 C   0  0  0  0  0  0  0  0  0  0  0  0
   -2.4416   11.5770    6.1934 H   0  0  0  0  0  0  0  0  0  0  0  0
   -3.0470   13.4306    7.1794 C   0  0  0  0  0  0  0  0  0  0  0  0
   -2.5705   14.6344    7.7496 C   0  0  0  0  0  0  0  0  0  0  0  0
   -3.3033   15.3144    8.1539 H   0  0  0  0  0  0  0  0  0  0  0  0
   -1.2321   14.9315    7.7972 C   0  0  0  0  0  0  0  0  0  0  0  0
   -0.8691   15.8472    8.2384 H   0  0  0  0  0  0  0  0  0  0  0  0
   -4.9419   12.0884    6.6654 C   0  0  0  0  0  0  0  0  0  0  0  0
   -4.7281   11.9875    5.5986 H   0  0  0  0  0  0  0  0  0  0  0  0
   -6.0141   12.2024    6.8107 H   0  0  0  0  0  0  0  0  0  0  0  0
   -4.5944   11.2009    7.1996 H   0  0  0  0  0  0  0  0  0  0  0  0
    3.8482   14.5342    4.6791 C   0  0  0  0  0  0  0  0  0  0  0  0
    4.6629   14.1564    4.0626 H   0  0  0  0  0  0  0  0  0  0  0  0
    3.5108   15.4777    4.2465 H   0  0  0  0  0  0  0  0  0  0  0  0
    4.2801   14.7852    6.1151 C   0  0  0  0  0  0  0  0  0  0  0  0
    3.6134   15.4993    6.6049 H   0  0  0  0  0  0  0  0  0  0  0  0
    5.2944   15.1866    6.1259 H   0  0  0  0  0  0  0  0  0  0  0  0
    5.3277   12.1407    6.4276 C   0  0  0  0  0  0  0  0  0  0  0  0
    5.4738   12.4670    5.4015 H   0  0  0  0  0  0  0  0  0  0  0  0
    6.2868   12.1882    6.9461 H   0  0  0  0  0  0  0  0  0  0  0  0
    4.7983   10.7199    6.5100 C   0  0  0  0  0  0  0  0  0  0  0  0
    4.8450   10.3648    7.5415 H   0  0  0  0  0  0  0  0  0  0  0  0
    5.3911   10.0545    5.8817 H   0  0  0  0  0  0  0  0  0  0  0  0
    2.9237   10.5841    4.2656 C   0  0  0  0  0  0  0  0  0  0  0  0
    3.5639    9.8126    3.8358 H   0  0  0  0  0  0  0  0  0  0  0  0
    1.8791   10.3211    4.0814 H   0  0  0  0  0  0  0  0  0  0  0  0
    3.2604   11.9252    3.6488 C   0  0  0  0  0  0  0  0  0  0  0  0
    2.9150   11.9345    2.6132 H   0  0  0  0  0  0  0  0  0  0  0  0
    4.3325   12.1108    3.6572 H   0  0  0  0  0  0  0  0  0  0  0  0
    1.7530   11.7165    8.8517 Cl  0  0  0  0  0  0  0  0  0  0  0  0
    1.0528   14.1254    7.2730 N   0  0  0  0  0  0  0  0  0  0  0  0
    0.2400   11.9828    6.2456 N   0  0  0  0  0  0  0  0  0  0  0  0
    1.6266   15.1450    7.6382 O   0  0  0  0  0  1  0  0  0  0  0  0
    0.0143   10.9797    5.5766 O   0  0  0  0  0  1  0  0  0  0  0  0
   -4.3607   13.2665    7.1959 O   0  0  0  0  0  0  0  0  0  0  0  0
    1.9383   12.5552    6.7287 Ru  0  0  0  0  0  0  0  0  0  0  0  0
    2.4279   13.3804    4.4386 S   0  0  1  0  0  3  0  0  0  0  0  0
    4.2325   13.3672    7.2694 S   0  0  2  0  0  3  0  0  0  0  0  0
    3.0361   10.4465    6.0880 S   0  0  2  0  0  3  0  0  0  0  0  0
  1  8  1  0  0  0  0
  2  1  2  0  0  0  0
  3  2  1  0  0  0  0
  3  5  2  0  0  0  0
  4  3  1  0  0  0  0
  5 37  1  0  0  0  0
  5  6  1  0  0  0  0
  6  8  2  0  0  0  0
  6  7  1  0  0  0  0
  8  9  1  0  0  0  0
 10 12  1  0  0  0  0
 10 37  1  0  0  0  0
 10 13  1  0  0  0  0
 11 10  1  0  0  0  0
 14 17  1  0  0  0  0
 15 14  1  0  0  0  0
 16 14  1  0  0  0  0
 17 19  1  0  0  0  0
 17 18  1  0  0  0  0
 20 23  1  0  0  0  0
 20 22  1  0  0  0  0
 20 40  1  0  0  0  0
 21 20  1  0  0  0  0
 23 24  1  0  0  0  0
 25 23  1  0  0  0  0
 27 26  1  0  0  0  0
 28 26  1  0  0  0  0
 29 31  1  0  0  0  0
 29 26  1  0  0  0  0
 30 29  1  0  0  0  0
 33  1  1  0  0  0  0
 33 35  1  0  0  0  0
 34  2  1  0  0  0  0
 34 38  1  0  0  0  0
 36 34  1  0  0  0  0
 38 40  1  0  0  0  0
 38 33  1  0  0  0  0
 38 32  1  0  0  0  0
 39 29  1  6  0  0  0
 39 14  1  0  0  0  0
 39 38  1  0  0  0  0
 40 17  1  6  0  0  0
 41 26  1  6  0  0  0
 41 23  1  0  0  0  0
 41 38  1  0  0  0  0
M  END
$$$$
