CSD_code = LOJPEG | q = 0 | S = 0 | Stoichiometry = C6H12Cl2N2O2Pt | MND = 4
 OpenBabel04212202063D

 25 25  0  0  0  0  0  0  0  0999 V2000
   10.2008    2.0605    4.6349 Pt  0  0  0  0  0  0  0  0  0  0  0  0
    9.4200    3.5535    6.1098 Cl  0  0  0  0  0  0  0  0  0  0  0  0
    8.6812    0.5478    5.2764 Cl  0  0  0  0  0  0  0  0  0  0  0  0
   11.4720   -0.3173    3.9883 O   0  0  0  0  0  1  0  0  0  0  0  0
   10.9393    4.4713    3.4763 O   0  0  0  0  0  1  0  0  0  0  0  0
   11.2062    0.8157    3.6255 N   0  0  0  0  0  0  0  0  0  0  0  0
   11.2782    3.3295    3.7348 N   0  0  0  0  0  0  0  0  0  0  0  0
   11.9839    1.3899    2.5016 C   0  0  0  0  0  0  0  0  0  0  0  0
   10.9690    1.5420    1.3588 C   0  0  0  0  0  0  0  0  0  0  0  0
   10.5218    0.5739    1.1426 H   0  0  0  0  0  0  0  0  0  0  0  0
   11.4614    1.8993    0.4590 H   0  0  0  0  0  0  0  0  0  0  0  0
   10.1693    2.2333    1.6320 H   0  0  0  0  0  0  0  0  0  0  0  0
   13.1196    0.4614    2.0915 C   0  0  0  0  0  0  0  0  0  0  0  0
   12.7051   -0.4484    1.6641 H   0  0  0  0  0  0  0  0  0  0  0  0
   13.7210    0.1766    2.9502 H   0  0  0  0  0  0  0  0  0  0  0  0
   13.7509    0.9380    1.3482 H   0  0  0  0  0  0  0  0  0  0  0  0
   12.4591    2.7766    3.0283 C   0  0  0  0  0  0  0  0  0  0  0  0
   12.9352    3.7239    1.9346 C   0  0  0  0  0  0  0  0  0  0  0  0
   13.3243    4.6321    2.3884 H   0  0  0  0  0  0  0  0  0  0  0  0
   12.1162    4.0085    1.2803 H   0  0  0  0  0  0  0  0  0  0  0  0
   13.7243    3.2627    1.3490 H   0  0  0  0  0  0  0  0  0  0  0  0
   13.5314    2.6252    4.1176 C   0  0  0  0  0  0  0  0  0  0  0  0
   14.4679    2.2875    3.6832 H   0  0  0  0  0  0  0  0  0  0  0  0
   13.2143    1.9188    4.8869 H   0  0  0  0  0  0  0  0  0  0  0  0
   13.7024    3.5896    4.5918 H   0  0  0  0  0  0  0  0  0  0  0  0
  1  3  1  0  0  0  0
  1  2  1  0  0  0  0
  5  7  1  0  0  0  0
  6  4  1  0  0  0  0
  6  1  1  0  0  0  0
  7  1  1  0  0  0  0
  8 17  1  0  0  0  0
  8  6  1  0  0  0  0
  9 12  1  0  0  0  0
  9  8  1  0  0  0  0
 10  9  1  0  0  0  0
 11  9  1  0  0  0  0
 13  8  1  0  0  0  0
 13 15  1  0  0  0  0
 14 13  1  0  0  0  0
 16 13  1  0  0  0  0
 17  7  1  0  0  0  0
 17 22  1  0  0  0  0
 18 19  1  0  0  0  0
 18 17  1  0  0  0  0
 20 18  1  0  0  0  0
 21 18  1  0  0  0  0
 22 25  1  0  0  0  0
 22 24  1  0  0  0  0
 23 22  1  0  0  0  0
M  END
$$$$
