CSD_code = LOKDIZ | q = 0 | S = 0 | Stoichiometry = C27H32I2N4Pd | MND = 4
 OpenBabel04212202063D

 66 70  0  0  1  0  0  0  0  0999 V2000
   12.5774    9.5593    2.5876 C   0  0  0  0  0  0  0  0  0  0  0  0
   12.9529    9.5614    1.2707 C   0  0  0  0  0  0  0  0  0  0  0  0
   12.3925    9.8307    0.3975 H   0  0  0  0  0  0  0  0  0  0  0  0
   14.7054    8.8491    2.3953 C   0  0  1  0  0  3  0  0  0  0  0  0
   13.7284    8.9600    4.6950 C   0  0  0  0  0  0  0  0  0  0  0  0
   13.0542    8.1269    4.9687 H   0  0  0  0  0  0  0  0  0  0  0  0
   14.7430    8.7381    5.0375 H   0  0  0  0  0  0  0  0  0  0  0  0
   13.8212   10.8614    6.3178 C   0  0  1  0  0  3  0  0  0  0  0  0
   11.9379   11.8508    5.7542 C   0  0  0  0  0  0  0  0  0  0  0  0
   11.1660   12.5928    5.8100 H   0  0  0  0  0  0  0  0  0  0  0  0
   12.0442   10.7558    4.9390 C   0  0  0  0  0  0  0  0  0  0  0  0
   14.9365    8.9289   -0.0542 C   0  0  0  0  0  0  0  0  0  0  0  0
   15.8563    9.8832   -0.4846 C   0  0  0  0  0  0  0  0  0  0  0  0
   16.4966    9.6744   -1.6965 C   0  0  0  0  0  0  0  0  0  0  0  0
   17.2121   10.4050   -2.0445 H   0  0  0  0  0  0  0  0  0  0  0  0
   16.2293    8.5552   -2.4730 C   0  0  0  0  0  0  0  0  0  0  0  0
   15.2954    7.6319   -2.0213 C   0  0  0  0  0  0  0  0  0  0  0  0
   15.0740    6.7638   -2.6241 H   0  0  0  0  0  0  0  0  0  0  0  0
   14.6323    7.7991   -0.8156 C   0  0  0  0  0  0  0  0  0  0  0  0
   16.1359   11.1026    0.3418 C   0  0  0  0  0  0  0  0  0  0  0  0
   16.7454   10.8507    1.2106 H   0  0  0  0  0  0  0  0  0  0  0  0
   15.2084   11.5495    0.6976 H   0  0  0  0  0  0  0  0  0  0  0  0
   16.6732   11.8424   -0.2449 H   0  0  0  0  0  0  0  0  0  0  0  0
   16.9109    8.3615   -3.7911 C   0  0  0  0  0  0  0  0  0  0  0  0
   17.8762    8.8612   -3.8089 H   0  0  0  0  0  0  0  0  0  0  0  0
   16.2971    8.7832   -4.5873 H   0  0  0  0  0  0  0  0  0  0  0  0
   17.0529    7.3046   -4.0028 H   0  0  0  0  0  0  0  0  0  0  0  0
   13.6219    6.8061   -0.3343 C   0  0  0  0  0  0  0  0  0  0  0  0
   12.6363    7.2635   -0.2496 H   0  0  0  0  0  0  0  0  0  0  0  0
   13.8908    6.4222    0.6500 H   0  0  0  0  0  0  0  0  0  0  0  0
   13.5501    5.9699   -1.0232 H   0  0  0  0  0  0  0  0  0  0  0  0
   16.0432    8.2974    2.7175 C   0  0  0  0  0  0  0  0  0  0  0  0
   16.6185    8.9836    3.3414 H   0  0  0  0  0  0  0  0  0  0  0  0
   16.5905    8.1277    1.7929 H   0  0  0  0  0  0  0  0  0  0  0  0
   15.9553    7.3476    3.2465 H   0  0  0  0  0  0  0  0  0  0  0  0
   15.0748   10.5208    7.0320 C   0  0  0  0  0  0  0  0  0  0  0  0
   15.9362   10.5523    6.3624 H   0  0  0  0  0  0  0  0  0  0  0  0
   15.0166    9.5219    7.4661 H   0  0  0  0  0  0  0  0  0  0  0  0
   15.2334   11.2370    7.8351 H   0  0  0  0  0  0  0  0  0  0  0  0
   13.2046   12.8644    7.6120 C   0  0  0  0  0  0  0  0  0  0  0  0
   12.4593   12.7373    8.7853 C   0  0  0  0  0  0  0  0  0  0  0  0
   12.6216   13.7046    9.7652 C   0  0  0  0  0  0  0  0  0  0  0  0
   12.0529   13.6227   10.6795 H   0  0  0  0  0  0  0  0  0  0  0  0
   13.4892   14.7750    9.5951 C   0  0  0  0  0  0  0  0  0  0  0  0
   14.2071   14.8754    8.4108 C   0  0  0  0  0  0  0  0  0  0  0  0
   14.8768   15.7103    8.2644 H   0  0  0  0  0  0  0  0  0  0  0  0
   14.0754   13.9327    7.4032 C   0  0  0  0  0  0  0  0  0  0  0  0
   11.5197   11.5877    8.9705 C   0  0  0  0  0  0  0  0  0  0  0  0
   12.0419   10.6368    8.8625 H   0  0  0  0  0  0  0  0  0  0  0  0
   10.7236   11.6108    8.2266 H   0  0  0  0  0  0  0  0  0  0  0  0
   11.0646   11.6216    9.9558 H   0  0  0  0  0  0  0  0  0  0  0  0
   13.6258   15.8224   10.6552 C   0  0  0  0  0  0  0  0  0  0  0  0
   14.6358   16.2249   10.6771 H   0  0  0  0  0  0  0  0  0  0  0  0
   13.3817   15.4194   11.6347 H   0  0  0  0  0  0  0  0  0  0  0  0
   12.9409   16.6451   10.4487 H   0  0  0  0  0  0  0  0  0  0  0  0
   14.8407   14.0565    6.1197 C   0  0  0  0  0  0  0  0  0  0  0  0
   15.2533   15.0566    6.0205 H   0  0  0  0  0  0  0  0  0  0  0  0
   14.1961   13.8611    5.2638 H   0  0  0  0  0  0  0  0  0  0  0  0
   15.6669   13.3450    6.0914 H   0  0  0  0  0  0  0  0  0  0  0  0
   14.2485    9.1208    1.1739 N   0  0  0  0  0  0  0  0  0  0  0  0
   13.7080    9.1168    3.2615 N   0  0  0  0  0  0  0  0  0  0  0  0
   13.2438   10.1675    5.3169 N   0  0  0  0  0  0  0  0  0  0  0  0
   13.0254   11.8946    6.5894 N   0  0  0  0  0  0  0  0  0  0  0  0
    9.5271    8.8290    1.6079 I   0  0  0  0  0  0  0  0  0  0  0  0
    8.7670   10.5317    4.9732 I   0  0  0  0  0  0  0  0  0  0  0  0
   10.8610    9.9773    3.5270 Pd  0  0  0  0  0  0  0  0  0  0  0  0
  1 61  1  0  0  0  0
  1 66  1  0  0  0  0
  2  1  2  0  0  0  0
  3  2  1  0  0  0  0
  4 32  1  6  0  0  0
  4 61  1  0  0  0  0
  5  6  1  0  0  0  0
  5  7  1  0  0  0  0
  5 62  1  0  0  0  0
  8 63  1  0  0  0  0
  8 36  1  1  0  0  0
  9 10  1  0  0  0  0
  9 63  1  0  0  0  0
 11 62  1  0  0  0  0
 11  9  2  0  0  0  0
 12 60  1  0  0  0  0
 13 12  1  0  0  0  0
 13 20  1  0  0  0  0
 14 13  2  0  0  0  0
 15 14  1  0  0  0  0
 16 17  2  0  0  0  0
 16 14  1  0  0  0  0
 17 19  1  0  0  0  0
 18 17  1  0  0  0  0
 19 28  1  0  0  0  0
 19 12  2  0  0  0  0
 20 22  1  0  0  0  0
 20 21  1  0  0  0  0
 23 20  1  0  0  0  0
 24 16  1  0  0  0  0
 25 24  1  0  0  0  0
 26 24  1  0  0  0  0
 27 24  1  0  0  0  0
 28 29  1  0  0  0  0
 28 30  1  0  0  0  0
 31 28  1  0  0  0  0
 32 35  1  0  0  0  0
 32 33  1  0  0  0  0
 34 32  1  0  0  0  0
 36 38  1  0  0  0  0
 36 39  1  0  0  0  0
 37 36  1  0  0  0  0
 40 41  1  0  0  0  0
 41 48  1  0  0  0  0
 41 42  2  0  0  0  0
 42 43  1  0  0  0  0
 44 42  1  0  0  0  0
 44 52  1  0  0  0  0
 45 44  2  0  0  0  0
 46 45  1  0  0  0  0
 47 40  2  0  0  0  0
 47 45  1  0  0  0  0
 48 51  1  0  0  0  0
 49 48  1  0  0  0  0
 50 48  1  0  0  0  0
 52 53  1  0  0  0  0
 52 54  1  0  0  0  0
 55 52  1  0  0  0  0
 56 47  1  0  0  0  0
 57 56  1  0  0  0  0
 58 56  1  0  0  0  0
 59 56  1  0  0  0  0
 60  2  1  0  0  0  0
 60  4  1  0  0  0  0
 61  5  1  0  0  0  0
 62  8  1  0  0  0  0
 63 40  1  0  0  0  0
 64 66  1  0  0  0  0
 66 11  1  0  0  0  0
 66 65  1  0  0  0  0
M  END
$$$$
