CSD_code = LOKKOO | q = 0 | S = 0 | Stoichiometry = C24H32I2IrN5 | MND = 6
 OpenBabel04212202063D

 64 68  0  0  1  0  0  0  0  0999 V2000
   11.0130   18.2020   10.7150 Ir  0  0  0  0  0  0  0  0  0  0  0  0
   10.5916   16.7871    8.4248 I   0  0  0  0  0  0  0  0  0  0  0  0
   11.4661   19.6048   13.0130 I   0  0  0  0  0  0  0  0  0  0  0  0
    9.2962   16.0219   12.4196 N   0  0  0  0  0  0  0  0  0  0  0  0
    8.2721   17.7109   11.5650 N   0  0  0  0  0  0  0  0  0  0  0  0
   10.8514   20.7001    9.2285 N   0  0  0  0  0  0  0  0  0  0  0  0
   12.9555   20.2653    9.1071 N   0  0  0  0  0  0  0  0  0  0  0  0
   12.6413   17.1042   11.1065 N   0  0  0  0  0  2  0  0  0  0  0  0
    9.4971   17.1219   11.6773 C   0  0  1  0  0  3  0  0  0  0  0  0
   10.3380   15.1006   12.8216 C   0  0  0  0  0  0  0  0  0  0  0  0
   11.2189   15.3634   12.2265 H   0  0  0  0  0  0  0  0  0  0  0  0
   10.6566   15.2996   14.3025 C   0  0  0  0  0  0  0  0  0  0  0  0
   10.9549   16.3294   14.4870 H   0  0  0  0  0  0  0  0  0  0  0  0
   11.4687   14.6426   14.6021 H   0  0  0  0  0  0  0  0  0  0  0  0
    9.7863   15.0758   14.9156 H   0  0  0  0  0  0  0  0  0  0  0  0
    9.9410   13.6622   12.5019 C   0  0  0  0  0  0  0  0  0  0  0  0
    9.1139   13.3335   13.1263 H   0  0  0  0  0  0  0  0  0  0  0  0
   10.7849   13.0013   12.6805 H   0  0  0  0  0  0  0  0  0  0  0  0
    9.6500   13.5757   11.4573 H   0  0  0  0  0  0  0  0  0  0  0  0
    7.9758   15.9241   12.7765 C   0  0  0  0  0  0  0  0  0  0  0  0
    7.5961   15.1241   13.3766 H   0  0  0  0  0  0  0  0  0  0  0  0
    7.3316   16.9851   12.2350 C   0  0  0  0  0  0  0  0  0  0  0  0
    6.2999   17.2659   12.2796 H   0  0  0  0  0  0  0  0  0  0  0  0
    8.1759   18.9079   10.8368 C   0  0  0  0  0  0  0  0  0  0  0  0
    9.4140   19.2974   10.3499 C   0  0  0  0  0  0  0  0  0  0  0  0
    9.5222   20.4672    9.6178 C   0  0  0  0  0  0  0  0  0  0  0  0
    8.4062   21.2481    9.3589 C   0  0  0  0  0  0  0  0  0  0  0  0
    8.5136   22.1538    8.7863 H   0  0  0  0  0  0  0  0  0  0  0  0
    7.1615   20.8512    9.8439 C   0  0  0  0  0  0  0  0  0  0  0  0
    7.0512   19.6738   10.5888 C   0  0  0  0  0  0  0  0  0  0  0  0
    6.0924   19.3606   10.9717 H   0  0  0  0  0  0  0  0  0  0  0  0
    5.9004   21.6663    9.5902 C   0  0  0  0  0  0  0  0  0  0  0  0
    6.1656   22.9290    8.7655 C   0  0  0  0  0  0  0  0  0  0  0  0
    5.2309   23.4664    8.6182 H   0  0  0  0  0  0  0  0  0  0  0  0
    6.5654   22.6801    7.7850 H   0  0  0  0  0  0  0  0  0  0  0  0
    6.8559   23.5948    9.2786 H   0  0  0  0  0  0  0  0  0  0  0  0
    5.3016   22.0977   10.9367 C   0  0  0  0  0  0  0  0  0  0  0  0
    4.4159   22.7083   10.7742 H   0  0  0  0  0  0  0  0  0  0  0  0
    6.0261   22.6820   11.5002 H   0  0  0  0  0  0  0  0  0  0  0  0
    5.0154   21.2404   11.5394 H   0  0  0  0  0  0  0  0  0  0  0  0
    4.8910   20.8020    8.8211 C   0  0  0  0  0  0  0  0  0  0  0  0
    4.6012   19.9239    9.3914 H   0  0  0  0  0  0  0  0  0  0  0  0
    5.3227   20.4680    7.8799 H   0  0  0  0  0  0  0  0  0  0  0  0
    3.9931   21.3774    8.6052 H   0  0  0  0  0  0  0  0  0  0  0  0
   11.7992   19.7909    9.5960 C   0  0  1  0  0  3  0  0  0  0  0  0
   14.2454   19.6324    9.2822 C   0  0  0  0  0  0  0  0  0  0  0  0
   14.0426   18.6497    9.7201 H   0  0  0  0  0  0  0  0  0  0  0  0
   14.9360   19.4364    7.9354 C   0  0  0  0  0  0  0  0  0  0  0  0
   14.2798   18.9026    7.2514 H   0  0  0  0  0  0  0  0  0  0  0  0
   15.8429   18.8529    8.0697 H   0  0  0  0  0  0  0  0  0  0  0  0
   15.2072   20.3902    7.4895 H   0  0  0  0  0  0  0  0  0  0  0  0
   15.0925   20.4482   10.2573 C   0  0  0  0  0  0  0  0  0  0  0  0
   16.0420   19.9502   10.4338 H   0  0  0  0  0  0  0  0  0  0  0  0
   14.5726   20.5544   11.2071 H   0  0  0  0  0  0  0  0  0  0  0  0
   15.2913   21.4403    9.8580 H   0  0  0  0  0  0  0  0  0  0  0  0
   12.7437   21.4516    8.4524 C   0  0  0  0  0  0  0  0  0  0  0  0
   13.5331   22.0063    7.9903 H   0  0  0  0  0  0  0  0  0  0  0  0
   11.4190   21.7226    8.5266 C   0  0  0  0  0  0  0  0  0  0  0  0
   10.8577   22.5480    8.1406 H   0  0  0  0  0  0  0  0  0  0  0  0
   13.5939   16.5231   11.3924 C   0  0  0  0  0  2  0  0  0  0  0  0
   14.7798   15.8030   11.7416 C   0  0  0  0  0  0  0  0  0  0  0  0
   15.5609   16.5054   12.0334 H   0  0  0  0  0  0  0  0  0  0  0  0
   15.1178   15.2193   10.8850 H   0  0  0  0  0  0  0  0  0  0  0  0
   14.5732   15.1324   12.5760 H   0  0  0  0  0  0  0  0  0  0  0  0
  1  8  1  0  0  0  0
  1  9  1  0  0  0  0
  1  3  1  0  0  0  0
  2  1  1  0  0  0  0
  4 20  1  0  0  0  0
  4 10  1  0  0  0  0
  5 22  1  0  0  0  0
  6 45  1  0  0  0  0
  6 26  1  0  0  0  0
  7 46  1  0  0  0  0
  8 60  1  0  0  0  0
  9  5  1  1  0  0  0
  9  4  1  0  0  0  0
 10 12  1  0  0  0  0
 11 10  1  0  0  0  0
 12 13  1  0  0  0  0
 12 14  1  0  0  0  0
 12 15  1  0  0  0  0
 16 18  1  0  0  0  0
 16 10  1  0  0  0  0
 16 17  1  0  0  0  0
 19 16  1  0  0  0  0
 20 21  1  0  0  0  0
 22 23  1  0  0  0  0
 22 20  2  0  0  0  0
 24  5  1  0  0  0  0
 25  1  1  0  0  0  0
 25 24  2  0  0  0  0
 26 25  1  0  0  0  0
 27 26  2  0  0  0  0
 27 29  1  0  0  0  0
 28 27  1  0  0  0  0
 29 30  2  0  0  0  0
 30 24  1  0  0  0  0
 30 31  1  0  0  0  0
 32 29  1  0  0  0  0
 32 37  1  0  0  0  0
 33 36  1  0  0  0  0
 33 32  1  0  0  0  0
 34 33  1  0  0  0  0
 35 33  1  0  0  0  0
 37 39  1  0  0  0  0
 37 40  1  0  0  0  0
 38 37  1  0  0  0  0
 41 42  1  0  0  0  0
 41 32  1  0  0  0  0
 43 41  1  0  0  0  0
 44 41  1  0  0  0  0
 45  7  1  1  0  0  0
 45  1  1  0  0  0  0
 46 47  1  0  0  0  0
 46 52  1  0  0  0  0
 48 50  1  0  0  0  0
 48 46  1  0  0  0  0
 49 48  1  0  0  0  0
 51 48  1  0  0  0  0
 52 53  1  0  0  0  0
 52 54  1  0  0  0  0
 55 52  1  0  0  0  0
 56 58  2  0  0  0  0
 56  7  1  0  0  0  0
 57 56  1  0  0  0  0
 58  6  1  0  0  0  0
 59 58  1  0  0  0  0
 60 61  1  0  0  0  0
 61 62  1  0  0  0  0
 61 64  1  0  0  0  0
 63 61  1  0  0  0  0
M  END
$$$$
