CSD_code = LOKSUB | q = 0 | S = 0 | Stoichiometry = C31H22I2N4SZn | MND = 5
 OpenBabel04212202063D

 61 68  0  0  1  0  0  0  0  0999 V2000
   -0.4323   -1.1713   18.9229 C   0  0  0  0  0  3  0  0  0  0  0  0
   -0.4896   -1.5083   19.9495 H   0  0  0  0  0  0  0  0  0  0  0  0
   -1.5793   -0.9258   18.1852 C   0  0  0  0  0  0  0  0  0  0  0  0
   -2.5524   -1.0704   18.6253 H   0  0  0  0  0  0  0  0  0  0  0  0
   -1.4341   -0.4925   16.8776 C   0  0  0  0  0  0  0  0  0  0  0  0
   -2.2995   -0.2888   16.2646 H   0  0  0  0  0  0  0  0  0  0  0  0
   -0.1610   -0.3211   16.3613 C   0  0  0  0  0  0  0  0  0  0  0  0
   -0.0334    0.0191   15.3468 H   0  0  0  0  0  0  0  0  0  0  0  0
    0.9383   -0.5926   17.1733 C   0  0  0  0  0  0  0  0  0  0  0  0
    2.3339   -0.4452   16.7282 C   0  0  2  0  0  3  0  0  0  0  0  0
    2.6844   -0.0664   15.4421 C   0  0  0  0  0  0  0  0  0  0  0  0
    1.9336    0.1437   14.6982 H   0  0  0  0  0  0  0  0  0  0  0  0
    4.0354    0.0377   15.0890 C   0  0  0  0  0  0  0  0  0  0  0  0
    4.9816   -0.2501   16.0817 C   0  0  0  0  0  0  0  0  0  0  0  0
    6.0309   -0.1948   15.8517 H   0  0  0  0  0  0  0  0  0  0  0  0
    4.5545   -0.6125   17.3500 C   0  0  0  0  0  0  0  0  0  0  0  0
    5.4804   -0.9328   18.4498 C   0  0  1  0  0  3  0  0  0  0  0  0
    6.8613   -0.7657   18.3689 C   0  0  0  0  0  0  0  0  0  0  0  0
    7.3229   -0.3689   17.4796 H   0  0  0  0  0  0  0  0  0  0  0  0
    7.6439   -1.1070   19.4586 C   0  0  0  0  0  0  0  0  0  0  0  0
    8.7161   -0.9855   19.4158 H   0  0  0  0  0  0  0  0  0  0  0  0
    7.0329   -1.6020   20.5989 C   0  0  0  0  0  0  0  0  0  0  0  0
    7.6058   -1.8816   21.4678 H   0  0  0  0  0  0  0  0  0  0  0  0
    5.6527   -1.7241   20.5991 C   0  0  0  0  0  0  0  0  0  0  0  0
    5.1247   -2.0947   21.4677 H   0  0  0  0  0  0  0  0  0  0  0  0
    4.4241    0.4253   13.7652 C   0  0  0  0  0  0  0  0  0  0  0  0
    5.6831    0.5324   13.2225 C   0  0  0  0  0  0  0  0  0  0  0  0
    6.5846    0.3213   13.7688 H   0  0  0  0  0  0  0  0  0  0  0  0
    5.6973    0.9166   11.8805 C   0  0  0  0  0  0  0  0  0  0  0  0
    6.5926    1.0264   11.2959 H   0  0  0  0  0  0  0  0  0  0  0  0
    4.4369    1.1198   11.3650 C   0  0  0  0  0  0  0  0  0  0  0  0
    2.8460    1.2411    9.5545 C   0  0  0  0  0  0  0  0  0  0  0  0
    2.2921   -0.0277    9.6966 C   0  0  0  0  0  0  0  0  0  0  0  0
    2.8382   -0.7974   10.2217 H   0  0  0  0  0  0  0  0  0  0  0  0
    1.0523   -0.3036    9.1512 C   0  0  0  0  0  0  0  0  0  0  0  0
    0.6307   -1.2911    9.2627 H   0  0  0  0  0  0  0  0  0  0  0  0
    0.3606    0.6737    8.4553 C   0  0  0  0  0  0  0  0  0  0  0  0
   -0.6057    0.4532    8.0285 H   0  0  0  0  0  0  0  0  0  0  0  0
    0.9159    1.9340    8.3047 C   0  0  0  0  0  0  0  0  0  0  0  0
    0.3820    2.7003    7.7631 H   0  0  0  0  0  0  0  0  0  0  0  0
    2.1515    2.2221    8.8517 C   0  0  0  0  0  0  0  0  0  0  0  0
    2.5852    3.2050    8.7408 H   0  0  0  0  0  0  0  0  0  0  0  0
    5.0128    2.3178    9.3602 C   0  0  0  0  0  0  0  0  0  0  0  0
    5.1469    2.0881    7.9932 C   0  0  0  0  0  0  0  0  0  0  0  0
    4.5617    1.3108    7.5247 H   0  0  0  0  0  0  0  0  0  0  0  0
    6.0249    2.8513    7.2476 C   0  0  0  0  0  0  0  0  0  0  0  0
    6.1254    2.6646    6.1892 H   0  0  0  0  0  0  0  0  0  0  0  0
    6.7780    3.8440    7.8529 C   0  0  0  0  0  0  0  0  0  0  0  0
    7.4652    4.4359    7.2684 H   0  0  0  0  0  0  0  0  0  0  0  0
    6.6426    4.0759    9.2117 C   0  0  0  0  0  0  0  0  0  0  0  0
    7.2185    4.8548    9.6883 H   0  0  0  0  0  0  0  0  0  0  0  0
    5.7636    3.3215    9.9656 C   0  0  0  0  0  0  0  0  0  0  0  0
    5.6478    3.5142   11.0218 H   0  0  0  0  0  0  0  0  0  0  0  0
    2.3133    0.1387   21.4421 I   0  0  0  0  0  0  0  0  0  0  0  0
    2.4681   -4.0274   19.3554 I   0  0  0  0  0  0  0  0  0  0  0  0
    0.7814   -1.0106   18.4298 N   0  0  0  0  0  0  0  0  0  0  0  0
    3.2597   -0.7048   17.6512 N   0  0  0  0  0  0  0  0  0  0  0  0
    4.9071   -1.3996   19.5595 N   0  0  0  0  0  0  0  0  0  0  0  0
    4.1074    1.5389   10.1084 N   0  0  0  0  0  0  0  0  0  0  0  0
    3.2123    0.8386   12.5665 S   0  0  0  0  0  0  0  0  0  0  0  0
    2.6675   -1.4976   19.5340 Zn  0  0  0  0  0  0  0  0  0  0  0  0
  1  2  1  0  0  0  0
  3  4  1  0  0  0  0
  3  1  1  0  0  0  0
  5  3  2  0  0  0  0
  6  5  1  0  0  0  0
  7  5  1  0  0  0  0
  7  9  2  0  0  0  0
  8  7  1  0  0  0  0
  9 56  1  0  0  0  0
 10 11  1  6  0  0  0
 10  9  1  0  0  0  0
 10 57  1  0  0  0  0
 12 11  1  0  0  0  0
 13 11  2  0  0  0  0
 13 14  1  0  0  0  0
 14 16  2  0  0  0  0
 15 14  1  0  0  0  0
 16 57  1  0  0  0  0
 17 16  1  1  0  0  0
 17 58  1  0  0  0  0
 18 17  1  0  0  0  0
 18 20  2  0  0  0  0
 19 18  1  0  0  0  0
 20 22  1  0  0  0  0
 21 20  1  0  0  0  0
 22 24  2  0  0  0  0
 22 23  1  0  0  0  0
 24 25  1  0  0  0  0
 26 13  1  0  0  0  0
 27 26  2  0  0  0  0
 27 28  1  0  0  0  0
 29 27  1  0  0  0  0
 30 29  1  0  0  0  0
 31 29  2  0  0  0  0
 31 60  1  0  0  0  0
 32 33  1  0  0  0  0
 32 59  1  0  0  0  0
 33 34  1  0  0  0  0
 35 36  1  0  0  0  0
 35 33  2  0  0  0  0
 37 35  1  0  0  0  0
 38 37  1  0  0  0  0
 39 37  2  0  0  0  0
 39 41  1  0  0  0  0
 40 39  1  0  0  0  0
 41 32  2  0  0  0  0
 42 41  1  0  0  0  0
 43 52  1  0  0  0  0
 43 59  1  0  0  0  0
 44 43  2  0  0  0  0
 45 44  1  0  0  0  0
 46 48  2  0  0  0  0
 46 44  1  0  0  0  0
 47 46  1  0  0  0  0
 48 50  1  0  0  0  0
 49 48  1  0  0  0  0
 50 51  1  0  0  0  0
 50 52  2  0  0  0  0
 52 53  1  0  0  0  0
 55 61  1  0  0  0  0
 56  1  1  0  0  0  0
 56 61  1  0  0  0  0
 57 61  1  0  0  0  0
 58 24  1  0  0  0  0
 59 31  1  0  0  0  0
 60 26  1  0  0  0  0
 61 58  1  0  0  0  0
 61 54  1  0  0  0  0
M  END
$$$$
