CSD_code = LOMDEY | q = 0 | S = 0 | Stoichiometry = C18H13Cl2N3OZn | MND = 4
 OpenBabel04212202063D

 38 42  0  0  1  0  0  0  0  0999 V2000
    0.0980    1.8880   -0.4256 C   0  0  0  0  0  3  0  0  0  0  0  0
   -0.1436    0.9447    0.0440 H   0  0  0  0  0  0  0  0  0  0  0  0
   -0.0451    2.0671   -1.7910 C   0  0  0  0  0  0  0  0  0  0  0  0
   -0.3978    1.2613   -2.4136 H   0  0  0  0  0  0  0  0  0  0  0  0
    0.2628    3.3102   -2.3251 C   0  0  0  0  0  0  0  0  0  0  0  0
    0.1466    3.4987   -3.3821 H   0  0  0  0  0  0  0  0  0  0  0  0
    0.7126    4.3094   -1.4846 C   0  0  0  0  0  0  0  0  0  0  0  0
    0.9297    5.2907   -1.8706 H   0  0  0  0  0  0  0  0  0  0  0  0
    0.8507    4.0433   -0.1198 C   0  0  0  0  0  0  0  0  0  0  0  0
    1.3170    5.0132    0.8457 C   0  0  0  0  0  0  0  0  0  0  0  0
    1.9637    6.2489    0.7369 C   0  0  0  0  0  0  0  0  0  0  0  0
    2.4316    7.0680   -0.3081 C   0  0  0  0  0  0  0  0  0  0  0  0
    2.3272    6.7387   -1.3278 H   0  0  0  0  0  0  0  0  0  0  0  0
    3.0215    8.2614   -0.0152 C   0  0  0  0  0  0  0  0  0  0  0  0
    3.3865    8.8993   -0.8041 H   0  0  0  0  0  0  0  0  0  0  0  0
    3.1512    8.6815    1.3310 C   0  0  0  0  0  0  0  0  0  0  0  0
    3.5901    9.6396    1.5541 H   0  0  0  0  0  0  0  0  0  0  0  0
    2.7263    7.8812    2.3386 C   0  0  0  0  0  0  0  0  0  0  0  0
    2.7966    8.1445    3.3804 H   0  0  0  0  0  0  0  0  0  0  0  0
    1.6836    5.7093    2.8777 C   0  0  1  0  0  3  0  0  0  0  0  0
    1.7375    5.6726    4.3312 C   0  0  0  0  0  0  0  0  0  0  0  0
    0.6106    5.2720    5.0471 C   0  0  0  0  0  0  0  0  0  0  0  0
   -0.3098    5.0856    4.5142 H   0  0  0  0  0  0  0  0  0  0  0  0
    0.6660    5.1223    6.4189 C   0  0  0  0  0  0  0  0  0  0  0  0
   -0.2132    4.8107    6.9596 H   0  0  0  0  0  0  0  0  0  0  0  0
    1.8552    5.3535    7.0901 C   0  0  0  0  0  0  0  0  0  0  0  0
    1.9105    5.2243    8.1602 H   0  0  0  0  0  0  0  0  0  0  0  0
    2.9854    5.7367    6.3918 C   0  0  0  0  0  0  0  0  0  0  0  0
    3.9214    5.8934    6.9117 H   0  0  0  0  0  0  0  0  0  0  0  0
    2.9407    5.8960    5.0139 C   0  0  0  0  0  0  0  0  0  0  0  0
    2.0734    1.8392    3.6220 Cl  0  0  0  0  0  0  0  0  0  0  0  0
   -1.7004    3.0084    2.9861 Cl  0  0  0  0  0  0  0  0  0  0  0  0
    0.5325    2.8408    0.3818 N   0  0  0  0  0  0  0  0  0  0  0  0
    2.1738    6.6718    2.0495 N   0  0  0  0  0  0  0  0  0  0  0  0
    1.1676    4.7340    2.1640 N   0  0  0  0  0  0  0  0  0  0  0  0
    4.0471    6.2476    4.2971 O   0  0  0  0  0  0  0  0  0  0  0  0
    4.8260    6.1955    4.8645 H   0  0  0  0  0  0  0  0  0  0  0  0
    0.4490    2.8378    2.5402 Zn  0  0  0  0  0  0  0  0  0  0  0  0
  1  2  1  0  0  0  0
  1 33  1  0  0  0  0
  3  1  1  0  0  0  0
  4  3  1  0  0  0  0
  5  3  2  0  0  0  0
  5  7  1  0  0  0  0
  6  5  1  0  0  0  0
  7  9  2  0  0  0  0
  8  7  1  0  0  0  0
  9 33  1  0  0  0  0
  9 10  1  0  0  0  0
 10 35  1  0  0  0  0
 11 10  2  0  0  0  0
 11 34  1  0  0  0  0
 12 14  2  0  0  0  0
 12 11  1  0  0  0  0
 13 12  1  0  0  0  0
 14 16  1  0  0  0  0
 15 14  1  0  0  0  0
 16 17  1  0  0  0  0
 16 18  2  0  0  0  0
 18 19  1  0  0  0  0
 20 21  1  6  0  0  0
 21 30  2  0  0  0  0
 21 22  1  0  0  0  0
 22 24  2  0  0  0  0
 23 22  1  0  0  0  0
 24 25  1  0  0  0  0
 24 26  1  0  0  0  0
 26 27  1  0  0  0  0
 28 29  1  0  0  0  0
 28 26  2  0  0  0  0
 30 28  1  0  0  0  0
 33 38  1  0  0  0  0
 34 18  1  0  0  0  0
 34 20  1  0  0  0  0
 35 38  1  0  0  0  0
 35 20  1  0  0  0  0
 36 37  1  0  0  0  0
 36 30  1  0  0  0  0
 38 32  1  0  0  0  0
 38 31  1  0  0  0  0
M  END
$$$$
