CSD_code = LOMDAU | q = 0 | S = 0 | Stoichiometry = C19H15Cl2N3Zn | MND = 4
 OpenBabel04212202063D

 40 44  0  0  1  0  0  0  0  0999 V2000
    4.3532   -2.7476    1.2498 C   0  0  0  0  0  3  0  0  0  0  0  0
    4.9547   -3.6454    1.2775 H   0  0  0  0  0  0  0  0  0  0  0  0
    3.0518   -2.7667    0.7776 C   0  0  0  0  0  0  0  0  0  0  0  0
    2.6150   -3.6841    0.4187 H   0  0  0  0  0  0  0  0  0  0  0  0
    2.3310   -1.5808    0.7894 C   0  0  0  0  0  0  0  0  0  0  0  0
    1.3088   -1.5555    0.4423 H   0  0  0  0  0  0  0  0  0  0  0  0
    2.9352   -0.4321    1.2615 C   0  0  0  0  0  0  0  0  0  0  0  0
    2.3880    0.4941    1.3122 H   0  0  0  0  0  0  0  0  0  0  0  0
    4.2591   -0.4913    1.7044 C   0  0  0  0  0  0  0  0  0  0  0  0
    4.9866    0.6470    2.2173 C   0  0  0  0  0  0  0  0  0  0  0  0
    4.7992    2.0273    2.1131 C   0  0  0  0  0  0  0  0  0  0  0  0
    3.8721    2.8945    1.5034 C   0  0  0  0  0  0  0  0  0  0  0  0
    3.0528    2.4820    0.9394 H   0  0  0  0  0  0  0  0  0  0  0  0
    4.0352    4.2426    1.6209 C   0  0  0  0  0  0  0  0  0  0  0  0
    3.3365    4.9201    1.1572 H   0  0  0  0  0  0  0  0  0  0  0  0
    5.1232    4.7724    2.3591 C   0  0  0  0  0  0  0  0  0  0  0  0
    5.2309    5.8390    2.4655 H   0  0  0  0  0  0  0  0  0  0  0  0
    6.0308    3.9401    2.9238 C   0  0  0  0  0  0  0  0  0  0  0  0
    6.8796    4.2709    3.5022 H   0  0  0  0  0  0  0  0  0  0  0  0
    6.6691    1.5805    3.2349 C   0  0  1  0  0  3  0  0  0  0  0  0
    7.9252    1.7379    3.9689 C   0  0  0  0  0  0  0  0  0  0  0  0
    7.9912    1.2814    5.2818 C   0  0  0  0  0  0  0  0  0  0  0  0
    7.1156    0.8359    5.7297 H   0  0  0  0  0  0  0  0  0  0  0  0
    9.1671    1.3938    5.9987 C   0  0  0  0  0  0  0  0  0  0  0  0
    9.2146    1.0359    7.0154 H   0  0  0  0  0  0  0  0  0  0  0  0
   10.2811    1.9566    5.3997 C   0  0  0  0  0  0  0  0  0  0  0  0
   11.2048    2.0460    5.9517 H   0  0  0  0  0  0  0  0  0  0  0  0
   10.2221    2.3852    4.0854 C   0  0  0  0  0  0  0  0  0  0  0  0
   11.1053    2.7943    3.6168 H   0  0  0  0  0  0  0  0  0  0  0  0
    9.0541    2.2790    3.3418 C   0  0  0  0  0  0  0  0  0  0  0  0
    9.0322    2.6517    1.8926 C   0  0  0  0  0  0  0  0  0  0  0  0
    8.8018    1.7665    1.2969 H   0  0  0  0  0  0  0  0  0  0  0  0
   10.0033    3.0288    1.5830 H   0  0  0  0  0  0  0  0  0  0  0  0
    8.2822    3.4107    1.6710 H   0  0  0  0  0  0  0  0  0  0  0  0
    7.3319   -2.7933    4.0618 Cl  0  0  0  0  0  0  0  0  0  0  0  0
    8.1624   -0.6680    0.7282 Cl  0  0  0  0  0  0  0  0  0  0  0  0
    4.9377   -1.6475    1.6939 N   0  0  0  0  0  0  0  0  0  0  0  0
    5.8839    2.5934    2.7811 N   0  0  0  0  0  0  0  0  0  0  0  0
    6.1326    0.4266    2.9151 N   0  0  0  0  0  0  0  0  0  0  0  0
    6.9380   -1.4122    2.4300 Zn  0  0  0  0  0  0  0  0  0  0  0  0
  1  2  1  0  0  0  0
  1 37  1  0  0  0  0
  3  5  2  0  0  0  0
  3  1  1  0  0  0  0
  4  3  1  0  0  0  0
  5  7  1  0  0  0  0
  6  5  1  0  0  0  0
  7  8  1  0  0  0  0
  7  9  2  0  0  0  0
  9 10  1  0  0  0  0
 10 39  1  0  0  0  0
 11 10  2  0  0  0  0
 11 38  1  0  0  0  0
 12 14  2  0  0  0  0
 12 11  1  0  0  0  0
 13 12  1  0  0  0  0
 14 16  1  0  0  0  0
 15 14  1  0  0  0  0
 16 17  1  0  0  0  0
 16 18  2  0  0  0  0
 18 19  1  0  0  0  0
 20 21  1  6  0  0  0
 21 22  1  0  0  0  0
 22 23  1  0  0  0  0
 22 24  2  0  0  0  0
 24 25  1  0  0  0  0
 26 27  1  0  0  0  0
 26 24  1  0  0  0  0
 28 26  2  0  0  0  0
 29 28  1  0  0  0  0
 30 21  2  0  0  0  0
 30 28  1  0  0  0  0
 31 30  1  0  0  0  0
 32 31  1  0  0  0  0
 33 31  1  0  0  0  0
 34 31  1  0  0  0  0
 36 40  1  0  0  0  0
 37  9  1  0  0  0  0
 37 40  1  0  0  0  0
 38 18  1  0  0  0  0
 38 20  1  0  0  0  0
 39 20  1  0  0  0  0
 40 39  1  0  0  0  0
 40 35  1  0  0  0  0
M  END
$$$$
