CSD_code = LOMPAG | q = 0 | S = 0 | Stoichiometry = C12H9BrHgI2N2O | MND = 3
 OpenBabel04212202063D

 28 28  0  0  0  0  0  0  0  0999 V2000
    6.9564    5.1360    4.1885 C   0  0  0  0  0  0  0  0  0  0  0  0
    6.6532    6.1405    3.9285 H   0  0  0  0  0  0  0  0  0  0  0  0
    6.5262    4.0590    3.4316 C   0  0  0  0  0  0  0  0  0  0  0  0
    5.9030    4.2016    2.5634 H   0  0  0  0  0  0  0  0  0  0  0  0
    6.8995    2.7814    3.8109 C   0  0  0  0  0  0  0  0  0  0  0  0
    6.5749    1.9225    3.2386 H   0  0  0  0  0  0  0  0  0  0  0  0
    8.0540    3.5663    5.6145 C   0  0  0  0  0  0  0  0  0  0  0  0
    8.6511    3.3561    6.4930 H   0  0  0  0  0  0  0  0  0  0  0  0
    7.7474    4.8880    5.3056 C   0  0  0  0  0  0  0  0  0  0  0  0
    8.2212    5.9546    6.2490 C   0  0  0  0  0  0  0  0  0  0  0  0
    9.0599    8.2951    6.1908 C   0  0  0  0  0  0  0  0  0  0  0  0
    9.1580    8.4771    7.5664 C   0  0  0  0  0  0  0  0  0  0  0  0
    8.8761    7.6875    8.2427 H   0  0  0  0  0  0  0  0  0  0  0  0
    9.6274    9.6867    8.0465 C   0  0  0  0  0  0  0  0  0  0  0  0
   10.0013   10.7176    7.2013 C   0  0  0  0  0  0  0  0  0  0  0  0
   10.3639   11.6499    7.6036 H   0  0  0  0  0  0  0  0  0  0  0  0
    9.8993   10.5237    5.8345 C   0  0  0  0  0  0  0  0  0  0  0  0
   10.1862   11.3154    5.1599 H   0  0  0  0  0  0  0  0  0  0  0  0
    9.4331    9.3256    5.3285 C   0  0  0  0  0  0  0  0  0  0  0  0
    9.3577    9.1849    4.2596 H   0  0  0  0  0  0  0  0  0  0  0  0
    8.2582    5.7604    7.4416 O   0  0  0  0  0  0  0  0  0  0  0  0
    7.6514    2.5346    4.8826 N   0  0  0  0  0  0  0  0  0  0  0  0
    8.5853    7.1084    5.6215 N   0  0  0  0  0  0  0  0  0  0  0  0
    8.5677    7.1119    4.6106 H   0  0  0  0  0  0  0  0  0  0  0  0
    9.7571    9.9355    9.9278 Br  0  0  0  0  0  0  0  0  0  0  0  0
    8.3061    0.1390    5.5184 Hg  0  0  0  0  0  0  0  0  0  0  0  0
   10.3927    0.6277    6.9945 I   0  0  0  0  0  0  0  0  0  0  0  0
    6.5008   -1.1487    4.1473 I   0  0  0  0  0  0  0  0  0  0  0  0
  1  9  1  0  0  0  0
  2  1  1  0  0  0  0
  3  5  1  0  0  0  0
  3  1  2  0  0  0  0
  4  3  1  0  0  0  0
  5 22  2  0  0  0  0
  6  5  1  0  0  0  0
  7  8  1  0  0  0  0
  9  7  2  0  0  0  0
  9 10  1  0  0  0  0
 10 21  2  0  0  0  0
 11 12  1  0  0  0  0
 12 14  2  0  0  0  0
 12 13  1  0  0  0  0
 14 25  1  0  0  0  0
 15 16  1  0  0  0  0
 15 14  1  0  0  0  0
 17 15  2  0  0  0  0
 18 17  1  0  0  0  0
 19 17  1  0  0  0  0
 19 11  2  0  0  0  0
 20 19  1  0  0  0  0
 22  7  1  0  0  0  0
 23 11  1  0  0  0  0
 23 10  1  0  0  0  0
 24 23  1  0  0  0  0
 26 27  1  0  0  0  0
 28 26  1  0  0  0  0
M  END
$$$$
