CSD_code = LOMROX | q = 0 | S = 0 | Stoichiometry = C20H21ClNO3Rh | MND = 6
 OpenBabel04212202063D

 47 50  0  0  1  0  0  0  0  0999 V2000
    1.8342    0.4383   13.7369 Rh  0  0  0  0  0  0  0  0  0  0  0  0
    2.2774    0.5174   15.8708 Cl  0  0  0  0  0 15  0  0  0  0  0  0
    3.6131   -0.6844   13.2420 O   0  0  0  0  0  0  0  0  0  0  0  0
    2.7655   -1.6034   11.2775 N   0  0  0  0  0  0  0  0  0  0  0  0
    3.7372   -1.2392   12.1680 C   0  0  0  0  0  0  0  0  0  0  0  0
    4.8082   -2.2828   10.4788 C   0  0  0  0  0  0  0  0  0  0  0  0
    5.4282   -3.1785   10.4932 H   0  0  0  0  0  0  0  0  0  0  0  0
    5.1737   -1.5991    9.7051 H   0  0  0  0  0  0  0  0  0  0  0  0
    4.9336   -1.6370   11.7403 O   0  0  0  0  0  0  0  0  0  0  0  0
    0.6204   -1.9900   10.6510 O   0  0  0  0  0  0  0  0  0  0  0  0
    3.3103   -2.5762   10.3335 C   0  0  1  0  0  0  0  0  0  0  0  0
    2.9419   -2.3429    9.3302 H   0  0  0  0  0  0  0  0  0  0  0  0
    2.8910   -4.0172   10.6911 C   0  0  0  0  0  0  0  0  0  0  0  0
    1.7973   -4.0290   10.6613 H   0  0  0  0  0  0  0  0  0  0  0  0
    3.4091   -4.9946    9.6392 C   0  0  0  0  0  0  0  0  0  0  0  0
    3.0804   -4.7000    8.6456 H   0  0  0  0  0  0  0  0  0  0  0  0
    3.0244   -5.9899    9.8439 H   0  0  0  0  0  0  0  0  0  0  0  0
    4.4956   -5.0454    9.6432 H   0  0  0  0  0  0  0  0  0  0  0  0
    3.3412   -4.4212   12.0928 C   0  0  0  0  0  0  0  0  0  0  0  0
    4.4257   -4.4346   12.1794 H   0  0  0  0  0  0  0  0  0  0  0  0
    2.9732   -5.4187   12.3190 H   0  0  0  0  0  0  0  0  0  0  0  0
    2.9437   -3.7423   12.8451 H   0  0  0  0  0  0  0  0  0  0  0  0
    1.3878   -1.2582   11.2399 C   0  0  0  0  0  0  0  0  0  0  0  0
    1.0170   -0.0009   11.8550 C   0  0  1  0  0  3  0  0  0  0  0  0
    1.7170    1.2351   11.8329 C   0  0  1  0  0  0  0  0  0  0  0  0
    0.6683    2.3098   12.1736 C   0  0  2  0  0  0  0  0  0  0  0  0
    0.9365    3.3331   11.9248 H   0  0  0  0  0  0  0  0  0  0  0  0
    0.4357    1.9829   13.6497 C   0  0  1  0  0  0  0  0  0  0  0  0
    0.4455    2.7228   14.4395 H   0  0  0  0  0  0  0  0  0  0  0  0
   -0.2416    0.7581   13.6650 C   0  0  0  0  0  3  0  0  0  0  0  0
   -0.8315    0.3607   14.4812 H   0  0  0  0  0  0  0  0  0  0  0  0
   -0.4365    0.3534   12.2029 C   0  0  1  0  0  0  0  0  0  0  0  0
   -1.1742   -0.4133   11.9865 H   0  0  0  0  0  0  0  0  0  0  0  0
   -0.5885    1.7184   11.5233 C   0  0  0  0  0  0  0  0  0  0  0  0
   -1.4996    2.2399   11.8150 H   0  0  0  0  0  0  0  0  0  0  0  0
   -0.5219    1.6627   10.4370 H   0  0  0  0  0  0  0  0  0  0  0  0
    2.9851    1.5377   11.1640 C   0  0  0  0  0  0  0  0  0  0  0  0
    3.9342    2.3119   11.8329 C   0  0  0  0  0  0  0  0  0  0  0  0
    3.7070    2.6766   12.8291 H   0  0  0  0  0  0  0  0  0  0  0  0
    5.1560    2.5749   11.2444 C   0  0  0  0  0  0  0  0  0  0  0  0
    5.8913    3.1626   11.7728 H   0  0  0  0  0  0  0  0  0  0  0  0
    5.4402    2.0818    9.9805 C   0  0  0  0  0  0  0  0  0  0  0  0
    6.3963    2.2859    9.5224 H   0  0  0  0  0  0  0  0  0  0  0  0
    4.4955    1.3282    9.3035 C   0  0  0  0  0  0  0  0  0  0  0  0
    4.7108    0.9542    8.3125 H   0  0  0  0  0  0  0  0  0  0  0  0
    3.2728    1.0547    9.8894 C   0  0  0  0  0  0  0  0  0  0  0  0
    2.5291    0.4747    9.3596 H   0  0  0  0  0  0  0  0  0  0  0  0
  4  5  1  0  0  0  0
  5  3  2  0  0  0  0
  6  7  1  0  0  0  0
  6  9  1  0  0  0  0
  8  6  1  0  0  0  0
  9  5  1  0  0  0  0
 10 23  2  0  0  0  0
 11 12  1  6  0  0  0
 11  6  1  0  0  0  0
 11 13  1  0  0  0  0
 11  4  1  0  0  0  0
 13 19  1  0  0  0  0
 14 13  1  0  0  0  0
 15 18  1  0  0  0  0
 15 17  1  0  0  0  0
 15 13  1  0  0  0  0
 16 15  1  0  0  0  0
 19 20  1  0  0  0  0
 19 21  1  0  0  0  0
 19 22  1  0  0  0  0
 23  4  1  0  0  0  0
 24 23  1  6  0  0  0
 24 32  1  0  0  0  0
 25 37  1  6  0  0  0
 25 24  1  0  0  0  0
 25 26  1  0  0  0  0
 25  1  1  0  0  0  0
 26 27  1  6  0  0  0
 26 28  1  0  0  0  0
 28 30  1  0  0  0  0
 28  1  1  0  0  0  0
 28 29  1  1  0  0  0
 30 31  1  0  0  0  0
 32 33  1  6  0  0  0
 32 30  1  0  0  0  0
 34 35  1  0  0  0  0
 34 26  1  0  0  0  0
 34 32  1  0  0  0  0
 36 34  1  0  0  0  0
 37 38  1  0  0  0  0
 38 39  1  0  0  0  0
 40 41  1  0  0  0  0
 40 38  2  0  0  0  0
 42 40  1  0  0  0  0
 43 42  1  0  0  0  0
 44 46  1  0  0  0  0
 44 42  2  0  0  0  0
 45 44  1  0  0  0  0
 46 37  2  0  0  0  0
 47 46  1  0  0  0  0
M  END
$$$$
