CSD_code = LOMWOB | q = 0 | S = 0 | Stoichiometry = C32H22Cl2Zr | MND = 12
 OpenBabel04212202063D

 57 63  0  0  1  0  0  0  0  0999 V2000
    2.2579    9.2336    8.2762 Zr  0  0  0  0  0  0  0  0  0  0  0  0
    2.4323   10.7814    9.9883 Cl  0  0  0  0  0  0  0  0  0  0  0  0
    2.1458   10.7880    6.5649 Cl  0  0  0  0  0  0  0  0  0  0  0  0
    2.1729    4.8207    8.2575 C   0  0  0  0  0  0  0  0  0  0  0  0
    2.1969    6.1597    8.2657 C   0  0  0  0  0  0  0  0  0  0  0  0
    3.3753    7.0696    8.1562 C   0  0  2  0  0  3  0  0  0  0  0  0
    3.9127    7.7884    9.2603 C   0  0  1  0  0  0  0  0  0  0  0  0
    3.8699    7.4884   10.3034 H   0  0  0  0  0  0  0  0  0  0  0  0
    4.6965    8.8641    8.7359 C   0  0  0  0  0  0  0  0  0  0  0  0
    5.4653    9.8722    9.3510 C   0  0  0  0  0  0  0  0  0  0  0  0
    5.5735    9.8928   10.4276 H   0  0  0  0  0  0  0  0  0  0  0  0
    6.0601   10.8219    8.5585 C   0  0  0  0  0  0  0  0  0  0  0  0
    6.6409   11.6104    9.0131 H   0  0  0  0  0  0  0  0  0  0  0  0
    5.9402   10.7920    7.1567 C   0  0  0  0  0  0  0  0  0  0  0  0
    6.4325   11.5581    6.5768 H   0  0  0  0  0  0  0  0  0  0  0  0
    5.2216    9.8127    6.5182 C   0  0  0  0  0  0  0  0  0  0  0  0
    5.1437    9.7883    5.4395 H   0  0  0  0  0  0  0  0  0  0  0  0
    4.5718    8.8347    7.2959 C   0  0  0  0  0  0  0  0  0  0  0  0
    3.7162    7.7419    6.9568 C   0  0  0  0  0  3  0  0  0  0  0  0
    3.4976    7.3953    5.9525 H   0  0  0  0  0  0  0  0  0  0  0  0
    1.0554    7.1144    8.3848 C   0  0  1  0  0  3  0  0  0  0  0  0
    0.7451    7.7916    9.5897 C   0  0  0  0  0  3  0  0  0  0  0  0
    0.9513    7.4290   10.5910 H   0  0  0  0  0  0  0  0  0  0  0  0
   -0.0671    8.9200    9.2608 C   0  0  0  0  0  0  0  0  0  0  0  0
   -0.6760    9.9170   10.0474 C   0  0  0  0  0  0  0  0  0  0  0  0
   -0.5956    9.8819   11.1256 H   0  0  0  0  0  0  0  0  0  0  0  0
   -1.3581   10.9278    9.4180 C   0  0  0  0  0  0  0  0  0  0  0  0
   -1.8189   11.7083   10.0046 H   0  0  0  0  0  0  0  0  0  0  0  0
   -1.4810   10.9722    8.0168 C   0  0  0  0  0  0  0  0  0  0  0  0
   -2.0332   11.7853    7.5700 H   0  0  0  0  0  0  0  0  0  0  0  0
   -0.9252   10.0061    7.2158 C   0  0  0  0  0  0  0  0  0  0  0  0
   -1.0362   10.0381    6.1399 H   0  0  0  0  0  0  0  0  0  0  0  0
   -0.1944    8.9644    7.8214 C   0  0  0  0  0  0  0  0  0  0  0  0
    0.5445    7.8619    7.2872 C   0  0  1  0  0  0  0  0  0  0  0  0
    0.5729    7.5679    6.2419 H   0  0  0  0  0  0  0  0  0  0  0  0
    3.4069    4.0206    8.1398 C   0  0  0  0  0  0  0  0  0  0  0  0
    4.5620    4.3415    8.8462 C   0  0  0  0  0  0  0  0  0  0  0  0
    4.5643    5.1879    9.5139 H   0  0  0  0  0  0  0  0  0  0  0  0
    5.6999    3.5655    8.7185 C   0  0  0  0  0  0  0  0  0  0  0  0
    6.5871    3.8220    9.2784 H   0  0  0  0  0  0  0  0  0  0  0  0
    5.7029    2.4621    7.8823 C   0  0  0  0  0  0  0  0  0  0  0  0
    6.5918    1.8565    7.7855 H   0  0  0  0  0  0  0  0  0  0  0  0
    4.5578    2.1349    7.1747 C   0  0  0  0  0  0  0  0  0  0  0  0
    4.5526    1.2751    6.5211 H   0  0  0  0  0  0  0  0  0  0  0  0
    3.4172    2.9041    7.3055 C   0  0  0  0  0  0  0  0  0  0  0  0
    2.5247    2.6475    6.7530 H   0  0  0  0  0  0  0  0  0  0  0  0
    0.9145    4.0587    8.3650 C   0  0  0  0  0  0  0  0  0  0  0  0
   -0.2346    4.4328    7.6750 C   0  0  0  0  0  0  0  0  0  0  0  0
   -0.2150    5.2954    7.0287 H   0  0  0  0  0  0  0  0  0  0  0  0
   -1.3954    3.6898    7.7919 C   0  0  0  0  0  0  0  0  0  0  0  0
   -2.2776    3.9876    7.2445 H   0  0  0  0  0  0  0  0  0  0  0  0
   -1.4278    2.5666    8.6006 C   0  0  0  0  0  0  0  0  0  0  0  0
   -2.3347    1.9868    8.6889 H   0  0  0  0  0  0  0  0  0  0  0  0
   -0.2892    2.1868    9.2921 C   0  0  0  0  0  0  0  0  0  0  0  0
   -0.3068    1.3112    9.9244 H   0  0  0  0  0  0  0  0  0  0  0  0
    0.8742    2.9229    9.1722 C   0  0  0  0  0  0  0  0  0  0  0  0
    1.7612    2.6252    9.7126 H   0  0  0  0  0  0  0  0  0  0  0  0
  1  7  1  0  0  0  0
  1  2  1  0  0  0  0
  3  1  1  0  0  0  0
  4  5  2  0  0  0  0
  4 47  1  0  0  0  0
  6 19  1  6  0  0  0
  6  5  1  0  0  0  0
  6  7  1  0  0  0  0
  7  8  1  1  0  0  0
  9  7  1  0  0  0  0
  9 10  1  0  0  0  0
 10 11  1  0  0  0  0
 12 13  1  0  0  0  0
 12 10  2  0  0  0  0
 14 12  1  0  0  0  0
 15 14  1  0  0  0  0
 16 14  2  0  0  0  0
 16 18  1  0  0  0  0
 17 16  1  0  0  0  0
 18  9  2  0  0  0  0
 19 18  1  0  0  0  0
 20 19  1  0  0  0  0
 21  5  1  6  0  0  0
 21 22  1  0  0  0  0
 22 23  1  0  0  0  0
 24 22  1  0  0  0  0
 24 25  1  0  0  0  0
 25 26  1  0  0  0  0
 27 28  1  0  0  0  0
 27 25  2  0  0  0  0
 29 27  1  0  0  0  0
 30 29  1  0  0  0  0
 31 33  1  0  0  0  0
 31 29  2  0  0  0  0
 32 31  1  0  0  0  0
 33 24  2  0  0  0  0
 34 35  1  6  0  0  0
 34 33  1  0  0  0  0
 34  1  1  0  0  0  0
 34 21  1  0  0  0  0
 36  4  1  0  0  0  0
 36 37  1  0  0  0  0
 37 38  1  0  0  0  0
 39 37  2  0  0  0  0
 39 40  1  0  0  0  0
 41 39  1  0  0  0  0
 42 41  1  0  0  0  0
 43 45  1  0  0  0  0
 43 41  2  0  0  0  0
 44 43  1  0  0  0  0
 45 36  2  0  0  0  0
 46 45  1  0  0  0  0
 47 56  1  0  0  0  0
 48 50  1  0  0  0  0
 48 47  2  0  0  0  0
 49 48  1  0  0  0  0
 50 52  2  0  0  0  0
 51 50  1  0  0  0  0
 52 53  1  0  0  0  0
 52 54  1  0  0  0  0
 54 55  1  0  0  0  0
 56 54  2  0  0  0  0
 56 57  1  0  0  0  0
M  END
$$$$
