CSD_code = LOMWUH | q = 0 | S = 0 | Stoichiometry = C26H26Cl2Ti | MND = 12
 OpenBabel04212202063D

 55 59  0  0  0  0  0  0  0  0999 V2000
    5.7289    4.7135    2.2460 Ti  0  0  0  0  0  0  0  0  0  0  0  0
    6.5392    3.1233    3.5183 Cl  0  0  0  0  0  0  0  0  0  0  0  0
    4.8567    3.2996    0.8165 Cl  0  0  0  0  0  0  0  0  0  0  0  0
    5.8901    8.9281    2.5611 C   0  0  0  0  0  0  0  0  0  0  0  0
    5.8144    7.6078    2.4369 C   0  0  0  0  0  0  0  0  0  0  0  0
    6.7488    6.6756    1.7540 C   0  0  0  0  0  0  0  0  0  0  0  0
    6.4599    6.0532    0.5145 C   0  0  0  0  0  3  0  0  0  0  0  0
    5.8205    6.4584   -0.2613 H   0  0  0  0  0  0  0  0  0  0  0  0
    7.3739    4.9666    0.3466 C   0  0  0  0  0  0  0  0  0  0  0  0
    7.6023    4.0767   -0.7141 C   0  0  0  0  0  0  0  0  0  0  0  0
    7.0334    4.1632   -1.6294 H   0  0  0  0  0  0  0  0  0  0  0  0
    8.5541    3.0986   -0.5576 C   0  0  0  0  0  0  0  0  0  0  0  0
    8.7401    2.3995   -1.3595 H   0  0  0  0  0  0  0  0  0  0  0  0
    9.3027    2.9872    0.6260 C   0  0  0  0  0  0  0  0  0  0  0  0
   10.0438    2.2054    0.7019 H   0  0  0  0  0  0  0  0  0  0  0  0
    9.1161    3.8525    1.6764 C   0  0  0  0  0  0  0  0  0  0  0  0
    9.7009    3.7679    2.5819 H   0  0  0  0  0  0  0  0  0  0  0  0
    8.1402    4.8541    1.5558 C   0  0  0  0  0  0  0  0  0  0  0  0
    7.6913    5.8771    2.4492 C   0  0  0  0  0  3  0  0  0  0  0  0
    8.1508    6.1237    3.3997 H   0  0  0  0  0  0  0  0  0  0  0  0
    4.8106    6.6534    2.9752 C   0  0  0  0  0  0  0  0  0  0  0  0
    5.0471    5.8680    4.1296 C   0  0  0  0  0  3  0  0  0  0  0  0
    5.6974    6.1397    4.9533 H   0  0  0  0  0  0  0  0  0  0  0  0
    4.0779    4.8170    4.1520 C   0  0  0  0  0  0  0  0  0  0  0  0
    3.7889    3.8141    5.0902 C   0  0  0  0  0  0  0  0  0  0  0  0
    4.3501    3.7533    6.0122 H   0  0  0  0  0  0  0  0  0  0  0  0
    2.7877    2.9176    4.8060 C   0  0  0  0  0  0  0  0  0  0  0  0
    2.5544    2.1346    5.5122 H   0  0  0  0  0  0  0  0  0  0  0  0
    2.0479    2.9980    3.6143 C   0  0  0  0  0  0  0  0  0  0  0  0
    1.2650    2.2756    3.4373 H   0  0  0  0  0  0  0  0  0  0  0  0
    2.2956    3.9758    2.6819 C   0  0  0  0  0  0  0  0  0  0  0  0
    1.7185    4.0389    1.7697 H   0  0  0  0  0  0  0  0  0  0  0  0
    3.3240    4.8975    2.9326 C   0  0  0  0  0  0  0  0  0  0  0  0
    3.8412    5.9955    2.1754 C   0  0  0  0  0  3  0  0  0  0  0  0
    3.4064    6.3801    1.2606 H   0  0  0  0  0  0  0  0  0  0  0  0
    7.0556    9.6838    1.9887 C   0  0  0  0  0  0  0  0  0  0  0  0
    6.7315   10.6654    1.6393 H   0  0  0  0  0  0  0  0  0  0  0  0
    7.4690    9.1326    1.1410 H   0  0  0  0  0  0  0  0  0  0  0  0
    8.1573    9.8667    3.0397 C   0  0  0  0  0  0  0  0  0  0  0  0
    7.7575   10.4141    3.8959 H   0  0  0  0  0  0  0  0  0  0  0  0
    8.4768    8.8838    3.3918 H   0  0  0  0  0  0  0  0  0  0  0  0
    9.3534   10.6178    2.4703 C   0  0  0  0  0  0  0  0  0  0  0  0
   10.1232   10.7388    3.2287 H   0  0  0  0  0  0  0  0  0  0  0  0
    9.0562   11.6050    2.1228 H   0  0  0  0  0  0  0  0  0  0  0  0
    9.7804   10.0731    1.6311 H   0  0  0  0  0  0  0  0  0  0  0  0
    4.8388    9.7065    3.2986 C   0  0  0  0  0  0  0  0  0  0  0  0
    5.3246   10.4229    3.9648 H   0  0  0  0  0  0  0  0  0  0  0  0
    4.2407    9.0211    3.9034 H   0  0  0  0  0  0  0  0  0  0  0  0
    3.9070   10.4709    2.3487 C   0  0  0  0  0  0  0  0  0  0  0  0
    3.2056   11.0548    2.9479 H   0  0  0  0  0  0  0  0  0  0  0  0
    4.4888   11.1709    1.7457 H   0  0  0  0  0  0  0  0  0  0  0  0
    3.1324    9.5343    1.4319 C   0  0  0  0  0  0  0  0  0  0  0  0
    2.4594   10.0993    0.7912 H   0  0  0  0  0  0  0  0  0  0  0  0
    2.5435    8.8327    2.0185 H   0  0  0  0  0  0  0  0  0  0  0  0
    3.8168    8.9708    0.8015 H   0  0  0  0  0  0  0  0  0  0  0  0
  1 21  1  0  0  0  0
  1  2  1  0  0  0  0
  3  1  1  0  0  0  0
  4 46  1  0  0  0  0
  5  4  2  0  0  0  0
  5 21  1  0  0  0  0
  6  1  1  0  0  0  0
  6  5  1  0  0  0  0
  6 19  1  0  0  0  0
  7  6  1  0  0  0  0
  8  7  1  0  0  0  0
  9  7  1  0  0  0  0
  9 18  1  0  0  0  0
 10 12  1  0  0  0  0
 10  9  2  0  0  0  0
 11 10  1  0  0  0  0
 12 14  2  0  0  0  0
 13 12  1  0  0  0  0
 14 15  1  0  0  0  0
 14 16  1  0  0  0  0
 16 17  1  0  0  0  0
 18 16  2  0  0  0  0
 18 19  1  0  0  0  0
 19 20  1  0  0  0  0
 21 22  1  0  0  0  0
 22 24  1  0  0  0  0
 22 23  1  0  0  0  0
 24 25  1  0  0  0  0
 25 26  1  0  0  0  0
 27 25  2  0  0  0  0
 27 28  1  0  0  0  0
 29 27  1  0  0  0  0
 30 29  1  0  0  0  0
 31 33  1  0  0  0  0
 31 29  2  0  0  0  0
 32 31  1  0  0  0  0
 33 24  2  0  0  0  0
 34 33  1  0  0  0  0
 34 21  1  0  0  0  0
 35 34  1  0  0  0  0
 36  4  1  0  0  0  0
 36 39  1  0  0  0  0
 37 36  1  0  0  0  0
 38 36  1  0  0  0  0
 39 41  1  0  0  0  0
 39 40  1  0  0  0  0
 42 39  1  0  0  0  0
 42 43  1  0  0  0  0
 44 42  1  0  0  0  0
 45 42  1  0  0  0  0
 46 48  1  0  0  0  0
 46 47  1  0  0  0  0
 49 50  1  0  0  0  0
 49 46  1  0  0  0  0
 51 49  1  0  0  0  0
 52 54  1  0  0  0  0
 52 49  1  0  0  0  0
 53 52  1  0  0  0  0
 55 52  1  0  0  0  0
M  END
$$$$
