CSD_code = LOMWER | q = 0 | S = 0 | Stoichiometry = C32H20Cl2Zr | MND = 12
 OpenBabel04212202063D

 55 62  0  0  1  0  0  0  0  0999 V2000
    6.8450    2.4136   11.5994 Zr  0  0  0  0  0  0  0  0  0  0  0  0
    7.4808    0.6995   10.1826 Cl  0  0  0  0  0  0  0  0  0  0  0  0
    5.0426    2.4137   15.6174 C   0  0  0  0  0  0  0  0  0  0  0  0
    5.5908    2.4136   14.3949 C   0  0  0  0  0  3  0  0  0  0  0  0
    7.0344    2.4138   14.0288 C   0  0  0  0  0  0  0  0  0  0  0  0
    7.7121    1.2563   13.5627 C   0  0  0  0  0  3  0  0  0  0  0  0
    7.4661    0.2312   13.8199 H   0  0  0  0  0  0  0  0  0  0  0  0
    8.8973    1.6908   12.8911 C   0  0  0  0  0  0  0  0  0  0  0  0
    9.9481    0.9916   12.2653 C   0  0  0  0  0  0  0  0  0  0  0  0
    9.9617   -0.0901   12.2738 H   0  0  0  0  0  0  0  0  0  0  0  0
   10.9399    1.7101   11.6462 C   0  0  0  0  0  0  0  0  0  0  0  0
   11.7469    1.1911   11.1512 H   0  0  0  0  0  0  0  0  0  0  0  0
    4.9043    2.4135   13.0734 C   0  0  0  0  0  0  0  0  0  0  0  0
    4.8019    1.2561   12.2572 C   0  0  0  0  0  3  0  0  0  0  0  0
    4.7733    0.2309   12.6119 H   0  0  0  0  0  0  0  0  0  0  0  0
    4.5158    1.6906   10.9253 C   0  0  0  0  0  0  0  0  0  0  0  0
    4.2851    0.9916    9.7241 C   0  0  0  0  0  0  0  0  0  0  0  0
    4.2696   -0.0901    9.7196 H   0  0  0  0  0  0  0  0  0  0  0  0
    4.0889    1.7101    8.5716 C   0  0  0  0  0  0  0  0  0  0  0  0
    3.9227    1.1912    7.6396 H   0  0  0  0  0  0  0  0  0  0  0  0
    5.7481    2.4137   16.9015 C   0  0  2  0  0  3  0  0  0  0  0  0
    7.1006    2.4137   17.1845 C   0  0  0  0  0  0  0  0  0  0  0  0
    7.8333    2.4136   16.3913 H   0  0  0  0  0  0  0  0  0  0  0  0
    7.4987    2.4137   18.5144 C   0  0  0  0  0  0  0  0  0  0  0  0
    8.5518    2.4136   18.7540 H   0  0  0  0  0  0  0  0  0  0  0  0
    6.5644    2.4137   19.5389 C   0  0  0  0  0  0  0  0  0  0  0  0
    6.9005    2.4137   20.5654 H   0  0  0  0  0  0  0  0  0  0  0  0
    5.2041    2.4137   19.2635 C   0  0  0  0  0  0  0  0  0  0  0  0
    4.4817    2.4137   20.0660 H   0  0  0  0  0  0  0  0  0  0  0  0
    4.7975    2.4137   17.9426 C   0  0  0  0  0  0  0  0  0  0  0  0
    3.4689    2.4137   17.3466 C   0  0  0  0  0  0  0  0  0  0  0  0
    2.2120    2.4138   17.9214 C   0  0  0  0  0  0  0  0  0  0  0  0
    2.0931    2.4138   18.9946 H   0  0  0  0  0  0  0  0  0  0  0  0
    1.1018    2.4138   17.0885 C   0  0  0  0  0  0  0  0  0  0  0  0
    0.1116    2.4138   17.5202 H   0  0  0  0  0  0  0  0  0  0  0  0
    1.2456    2.4138   15.7095 C   0  0  0  0  0  0  0  0  0  0  0  0
    0.3664    2.4138   15.0823 H   0  0  0  0  0  0  0  0  0  0  0  0
    2.5036    2.4137   15.1224 C   0  0  0  0  0  0  0  0  0  0  0  0
    2.6087    2.4137   14.0478 H   0  0  0  0  0  0  0  0  0  0  0  0
    3.6143    2.4137   15.9444 C   0  0  0  0  0  0  0  0  0  0  0  0
    7.7121    3.5712   13.5627 C   0  0  0  0  0  3  0  0  0  0  0  0
    7.4661    4.5964   13.8199 H   0  0  0  0  0  0  0  0  0  0  0  0
    8.8973    3.1367   12.8910 C   0  0  0  0  0  0  0  0  0  0  0  0
    9.9482    3.8358   12.2653 C   0  0  0  0  0  0  0  0  0  0  0  0
    9.9619    4.9175   12.2740 H   0  0  0  0  0  0  0  0  0  0  0  0
   10.9399    3.1173   11.6462 C   0  0  0  0  0  0  0  0  0  0  0  0
   11.7470    3.6362   11.1513 H   0  0  0  0  0  0  0  0  0  0  0  0
    4.8019    3.5710   12.2572 C   0  0  0  0  0  3  0  0  0  0  0  0
    4.7733    4.5961   12.6120 H   0  0  0  0  0  0  0  0  0  0  0  0
    4.5158    3.1365   10.9254 C   0  0  0  0  0  0  0  0  0  0  0  0
    4.2851    3.8358    9.7243 C   0  0  0  0  0  0  0  0  0  0  0  0
    4.2695    4.9175    9.7199 H   0  0  0  0  0  0  0  0  0  0  0  0
    4.0889    3.1173    8.5717 C   0  0  0  0  0  0  0  0  0  0  0  0
    3.9227    3.6363    7.6397 H   0  0  0  0  0  0  0  0  0  0  0  0
    7.4809    4.1275   10.1822 Cl  0  0  0  0  0  0  0  0  0  0  0  0
  1 13  1  0  0  0  0
  1  5  1  0  0  0  0
  2  1  1  0  0  0  0
  3 40  2  0  0  0  0
  4  3  1  0  0  0  0
  5  4  1  0  0  0  0
  6  7  1  0  0  0  0
  6  5  1  0  0  0  0
  8  6  1  0  0  0  0
  9 10  1  0  0  0  0
  9  8  2  0  0  0  0
 11 46  2  0  0  0  0
 11  9  1  0  0  0  0
 12 11  1  0  0  0  0
 13  4  1  0  0  0  0
 14 15  1  0  0  0  0
 14 13  1  0  0  0  0
 16 50  1  0  0  0  0
 16 14  1  0  0  0  0
 17 16  2  0  0  0  0
 18 17  1  0  0  0  0
 19 53  2  0  0  0  0
 19 17  1  0  0  0  0
 20 19  1  0  0  0  0
 21  3  1  6  0  0  0
 21 22  1  0  0  0  0
 21 30  1  0  0  0  0
 22 24  2  0  0  0  0
 23 22  1  0  0  0  0
 24 25  1  0  0  0  0
 24 26  1  0  0  0  0
 26 27  1  0  0  0  0
 28 26  2  0  0  0  0
 28 29  1  0  0  0  0
 30 28  1  0  0  0  0
 31 32  1  0  0  0  0
 31 30  2  0  0  0  0
 32 33  1  0  0  0  0
 34 35  1  0  0  0  0
 34 32  2  0  0  0  0
 36 34  1  0  0  0  0
 37 36  1  0  0  0  0
 38 36  2  0  0  0  0
 38 40  1  0  0  0  0
 39 38  1  0  0  0  0
 40 31  1  0  0  0  0
 41 42  1  0  0  0  0
 41  5  1  0  0  0  0
 43  8  1  0  0  0  0
 43 41  1  0  0  0  0
 44 45  1  0  0  0  0
 44 43  2  0  0  0  0
 46 44  1  0  0  0  0
 47 46  1  0  0  0  0
 48 49  1  0  0  0  0
 48 13  1  0  0  0  0
 50 48  1  0  0  0  0
 51 50  2  0  0  0  0
 52 51  1  0  0  0  0
 53 51  1  0  0  0  0
 54 53  1  0  0  0  0
 55  1  1  0  0  0  0
M  END
$$$$
