CSD_code = LOMYUJ | q = 0 | S = 0 | Stoichiometry = C17H23Cl3N3O2Sc | MND = 6
 OpenBabel04212202063D

 49 53  0  0  1  0  0  0  0  0999 V2000
    1.8538    7.3436   15.5346 Sc  0  0  0  0  0  0  0  0  0  0  0  0
    0.3016    7.3166   17.2063 Cl  0  0  0  0  0  0  0  0  0  0  0  0
    0.9946    5.7055   14.0652 Cl  0  0  0  0  0  0  0  0  0  0  0  0
    3.3562    8.9918   16.3117 Cl  0  0  0  0  0  0  0  0  0  0  0  0
    3.4260    7.3697   13.8340 N   0  0  0  0  0  0  0  0  0  0  0  0
    5.5132    4.9136   15.3545 O   0  0  0  0  0  0  0  0  0  0  0  0
    4.4881    6.5722   13.8975 C   0  0  0  0  0  0  0  0  0  0  0  0
    2.0303    8.9674   12.8700 C   0  0  1  0  0  3  0  0  0  0  0  0
    4.5195    5.7648   15.1214 C   0  0  0  0  0  0  0  0  0  0  0  0
    1.7050    9.8271   11.9101 O   0  0  0  0  0  0  0  0  0  0  0  0
    3.9373    4.9739   17.1123 C   0  0  1  0  0  0  0  0  0  0  0  0
    4.1205    5.5965   17.9995 H   0  0  0  0  0  0  0  0  0  0  0  0
    3.6052    5.8695   16.0138 N   0  0  0  0  0  0  0  0  0  0  0  0
    1.2166    8.8375   13.8521 N   0  0  2  0  0  0  0  0  0  0  0  0
    3.2632    8.1773   12.7902 C   0  0  0  0  0  0  0  0  0  0  0  0
    0.0827    9.7211   13.6232 C   0  0  2  0  0  0  0  0  0  0  0  0
   -0.8088    9.0886   13.5076 H   0  0  0  0  0  0  0  0  0  0  0  0
    2.7511    4.0393   17.4267 C   0  0  0  0  0  0  0  0  0  0  0  0
    1.8922    4.7026   17.6153 H   0  0  0  0  0  0  0  0  0  0  0  0
    5.4549    6.5471   12.8958 C   0  0  0  0  0  0  0  0  0  0  0  0
    6.3035    5.8871   12.9781 H   0  0  0  0  0  0  0  0  0  0  0  0
    5.2455    4.3017   16.6230 C   0  0  0  0  0  0  0  0  0  0  0  0
    6.0948    4.4949   17.2812 H   0  0  0  0  0  0  0  0  0  0  0  0
    5.1436    3.2256   16.4653 H   0  0  0  0  0  0  0  0  0  0  0  0
    0.4525   10.4140   12.2868 C   0  0  0  0  0  0  0  0  0  0  0  0
   -0.2695   10.2169   11.4920 H   0  0  0  0  0  0  0  0  0  0  0  0
    0.5997   11.4917   12.3869 H   0  0  0  0  0  0  0  0  0  0  0  0
    2.3926    3.1290   16.2541 C   0  0  0  0  0  0  0  0  0  0  0  0
    3.1949    2.4307   16.0222 H   0  0  0  0  0  0  0  0  0  0  0  0
    2.1592    3.7153   15.3663 H   0  0  0  0  0  0  0  0  0  0  0  0
    1.5092    2.5492   16.5079 H   0  0  0  0  0  0  0  0  0  0  0  0
   -0.1428   10.6389   14.8425 C   0  0  0  0  0  0  0  0  0  0  0  0
   -0.2515    9.9643   15.7063 H   0  0  0  0  0  0  0  0  0  0  0  0
    4.1787    8.2245   11.7420 C   0  0  0  0  0  0  0  0  0  0  0  0
    4.0166    8.8920   10.9109 H   0  0  0  0  0  0  0  0  0  0  0  0
    5.2869    7.3916   11.8072 C   0  0  0  0  0  0  0  0  0  0  0  0
    6.0171    7.4001   11.0119 H   0  0  0  0  0  0  0  0  0  0  0  0
   -1.4345   11.4327   14.6662 C   0  0  0  0  0  0  0  0  0  0  0  0
   -1.3671   12.1000   13.8089 H   0  0  0  0  0  0  0  0  0  0  0  0
   -1.6213   12.0330   15.5523 H   0  0  0  0  0  0  0  0  0  0  0  0
   -2.2820   10.7671   14.5212 H   0  0  0  0  0  0  0  0  0  0  0  0
    3.0424    3.2327   18.6894 C   0  0  0  0  0  0  0  0  0  0  0  0
    3.8987    2.5769   18.5427 H   0  0  0  0  0  0  0  0  0  0  0  0
    2.1817    2.6194   18.9411 H   0  0  0  0  0  0  0  0  0  0  0  0
    3.2496    3.8900   19.5302 H   0  0  0  0  0  0  0  0  0  0  0  0
    1.0447   11.5603   15.1125 C   0  0  0  0  0  0  0  0  0  0  0  0
    1.2001   12.2705   14.3022 H   0  0  0  0  0  0  0  0  0  0  0  0
    1.9558   10.9828   15.2635 H   0  0  0  0  0  0  0  0  0  0  0  0
    0.8592   12.1267   16.0212 H   0  0  0  0  0  0  0  0  0  0  0  0
  1 13  1  0  0  0  0
  1  4  1  0  0  0  0
  1  2  1  0  0  0  0
  3  1  1  0  0  0  0
  5  7  1  0  0  0  0
  5  1  1  0  0  0  0
  6 22  1  0  0  0  0
  7  9  2  0  0  0  0
  8 10  1  6  0  0  0
  8 14  1  0  0  0  0
  9  6  1  0  0  0  0
  9 13  1  0  0  0  0
 10 25  1  0  0  0  0
 11 18  1  0  0  0  0
 11 12  1  1  0  0  0
 13 11  1  0  0  0  0
 14  1  1  0  0  0  0
 15  8  1  0  0  0  0
 15  5  1  0  0  0  0
 16 14  1  0  0  0  0
 16 32  1  0  0  0  0
 17 16  1  0  0  0  0
 18 19  1  0  0  0  0
 18 42  1  0  0  0  0
 20 21  1  0  0  0  0
 20  7  1  0  0  0  0
 22 11  1  0  0  0  0
 22 23  1  0  0  0  0
 24 22  1  0  0  0  0
 25 27  1  0  0  0  0
 25 16  1  0  0  0  0
 26 25  1  0  0  0  0
 28 31  1  0  0  0  0
 28 18  1  0  0  0  0
 29 28  1  0  0  0  0
 30 28  1  0  0  0  0
 32 46  1  0  0  0  0
 32 33  1  0  0  0  0
 34 36  1  0  0  0  0
 34 15  2  0  0  0  0
 35 34  1  0  0  0  0
 36 20  2  0  0  0  0
 37 36  1  0  0  0  0
 38 32  1  0  0  0  0
 38 40  1  0  0  0  0
 39 38  1  0  0  0  0
 41 38  1  0  0  0  0
 42 44  1  0  0  0  0
 42 45  1  0  0  0  0
 43 42  1  0  0  0  0
 46 48  1  0  0  0  0
 46 49  1  0  0  0  0
 47 46  1  0  0  0  0
M  END
$$$$
