CSD_code = LONMAF | q = 0 | S = 0 | Stoichiometry = C28H36ClPPdS3 | MND = 4
 OpenBabel04212202063D

 70 73  0  0  0  0  0  0  0  0999 V2000
    8.1387    7.0453    4.1879 Pd  0  0  1  0  0  0  0  0  0  0  0  0
    7.5875    4.8560    4.0167 Cl  0  0  0  0  0  0  0  0  0  0  0  0
    6.3365    7.4417    3.2884 C   0  0  0  0  0  0  0  0  0  0  0  0
    5.5110    7.0408    3.8829 H   0  0  0  0  0  0  0  0  0  0  0  0
    6.3403    6.9229    2.3255 H   0  0  0  0  0  0  0  0  0  0  0  0
    6.1741    8.5131    3.1211 H   0  0  0  0  0  0  0  0  0  0  0  0
    8.8643    9.1361    4.4179 P   0  0  0  0  0  4  0  0  0  0  0  0
   10.6191    9.2046    3.9128 C   0  0  0  0  0  0  0  0  0  0  0  0
   11.2308   10.3655    3.4519 C   0  0  0  0  0  0  0  0  0  0  0  0
   10.6380   11.2568    3.2991 H   0  0  0  0  0  0  0  0  0  0  0  0
   12.5812   10.3752    3.1578 C   0  0  0  0  0  0  0  0  0  0  0  0
   13.0437   11.2762    2.7833 H   0  0  0  0  0  0  0  0  0  0  0  0
   13.3423    9.2352    3.3611 C   0  0  0  0  0  0  0  0  0  0  0  0
   14.4035    9.2492    3.1623 H   0  0  0  0  0  0  0  0  0  0  0  0
   12.7469    8.0762    3.8253 C   0  0  0  0  0  0  0  0  0  0  0  0
   13.3421    7.1972    4.0135 H   0  0  0  0  0  0  0  0  0  0  0  0
   11.3807    8.0440    4.0637 C   0  0  0  0  0  0  0  0  0  0  0  0
   10.6111    6.5358    4.6316 S   0  0  2  0  0  3  0  0  0  0  0  0
   10.7767    5.3984    3.1797 C   0  0  0  0  0  0  0  0  0  0  0  0
   10.1025    4.5909    3.4883 H   0  0  0  0  0  0  0  0  0  0  0  0
   10.2408    6.0601    1.9230 C   0  0  0  0  0  0  0  0  0  0  0  0
    9.2020    6.3956    2.0907 H   0  0  0  0  0  0  0  0  0  0  0  0
   10.2420    5.3384    1.1071 H   0  0  0  0  0  0  0  0  0  0  0  0
   10.8533    6.9167    1.6378 H   0  0  0  0  0  0  0  0  0  0  0  0
   12.1860    4.8620    3.0110 C   0  0  0  0  0  0  0  0  0  0  0  0
   12.6037    4.5600    3.9689 H   0  0  0  0  0  0  0  0  0  0  0  0
   12.8360    5.6038    2.5514 H   0  0  0  0  0  0  0  0  0  0  0  0
   12.1593    3.9892    2.3607 H   0  0  0  0  0  0  0  0  0  0  0  0
    8.0795   10.5424    3.5893 C   0  0  0  0  0  0  0  0  0  0  0  0
    7.3232   11.4811    4.2829 C   0  0  0  0  0  0  0  0  0  0  0  0
    7.2883   11.4410    5.3624 H   0  0  0  0  0  0  0  0  0  0  0  0
    6.6133   12.4565    3.6072 C   0  0  0  0  0  0  0  0  0  0  0  0
    6.0331   13.1811    4.1579 H   0  0  0  0  0  0  0  0  0  0  0  0
    6.6463   12.4946    2.2228 C   0  0  0  0  0  0  0  0  0  0  0  0
    6.1037   13.2596    1.6877 H   0  0  0  0  0  0  0  0  0  0  0  0
    7.3622   11.5476    1.5134 C   0  0  0  0  0  0  0  0  0  0  0  0
    7.3671   11.5895    0.4357 H   0  0  0  0  0  0  0  0  0  0  0  0
    8.0590   10.5518    2.1847 C   0  0  0  0  0  0  0  0  0  0  0  0
    8.9730    9.2843    1.3789 S   0  0  0  0  0  0  0  0  0  0  0  0
    8.2501    9.1558   -0.3196 C   0  0  0  0  0  0  0  0  0  0  0  0
    8.3217   10.1492   -0.7683 H   0  0  0  0  0  0  0  0  0  0  0  0
    6.8123    8.6793   -0.2522 C   0  0  0  0  0  0  0  0  0  0  0  0
    6.2011    9.3453    0.3532 H   0  0  0  0  0  0  0  0  0  0  0  0
    6.7735    7.6849    0.1861 H   0  0  0  0  0  0  0  0  0  0  0  0
    6.3890    8.6352   -1.2543 H   0  0  0  0  0  0  0  0  0  0  0  0
    9.1342    8.1861   -1.0871 C   0  0  0  0  0  0  0  0  0  0  0  0
   10.1681    8.5238   -1.0846 H   0  0  0  0  0  0  0  0  0  0  0  0
    8.7929    8.1118   -2.1175 H   0  0  0  0  0  0  0  0  0  0  0  0
    9.0903    7.1992   -0.6332 H   0  0  0  0  0  0  0  0  0  0  0  0
    9.1384    9.7434    6.1280 C   0  0  0  0  0  0  0  0  0  0  0  0
    9.6442   11.0264    6.3344 C   0  0  0  0  0  0  0  0  0  0  0  0
    9.8546   11.6569    5.4827 H   0  0  0  0  0  0  0  0  0  0  0  0
    9.8696   11.5031    7.6106 C   0  0  0  0  0  0  0  0  0  0  0  0
   10.2557   12.5020    7.7501 H   0  0  0  0  0  0  0  0  0  0  0  0
    9.6041   10.6989    8.7089 C   0  0  0  0  0  0  0  0  0  0  0  0
    9.7789   11.0688    9.7080 H   0  0  0  0  0  0  0  0  0  0  0  0
    9.1340    9.4138    8.5197 C   0  0  0  0  0  0  0  0  0  0  0  0
    8.9485    8.7649    9.3619 H   0  0  0  0  0  0  0  0  0  0  0  0
    8.9031    8.9323    7.2380 C   0  0  0  0  0  0  0  0  0  0  0  0
    8.3563    7.2441    7.0644 S   0  0  0  0  0  0  0  0  0  0  0  0
    6.5678    7.4203    7.5186 C   0  0  0  0  0  0  0  0  0  0  0  0
    6.5292    7.5692    8.6013 H   0  0  0  0  0  0  0  0  0  0  0  0
    5.9597    8.5967    6.7797 C   0  0  0  0  0  0  0  0  0  0  0  0
    6.3345    9.5441    7.1645 H   0  0  0  0  0  0  0  0  0  0  0  0
    4.8768    8.5849    6.8892 H   0  0  0  0  0  0  0  0  0  0  0  0
    6.2046    8.5214    5.7144 H   0  0  0  0  0  0  0  0  0  0  0  0
    5.9310    6.1031    7.1159 C   0  0  0  0  0  0  0  0  0  0  0  0
    6.3661    5.2777    7.6747 H   0  0  0  0  0  0  0  0  0  0  0  0
    6.1112    5.9255    6.0516 H   0  0  0  0  0  0  0  0  0  0  0  0
    4.8582    6.1248    7.2954 H   0  0  0  0  0  0  0  0  0  0  0  0
  1  2  1  1  0  0  0
  1  7  1  0  0  0  0
  1 18  1  0  0  0  0
  3  4  1  0  0  0  0
  3  1  1  0  0  0  0
  5  3  1  0  0  0  0
  6  3  1  0  0  0  0
  7 50  1  0  0  0  0
  8 17  1  0  0  0  0
  8  7  1  0  0  0  0
  9  8  2  0  0  0  0
 10  9  1  0  0  0  0
 11 13  2  0  0  0  0
 11  9  1  0  0  0  0
 12 11  1  0  0  0  0
 13 15  1  0  0  0  0
 14 13  1  0  0  0  0
 15 16  1  0  0  0  0
 15 17  2  0  0  0  0
 17 18  1  0  0  0  0
 18 19  1  6  0  0  0
 19 20  1  0  0  0  0
 21 22  1  0  0  0  0
 21 19  1  0  0  0  0
 23 21  1  0  0  0  0
 24 21  1  0  0  0  0
 25 19  1  0  0  0  0
 25 26  1  0  0  0  0
 27 25  1  0  0  0  0
 28 25  1  0  0  0  0
 29 30  1  0  0  0  0
 29  7  1  0  0  0  0
 30 31  1  0  0  0  0
 32 33  1  0  0  0  0
 32 30  2  0  0  0  0
 34 32  1  0  0  0  0
 35 34  1  0  0  0  0
 36 38  1  0  0  0  0
 36 34  2  0  0  0  0
 37 36  1  0  0  0  0
 38 29  2  0  0  0  0
 39 38  1  0  0  0  0
 40 42  1  0  0  0  0
 40 39  1  0  0  0  0
 41 40  1  0  0  0  0
 42 44  1  0  0  0  0
 42 43  1  0  0  0  0
 45 42  1  0  0  0  0
 46 47  1  0  0  0  0
 46 49  1  0  0  0  0
 46 40  1  0  0  0  0
 48 46  1  0  0  0  0
 50 51  2  0  0  0  0
 50 59  1  0  0  0  0
 51 53  1  0  0  0  0
 52 51  1  0  0  0  0
 53 54  1  0  0  0  0
 53 55  2  0  0  0  0
 55 56  1  0  0  0  0
 57 55  1  0  0  0  0
 57 58  1  0  0  0  0
 59 57  2  0  0  0  0
 60 59  1  0  0  0  0
 60 61  1  0  0  0  0
 61 62  1  0  0  0  0
 63 65  1  0  0  0  0
 63 64  1  0  0  0  0
 63 61  1  0  0  0  0
 66 63  1  0  0  0  0
 67 70  1  0  0  0  0
 67 61  1  0  0  0  0
 67 68  1  0  0  0  0
 69 67  1  0  0  0  0
M  END
$$$$
