CSD_code = LONSUF | q = 0 | S = 0 | Stoichiometry = C14H14BrN4O3Re | MND = 6
 OpenBabel04212202063D

 37 39  0  0  1  0  0  0  0  0999 V2000
    9.0579    1.3151    3.5596 Re  0  0  0  0  0  0  0  0  0  0  0  0
    7.0307    1.7365    5.1407 Br  0  0  0  0  0  0  0  0  0  0  0  0
   10.4590    1.0408    2.2482 C   0  0  0  0  0  2  0  0  0  0  0  0
   11.2793    0.8989    1.4554 O   0  0  0  0  0  1  0  0  0  0  0  0
    8.8928   -0.5834    4.0270 C   0  0  0  0  0  2  0  0  0  0  0  0
    8.6779   -1.6641    4.3242 O   0  0  0  0  0  1  0  0  0  0  0  0
   10.2984    1.5982    5.0336 C   0  0  0  0  0  2  0  0  0  0  0  0
   10.9683    1.7955    5.9444 O   0  0  0  0  0  1  0  0  0  0  0  0
    9.0735    4.5607    3.3449 N   0  0  0  0  0  0  0  0  0  0  0  0
    8.7025    3.3262    3.0212 C   0  0  2  0  0  3  0  0  0  0  0  0
    7.6379    3.5187    2.1725 N   0  0  0  0  0  0  0  0  0  0  0  0
    7.4473    4.8680    2.0466 C   0  0  0  0  0  0  0  0  0  0  0  0
    6.6886    5.3360    1.4562 H   0  0  0  0  0  0  0  0  0  0  0  0
    8.3180    5.5059    2.7499 N   0  0  0  0  0  0  0  0  0  0  0  0
   10.1650    4.9530    4.1970 C   0  0  0  0  0  0  0  0  0  0  0  0
   10.0652    4.4368    5.1557 H   0  0  0  0  0  0  0  0  0  0  0  0
   10.0630    6.0272    4.3547 H   0  0  0  0  0  0  0  0  0  0  0  0
   11.5188    4.6123    3.5690 C   0  0  0  0  0  0  0  0  0  0  0  0
   11.6085    3.5245    3.5004 H   0  0  0  0  0  0  0  0  0  0  0  0
   12.2971    4.9744    4.2414 H   0  0  0  0  0  0  0  0  0  0  0  0
   11.7177    5.2172    2.1789 C   0  0  0  0  0  0  0  0  0  0  0  0
   12.6961    4.9015    1.8127 H   0  0  0  0  0  0  0  0  0  0  0  0
   10.9719    4.8102    1.4916 H   0  0  0  0  0  0  0  0  0  0  0  0
   11.6424    6.7398    2.1672 C   0  0  0  0  0  0  0  0  0  0  0  0
   10.6340    7.0847    2.3820 H   0  0  0  0  0  0  0  0  0  0  0  0
   11.9253    7.1203    1.1887 H   0  0  0  0  0  0  0  0  0  0  0  0
   12.3216    7.1593    2.9058 H   0  0  0  0  0  0  0  0  0  0  0  0
    7.4371    1.2402    2.0040 N   0  0  0  0  0  0  0  0  0  0  0  0
    6.9395    2.4349    1.6529 C   0  0  1  0  0  3  0  0  0  0  0  0
    5.8133    2.5807    0.8535 C   0  0  0  0  0  0  0  0  0  0  0  0
    5.4418    3.5613    0.6050 H   0  0  0  0  0  0  0  0  0  0  0  0
    5.1770    1.4387    0.4039 C   0  0  0  0  0  0  0  0  0  0  0  0
    4.2935    1.5149   -0.2101 H   0  0  0  0  0  0  0  0  0  0  0  0
    5.6917    0.2002    0.7612 C   0  0  0  0  0  0  0  0  0  0  0  0
    5.2238   -0.7133    0.4336 H   0  0  0  0  0  0  0  0  0  0  0  0
    6.8191    0.1493    1.5584 C   0  0  0  0  0  0  0  0  0  0  0  0
    7.2447   -0.7990    1.8577 H   0  0  0  0  0  0  0  0  0  0  0  0
  1  5  1  0  0  0  0
  1  7  1  0  0  0  0
  1  2  1  0  0  0  0
  3  1  1  0  0  0  0
  4  3  1  0  0  0  0
  5  6  1  0  0  0  0
  7  8  1  0  0  0  0
  9 15  1  0  0  0  0
 10 11  1  1  0  0  0
 10  9  1  0  0  0  0
 10  1  1  0  0  0  0
 12 11  1  0  0  0  0
 12 14  2  0  0  0  0
 13 12  1  0  0  0  0
 14  9  1  0  0  0  0
 15 17  1  0  0  0  0
 15 16  1  0  0  0  0
 18 15  1  0  0  0  0
 18 20  1  0  0  0  0
 19 18  1  0  0  0  0
 21 18  1  0  0  0  0
 22 21  1  0  0  0  0
 23 21  1  0  0  0  0
 24 21  1  0  0  0  0
 24 25  1  0  0  0  0
 24 27  1  0  0  0  0
 26 24  1  0  0  0  0
 28  1  1  0  0  0  0
 29 30  1  1  0  0  0
 29 28  1  0  0  0  0
 29 11  1  0  0  0  0
 31 30  1  0  0  0  0
 32 34  1  0  0  0  0
 32 30  2  0  0  0  0
 33 32  1  0  0  0  0
 34 36  2  0  0  0  0
 35 34  1  0  0  0  0
 36 37  1  0  0  0  0
 36 28  1  0  0  0  0
M  END
$$$$
