CSD_code = LONXAQ | q = 0 | S = 0 | Stoichiometry = C14H14ClN4O3Re | MND = 6
 OpenBabel04212202063D

 37 39  0  0  1  0  0  0  0  0999 V2000
   11.8244    5.2413    5.2662 Re  0  0  0  0  0  0  0  0  0  0  0  0
   10.3701    3.3439    5.5146 Cl  0  0  0  0  0  0  0  0  0  0  0  0
   12.8385    6.8915    5.1572 C   0  0  0  0  0  2  0  0  0  0  0  0
   13.4247    7.8832    5.1299 O   0  0  0  0  0  1  0  0  0  0  0  0
   11.5898    4.9978    3.3355 C   0  0  0  0  0  2  0  0  0  0  0  0
   11.3226    4.7632    2.2527 O   0  0  0  0  0  1  0  0  0  0  0  0
   13.4033    4.1091    5.2502 C   0  0  0  0  0  2  0  0  0  0  0  0
   14.2859    3.3748    5.2736 O   0  0  0  0  0  1  0  0  0  0  0  0
   11.9831    4.8130    8.5118 N   0  0  0  0  0  0  0  0  0  0  0  0
   11.4791    5.2685    7.3456 C   0  0  2  0  0  3  0  0  0  0  0  0
   10.2434    5.6944    7.6862 N   0  0  0  0  0  0  0  0  0  0  0  0
    9.9634    5.5275    8.9932 N   0  0  0  0  0  0  0  0  0  0  0  0
   11.0350    4.9900    9.4741 C   0  0  0  0  0  0  0  0  0  0  0  0
   11.1602    4.7162   10.5017 H   0  0  0  0  0  0  0  0  0  0  0  0
   13.3041    4.2650    8.7031 C   0  0  0  0  0  0  0  0  0  0  0  0
   13.4274    3.4171    8.0237 H   0  0  0  0  0  0  0  0  0  0  0  0
   13.3722    3.9102    9.7346 H   0  0  0  0  0  0  0  0  0  0  0  0
   14.3840    5.3102    8.4178 C   0  0  0  0  0  0  0  0  0  0  0  0
   14.2764    5.6512    7.3846 H   0  0  0  0  0  0  0  0  0  0  0  0
   15.3570    4.8274    8.5131 H   0  0  0  0  0  0  0  0  0  0  0  0
   14.3105    6.5092    9.3604 C   0  0  0  0  0  0  0  0  0  0  0  0
   14.4662    6.1785   10.3907 H   0  0  0  0  0  0  0  0  0  0  0  0
   13.3183    6.9642    9.3013 H   0  0  0  0  0  0  0  0  0  0  0  0
   15.3550    7.5556    8.9948 C   0  0  0  0  0  0  0  0  0  0  0  0
   16.3548    7.1329    9.0553 H   0  0  0  0  0  0  0  0  0  0  0  0
   15.2985    8.4052    9.6706 H   0  0  0  0  0  0  0  0  0  0  0  0
   15.1929    7.9092    7.9796 H   0  0  0  0  0  0  0  0  0  0  0  0
    9.8469    6.2822    5.5090 N   0  0  0  0  0  0  0  0  0  0  0  0
    9.3542    6.1928    6.7491 C   0  0  1  0  0  3  0  0  0  0  0  0
    8.0566    6.5498    7.0917 C   0  0  0  0  0  0  0  0  0  0  0  0
    7.7337    6.4395    8.1139 H   0  0  0  0  0  0  0  0  0  0  0  0
    7.2297    7.0168    6.0882 C   0  0  0  0  0  0  0  0  0  0  0  0
    6.2100    7.2943    6.3055 H   0  0  0  0  0  0  0  0  0  0  0  0
    7.7338    7.1167    4.7976 C   0  0  0  0  0  0  0  0  0  0  0  0
    7.1198    7.4743    3.9873 H   0  0  0  0  0  0  0  0  0  0  0  0
    9.0425    6.7408    4.5553 C   0  0  0  0  0  0  0  0  0  0  0  0
    9.4661    6.8065    3.5622 H   0  0  0  0  0  0  0  0  0  0  0  0
  1 28  1  0  0  0  0
  1  2  1  0  0  0  0
  1 10  1  0  0  0  0
  3  1  1  0  0  0  0
  4  3  1  0  0  0  0
  5  1  1  0  0  0  0
  6  5  1  0  0  0  0
  7  1  1  0  0  0  0
  7  8  1  0  0  0  0
  9 15  1  0  0  0  0
  9 13  1  0  0  0  0
 10 11  1  6  0  0  0
 10  9  1  0  0  0  0
 11 12  1  0  0  0  0
 12 13  2  0  0  0  0
 13 14  1  0  0  0  0
 15 17  1  0  0  0  0
 16 15  1  0  0  0  0
 18 20  1  0  0  0  0
 18 15  1  0  0  0  0
 18 21  1  0  0  0  0
 19 18  1  0  0  0  0
 21 22  1  0  0  0  0
 23 21  1  0  0  0  0
 24 25  1  0  0  0  0
 24 21  1  0  0  0  0
 24 26  1  0  0  0  0
 27 24  1  0  0  0  0
 28 29  1  0  0  0  0
 29 30  1  6  0  0  0
 29 11  1  0  0  0  0
 30 31  1  0  0  0  0
 32 33  1  0  0  0  0
 32 30  2  0  0  0  0
 34 32  1  0  0  0  0
 35 34  1  0  0  0  0
 36 34  2  0  0  0  0
 36 28  1  0  0  0  0
 37 36  1  0  0  0  0
M  END
$$$$
