CSD_code = LONZOE | q = 0 | S = 0 | Stoichiometry = C16H28Cl2N2O5PRe | MND = 6
 OpenBabel04212202063D

 55 57  0  0  0  0  0  0  0  0999 V2000
    1.5816    4.2079    4.1078 Re  0  0  0  0  0  0  0  0  0  0  0  0
    3.6507    4.5309    5.0692 Cl  0  0  0  0  0  0  0  0  0  0  0  0
    0.6596    3.3852    6.0848 Cl  0  0  0  0  0  0  0  0  0  0  0  0
    2.7233    4.6045    1.9973 P   0  0  0  0  0  4  0  0  0  0  0  0
    1.0929    5.7753    4.3401 O   0  0  0  0  0  1  0  0  0  0  0  0
    1.9749    2.5276    3.6062 O   0  0  0  0  0  0  0  0  0  0  0  0
    3.1383    3.2891    1.2069 O   0  0  0  0  0  0  0  0  0  0  0  0
    4.1267    5.3507    1.9168 O   0  0  0  0  0  0  0  0  0  0  0  0
    1.9547    5.5661    0.9432 O   0  0  0  0  0  0  0  0  0  0  0  0
   -0.5418    3.8480    3.3028 N   0  0  0  0  0  0  0  0  0  0  0  0
   -2.4769    2.5258    3.4396 N   0  0  0  0  0  0  0  0  0  0  0  0
    2.6499    1.5668    2.8837 C   0  0  0  0  0  0  0  0  0  0  0  0
    2.5912    1.9688    1.3655 C   0  0  0  0  0  0  0  0  0  0  0  0
    1.9991    0.1978    3.1444 C   0  0  0  0  0  0  0  0  0  0  0  0
    2.0526   -0.0016    4.2128 H   0  0  0  0  0  0  0  0  0  0  0  0
    2.5203   -0.5930    2.6143 H   0  0  0  0  0  0  0  0  0  0  0  0
    0.9518    0.2010    2.8535 H   0  0  0  0  0  0  0  0  0  0  0  0
    4.1070    1.5464    3.3807 C   0  0  0  0  0  0  0  0  0  0  0  0
    4.0975    1.5373    4.4690 H   0  0  0  0  0  0  0  0  0  0  0  0
    4.6268    2.4483    3.0619 H   0  0  0  0  0  0  0  0  0  0  0  0
    4.6295    0.6649    3.0219 H   0  0  0  0  0  0  0  0  0  0  0  0
    3.4663    1.0838    0.4798 C   0  0  0  0  0  0  0  0  0  0  0  0
    3.3589    1.4048   -0.5535 H   0  0  0  0  0  0  0  0  0  0  0  0
    3.1654    0.0439    0.5567 H   0  0  0  0  0  0  0  0  0  0  0  0
    4.5100    1.1825    0.7597 H   0  0  0  0  0  0  0  0  0  0  0  0
    1.1579    1.9874    0.8356 C   0  0  0  0  0  0  0  0  0  0  0  0
    1.1497    2.4795   -0.1349 H   0  0  0  0  0  0  0  0  0  0  0  0
    0.5175    2.5514    1.5105 H   0  0  0  0  0  0  0  0  0  0  0  0
    0.7707    0.9790    0.7218 H   0  0  0  0  0  0  0  0  0  0  0  0
    3.9205    6.7240    1.5518 C   0  0  0  0  0  0  0  0  0  0  0  0
    2.8028    6.6280    0.4672 C   0  0  0  0  0  0  0  0  0  0  0  0
    3.4704    7.4880    2.7935 C   0  0  0  0  0  0  0  0  0  0  0  0
    4.1878    7.2982    3.5888 H   0  0  0  0  0  0  0  0  0  0  0  0
    2.5026    7.1256    3.1427 H   0  0  0  0  0  0  0  0  0  0  0  0
    3.4224    8.5558    2.6021 H   0  0  0  0  0  0  0  0  0  0  0  0
    5.2480    7.2733    1.0473 C   0  0  0  0  0  0  0  0  0  0  0  0
    5.9384    7.3449    1.8828 H   0  0  0  0  0  0  0  0  0  0  0  0
    5.1041    8.2623    0.6213 H   0  0  0  0  0  0  0  0  0  0  0  0
    5.6839    6.6157    0.3026 H   0  0  0  0  0  0  0  0  0  0  0  0
    1.9600    7.8886    0.3329 C   0  0  0  0  0  0  0  0  0  0  0  0
    1.2409    7.7581   -0.4717 H   0  0  0  0  0  0  0  0  0  0  0  0
    2.5965    8.7380    0.1019 H   0  0  0  0  0  0  0  0  0  0  0  0
    1.4167    8.0836    1.2515 H   0  0  0  0  0  0  0  0  0  0  0  0
    3.3540    6.1981   -0.8899 C   0  0  0  0  0  0  0  0  0  0  0  0
    2.5215    5.9343   -1.5381 H   0  0  0  0  0  0  0  0  0  0  0  0
    3.9850    5.3208   -0.7688 H   0  0  0  0  0  0  0  0  0  0  0  0
    3.9193    7.0018   -1.3522 H   0  0  0  0  0  0  0  0  0  0  0  0
   -1.1925    2.7318    3.6225 C   0  0  0  0  0  3  0  0  0  0  0  0
   -0.6189    1.9334    4.0741 H   0  0  0  0  0  0  0  0  0  0  0  0
   -3.1892    3.5154    2.9241 C   0  0  0  0  0  0  0  0  0  0  0  0
   -4.2465    3.3243    2.7992 H   0  0  0  0  0  0  0  0  0  0  0  0
   -2.6082    4.7248    2.5646 C   0  0  0  0  0  0  0  0  0  0  0  0
   -3.1834    5.5339    2.1466 H   0  0  0  0  0  0  0  0  0  0  0  0
   -1.2448    4.8447    2.7759 C   0  0  0  0  0  0  0  0  0  0  0  0
   -0.6898    5.7403    2.5317 H   0  0  0  0  0  0  0  0  0  0  0  0
  1  5  1  0  0  0  0
  1  2  1  0  0  0  0
  1  3  1  0  0  0  0
  4  1  1  0  0  0  0
  6  1  1  0  0  0  0
  7 13  1  0  0  0  0
  7  4  1  0  0  0  0
  8  4  1  0  0  0  0
  9  4  1  0  0  0  0
 10 48  1  0  0  0  0
 10  1  1  0  0  0  0
 11 48  1  0  0  0  0
 12 14  1  0  0  0  0
 12 18  1  0  0  0  0
 12  6  1  0  0  0  0
 13 12  1  0  0  0  0
 14 15  1  0  0  0  0
 16 14  1  0  0  0  0
 17 14  1  0  0  0  0
 18 19  1  0  0  0  0
 20 18  1  0  0  0  0
 21 18  1  0  0  0  0
 22 24  1  0  0  0  0
 22 25  1  0  0  0  0
 22 13  1  0  0  0  0
 23 22  1  0  0  0  0
 26 13  1  0  0  0  0
 26 28  1  0  0  0  0
 27 26  1  0  0  0  0
 29 26  1  0  0  0  0
 30  8  1  0  0  0  0
 30 32  1  0  0  0  0
 31  9  1  0  0  0  0
 31 30  1  0  0  0  0
 32 34  1  0  0  0  0
 32 33  1  0  0  0  0
 35 32  1  0  0  0  0
 36 30  1  0  0  0  0
 36 37  1  0  0  0  0
 38 36  1  0  0  0  0
 39 36  1  0  0  0  0
 40 31  1  0  0  0  0
 40 43  1  0  0  0  0
 41 40  1  0  0  0  0
 42 40  1  0  0  0  0
 44 46  1  0  0  0  0
 44 31  1  0  0  0  0
 45 44  1  0  0  0  0
 47 44  1  0  0  0  0
 48 49  1  0  0  0  0
 50 11  2  0  0  0  0
 51 50  1  0  0  0  0
 52 54  2  0  0  0  0
 52 50  1  0  0  0  0
 53 52  1  0  0  0  0
 54 10  1  0  0  0  0
 55 54  1  0  0  0  0
M  END
$$$$
