CSD_code = LOPTAM | q = 0 | S = 0 | Stoichiometry = C25H33Cl2FeN3 | MND = 5
 OpenBabel04212202063D

 64 67  0  0  1  0  0  0  0  0999 V2000
    3.1762    0.7463    1.4360 Fe  0  0  0  0  0  0  0  0  0  0  0  0
    3.7157    1.2394    3.4016 Cl  0  0  0  0  0  0  0  0  0  0  0  0
    2.6206   -1.2138    1.1427 Cl  0  0  0  0  0  0  0  0  0  0  0  0
    3.4514    2.3776    0.8396 N   0  0  0  0  0  0  0  0  0  0  0  0
    4.6957    2.7421    0.4141 C   0  0  0  0  0  0  0  0  0  0  0  0
    4.9635    4.0487    0.0214 C   0  0  0  0  0  0  0  0  0  0  0  0
    5.9544    4.3229   -0.3019 H   0  0  0  0  0  0  0  0  0  0  0  0
    3.9425    4.9856    0.0560 C   0  0  0  0  0  0  0  0  0  0  0  0
    4.1295    6.0031   -0.2490 H   0  0  0  0  0  0  0  0  0  0  0  0
    2.6788    4.6128    0.4920 C   0  0  0  0  0  0  0  0  0  0  0  0
    1.8853    5.3415    0.5229 H   0  0  0  0  0  0  0  0  0  0  0  0
    2.4483    3.3011    0.8929 C   0  0  0  0  0  0  0  0  0  0  0  0
    5.5802    1.6161    0.3936 C   0  0  0  0  0  0  0  0  0  0  0  0
    7.0013    1.7390   -0.0581 C   0  0  0  0  0  0  0  0  0  0  0  0
    7.4598    0.7571   -0.1452 H   0  0  0  0  0  0  0  0  0  0  0  0
    7.5616    2.3259    0.6696 H   0  0  0  0  0  0  0  0  0  0  0  0
    7.0551    2.2499   -1.0180 H   0  0  0  0  0  0  0  0  0  0  0  0
    5.0188    0.4971    0.7696 N   0  0  0  0  0  0  0  0  0  0  0  0
    5.6881   -0.7350    0.6029 C   0  0  0  0  0  0  0  0  0  0  0  0
    5.5037   -1.4248   -0.6052 C   0  0  0  0  0  0  0  0  0  0  0  0
    6.1470   -2.6409   -0.7759 C   0  0  0  0  0  0  0  0  0  0  0  0
    6.0283   -3.1798   -1.7031 H   0  0  0  0  0  0  0  0  0  0  0  0
    6.9363   -3.1770    0.2238 C   0  0  0  0  0  0  0  0  0  0  0  0
    7.4254   -4.1283    0.0744 H   0  0  0  0  0  0  0  0  0  0  0  0
    7.0920   -2.4973    1.4154 C   0  0  0  0  0  0  0  0  0  0  0  0
    7.7008   -2.9257    2.1965 H   0  0  0  0  0  0  0  0  0  0  0  0
    6.4800   -1.2693    1.6242 C   0  0  0  0  0  0  0  0  0  0  0  0
    4.6419   -0.8591   -1.7120 C   0  0  0  0  0  0  0  0  0  0  0  0
    4.1007    0.0143   -1.3231 H   0  0  0  0  0  0  0  0  0  0  0  0
    5.5138   -0.4069   -2.8866 C   0  0  0  0  0  0  0  0  0  0  0  0
    6.2363    0.3410   -2.5681 H   0  0  0  0  0  0  0  0  0  0  0  0
    4.8943    0.0232   -3.6709 H   0  0  0  0  0  0  0  0  0  0  0  0
    6.0581   -1.2516   -3.3027 H   0  0  0  0  0  0  0  0  0  0  0  0
    3.5951   -1.8723   -2.1775 C   0  0  0  0  0  0  0  0  0  0  0  0
    4.0599   -2.7335   -2.6498 H   0  0  0  0  0  0  0  0  0  0  0  0
    2.9265   -1.4076   -2.8996 H   0  0  0  0  0  0  0  0  0  0  0  0
    3.0083   -2.2133   -1.3288 H   0  0  0  0  0  0  0  0  0  0  0  0
    6.6462   -0.5491    2.9395 C   0  0  0  0  0  0  0  0  0  0  0  0
    6.1488    0.4221    2.8772 H   0  0  0  0  0  0  0  0  0  0  0  0
    8.1203   -0.3082    3.2690 C   0  0  0  0  0  0  0  0  0  0  0  0
    8.6464   -1.2459    3.4308 H   0  0  0  0  0  0  0  0  0  0  0  0
    8.2011    0.2877    4.1751 H   0  0  0  0  0  0  0  0  0  0  0  0
    8.6141    0.2260    2.4592 H   0  0  0  0  0  0  0  0  0  0  0  0
    5.9582   -1.3474    4.0486 C   0  0  0  0  0  0  0  0  0  0  0  0
    4.9144   -1.5121    3.7915 H   0  0  0  0  0  0  0  0  0  0  0  0
    5.9942   -0.7926    4.9826 H   0  0  0  0  0  0  0  0  0  0  0  0
    6.4381   -2.3130    4.1916 H   0  0  0  0  0  0  0  0  0  0  0  0
    1.2364    2.7102    1.3903 C   0  0  1  0  0  3  0  0  0  0  0  0
   -0.0139    3.5145    1.5848 C   0  0  0  0  0  0  0  0  0  0  0  0
   -0.7604    3.2456    0.8366 H   0  0  0  0  0  0  0  0  0  0  0  0
    0.1969    4.5743    1.4932 H   0  0  0  0  0  0  0  0  0  0  0  0
   -0.4304    3.3290    2.5732 H   0  0  0  0  0  0  0  0  0  0  0  0
    1.3419    1.4311    1.6309 N   0  0  0  0  0  0  0  0  0  0  0  0
    0.2184    0.6705    2.1193 C   0  0  0  0  0  0  0  0  0  0  0  0
    0.2248   -0.2830    1.5847 H   0  0  0  0  0  0  0  0  0  0  0  0
   -0.7294    1.1801    1.9256 H   0  0  0  0  0  0  0  0  0  0  0  0
    0.3451    0.3681    3.6246 C   0  0  0  0  0  0  0  0  0  0  0  0
   -0.4731   -0.2973    3.9041 H   0  0  0  0  0  0  0  0  0  0  0  0
    1.2941   -0.1473    3.7874 H   0  0  0  0  0  0  0  0  0  0  0  0
    0.3146    1.6134    4.4505 C   0  0  0  0  0  0  0  0  0  0  0  0
    1.2072    2.2220    4.3922 H   0  0  0  0  0  0  0  0  0  0  0  0
   -0.7056    1.9769    5.2057 C   0  0  0  0  0  0  0  0  0  0  0  0
   -1.5970    1.3743    5.2845 H   0  0  0  0  0  0  0  0  0  0  0  0
   -0.6926    2.8831    5.7877 H   0  0  0  0  0  0  0  0  0  0  0  0
  1 53  1  0  0  0  0
  1  2  1  0  0  0  0
  3  1  1  0  0  0  0
  4 12  1  0  0  0  0
  4  1  1  0  0  0  0
  5  4  1  0  0  0  0
  6  8  2  0  0  0  0
  6  5  1  0  0  0  0
  7  6  1  0  0  0  0
  8 10  1  0  0  0  0
  9  8  1  0  0  0  0
 10 11  1  0  0  0  0
 10 12  2  0  0  0  0
 12 48  1  0  0  0  0
 13  5  2  0  0  0  0
 13 18  1  0  0  0  0
 14 13  1  0  0  0  0
 14 16  1  0  0  0  0
 15 14  1  0  0  0  0
 17 14  1  0  0  0  0
 18  1  1  0  0  0  0
 19 18  1  0  0  0  0
 19 27  1  0  0  0  0
 20 19  2  0  0  0  0
 21 20  1  0  0  0  0
 21 23  2  0  0  0  0
 22 21  1  0  0  0  0
 23 25  1  0  0  0  0
 24 23  1  0  0  0  0
 25 27  2  0  0  0  0
 25 26  1  0  0  0  0
 27 38  1  0  0  0  0
 28 29  1  0  0  0  0
 28 20  1  0  0  0  0
 30 31  1  0  0  0  0
 30 28  1  0  0  0  0
 32 30  1  0  0  0  0
 33 30  1  0  0  0  0
 34 28  1  0  0  0  0
 34 37  1  0  0  0  0
 35 34  1  0  0  0  0
 36 34  1  0  0  0  0
 38 40  1  0  0  0  0
 38 44  1  0  0  0  0
 39 38  1  0  0  0  0
 40 41  1  0  0  0  0
 40 42  1  0  0  0  0
 43 40  1  0  0  0  0
 44 47  1  0  0  0  0
 44 46  1  0  0  0  0
 45 44  1  0  0  0  0
 48 49  1  6  0  0  0
 48 53  1  0  0  0  0
 49 52  1  0  0  0  0
 50 49  1  0  0  0  0
 51 49  1  0  0  0  0
 53 54  1  0  0  0  0
 54 57  1  0  0  0  0
 55 54  1  0  0  0  0
 56 54  1  0  0  0  0
 57 59  1  0  0  0  0
 57 58  1  0  0  0  0
 57 60  1  0  0  0  0
 60 62  2  0  0  0  0
 61 60  1  0  0  0  0
 62 63  1  0  0  0  0
 62 64  1  0  0  0  0
M  END
$$$$
