CSD_code = LOPTEQ | q = 0 | S = 0 | Stoichiometry = C26H35Cl2FeN3 | MND = 5
 OpenBabel04212202063D

 67 70  0  0  1  0  0  0  0  0999 V2000
    3.0525   10.1451    8.0161 Fe  0  0  0  0  0  0  0  0  0  0  0  0
    3.0700   11.5781    6.4884 Cl  0  0  0  0  0  0  0  0  0  0  0  0
    1.2326    9.2358    8.3134 Cl  0  0  0  0  0  0  0  0  0  0  0  0
    4.7507   10.3186    8.4206 N   0  0  0  0  0  0  0  0  0  0  0  0
    5.1391   11.2425    9.3484 C   0  0  0  0  0  0  0  0  0  0  0  0
    6.4841   11.4582    9.6224 C   0  0  0  0  0  0  0  0  0  0  0  0
    6.7749   12.1994   10.3488 H   0  0  0  0  0  0  0  0  0  0  0  0
    7.4395   10.7127    8.9473 C   0  0  0  0  0  0  0  0  0  0  0  0
    8.4879   10.8651    9.1495 H   0  0  0  0  0  0  0  0  0  0  0  0
    7.0431    9.7770    8.0032 C   0  0  0  0  0  0  0  0  0  0  0  0
    7.7845    9.2050    7.4692 H   0  0  0  0  0  0  0  0  0  0  0  0
    5.6893    9.5950    7.7408 C   0  0  0  0  0  0  0  0  0  0  0  0
    4.0018   11.8536    9.9678 C   0  0  0  0  0  0  0  0  0  0  0  0
    4.1499   12.8907   11.0360 C   0  0  0  0  0  0  0  0  0  0  0  0
    4.5603   13.8011   10.5993 H   0  0  0  0  0  0  0  0  0  0  0  0
    4.8346   12.5490   11.8102 H   0  0  0  0  0  0  0  0  0  0  0  0
    3.1850   13.1194   11.4818 H   0  0  0  0  0  0  0  0  0  0  0  0
    2.8560   11.4000    9.5322 N   0  0  0  0  0  0  0  0  0  0  0  0
    1.6535   11.7398   10.1903 C   0  0  0  0  0  0  0  0  0  0  0  0
    0.8902   12.8353    9.7750 C   0  0  0  0  0  0  0  0  0  0  0  0
   -0.2966   13.1078   10.4410 C   0  0  0  0  0  0  0  0  0  0  0  0
   -0.8994   13.9465   10.1285 H   0  0  0  0  0  0  0  0  0  0  0  0
   -0.7155   12.3248   11.4982 C   0  0  0  0  0  0  0  0  0  0  0  0
   -1.6380   12.5546   12.0109 H   0  0  0  0  0  0  0  0  0  0  0  0
    0.0448   11.2413   11.8953 C   0  0  0  0  0  0  0  0  0  0  0  0
   -0.2912   10.6328   12.7206 H   0  0  0  0  0  0  0  0  0  0  0  0
    1.2294   10.9225   11.2494 C   0  0  0  0  0  0  0  0  0  0  0  0
    1.3251   13.6916    8.6113 C   0  0  0  0  0  0  0  0  0  0  0  0
    2.3038   13.3488    8.2656 H   0  0  0  0  0  0  0  0  0  0  0  0
    0.3427   13.5171    7.4517 C   0  0  0  0  0  0  0  0  0  0  0  0
   -0.6468   13.8828    7.7170 H   0  0  0  0  0  0  0  0  0  0  0  0
    0.2668   12.4647    7.1886 H   0  0  0  0  0  0  0  0  0  0  0  0
    0.6985   14.0596    6.5797 H   0  0  0  0  0  0  0  0  0  0  0  0
    1.4477   15.1631    9.0106 C   0  0  0  0  0  0  0  0  0  0  0  0
    0.4809   15.5786    9.2845 H   0  0  0  0  0  0  0  0  0  0  0  0
    1.8414   15.7384    8.1760 H   0  0  0  0  0  0  0  0  0  0  0  0
    2.1217   15.2779    9.8577 H   0  0  0  0  0  0  0  0  0  0  0  0
    2.0414    9.7282   11.6988 C   0  0  0  0  0  0  0  0  0  0  0  0
    2.8449    9.5564   10.9698 H   0  0  0  0  0  0  0  0  0  0  0  0
    2.6754    9.9977   13.0662 C   0  0  0  0  0  0  0  0  0  0  0  0
    1.9053   10.1625   13.8163 H   0  0  0  0  0  0  0  0  0  0  0  0
    3.3125   10.8784   13.0323 H   0  0  0  0  0  0  0  0  0  0  0  0
    3.2791    9.1465   13.3743 H   0  0  0  0  0  0  0  0  0  0  0  0
    1.1883    8.4595   11.7425 C   0  0  0  0  0  0  0  0  0  0  0  0
    0.4168    8.5275   12.5047 H   0  0  0  0  0  0  0  0  0  0  0  0
    1.8159    7.5998   11.9691 H   0  0  0  0  0  0  0  0  0  0  0  0
    0.7143    8.2999   10.7779 H   0  0  0  0  0  0  0  0  0  0  0  0
    5.0628    8.7336    6.7797 C   0  0  2  0  0  3  0  0  0  0  0  0
    5.8576    7.8959    5.8246 C   0  0  0  0  0  0  0  0  0  0  0  0
    6.8910    7.8239    6.1467 H   0  0  0  0  0  0  0  0  0  0  0  0
    5.8382    8.3510    4.8335 H   0  0  0  0  0  0  0  0  0  0  0  0
    5.4471    6.8920    5.7476 H   0  0  0  0  0  0  0  0  0  0  0  0
    3.7574    8.7986    6.7976 N   0  0  0  0  0  0  0  0  0  0  0  0
    2.9715    8.0429    5.8536 C   0  0  0  0  0  0  0  0  0  0  0  0
    2.0586    8.6145    5.6707 H   0  0  0  0  0  0  0  0  0  0  0  0
    3.5008    7.9245    4.9022 H   0  0  0  0  0  0  0  0  0  0  0  0
    2.5839    6.6726    6.4220 C   0  0  0  0  0  0  0  0  0  0  0  0
    2.0187    6.8274    7.3417 H   0  0  0  0  0  0  0  0  0  0  0  0
    3.4845    6.1052    6.6700 H   0  0  0  0  0  0  0  0  0  0  0  0
    1.7326    5.8846    5.4242 C   0  0  0  0  0  0  0  0  0  0  0  0
    0.8201    6.4417    5.2091 H   0  0  0  0  0  0  0  0  0  0  0  0
    2.2908    5.7668    4.4897 H   0  0  0  0  0  0  0  0  0  0  0  0
    1.3884    4.5329    5.9642 C   0  0  0  0  0  0  0  0  0  0  0  0
    2.2338    3.8874    6.1686 H   0  0  0  0  0  0  0  0  0  0  0  0
    0.1605    4.1150    6.2040 C   0  0  0  0  0  0  0  0  0  0  0  0
   -0.6957    4.7408    6.0135 H   0  0  0  0  0  0  0  0  0  0  0  0
   -0.0438    3.1339    6.5979 H   0  0  0  0  0  0  0  0  0  0  0  0
  1  3  1  0  0  0  0
  1  4  1  0  0  0  0
  1 18  1  0  0  0  0
  2  1  1  0  0  0  0
  4  5  1  0  0  0  0
  5  6  1  0  0  0  0
  5 13  2  0  0  0  0
  6  7  1  0  0  0  0
  8  9  1  0  0  0  0
  8  6  2  0  0  0  0
 10  8  1  0  0  0  0
 11 10  1  0  0  0  0
 12 10  2  0  0  0  0
 12  4  1  0  0  0  0
 13 14  1  0  0  0  0
 14 17  1  0  0  0  0
 14 16  1  0  0  0  0
 15 14  1  0  0  0  0
 18 13  1  0  0  0  0
 18 19  1  0  0  0  0
 19 27  1  0  0  0  0
 20 19  2  0  0  0  0
 20 21  1  0  0  0  0
 21 23  2  0  0  0  0
 22 21  1  0  0  0  0
 23 25  1  0  0  0  0
 23 24  1  0  0  0  0
 25 26  1  0  0  0  0
 27 38  1  0  0  0  0
 27 25  2  0  0  0  0
 28 34  1  0  0  0  0
 28 20  1  0  0  0  0
 29 28  1  0  0  0  0
 30 31  1  0  0  0  0
 30 28  1  0  0  0  0
 32 30  1  0  0  0  0
 33 30  1  0  0  0  0
 34 35  1  0  0  0  0
 34 37  1  0  0  0  0
 36 34  1  0  0  0  0
 38 44  1  0  0  0  0
 38 40  1  0  0  0  0
 39 38  1  0  0  0  0
 40 43  1  0  0  0  0
 40 41  1  0  0  0  0
 42 40  1  0  0  0  0
 44 46  1  0  0  0  0
 44 45  1  0  0  0  0
 47 44  1  0  0  0  0
 48 49  1  6  0  0  0
 48 53  1  0  0  0  0
 48 12  1  0  0  0  0
 49 50  1  0  0  0  0
 51 49  1  0  0  0  0
 52 49  1  0  0  0  0
 53  1  1  0  0  0  0
 54 57  1  0  0  0  0
 54 53  1  0  0  0  0
 55 54  1  0  0  0  0
 56 54  1  0  0  0  0
 57 59  1  0  0  0  0
 57 58  1  0  0  0  0
 60 63  1  0  0  0  0
 60 57  1  0  0  0  0
 61 60  1  0  0  0  0
 62 60  1  0  0  0  0
 63 64  1  0  0  0  0
 63 65  2  0  0  0  0
 65 67  1  0  0  0  0
 66 65  1  0  0  0  0
M  END
$$$$
