CSD_code = LOPYAT | q = 0 | S = 0 | Stoichiometry = C14H14BrN4O3Re | MND = 6
 OpenBabel04212202063D

 37 39  0  0  1  0  0  0  0  0999 V2000
    5.2191    7.1902    2.5390 Re  0  0  0  0  0  0  0  0  0  0  0  0
    7.2789    6.1314    3.7261 Br  0  0  0  0  0  0  0  0  0  0  0  0
    3.6835    7.8445    1.5510 C   0  0  0  0  0  2  0  0  0  0  0  0
    2.7748    8.2116    0.9515 O   0  0  0  0  0  1  0  0  0  0  0  0
    6.4586    8.5231    1.8092 C   0  0  0  0  0  2  0  0  0  0  0  0
    7.2660    9.2121    1.3886 O   0  0  0  0  0  1  0  0  0  0  0  0
    4.8741    8.3422    4.0691 C   0  0  0  0  0  2  0  0  0  0  0  0
    4.7347    9.0087    4.9940 O   0  0  0  0  0  1  0  0  0  0  0  0
    3.6136    4.8899    4.2254 N   0  0  0  0  0  0  0  0  0  0  0  0
    4.2827    5.3889    3.1826 C   0  0  2  0  0  3  0  0  0  0  0  0
    4.5696    4.3043    2.3960 N   0  0  0  0  0  0  0  0  0  0  0  0
    4.0796    3.1478    2.9587 C   0  0  0  0  0  0  0  0  0  0  0  0
    4.2132    2.1959    2.4908 H   0  0  0  0  0  0  0  0  0  0  0  0
    3.4853    3.5237    4.1094 C   0  0  0  0  0  0  0  0  0  0  0  0
    2.9815    2.9393    4.8517 H   0  0  0  0  0  0  0  0  0  0  0  0
    3.1731    5.6378    5.3771 C   0  0  0  0  0  0  0  0  0  0  0  0
    2.2402    5.1962    5.7394 H   0  0  0  0  0  0  0  0  0  0  0  0
    2.9870    6.6664    5.0599 H   0  0  0  0  0  0  0  0  0  0  0  0
    4.2382    5.6005    6.4782 C   0  0  0  0  0  0  0  0  0  0  0  0
    4.5534    4.5640    6.6258 H   0  0  0  0  0  0  0  0  0  0  0  0
    5.1102    6.1680    6.1488 H   0  0  0  0  0  0  0  0  0  0  0  0
    3.7286    6.1583    7.8050 C   0  0  0  0  0  0  0  0  0  0  0  0
    4.5101    6.0135    8.5530 H   0  0  0  0  0  0  0  0  0  0  0  0
    2.8537    5.5867    8.1266 H   0  0  0  0  0  0  0  0  0  0  0  0
    3.3751    7.6388    7.7391 C   0  0  0  0  0  0  0  0  0  0  0  0
    4.2179    8.2139    7.3662 H   0  0  0  0  0  0  0  0  0  0  0  0
    3.1210    8.0063    8.7303 H   0  0  0  0  0  0  0  0  0  0  0  0
    2.5238    7.8135    7.0862 H   0  0  0  0  0  0  0  0  0  0  0  0
    5.7129    5.6892    0.9619 N   0  0  0  0  0  0  0  0  0  0  0  0
    5.3163    4.4369    1.2495 C   0  0  1  0  0  3  0  0  0  0  0  0
    5.5840    3.3539    0.5463 N   0  0  0  0  0  0  0  0  0  0  0  0
    6.3329    3.5048   -0.5317 C   0  0  0  0  0  0  0  0  0  0  0  0
    6.5461    2.6019   -1.0860 H   0  0  0  0  0  0  0  0  0  0  0  0
    6.8126    4.7495   -0.9180 C   0  0  0  0  0  0  0  0  0  0  0  0
    7.4290    4.8758   -1.7911 H   0  0  0  0  0  0  0  0  0  0  0  0
    6.4637    5.8311   -0.1277 C   0  0  0  0  0  0  0  0  0  0  0  0
    6.7915    6.8350   -0.3651 H   0  0  0  0  0  0  0  0  0  0  0  0
  1 10  1  0  0  0  0
  1  2  1  0  0  0  0
  1  7  1  0  0  0  0
  3  1  1  0  0  0  0
  4  3  1  0  0  0  0
  5  1  1  0  0  0  0
  6  5  1  0  0  0  0
  7  8  1  0  0  0  0
  9 16  1  0  0  0  0
 10 11  1  1  0  0  0
 10  9  1  0  0  0  0
 11 12  1  0  0  0  0
 12 14  2  0  0  0  0
 13 12  1  0  0  0  0
 14  9  1  0  0  0  0
 14 15  1  0  0  0  0
 16 17  1  0  0  0  0
 16 19  1  0  0  0  0
 18 16  1  0  0  0  0
 19 20  1  0  0  0  0
 19 22  1  0  0  0  0
 21 19  1  0  0  0  0
 22 24  1  0  0  0  0
 22 23  1  0  0  0  0
 25 22  1  0  0  0  0
 25 27  1  0  0  0  0
 26 25  1  0  0  0  0
 28 25  1  0  0  0  0
 29 30  1  0  0  0  0
 29  1  1  0  0  0  0
 30 31  1  1  0  0  0
 30 11  1  0  0  0  0
 32 31  2  0  0  0  0
 33 32  1  0  0  0  0
 34 32  1  0  0  0  0
 34 36  2  0  0  0  0
 35 34  1  0  0  0  0
 36 29  1  0  0  0  0
 37 36  1  0  0  0  0
M  END
$$$$
