CSD_code = LOPYEX | q = 0 | S = 0 | Stoichiometry = C14H14BrN4O3Re | MND = 6
 OpenBabel04212202063D

 37 39  0  0  1  0  0  0  0  0999 V2000
    0.9568    3.3994    2.5535 Re  0  0  0  0  0  0  0  0  0  0  0  0
   -1.1189    3.6063    4.1110 Br  0  0  0  0  0  0  0  0  0  0  0  0
    2.6012    3.2634    1.5340 C   0  0  0  0  0  2  0  0  0  0  0  0
    3.5878    3.1837    0.9508 O   0  0  0  0  0  1  0  0  0  0  0  0
    0.6010    5.2548    2.0260 C   0  0  0  0  0  2  0  0  0  0  0  0
    0.3479    6.3503    1.8279 O   0  0  0  0  0  1  0  0  0  0  0  0
   -0.1437    2.7456    1.0870 C   0  0  0  0  0  2  0  0  0  0  0  0
   -0.8410    2.3616    0.2592 O   0  0  0  0  0  1  0  0  0  0  0  0
    0.9019    0.2959    3.5768 N   0  0  0  0  0  0  0  0  0  0  0  0
    1.2422    1.5868    3.6311 C   0  0  2  0  0  3  0  0  0  0  0  0
    1.7912    1.7558    4.8742 N   0  0  0  0  0  0  0  0  0  0  0  0
    1.7822    0.5729    5.5776 C   0  0  0  0  0  0  0  0  0  0  0  0
    2.1639    0.5086    6.5742 H   0  0  0  0  0  0  0  0  0  0  0  0
    1.2172   -0.3372    4.7575 C   0  0  0  0  0  0  0  0  0  0  0  0
    1.0154   -1.3772    4.9122 H   0  0  0  0  0  0  0  0  0  0  0  0
    0.2052   -0.3303    2.4802 C   0  0  0  0  0  0  0  0  0  0  0  0
    0.5025   -1.3813    2.4327 H   0  0  0  0  0  0  0  0  0  0  0  0
    0.5101    0.1690    1.5560 H   0  0  0  0  0  0  0  0  0  0  0  0
   -1.3103   -0.2079    2.6592 C   0  0  0  0  0  0  0  0  0  0  0  0
   -1.5661    0.8450    2.7923 H   0  0  0  0  0  0  0  0  0  0  0  0
   -1.6161   -0.7413    3.5625 H   0  0  0  0  0  0  0  0  0  0  0  0
   -2.0628   -0.7584    1.4523 C   0  0  0  0  0  0  0  0  0  0  0  0
   -1.8025   -1.8098    1.3064 H   0  0  0  0  0  0  0  0  0  0  0  0
   -1.7561   -0.2099    0.5600 H   0  0  0  0  0  0  0  0  0  0  0  0
   -3.5688   -0.6228    1.6351 C   0  0  0  0  0  0  0  0  0  0  0  0
   -3.9020   -1.1801    2.5079 H   0  0  0  0  0  0  0  0  0  0  0  0
   -4.0941   -1.0026    0.7626 H   0  0  0  0  0  0  0  0  0  0  0  0
   -3.8383    0.4212    1.7725 H   0  0  0  0  0  0  0  0  0  0  0  0
    2.0478    3.9927    4.4119 N   0  0  0  0  0  0  0  0  0  0  0  0
    2.2086    2.9949    5.2995 C   0  0  1  0  0  3  0  0  0  0  0  0
    2.7137    3.1053    6.5125 N   0  0  0  0  0  0  0  0  0  0  0  0
    3.0760    4.3131    6.9073 C   0  0  0  0  0  0  0  0  0  0  0  0
    3.4797    4.3791    7.9074 H   0  0  0  0  0  0  0  0  0  0  0  0
    2.9403    5.4216    6.0818 C   0  0  0  0  0  0  0  0  0  0  0  0
    3.2265    6.4082    6.4024 H   0  0  0  0  0  0  0  0  0  0  0  0
    2.4173    5.2047    4.8185 C   0  0  0  0  0  0  0  0  0  0  0  0
    2.2862    6.0152    4.1130 H   0  0  0  0  0  0  0  0  0  0  0  0
  1 10  1  0  0  0  0
  1  2  1  0  0  0  0
  1 29  1  0  0  0  0
  3  1  1  0  0  0  0
  4  3  1  0  0  0  0
  5  1  1  0  0  0  0
  6  5  1  0  0  0  0
  7  1  1  0  0  0  0
  8  7  1  0  0  0  0
  9 14  1  0  0  0  0
 10  9  1  1  0  0  0
 10 11  1  0  0  0  0
 11 30  1  0  0  0  0
 11 12  1  0  0  0  0
 12 13  1  0  0  0  0
 14 15  1  0  0  0  0
 14 12  2  0  0  0  0
 16 19  1  0  0  0  0
 16  9  1  0  0  0  0
 17 16  1  0  0  0  0
 18 16  1  0  0  0  0
 19 20  1  0  0  0  0
 19 21  1  0  0  0  0
 22 25  1  0  0  0  0
 22 19  1  0  0  0  0
 23 22  1  0  0  0  0
 24 22  1  0  0  0  0
 25 28  1  0  0  0  0
 25 26  1  0  0  0  0
 27 25  1  0  0  0  0
 29 36  1  0  0  0  0
 29 30  1  0  0  0  0
 30 31  1  1  0  0  0
 31 32  2  0  0  0  0
 32 33  1  0  0  0  0
 34 35  1  0  0  0  0
 34 32  1  0  0  0  0
 36 34  2  0  0  0  0
 37 36  1  0  0  0  0
M  END
$$$$
