CSD_code = LOQGUV | q = 0 | S = 0 | Stoichiometry = C20H22CdI2N2O4 | MND = 4
 OpenBabel04212202063D

 51 52  0  0  0  0  0  0  0  0999 V2000
    3.5674    5.8771   44.1440 Cd  0  0  0  0  0  0  0  0  0  0  0  0
    5.4711    7.2195   42.8119 I   0  0  0  0  0  0  0  0  0  0  0  0
    1.2820    6.1895   45.5236 I   0  0  0  0  0  0  0  0  0  0  0  0
    9.1990    2.4464   49.7927 O   0  0  0  0  0  0  0  0  0  0  0  0
    7.8866    0.3112   49.4733 O   0  0  0  0  0  0  0  0  0  0  0  0
    8.5892    0.9312   49.8356 H   0  0  0  0  0  0  0  0  0  0  0  0
    0.5274    0.6615   37.7459 O   0  0  0  0  0  0  0  0  0  0  0  0
   -1.5708    1.8903   38.4366 O   0  0  0  0  0  0  0  0  0  0  0  0
   -0.9868    1.2533   37.9250 H   0  0  0  0  0  0  0  0  0  0  0  0
    4.8705    4.4104   45.5792 N   0  0  0  0  0  0  0  0  0  0  0  0
    2.7780    4.2902   42.4663 N   0  0  0  0  0  0  0  0  0  0  0  0
    8.6031    4.4865   48.7242 C   0  0  0  0  0  0  0  0  0  0  0  0
    9.2686    4.9198   49.4665 H   0  0  0  0  0  0  0  0  0  0  0  0
    7.6408    4.9925   48.7453 H   0  0  0  0  0  0  0  0  0  0  0  0
    9.0432    4.6315   47.7393 H   0  0  0  0  0  0  0  0  0  0  0  0
    8.4463    3.0168   49.0024 C   0  0  0  0  0  0  0  0  0  0  0  0
    7.3644    2.3106   48.3368 C   0  0  0  0  0  0  0  0  0  0  0  0
    7.1402    0.9892   48.6278 C   0  0  0  0  0  0  0  0  0  0  0  0
    6.0429    0.1842   48.0056 C   0  0  0  0  0  0  0  0  0  0  0  0
    5.7530    0.5793   47.0369 H   0  0  0  0  0  0  0  0  0  0  0  0
    5.1730    0.1866   48.6617 H   0  0  0  0  0  0  0  0  0  0  0  0
    6.3765   -0.8458   47.9059 H   0  0  0  0  0  0  0  0  0  0  0  0
    6.5018    3.0280   47.3806 C   0  0  0  0  0  0  0  0  0  0  0  0
    6.9932    3.4868   46.1591 C   0  0  0  0  0  0  0  0  0  0  0  0
    8.0186    3.3063   45.8772 H   0  0  0  0  0  0  0  0  0  0  0  0
    6.1499    4.1652   45.3004 C   0  0  0  0  0  3  0  0  0  0  0  0
    6.5138    4.5300   44.3471 H   0  0  0  0  0  0  0  0  0  0  0  0
    4.3920    3.9686   46.7413 C   0  0  0  0  0  0  0  0  0  0  0  0
    3.3490    4.1806   46.9459 H   0  0  0  0  0  0  0  0  0  0  0  0
    5.1592    3.2791   47.6606 C   0  0  0  0  0  0  0  0  0  0  0  0
    4.7245    2.9523   48.5919 H   0  0  0  0  0  0  0  0  0  0  0  0
    2.6098    0.9627   38.8539 C   0  0  0  0  0  0  0  0  0  0  0  0
    3.2180    1.7650   38.4405 H   0  0  0  0  0  0  0  0  0  0  0  0
    2.8679    0.0382   38.3434 H   0  0  0  0  0  0  0  0  0  0  0  0
    2.8291    0.8781   39.9154 H   0  0  0  0  0  0  0  0  0  0  0  0
    1.1521    1.2605   38.6226 C   0  0  0  0  0  0  0  0  0  0  0  0
    0.5141    2.2423   39.4797 C   0  0  0  0  0  0  0  0  0  0  0  0
   -0.8288    2.4933   39.3395 C   0  0  0  0  0  0  0  0  0  0  0  0
   -1.5729    3.4828   40.1780 C   0  0  0  0  0  0  0  0  0  0  0  0
   -2.3784    3.9096   39.5855 H   0  0  0  0  0  0  0  0  0  0  0  0
   -0.9231    4.2701   40.5472 H   0  0  0  0  0  0  0  0  0  0  0  0
   -2.0247    2.9751   41.0297 H   0  0  0  0  0  0  0  0  0  0  0  0
    1.3031    2.9439   40.5083 C   0  0  0  0  0  0  0  0  0  0  0  0
    2.3141    3.8412   40.1680 C   0  0  0  0  0  0  0  0  0  0  0  0
    2.5340    4.0547   39.1339 H   0  0  0  0  0  0  0  0  0  0  0  0
    3.0162    4.4837   41.1700 C   0  0  0  0  0  3  0  0  0  0  0  0
    3.8032    5.1874   40.9246 H   0  0  0  0  0  0  0  0  0  0  0  0
    1.8188    3.4273   42.7981 C   0  0  0  0  0  0  0  0  0  0  0  0
    1.6449    3.2866   43.8586 H   0  0  0  0  0  0  0  0  0  0  0  0
    1.0657    2.7391   41.8671 C   0  0  0  0  0  0  0  0  0  0  0  0
    0.3014    2.0506   42.1908 H   0  0  0  0  0  0  0  0  0  0  0  0
  1  3  1  0  0  0  0
  1 10  1  0  0  0  0
  2  1  1  0  0  0  0
  5  6  1  0  0  0  0
  7 36  2  0  0  0  0
  8 38  1  0  0  0  0
  9  8  1  0  0  0  0
 10 28  1  0  0  0  0
 11 48  1  0  0  0  0
 11  1  1  0  0  0  0
 12 14  1  0  0  0  0
 12 16  1  0  0  0  0
 12 13  1  0  0  0  0
 15 12  1  0  0  0  0
 16  4  2  0  0  0  0
 17 18  2  0  0  0  0
 17 16  1  0  0  0  0
 18  5  1  0  0  0  0
 19 18  1  0  0  0  0
 19 21  1  0  0  0  0
 20 19  1  0  0  0  0
 22 19  1  0  0  0  0
 23 30  1  0  0  0  0
 23 17  1  0  0  0  0
 24 23  2  0  0  0  0
 25 24  1  0  0  0  0
 26 10  1  0  0  0  0
 26 24  1  0  0  0  0
 27 26  1  0  0  0  0
 28 29  1  0  0  0  0
 28 30  2  0  0  0  0
 30 31  1  0  0  0  0
 32 35  1  0  0  0  0
 33 32  1  0  0  0  0
 34 32  1  0  0  0  0
 36 32  1  0  0  0  0
 36 37  1  0  0  0  0
 37 43  1  0  0  0  0
 38 37  2  0  0  0  0
 38 39  1  0  0  0  0
 39 41  1  0  0  0  0
 39 42  1  0  0  0  0
 40 39  1  0  0  0  0
 43 50  1  0  0  0  0
 44 43  2  0  0  0  0
 44 46  1  0  0  0  0
 45 44  1  0  0  0  0
 46 11  1  0  0  0  0
 47 46  1  0  0  0  0
 48 49  1  0  0  0  0
 50 51  1  0  0  0  0
 50 48  2  0  0  0  0
M  END
$$$$
