CSD_code = LOQPEN | q = 1 | S = 0 | Stoichiometry = C24H22ClN2Ru(1+) | MND = 9
 OpenBabel04212202063D

 50 54  0  0  1  0  0  0  0  0999 V2000
    4.4316    9.5580   -1.5286 Ru  0  0  0  0  0  0  0  0  0  0  0  0
    2.2722    9.7978   -0.6940 Cl  0  0  0  0  0 15  0  0  0  0  0  0
    3.5552    6.9109   -2.3699 C   0  0  0  0  0  3  0  0  0  0  0  0
    5.4364   10.4686    0.4331 C   0  0  0  0  0  0  0  0  0  0  0  0
    2.9988    5.9611   -3.2043 C   0  0  0  0  0  0  0  0  0  0  0  0
    5.3497    9.0603    0.6149 C   0  0  0  0  0  0  0  0  0  0  0  0
    2.5244    6.3538   -4.4511 C   0  0  0  0  0  0  0  0  0  0  0  0
    5.9435    8.1987   -0.3068 C   0  0  0  0  0  0  0  0  0  0  0  0
    2.6030    7.6888   -4.7987 C   0  0  0  0  0  0  0  0  0  0  0  0
    6.5487    8.7202   -1.4799 C   0  0  2  0  0  0  0  0  0  0  0  0
    3.1718    8.5944   -3.9061 C   0  0  0  0  0  0  0  0  0  0  0  0
    6.6346   10.1203   -1.6607 C   0  0  1  0  0  3  0  0  0  0  0  0
    3.2595   10.0335   -4.0915 C   0  0  1  0  0  3  0  0  0  0  0  0
    6.1152   10.9908   -0.6673 C   0  0  0  0  0  0  0  0  0  0  0  0
    2.7894   10.7457   -5.1925 C   0  0  0  0  0  0  0  0  0  0  0  0
    7.1520    7.8550   -2.5494 C   0  0  0  0  0  0  0  0  0  0  0  0
    2.8763   12.1247   -5.1945 C   0  0  0  0  0  0  0  0  0  0  0  0
    6.7853    8.4359   -3.8966 C   0  0  0  0  0  0  0  0  0  0  0  0
    3.4132   12.7598   -4.0800 C   0  0  0  0  0  0  0  0  0  0  0  0
    6.8660    9.7531   -4.0667 C   0  0  0  0  0  0  0  0  0  0  0  0
    3.8650   11.9920   -3.0244 C   0  0  0  0  0  0  0  0  0  0  0  0
    7.3209   10.6076   -2.9049 C   0  0  0  0  0  0  0  0  0  0  0  0
    6.3568    7.4970   -4.9820 C   0  0  0  0  0  0  0  0  0  0  0  0
    5.6861    8.2227   -6.1079 C   0  0  0  0  0  0  0  0  0  0  0  0
    5.7661    9.5303   -6.2767 C   0  0  0  0  0  0  0  0  0  0  0  0
    6.5362   10.4314   -5.3607 C   0  0  0  0  0  0  0  0  0  0  0  0
    3.6676    8.1928   -2.7138 N   0  0  0  0  0  0  0  0  0  0  0  0
    3.8181   10.6610   -3.0318 N   0  0  0  0  0  0  0  0  0  0  0  0
    3.9020    6.6431   -1.3795 H   0  0  0  0  0  0  0  0  0  0  0  0
    5.0443   11.1283    1.1984 H   0  0  0  0  0  0  0  0  0  0  0  0
    2.9292    4.9358   -2.8797 H   0  0  0  0  0  0  0  0  0  0  0  0
    4.8927    8.6680    1.5160 H   0  0  0  0  0  0  0  0  0  0  0  0
    2.0864    5.6344   -5.1240 H   0  0  0  0  0  0  0  0  0  0  0  0
    5.9834    7.1324   -0.1120 H   0  0  0  0  0  0  0  0  0  0  0  0
    2.2192    8.0335   -5.7440 H   0  0  0  0  0  0  0  0  0  0  0  0
    6.2861   12.0588   -0.7482 H   0  0  0  0  0  0  0  0  0  0  0  0
    2.3525   10.2218   -6.0258 H   0  0  0  0  0  0  0  0  0  0  0  0
    8.2436    7.8663   -2.4382 H   0  0  0  0  0  0  0  0  0  0  0  0
    6.8179    6.8204   -2.4600 H   0  0  0  0  0  0  0  0  0  0  0  0
    2.5171   12.6979   -6.0339 H   0  0  0  0  0  0  0  0  0  0  0  0
    3.4716   13.8346   -4.0260 H   0  0  0  0  0  0  0  0  0  0  0  0
    4.2566   12.4579   -2.1285 H   0  0  0  0  0  0  0  0  0  0  0  0
    7.1151   11.6636   -3.0854 H   0  0  0  0  0  0  0  0  0  0  0  0
    8.4048   10.4936   -2.7776 H   0  0  0  0  0  0  0  0  0  0  0  0
    7.2343    6.9650   -5.3703 H   0  0  0  0  0  0  0  0  0  0  0  0
    5.6855    6.7308   -4.5790 H   0  0  0  0  0  0  0  0  0  0  0  0
    5.1358    7.6063   -6.8031 H   0  0  0  0  0  0  0  0  0  0  0  0
    5.2829   10.0122   -7.1136 H   0  0  0  0  0  0  0  0  0  0  0  0
    7.4649   10.7390   -5.8574 H   0  0  0  0  0  0  0  0  0  0  0  0
    5.9677   11.3492   -5.1748 H   0  0  0  0  0  0  0  0  0  0  0  0
  3 29  1  0  0  0  0
  4  6  1  0  0  0  0
  4 30  1  0  0  0  0
  5 31  1  0  0  0  0
  5  3  1  0  0  0  0
  6 32  1  0  0  0  0
  7  5  2  0  0  0  0
  8 34  1  0  0  0  0
  8  6  2  0  0  0  0
  9  7  1  0  0  0  0
  9 11  2  0  0  0  0
 10  1  1  6  0  0  0
 10  8  1  0  0  0  0
 11 27  1  0  0  0  0
 12 10  1  0  0  0  0
 12 14  1  1  0  0  0
 13 15  1  1  0  0  0
 13 11  1  0  0  0  0
 13 28  1  0  0  0  0
 14  4  2  0  0  0  0
 16 39  1  0  0  0  0
 16 38  1  0  0  0  0
 16 10  1  0  0  0  0
 17 15  2  0  0  0  0
 17 19  1  0  0  0  0
 18 16  1  0  0  0  0
 19 41  1  0  0  0  0
 19 21  2  0  0  0  0
 20 18  2  0  0  0  0
 20 22  1  0  0  0  0
 21 42  1  0  0  0  0
 22 44  1  0  0  0  0
 22 12  1  0  0  0  0
 23 46  1  0  0  0  0
 23 18  1  0  0  0  0
 24 23  1  0  0  0  0
 25 24  2  0  0  0  0
 25 26  1  0  0  0  0
 26 50  1  0  0  0  0
 26 20  1  0  0  0  0
 27  3  1  0  0  0  0
 27  1  1  0  0  0  0
 28 21  1  0  0  0  0
 28  1  1  0  0  0  0
 33  7  1  0  0  0  0
 35  9  1  0  0  0  0
 36 14  1  0  0  0  0
 37 15  1  0  0  0  0
 40 17  1  0  0  0  0
 43 22  1  0  0  0  0
 45 23  1  0  0  0  0
 47 24  1  0  0  0  0
 48 25  1  0  0  0  0
 49 26  1  0  0  0  0
M  END
$$$$
