CSD_code = LOQTUH | q = 0 | S = 0 | Stoichiometry = C4H9Cl2N3Pt | MND = 4
 OpenBabel04212202063D

 19 19  0  0  1  0  0  0  0  0999 V2000
    1.0233    0.6804    2.1473 Pt  0  0  0  0  0  0  0  0  0  0  0  0
    3.0585    0.4080    3.0416 Cl  0  0  0  0  0  0  0  0  0  0  0  0
    0.0629   -0.8897    3.4226 Cl  0  0  0  0  0  0  0  0  0  0  0  0
   -0.7462    0.9661    1.3242 N   0  0  0  0  0  0  0  0  0  0  0  0
   -1.4904    0.3742    1.6902 H   0  0  0  0  0  0  0  0  0  0  0  0
    1.8145    2.0740    0.9974 N   0  0  0  0  0  0  0  0  0  0  0  0
    2.8105    2.2340    1.1404 H   0  0  0  0  0  0  0  0  0  0  0  0
   -0.1222    2.6473   -0.1601 N   0  0  0  0  0  0  0  0  0  0  0  0
   -0.4795    3.2617   -0.8786 H   0  0  0  0  0  0  0  0  0  0  0  0
   -1.0524    1.8013    0.4032 C   0  0  2  0  0  3  0  0  0  0  0  0
    1.2216    2.7837    0.1117 C   0  0  2  0  0  3  0  0  0  0  0  0
   -2.4347    1.9547   -0.1596 C   0  0  0  0  0  0  0  0  0  0  0  0
   -3.1185    1.2617    0.3217 H   0  0  0  0  0  0  0  0  0  0  0  0
   -2.4350    1.7547   -1.2305 H   0  0  0  0  0  0  0  0  0  0  0  0
   -2.7999    2.9688   -0.0004 H   0  0  0  0  0  0  0  0  0  0  0  0
    1.9079    3.8276   -0.7192 C   0  0  0  0  0  0  0  0  0  0  0  0
    2.9595    3.8911   -0.4546 H   0  0  0  0  0  0  0  0  0  0  0  0
    1.4505    4.8034   -0.5588 H   0  0  0  0  0  0  0  0  0  0  0  0
    1.8309    3.5828   -1.7781 H   0  0  0  0  0  0  0  0  0  0  0  0
  1  2  1  0  0  0  0
  1  3  1  0  0  0  0
  4  5  1  0  0  0  0
  4  1  1  0  0  0  0
  6  7  1  0  0  0  0
  6  1  1  0  0  0  0
  8 11  1  0  0  0  0
  8 10  1  0  0  0  0
  9  8  1  0  0  0  0
 10 12  1  1  0  0  0
 10  4  1  0  0  0  0
 11 16  1  6  0  0  0
 11  6  1  0  0  0  0
 12 15  1  0  0  0  0
 12 13  1  0  0  0  0
 14 12  1  0  0  0  0
 16 18  1  0  0  0  0
 16 17  1  0  0  0  0
 19 16  1  0  0  0  0
M  END
$$$$
