CSD_code = LOQVAP | q = 0 | S = 0 | Stoichiometry = C6H13Cl2N3Pt | MND = 4
 OpenBabel04212202063D

 25 25  0  0  1  0  0  0  0  0999 V2000
    3.1016   10.0414   11.3177 Pt  0  0  0  0  0  0  0  0  0  0  0  0
    1.6172   11.7116   11.4876 Cl  0  0  0  0  0  0  0  0  0  0  0  0
    3.3776   10.2703    9.1056 Cl  0  0  0  0  0  0  0  0  0  0  0  0
    4.4010    8.5643   11.2316 N   0  0  0  0  0  0  0  0  0  0  0  0
    4.7791    8.3733   10.3047 H   0  0  0  0  0  0  0  0  0  0  0  0
    2.9015    9.7924   13.2606 N   0  0  0  0  0  0  0  0  0  0  0  0
    2.2432   10.4252   13.7132 H   0  0  0  0  0  0  0  0  0  0  0  0
    4.3890    8.0178   13.4938 N   0  0  0  0  0  0  0  0  0  0  0  0
    4.7901    7.3856   14.1728 H   0  0  0  0  0  0  0  0  0  0  0  0
    4.8228    7.8392   12.2006 C   0  0  2  0  0  3  0  0  0  0  0  0
    3.4909    8.9280   14.0010 C   0  0  2  0  0  3  0  0  0  0  0  0
    5.8645    6.7648   12.0362 C   0  0  0  0  0  0  0  0  0  0  0  0
    5.8984    6.4588   10.9901 H   0  0  0  0  0  0  0  0  0  0  0  0
    5.6009    5.8905   12.6362 H   0  0  0  0  0  0  0  0  0  0  0  0
    7.2421    7.2868   12.4556 C   0  0  0  0  0  0  0  0  0  0  0  0
    7.5194    8.1459   11.8505 H   0  0  0  0  0  0  0  0  0  0  0  0
    7.9908    6.5116   12.3178 H   0  0  0  0  0  0  0  0  0  0  0  0
    7.2476    7.5882   13.5008 H   0  0  0  0  0  0  0  0  0  0  0  0
    3.2244    8.7851   15.4759 C   0  0  0  0  0  0  0  0  0  0  0  0
    2.8021    9.7171   15.8530 H   0  0  0  0  0  0  0  0  0  0  0  0
    4.1582    8.5958   16.0105 H   0  0  0  0  0  0  0  0  0  0  0  0
    2.2375    7.6422   15.7325 C   0  0  0  0  0  0  0  0  0  0  0  0
    1.3013    7.8294   15.2133 H   0  0  0  0  0  0  0  0  0  0  0  0
    2.0318    7.5609   16.7962 H   0  0  0  0  0  0  0  0  0  0  0  0
    2.6371    6.6917   15.3858 H   0  0  0  0  0  0  0  0  0  0  0  0
  1  2  1  0  0  0  0
  1  6  1  0  0  0  0
  3  1  1  0  0  0  0
  4  1  1  0  0  0  0
  4 10  1  0  0  0  0
  5  4  1  0  0  0  0
  6  7  1  0  0  0  0
  6 11  1  0  0  0  0
  8 11  1  0  0  0  0
  8  9  1  0  0  0  0
 10 12  1  1  0  0  0
 10  8  1  0  0  0  0
 11 19  1  6  0  0  0
 12 15  1  0  0  0  0
 12 14  1  0  0  0  0
 13 12  1  0  0  0  0
 15 18  1  0  0  0  0
 16 15  1  0  0  0  0
 17 15  1  0  0  0  0
 19 22  1  0  0  0  0
 19 20  1  0  0  0  0
 19 21  1  0  0  0  0
 22 24  1  0  0  0  0
 23 22  1  0  0  0  0
 25 22  1  0  0  0  0
M  END
$$$$
