CSD_code = LOQXEU | q = 1 | S = 0 | Stoichiometry = C20H22ClN2O5Pt(1+) | MND = 6
 OpenBabel04212202063D

 51 50  0  0  1  0  0  0  0  0999 V2000
   -0.0798    3.2440    2.5678 Pt  0  0  0  0  0  0  0  0  0  0  0  0
   -1.5883    3.6647    0.9266 Cl  0  0  0  0  0 15  0  0  0  0  0  0
    1.2009    2.8462    4.3841 O   0  0  0  0  0  0  0  0  0  0  0  0
   -1.5768    1.8544    3.6090 N   0  0  0  0  0  0  0  0  0  0  0  0
   -1.2580    4.5293    3.9016 N   0  0  0  0  0  0  0  0  0  0  0  0
    1.4801    3.8700    1.3248 C   0  0  2  0  0  0  0  0  0  0  0  0
    1.2716    2.4660    1.1216 C   0  0  0  0  0  3  0  0  0  0  0  0
    3.7788    4.2830    1.3318 O   0  0  0  0  0  0  0  0  0  0  0  0
    2.6522    4.7707    3.2090 O   0  0  0  0  0  0  0  0  0  0  0  0
    2.4050    0.4541    0.8642 O   0  0  0  0  0  0  0  0  0  0  0  0
    2.8664    1.6467    2.7049 O   0  0  0  0  0  0  0  0  0  0  0  0
    2.6973    4.3476    2.0725 C   0  0  0  0  0  0  0  0  0  0  0  0
    5.0110    4.6992    1.9230 C   0  0  0  0  0  0  0  0  0  0  0  0
    2.2582    1.4995    1.6553 C   0  0  0  0  0  0  0  0  0  0  0  0
    3.3573   -0.5352    1.2482 C   0  0  0  0  0  0  0  0  0  0  0  0
   -1.1191    5.8430    3.9651 C   0  0  0  0  0  0  0  0  0  0  0  0
   -1.8356    6.5932    4.9146 C   0  0  0  0  0  0  0  0  0  0  0  0
   -2.6954    5.9690    5.7793 C   0  0  0  0  0  0  0  0  0  0  0  0
   -3.7584    3.8494    6.5355 C   0  0  0  0  0  0  0  0  0  0  0  0
   -3.9100    2.5092    6.3980 C   0  0  0  0  0  0  0  0  0  0  0  0
   -3.3239    0.4060    5.1999 C   0  0  0  0  0  0  0  0  0  0  0  0
   -2.6054   -0.2001    4.2033 C   0  0  0  0  0  0  0  0  0  0  0  0
   -1.7307    0.5599    3.4055 C   0  0  0  0  0  0  0  0  0  0  0  0
   -2.2789    2.4754    4.5714 C   0  0  0  0  0  0  0  0  0  0  0  0
   -3.1841    1.7907    5.4082 C   0  0  0  0  0  0  0  0  0  0  0  0
   -2.1134    3.8914    4.7206 C   0  0  0  0  0  0  0  0  0  0  0  0
   -2.8674    4.5753    5.6972 C   0  0  0  0  0  0  0  0  0  0  0  0
   -0.1921    6.5019    3.0079 C   0  0  0  0  0  0  0  0  0  0  0  0
   -0.9480   -0.0727    2.3081 C   0  0  0  0  0  0  0  0  0  0  0  0
    1.1844    4.5362    0.5161 H   0  0  0  0  0  0  0  0  0  0  0  0
    0.8065    2.1492    0.1904 H   0  0  0  0  0  0  0  0  0  0  0  0
    5.7008    4.8659    1.1004 H   0  0  0  0  0  0  0  0  0  0  0  0
    5.3845    3.9130    2.5805 H   0  0  0  0  0  0  0  0  0  0  0  0
    4.8649    5.6134    2.4995 H   0  0  0  0  0  0  0  0  0  0  0  0
    3.1804   -1.3908    0.6026 H   0  0  0  0  0  0  0  0  0  0  0  0
    3.2269   -0.8050    2.2976 H   0  0  0  0  0  0  0  0  0  0  0  0
    4.3696   -0.1552    1.1035 H   0  0  0  0  0  0  0  0  0  0  0  0
   -1.6980    7.6620    4.9486 H   0  0  0  0  0  0  0  0  0  0  0  0
   -3.2506    6.5313    6.5147 H   0  0  0  0  0  0  0  0  0  0  0  0
   -4.3151    4.3964    7.2806 H   0  0  0  0  0  0  0  0  0  0  0  0
   -4.5901    1.9605    7.0311 H   0  0  0  0  0  0  0  0  0  0  0  0
   -4.0024   -0.1597    5.8205 H   0  0  0  0  0  0  0  0  0  0  0  0
   -2.7028   -1.2575    4.0160 H   0  0  0  0  0  0  0  0  0  0  0  0
   -0.4146    6.1674    1.9946 H   0  0  0  0  0  0  0  0  0  0  0  0
    0.8380    6.2307    3.2401 H   0  0  0  0  0  0  0  0  0  0  0  0
   -0.2848    7.5824    3.0560 H   0  0  0  0  0  0  0  0  0  0  0  0
   -0.8673    0.6143    1.4668 H   0  0  0  0  0  0  0  0  0  0  0  0
   -1.4160   -0.9953    1.9773 H   0  0  0  0  0  0  0  0  0  0  0  0
    0.0557   -0.3086    2.6612 H   0  0  0  0  0  0  0  0  0  0  0  0
    1.6496    3.6923    4.5530 H   0  0  0  0  0  0  0  0  0  0  0  0
    1.9164    2.2686    4.0343 H   0  0  0  0  0  0  0  0  0  0  0  0
  3 50  1  0  0  0  0
  4 24  1  0  0  0  0
  5 16  2  0  0  0  0
  5 26  1  0  0  0  0
  6 30  1  6  0  0  0
  6 12  1  0  0  0  0
  6  1  1  0  0  0  0
  7  6  1  0  0  0  0
  7 14  1  0  0  0  0
  8 13  1  0  0  0  0
  8 12  1  0  0  0  0
 10 15  1  0  0  0  0
 10 14  1  0  0  0  0
 12  9  2  0  0  0  0
 13 34  1  0  0  0  0
 13 33  1  0  0  0  0
 14 11  2  0  0  0  0
 15 36  1  0  0  0  0
 16 17  1  0  0  0  0
 17 38  1  0  0  0  0
 17 18  2  0  0  0  0
 18 39  1  0  0  0  0
 19 40  1  0  0  0  0
 20 19  1  0  0  0  0
 20 41  1  0  0  0  0
 21 25  1  0  0  0  0
 21 42  1  0  0  0  0
 22 21  2  0  0  0  0
 23  4  2  0  0  0  0
 23 22  1  0  0  0  0
 24 26  2  0  0  0  0
 24 25  1  0  0  0  0
 25 20  2  0  0  0  0
 26 27  1  0  0  0  0
 27 18  1  0  0  0  0
 27 19  2  0  0  0  0
 28 46  1  0  0  0  0
 28 45  1  0  0  0  0
 28 16  1  0  0  0  0
 29 49  1  0  0  0  0
 29 23  1  0  0  0  0
 31  7  1  0  0  0  0
 32 13  1  0  0  0  0
 35 15  1  0  0  0  0
 37 15  1  0  0  0  0
 43 22  1  0  0  0  0
 44 28  1  0  0  0  0
 47 29  1  0  0  0  0
 48 29  1  0  0  0  0
 51  3  1  0  0  0  0
M  END
$$$$
