CSD_code = LOQXIA | q = 0 | S = 0 | Stoichiometry = C14H14Cl2N4Pd | MND = 4
 OpenBabel04212202063D

 35 38  0  0  1  0  0  0  0  0999 V2000
    2.7082    2.1480    6.1872 Pd  0  0  0  0  0  0  0  0  0  0  0  0
    1.2985    3.4102    7.4232 Cl  0  0  0  0  0  0  0  0  0  0  0  0
    1.1378    1.8739    4.5927 Cl  0  0  0  0  0  0  0  0  0  0  0  0
    4.2163    0.2180    4.2526 N   0  0  0  0  0  0  0  0  0  0  0  0
    5.3872    1.8190    5.0802 N   0  0  0  0  0  0  0  0  0  0  0  0
    5.3595    2.7182    7.2531 N   0  0  0  0  0  0  0  0  0  0  0  0
    4.0998    2.0731    8.8765 N   0  0  0  0  0  0  0  0  0  0  0  0
    3.1306   -0.6799    3.9585 C   0  0  0  0  0  0  0  0  0  0  0  0
    4.1397    1.2775    5.0685 C   0  0  2  0  0  3  0  0  0  0  0  0
    6.2287    1.0939    4.2752 C   0  0  0  0  0  0  0  0  0  0  0  0
    5.4858    0.0901    3.7540 C   0  0  0  0  0  0  0  0  0  0  0  0
    5.7301    2.9706    5.8836 C   0  0  0  0  0  0  0  0  0  0  0  0
    4.0965    2.3494    7.5608 C   0  0  0  0  0  0  0  0  0  0  0  0
    5.3536    2.2922    9.3965 C   0  0  0  0  0  0  0  0  0  0  0  0
    6.1510    2.6826    8.3756 C   0  0  0  0  0  0  0  0  0  0  0  0
    2.9692    1.6101    9.5834 C   0  0  0  0  0  0  0  0  0  0  0  0
    2.0866    0.7247    8.9671 C   0  0  0  0  0  0  0  0  0  0  0  0
    0.9624    0.3009    9.6520 C   0  0  0  0  0  0  0  0  0  0  0  0
    0.7217    0.7407   10.9438 C   0  0  0  0  0  0  0  0  0  0  0  0
    1.6094    1.6072   11.5569 C   0  0  0  0  0  0  0  0  0  0  0  0
    2.7338    2.0456   10.8803 C   0  0  0  0  0  0  0  0  0  0  0  0
    2.1906   -0.1541    4.1634 H   0  0  0  0  0  0  0  0  0  0  0  0
    3.1644   -0.9672    2.9090 H   0  0  0  0  0  0  0  0  0  0  0  0
    3.1997   -1.5754    4.5798 H   0  0  0  0  0  0  0  0  0  0  0  0
    7.2572    1.3529    4.1307 H   0  0  0  0  0  0  0  0  0  0  0  0
    5.7585   -0.6906    3.0740 H   0  0  0  0  0  0  0  0  0  0  0  0
    6.8044    3.1628    5.8135 H   0  0  0  0  0  0  0  0  0  0  0  0
    5.1640    3.8465    5.5164 H   0  0  0  0  0  0  0  0  0  0  0  0
    5.5855    2.1330   10.4292 H   0  0  0  0  0  0  0  0  0  0  0  0
    7.1885    2.9460    8.3614 H   0  0  0  0  0  0  0  0  0  0  0  0
    2.2760    0.3681    7.9472 H   0  0  0  0  0  0  0  0  0  0  0  0
    0.2679   -0.3693    9.1698 H   0  0  0  0  0  0  0  0  0  0  0  0
   -0.1625    0.4131   11.4688 H   0  0  0  0  0  0  0  0  0  0  0  0
    1.4209    1.9585   12.5601 H   0  0  0  0  0  0  0  0  0  0  0  0
    3.4073    2.7505   11.3442 H   0  0  0  0  0  0  0  0  0  0  0  0
  1  2  1  0  0  0  0
  1 13  2  0  0  0  0
  3  1  1  0  0  0  0
  5 12  1  0  0  0  0
  6 13  1  0  0  0  0
  6 15  1  0  0  0  0
  7 14  1  0  0  0  0
  7 16  1  0  0  0  0
  8 22  1  0  0  0  0
  8  4  1  0  0  0  0
  8 24  1  0  0  0  0
  9  4  1  1  0  0  0
  9  5  1  0  0  0  0
  9  1  1  0  0  0  0
 10  5  1  0  0  0  0
 11  4  1  0  0  0  0
 11 10  2  0  0  0  0
 12  6  1  0  0  0  0
 13  7  1  0  0  0  0
 14 29  1  0  0  0  0
 15 14  2  0  0  0  0
 16 21  1  0  0  0  0
 17 16  2  0  0  0  0
 17 18  1  0  0  0  0
 18 19  2  0  0  0  0
 19 33  1  0  0  0  0
 19 20  1  0  0  0  0
 20 34  1  0  0  0  0
 21 35  1  0  0  0  0
 21 20  2  0  0  0  0
 23  8  1  0  0  0  0
 25 10  1  0  0  0  0
 26 11  1  0  0  0  0
 27 12  1  0  0  0  0
 28 12  1  0  0  0  0
 30 15  1  0  0  0  0
 31 17  1  0  0  0  0
 32 18  1  0  0  0  0
M  END
$$$$
