CSD_code = LORWEU | q = 0 | S = 0 | Stoichiometry = C13H8ClN4O3Re | MND = 6
 OpenBabel04212202063D

 30 33  0  0  1  0  0  0  0  0999 V2000
   11.7795    1.3793    7.2446 Re  0  0  0  0  0  0  0  0  0  0  0  0
   12.3843    2.3250    9.1108 N   0  0  0  0  0  0  0  0  0  0  0  0
   11.8714    4.2721    7.9202 N   0  0  0  0  0  0  0  0  0  0  0  0
   11.4262    3.3912    7.0346 N   0  0  0  0  0  0  0  0  0  0  0  0
   10.4758    2.8123    5.0480 N   0  0  0  0  0  0  0  0  0  0  0  0
   13.5855    1.8171    5.9314 Cl  0  0  0  0  0  0  0  0  0  0  0  0
   10.0920    0.8403    8.0593 C   0  0  0  0  0  2  0  0  0  0  0  0
   10.5543    1.4546    5.4851 C   0  0  0  0  0  0  0  0  0  0  0  0
   12.3942   -0.4749    7.3899 C   0  0  0  0  0  2  0  0  0  0  0  0
    9.0871    0.5027    8.4976 O   0  0  0  0  0  1  0  0  0  0  0  0
    9.9682    0.6018    4.8791 O   0  0  0  0  0  0  0  0  0  0  0  0
   12.7995   -1.5374    7.4784 O   0  0  0  0  0  1  0  0  0  0  0  0
   12.3284    3.6945    9.0255 C   0  0  0  0  0  0  0  0  0  0  0  0
   12.7293    4.4990   10.1196 C   0  0  0  0  0  0  0  0  0  0  0  0
   12.6623    5.5678   10.0023 H   0  0  0  0  0  0  0  0  0  0  0  0
   13.1557    3.9046   11.2705 C   0  0  0  0  0  0  0  0  0  0  0  0
   13.4722    4.4983   12.1144 H   0  0  0  0  0  0  0  0  0  0  0  0
   13.1677    2.5028   11.3520 C   0  0  0  0  0  0  0  0  0  0  0  0
   13.5055    2.0039   12.2449 H   0  0  0  0  0  0  0  0  0  0  0  0
   12.7680    1.7683   10.2638 C   0  0  0  0  0  0  0  0  0  0  0  0
   12.7756    0.6862   10.2860 H   0  0  0  0  0  0  0  0  0  0  0  0
   10.9778    3.8107    5.8629 C   0  0  2  0  0  3  0  0  0  0  0  0
   11.0023    5.1415    5.3837 C   0  0  0  0  0  0  0  0  0  0  0  0
   11.3962    5.8915    6.0505 H   0  0  0  0  0  0  0  0  0  0  0  0
   10.5660    5.4192    4.1245 C   0  0  0  0  0  0  0  0  0  0  0  0
   10.5912    6.4270    3.7418 H   0  0  0  0  0  0  0  0  0  0  0  0
   10.0823    4.3695    3.3042 C   0  0  0  0  0  0  0  0  0  0  0  0
    9.7348    4.5765    2.3058 H   0  0  0  0  0  0  0  0  0  0  0  0
   10.0552    3.1018    3.7832 C   0  0  0  0  0  0  0  0  0  0  0  0
    9.7015    2.2504    3.2204 H   0  0  0  0  0  0  0  0  0  0  0  0
  1  9  1  0  0  0  0
  1  7  1  0  0  0  0
  1  2  1  0  0  0  0
  2 20  1  0  0  0  0
  3 13  2  0  0  0  0
  4  1  1  0  0  0  0
  4  3  1  0  0  0  0
  5  8  1  0  0  0  0
  5 22  1  0  0  0  0
  6  1  1  0  0  0  0
  7 10  1  0  0  0  0
  8  1  1  0  0  0  0
  9 12  1  0  0  0  0
 11  8  2  0  0  0  0
 13  2  1  0  0  0  0
 13 14  1  0  0  0  0
 14 16  2  0  0  0  0
 15 14  1  0  0  0  0
 16 18  1  0  0  0  0
 16 17  1  0  0  0  0
 18 19  1  0  0  0  0
 20 21  1  0  0  0  0
 20 18  2  0  0  0  0
 22 23  1  6  0  0  0
 22  4  1  0  0  0  0
 23 24  1  0  0  0  0
 25 23  2  0  0  0  0
 26 25  1  0  0  0  0
 27 29  2  0  0  0  0
 27 25  1  0  0  0  0
 28 27  1  0  0  0  0
 29  5  1  0  0  0  0
 30 29  1  0  0  0  0
M  END
$$$$
