CSD_code = LOSTUK | q = 0 | S = 0 | Stoichiometry = C23H19F2IN2Pd | MND = 4
 OpenBabel04212202063D

 48 52  0  0  0  0  0  0  0  0999 V2000
    3.1495    3.9033    1.5510 Pd  0  0  1  0  0  0  0  0  0  0  0  0
    3.5439    4.6226    3.9506 I   0  0  0  0  0  0  0  0  0  0  0  0
    2.6535    3.3636   -0.3934 N   0  0  0  0  0  0  0  0  0  0  0  0
    2.0103    5.6765    0.9108 N   0  0  0  0  0  0  0  0  0  0  0  0
    9.3737    1.7430    3.8249 F   0  0  0  0  0  0  0  0  0  0  0  0
    9.4784    1.2460    1.7091 F   0  0  0  0  0  0  0  0  0  0  0  0
    4.1035    2.1870    1.8674 C   0  0  0  0  0  0  0  0  0  0  0  0
    3.4329    1.1188    2.4395 C   0  0  0  0  0  0  0  0  0  0  0  0
    2.4400    1.2591    2.8636 H   0  0  0  0  0  0  0  0  0  0  0  0
    4.0371   -0.1297    2.4893 C   0  0  0  0  0  0  0  0  0  0  0  0
    3.5192   -0.9624    2.9429 H   0  0  0  0  0  0  0  0  0  0  0  0
    5.3026   -0.3004    1.9573 C   0  0  0  0  0  0  0  0  0  0  0  0
    5.7748   -1.2711    1.9882 H   0  0  0  0  0  0  0  0  0  0  0  0
    5.9755    0.7694    1.3897 C   0  0  0  0  0  0  0  0  0  0  0  0
    6.9591    0.6139    0.9737 H   0  0  0  0  0  0  0  0  0  0  0  0
    5.3913    2.0293    1.3519 C   0  0  0  0  0  0  0  0  0  0  0  0
    6.0789    3.2352    0.7441 C   0  0  0  0  0  0  0  0  0  0  0  0
    5.6405    4.1492    1.1966 H   0  0  0  0  0  0  0  0  0  0  0  0
    5.8686    3.2652   -0.3337 H   0  0  0  0  0  0  0  0  0  0  0  0
    7.6026    3.2600    0.9241 C   0  0  0  0  0  0  0  0  0  0  0  0
    8.0664    2.5279    0.2616 H   0  0  0  0  0  0  0  0  0  0  0  0
    7.9661    4.2486    0.6276 H   0  0  0  0  0  0  0  0  0  0  0  0
    8.0264    3.0002    2.3438 C   0  0  0  0  0  0  0  0  0  0  0  0
    8.9028    2.0502    2.6150 C   0  0  0  0  0  0  0  0  0  0  0  0
    7.4326    3.8341    3.4315 C   0  0  0  0  0  0  0  0  0  0  0  0
    7.9735    3.7070    4.3641 H   0  0  0  0  0  0  0  0  0  0  0  0
    6.3965    3.5434    3.5985 H   0  0  0  0  0  0  0  0  0  0  0  0
    7.4448    4.8852    3.1521 H   0  0  0  0  0  0  0  0  0  0  0  0
    2.9468    2.2377   -1.0232 C   0  0  0  0  0  0  0  0  0  0  0  0
    3.5428    1.5136   -0.4809 H   0  0  0  0  0  0  0  0  0  0  0  0
    2.5253    1.9620   -2.3234 C   0  0  0  0  0  0  0  0  0  0  0  0
    2.7992    1.0243   -2.7799 H   0  0  0  0  0  0  0  0  0  0  0  0
    1.7697    2.8908   -2.9996 C   0  0  0  0  0  0  0  0  0  0  0  0
    1.4283    2.7125   -4.0083 H   0  0  0  0  0  0  0  0  0  0  0  0
    1.4369    4.0929   -2.3559 C   0  0  0  0  0  0  0  0  0  0  0  0
    0.6539    5.1030   -2.9839 C   0  0  0  0  0  0  0  0  0  0  0  0
    0.3151    4.9238   -3.9935 H   0  0  0  0  0  0  0  0  0  0  0  0
    0.3403    6.2509   -2.3383 C   0  0  0  0  0  0  0  0  0  0  0  0
   -0.2552    7.0135   -2.8180 H   0  0  0  0  0  0  0  0  0  0  0  0
    0.7834    6.4853   -1.0066 C   0  0  0  0  0  0  0  0  0  0  0  0
    0.4739    7.6569   -0.2963 C   0  0  0  0  0  0  0  0  0  0  0  0
   -0.1240    8.4221   -0.7695 H   0  0  0  0  0  0  0  0  0  0  0  0
    0.9369    7.8041    0.9887 C   0  0  0  0  0  0  0  0  0  0  0  0
    0.7180    8.6879    1.5659 H   0  0  0  0  0  0  0  0  0  0  0  0
    1.7055    6.7834    1.5558 C   0  0  0  0  0  0  0  0  0  0  0  0
    2.0803    6.8753    2.5686 H   0  0  0  0  0  0  0  0  0  0  0  0
    1.5662    5.5071   -0.3523 C   0  0  0  0  0  0  0  0  0  0  0  0
    1.9023    4.2900   -1.0356 C   0  0  0  0  0  0  0  0  0  0  0  0
  1  7  1  0  0  0  0
  1  2  1  1  0  0  0
  3  1  1  0  0  0  0
  4  1  1  0  0  0  0
  4 45  1  0  0  0  0
  6 24  1  0  0  0  0
  7  8  1  0  0  0  0
  8 10  2  0  0  0  0
  8  9  1  0  0  0  0
 10 11  1  0  0  0  0
 12 13  1  0  0  0  0
 12 10  1  0  0  0  0
 14 12  2  0  0  0  0
 15 14  1  0  0  0  0
 16 14  1  0  0  0  0
 16  7  2  0  0  0  0
 17 20  1  0  0  0  0
 17 18  1  0  0  0  0
 17 16  1  0  0  0  0
 19 17  1  0  0  0  0
 20 23  1  0  0  0  0
 21 20  1  0  0  0  0
 22 20  1  0  0  0  0
 23 24  2  0  0  0  0
 23 25  1  0  0  0  0
 24  5  1  0  0  0  0
 25 27  1  0  0  0  0
 25 26  1  0  0  0  0
 28 25  1  0  0  0  0
 29 30  1  0  0  0  0
 29  3  1  0  0  0  0
 31 29  2  0  0  0  0
 32 31  1  0  0  0  0
 33 35  2  0  0  0  0
 33 31  1  0  0  0  0
 34 33  1  0  0  0  0
 35 48  1  0  0  0  0
 36 35  1  0  0  0  0
 36 38  2  0  0  0  0
 37 36  1  0  0  0  0
 38 40  1  0  0  0  0
 39 38  1  0  0  0  0
 40 47  1  0  0  0  0
 40 41  2  0  0  0  0
 41 43  1  0  0  0  0
 42 41  1  0  0  0  0
 43 45  2  0  0  0  0
 43 44  1  0  0  0  0
 45 46  1  0  0  0  0
 47  4  1  0  0  0  0
 48  3  1  0  0  0  0
 48 47  2  0  0  0  0
M  END
$$$$
