CSD_code = LOSTOC | q = 0 | S = 0 | Stoichiometry = C16H32ClF3N4O3STi | MND = 6
 OpenBabel04212202063D

 61 64  0  0  1  0  0  0  0  0999 V2000
    4.6566    5.1803    8.6085 Ti  0  0  0  0  0  0  0  0  0  0  0  0
    3.4616    4.0728    8.2084 N   0  0  0  0  0  2  0  0  0  0  0  0
    6.3484    3.6736    8.8033 N   0  0  1  0  0  4  0  0  0  0  0  0
    4.4047    4.5064   10.6893 N   0  0  1  0  0  4  0  0  0  0  0  0
    6.2173    6.5480    9.7162 N   0  0  2  0  0  4  0  0  0  0  0  0
    7.4186    5.9432    9.1368 C   0  0  0  0  0  0  0  0  0  0  0  0
    7.5184    4.4215    9.3004 C   0  0  0  0  0  0  0  0  0  0  0  0
    5.8596    2.7118    9.7985 C   0  0  0  0  0  0  0  0  0  0  0  0
    5.2853    3.3906   11.0462 C   0  0  0  0  0  0  0  0  0  0  0  0
    4.7059    5.6947   11.4866 C   0  0  0  0  0  0  0  0  0  0  0  0
    6.0756    6.2979   11.1549 C   0  0  0  0  0  0  0  0  0  0  0  0
    6.7208    2.9574    7.5426 C   0  0  0  0  0  0  0  0  0  0  0  0
    5.5212    2.3536    6.8160 C   0  0  0  0  0  0  0  0  0  0  0  0
    7.7671    1.8500    7.7445 C   0  0  0  0  0  0  0  0  0  0  0  0
    2.9870    4.1510   10.9062 C   0  0  0  0  0  0  0  0  0  0  0  0
    2.4907    2.9329   10.1273 C   0  0  0  0  0  0  0  0  0  0  0  0
    2.4164    3.2319    8.6029 C   0  0  0  0  0  0  0  0  0  0  0  0
    6.1696    8.0129    9.4659 C   0  0  0  0  0  0  0  0  0  0  0  0
    7.4115    8.7592    9.9845 C   0  0  0  0  0  0  0  0  0  0  0  0
    5.9591    8.3961    8.0049 C   0  0  0  0  0  0  0  0  0  0  0  0
    1.8540    8.3874    8.3210 C   0  0  0  0  0  0  0  0  0  0  0  0
    2.3644    6.5664    8.1989 S   0  0  0  0  0  0  0  0  0  0  0  0
    3.5918    6.7222    9.0111 O   0  0  0  0  0  0  0  0  0  0  0  0
    1.2984    5.9162    8.8978 O   0  0  0  0  0  1  0  0  0  0  0  0
    2.5669    6.3446    6.8083 O   0  0  0  0  0  1  0  0  0  0  0  0
    1.8469    8.7279    9.6240 F   0  0  0  0  0  0  0  0  0  0  0  0
    2.7499    9.1858    7.7243 F   0  0  0  0  0  0  0  0  0  0  0  0
    0.6524    8.6865    7.8261 F   0  0  0  0  0  0  0  0  0  0  0  0
    5.4804    5.6219    6.5804 Cl  0  0  0  0  0  0  0  0  0  0  0  0
    8.3370    6.3675    9.5779 H   0  0  0  0  0  0  0  0  0  0  0  0
    7.3948    6.1571    8.0633 H   0  0  0  0  0  0  0  0  0  0  0  0
    7.7082    4.1569   10.3460 H   0  0  0  0  0  0  0  0  0  0  0  0
    8.4183    4.1323    8.7462 H   0  0  0  0  0  0  0  0  0  0  0  0
    6.6602    2.0249   10.1182 H   0  0  0  0  0  0  0  0  0  0  0  0
    5.0678    2.1443    9.3087 H   0  0  0  0  0  0  0  0  0  0  0  0
    6.0987    3.7470   11.6852 H   0  0  0  0  0  0  0  0  0  0  0  0
    4.7419    2.6405   11.6360 H   0  0  0  0  0  0  0  0  0  0  0  0
    4.6620    5.4637   12.5669 H   0  0  0  0  0  0  0  0  0  0  0  0
    3.9408    6.4440   11.2631 H   0  0  0  0  0  0  0  0  0  0  0  0
    6.1543    7.2271   11.7319 H   0  0  0  0  0  0  0  0  0  0  0  0
    6.8830    5.6507   11.5130 H   0  0  0  0  0  0  0  0  0  0  0  0
    7.1307    3.7369    6.8915 H   0  0  0  0  0  0  0  0  0  0  0  0
    5.7957    2.1738    5.7801 H   0  0  0  0  0  0  0  0  0  0  0  0
    5.2143    1.4057    7.2551 H   0  0  0  0  0  0  0  0  0  0  0  0
    4.6850    3.0569    6.8392 H   0  0  0  0  0  0  0  0  0  0  0  0
    8.1378    1.5531    6.7674 H   0  0  0  0  0  0  0  0  0  0  0  0
    8.6226    2.1628    8.3385 H   0  0  0  0  0  0  0  0  0  0  0  0
    7.3284    0.9701    8.2095 H   0  0  0  0  0  0  0  0  0  0  0  0
    2.8353    3.9720   11.9854 H   0  0  0  0  0  0  0  0  0  0  0  0
    2.3736    5.0001   10.5916 H   0  0  0  0  0  0  0  0  0  0  0  0
    1.4886    2.6982   10.4892 H   0  0  0  0  0  0  0  0  0  0  0  0
    3.1217    2.0610   10.3117 H   0  0  0  0  0  0  0  0  0  0  0  0
    1.4529    3.7210    8.3905 H   0  0  0  0  0  0  0  0  0  0  0  0
    2.4333    2.2757    8.0483 H   0  0  0  0  0  0  0  0  0  0  0  0
    5.2900    8.3662   10.0178 H   0  0  0  0  0  0  0  0  0  0  0  0
    7.1819    9.8195   10.0475 H   0  0  0  0  0  0  0  0  0  0  0  0
    7.7238    8.4282   10.9733 H   0  0  0  0  0  0  0  0  0  0  0  0
    8.2477    8.6427    9.2993 H   0  0  0  0  0  0  0  0  0  0  0  0
    5.8336    9.4755    7.9468 H   0  0  0  0  0  0  0  0  0  0  0  0
    6.8026    8.1155    7.3787 H   0  0  0  0  0  0  0  0  0  0  0  0
    5.0580    7.9378    7.6046 H   0  0  0  0  0  0  0  0  0  0  0  0
  1  3  1  0  0  0  0
  1 23  1  0  0  0  0
  1  5  1  0  0  0  0
  1  4  1  0  0  0  0
  2 17  1  0  0  0  0
  2  1  1  0  0  0  0
  3 12  1  6  0  0  0
  3  7  1  0  0  0  0
  3  8  1  0  0  0  0
  4 15  1  1  0  0  0
  4  9  1  0  0  0  0
  4 10  1  0  0  0  0
  5 18  1  6  0  0  0
  5 11  1  0  0  0  0
  6  7  1  0  0  0  0
  6 30  1  0  0  0  0
  6  5  1  0  0  0  0
  7 32  1  0  0  0  0
  8 34  1  0  0  0  0
  8  9  1  0  0  0  0
  9 37  1  0  0  0  0
  9 36  1  0  0  0  0
 10 38  1  0  0  0  0
 11 10  1  0  0  0  0
 11 41  1  0  0  0  0
 11 40  1  0  0  0  0
 12 14  1  0  0  0  0
 13 45  1  0  0  0  0
 13 44  1  0  0  0  0
 13 12  1  0  0  0  0
 14 48  1  0  0  0  0
 14 47  1  0  0  0  0
 15 49  1  0  0  0  0
 16 52  1  0  0  0  0
 16 51  1  0  0  0  0
 16 15  1  0  0  0  0
 17 16  1  0  0  0  0
 18 19  1  0  0  0  0
 18 55  1  0  0  0  0
 19 56  1  0  0  0  0
 19 57  1  0  0  0  0
 20 18  1  0  0  0  0
 21 26  1  0  0  0  0
 22 21  1  0  0  0  0
 22 24  1  0  0  0  0
 22 23  1  0  0  0  0
 25 22  1  0  0  0  0
 27 21  1  0  0  0  0
 28 21  1  0  0  0  0
 29  1  1  0  0  0  0
 31  6  1  0  0  0  0
 33  7  1  0  0  0  0
 35  8  1  0  0  0  0
 39 10  1  0  0  0  0
 42 12  1  0  0  0  0
 43 13  1  0  0  0  0
 46 14  1  0  0  0  0
 50 15  1  0  0  0  0
 53 17  1  0  0  0  0
 54 17  1  0  0  0  0
 58 19  1  0  0  0  0
 59 20  1  0  0  0  0
 60 20  1  0  0  0  0
 61 20  1  0  0  0  0
M  END
$$$$
