CSD_code = LOTNEN | q = 0 | S = 0 | Stoichiometry = C12H19ClN2O2PtS | MND = 5
 OpenBabel04212202063D

 38 40  0  0  0  0  0  0  0  0999 V2000
   14.8333    8.1612    8.9610 Pt  0  0  0  0  0  0  0  0  0  0  0  0
   15.3736   10.4544    9.4364 Cl  0  0  0  0  0  0  0  0  0  0  0  0
   16.4992    8.4127    7.1103 S   0  0  0  0  0  3  0  0  0  0  0  0
   17.3983    7.3483    7.5213 O   0  0  0  0  0  1  0  0  0  0  0  0
   15.6146    8.0588    6.0135 O   0  0  0  0  0  1  0  0  0  0  0  0
   16.1223    7.2512   10.3784 N   0  0  0  0  0  4  0  0  0  0  0  0
   13.0868    8.5031    7.8067 N   0  0  0  0  0  4  0  0  0  0  0  0
   14.3145    6.3057    8.6707 C   0  0  0  0  0  0  0  0  0  0  0  0
   15.0034    5.3147    9.3500 C   0  0  0  0  0  0  0  0  0  0  0  0
   14.5532    4.0071    9.2408 C   0  0  0  0  0  0  0  0  0  0  0  0
   15.0646    3.2020    9.7487 H   0  0  0  0  0  0  0  0  0  0  0  0
   13.4385    3.7375    8.4574 C   0  0  0  0  0  0  0  0  0  0  0  0
   13.0855    2.7198    8.3797 H   0  0  0  0  0  0  0  0  0  0  0  0
   12.7822    4.7353    7.7483 C   0  0  0  0  0  0  0  0  0  0  0  0
   11.9414    4.4859    7.1171 H   0  0  0  0  0  0  0  0  0  0  0  0
   13.2275    6.0449    7.8533 C   0  0  0  0  0  0  0  0  0  0  0  0
   16.2510    5.8064   10.0391 C   0  0  0  0  0  0  0  0  0  0  0  0
   17.0724    5.7130    9.3206 H   0  0  0  0  0  0  0  0  0  0  0  0
   16.5048    5.2303   10.9374 H   0  0  0  0  0  0  0  0  0  0  0  0
   15.3792    7.3940   11.6372 C   0  0  0  0  0  0  0  0  0  0  0  0
   14.4228    6.8717   11.5694 H   0  0  0  0  0  0  0  0  0  0  0  0
   15.2008    8.4515   11.8402 H   0  0  0  0  0  0  0  0  0  0  0  0
   15.9532    6.9688   12.4698 H   0  0  0  0  0  0  0  0  0  0  0  0
   17.4420    7.8625   10.5278 C   0  0  0  0  0  0  0  0  0  0  0  0
   17.9972    7.7551    9.5969 H   0  0  0  0  0  0  0  0  0  0  0  0
   18.0022    7.3875   11.3406 H   0  0  0  0  0  0  0  0  0  0  0  0
   17.3231    8.9235   10.7476 H   0  0  0  0  0  0  0  0  0  0  0  0
   12.7447    7.2472    7.0819 C   0  0  0  0  0  0  0  0  0  0  0  0
   11.6697    7.2188    6.8658 H   0  0  0  0  0  0  0  0  0  0  0  0
   13.2914    7.2596    6.1330 H   0  0  0  0  0  0  0  0  0  0  0  0
   12.0674    8.7723    8.8291 C   0  0  0  0  0  0  0  0  0  0  0  0
   11.9544    7.9056    9.4834 H   0  0  0  0  0  0  0  0  0  0  0  0
   11.1000    8.9851    8.3576 H   0  0  0  0  0  0  0  0  0  0  0  0
   12.3640    9.6384    9.4235 H   0  0  0  0  0  0  0  0  0  0  0  0
   13.1454    9.6311    6.8782 C   0  0  0  0  0  0  0  0  0  0  0  0
   13.8977    9.4327    6.1160 H   0  0  0  0  0  0  0  0  0  0  0  0
   13.4253   10.5316    7.4251 H   0  0  0  0  0  0  0  0  0  0  0  0
   12.1746    9.7904    6.3962 H   0  0  0  0  0  0  0  0  0  0  0  0
  1  2  1  0  0  0  0
  1  6  1  0  0  0  0
  3  4  1  0  0  0  0
  3  1  1  0  0  0  0
  5  3  1  0  0  0  0
  6 24  1  0  0  0  0
  6 20  1  0  0  0  0
  7 31  1  0  0  0  0
  7  1  1  0  0  0  0
  8  1  1  0  0  0  0
  8  9  1  0  0  0  0
  9 17  1  0  0  0  0
 10  9  2  0  0  0  0
 10 11  1  0  0  0  0
 12 10  1  0  0  0  0
 13 12  1  0  0  0  0
 14 16  1  0  0  0  0
 14 12  2  0  0  0  0
 15 14  1  0  0  0  0
 16  8  2  0  0  0  0
 17  6  1  0  0  0  0
 17 19  1  0  0  0  0
 18 17  1  0  0  0  0
 20 22  1  0  0  0  0
 20 23  1  0  0  0  0
 21 20  1  0  0  0  0
 24 27  1  0  0  0  0
 24 26  1  0  0  0  0
 25 24  1  0  0  0  0
 28  7  1  0  0  0  0
 28 16  1  0  0  0  0
 29 28  1  0  0  0  0
 30 28  1  0  0  0  0
 31 34  1  0  0  0  0
 31 32  1  0  0  0  0
 33 31  1  0  0  0  0
 35 37  1  0  0  0  0
 35  7  1  0  0  0  0
 36 35  1  0  0  0  0
 38 35  1  0  0  0  0
M  END
$$$$
