CSD_code = LOTNIR | q = 0 | S = 0 | Stoichiometry = C12H19IN2O2PtS | MND = 5
 OpenBabel04212202063D

 38 40  0  0  0  0  0  0  0  0999 V2000
    0.5717    2.8270    2.7661 Pt  0  0  0  0  0  0  0  0  0  0  0  0
    1.5932    1.4881    0.7582 I   0  0  0  0  0  0  0  0  0  0  0  0
    1.6968    2.2917    4.9684 S   0  0  0  0  0  3  0  0  0  0  0  0
    3.0510    2.3960    4.4594 O   0  0  0  0  0  1  0  0  0  0  0  0
    1.1694    0.9456    5.1005 O   0  0  0  0  0  1  0  0  0  0  0  0
    1.7037    4.6555    2.5245 N   0  0  0  0  0  4  0  0  0  0  0  0
   -1.1702    1.6006    3.1021 N   0  0  0  0  0  4  0  0  0  0  0  0
    0.1282    5.2241    4.3262 C   0  0  0  0  0  0  0  0  0  0  0  0
   -1.5239    3.4746    4.6540 C   0  0  0  0  0  0  0  0  0  0  0  0
    1.4876    5.4925    3.7327 C   0  0  0  0  0  0  0  0  0  0  0  0
    2.2453    5.2141    4.4742 H   0  0  0  0  0  0  0  0  0  0  0  0
    1.6353    6.5515    3.4824 H   0  0  0  0  0  0  0  0  0  0  0  0
   -2.2423    4.3145    5.4923 C   0  0  0  0  0  0  0  0  0  0  0  0
   -3.1471    3.9700    5.9716 H   0  0  0  0  0  0  0  0  0  0  0  0
   -1.7812    5.6039    5.7207 C   0  0  0  0  0  0  0  0  0  0  0  0
   -2.3472    6.2593    6.3654 H   0  0  0  0  0  0  0  0  0  0  0  0
   -0.5945    6.0610    5.1636 C   0  0  0  0  0  0  0  0  0  0  0  0
   -0.2371    7.0552    5.3899 H   0  0  0  0  0  0  0  0  0  0  0  0
    1.0595    5.3060    1.3759 C   0  0  0  0  0  0  0  0  0  0  0  0
    0.0057    5.4926    1.5917 H   0  0  0  0  0  0  0  0  0  0  0  0
    1.1377    4.6722    0.4911 H   0  0  0  0  0  0  0  0  0  0  0  0
    1.5463    6.2639    1.1583 H   0  0  0  0  0  0  0  0  0  0  0  0
   -0.3717    3.9603    4.0585 C   0  0  0  0  0  0  0  0  0  0  0  0
   -1.7900    2.0169    4.3870 C   0  0  0  0  0  0  0  0  0  0  0  0
   -1.3149    1.4368    5.1859 H   0  0  0  0  0  0  0  0  0  0  0  0
   -2.8608    1.7751    4.3801 H   0  0  0  0  0  0  0  0  0  0  0  0
   -0.9616    0.1533    3.0973 C   0  0  0  0  0  0  0  0  0  0  0  0
   -0.2019   -0.1053    3.8359 H   0  0  0  0  0  0  0  0  0  0  0  0
   -0.6186   -0.1700    2.1158 H   0  0  0  0  0  0  0  0  0  0  0  0
   -1.8908   -0.3739    3.3364 H   0  0  0  0  0  0  0  0  0  0  0  0
   -2.0676    1.9685    1.9993 C   0  0  0  0  0  0  0  0  0  0  0  0
   -2.2949    3.0357    2.0393 H   0  0  0  0  0  0  0  0  0  0  0  0
   -3.0077    1.4089    2.0714 H   0  0  0  0  0  0  0  0  0  0  0  0
   -1.6025    1.7360    1.0398 H   0  0  0  0  0  0  0  0  0  0  0  0
    3.1357    4.5143    2.2615 C   0  0  0  0  0  0  0  0  0  0  0  0
    3.5917    3.8942    3.0344 H   0  0  0  0  0  0  0  0  0  0  0  0
    3.6262    5.4930    2.2416 H   0  0  0  0  0  0  0  0  0  0  0  0
    3.2881    4.0281    1.2993 H   0  0  0  0  0  0  0  0  0  0  0  0
  1  7  1  0  0  0  0
  1 23  1  0  0  0  0
  1  3  1  0  0  0  0
  2  1  1  0  0  0  0
  3  5  1  0  0  0  0
  4  3  1  0  0  0  0
  6  1  1  0  0  0  0
  6 10  1  0  0  0  0
  7 24  1  0  0  0  0
  8 17  1  0  0  0  0
  9 13  2  0  0  0  0
 10  8  1  0  0  0  0
 10 11  1  0  0  0  0
 12 10  1  0  0  0  0
 13 15  1  0  0  0  0
 13 14  1  0  0  0  0
 15 16  1  0  0  0  0
 17 18  1  0  0  0  0
 17 15  2  0  0  0  0
 19 20  1  0  0  0  0
 19  6  1  0  0  0  0
 21 19  1  0  0  0  0
 22 19  1  0  0  0  0
 23  8  2  0  0  0  0
 23  9  1  0  0  0  0
 24  9  1  0  0  0  0
 24 25  1  0  0  0  0
 26 24  1  0  0  0  0
 27  7  1  0  0  0  0
 27 30  1  0  0  0  0
 27 28  1  0  0  0  0
 29 27  1  0  0  0  0
 31 32  1  0  0  0  0
 31 33  1  0  0  0  0
 31  7  1  0  0  0  0
 34 31  1  0  0  0  0
 35  6  1  0  0  0  0
 35 36  1  0  0  0  0
 37 35  1  0  0  0  0
 38 35  1  0  0  0  0
M  END
$$$$
