CSD_code = LOVCOQ | q = 0 | S = 0 | Stoichiometry = C19H23ClIIrN2 | MND = 6
 OpenBabel04212202063D

 47 48  0  0  1  0  0  0  0  0999 V2000
    2.8967   45.0206   11.3750 H   0  0  0  0  0  0  0  0  0  0  0  0
    2.5816   47.4223   10.0744 H   0  0  0  0  0  0  0  0  0  0  0  0
   -0.6051   43.6667   11.9539 H   0  0  0  0  0  0  0  0  0  0  0  0
    0.8464   43.7866   12.9901 H   0  0  0  0  0  0  0  0  0  0  0  0
    2.3963   42.0138   12.7661 H   0  0  0  0  0  0  0  0  0  0  0  0
    3.4744   40.2533   11.4375 H   0  0  0  0  0  0  0  0  0  0  0  0
    1.0969   41.3588    8.0546 H   0  0  0  0  0  0  0  0  0  0  0  0
    0.0134   43.1143    9.3886 H   0  0  0  0  0  0  0  0  0  0  0  0
    0.0315   48.9787   10.2599 H   0  0  0  0  0  0  0  0  0  0  0  0
   -1.1422   47.8633    9.5153 H   0  0  0  0  0  0  0  0  0  0  0  0
    0.3910   48.2210    8.6918 H   0  0  0  0  0  0  0  0  0  0  0  0
   -4.0353   43.7596   10.3239 H   0  0  0  0  0  0  0  0  0  0  0  0
   -4.4388   45.9404    9.4201 H   0  0  0  0  0  0  0  0  0  0  0  0
   -5.5514   47.5910   10.6398 H   0  0  0  0  0  0  0  0  0  0  0  0
   -5.6038   46.5485   12.0519 H   0  0  0  0  0  0  0  0  0  0  0  0
   -3.6493   48.7081   11.3101 H   0  0  0  0  0  0  0  0  0  0  0  0
   -4.2804   48.2957   12.8991 H   0  0  0  0  0  0  0  0  0  0  0  0
   -1.7501   47.8336   12.4174 H   0  0  0  0  0  0  0  0  0  0  0  0
   -1.6048   45.7313   13.5224 H   0  0  0  0  0  0  0  0  0  0  0  0
   -3.4539   44.6352   14.3734 H   0  0  0  0  0  0  0  0  0  0  0  0
   -4.4773   45.9240   13.7643 H   0  0  0  0  0  0  0  0  0  0  0  0
   -3.8752   43.2127   12.6078 H   0  0  0  0  0  0  0  0  0  0  0  0
   -5.3996   44.0902   12.6124 H   0  0  0  0  0  0  0  0  0  0  0  0
   -0.1841   45.9254   10.8829 C   0  0  1  0  0  3  0  0  0  0  0  0
    2.0115   45.5524   11.0935 C   0  0  0  0  0  0  0  0  0  0  0  0
    1.8553   46.7320   10.4512 C   0  0  0  0  0  0  0  0  0  0  0  0
    0.4842   43.7906   11.9564 C   0  0  0  0  0  0  0  0  0  0  0  0
    1.1351   42.6849   11.1661 C   0  0  0  0  0  0  0  0  0  0  0  0
    2.1088   41.8752   11.7333 C   0  0  0  0  0  0  0  0  0  0  0  0
    2.7190   40.8802   10.9890 C   0  0  0  0  0  0  0  0  0  0  0  0
    2.3514   40.7059    9.6680 C   0  0  0  0  0  0  0  0  0  0  0  0
    1.3824   41.5028    9.0848 C   0  0  0  0  0  0  0  0  0  0  0  0
    0.7753   42.4912    9.8369 C   0  0  0  0  0  0  0  0  0  0  0  0
   -0.0821   48.0714    9.6625 C   0  0  0  0  0  0  0  0  0  0  0  0
   -4.0703   44.5988   11.0154 C   0  0  0  0  0  3  0  0  0  0  0  0
   -4.3198   45.8535   10.4973 C   0  0  0  0  0  3  0  0  0  0  0  0
   -4.9378   46.9757   11.3006 C   0  0  0  0  0  0  0  0  0  0  0  0
   -3.8789   47.8704   11.9726 C   0  0  0  0  0  0  0  0  0  0  0  0
   -2.5834   47.1462   12.2680 C   0  0  1  0  0  0  0  0  0  0  0  0
   -2.5057   45.9057   12.9363 C   0  0  0  0  0  3  0  0  0  0  0  0
   -3.7287   45.1862   13.4718 C   0  0  0  0  0  0  0  0  0  0  0  0
   -4.3217   44.1969   12.4499 C   0  0  0  0  0  0  0  0  0  0  0  0
    0.7545   45.0733   11.3517 N   0  0  0  0  0  0  0  0  0  0  0  0
    0.5080   46.9440   10.3287 N   0  0  0  0  0  0  0  0  0  0  0  0
   -1.8036   44.6603    8.7623 Cl  0  0  0  0  0 15  0  0  0  0  0  0
    3.2947   39.1927    8.5228 I   0  0  0  0  0  0  0  0  0  0  0  0
   -2.1872   45.6317   10.8549 Ir  0  0  0  0  0  0  0  0  0  0  0  0
  2 26  1  0  0  0  0
  3 27  1  0  0  0  0
  7 32  1  0  0  0  0
  8 33  1  0  0  0  0
 10 34  1  0  0  0  0
 11 34  1  0  0  0  0
 12 35  1  0  0  0  0
 13 36  1  0  0  0  0
 14 37  1  0  0  0  0
 16 38  1  0  0  0  0
 24 47  1  6  0  0  0
 24 43  1  0  0  0  0
 25 43  1  0  0  0  0
 25  1  1  0  0  0  0
 26 25  2  0  0  0  0
 27  4  1  0  0  0  0
 28 29  1  0  0  0  0
 28 27  1  0  0  0  0
 29  5  1  0  0  0  0
 30  6  1  0  0  0  0
 30 29  2  0  0  0  0
 31 30  1  0  0  0  0
 32 31  2  0  0  0  0
 32 33  1  0  0  0  0
 33 28  2  0  0  0  0
 34  9  1  0  0  0  0
 34 44  1  0  0  0  0
 35 42  1  0  0  0  0
 36 35  1  0  0  0  0
 36 37  1  0  0  0  0
 37 38  1  0  0  0  0
 37 15  1  0  0  0  0
 38 39  1  0  0  0  0
 38 17  1  0  0  0  0
 39 18  1  1  0  0  0
 39 40  1  0  0  0  0
 40 41  1  0  0  0  0
 40 19  1  0  0  0  0
 41 21  1  0  0  0  0
 41 20  1  0  0  0  0
 42 22  1  0  0  0  0
 42 23  1  0  0  0  0
 42 41  1  0  0  0  0
 43 27  1  0  0  0  0
 44 26  1  0  0  0  0
 44 24  1  0  0  0  0
 46 31  1  0  0  0  0
 47 39  1  0  0  0  0
M  END
$$$$
