CSD_code = LOVJAH | q = 0 | S = 0 | Stoichiometry = C24H32Cl2N2Zn | MND = 4
 OpenBabel04212202063D

 61 65  0  0  1  0  0  0  0  0999 V2000
    0.6445    5.8531   11.9527 Zn  0  0  0  0  0  0  0  0  0  0  0  0
   -1.4283    5.7694   12.7458 Cl  0  0  0  0  0  0  0  0  0  0  0  0
    2.1185    4.5324   12.9617 Cl  0  0  0  0  0  0  0  0  0  0  0  0
    0.9563    7.9919   11.5216 N   0  0  2  0  0  4  0  0  0  0  0  0
    1.1705    5.6925    9.8211 N   0  0  1  0  0  4  0  0  0  0  0  0
   -0.3829    8.5670   11.3072 C   0  0  0  0  0  0  0  0  0  0  0  0
   -0.2016    9.7602   10.3562 C   0  0  0  0  0  0  0  0  0  0  0  0
    1.1552    9.5102    9.6836 C   0  0  0  0  0  0  0  0  0  0  0  0
    1.5898    8.1276   10.2021 C   0  0  2  0  0  0  0  0  0  0  0  0
    1.1356    7.0327    9.2186 C   0  0  1  0  0  0  0  0  0  0  0  0
    2.1107    6.9641    8.0302 C   0  0  0  0  0  0  0  0  0  0  0  0
    3.1467    5.9127    8.4511 C   0  0  0  0  0  0  0  0  0  0  0  0
    2.6016    5.3462    9.7722 C   0  0  0  0  0  0  0  0  0  0  0  0
    1.6671    8.7757   12.5751 C   0  0  1  0  0  0  0  0  0  0  0  0
    1.2680    8.2720   13.9607 C   0  0  0  0  0  0  0  0  0  0  0  0
    3.1723    8.7526   12.4320 C   0  0  0  0  0  0  0  0  0  0  0  0
    3.8476    9.9356   12.1507 C   0  0  0  0  0  0  0  0  0  0  0  0
    5.2256    9.9552   12.0266 C   0  0  0  0  0  0  0  0  0  0  0  0
    5.9512    8.7867   12.1803 C   0  0  0  0  0  0  0  0  0  0  0  0
    5.2899    7.6053   12.4701 C   0  0  0  0  0  0  0  0  0  0  0  0
    3.9125    7.5870   12.6019 C   0  0  0  0  0  0  0  0  0  0  0  0
    0.3972    4.6909    9.0280 C   0  0  1  0  0  0  0  0  0  0  0  0
    0.0758    3.4749    9.8950 C   0  0  0  0  0  0  0  0  0  0  0  0
   -0.8747    5.2431    8.4257 C   0  0  0  0  0  0  0  0  0  0  0  0
   -1.0056    5.2939    7.0421 C   0  0  0  0  0  0  0  0  0  0  0  0
   -2.1619    5.7767    6.4547 C   0  0  0  0  0  0  0  0  0  0  0  0
   -3.2066    6.2208    7.2463 C   0  0  0  0  0  0  0  0  0  0  0  0
   -3.0902    6.1662    8.6250 C   0  0  0  0  0  0  0  0  0  0  0  0
   -1.9375    5.6753    9.2125 C   0  0  0  0  0  0  0  0  0  0  0  0
   -1.0197    7.8107   10.8506 H   0  0  0  0  0  0  0  0  0  0  0  0
   -0.8387    8.8425   12.2554 H   0  0  0  0  0  0  0  0  0  0  0  0
   -1.0122    9.7951    9.6309 H   0  0  0  0  0  0  0  0  0  0  0  0
   -0.2048   10.7056   10.8976 H   0  0  0  0  0  0  0  0  0  0  0  0
    1.0793    9.5233    8.5982 H   0  0  0  0  0  0  0  0  0  0  0  0
    1.8866   10.2632    9.9763 H   0  0  0  0  0  0  0  0  0  0  0  0
    2.6730    8.0626   10.3166 H   0  0  0  0  0  0  0  0  0  0  0  0
    0.1173    7.2547    8.8954 H   0  0  0  0  0  0  0  0  0  0  0  0
    1.5775    6.6566    7.1309 H   0  0  0  0  0  0  0  0  0  0  0  0
    2.5691    7.9308    7.8325 H   0  0  0  0  0  0  0  0  0  0  0  0
    3.2488    5.1348    7.6950 H   0  0  0  0  0  0  0  0  0  0  0  0
    4.1305    6.3531    8.6030 H   0  0  0  0  0  0  0  0  0  0  0  0
    2.7386    4.2714    9.8640 H   0  0  0  0  0  0  0  0  0  0  0  0
    3.1037    5.8091   10.6204 H   0  0  0  0  0  0  0  0  0  0  0  0
    1.3495    9.8237   12.4872 H   0  0  0  0  0  0  0  0  0  0  0  0
    1.5811    7.2391   14.1035 H   0  0  0  0  0  0  0  0  0  0  0  0
    1.7518    8.8818   14.7209 H   0  0  0  0  0  0  0  0  0  0  0  0
    0.1921    8.3278   14.1076 H   0  0  0  0  0  0  0  0  0  0  0  0
    3.2919   10.8568   12.0360 H   0  0  0  0  0  0  0  0  0  0  0  0
    5.7318   10.8848   11.8109 H   0  0  0  0  0  0  0  0  0  0  0  0
    7.0265    8.7993   12.0822 H   0  0  0  0  0  0  0  0  0  0  0  0
    5.8460    6.6895   12.6025 H   0  0  0  0  0  0  0  0  0  0  0  0
    3.4207    6.6570   12.8409 H   0  0  0  0  0  0  0  0  0  0  0  0
    1.0319    4.3588    8.1953 H   0  0  0  0  0  0  0  0  0  0  0  0
   -0.5842    3.7480   10.7166 H   0  0  0  0  0  0  0  0  0  0  0  0
   -0.4266    2.7220    9.2913 H   0  0  0  0  0  0  0  0  0  0  0  0
    0.9797    3.0364   10.3111 H   0  0  0  0  0  0  0  0  0  0  0  0
   -0.1985    4.9423    6.4130 H   0  0  0  0  0  0  0  0  0  0  0  0
   -2.2459    5.8041    5.3781 H   0  0  0  0  0  0  0  0  0  0  0  0
   -4.1091    6.6000    6.7903 H   0  0  0  0  0  0  0  0  0  0  0  0
   -3.9028    6.5005    9.2526 H   0  0  0  0  0  0  0  0  0  0  0  0
   -1.8741    5.6294   10.2887 H   0  0  0  0  0  0  0  0  0  0  0  0
  1  2  1  0  0  0  0
  1  3  1  0  0  0  0
  4  1  1  0  0  0  0
  4 14  1  1  0  0  0
  5 22  1  6  0  0  0
  5  1  1  0  0  0  0
  6  4  1  0  0  0  0
  6 31  1  0  0  0  0
  7 33  1  0  0  0  0
  7  6  1  0  0  0  0
  8 35  1  0  0  0  0
  8  9  1  0  0  0  0
  8  7  1  0  0  0  0
  9 36  1  1  0  0  0
  9  4  1  0  0  0  0
 10 37  1  6  0  0  0
 10  5  1  0  0  0  0
 10  9  1  0  0  0  0
 11 12  1  0  0  0  0
 11 10  1  0  0  0  0
 12 41  1  0  0  0  0
 12 13  1  0  0  0  0
 13  5  1  0  0  0  0
 13 42  1  0  0  0  0
 13 43  1  0  0  0  0
 14 44  1  6  0  0  0
 14 15  1  0  0  0  0
 15 45  1  0  0  0  0
 15 47  1  0  0  0  0
 15 46  1  0  0  0  0
 16 14  1  0  0  0  0
 16 21  1  0  0  0  0
 17 16  2  0  0  0  0
 18 17  1  0  0  0  0
 18 19  2  0  0  0  0
 19 20  1  0  0  0  0
 20 21  2  0  0  0  0
 20 51  1  0  0  0  0
 21 52  1  0  0  0  0
 22 53  1  6  0  0  0
 22 23  1  0  0  0  0
 23 56  1  0  0  0  0
 23 54  1  0  0  0  0
 24 22  1  0  0  0  0
 24 29  1  0  0  0  0
 25 24  2  0  0  0  0
 26 25  1  0  0  0  0
 26 27  2  0  0  0  0
 27 28  1  0  0  0  0
 28 29  2  0  0  0  0
 28 60  1  0  0  0  0
 29 61  1  0  0  0  0
 30  6  1  0  0  0  0
 32  7  1  0  0  0  0
 34  8  1  0  0  0  0
 38 11  1  0  0  0  0
 39 11  1  0  0  0  0
 40 12  1  0  0  0  0
 48 17  1  0  0  0  0
 49 18  1  0  0  0  0
 50 19  1  0  0  0  0
 55 23  1  0  0  0  0
 57 25  1  0  0  0  0
 58 26  1  0  0  0  0
 59 27  1  0  0  0  0
M  END
$$$$
