CSD_code = LOVJEL | q = 1 | S = 0 | Stoichiometry = C16H32ClN4Zn(1+) | MND = 5
 OpenBabel04212202063D

 54 59  0  0  1  0  0  0  0  0999 V2000
    4.9308    8.8971   16.5269 Zn  0  0  0  0  0  0  0  0  0  0  0  0
    3.4018   10.4261   16.5269 Cl  0  0  0  0  0  0  0  0  0  0  0  0
    3.5513    7.2355   16.2485 N   0  0  2  0  0  4  0  0  0  0  0  0
    5.4378    8.3897   14.4944 N   0  0  1  0  0  4  0  0  0  0  0  0
    3.6233    5.8440   16.7144 C   0  0  0  0  0  0  0  0  0  0  0  0
    2.5390    5.1236   15.9137 C   0  0  0  0  0  0  0  0  0  0  0  0
    2.5981    5.8091   14.5418 C   0  0  0  0  0  0  0  0  0  0  0  0
    3.3325    7.1448   14.7918 C   0  0  2  0  0  0  0  0  0  0  0  0
    4.6845    7.1937   14.0642 C   0  0  1  0  0  0  0  0  0  0  0  0
    4.5017    7.3178   12.5350 C   0  0  0  0  0  0  0  0  0  0  0  0
    5.0985    8.6831   12.1705 C   0  0  0  0  0  0  0  0  0  0  0  0
    5.1055    9.4282   13.5020 C   0  0  0  0  0  0  0  0  0  0  0  0
    2.6991    7.6338   16.6429 H   0  0  0  0  0  0  0  0  0  0  0  0
    6.4263    8.1808   14.3705 H   0  0  0  0  0  0  0  0  0  0  0  0
    4.6100    5.4401   16.4774 H   0  0  0  0  0  0  0  0  0  0  0  0
    3.4672    5.7849   17.7908 H   0  0  0  0  0  0  0  0  0  0  0  0
    2.7133    4.0529   15.8501 H   0  0  0  0  0  0  0  0  0  0  0  0
    1.5666    5.2832   16.3800 H   0  0  0  0  0  0  0  0  0  0  0  0
    3.1513    5.2005   13.8283 H   0  0  0  0  0  0  0  0  0  0  0  0
    1.6013    5.9716   14.1386 H   0  0  0  0  0  0  0  0  0  0  0  0
    2.7415    8.0067   14.4754 H   0  0  0  0  0  0  0  0  0  0  0  0
    5.2567    6.3030   14.3363 H   0  0  0  0  0  0  0  0  0  0  0  0
    5.0026    6.5107   12.0047 H   0  0  0  0  0  0  0  0  0  0  0  0
    3.4445    7.2802   12.2790 H   0  0  0  0  0  0  0  0  0  0  0  0
    6.1178    8.5703   11.7986 H   0  0  0  0  0  0  0  0  0  0  0  0
    4.5164    9.1994   11.4125 H   0  0  0  0  0  0  0  0  0  0  0  0
    5.8293   10.2410   13.5374 H   0  0  0  0  0  0  0  0  0  0  0  0
    4.1187    9.8310   13.7328 H   0  0  0  0  0  0  0  0  0  0  0  0
    6.5924   10.2766   16.8053 N   0  0  2  0  0  4  0  0  0  0  0  0
    7.9839   10.2046   16.3393 C   0  0  0  0  0  0  0  0  0  0  0  0
    8.7043   11.2889   17.1400 C   0  0  0  0  0  0  0  0  0  0  0  0
    8.0188   11.2298   18.5119 C   0  0  0  0  0  0  0  0  0  0  0  0
    6.6831   10.4954   18.2619 C   0  0  2  0  0  0  0  0  0  0  0  0
    6.1941   11.1288   16.4108 H   0  0  0  0  0  0  0  0  0  0  0  0
    6.6342    9.1434   18.9895 C   0  0  2  0  0  0  0  0  0  0  0  0
    5.4382    8.3901   18.5594 N   0  0  1  0  0  4  0  0  0  0  0  0
    4.3997    8.7223   19.5517 C   0  0  0  0  0  0  0  0  0  0  0  0
    5.1448    8.7294   20.8832 C   0  0  0  0  0  0  0  0  0  0  0  0
    6.5101    9.3262   20.5187 C   0  0  0  0  0  0  0  0  0  0  0  0
    7.5249    8.5712   18.7174 H   0  0  0  0  0  0  0  0  0  0  0  0
    7.3172    8.8253   21.0490 H   0  0  0  0  0  0  0  0  0  0  0  0
    6.5478   10.3834   20.7747 H   0  0  0  0  0  0  0  0  0  0  0  0
    5.2576    7.7100   21.2551 H   0  0  0  0  0  0  0  0  0  0  0  0
    4.6285    9.3115   21.6412 H   0  0  0  0  0  0  0  0  0  0  0  0
    3.5869    7.9985   19.5163 H   0  0  0  0  0  0  0  0  0  0  0  0
    3.9969    9.7092   19.3209 H   0  0  0  0  0  0  0  0  0  0  0  0
    5.6471    7.4016   18.6832 H   0  0  0  0  0  0  0  0  0  0  0  0
    5.8212   11.0864   18.5783 H   0  0  0  0  0  0  0  0  0  0  0  0
    8.6274   10.6766   19.2254 H   0  0  0  0  0  0  0  0  0  0  0  0
    7.8563   12.2266   18.9151 H   0  0  0  0  0  0  0  0  0  0  0  0
    9.7750   11.1146   17.2036 H   0  0  0  0  0  0  0  0  0  0  0  0
    8.5447   12.2613   16.6737 H   0  0  0  0  0  0  0  0  0  0  0  0
    8.3878    9.2179   16.5763 H   0  0  0  0  0  0  0  0  0  0  0  0
    8.0430   10.3607   15.2629 H   0  0  0  0  0  0  0  0  0  0  0  0
  1  2  1  0  0  0  0
  1 29  1  0  0  0  0
  1 36  1  0  0  0  0
  3  1  1  0  0  0  0
  3 13  1  1  0  0  0
  3  5  1  0  0  0  0
  4 14  1  6  0  0  0
  4  1  1  0  0  0  0
  5 16  1  0  0  0  0
  6 18  1  0  0  0  0
  6  5  1  0  0  0  0
  7  8  1  0  0  0  0
  7  6  1  0  0  0  0
  8 21  1  6  0  0  0
  8  3  1  0  0  0  0
  9 22  1  1  0  0  0
  9  4  1  0  0  0  0
  9  8  1  0  0  0  0
 10  9  1  0  0  0  0
 11 10  1  0  0  0  0
 11 12  1  0  0  0  0
 12 27  1  0  0  0  0
 12 28  1  0  0  0  0
 12  4  1  0  0  0  0
 15  5  1  0  0  0  0
 17  6  1  0  0  0  0
 19  7  1  0  0  0  0
 20  7  1  0  0  0  0
 23 10  1  0  0  0  0
 24 10  1  0  0  0  0
 25 11  1  0  0  0  0
 26 11  1  0  0  0  0
 29 34  1  6  0  0  0
 29 33  1  0  0  0  0
 30 53  1  0  0  0  0
 30 29  1  0  0  0  0
 30 31  1  0  0  0  0
 31 51  1  0  0  0  0
 31 32  1  0  0  0  0
 32 50  1  0  0  0  0
 32 49  1  0  0  0  0
 33 32  1  0  0  0  0
 33 48  1  1  0  0  0
 33 35  1  0  0  0  0
 35 40  1  6  0  0  0
 35 39  1  0  0  0  0
 36 47  1  1  0  0  0
 36 35  1  0  0  0  0
 36 37  1  0  0  0  0
 37 38  1  0  0  0  0
 38 43  1  0  0  0  0
 38 44  1  0  0  0  0
 39 42  1  0  0  0  0
 39 38  1  0  0  0  0
 39 41  1  0  0  0  0
 45 37  1  0  0  0  0
 46 37  1  0  0  0  0
 52 31  1  0  0  0  0
 54 30  1  0  0  0  0
M  END
$$$$
