CSD_code = LOWNOA | q = 0 | S = 0 | Stoichiometry = C12H23Cl2N4P2Re | MND = 6
 OpenBabel04212202063D

 44 46  0  0  1  0  0  0  0  0999 V2000
    3.0025    3.1952   16.0447 Re  0  0  0  0  0  0  0  0  0  0  0  0
    5.1690    3.7175   16.6085 Cl  0  0  0  0  0  0  0  0  0  0  0  0
    2.7774    4.4596   14.1348 Cl  0  0  0  0  0  0  0  0  0  0  0  0
    2.2598    5.1054   17.2535 P   0  0  0  0  0  4  0  0  0  0  0  0
   -0.6859    1.2243   16.5431 N   0  0  0  0  0  0  0  0  0  0  0  0
   -1.2041    0.5859   17.1223 H   0  0  0  0  0  0  0  0  0  0  0  0
    0.5830    1.6205   16.7768 C   0  0  2  0  0  3  0  0  0  0  0  0
    0.9783    2.4694   15.8239 N   0  0  0  0  0  0  0  0  0  0  0  0
   -0.0667    2.6139   14.9645 C   0  0  0  0  0  0  0  0  0  0  0  0
    0.0071    3.2532   14.1072 H   0  0  0  0  0  0  0  0  0  0  0  0
   -1.1067    1.8480   15.3968 C   0  0  0  0  0  0  0  0  0  0  0  0
   -2.0860    1.7001   14.9924 H   0  0  0  0  0  0  0  0  0  0  0  0
    1.3829    0.4984   18.8697 N   0  0  0  0  0  0  0  0  0  0  0  0
    1.4990    1.2951   17.8086 C   0  0  0  0  0  0  0  0  0  0  0  0
    2.7216    1.8976   17.7149 N   0  0  0  0  0  0  0  0  0  0  0  0
    3.4086    1.4497   18.7823 C   0  0  0  0  0  0  0  0  0  0  0  0
    4.4183    1.7556   18.9771 H   0  0  0  0  0  0  0  0  0  0  0  0
    2.5766    0.5916   19.4832 C   0  0  0  0  0  0  0  0  0  0  0  0
    2.7791    0.0471   20.3846 H   0  0  0  0  0  0  0  0  0  0  0  0
    2.0554    4.9075   19.0571 C   0  0  0  0  0  0  0  0  0  0  0  0
    1.3286    4.1212   19.2543 H   0  0  0  0  0  0  0  0  0  0  0  0
    1.7225    5.8417   19.5075 H   0  0  0  0  0  0  0  0  0  0  0  0
    3.0115    4.6107   19.4852 H   0  0  0  0  0  0  0  0  0  0  0  0
    3.3586    6.5544   17.1324 C   0  0  0  0  0  0  0  0  0  0  0  0
    4.3395    6.2874   17.5233 H   0  0  0  0  0  0  0  0  0  0  0  0
    2.9454    7.3922   17.6934 H   0  0  0  0  0  0  0  0  0  0  0  0
    3.4633    6.8228   16.0817 H   0  0  0  0  0  0  0  0  0  0  0  0
    0.6516    5.7964   16.7306 C   0  0  0  0  0  0  0  0  0  0  0  0
   -0.1341    5.0633   16.9053 H   0  0  0  0  0  0  0  0  0  0  0  0
    0.7022    6.0131   15.6646 H   0  0  0  0  0  0  0  0  0  0  0  0
    0.4348    6.7086   17.2850 H   0  0  0  0  0  0  0  0  0  0  0  0
    3.9226    1.3964   14.7869 P   0  0  0  0  0  4  0  0  0  0  0  0
    5.0794    0.3261   15.7056 C   0  0  0  0  0  0  0  0  0  0  0  0
    5.8825    0.9458   16.1017 H   0  0  0  0  0  0  0  0  0  0  0  0
    5.4888   -0.4406   15.0488 H   0  0  0  0  0  0  0  0  0  0  0  0
    4.5538   -0.1398   16.5377 H   0  0  0  0  0  0  0  0  0  0  0  0
    4.9154    1.9017   13.3443 C   0  0  0  0  0  0  0  0  0  0  0  0
    5.7179    2.5526   13.6903 H   0  0  0  0  0  0  0  0  0  0  0  0
    4.2830    2.4640   12.6590 H   0  0  0  0  0  0  0  0  0  0  0  0
    5.3320    1.0288   12.8428 H   0  0  0  0  0  0  0  0  0  0  0  0
    2.7528    0.1879   14.0690 C   0  0  0  0  0  0  0  0  0  0  0  0
    2.0586    0.7103   13.4129 H   0  0  0  0  0  0  0  0  0  0  0  0
    2.1917   -0.2847   14.8736 H   0  0  0  0  0  0  0  0  0  0  0  0
    3.2927   -0.5707   13.5041 H   0  0  0  0  0  0  0  0  0  0  0  0
  1  2  1  0  0  0  0
  1  4  1  0  0  0  0
  1 15  1  0  0  0  0
  3  1  1  0  0  0  0
  4 20  1  0  0  0  0
  5  7  1  0  0  0  0
  5  6  1  0  0  0  0
  7 14  1  6  0  0  0
  8  1  1  0  0  0  0
  8  7  1  0  0  0  0
  9 11  2  0  0  0  0
  9  8  1  0  0  0  0
 10  9  1  0  0  0  0
 11  5  1  0  0  0  0
 12 11  1  0  0  0  0
 13 18  1  0  0  0  0
 14 13  2  0  0  0  0
 15 14  1  0  0  0  0
 15 16  1  0  0  0  0
 16 17  1  0  0  0  0
 16 18  2  0  0  0  0
 18 19  1  0  0  0  0
 20 21  1  0  0  0  0
 20 23  1  0  0  0  0
 20 22  1  0  0  0  0
 24  4  1  0  0  0  0
 24 25  1  0  0  0  0
 24 26  1  0  0  0  0
 27 24  1  0  0  0  0
 28 29  1  0  0  0  0
 28  4  1  0  0  0  0
 28 31  1  0  0  0  0
 30 28  1  0  0  0  0
 32 33  1  0  0  0  0
 32  1  1  0  0  0  0
 33 34  1  0  0  0  0
 33 36  1  0  0  0  0
 35 33  1  0  0  0  0
 37 38  1  0  0  0  0
 37 32  1  0  0  0  0
 39 37  1  0  0  0  0
 40 37  1  0  0  0  0
 41 32  1  0  0  0  0
 41 43  1  0  0  0  0
 42 41  1  0  0  0  0
 44 41  1  0  0  0  0
M  END
$$$$
