CSD_code = LOWVAU | q = 0 | S = 0 | Stoichiometry = C22H40ClNP2Pd | MND = 4
 OpenBabel04212202063D

 67 67  0  0  0  0  0  0  0  0999 V2000
    1.5826    2.6928    2.3605 Pd  0  0  0  0  0  0  0  0  0  0  0  0
    3.0862    4.3699    3.1291 Cl  0  0  0  0  0  0  0  0  0  0  0  0
    1.1370    2.3414    4.5573 P   0  0  0  0  0  4  0  0  0  0  0  0
    2.3648    3.2836    0.2942 P   0  0  0  0  0  4  0  0  0  0  0  0
   -0.8167    1.1678    1.7338 N   0  0  0  0  0  2  0  0  0  0  0  0
    1.1510   -0.1231    1.4875 C   0  0  0  0  0  0  0  0  0  0  0  0
    0.4402    1.1643    1.7912 C   0  0  0  0  0  0  0  0  0  0  0  0
   -3.9467    0.6227    4.2981 C   0  0  0  0  0  0  0  0  0  0  0  0
   -3.1008    0.8417    3.2981 C   0  0  0  0  0  0  0  0  0  0  0  0
   -2.8121    2.1269    2.6757 C   0  0  0  0  0  0  0  0  0  0  0  0
   -1.6277    2.2656    1.9205 C   0  0  0  0  0  0  0  0  0  0  0  0
   -1.3429    3.4855    1.3007 C   0  0  0  0  0  0  0  0  0  0  0  0
   -2.2100    4.5551    1.4181 C   0  0  0  0  0  0  0  0  0  0  0  0
   -3.3692    4.4261    2.1669 C   0  0  0  0  0  0  0  0  0  0  0  0
   -3.6615    3.2243    2.7849 C   0  0  0  0  0  0  0  0  0  0  0  0
    0.6062    3.9220    5.3354 C   0  0  0  0  0  0  0  0  0  0  0  0
   -0.3249    4.6586    4.3784 C   0  0  0  0  0  0  0  0  0  0  0  0
    2.6426    1.9044    5.5194 C   0  0  0  0  0  0  0  0  0  0  0  0
    3.2425    0.6024    5.0024 C   0  0  0  0  0  0  0  0  0  0  0  0
   -0.1433    1.1287    5.1141 C   0  0  0  0  0  0  0  0  0  0  0  0
   -0.1737    0.8106    6.6027 C   0  0  0  0  0  0  0  0  0  0  0  0
    1.7057    2.5293   -1.2727 C   0  0  0  0  0  0  0  0  0  0  0  0
    2.1351    3.1813   -2.5795 C   0  0  0  0  0  0  0  0  0  0  0  0
    2.4630    5.0895   -0.0574 C   0  0  0  0  0  0  0  0  0  0  0  0
    1.1127    5.7850    0.0501 C   0  0  0  0  0  0  0  0  0  0  0  0
    4.1580    2.8475    0.2425 C   0  0  0  0  0  0  0  0  0  0  0  0
    4.4004    1.5250    0.9622 C   0  0  0  0  0  0  0  0  0  0  0  0
    0.4327   -0.9316    1.3455 H   0  0  0  0  0  0  0  0  0  0  0  0
    1.7371   -0.0121    0.5745 H   0  0  0  0  0  0  0  0  0  0  0  0
    1.8343   -0.3821    2.2996 H   0  0  0  0  0  0  0  0  0  0  0  0
   -4.5099    1.4121    4.7676 H   0  0  0  0  0  0  0  0  0  0  0  0
   -4.1032   -0.3662    4.6942 H   0  0  0  0  0  0  0  0  0  0  0  0
   -2.5304    0.0185    2.8859 H   0  0  0  0  0  0  0  0  0  0  0  0
   -0.4550    3.5564    0.6771 H   0  0  0  0  0  0  0  0  0  0  0  0
   -1.9858    5.4899    0.9244 H   0  0  0  0  0  0  0  0  0  0  0  0
   -4.0500    5.2594    2.2587 H   0  0  0  0  0  0  0  0  0  0  0  0
   -4.5783    3.1262    3.3469 H   0  0  0  0  0  0  0  0  0  0  0  0
    0.1226    3.7358    6.2982 H   0  0  0  0  0  0  0  0  0  0  0  0
    1.5094    4.5157    5.4998 H   0  0  0  0  0  0  0  0  0  0  0  0
   -0.5543    5.6573    4.7454 H   0  0  0  0  0  0  0  0  0  0  0  0
    0.1697    4.7527    3.4004 H   0  0  0  0  0  0  0  0  0  0  0  0
   -1.2593    4.1149    4.2422 H   0  0  0  0  0  0  0  0  0  0  0  0
    3.3494    2.7243    5.3589 H   0  0  0  0  0  0  0  0  0  0  0  0
    2.4061    1.8504    6.5851 H   0  0  0  0  0  0  0  0  0  0  0  0
    2.5733   -0.2392    5.1780 H   0  0  0  0  0  0  0  0  0  0  0  0
    3.4148    0.6904    3.9255 H   0  0  0  0  0  0  0  0  0  0  0  0
    4.1953    0.3936    5.4853 H   0  0  0  0  0  0  0  0  0  0  0  0
   -1.1041    1.5473    4.8005 H   0  0  0  0  0  0  0  0  0  0  0  0
    0.0013    0.2109    4.5372 H   0  0  0  0  0  0  0  0  0  0  0  0
   -0.2183    1.7170    7.2027 H   0  0  0  0  0  0  0  0  0  0  0  0
   -1.0567    0.2154    6.8286 H   0  0  0  0  0  0  0  0  0  0  0  0
    0.7021    0.2407    6.9039 H   0  0  0  0  0  0  0  0  0  0  0  0
    2.0323    1.4847   -1.2577 H   0  0  0  0  0  0  0  0  0  0  0  0
    0.6140    2.5177   -1.2046 H   0  0  0  0  0  0  0  0  0  0  0  0
    3.2178    3.2728   -2.6412 H   0  0  0  0  0  0  0  0  0  0  0  0
    1.8007    2.5734   -3.4188 H   0  0  0  0  0  0  0  0  0  0  0  0
    1.6966    4.1701   -2.6882 H   0  0  0  0  0  0  0  0  0  0  0  0
    3.1330    5.4960    0.7052 H   0  0  0  0  0  0  0  0  0  0  0  0
    2.9194    5.2408   -1.0393 H   0  0  0  0  0  0  0  0  0  0  0  0
    1.2244    6.8558   -0.1122 H   0  0  0  0  0  0  0  0  0  0  0  0
    0.4032    5.3989   -0.6814 H   0  0  0  0  0  0  0  0  0  0  0  0
    0.7082    5.6323    1.0528 H   0  0  0  0  0  0  0  0  0  0  0  0
    4.5197    2.8140   -0.7891 H   0  0  0  0  0  0  0  0  0  0  0  0
    4.6823    3.6455    0.7750 H   0  0  0  0  0  0  0  0  0  0  0  0
    3.9100    1.5677    1.9478 H   0  0  0  0  0  0  0  0  0  0  0  0
    3.9953    0.6849    0.3985 H   0  0  0  0  0  0  0  0  0  0  0  0
    5.4648    1.3535    1.1134 H   0  0  0  0  0  0  0  0  0  0  0  0
  1  2  1  0  0  0  0
  1  3  1  0  0  0  0
  3 20  1  0  0  0  0
  3 16  1  0  0  0  0
  3 18  1  0  0  0  0
  4  1  1  0  0  0  0
  5  7  1  0  0  0  0
  5 11  1  0  0  0  0
  6  7  1  0  0  0  0
  6 30  1  0  0  0  0
  7  1  2  0  0  0  0
  8 32  1  0  0  0  0
  8 31  1  0  0  0  0
  9  8  2  0  0  0  0
 10 15  1  0  0  0  0
 10  9  1  0  0  0  0
 11 10  2  0  0  0  0
 12 13  2  0  0  0  0
 12 11  1  0  0  0  0
 13 14  1  0  0  0  0
 14 36  1  0  0  0  0
 14 15  2  0  0  0  0
 15 37  1  0  0  0  0
 16 39  1  0  0  0  0
 16 38  1  0  0  0  0
 17 40  1  0  0  0  0
 17 16  1  0  0  0  0
 18 44  1  0  0  0  0
 19 45  1  0  0  0  0
 19 47  1  0  0  0  0
 19 18  1  0  0  0  0
 20 21  1  0  0  0  0
 21 51  1  0  0  0  0
 21 52  1  0  0  0  0
 21 50  1  0  0  0  0
 22 53  1  0  0  0  0
 22 54  1  0  0  0  0
 22  4  1  0  0  0  0
 23 22  1  0  0  0  0
 24 25  1  0  0  0  0
 24  4  1  0  0  0  0
 24 58  1  0  0  0  0
 25 62  1  0  0  0  0
 26  4  1  0  0  0  0
 26 64  1  0  0  0  0
 26 27  1  0  0  0  0
 27 67  1  0  0  0  0
 27 65  1  0  0  0  0
 28  6  1  0  0  0  0
 29  6  1  0  0  0  0
 33  9  1  0  0  0  0
 34 12  1  0  0  0  0
 35 13  1  0  0  0  0
 41 17  1  0  0  0  0
 42 17  1  0  0  0  0
 43 18  1  0  0  0  0
 46 19  1  0  0  0  0
 48 20  1  0  0  0  0
 49 20  1  0  0  0  0
 55 23  1  0  0  0  0
 56 23  1  0  0  0  0
 57 23  1  0  0  0  0
 59 24  1  0  0  0  0
 60 25  1  0  0  0  0
 61 25  1  0  0  0  0
 63 26  1  0  0  0  0
 66 27  1  0  0  0  0
M  END
$$$$
