CSD_code = LOWXAW | q = 0 | S = 0 | Stoichiometry = C23H18Cl2OTi | MND = 8
 OpenBabel04212202063D

 45 48  0  0  1  0  0  0  0  0999 V2000
    5.7399    3.1583   19.6310 Ti  0  0  0  0  0  0  0  0  0  0  0  0
    5.8207    4.1169   21.5872 Cl  0  0  0  0  0  0  0  0  0  0  0  0
    3.6508    3.6592   19.2645 Cl  0  0  0  0  0  0  0  0  0  0  0  0
    6.5419    4.2531   18.6712 O   0  0  0  0  0  0  0  0  0  0  0  0
    5.7187    1.0914   18.6182 C   0  0  1  0  0  0  0  0  0  0  0  0
    7.0724    1.4463   18.8169 C   0  0  0  0  0  0  0  0  0  0  0  0
    7.2973    1.5379   20.2100 C   0  0  0  0  0  0  0  0  0  0  0  0
    6.0915    1.1988   20.8684 C   0  0  0  0  0  0  0  0  0  0  0  0
    5.1167    0.9356   19.8911 C   0  0  0  0  0  0  0  0  0  0  0  0
    7.3977    4.8187   17.8311 C   0  0  0  0  0  0  0  0  0  0  0  0
    7.4734    4.3682   16.4975 C   0  0  0  0  0  0  0  0  0  0  0  0
    8.4649    4.8788   15.6694 C   0  0  0  0  0  0  0  0  0  0  0  0
    9.3561    5.8303   16.1345 C   0  0  0  0  0  0  0  0  0  0  0  0
    9.2523    6.3048   17.4302 C   0  0  0  0  0  0  0  0  0  0  0  0
    8.2741    5.8206   18.2899 C   0  0  0  0  0  0  0  0  0  0  0  0
    8.1079    6.3505   19.6535 C   0  0  0  0  0  0  0  0  0  0  0  0
    6.8382    6.7015   20.1133 C   0  0  0  0  0  0  0  0  0  0  0  0
    6.6804    7.2374   21.3790 C   0  0  0  0  0  0  0  0  0  0  0  0
    7.7791    7.4160   22.2024 C   0  0  0  0  0  0  0  0  0  0  0  0
    9.0416    7.0640   21.7548 C   0  0  0  0  0  0  0  0  0  0  0  0
    9.2076    6.5399   20.4865 C   0  0  0  0  0  0  0  0  0  0  0  0
    6.4850    3.3891   16.0141 C   0  0  0  0  0  0  0  0  0  0  0  0
    6.8737    2.2824   15.2623 C   0  0  0  0  0  0  0  0  0  0  0  0
    5.9299    1.3802   14.8059 C   0  0  0  0  0  0  0  0  0  0  0  0
    4.5874    1.5706   15.0921 C   0  0  0  0  0  0  0  0  0  0  0  0
    4.1888    2.6737   15.8311 C   0  0  0  0  0  0  0  0  0  0  0  0
    5.1296    3.5795   16.2905 C   0  0  0  0  0  0  0  0  0  0  0  0
    5.2627    0.8399   17.6702 H   0  0  0  0  0  0  0  0  0  0  0  0
    7.8291    1.5259   18.0454 H   0  0  0  0  0  0  0  0  0  0  0  0
    8.2546    1.7063   20.6904 H   0  0  0  0  0  0  0  0  0  0  0  0
    5.9692    1.0854   21.9383 H   0  0  0  0  0  0  0  0  0  0  0  0
    4.1151    0.5636   20.0729 H   0  0  0  0  0  0  0  0  0  0  0  0
    8.5188    4.5376   14.6463 H   0  0  0  0  0  0  0  0  0  0  0  0
   10.1204    6.2179   15.4783 H   0  0  0  0  0  0  0  0  0  0  0  0
    9.9214    7.0758   17.7819 H   0  0  0  0  0  0  0  0  0  0  0  0
    5.9728    6.5757   19.4687 H   0  0  0  0  0  0  0  0  0  0  0  0
    5.6941    7.5085   21.7251 H   0  0  0  0  0  0  0  0  0  0  0  0
    7.6514    7.8258   23.1932 H   0  0  0  0  0  0  0  0  0  0  0  0
    9.9001    7.1978   22.3969 H   0  0  0  0  0  0  0  0  0  0  0  0
   10.1916    6.2574   20.1398 H   0  0  0  0  0  0  0  0  0  0  0  0
    7.9208    2.1274   15.0438 H   0  0  0  0  0  0  0  0  0  0  0  0
    6.2425    0.5248   14.2249 H   0  0  0  0  0  0  0  0  0  0  0  0
    3.8535    0.8634   14.7346 H   0  0  0  0  0  0  0  0  0  0  0  0
    3.1440    2.8351   16.0508 H   0  0  0  0  0  0  0  0  0  0  0  0
    4.8062    4.4679   16.8219 H   0  0  0  0  0  0  0  0  0  0  0  0
  1  2  1  0  0  0  0
  3  1  1  0  0  0  0
  4  1  1  0  0  0  0
  5 28  1  6  0  0  0
  5  6  1  0  0  0  0
  5  1  1  0  0  0  0
  5  9  1  0  0  0  0
  6  7  2  0  0  0  0
  7 30  1  0  0  0  0
  7  8  1  0  0  0  0
  8 31  1  0  0  0  0
  9 32  1  0  0  0  0
  9  8  2  0  0  0  0
 10 15  1  0  0  0  0
 10  4  1  0  0  0  0
 11 10  2  0  0  0  0
 12 13  2  0  0  0  0
 12 11  1  0  0  0  0
 13 14  1  0  0  0  0
 14 35  1  0  0  0  0
 14 15  2  0  0  0  0
 15 16  1  0  0  0  0
 16 17  2  0  0  0  0
 16 21  1  0  0  0  0
 17 18  1  0  0  0  0
 18 37  1  0  0  0  0
 18 19  2  0  0  0  0
 19 38  1  0  0  0  0
 20 19  1  0  0  0  0
 20 39  1  0  0  0  0
 21 20  2  0  0  0  0
 22 27  1  0  0  0  0
 22 11  1  0  0  0  0
 23 22  2  0  0  0  0
 24 25  2  0  0  0  0
 24 23  1  0  0  0  0
 25 26  1  0  0  0  0
 26 44  1  0  0  0  0
 26 27  2  0  0  0  0
 27 45  1  0  0  0  0
 29  6  1  0  0  0  0
 33 12  1  0  0  0  0
 34 13  1  0  0  0  0
 36 17  1  0  0  0  0
 40 21  1  0  0  0  0
 41 23  1  0  0  0  0
 42 24  1  0  0  0  0
 43 25  1  0  0  0  0
M  END
$$$$
