CSD_code = LOXPEV | q = 0 | S = 0 | Stoichiometry = C23H26ClN2Rh | MND = 8
 OpenBabel04212202063D

 53 57  0  0  1  0  0  0  0  0999 V2000
    9.7033    2.5710    4.9736 Rh  0  0  2  0  0  0  0  0  0  0  0  0
   10.2840    3.2316    6.7668 C   0  0  0  0  0  0  0  0  0  0  0  0
    9.4218    3.9222    7.6152 C   0  0  0  0  0  0  0  0  0  0  0  0
    8.4689    4.2646    7.2337 H   0  0  0  0  0  0  0  0  0  0  0  0
    9.7595    4.2046    8.9298 C   0  0  0  0  0  0  0  0  0  0  0  0
    9.0639    4.7452    9.5548 H   0  0  0  0  0  0  0  0  0  0  0  0
   10.9769    3.7932    9.4536 C   0  0  0  0  0  0  0  0  0  0  0  0
   11.2358    3.9916   10.4829 H   0  0  0  0  0  0  0  0  0  0  0  0
   11.8558    3.1355    8.6216 C   0  0  0  0  0  0  0  0  0  0  0  0
   11.5197    2.8848    7.2928 C   0  0  0  0  0  0  0  0  0  0  0  0
   13.2248    2.5960    8.9182 C   0  0  0  0  0  0  0  0  0  0  0  0
   13.1806    1.8163    9.6811 H   0  0  0  0  0  0  0  0  0  0  0  0
   13.8900    3.3804    9.2823 H   0  0  0  0  0  0  0  0  0  0  0  0
   13.6917    2.0383    7.5633 C   0  0  0  0  0  0  0  0  0  0  0  0
   14.5843    2.5642    7.2095 H   0  0  0  0  0  0  0  0  0  0  0  0
   13.9192    0.9686    7.6248 H   0  0  0  0  0  0  0  0  0  0  0  0
   12.7232    2.1275    5.2978 C   0  0  2  0  0  3  0  0  0  0  0  0
   13.9205    1.6300    4.7379 C   0  0  0  0  0  0  0  0  0  0  0  0
   14.7081    1.2748    5.3802 H   0  0  0  0  0  0  0  0  0  0  0  0
   14.0775    1.5979    3.3741 C   0  0  0  0  0  0  0  0  0  0  0  0
   14.9919    1.2202    2.9418 H   0  0  0  0  0  0  0  0  0  0  0  0
   13.0498    2.0704    2.5620 C   0  0  0  0  0  0  0  0  0  0  0  0
   13.1475    2.0981    1.4898 H   0  0  0  0  0  0  0  0  0  0  0  0
   11.8875    2.4916    3.1682 C   0  0  0  0  0  0  0  0  0  0  0  0
   11.0596    2.8682    2.5767 H   0  0  0  0  0  0  0  0  0  0  0  0
    8.0007    1.7745    3.6160 C   0  0  0  0  0  0  0  0  0  0  0  0
    7.5906    2.0748    4.9835 C   0  0  1  0  0  0  0  0  0  0  0  0
    8.2377    1.1423    5.8489 C   0  0  2  0  0  3  0  0  0  0  0  0
    9.1908    0.4313    5.0626 C   0  0  1  0  0  0  0  0  0  0  0  0
    8.9681    0.7708    3.6658 C   0  0  0  0  0  0  0  0  0  0  0  0
    7.3771    2.4082    2.4136 C   0  0  0  0  0  0  0  0  0  0  0  0
    6.3150    2.1610    2.3757 H   0  0  0  0  0  0  0  0  0  0  0  0
    7.8463    2.0634    1.4953 H   0  0  0  0  0  0  0  0  0  0  0  0
    7.4702    3.4927    2.4648 H   0  0  0  0  0  0  0  0  0  0  0  0
    6.4054    2.9310    5.3120 C   0  0  0  0  0  0  0  0  0  0  0  0
    5.4923    2.4459    4.9605 H   0  0  0  0  0  0  0  0  0  0  0  0
    6.4861    3.9000    4.8229 H   0  0  0  0  0  0  0  0  0  0  0  0
    6.3192    3.0879    6.3845 H   0  0  0  0  0  0  0  0  0  0  0  0
    7.9239    0.8916    7.2911 C   0  0  0  0  0  0  0  0  0  0  0  0
    7.5453    1.7878    7.7758 H   0  0  0  0  0  0  0  0  0  0  0  0
    8.8048    0.5596    7.8361 H   0  0  0  0  0  0  0  0  0  0  0  0
    7.1619    0.1128    7.3625 H   0  0  0  0  0  0  0  0  0  0  0  0
   10.0166   -0.7308    5.5243 C   0  0  0  0  0  0  0  0  0  0  0  0
   10.2902   -0.6233    6.5719 H   0  0  0  0  0  0  0  0  0  0  0  0
   10.9293   -0.8231    4.9371 H   0  0  0  0  0  0  0  0  0  0  0  0
    9.4489   -1.6571    5.4128 H   0  0  0  0  0  0  0  0  0  0  0  0
    9.5974    0.0467    2.5153 C   0  0  0  0  0  0  0  0  0  0  0  0
    9.1043   -0.9180    2.3779 H   0  0  0  0  0  0  0  0  0  0  0  0
   10.6557   -0.1418    2.6931 H   0  0  0  0  0  0  0  0  0  0  0  0
    9.5020    0.6127    1.5916 H   0  0  0  0  0  0  0  0  0  0  0  0
    9.6416    4.7538    4.2451 Cl  0  0  0  0  0 15  0  0  0  0  0  0
   11.7012    2.4880    4.4912 N   0  0  0  0  0  0  0  0  0  0  0  0
   12.5878    2.2565    6.6354 N   0  0  0  0  0  0  0  0  0  0  0  0
  1 27  1  0  0  0  0
  1 29  1  0  0  0  0
  1  2  1  1  0  0  0
  2 10  2  0  0  0  0
  2  3  1  0  0  0  0
  3  5  2  0  0  0  0
  4  3  1  0  0  0  0
  5  7  1  0  0  0  0
  5  6  1  0  0  0  0
  7  8  1  0  0  0  0
  9 11  1  0  0  0  0
  9  7  2  0  0  0  0
 10  9  1  0  0  0  0
 11 13  1  0  0  0  0
 11 12  1  0  0  0  0
 14 16  1  0  0  0  0
 14 11  1  0  0  0  0
 15 14  1  0  0  0  0
 17 18  1  6  0  0  0
 17 53  1  0  0  0  0
 18 19  1  0  0  0  0
 20 18  2  0  0  0  0
 21 20  1  0  0  0  0
 22 24  2  0  0  0  0
 22 20  1  0  0  0  0
 23 22  1  0  0  0  0
 24 52  1  0  0  0  0
 25 24  1  0  0  0  0
 26 30  2  0  0  0  0
 26 27  1  0  0  0  0
 27 35  1  1  0  0  0
 27 28  1  0  0  0  0
 28 39  1  6  0  0  0
 29 43  1  1  0  0  0
 29 28  1  0  0  0  0
 30 29  1  0  0  0  0
 31 34  1  0  0  0  0
 31 26  1  0  0  0  0
 32 31  1  0  0  0  0
 33 31  1  0  0  0  0
 35 38  1  0  0  0  0
 36 35  1  0  0  0  0
 37 35  1  0  0  0  0
 39 42  1  0  0  0  0
 39 40  1  0  0  0  0
 39 41  1  0  0  0  0
 43 44  1  0  0  0  0
 45 43  1  0  0  0  0
 46 43  1  0  0  0  0
 47 49  1  0  0  0  0
 47 30  1  0  0  0  0
 48 47  1  0  0  0  0
 50 47  1  0  0  0  0
 52  1  1  0  0  0  0
 52 17  1  0  0  0  0
 53 10  1  0  0  0  0
 53 14  1  0  0  0  0
M  END
$$$$
