CSD_code = LOXSOG | q = 0 | S = 0 | Stoichiometry = C19H20ClNO2STi | MND = 12
 OpenBabel04212202063D

 45 49  0  0  1  0  0  0  0  0999 V2000
   -0.0743    3.2642    7.2546 Ti  0  0  0  0  0  0  0  0  0  0  0  0
    0.0700    0.9173    8.5096 S   0  0  1  0  0  0  0  0  0  0  0  0
    0.8827    4.7441    8.6064 Cl  0  0  0  0  0  0  0  0  0  0  0  0
   -0.3262    2.2182    9.0800 O   0  0  0  0  0  0  0  0  0  0  0  0
   -0.7512   -0.2185    8.8108 O   0  0  0  0  0  1  0  0  0  0  0  0
    0.1004    1.3512    6.9847 N   0  0  2  0  0  0  0  0  0  0  0  0
    1.7494    0.5794    9.0142 C   0  0  0  0  0  0  0  0  0  0  0  0
    2.1979   -0.7275    9.0645 C   0  0  0  0  0  0  0  0  0  0  0  0
    1.4970   -1.5281    8.8864 H   0  0  0  0  0  0  0  0  0  0  0  0
    3.5268   -0.9795    9.3605 C   0  0  0  0  0  0  0  0  0  0  0  0
    3.8808   -1.9988    9.4037 H   0  0  0  0  0  0  0  0  0  0  0  0
    4.4102    0.0669    9.6038 C   0  0  0  0  0  0  0  0  0  0  0  0
    3.9338    1.3755    9.5552 C   0  0  0  0  0  0  0  0  0  0  0  0
    4.6082    2.1953    9.7534 H   0  0  0  0  0  0  0  0  0  0  0  0
    2.6081    1.6381    9.2582 C   0  0  0  0  0  0  0  0  0  0  0  0
    2.2280    2.6535    9.2435 H   0  0  0  0  0  0  0  0  0  0  0  0
    5.8433   -0.2005    9.9411 C   0  0  0  0  0  0  0  0  0  0  0  0
    6.4952    0.5190    9.4513 H   0  0  0  0  0  0  0  0  0  0  0  0
    6.1345   -1.2045    9.6446 H   0  0  0  0  0  0  0  0  0  0  0  0
    5.9925   -0.1059   11.0166 H   0  0  0  0  0  0  0  0  0  0  0  0
    0.4750    0.4405    5.9319 C   0  0  0  0  0  0  0  0  0  0  0  0
   -0.3258    0.4158    5.1800 H   0  0  0  0  0  0  0  0  0  0  0  0
    0.5930   -0.5678    6.3486 H   0  0  0  0  0  0  0  0  0  0  0  0
    1.7749    0.9326    5.2635 C   0  0  0  0  0  0  0  0  0  0  0  0
    2.6165    0.7298    5.9355 H   0  0  0  0  0  0  0  0  0  0  0  0
    1.9313    0.3955    4.3271 H   0  0  0  0  0  0  0  0  0  0  0  0
    1.6558    2.4056    5.0259 C   0  0  0  0  0  0  0  0  0  0  0  0
    1.3764    3.0688    3.8631 C   0  0  0  0  0  0  0  0  0  0  0  0
    1.2166    2.6221    2.8966 H   0  0  0  0  0  0  0  0  0  0  0  0
    1.3633    4.4700    4.1253 C   0  0  0  0  0  0  0  0  0  0  0  0
    1.1893    5.2288    3.3817 H   0  0  0  0  0  0  0  0  0  0  0  0
    1.6158    4.6731    5.4524 C   0  0  0  0  0  0  0  0  0  0  0  0
    1.7648    5.6227    5.9478 H   0  0  0  0  0  0  0  0  0  0  0  0
    1.7526    3.3792    6.1048 C   0  0  1  0  0  0  0  0  0  0  0  0
    2.5384    3.2470    6.8562 H   0  0  0  0  0  0  0  0  0  0  0  0
   -2.2271    2.7751    6.3015 C   0  0  0  0  0  0  0  0  0  0  0  0
   -2.5771    1.8037    5.9795 H   0  0  0  0  0  0  0  0  0  0  0  0
   -1.5133    3.7016    5.5114 C   0  0  0  0  0  0  0  0  0  0  0  0
   -1.2672    3.5883    4.4631 H   0  0  0  0  0  0  0  0  0  0  0  0
   -1.3595    4.8918    6.2737 C   0  0  1  0  0  0  0  0  0  0  0  0
   -0.9875    5.8408    5.9044 H   0  0  0  0  0  0  0  0  0  0  0  0
   -1.9767    4.6793    7.5285 C   0  0  0  0  0  0  0  0  0  0  0  0
   -2.0991    5.4235    8.3057 H   0  0  0  0  0  0  0  0  0  0  0  0
   -2.5036    3.3753    7.5432 C   0  0  0  0  0  0  0  0  0  0  0  0
   -3.0805    2.9346    8.3449 H   0  0  0  0  0  0  0  0  0  0  0  0
  1  3  1  0  0  0  0
  1  4  1  0  0  0  0
  2  5  1  1  0  0  0
  2  7  1  0  0  0  0
  2  4  1  0  0  0  0
  6 21  1  1  0  0  0
  6  1  1  0  0  0  0
  6  2  1  0  0  0  0
  7  8  2  0  0  0  0
  7 15  1  0  0  0  0
  8 10  1  0  0  0  0
  9  8  1  0  0  0  0
 10 11  1  0  0  0  0
 10 12  2  0  0  0  0
 12 17  1  0  0  0  0
 13 12  1  0  0  0  0
 13 14  1  0  0  0  0
 15 13  2  0  0  0  0
 16 15  1  0  0  0  0
 17 20  1  0  0  0  0
 18 17  1  0  0  0  0
 19 17  1  0  0  0  0
 21 23  1  0  0  0  0
 22 21  1  0  0  0  0
 24 21  1  0  0  0  0
 24 25  1  0  0  0  0
 26 24  1  0  0  0  0
 27 24  1  0  0  0  0
 27 34  1  0  0  0  0
 28 30  1  0  0  0  0
 28 27  2  0  0  0  0
 29 28  1  0  0  0  0
 30 32  2  0  0  0  0
 31 30  1  0  0  0  0
 32 33  1  0  0  0  0
 32 34  1  0  0  0  0
 34 35  1  1  0  0  0
 34  1  1  0  0  0  0
 36 44  1  0  0  0  0
 37 36  1  0  0  0  0
 38 40  1  0  0  0  0
 38 36  2  0  0  0  0
 39 38  1  0  0  0  0
 40 41  1  6  0  0  0
 40  1  1  0  0  0  0
 40 42  1  0  0  0  0
 42 44  2  0  0  0  0
 42 43  1  0  0  0  0
 44 45  1  0  0  0  0
M  END
$$$$
