CSD_code = LOZKOC | q = 0 | S = 0 | Stoichiometry = C33H27ClN3O2PRu | MND = 6
 OpenBabel04212202063D

 68 74  0  0  0  0  0  0  0  0999 V2000
    1.0271    0.4606   11.3028 Ru  0  0  0  0  0  0  0  0  0  0  0  0
    2.2821    1.7661    9.7722 Cl  0  0  0  0  0  0  0  0  0  0  0  0
   -0.2543   -0.5697   12.9093 P   0  0  0  0  0  4  0  0  0  0  0  0
    1.2387    1.9831   12.7995 O   0  0  0  0  0  0  0  0  0  0  0  0
    3.5814   -1.0831   11.6277 O   0  0  0  0  0  1  0  0  0  0  0  0
   -0.5880    2.7481   11.6359 N   0  0  0  0  0  0  0  0  0  0  0  0
    0.5164   -0.8539   14.5342 C   0  0  0  0  0  0  0  0  0  0  0  0
   -0.3974    1.6755   10.8761 N   0  0  0  0  0  0  0  0  0  0  0  0
    0.2847   -0.4670    9.6499 N   0  0  0  0  0  0  0  0  0  0  0  0
   -0.9315   -2.2231   12.5544 C   0  0  0  0  0  0  0  0  0  0  0  0
    1.7811   -0.3438   14.8029 C   0  0  0  0  0  0  0  0  0  0  0  0
    2.3002    0.2218   14.0384 H   0  0  0  0  0  0  0  0  0  0  0  0
    0.1342    3.9169   13.5853 C   0  0  0  0  0  0  0  0  0  0  0  0
   -0.8633    4.8725   13.4135 C   0  0  0  0  0  0  0  0  0  0  0  0
   -1.4956    4.8133   12.5423 H   0  0  0  0  0  0  0  0  0  0  0  0
   -1.7045    0.4403   13.3291 C   0  0  0  0  0  0  0  0  0  0  0  0
    2.3567   -0.5477   16.0455 C   0  0  0  0  0  0  0  0  0  0  0  0
    3.3383   -0.1489   16.2543 H   0  0  0  0  0  0  0  0  0  0  0  0
   -0.1662   -1.5720   15.5136 C   0  0  0  0  0  0  0  0  0  0  0  0
   -1.1494   -1.9692   15.3018 H   0  0  0  0  0  0  0  0  0  0  0  0
   -1.7399   -4.8148   11.9796 C   0  0  0  0  0  0  0  0  0  0  0  0
   -2.0592   -5.8210   11.7527 H   0  0  0  0  0  0  0  0  0  0  0  0
    0.3001    2.8124   12.6206 C   0  0  0  0  0  0  0  0  0  0  0  0
   -0.6995    0.2772    9.0774 C   0  0  0  0  0  0  0  0  0  0  0  0
    2.5721   -0.5463   11.5503 C   0  0  0  0  0  2  0  0  0  0  0  0
   -2.2234   -2.6329   12.8618 C   0  0  0  0  0  0  0  0  0  0  0  0
   -2.9171   -1.9458   13.3264 H   0  0  0  0  0  0  0  0  0  0  0  0
    1.6769   -1.2623   17.0176 C   0  0  0  0  0  0  0  0  0  0  0  0
    2.1282   -1.4222   17.9857 H   0  0  0  0  0  0  0  0  0  0  0  0
   -2.1342    2.4170    9.2990 C   0  0  0  0  0  0  0  0  0  0  0  0
   -2.2758    3.1880   10.0523 H   0  0  0  0  0  0  0  0  0  0  0  0
   -3.0762    1.8960    9.1313 H   0  0  0  0  0  0  0  0  0  0  0  0
   -1.8239    2.8873    8.3665 H   0  0  0  0  0  0  0  0  0  0  0  0
    0.2094   -1.9737    7.8027 C   0  0  0  0  0  0  0  0  0  0  0  0
    0.6079   -2.8562    7.3302 H   0  0  0  0  0  0  0  0  0  0  0  0
   -3.7790    1.4164   12.6038 C   0  0  0  0  0  0  0  0  0  0  0  0
   -4.5902    1.4700   11.8922 H   0  0  0  0  0  0  0  0  0  0  0  0
    0.7925    4.9770   15.6390 C   0  0  0  0  0  0  0  0  0  0  0  0
    1.4363    5.0210   16.5054 H   0  0  0  0  0  0  0  0  0  0  0  0
   -2.7140    2.2079   14.6050 C   0  0  0  0  0  0  0  0  0  0  0  0
   -2.6886    2.8810   15.4491 H   0  0  0  0  0  0  0  0  0  0  0  0
   -0.2020    5.9262   15.4655 C   0  0  0  0  0  0  0  0  0  0  0  0
   -0.3334    6.7101   16.1974 H   0  0  0  0  0  0  0  0  0  0  0  0
   -1.0804    1.4734    9.7869 C   0  0  0  0  0  0  0  0  0  0  0  0
   -3.7573    2.2685   13.6974 C   0  0  0  0  0  0  0  0  0  0  0  0
   -4.5513    2.9872   13.8357 H   0  0  0  0  0  0  0  0  0  0  0  0
   -2.7539    0.5111   12.4128 C   0  0  0  0  0  0  0  0  0  0  0  0
   -2.7487   -0.1418   11.5471 H   0  0  0  0  0  0  0  0  0  0  0  0
    0.4159   -1.7736   16.7506 C   0  0  0  0  0  0  0  0  0  0  0  0
   -0.1138   -2.3306   17.5096 H   0  0  0  0  0  0  0  0  0  0  0  0
   -0.4458   -4.4142   11.6848 C   0  0  0  0  0  0  0  0  0  0  0  0
    0.2463   -5.1092   11.2328 H   0  0  0  0  0  0  0  0  0  0  0  0
   -1.6861    1.2998   14.4225 C   0  0  0  0  0  0  0  0  0  0  0  0
   -0.8604    1.2640   15.1202 H   0  0  0  0  0  0  0  0  0  0  0  0
   -1.0271    5.8726   14.3524 C   0  0  0  0  0  0  0  0  0  0  0  0
   -1.7994    6.6161   14.2187 H   0  0  0  0  0  0  0  0  0  0  0  0
   -0.8117   -1.2386    7.2145 C   0  0  0  0  0  0  0  0  0  0  0  0
   -1.2347   -1.5406    6.2687 H   0  0  0  0  0  0  0  0  0  0  0  0
   -1.2646   -0.1044    7.8555 C   0  0  0  0  0  0  0  0  0  0  0  0
   -2.0387    0.5054    7.4191 H   0  0  0  0  0  0  0  0  0  0  0  0
   -2.6226   -3.9260   12.5700 C   0  0  0  0  0  0  0  0  0  0  0  0
   -3.6280   -4.2415   12.8080 H   0  0  0  0  0  0  0  0  0  0  0  0
    0.7263   -1.5445    9.0123 C   0  0  0  0  0  0  0  0  0  0  0  0
    1.5362   -2.0855    9.4852 H   0  0  0  0  0  0  0  0  0  0  0  0
   -0.0444   -3.1239   11.9717 C   0  0  0  0  0  0  0  0  0  0  0  0
    0.9644   -2.7908   11.7588 H   0  0  0  0  0  0  0  0  0  0  0  0
    0.9623    3.9748   14.7031 C   0  0  0  0  0  0  0  0  0  0  0  0
    1.7320    3.2264   14.8209 H   0  0  0  0  0  0  0  0  0  0  0  0
  1 25  1  0  0  0  0
  1  4  1  0  0  0  0
  1  3  1  0  0  0  0
  2  1  1  0  0  0  0
  3 16  1  0  0  0  0
  3  7  1  0  0  0  0
  6 23  2  0  0  0  0
  7 11  2  0  0  0  0
  7 19  1  0  0  0  0
  8  1  1  0  0  0  0
  8  6  1  0  0  0  0
  9  1  1  0  0  0  0
 10 26  1  0  0  0  0
 10  3  1  0  0  0  0
 11 17  1  0  0  0  0
 12 11  1  0  0  0  0
 13 67  1  0  0  0  0
 14 13  2  0  0  0  0
 14 55  1  0  0  0  0
 15 14  1  0  0  0  0
 16 53  1  0  0  0  0
 17 18  1  0  0  0  0
 17 28  2  0  0  0  0
 19 49  2  0  0  0  0
 20 19  1  0  0  0  0
 21 61  1  0  0  0  0
 22 21  1  0  0  0  0
 23  4  1  0  0  0  0
 23 13  1  0  0  0  0
 24  9  1  0  0  0  0
 24 44  2  0  0  0  0
 25  5  1  0  0  0  0
 26 27  1  0  0  0  0
 28 29  1  0  0  0  0
 30 44  1  0  0  0  0
 30 31  1  0  0  0  0
 32 30  1  0  0  0  0
 33 30  1  0  0  0  0
 34 63  2  0  0  0  0
 35 34  1  0  0  0  0
 36 45  2  0  0  0  0
 37 36  1  0  0  0  0
 38 39  1  0  0  0  0
 40 41  1  0  0  0  0
 42 38  1  0  0  0  0
 42 43  1  0  0  0  0
 44  8  1  0  0  0  0
 45 46  1  0  0  0  0
 45 40  1  0  0  0  0
 47 36  1  0  0  0  0
 47 16  2  0  0  0  0
 48 47  1  0  0  0  0
 49 28  1  0  0  0  0
 49 50  1  0  0  0  0
 51 65  1  0  0  0  0
 51 21  2  0  0  0  0
 52 51  1  0  0  0  0
 53 40  2  0  0  0  0
 53 54  1  0  0  0  0
 55 42  2  0  0  0  0
 56 55  1  0  0  0  0
 57 34  1  0  0  0  0
 57 59  2  0  0  0  0
 58 57  1  0  0  0  0
 59 24  1  0  0  0  0
 60 59  1  0  0  0  0
 61 62  1  0  0  0  0
 61 26  2  0  0  0  0
 63 64  1  0  0  0  0
 63  9  1  0  0  0  0
 65 10  2  0  0  0  0
 66 65  1  0  0  0  0
 67 68  1  0  0  0  0
 67 38  2  0  0  0  0
M  END
$$$$
