CSD_code = LUBJID | q = 0 | S = 0 | Stoichiometry = C13H11ClIIrN2O2 | MND = 4
 OpenBabel04212202063D

 31 32  0  0  0  0  0  0  0  0999 V2000
   11.7415    4.7511    9.8060 H   0  0  0  0  0  0  0  0  0  0  0  0
   13.3615    2.6495    9.0715 H   0  0  0  0  0  0  0  0  0  0  0  0
   12.5073    6.6845   11.8296 H   0  0  0  0  0  0  0  0  0  0  0  0
   12.8214    5.7445   13.3137 H   0  0  0  0  0  0  0  0  0  0  0  0
   11.1261    3.5894   13.4638 H   0  0  0  0  0  0  0  0  0  0  0  0
    8.7231    3.1461   13.6980 H   0  0  0  0  0  0  0  0  0  0  0  0
    7.8490    6.8770   11.7934 H   0  0  0  0  0  0  0  0  0  0  0  0
   10.2522    7.3136   11.5512 H   0  0  0  0  0  0  0  0  0  0  0  0
   15.9303    2.1427   10.2202 H   0  0  0  0  0  0  0  0  0  0  0  0
   15.7297    2.0415   11.9884 H   0  0  0  0  0  0  0  0  0  0  0  0
   14.7443    1.0173   10.9203 H   0  0  0  0  0  0  0  0  0  0  0  0
   15.2737    3.5841   15.6880 C   0  0  0  0  0  2  0  0  0  0  0  0
   16.0859    5.1017   13.4994 C   0  0  0  0  0  2  0  0  0  0  0  0
   13.9753    3.9013   11.9980 C   0  0  0  0  0  0  0  0  0  0  0  0
   12.5495    4.2757   10.3225 C   0  0  0  0  0  0  0  0  0  0  0  0
   13.3447    3.2412    9.9634 C   0  0  0  0  0  0  0  0  0  0  0  0
   12.3313    5.7259   12.3296 C   0  0  0  0  0  0  0  0  0  0  0  0
   10.8527    5.4799   12.4869 C   0  0  0  0  0  0  0  0  0  0  0  0
   10.4102    4.3080   13.0908 C   0  0  0  0  0  0  0  0  0  0  0  0
    9.0576    4.0568   13.2263 C   0  0  0  0  0  0  0  0  0  0  0  0
    8.1450    4.9847   12.7566 C   0  0  0  0  0  0  0  0  0  0  0  0
    8.5660    6.1568   12.1560 C   0  0  0  0  0  0  0  0  0  0  0  0
    9.9222    6.3978   12.0206 C   0  0  0  0  0  0  0  0  0  0  0  0
   15.2106    1.9977   11.0277 C   0  0  0  0  0  0  0  0  0  0  0  0
   12.9527    4.6658   11.5705 N   0  0  0  0  0  0  0  0  0  0  0  0
   14.2101    3.0286   11.0016 N   0  0  0  0  0  0  0  0  0  0  0  0
   15.4609    3.3219   16.7848 O   0  0  0  0  0  1  0  0  0  0  0  0
   16.8920    5.8833   13.2295 O   0  0  0  0  0  1  0  0  0  0  0  0
   13.1480    2.3168   14.2872 Cl  0  0  0  0  0  0  0  0  0  0  0  0
    6.0707    4.6071   12.9542 I   0  0  0  0  0  0  0  0  0  0  0  0
   14.7794    3.8511   13.8978 Ir  0  0  0  0  0  0  0  0  0  0  0  0
  1 15  1  0  0  0  0
  2 16  1  0  0  0  0
  3 17  1  0  0  0  0
  7 22  1  0  0  0  0
  8 23  1  0  0  0  0
  9 24  1  0  0  0  0
 11 24  1  0  0  0  0
 12 27  1  0  0  0  0
 13 31  1  0  0  0  0
 14 31  2  0  0  0  0
 15 25  1  0  0  0  0
 16 15  2  0  0  0  0
 16 26  1  0  0  0  0
 17 18  1  0  0  0  0
 17  4  1  0  0  0  0
 18 19  1  0  0  0  0
 19 20  2  0  0  0  0
 19  5  1  0  0  0  0
 20  6  1  0  0  0  0
 21 30  1  0  0  0  0
 21 20  1  0  0  0  0
 22 21  2  0  0  0  0
 23 22  1  0  0  0  0
 23 18  2  0  0  0  0
 24 10  1  0  0  0  0
 25 14  1  0  0  0  0
 25 17  1  0  0  0  0
 26 24  1  0  0  0  0
 26 14  1  0  0  0  0
 28 13  1  0  0  0  0
 31 29  1  0  0  0  0
 31 12  1  0  0  0  0
M  END
$$$$
