CSD_code = LUCPAB | q = 0 | S = 0 | Stoichiometry = C10H30ClN2O7P3W | MND = 6
 OpenBabel04212202063D

 54 54  0  0  0  0  0  0  0  0999 V2000
    4.6994    2.4242    9.2272 W   0  0  0  0  0  0  0  0  0  0  0  0
    4.5684    3.2942   11.4161 P   0  0  0  0  0  4  0  0  0  0  0  0
    5.9584    4.3262    8.5386 P   0  0  0  0  0  4  0  0  0  0  0  0
    3.2158    0.5530    9.3574 P   0  0  0  0  0  4  0  0  0  0  0  0
    2.7364    3.6859    8.5388 Cl  0  0  0  0  0  0  0  0  0  0  0  0
    6.1080    1.4116    9.5401 N   0  0  0  0  0  2  0  0  0  0  0  0
    7.0353    0.6586    9.6804 O   0  0  0  0  0  1  0  0  0  0  0  0
    4.6271    1.7954    7.0547 N   0  0  0  0  0  4  0  0  0  0  0  0
    3.9158    2.4359    6.6912 H   0  0  0  0  0  0  0  0  0  0  0  0
    5.5003    2.0066    6.5750 H   0  0  0  0  0  0  0  0  0  0  0  0
    4.6239    2.3098   12.7188 O   0  0  0  0  0  0  0  0  0  0  0  0
    3.3599    4.2105   11.9452 O   0  0  0  0  0  0  0  0  0  0  0  0
    5.7795    4.3282   11.6832 O   0  0  0  0  0  0  0  0  0  0  0  0
    5.7739    5.8550    9.0506 O   0  0  0  0  0  0  0  0  0  0  0  0
    5.7737    4.4573    6.9317 O   0  0  0  0  0  0  0  0  0  0  0  0
    7.5572    4.2990    8.5815 O   0  0  0  0  0  0  0  0  0  0  0  0
    5.4505    1.1631   12.7069 C   0  0  0  0  0  0  0  0  0  0  0  0
    5.4593    0.7169   11.7097 H   0  0  0  0  0  0  0  0  0  0  0  0
    5.0370    0.4606   13.4315 H   0  0  0  0  0  0  0  0  0  0  0  0
    6.4726    1.4222   12.9903 H   0  0  0  0  0  0  0  0  0  0  0  0
    2.0236    3.7381   11.8849 C   0  0  0  0  0  0  0  0  0  0  0  0
    1.7415    3.5305   10.8508 H   0  0  0  0  0  0  0  0  0  0  0  0
    1.3964    4.5346   12.2846 H   0  0  0  0  0  0  0  0  0  0  0  0
    1.9081    2.8371   12.4892 H   0  0  0  0  0  0  0  0  0  0  0  0
    5.9404    4.9885   12.9365 C   0  0  0  0  0  0  0  0  0  0  0  0
    5.4353    5.9550   12.9152 H   0  0  0  0  0  0  0  0  0  0  0  0
    7.0101    5.1333   13.0905 H   0  0  0  0  0  0  0  0  0  0  0  0
    5.5266    4.3842   13.7453 H   0  0  0  0  0  0  0  0  0  0  0  0
    4.4922    6.3761    9.3497 C   0  0  0  0  0  0  0  0  0  0  0  0
    3.8307    6.3219    8.4826 H   0  0  0  0  0  0  0  0  0  0  0  0
    4.6392    7.4181    9.6357 H   0  0  0  0  0  0  0  0  0  0  0  0
    4.0369    5.8279   10.1767 H   0  0  0  0  0  0  0  0  0  0  0  0
    6.4586    5.4600    6.1927 C   0  0  0  0  0  0  0  0  0  0  0  0
    6.5848    6.3643    6.7893 H   0  0  0  0  0  0  0  0  0  0  0  0
    5.8545    5.6790    5.3114 H   0  0  0  0  0  0  0  0  0  0  0  0
    7.4403    5.0938    5.8894 H   0  0  0  0  0  0  0  0  0  0  0  0
    8.2498    3.9900    9.7771 C   0  0  0  0  0  0  0  0  0  0  0  0
    8.1943    4.8246   10.4764 H   0  0  0  0  0  0  0  0  0  0  0  0
    9.2862    3.8047    9.4946 H   0  0  0  0  0  0  0  0  0  0  0  0
    7.8269    3.1009   10.2483 H   0  0  0  0  0  0  0  0  0  0  0  0
    4.2188    0.4123    6.8114 C   0  0  0  0  0  0  0  0  0  0  0  0
    5.0121   -0.2440    7.1869 H   0  0  0  0  0  0  0  0  0  0  0  0
    4.0818    0.2139    5.7374 H   0  0  0  0  0  0  0  0  0  0  0  0
    2.9244    0.1400    7.5686 C   0  0  0  0  0  0  0  0  0  0  0  0
    2.5942   -0.8928    7.4352 H   0  0  0  0  0  0  0  0  0  0  0  0
    2.1410    0.8147    7.2080 H   0  0  0  0  0  0  0  0  0  0  0  0
    1.4819    0.5663    9.9491 C   0  0  0  0  0  0  0  0  0  0  0  0
    0.9603   -0.3364    9.6305 H   0  0  0  0  0  0  0  0  0  0  0  0
    0.9873    1.4442    9.5367 H   0  0  0  0  0  0  0  0  0  0  0  0
    1.4722    0.6325   11.0361 H   0  0  0  0  0  0  0  0  0  0  0  0
    3.8004   -1.0552   10.0099 C   0  0  0  0  0  0  0  0  0  0  0  0
    3.7756   -1.0240   11.0977 H   0  0  0  0  0  0  0  0  0  0  0  0
    4.8300   -1.2112    9.6933 H   0  0  0  0  0  0  0  0  0  0  0  0
    3.1732   -1.8728    9.6554 H   0  0  0  0  0  0  0  0  0  0  0  0
  1  4  1  0  0  0  0
  1  6  1  0  0  0  0
  1  2  1  0  0  0  0
  2 13  1  0  0  0  0
  2 12  1  0  0  0  0
  2 11  1  0  0  0  0
  3 16  1  0  0  0  0
  3 14  1  0  0  0  0
  3  1  1  0  0  0  0
  4 47  1  0  0  0  0
  4 51  1  0  0  0  0
  5  1  1  0  0  0  0
  6  7  1  0  0  0  0
  8  1  1  0  0  0  0
  9  8  1  0  0  0  0
 10  8  1  0  0  0  0
 13 25  1  0  0  0  0
 14 29  1  0  0  0  0
 15  3  1  0  0  0  0
 16 37  1  0  0  0  0
 17 11  1  0  0  0  0
 17 20  1  0  0  0  0
 17 19  1  0  0  0  0
 18 17  1  0  0  0  0
 21 12  1  0  0  0  0
 21 23  1  0  0  0  0
 21 24  1  0  0  0  0
 22 21  1  0  0  0  0
 25 27  1  0  0  0  0
 25 28  1  0  0  0  0
 26 25  1  0  0  0  0
 29 31  1  0  0  0  0
 29 32  1  0  0  0  0
 30 29  1  0  0  0  0
 33 34  1  0  0  0  0
 33 15  1  0  0  0  0
 35 33  1  0  0  0  0
 36 33  1  0  0  0  0
 37 40  1  0  0  0  0
 37 38  1  0  0  0  0
 39 37  1  0  0  0  0
 41  8  1  0  0  0  0
 41 42  1  0  0  0  0
 41 44  1  0  0  0  0
 43 41  1  0  0  0  0
 44  4  1  0  0  0  0
 45 44  1  0  0  0  0
 46 44  1  0  0  0  0
 47 50  1  0  0  0  0
 48 47  1  0  0  0  0
 49 47  1  0  0  0  0
 51 52  1  0  0  0  0
 53 51  1  0  0  0  0
 54 51  1  0  0  0  0
M  END
$$$$
