CSD_code = LUCPIJ | q = 0 | S = 0 | Stoichiometry = C8H21ClN2O5P2W | MND = 6
 OpenBabel04212202063D

 40 40  0  0  0  0  0  0  0  0999 V2000
    2.7720   10.8448    1.7912 W   0  0  0  0  0  0  0  0  0  0  0  0
    3.4338   13.0334    1.0251 P   0  0  0  0  0  4  0  0  0  0  0  0
    1.6496    8.7587    2.1526 P   0  0  0  0  0  4  0  0  0  0  0  0
    0.6038   11.8836    2.0851 Cl  0  0  0  0  0  0  0  0  0  0  0  0
    2.6670   13.1250   -0.6583 C   0  0  0  0  0  0  0  0  0  0  0  0
    1.6285   13.4441   -0.5224 H   0  0  0  0  0  0  0  0  0  0  0  0
    3.1799   13.8489   -1.2962 H   0  0  0  0  0  0  0  0  0  0  0  0
    2.6964   11.7282   -1.2736 C   0  0  0  0  0  0  0  0  0  0  0  0
    2.2181   11.7454   -2.2654 H   0  0  0  0  0  0  0  0  0  0  0  0
    3.7353   11.4012   -1.3999 H   0  0  0  0  0  0  0  0  0  0  0  0
    2.0316   10.7878   -0.3700 N   0  0  0  0  0  4  0  0  0  0  0  0
    2.0310    9.8467   -0.7624 H   0  0  0  0  0  0  0  0  0  0  0  0
    1.0542   11.0698   -0.2440 H   0  0  0  0  0  0  0  0  0  0  0  0
    2.8537   14.5886    1.7794 C   0  0  0  0  0  0  0  0  0  0  0  0
    3.3786   14.7362    2.7228 H   0  0  0  0  0  0  0  0  0  0  0  0
    1.7885   14.4898    1.9840 H   0  0  0  0  0  0  0  0  0  0  0  0
    3.0344   15.4356    1.1170 H   0  0  0  0  0  0  0  0  0  0  0  0
    5.1937   13.3882    0.6878 C   0  0  0  0  0  0  0  0  0  0  0  0
    5.3115   14.3261    0.1455 H   0  0  0  0  0  0  0  0  0  0  0  0
    5.6213   12.5671    0.1152 H   0  0  0  0  0  0  0  0  0  0  0  0
    5.7173   13.4448    1.6410 H   0  0  0  0  0  0  0  0  0  0  0  0
    4.3325   10.1232    1.3726 N   0  0  0  0  0  2  0  0  0  0  0  0
    5.3767    9.6683    1.0266 O   0  0  0  0  0  1  0  0  0  0  0  0
    3.2805   11.0379    3.6852 C   0  0  0  0  0  2  0  0  0  0  0  0
    3.5787   11.1503    4.7943 O   0  0  0  0  0  1  0  0  0  0  0  0
    0.6573    6.7873    0.6973 C   0  0  0  0  0  0  0  0  0  0  0  0
    0.9975    6.1482    1.5128 H   0  0  0  0  0  0  0  0  0  0  0  0
    0.9082    6.3324   -0.2609 H   0  0  0  0  0  0  0  0  0  0  0  0
   -0.4212    6.9248    0.7745 H   0  0  0  0  0  0  0  0  0  0  0  0
    1.3168    8.0503    0.7406 O   0  0  0  0  0  0  0  0  0  0  0  0
    3.8037    7.5109    3.0728 C   0  0  0  0  0  0  0  0  0  0  0  0
    4.2166    7.1850    2.1165 H   0  0  0  0  0  0  0  0  0  0  0  0
    4.0348    6.7754    3.8430 H   0  0  0  0  0  0  0  0  0  0  0  0
    4.2392    8.4785    3.3387 H   0  0  0  0  0  0  0  0  0  0  0  0
    2.3914    7.6006    3.0134 O   0  0  0  0  0  0  0  0  0  0  0  0
    0.0117    9.2046    4.1268 C   0  0  0  0  0  0  0  0  0  0  0  0
   -1.0278    9.0118    4.3883 H   0  0  0  0  0  0  0  0  0  0  0  0
    0.1889   10.2820    4.0967 H   0  0  0  0  0  0  0  0  0  0  0  0
    0.6735    8.7478    4.8640 H   0  0  0  0  0  0  0  0  0  0  0  0
    0.2158    8.6298    2.8429 O   0  0  0  0  0  0  0  0  0  0  0  0
  1  4  1  0  0  0  0
  1  3  1  0  0  0  0
  1 24  1  0  0  0  0
  2 14  1  0  0  0  0
  2  1  1  0  0  0  0
  3 40  1  0  0  0  0
  3 35  1  0  0  0  0
  5  6  1  0  0  0  0
  5  2  1  0  0  0  0
  7  5  1  0  0  0  0
  8  5  1  0  0  0  0
  8 11  1  0  0  0  0
  9  8  1  0  0  0  0
 10  8  1  0  0  0  0
 11 13  1  0  0  0  0
 11  1  1  0  0  0  0
 12 11  1  0  0  0  0
 14 16  1  0  0  0  0
 14 15  1  0  0  0  0
 17 14  1  0  0  0  0
 18  2  1  0  0  0  0
 18 21  1  0  0  0  0
 19 18  1  0  0  0  0
 20 18  1  0  0  0  0
 22  1  1  0  0  0  0
 23 22  1  0  0  0  0
 24 25  1  0  0  0  0
 26 30  1  0  0  0  0
 26 29  1  0  0  0  0
 26 27  1  0  0  0  0
 28 26  1  0  0  0  0
 30  3  1  0  0  0  0
 31 34  1  0  0  0  0
 31 33  1  0  0  0  0
 32 31  1  0  0  0  0
 35 31  1  0  0  0  0
 36 37  1  0  0  0  0
 36 39  1  0  0  0  0
 38 36  1  0  0  0  0
 40 36  1  0  0  0  0
M  END
$$$$
