CSD_code = LUCWOW | q = 0 | S = 0 | Stoichiometry = C19H27BrClNPd | MND = 5
 OpenBabel04212202063D

 50 50  0  0  1  0  0  0  0  0999 V2000
    8.7822    3.0055    1.8696 Pd  0  0  0  0  0  0  0  0  0  0  0  0
   10.9948    2.8341    1.0588 Br  0  0  0  0  0 15  0  0  0  0  0  0
    2.8491    5.9792    4.3726 Cl  0  0  0  0  0  0  0  0  0  0  0  0
    9.0122    5.3139    1.7875 N   0  0  0  0  0  0  0  0  0  0  0  0
   10.0082    5.4067    1.5716 H   0  0  0  0  0  0  0  0  0  0  0  0
    8.4946    5.8220    1.0681 H   0  0  0  0  0  0  0  0  0  0  0  0
    8.2764    1.0689    1.7606 C   0  0  0  0  0  0  0  0  0  0  0  0
    6.9594    1.2320    1.7055 C   0  0  0  0  0  0  0  0  0  0  0  0
    6.6916    2.6957    1.8932 C   0  0  1  0  0  0  0  0  0  0  0  0
    7.0217    3.3092    3.0914 C   0  0  1  0  0  3  0  0  0  0  0  0
    6.5043    4.6834    3.3844 C   0  0  0  0  0  0  0  0  0  0  0  0
    5.1442    4.7453    3.6858 C   0  0  0  0  0  0  0  0  0  0  0  0
    4.5575    3.8394    3.6610 H   0  0  0  0  0  0  0  0  0  0  0  0
    4.5399    5.9440    4.0108 C   0  0  0  0  0  0  0  0  0  0  0  0
    5.2795    7.1144    4.0463 C   0  0  0  0  0  0  0  0  0  0  0  0
    4.8098    8.0511    4.2991 H   0  0  0  0  0  0  0  0  0  0  0  0
    6.6264    7.0556    3.7477 C   0  0  0  0  0  0  0  0  0  0  0  0
    7.2059    7.9672    3.7739 H   0  0  0  0  0  0  0  0  0  0  0  0
    7.2595    5.8603    3.4211 C   0  0  0  0  0  0  0  0  0  0  0  0
    8.7349    5.8970    3.1034 C   0  0  0  0  0  0  0  0  0  0  0  0
    9.0784    6.9415    3.1583 H   0  0  0  0  0  0  0  0  0  0  0  0
    9.3021    5.3209    3.8459 H   0  0  0  0  0  0  0  0  0  0  0  0
    9.1485   -0.1345    1.7008 C   0  0  0  0  0  0  0  0  0  0  0  0
    9.8206   -0.0600    0.8399 H   0  0  0  0  0  0  0  0  0  0  0  0
    8.5299   -1.0304    1.5761 H   0  0  0  0  0  0  0  0  0  0  0  0
    9.9886   -0.2505    2.9761 C   0  0  0  0  0  0  0  0  0  0  0  0
   10.6630   -1.1004    2.9108 H   0  0  0  0  0  0  0  0  0  0  0  0
    9.3467   -0.3791    3.8464 H   0  0  0  0  0  0  0  0  0  0  0  0
   10.5850    0.6535    3.1078 H   0  0  0  0  0  0  0  0  0  0  0  0
    5.8411    0.2525    1.4816 C   0  0  0  0  0  0  0  0  0  0  0  0
    6.2554   -0.7556    1.4245 H   0  0  0  0  0  0  0  0  0  0  0  0
    5.3565    0.4670    0.5243 H   0  0  0  0  0  0  0  0  0  0  0  0
    4.7975    0.3224    2.5945 C   0  0  0  0  0  0  0  0  0  0  0  0
    3.9777   -0.3621    2.3886 H   0  0  0  0  0  0  0  0  0  0  0  0
    4.3930    1.3294    2.6761 H   0  0  0  0  0  0  0  0  0  0  0  0
    5.2383    0.0520    3.5514 H   0  0  0  0  0  0  0  0  0  0  0  0
    6.0081    3.4208    0.7561 C   0  0  0  0  0  0  0  0  0  0  0  0
    5.8809    4.4800    1.0007 H   0  0  0  0  0  0  0  0  0  0  0  0
    5.0128    2.9904    0.6095 H   0  0  0  0  0  0  0  0  0  0  0  0
    6.8149    3.2799   -0.5414 C   0  0  0  0  0  0  0  0  0  0  0  0
    6.3652    3.8716   -1.3360 H   0  0  0  0  0  0  0  0  0  0  0  0
    6.8459    2.2384   -0.8614 H   0  0  0  0  0  0  0  0  0  0  0  0
    7.8532    3.6261   -0.3953 H   0  0  0  0  0  0  0  0  0  0  0  0
    7.2938    2.5097    4.3615 C   0  0  0  0  0  0  0  0  0  0  0  0
    6.4959    2.7256    5.0801 H   0  0  0  0  0  0  0  0  0  0  0  0
    7.2644    1.4428    4.1259 H   0  0  0  0  0  0  0  0  0  0  0  0
    8.6446    2.8331    5.0099 C   0  0  0  0  0  0  0  0  0  0  0  0
    8.8409    2.1387    5.8242 H   0  0  0  0  0  0  0  0  0  0  0  0
    8.6442    3.8417    5.4205 H   0  0  0  0  0  0  0  0  0  0  0  0
    9.4591    2.7338    4.2698 H   0  0  0  0  0  0  0  0  0  0  0  0
  1  9  1  0  0  0  0
  4 20  1  0  0  0  0
  5  4  1  0  0  0  0
  6  4  1  0  0  0  0
  7  1  1  0  0  0  0
  8  7  2  0  0  0  0
  8  9  1  0  0  0  0
  9 37  1  6  0  0  0
  9 10  1  0  0  0  0
 10 11  1  0  0  0  0
 10 44  1  1  0  0  0
 11 19  2  0  0  0  0
 11 12  1  0  0  0  0
 12 14  2  0  0  0  0
 13 12  1  0  0  0  0
 14 15  1  0  0  0  0
 14  3  1  0  0  0  0
 15 16  1  0  0  0  0
 17 18  1  0  0  0  0
 17 15  2  0  0  0  0
 19 17  1  0  0  0  0
 20 21  1  0  0  0  0
 20 19  1  0  0  0  0
 20 22  1  0  0  0  0
 23  7  1  0  0  0  0
 23 26  1  0  0  0  0
 24 23  1  0  0  0  0
 25 23  1  0  0  0  0
 26 29  1  0  0  0  0
 26 28  1  0  0  0  0
 27 26  1  0  0  0  0
 30  8  1  0  0  0  0
 30 33  1  0  0  0  0
 31 30  1  0  0  0  0
 32 30  1  0  0  0  0
 33 35  1  0  0  0  0
 33 36  1  0  0  0  0
 34 33  1  0  0  0  0
 37 38  1  0  0  0  0
 39 37  1  0  0  0  0
 40 43  1  0  0  0  0
 40 37  1  0  0  0  0
 41 40  1  0  0  0  0
 42 40  1  0  0  0  0
 44 47  1  0  0  0  0
 44 45  1  0  0  0  0
 46 44  1  0  0  0  0
 47 49  1  0  0  0  0
 47 48  1  0  0  0  0
 50 47  1  0  0  0  0
M  END
$$$$
