CSD_code = LUCXAJ | q = 0 | S = 0 | Stoichiometry = C19H27BrN2O2Pd | MND = 5
 OpenBabel04212202063D

 52 52  0  0  1  0  0  0  0  0999 V2000
    8.0351    8.6590    1.9406 Pd  0  0  0  0  0  0  0  0  0  0  0  0
    8.0910   10.9081    1.2237 Br  0  0  0  0  0 15  0  0  0  0  0  0
   10.3634    8.6646    1.8769 N   0  0  0  0  0  0  0  0  0  0  0  0
   10.5391    9.6591    1.7108 H   0  0  0  0  0  0  0  0  0  0  0  0
   10.8280    8.1444    1.1306 H   0  0  0  0  0  0  0  0  0  0  0  0
   10.4315    2.6563    4.1517 N   0  0  0  0  0  0  0  0  0  0  0  0
    9.3358    2.1510    4.0285 O   0  0  0  0  0  0  0  0  0  0  0  0
   11.4396    2.0573    4.4582 O   0  0  0  0  0  0  0  0  0  0  0  0
    6.0589    8.3465    1.8096 C   0  0  0  0  0  0  0  0  0  0  0  0
    6.0951    7.0232    1.7035 C   0  0  0  0  0  0  0  0  0  0  0  0
    7.5259    6.6094    1.8784 C   0  0  2  0  0  0  0  0  0  0  0  0
    8.1652    6.8346    3.0884 C   0  0  2  0  0  3  0  0  0  0  0  0
    9.4794    6.1718    3.3614 C   0  0  0  0  0  0  0  0  0  0  0  0
    9.4079    4.8035    3.6065 C   0  0  0  0  0  0  0  0  0  0  0  0
    8.4568    4.2941    3.5562 H   0  0  0  0  0  0  0  0  0  0  0  0
   10.5437    4.0733    3.9139 C   0  0  0  0  0  0  0  0  0  0  0  0
   11.7847    4.6914    3.9931 C   0  0  0  0  0  0  0  0  0  0  0  0
   12.6593    4.1085    4.2346 H   0  0  0  0  0  0  0  0  0  0  0  0
   11.8594    6.0462    3.7497 C   0  0  0  0  0  0  0  0  0  0  0  0
   12.8199    6.5371    3.8051 H   0  0  0  0  0  0  0  0  0  0  0  0
   10.7299    6.8017    3.4370 C   0  0  0  0  0  0  0  0  0  0  0  0
   10.9149    8.2763    3.1770 C   0  0  0  0  0  0  0  0  0  0  0  0
   10.3940    8.8626    3.9452 H   0  0  0  0  0  0  0  0  0  0  0  0
   11.9876    8.5134    3.2462 H   0  0  0  0  0  0  0  0  0  0  0  0
    4.9499    9.3362    1.7883 C   0  0  0  0  0  0  0  0  0  0  0  0
    3.9977    8.8158    1.6376 H   0  0  0  0  0  0  0  0  0  0  0  0
    5.0940   10.0344    0.9576 H   0  0  0  0  0  0  0  0  0  0  0  0
    4.9140   10.1268    3.0997 C   0  0  0  0  0  0  0  0  0  0  0  0
    4.1358   10.8848    3.0647 H   0  0  0  0  0  0  0  0  0  0  0  0
    5.8724   10.6239    3.2572 H   0  0  0  0  0  0  0  0  0  0  0  0
    4.7182    9.4633    3.9408 H   0  0  0  0  0  0  0  0  0  0  0  0
    5.0129    6.0145    1.4383 C   0  0  0  0  0  0  0  0  0  0  0  0
    5.1938    5.5333    0.4726 H   0  0  0  0  0  0  0  0  0  0  0  0
    4.0530    6.5302    1.3771 H   0  0  0  0  0  0  0  0  0  0  0  0
    4.9579    4.9433    2.5259 C   0  0  0  0  0  0  0  0  0  0  0  0
    4.1943    4.2058    2.2903 H   0  0  0  0  0  0  0  0  0  0  0  0
    4.7197    5.3868    3.4901 H   0  0  0  0  0  0  0  0  0  0  0  0
    5.9142    4.4312    2.6102 H   0  0  0  0  0  0  0  0  0  0  0  0
    8.1843    5.9032    0.7154 C   0  0  0  0  0  0  0  0  0  0  0  0
    9.2272    5.6671    0.9499 H   0  0  0  0  0  0  0  0  0  0  0  0
    7.6616    4.9595    0.5334 H   0  0  0  0  0  0  0  0  0  0  0  0
    8.1224    6.7685   -0.5501 C   0  0  0  0  0  0  0  0  0  0  0  0
    8.6712    6.2961   -1.3620 H   0  0  0  0  0  0  0  0  0  0  0  0
    8.5639    7.7638   -0.3649 H   0  0  0  0  0  0  0  0  0  0  0  0
    7.0892    6.9084   -0.8672 H   0  0  0  0  0  0  0  0  0  0  0  0
    7.3923    7.1270    4.3708 C   0  0  0  0  0  0  0  0  0  0  0  0
    6.3294    7.2142    4.1326 H   0  0  0  0  0  0  0  0  0  0  0  0
    7.5222    6.2803    5.0534 H   0  0  0  0  0  0  0  0  0  0  0  0
    7.8443    8.4096    5.0785 C   0  0  0  0  0  0  0  0  0  0  0  0
    7.1666    8.6383    5.8982 H   0  0  0  0  0  0  0  0  0  0  0  0
    7.8311    9.2612    4.3746 H   0  0  0  0  0  0  0  0  0  0  0  0
    8.8446    8.2925    5.4932 H   0  0  0  0  0  0  0  0  0  0  0  0
  3 22  1  0  0  0  0
  4  3  1  0  0  0  0
  5  3  1  0  0  0  0
  6  8  2  0  0  0  0
  7  6  2  0  0  0  0
  9  1  1  0  0  0  0
 10  9  2  0  0  0  0
 10 11  1  0  0  0  0
 11 39  1  6  0  0  0
 11  1  1  0  0  0  0
 11 12  1  0  0  0  0
 12 13  1  0  0  0  0
 12 46  1  1  0  0  0
 13 21  2  0  0  0  0
 13 14  1  0  0  0  0
 14 16  2  0  0  0  0
 15 14  1  0  0  0  0
 16 17  1  0  0  0  0
 16  6  1  0  0  0  0
 17 18  1  0  0  0  0
 19 20  1  0  0  0  0
 19 17  2  0  0  0  0
 21 19  1  0  0  0  0
 22 24  1  0  0  0  0
 22 21  1  0  0  0  0
 22 23  1  0  0  0  0
 25  9  1  0  0  0  0
 25 28  1  0  0  0  0
 26 25  1  0  0  0  0
 27 25  1  0  0  0  0
 28 30  1  0  0  0  0
 28 31  1  0  0  0  0
 29 28  1  0  0  0  0
 32 10  1  0  0  0  0
 32 35  1  0  0  0  0
 33 32  1  0  0  0  0
 34 32  1  0  0  0  0
 35 38  1  0  0  0  0
 35 37  1  0  0  0  0
 36 35  1  0  0  0  0
 39 40  1  0  0  0  0
 41 39  1  0  0  0  0
 42 44  1  0  0  0  0
 42 39  1  0  0  0  0
 43 42  1  0  0  0  0
 45 42  1  0  0  0  0
 46 48  1  0  0  0  0
 46 49  1  0  0  0  0
 47 46  1  0  0  0  0
 49 52  1  0  0  0  0
 49 50  1  0  0  0  0
 51 49  1  0  0  0  0
M  END
$$$$
