CSD_code = LUDQOS | q = 0 | S = 0 | Stoichiometry = C8H6Br2N4Pd | MND = 4
 OpenBabel04212202063D

 21 23  0  0  0  0  0  0  0  0999 V2000
    0.6386    1.8766    3.3222 Pd  0  0  0  0  0  0  0  0  0  0  0  0
   -0.8520    3.5105    4.1010 Br  0  0  0  0  0  0  0  0  0  0  0  0
   -0.3315    0.3006    4.7596 Br  0  0  0  0  0  0  0  0  0  0  0  0
    2.0141    0.5618    2.5361 N   0  0  0  0  0  0  0  0  0  0  0  0
    3.7616    0.4815    0.9403 N   0  0  0  0  0  0  0  0  0  0  0  0
    3.3167    3.1179    0.3790 N   0  0  0  0  0  0  0  0  0  0  0  0
    1.5824    3.1329    1.9911 N   0  0  0  0  0  0  0  0  0  0  0  0
    2.2259   -0.7251    2.8262 C   0  0  0  0  0  0  0  0  0  0  0  0
    1.5904   -1.1692    3.5845 H   0  0  0  0  0  0  0  0  0  0  0  0
    3.2114   -1.4536    2.1857 C   0  0  0  0  0  0  0  0  0  0  0  0
    3.3769   -2.4899    2.4265 H   0  0  0  0  0  0  0  0  0  0  0  0
    3.9687   -0.7874    1.2238 C   0  0  0  0  0  0  0  0  0  0  0  0
    4.7570   -1.2756    0.6683 H   0  0  0  0  0  0  0  0  0  0  0  0
    2.8059    1.1182    1.5936 C   0  0  0  0  0  0  0  0  0  0  0  0
    2.5685    2.5277    1.2940 C   0  0  0  0  0  0  0  0  0  0  0  0
    3.0926    4.3890    0.1191 C   0  0  0  0  0  0  0  0  0  0  0  0
    3.7241    4.8377   -0.6347 H   0  0  0  0  0  0  0  0  0  0  0  0
    2.0978    5.1053    0.7819 C   0  0  0  0  0  0  0  0  0  0  0  0
    1.9073    6.1447    0.5751 H   0  0  0  0  0  0  0  0  0  0  0  0
    1.3547    4.4229    1.7277 C   0  0  0  0  0  0  0  0  0  0  0  0
    0.5631    4.9071    2.2889 H   0  0  0  0  0  0  0  0  0  0  0  0
  1  2  1  0  0  0  0
  1  3  1  0  0  0  0
  4  8  1  0  0  0  0
  4  1  1  0  0  0  0
  5 12  2  0  0  0  0
  5 14  1  0  0  0  0
  6 15  1  0  0  0  0
  7  1  1  0  0  0  0
  8  9  1  0  0  0  0
 10 11  1  0  0  0  0
 10  8  2  0  0  0  0
 12 10  1  0  0  0  0
 13 12  1  0  0  0  0
 14  4  1  0  0  0  0
 15 14  2  0  0  0  0
 15  7  1  0  0  0  0
 16  6  2  0  0  0  0
 16 18  1  0  0  0  0
 17 16  1  0  0  0  0
 18 20  2  0  0  0  0
 19 18  1  0  0  0  0
 20  7  1  0  0  0  0
 20 21  1  0  0  0  0
M  END
$$$$
