CSD_code = LUDRIN | q = 0 | S = 0 | Stoichiometry = C18H14I2N2Pt | MND = 4
 OpenBabel04212202063D

 37 40  0  0  1  0  0  0  0  0999 V2000
   -1.1036    0.3053    2.6964 Pt  0  0  0  0  0  0  0  0  0  0  0  0
   -0.3705   -1.4220    4.4916 I   0  0  0  0  0  0  0  0  0  0  0  0
   -0.4562    1.7999    3.9086 N   0  0  0  0  0  0  0  0  0  0  0  0
   -1.2556    2.4072    4.7575 C   0  0  0  0  0  0  0  0  0  0  0  0
   -2.2462    1.9883    4.8906 H   0  0  0  0  0  0  0  0  0  0  0  0
   -0.8722    3.5389    5.4835 C   0  0  0  0  0  0  0  0  0  0  0  0
   -1.5756    3.9906    6.1642 H   0  0  0  0  0  0  0  0  0  0  0  0
    0.3905    4.0444    5.3160 C   0  0  0  0  0  0  0  0  0  0  0  0
    0.7209    4.9190    5.8561 H   0  0  0  0  0  0  0  0  0  0  0  0
    1.2794    3.3986    4.4331 C   0  0  0  0  0  0  0  0  0  0  0  0
    2.6025    3.8332    4.2159 C   0  0  0  0  0  0  0  0  0  0  0  0
    2.9491    4.7098    4.7429 H   0  0  0  0  0  0  0  0  0  0  0  0
    3.4289    3.1519    3.3653 C   0  0  0  0  0  0  0  0  0  0  0  0
    4.4426    3.4874    3.2081 H   0  0  0  0  0  0  0  0  0  0  0  0
    2.9734    2.0034    2.7002 C   0  0  0  0  0  0  0  0  0  0  0  0
    3.6438    1.4646    2.0483 H   0  0  0  0  0  0  0  0  0  0  0  0
    1.6921    1.5598    2.8811 C   0  0  0  0  0  0  0  0  0  0  0  0
    1.3426    0.6541    2.3875 H   0  0  0  0  0  0  0  0  0  0  0  0
    0.8147    2.2485    3.7406 C   0  0  1  0  0  3  0  0  0  0  0  0
   -1.8371   -1.4217    0.9009 I   0  0  0  0  0  0  0  0  0  0  0  0
   -1.7510    1.7999    1.4841 N   0  0  0  0  0  0  0  0  0  0  0  0
   -0.9515    2.4072    0.6354 C   0  0  0  0  0  0  0  0  0  0  0  0
    0.0391    1.9885    0.5024 H   0  0  0  0  0  0  0  0  0  0  0  0
   -1.3350    3.5390   -0.0908 C   0  0  0  0  0  0  0  0  0  0  0  0
   -0.6315    3.9907   -0.7714 H   0  0  0  0  0  0  0  0  0  0  0  0
   -2.5977    4.0444    0.0766 C   0  0  0  0  0  0  0  0  0  0  0  0
   -2.9281    4.9189   -0.4635 H   0  0  0  0  0  0  0  0  0  0  0  0
   -3.4866    3.3986    0.9594 C   0  0  0  0  0  0  0  0  0  0  0  0
   -4.8098    3.8330    1.1765 C   0  0  0  0  0  3  0  0  0  0  0  0
   -5.1564    4.7096    0.6494 H   0  0  0  0  0  0  0  0  0  0  0  0
   -5.6362    3.1518    2.0270 C   0  0  0  0  0  0  0  0  0  0  0  0
   -6.6499    3.4872    2.1841 H   0  0  0  0  0  0  0  0  0  0  0  0
   -5.1808    2.0034    2.6923 C   0  0  0  0  0  0  0  0  0  0  0  0
   -5.8512    1.4646    3.3442 H   0  0  0  0  0  0  0  0  0  0  0  0
   -3.8994    1.5598    2.5115 C   0  0  0  0  0  0  0  0  0  0  0  0
   -3.5499    0.6541    3.0053 H   0  0  0  0  0  0  0  0  0  0  0  0
   -3.0219    2.2485    1.6520 C   0  0  0  0  0  0  0  0  0  0  0  0
  1  3  1  0  0  0  0
  1  2  1  0  0  0  0
  3  4  1  0  0  0  0
  4  5  1  0  0  0  0
  4  6  2  0  0  0  0
  6  7  1  0  0  0  0
  8  6  1  0  0  0  0
  8  9  1  0  0  0  0
 10  8  2  0  0  0  0
 11 10  1  0  0  0  0
 11 12  1  0  0  0  0
 13 11  2  0  0  0  0
 14 13  1  0  0  0  0
 15 17  2  0  0  0  0
 15 13  1  0  0  0  0
 16 15  1  0  0  0  0
 18 17  1  0  0  0  0
 19 17  1  1  0  0  0
 19  3  1  0  0  0  0
 19 10  1  0  0  0  0
 20  1  1  0  0  0  0
 21 37  1  0  0  0  0
 21  1  1  0  0  0  0
 22 21  1  0  0  0  0
 23 22  1  0  0  0  0
 24 26  1  0  0  0  0
 24 22  2  0  0  0  0
 25 24  1  0  0  0  0
 26 28  2  0  0  0  0
 27 26  1  0  0  0  0
 28 29  1  0  0  0  0
 28 37  1  0  0  0  0
 29 31  1  0  0  0  0
 30 29  1  0  0  0  0
 31 32  1  0  0  0  0
 31 33  2  0  0  0  0
 33 34  1  0  0  0  0
 35 33  1  0  0  0  0
 35 36  1  0  0  0  0
 37 35  2  0  0  0  0
M  END
$$$$
