CSD_code = LUDREJ | q = -1 | S = 0 | Stoichiometry = C2H6Br3OPtS(1-) | MND = 4
 OpenBabel04212202063D

 14 13  0  0  0  0  0  0  0  0999 V2000
    3.9673    5.8526    5.4423 Pt  0  0  0  0  0  0  0  0  0  0  0  0
    4.9323    4.2693    3.8529 Br  0  0  0  0  0  0  0  0  0  0  0  0
    2.4429    6.7014    3.8282 Br  0  0  0  0  0  0  0  0  0  0  0  0
    3.1264    7.3375    7.1404 Br  0  0  0  0  0  0  0  0  0  0  0  0
    5.4433    4.9925    6.9246 S   0  0  0  0  0  0  0  0  0  0  0  0
    5.5185    5.4892    8.2870 O   0  0  0  0  0  1  0  0  0  0  0  0
    5.2934    3.1736    7.1019 C   0  0  0  0  0  0  0  0  0  0  0  0
    6.0366    2.8602    7.8258 H   0  0  0  0  0  0  0  0  0  0  0  0
    5.4423    2.6951    6.1414 H   0  0  0  0  0  0  0  0  0  0  0  0
    4.2971    2.9653    7.4803 H   0  0  0  0  0  0  0  0  0  0  0  0
    7.1793    5.0102    6.3334 C   0  0  0  0  0  0  0  0  0  0  0  0
    7.4555    6.0465    6.1640 H   0  0  0  0  0  0  0  0  0  0  0  0
    7.2653    4.4405    5.4161 H   0  0  0  0  0  0  0  0  0  0  0  0
    7.7876    4.5905    7.1261 H   0  0  0  0  0  0  0  0  0  0  0  0
  1  5  1  0  0  0  0
  1  4  1  0  0  0  0
  2  1  1  0  0  0  0
  3  1  1  0  0  0  0
  5  7  1  0  0  0  0
  5  6  1  0  0  0  0
  7 10  1  0  0  0  0
  7  8  1  0  0  0  0
  9  7  1  0  0  0  0
 11  5  1  0  0  0  0
 11 14  1  0  0  0  0
 12 11  1  0  0  0  0
 13 11  1  0  0  0  0
M  END
$$$$
