CSD_code = LUFKUS | q = 0 | S = 0 | Stoichiometry = C6H14Cl2N2O2Zn | MND = 4
 OpenBabel04212202063D

 27 26  0  0  0  0  0  0  0  0999 V2000
    1.6825   -0.8039    8.2647 C   0  0  0  0  0  3  0  0  0  0  0  0
    1.4709   -0.3138    9.6493 C   0  0  0  0  0  0  0  0  0  0  0  0
    2.2750    0.3445    9.9669 H   0  0  0  0  0  0  0  0  0  0  0  0
    1.4103   -1.1604   10.3306 H   0  0  0  0  0  0  0  0  0  0  0  0
    0.5260    0.2257    9.7049 H   0  0  0  0  0  0  0  0  0  0  0  0
    0.7858   -1.8675    7.7274 C   0  0  0  0  0  0  0  0  0  0  0  0
    0.3726   -1.5475    6.7715 H   0  0  0  0  0  0  0  0  0  0  0  0
   -0.0137   -2.1033    8.4218 H   0  0  0  0  0  0  0  0  0  0  0  0
    1.3734   -2.7629    7.5255 H   0  0  0  0  0  0  0  0  0  0  0  0
    1.8732    3.4448    7.0389 C   0  0  0  0  0  3  0  0  0  0  0  0
    1.9846    2.9467    5.6453 C   0  0  0  0  0  0  0  0  0  0  0  0
    2.8380    2.2847    5.5254 H   0  0  0  0  0  0  0  0  0  0  0  0
    2.0845    3.7889    4.9633 H   0  0  0  0  0  0  0  0  0  0  0  0
    1.0766    2.4075    5.3770 H   0  0  0  0  0  0  0  0  0  0  0  0
    0.9003    4.5338    7.3419 C   0  0  0  0  0  0  0  0  0  0  0  0
    0.3078    4.2633    8.2150 H   0  0  0  0  0  0  0  0  0  0  0  0
    0.2536    4.7362    6.4948 H   0  0  0  0  0  0  0  0  0  0  0  0
    1.4480    5.4383    7.6066 H   0  0  0  0  0  0  0  0  0  0  0  0
    2.6226   -0.3067    7.5609 N   0  0  0  0  0  0  0  0  0  0  0  0
    2.6084    2.9333    7.9467 N   0  0  0  0  0  0  0  0  0  0  0  0
    2.7513   -0.8060    6.2797 O   0  0  0  0  0  0  0  0  0  0  0  0
    3.5588   -0.3621    5.9156 H   0  0  0  0  0  0  0  0  0  0  0  0
    2.4437    3.4401    9.2209 O   0  0  0  0  0  0  0  0  0  0  0  0
    3.1291    2.9777    9.7671 H   0  0  0  0  0  0  0  0  0  0  0  0
    4.6407    1.5900   10.0215 Cl  0  0  0  0  0  0  0  0  0  0  0  0
    5.1201    0.9885    6.0386 Cl  0  0  0  0  0  0  0  0  0  0  0  0
    3.9548    1.2984    7.9173 Zn  0  0  0  0  0  0  0  0  0  0  0  0
  1  2  1  0  0  0  0
  2  5  1  0  0  0  0
  2  3  1  0  0  0  0
  2  4  1  0  0  0  0
  6  1  1  0  0  0  0
  6  8  1  0  0  0  0
  7  6  1  0  0  0  0
  9  6  1  0  0  0  0
 10 15  1  0  0  0  0
 10 20  1  0  0  0  0
 11 10  1  0  0  0  0
 12 11  1  0  0  0  0
 13 11  1  0  0  0  0
 14 11  1  0  0  0  0
 15 18  1  0  0  0  0
 15 16  1  0  0  0  0
 17 15  1  0  0  0  0
 19 27  1  0  0  0  0
 19  1  1  0  0  0  0
 20 23  1  0  0  0  0
 21 19  1  0  0  0  0
 22 21  1  0  0  0  0
 23 24  1  0  0  0  0
 26 27  1  0  0  0  0
 27 20  1  0  0  0  0
 27 25  1  0  0  0  0
M  END
$$$$
