CSD_code = LUFNUX | q = 0 | S = 0 | Stoichiometry = C26H29Cl2N3Pt | MND = 4
 OpenBabel04212202063D

 61 64  0  0  0  0  0  0  0  0999 V2000
   13.3957   11.4819    2.8941 Pt  0  0  0  0  0  0  0  0  0  0  0  0
   11.9550   13.2036    3.5079 Cl  0  0  0  0  0  0  0  0  0  0  0  0
   14.8608    9.8518    2.1125 Cl  0  0  0  0  0  0  0  0  0  0  0  0
   12.0624   10.1772    5.2320 N   0  0  0  0  0  0  0  0  0  0  0  0
   14.1919   10.2604    5.5092 N   0  0  0  0  0  0  0  0  0  0  0  0
   13.5795   12.3802    1.1344 N   0  0  0  0  0  0  0  0  0  0  0  0
   13.2064   10.5862    4.6524 C   0  0  0  0  0  0  0  0  0  0  0  0
   12.3285    9.5997    6.4445 C   0  0  0  0  0  0  0  0  0  0  0  0
   11.5573    9.1908    7.0648 H   0  0  0  0  0  0  0  0  0  0  0  0
   13.6698    9.6513    6.6187 C   0  0  0  0  0  0  0  0  0  0  0  0
   14.2827    9.3264    7.4344 H   0  0  0  0  0  0  0  0  0  0  0  0
   15.5771   10.4885    5.2819 C   0  0  0  0  0  0  0  0  0  0  0  0
   16.4146    9.4003    5.0374 C   0  0  0  0  0  0  0  0  0  0  0  0
   17.7641    9.6432    4.8307 C   0  0  0  0  0  0  0  0  0  0  0  0
   18.4203    8.8089    4.6297 H   0  0  0  0  0  0  0  0  0  0  0  0
   18.2830   10.9284    4.8553 C   0  0  0  0  0  0  0  0  0  0  0  0
   17.4229   11.9915    5.0931 C   0  0  0  0  0  0  0  0  0  0  0  0
   17.8166   12.9980    5.1068 H   0  0  0  0  0  0  0  0  0  0  0  0
   16.0679   11.7949    5.3090 C   0  0  0  0  0  0  0  0  0  0  0  0
   15.8617    8.0130    4.9327 C   0  0  0  0  0  0  0  0  0  0  0  0
   15.3229    7.7199    5.8322 H   0  0  0  0  0  0  0  0  0  0  0  0
   16.6603    7.2982    4.7558 H   0  0  0  0  0  0  0  0  0  0  0  0
   15.1705    7.9745    4.0909 H   0  0  0  0  0  0  0  0  0  0  0  0
   19.7400   11.1791    4.6100 C   0  0  0  0  0  0  0  0  0  0  0  0
   20.3059   10.2516    4.6408 H   0  0  0  0  0  0  0  0  0  0  0  0
   20.1428   11.8635    5.3547 H   0  0  0  0  0  0  0  0  0  0  0  0
   19.8797   11.6332    3.6291 H   0  0  0  0  0  0  0  0  0  0  0  0
   15.1532   12.9541    5.5581 C   0  0  0  0  0  0  0  0  0  0  0  0
   14.4723   13.0866    4.7098 H   0  0  0  0  0  0  0  0  0  0  0  0
   15.7215   13.8712    5.6866 H   0  0  0  0  0  0  0  0  0  0  0  0
   14.5440   12.7891    6.4461 H   0  0  0  0  0  0  0  0  0  0  0  0
   10.7640   10.3447    4.6764 C   0  0  0  0  0  0  0  0  0  0  0  0
    9.8861   11.2582    5.2598 C   0  0  0  0  0  0  0  0  0  0  0  0
    8.6228   11.4006    4.7063 C   0  0  0  0  0  0  0  0  0  0  0  0
    7.9388   12.1141    5.1425 H   0  0  0  0  0  0  0  0  0  0  0  0
    8.2284   10.6680    3.5973 C   0  0  0  0  0  0  0  0  0  0  0  0
    9.1263    9.7708    3.0360 C   0  0  0  0  0  0  0  0  0  0  0  0
    8.8309    9.1996    2.1672 H   0  0  0  0  0  0  0  0  0  0  0  0
   10.3977    9.5929    3.5588 C   0  0  0  0  0  0  0  0  0  0  0  0
   11.3557    8.6247    2.9361 C   0  0  0  0  0  0  0  0  0  0  0  0
   12.1858    9.1636    2.4658 H   0  0  0  0  0  0  0  0  0  0  0  0
   10.8593    8.0298    2.1744 H   0  0  0  0  0  0  0  0  0  0  0  0
   11.7794    7.9566    3.6851 H   0  0  0  0  0  0  0  0  0  0  0  0
    6.8567   10.8259    3.0149 C   0  0  0  0  0  0  0  0  0  0  0  0
    6.2416    9.9615    3.2666 H   0  0  0  0  0  0  0  0  0  0  0  0
    6.9060   10.8946    1.9300 H   0  0  0  0  0  0  0  0  0  0  0  0
    6.3698   11.7172    3.4016 H   0  0  0  0  0  0  0  0  0  0  0  0
   10.3189   12.1145    6.4090 C   0  0  0  0  0  0  0  0  0  0  0  0
    9.4964   12.7367    6.7502 H   0  0  0  0  0  0  0  0  0  0  0  0
   11.1282   12.7638    6.0750 H   0  0  0  0  0  0  0  0  0  0  0  0
   10.6799   11.5207    7.2469 H   0  0  0  0  0  0  0  0  0  0  0  0
   12.5440   12.4450    0.3012 C   0  0  0  0  0  3  0  0  0  0  0  0
   11.6200   11.9927    0.6435 H   0  0  0  0  0  0  0  0  0  0  0  0
   12.6252   13.0631   -0.9333 C   0  0  0  0  0  0  0  0  0  0  0  0
   11.7618   13.0924   -1.5788 H   0  0  0  0  0  0  0  0  0  0  0  0
   13.8262   13.6403   -1.3164 C   0  0  0  0  0  0  0  0  0  0  0  0
   13.9222   14.1327   -2.2723 H   0  0  0  0  0  0  0  0  0  0  0  0
   14.9008   13.5705   -0.4433 C   0  0  0  0  0  0  0  0  0  0  0  0
   15.8547   14.0049   -0.6979 H   0  0  0  0  0  0  0  0  0  0  0  0
   14.7357   12.9294    0.7709 C   0  0  0  0  0  0  0  0  0  0  0  0
   15.5542   12.8434    1.4772 H   0  0  0  0  0  0  0  0  0  0  0  0
  1  2  1  0  0  0  0
  1  7  2  0  0  0  0
  3  1  1  0  0  0  0
  4  8  1  0  0  0  0
  5 10  1  0  0  0  0
  6  1  1  0  0  0  0
  7  4  1  0  0  0  0
  7  5  1  0  0  0  0
  8 10  2  0  0  0  0
  8  9  1  0  0  0  0
 10 11  1  0  0  0  0
 12 19  1  0  0  0  0
 12  5  1  0  0  0  0
 13 12  2  0  0  0  0
 14 16  2  0  0  0  0
 14 13  1  0  0  0  0
 15 14  1  0  0  0  0
 16 17  1  0  0  0  0
 17 18  1  0  0  0  0
 17 19  2  0  0  0  0
 19 28  1  0  0  0  0
 20 13  1  0  0  0  0
 20 21  1  0  0  0  0
 22 20  1  0  0  0  0
 23 20  1  0  0  0  0
 24 25  1  0  0  0  0
 24 16  1  0  0  0  0
 24 26  1  0  0  0  0
 27 24  1  0  0  0  0
 28 30  1  0  0  0  0
 28 31  1  0  0  0  0
 29 28  1  0  0  0  0
 32  4  1  0  0  0  0
 32 33  1  0  0  0  0
 33 48  1  0  0  0  0
 34 35  1  0  0  0  0
 34 33  2  0  0  0  0
 36 34  1  0  0  0  0
 37 39  1  0  0  0  0
 37 36  2  0  0  0  0
 38 37  1  0  0  0  0
 39 32  2  0  0  0  0
 40 39  1  0  0  0  0
 40 43  1  0  0  0  0
 41 40  1  0  0  0  0
 42 40  1  0  0  0  0
 44 45  1  0  0  0  0
 44 47  1  0  0  0  0
 44 36  1  0  0  0  0
 46 44  1  0  0  0  0
 48 49  1  0  0  0  0
 48 51  1  0  0  0  0
 50 48  1  0  0  0  0
 52 53  1  0  0  0  0
 52  6  1  0  0  0  0
 54 52  1  0  0  0  0
 55 54  1  0  0  0  0
 56 54  2  0  0  0  0
 56 58  1  0  0  0  0
 57 56  1  0  0  0  0
 58 60  2  0  0  0  0
 59 58  1  0  0  0  0
 60  6  1  0  0  0  0
 60 61  1  0  0  0  0
M  END
$$$$
