CSD_code = LUFXAL | q = 0 | S = 0 | Stoichiometry = C24H24ClNZr | MND = 12
 OpenBabel04212202063D

 51 53  0  0  1  0  0  0  0  0999 V2000
    0.8234    6.3452    9.9686 Zr  0  0  0  0  0  0  0  0  0  0  0  0
    0.7363    6.6962    7.6213 Cl  0  0  0  0  0  0  0  0  0  0  0  0
    2.2757    4.9785    9.9669 N   0  0  0  0  0  0  0  0  0  0  0  0
    3.3473    5.1248    8.9911 C   0  0  0  0  0  0  0  0  0  0  0  0
    4.3323    5.2038    9.4873 H   0  0  0  0  0  0  0  0  0  0  0  0
    3.1853    6.0484    8.4122 H   0  0  0  0  0  0  0  0  0  0  0  0
    3.3599    3.9595    8.0215 C   0  0  0  0  0  0  0  0  0  0  0  0
    2.1478    3.4844    7.5317 C   0  0  0  0  0  0  0  0  0  0  0  0
    1.2305    3.9767    7.8445 H   0  0  0  0  0  0  0  0  0  0  0  0
    2.1210    2.4116    6.6598 C   0  0  0  0  0  0  0  0  0  0  0  0
    1.1771    2.0495    6.2794 H   0  0  0  0  0  0  0  0  0  0  0  0
    3.3030    1.8016    6.2701 C   0  0  0  0  0  0  0  0  0  0  0  0
    3.2817    0.9630    5.5898 H   0  0  0  0  0  0  0  0  0  0  0  0
    4.5115    2.2702    6.7543 C   0  0  0  0  0  0  0  0  0  0  0  0
    5.4354    1.7976    6.4535 H   0  0  0  0  0  0  0  0  0  0  0  0
    4.5395    3.3435    7.6293 C   0  0  0  0  0  0  0  0  0  0  0  0
    5.4857    3.7068    8.0067 H   0  0  0  0  0  0  0  0  0  0  0  0
    2.5644    3.8842   10.8899 C   0  0  0  0  0  0  0  0  0  0  0  0
    3.0919    3.0735   10.3641 H   0  0  0  0  0  0  0  0  0  0  0  0
    1.6272    3.4739   11.2880 H   0  0  0  0  0  0  0  0  0  0  0  0
    3.4144    4.3977   12.0283 C   0  0  0  0  0  0  0  0  0  0  0  0
    4.7919    4.2167   12.0445 C   0  0  0  0  0  0  0  0  0  0  0  0
    5.2618    3.6192   11.2759 H   0  0  0  0  0  0  0  0  0  0  0  0
    5.5637    4.7819   13.0464 C   0  0  0  0  0  0  0  0  0  0  0  0
    6.6339    4.6351   13.0479 H   0  0  0  0  0  0  0  0  0  0  0  0
    4.9664    5.5293   14.0461 C   0  0  0  0  0  0  0  0  0  0  0  0
    5.5679    5.9678   14.8282 H   0  0  0  0  0  0  0  0  0  0  0  0
    3.5919    5.7071   14.0441 C   0  0  0  0  0  0  0  0  0  0  0  0
    3.1230    6.2818   14.8296 H   0  0  0  0  0  0  0  0  0  0  0  0
    2.8226    5.1494   13.0388 C   0  0  0  0  0  0  0  0  0  0  0  0
    1.7456    5.2805   13.0355 H   0  0  0  0  0  0  0  0  0  0  0  0
   -1.3674    5.2848    9.2883 C   0  0  0  0  0  0  0  0  0  0  0  0
   -1.6902    6.4179   10.0651 C   0  0  0  0  0  0  0  0  0  0  0  0
   -1.2725    6.1687   11.3902 C   0  0  0  0  0  0  0  0  0  0  0  0
   -0.6593    4.8986   11.4254 C   0  0  0  0  0  0  0  0  0  0  0  0
   -0.7217    4.3486   10.1207 C   0  0  0  0  0  3  0  0  0  0  0  0
    1.3363    7.9380   11.8153 C   0  0  0  0  0  3  0  0  0  0  0  0
    2.5336    7.7702   11.0754 C   0  0  2  0  0  0  0  0  0  0  0  0
    2.3431    8.3672    9.8101 C   0  0  0  0  0  3  0  0  0  0  0  0
    1.0404    8.9071    9.7700 C   0  0  0  0  0  0  0  0  0  0  0  0
    0.4235    8.6536   11.0062 C   0  0  0  0  0  0  0  0  0  0  0  0
   -1.6494    5.1261    8.2546 H   0  0  0  0  0  0  0  0  0  0  0  0
   -2.2765    7.2654    9.7272 H   0  0  0  0  0  0  0  0  0  0  0  0
   -1.5050    6.7758   12.2568 H   0  0  0  0  0  0  0  0  0  0  0  0
   -0.3831    4.3622   12.3251 H   0  0  0  0  0  0  0  0  0  0  0  0
   -0.4547    3.3353    9.8434 H   0  0  0  0  0  0  0  0  0  0  0  0
    1.2128    7.7294   12.8712 H   0  0  0  0  0  0  0  0  0  0  0  0
    3.4719    7.3897   11.4617 H   0  0  0  0  0  0  0  0  0  0  0  0
    3.0986    8.4921    9.0434 H   0  0  0  0  0  0  0  0  0  0  0  0
    0.6282    9.4965    8.9605 H   0  0  0  0  0  0  0  0  0  0  0  0
   -0.5287    9.0576   11.3281 H   0  0  0  0  0  0  0  0  0  0  0  0
  1 38  1  0  0  0  0
  2  1  1  0  0  0  0
  3  1  1  0  0  0  0
  3 18  1  0  0  0  0
  4  5  1  0  0  0  0
  4  3  1  0  0  0  0
  6  4  1  0  0  0  0
  7  4  1  0  0  0  0
  8  9  1  0  0  0  0
  8  7  2  0  0  0  0
 10  8  1  0  0  0  0
 11 10  1  0  0  0  0
 12 10  2  0  0  0  0
 12 14  1  0  0  0  0
 13 12  1  0  0  0  0
 14 16  2  0  0  0  0
 15 14  1  0  0  0  0
 16 17  1  0  0  0  0
 16  7  1  0  0  0  0
 18 20  1  0  0  0  0
 18 21  1  0  0  0  0
 19 18  1  0  0  0  0
 21 22  2  0  0  0  0
 21 30  1  0  0  0  0
 22 24  1  0  0  0  0
 23 22  1  0  0  0  0
 24 25  1  0  0  0  0
 24 26  2  0  0  0  0
 26 27  1  0  0  0  0
 28 26  1  0  0  0  0
 28 29  1  0  0  0  0
 30 28  2  0  0  0  0
 31 30  1  0  0  0  0
 32 33  2  0  0  0  0
 32 36  1  0  0  0  0
 33 34  1  0  0  0  0
 34 35  2  0  0  0  0
 34 44  1  0  0  0  0
 35 45  1  0  0  0  0
 36 35  1  0  0  0  0
 37 47  1  0  0  0  0
 38 48  1  1  0  0  0
 38 37  1  0  0  0  0
 39 38  1  0  0  0  0
 40 39  1  0  0  0  0
 40 41  2  0  0  0  0
 41 51  1  0  0  0  0
 41 37  1  0  0  0  0
 42 32  1  0  0  0  0
 43 33  1  0  0  0  0
 46 36  1  0  0  0  0
 49 39  1  0  0  0  0
 50 40  1  0  0  0  0
M  END
$$$$
