CSD_code = LUGLAC | q = -1 | S = 0 | Stoichiometry = C6H6Br3N2OZn(1-) | MND = 4
 OpenBabel04212202063D

 19 19  0  0  0  0  0  0  0  0999 V2000
   -0.7178   -4.0433    3.8813 Br  0  0  0  0  0  0  0  0  0  0  0  0
    0.7773   -0.5331    5.9188 Br  0  0  0  0  0  0  0  0  0  0  0  0
    1.5491   -1.3132    1.7170 Br  0  0  0  0  0  0  0  0  0  0  0  0
    0.4102   -1.7504    3.8240 Zn  0  0  0  0  0  0  0  0  0  0  0  0
   -5.2605   -2.8213    1.0308 O   0  0  0  0  0  0  0  0  0  0  0  0
   -1.6111   -0.8390    3.2897 N   0  0  0  0  0  0  0  0  0  0  0  0
   -3.4295   -4.0631    1.5063 N   0  0  0  0  0  0  0  0  0  0  0  0
   -3.7863   -4.8536    0.9952 H   0  0  0  0  0  0  0  0  0  0  0  0
   -2.6220   -4.2052    2.1002 H   0  0  0  0  0  0  0  0  0  0  0  0
   -2.3546   -0.1697    4.1602 C   0  0  0  0  0  3  0  0  0  0  0  0
   -1.8189    0.4666    4.8516 H   0  0  0  0  0  0  0  0  0  0  0  0
   -3.7354   -0.2767    4.2031 C   0  0  0  0  0  0  0  0  0  0  0  0
   -4.2997    0.3043    4.9158 H   0  0  0  0  0  0  0  0  0  0  0  0
   -4.3586   -1.1733    3.3524 C   0  0  0  0  0  0  0  0  0  0  0  0
   -5.4261   -1.3359    3.3814 H   0  0  0  0  0  0  0  0  0  0  0  0
   -3.5808   -1.8953    2.4547 C   0  0  0  0  0  0  0  0  0  0  0  0
   -2.2136   -1.6503    2.4311 C   0  0  0  0  0  0  0  0  0  0  0  0
   -1.5801   -2.1256    1.6943 H   0  0  0  0  0  0  0  0  0  0  0  0
   -4.1884   -2.9539    1.5896 C   0  0  0  0  0  0  0  0  0  0  0  0
  3  4  1  0  0  0  0
  4  1  1  0  0  0  0
  4  2  1  0  0  0  0
  5 19  2  0  0  0  0
  6  4  1  0  0  0  0
  6 10  1  0  0  0  0
  7 19  1  0  0  0  0
  7  9  1  0  0  0  0
  8  7  1  0  0  0  0
 10 12  1  0  0  0  0
 10 11  1  0  0  0  0
 12 13  1  0  0  0  0
 14 15  1  0  0  0  0
 14 12  2  0  0  0  0
 16 14  1  0  0  0  0
 17 16  2  0  0  0  0
 17  6  1  0  0  0  0
 18 17  1  0  0  0  0
 19 16  1  0  0  0  0
M  END
$$$$
