CSD_code = LUGRAI | q = 0 | S = 0 | Stoichiometry = C19H32AuClNP | MND = 2
 OpenBabel04212202063D

 55 55  0  0  0  0  0  0  0  0999 V2000
    4.2333    7.6711   12.6954 Cl  0  0  0  0  0  0  0  0  0  0  0  0
    2.7372    8.1033   11.0365 Au  0  0  0  0  0  0  0  0  0  0  0  0
    1.2410    8.5376    9.3991 P   0  0  0  0  0  4  0  0  0  0  0  0
    0.2153    7.7582    7.1767 N   0  0  0  0  0  0  0  0  0  0  0  0
    1.1330    7.3808    7.9484 C   0  0  0  0  0  0  0  0  0  0  0  0
    2.0482    6.1714    7.8293 C   0  0  0  0  0  0  0  0  0  0  0  0
    3.5038    6.6465    7.8093 C   0  0  0  0  0  0  0  0  0  0  0  0
    3.7313    7.2438    8.6913 H   0  0  0  0  0  0  0  0  0  0  0  0
    3.7096    7.2320    6.9155 H   0  0  0  0  0  0  0  0  0  0  0  0
    4.1673    5.7846    7.8086 H   0  0  0  0  0  0  0  0  0  0  0  0
    1.8377    5.2620    9.0441 C   0  0  0  0  0  0  0  0  0  0  0  0
    2.0298    5.8000    9.9722 H   0  0  0  0  0  0  0  0  0  0  0  0
    2.5320    4.4262    8.9946 H   0  0  0  0  0  0  0  0  0  0  0  0
    0.8260    4.8635    9.0625 H   0  0  0  0  0  0  0  0  0  0  0  0
    1.7757    5.3607    6.5590 C   0  0  0  0  0  0  0  0  0  0  0  0
    1.9476    5.9526    5.6635 H   0  0  0  0  0  0  0  0  0  0  0  0
    0.7554    4.9859    6.5366 H   0  0  0  0  0  0  0  0  0  0  0  0
    2.4496    4.5068    6.5337 H   0  0  0  0  0  0  0  0  0  0  0  0
   -0.5143    8.4839   10.1024 C   0  0  0  0  0  0  0  0  0  0  0  0
   -1.5886    9.1520    9.2506 C   0  0  0  0  0  0  0  0  0  0  0  0
   -1.5191    8.8382    8.2128 H   0  0  0  0  0  0  0  0  0  0  0  0
   -1.5165   10.2349    9.3069 H   0  0  0  0  0  0  0  0  0  0  0  0
   -2.5693    8.8675    9.6304 H   0  0  0  0  0  0  0  0  0  0  0  0
   -0.8441    7.0003   10.2827 C   0  0  0  0  0  0  0  0  0  0  0  0
   -0.9487    6.5009    9.3223 H   0  0  0  0  0  0  0  0  0  0  0  0
   -1.7838    6.8964   10.8231 H   0  0  0  0  0  0  0  0  0  0  0  0
   -0.0682    6.5012   10.8623 H   0  0  0  0  0  0  0  0  0  0  0  0
   -0.4725    9.1268   11.4908 C   0  0  0  0  0  0  0  0  0  0  0  0
   -0.2543   10.1898   11.4444 H   0  0  0  0  0  0  0  0  0  0  0  0
    0.2821    8.6505   12.1174 H   0  0  0  0  0  0  0  0  0  0  0  0
   -1.4407    9.0047   11.9742 H   0  0  0  0  0  0  0  0  0  0  0  0
    1.6316   10.2099    8.6062 C   0  0  0  0  0  0  0  0  0  0  0  0
    0.7625   10.6612    7.4367 C   0  0  0  0  0  0  0  0  0  0  0  0
   -0.2450   10.9133    7.7478 H   0  0  0  0  0  0  0  0  0  0  0  0
    0.7026    9.8999    6.6654 H   0  0  0  0  0  0  0  0  0  0  0  0
    1.2104   11.5535    7.0002 H   0  0  0  0  0  0  0  0  0  0  0  0
    3.0767   10.0737    8.1174 C   0  0  0  0  0  0  0  0  0  0  0  0
    3.7308    9.7231    8.9164 H   0  0  0  0  0  0  0  0  0  0  0  0
    3.4469   11.0414    7.7826 H   0  0  0  0  0  0  0  0  0  0  0  0
    3.1380    9.3817    7.2805 H   0  0  0  0  0  0  0  0  0  0  0  0
    1.5874   11.2533    9.7235 C   0  0  0  0  0  0  0  0  0  0  0  0
    2.1033   10.8915   10.6145 H   0  0  0  0  0  0  0  0  0  0  0  0
    0.5639   11.5119    9.9848 H   0  0  0  0  0  0  0  0  0  0  0  0
    2.0841   12.1645    9.3937 H   0  0  0  0  0  0  0  0  0  0  0  0
   -0.3194    7.2990    5.9982 C   0  0  0  0  0  0  0  0  0  0  0  0
    0.1745    7.7456    4.7713 C   0  0  0  0  0  0  0  0  0  0  0  0
    1.0660    8.3564    4.7485 H   0  0  0  0  0  0  0  0  0  0  0  0
   -0.4670    7.4001    3.5984 C   0  0  0  0  0  0  0  0  0  0  0  0
   -0.0684    7.7454    2.6560 H   0  0  0  0  0  0  0  0  0  0  0  0
   -1.6090    6.6176    3.6249 C   0  0  0  0  0  0  0  0  0  0  0  0
   -2.1050    6.3485    2.7052 H   0  0  0  0  0  0  0  0  0  0  0  0
   -2.1125    6.1867    4.8409 C   0  0  0  0  0  0  0  0  0  0  0  0
   -3.0049    5.5793    4.8735 H   0  0  0  0  0  0  0  0  0  0  0  0
   -1.4838    6.5291    6.0212 C   0  0  0  0  0  0  0  0  0  0  0  0
   -1.8794    6.1965    6.9701 H   0  0  0  0  0  0  0  0  0  0  0  0
  2  1  1  0  0  0  0
  3 19  1  0  0  0  0
  3  2  1  0  0  0  0
  4  5  2  0  0  0  0
  5  3  1  0  0  0  0
  6  5  1  0  0  0  0
  6 11  1  0  0  0  0
  7  6  1  0  0  0  0
  7  8  1  0  0  0  0
  9  7  1  0  0  0  0
 10  7  1  0  0  0  0
 11 14  1  0  0  0  0
 11 12  1  0  0  0  0
 13 11  1  0  0  0  0
 15  6  1  0  0  0  0
 16 15  1  0  0  0  0
 17 15  1  0  0  0  0
 18 15  1  0  0  0  0
 19 24  1  0  0  0  0
 19 28  1  0  0  0  0
 20 22  1  0  0  0  0
 20 23  1  0  0  0  0
 20 19  1  0  0  0  0
 21 20  1  0  0  0  0
 24 26  1  0  0  0  0
 24 27  1  0  0  0  0
 25 24  1  0  0  0  0
 28 31  1  0  0  0  0
 28 30  1  0  0  0  0
 29 28  1  0  0  0  0
 32  3  1  0  0  0  0
 32 41  1  0  0  0  0
 33 34  1  0  0  0  0
 33 32  1  0  0  0  0
 35 33  1  0  0  0  0
 36 33  1  0  0  0  0
 37 32  1  0  0  0  0
 37 38  1  0  0  0  0
 39 37  1  0  0  0  0
 40 37  1  0  0  0  0
 41 43  1  0  0  0  0
 41 42  1  0  0  0  0
 44 41  1  0  0  0  0
 45 54  1  0  0  0  0
 45  4  1  0  0  0  0
 46 45  2  0  0  0  0
 47 46  1  0  0  0  0
 48 50  2  0  0  0  0
 48 46  1  0  0  0  0
 49 48  1  0  0  0  0
 50 52  1  0  0  0  0
 51 50  1  0  0  0  0
 52 53  1  0  0  0  0
 52 54  2  0  0  0  0
 54 55  1  0  0  0  0
M  END
$$$$
