CSD_code = LUGZAP | q = 0 | S = 0 | Stoichiometry = C10H16BrN3PdS | MND = 4
 OpenBabel04212202063D

 32 33  0  0  0  0  0  0  0  0999 V2000
    1.1578    3.9593    3.4829 C   0  0  0  0  0  0  0  0  0  0  0  0
    0.3227    4.5758    3.1245 H   0  0  0  0  0  0  0  0  0  0  0  0
    0.8242    3.4445    4.3975 H   0  0  0  0  0  0  0  0  0  0  0  0
    3.2873    4.1462    4.5948 C   0  0  0  0  0  0  0  0  0  0  0  0
    2.8778    3.8902    5.5823 H   0  0  0  0  0  0  0  0  0  0  0  0
    4.1642    4.7874    4.7380 H   0  0  0  0  0  0  0  0  0  0  0  0
    3.5942    3.2225    4.0911 H   0  0  0  0  0  0  0  0  0  0  0  0
    1.8099    6.0219    4.5165 C   0  0  0  0  0  0  0  0  0  0  0  0
    1.1318    6.6018    3.8868 H   0  0  0  0  0  0  0  0  0  0  0  0
    2.6484    6.6590    4.7961 H   0  0  0  0  0  0  0  0  0  0  0  0
    1.2782    5.7199    5.4279 H   0  0  0  0  0  0  0  0  0  0  0  0
    3.9215    6.5601   -0.5910 C   0  0  0  0  0  0  0  0  0  0  0  0
    1.5398    2.9830    2.4024 C   0  0  0  0  0  0  0  0  0  0  0  0
    0.9083    1.7543    2.2805 C   0  0  0  0  0  0  0  0  0  0  0  0
    0.1407    1.4736    2.9894 H   0  0  0  0  0  0  0  0  0  0  0  0
    1.2606    0.8931    1.2564 C   0  0  0  0  0  0  0  0  0  0  0  0
    0.7687   -0.0641    1.1619 H   0  0  0  0  0  0  0  0  0  0  0  0
    2.2478    1.2626    0.3616 C   0  0  0  0  0  0  0  0  0  0  0  0
    2.5313    0.5932   -0.4382 H   0  0  0  0  0  0  0  0  0  0  0  0
    2.8845    2.4895    0.4856 C   0  0  0  0  0  0  0  0  0  0  0  0
    3.6585    2.7468   -0.2272 H   0  0  0  0  0  0  0  0  0  0  0  0
    2.2875    4.8510    3.7858 N   0  0  0  0  0  4  0  0  0  0  0  0
    4.3828    7.1387   -1.7117 N   0  0  0  0  0  4  0  0  0  0  0  0
    2.7926    6.9971   -0.0247 N   0  0  0  0  0  0  0  0  0  0  0  0
    2.5364    3.3722    1.4998 C   0  0  0  0  0  0  0  0  0  0  0  0
    4.4772    7.2406    2.8186 Br  0  0  0  0  0  0  0  0  0  0  0  0
    3.4099    5.1260    2.0117 Pd  0  0  1  0  0  0  0  0  0  0  0  0
    4.7099    5.2260    0.0566 S   0  0  0  0  0  0  0  0  0  0  0  0
    4.0028    8.0101   -2.0403 H   0  0  0  0  0  0  0  0  0  0  0  0
    2.3966    7.8930   -0.2664 H   0  0  0  0  0  0  0  0  0  0  0  0
    2.6227    6.5637    0.9233 H   0  0  0  0  0  0  0  0  0  0  0  0
    5.2700    6.8374   -2.0748 H   0  0  0  0  0  0  0  0  0  0  0  0
  1 22  1  0  0  0  0
  1  3  1  0  0  0  0
  2  1  1  0  0  0  0
  4  6  1  0  0  0  0
  4  5  1  0  0  0  0
  7  4  1  0  0  0  0
  8 10  1  0  0  0  0
  8 11  1  0  0  0  0
  9  8  1  0  0  0  0
 12 24  1  0  0  0  0
 12 28  1  0  0  0  0
 13  1  1  0  0  0  0
 14 13  1  0  0  0  0
 14 15  1  0  0  0  0
 16 14  2  0  0  0  0
 17 16  1  0  0  0  0
 18 20  2  0  0  0  0
 18 16  1  0  0  0  0
 19 18  1  0  0  0  0
 20 25  1  0  0  0  0
 21 20  1  0  0  0  0
 22  8  1  0  0  0  0
 22  4  1  0  0  0  0
 23 12  2  0  0  0  0
 24 31  1  0  0  0  0
 25 27  1  0  0  0  0
 25 13  2  0  0  0  0
 27 26  1  6  0  0  0
 27 22  1  0  0  0  0
 28 27  1  0  0  0  0
 29 23  1  0  0  0  0
 30 24  1  0  0  0  0
 32 23  1  0  0  0  0
M  END
$$$$
