CSD_code = LUHROV | q = 0 | S = 0 | Stoichiometry = C8H18Cl2N2O2Pd | MND = 4
 OpenBabel04212202063D

 33 34  0  0  1  0  0  0  0  0999 V2000
    8.3248    0.5498   13.8661 Pd  0  0  0  0  0  0  0  0  0  0  0  0
    6.7518   -1.0302   13.7646 Cl  0  0  0  0  0  0  0  0  0  0  0  0
   10.0163   -0.8895   13.6254 Cl  0  0  0  0  0  0  0  0  0  0  0  0
    6.8826    1.9827   14.2504 N   0  0  0  0  0  4  0  0  0  0  0  0
    6.0236    1.5497   14.6190 H   0  0  0  0  0  0  0  0  0  0  0  0
    6.5182    2.7859   13.1350 O   0  0  0  0  0  0  0  0  0  0  0  0
    6.1217    1.9812   12.0396 C   0  0  0  0  0  0  0  0  0  0  0  0
    6.9009    1.2318   11.7950 H   0  0  0  0  0  0  0  0  0  0  0  0
    5.9818    2.6684   11.2079 H   0  0  0  0  0  0  0  0  0  0  0  0
    5.1838    1.4593   12.2572 H   0  0  0  0  0  0  0  0  0  0  0  0
    9.6581    2.1846   14.1459 N   0  0  0  0  0  4  0  0  0  0  0  0
   10.3350    1.8164   14.8232 H   0  0  0  0  0  0  0  0  0  0  0  0
   10.4550    2.6341   13.0662 O   0  0  0  0  0  0  0  0  0  0  0  0
    9.9175    2.2849   11.8034 C   0  0  0  0  0  0  0  0  0  0  0  0
    9.7165    1.1979   11.7541 H   0  0  0  0  0  0  0  0  0  0  0  0
   10.6941    2.5406   11.0853 H   0  0  0  0  0  0  0  0  0  0  0  0
    9.0095    2.8620   11.5835 H   0  0  0  0  0  0  0  0  0  0  0  0
    7.5267    2.8074   15.2718 C   0  0  2  0  0  0  0  0  0  0  0  0
    6.9081    3.6926   15.4873 H   0  0  0  0  0  0  0  0  0  0  0  0
    8.8868    3.3004   14.7271 C   0  0  1  0  0  0  0  0  0  0  0  0
    8.6837    3.9861   13.8950 H   0  0  0  0  0  0  0  0  0  0  0  0
    9.6713    4.0389   15.8164 C   0  0  0  0  0  0  0  0  0  0  0  0
   10.6507    4.3117   15.4189 H   0  0  0  0  0  0  0  0  0  0  0  0
    9.1432    4.9610   16.0662 H   0  0  0  0  0  0  0  0  0  0  0  0
    9.8255    3.1878   17.0755 C   0  0  0  0  0  0  0  0  0  0  0  0
   10.4220    2.2963   16.8663 H   0  0  0  0  0  0  0  0  0  0  0  0
   10.3567    3.7621   17.8353 H   0  0  0  0  0  0  0  0  0  0  0  0
    8.4592    2.7651   17.6055 C   0  0  0  0  0  0  0  0  0  0  0  0
    7.8842    3.6527   17.8798 H   0  0  0  0  0  0  0  0  0  0  0  0
    8.5798    2.1540   18.5003 H   0  0  0  0  0  0  0  0  0  0  0  0
    7.6946    1.9730   16.5486 C   0  0  0  0  0  0  0  0  0  0  0  0
    8.2392    1.0344   16.3149 H   0  0  0  0  0  0  0  0  0  0  0  0
    6.7093    1.6966   16.9324 H   0  0  0  0  0  0  0  0  0  0  0  0
  1 11  1  0  0  0  0
  1  4  1  0  0  0  0
  2  1  1  0  0  0  0
  3  1  1  0  0  0  0
  4  5  1  0  0  0  0
  4 18  1  0  0  0  0
  6  4  1  0  0  0  0
  7 10  1  0  0  0  0
  7  6  1  0  0  0  0
  8  7  1  0  0  0  0
  9  7  1  0  0  0  0
 11 20  1  0  0  0  0
 11 12  1  0  0  0  0
 13 11  1  0  0  0  0
 14 13  1  0  0  0  0
 15 14  1  0  0  0  0
 16 14  1  0  0  0  0
 17 14  1  0  0  0  0
 18 19  1  1  0  0  0
 18 31  1  0  0  0  0
 20 21  1  6  0  0  0
 20 18  1  0  0  0  0
 20 22  1  0  0  0  0
 22 24  1  0  0  0  0
 22 25  1  0  0  0  0
 23 22  1  0  0  0  0
 25 28  1  0  0  0  0
 25 27  1  0  0  0  0
 26 25  1  0  0  0  0
 28 29  1  0  0  0  0
 28 30  1  0  0  0  0
 31 33  1  0  0  0  0
 31 28  1  0  0  0  0
 32 31  1  0  0  0  0
M  END
$$$$
