CSD_code = LUKCUQ | q = 0 | S = 0 | Stoichiometry = C22H15ClN2Pd | MND = 4
 OpenBabel04212202063D

 41 46  0  0  1  0  0  0  0  0999 V2000
    5.3137    0.4495    0.9118 Pd  0  0  1  0  0  0  0  0  0  0  0  0
    3.5939   -0.8280    0.3618 Cl  0  0  0  0  0  0  0  0  0  0  0  0
    7.0591    1.2668    1.1782 N   0  0  0  0  0  0  0  0  0  0  0  0
    5.4366    2.0383   -0.7143 N   0  0  0  0  0  0  0  0  0  0  0  0
    5.7742   -0.4994    2.6026 C   0  0  0  0  0  0  0  0  0  0  0  0
    5.0241   -1.3891    3.3601 C   0  0  0  0  0  0  0  0  0  0  0  0
    5.5187   -1.8841    4.5585 C   0  0  0  0  0  0  0  0  0  0  0  0
    6.7686   -1.4987    5.0195 C   0  0  0  0  0  0  0  0  0  0  0  0
    7.5348   -0.6157    4.2851 C   0  0  0  0  0  0  0  0  0  0  0  0
    7.0508   -0.1102    3.0782 C   0  0  0  0  0  0  0  0  0  0  0  0
    7.7867    0.8116    2.2198 C   0  0  1  0  0  3  0  0  0  0  0  0
    9.1160    1.1995    2.3669 C   0  0  0  0  0  0  0  0  0  0  0  0
    9.6905    2.0309    1.4190 C   0  0  0  0  0  0  0  0  0  0  0  0
    8.9424    2.4444    0.3289 C   0  0  0  0  0  0  0  0  0  0  0  0
    7.6127    2.0399    0.2285 C   0  0  0  0  0  0  0  0  0  0  0  0
    6.7141    2.4212   -0.8706 C   0  0  2  0  0  3  0  0  0  0  0  0
    7.1077    3.1466   -1.9950 C   0  0  0  0  0  0  0  0  0  0  0  0
    6.1534    3.4775   -2.9429 C   0  0  0  0  0  0  0  0  0  0  0  0
    4.8297    3.1330   -2.7319 C   0  0  0  0  0  0  0  0  0  0  0  0
    4.4975    2.4160   -1.5807 C   0  0  0  0  0  0  0  0  0  0  0  0
    3.1128    2.1020   -1.2059 C   0  0  0  0  0  0  0  0  0  0  0  0
    2.7570    2.1263    0.1469 C   0  0  0  0  0  0  0  0  0  0  0  0
    1.4556    1.8527    0.5249 C   0  0  0  0  0  0  0  0  0  0  0  0
    0.5053    1.5360   -0.4316 C   0  0  0  0  0  0  0  0  0  0  0  0
    0.8541    1.5015   -1.7714 C   0  0  0  0  0  0  0  0  0  0  0  0
    2.1489    1.7891   -2.1600 C   0  0  0  0  0  0  0  0  0  0  0  0
    4.0505   -1.7062    3.0095 H   0  0  0  0  0  0  0  0  0  0  0  0
    4.9244   -2.5773    5.1362 H   0  0  0  0  0  0  0  0  0  0  0  0
    7.1445   -1.8896    5.9539 H   0  0  0  0  0  0  0  0  0  0  0  0
    8.5055   -0.3146    4.6524 H   0  0  0  0  0  0  0  0  0  0  0  0
    9.6956    0.8464    3.2040 H   0  0  0  0  0  0  0  0  0  0  0  0
   10.7187    2.3432    1.5196 H   0  0  0  0  0  0  0  0  0  0  0  0
    9.3861    3.0735   -0.4249 H   0  0  0  0  0  0  0  0  0  0  0  0
    8.1349    3.4409   -2.1338 H   0  0  0  0  0  0  0  0  0  0  0  0
    6.4394    4.0246   -3.8291 H   0  0  0  0  0  0  0  0  0  0  0  0
    4.0619    3.4283   -3.4287 H   0  0  0  0  0  0  0  0  0  0  0  0
    3.4990    2.3920    0.9076 H   0  0  0  0  0  0  0  0  0  0  0  0
    1.1864    1.8720    1.5700 H   0  0  0  0  0  0  0  0  0  0  0  0
   -0.5064    1.3076   -0.1319 H   0  0  0  0  0  0  0  0  0  0  0  0
    0.1167    1.2409   -2.5159 H   0  0  0  0  0  0  0  0  0  0  0  0
    2.4228    1.7333   -3.2034 H   0  0  0  0  0  0  0  0  0  0  0  0
  1  2  1  6  0  0  0
  1  3  1  0  0  0  0
  1  5  1  0  0  0  0
  3 11  1  0  0  0  0
  4  1  1  0  0  0  0
  5 10  2  0  0  0  0
  5  6  1  0  0  0  0
  6  7  2  0  0  0  0
  7  8  1  0  0  0  0
  7 28  1  0  0  0  0
  8 29  1  0  0  0  0
  9 30  1  0  0  0  0
  9  8  2  0  0  0  0
 10  9  1  0  0  0  0
 11 12  1  6  0  0  0
 11 10  1  0  0  0  0
 12 31  1  0  0  0  0
 13 32  1  0  0  0  0
 13 12  2  0  0  0  0
 14 13  1  0  0  0  0
 15 14  2  0  0  0  0
 15  3  1  0  0  0  0
 16 17  1  1  0  0  0
 16  4  1  0  0  0  0
 16 15  1  0  0  0  0
 18 19  1  0  0  0  0
 18 17  2  0  0  0  0
 19 20  2  0  0  0  0
 20 21  1  0  0  0  0
 20  4  1  0  0  0  0
 21 22  1  0  0  0  0
 22 23  2  0  0  0  0
 22 37  1  0  0  0  0
 23 38  1  0  0  0  0
 24 39  1  0  0  0  0
 24 23  1  0  0  0  0
 25 24  2  0  0  0  0
 26 25  1  0  0  0  0
 26 21  2  0  0  0  0
 27  6  1  0  0  0  0
 33 14  1  0  0  0  0
 34 17  1  0  0  0  0
 35 18  1  0  0  0  0
 36 19  1  0  0  0  0
 40 25  1  0  0  0  0
 41 26  1  0  0  0  0
M  END
$$$$
