CSD_code = LULDOL | q = 0 | S = 0 | Stoichiometry = C24H18Br2N4O2Os | MND = 6
 OpenBabel04212202063D

 51 56  0  0  0  0  0  0  0  0999 V2000
    4.6852    5.7827   11.6859 Os  0  0  0  0  0  0  0  0  0  0  0  0
    6.8246    5.0306   12.6889 Br  0  0  0  0  0  0  0  0  0  0  0  0
    5.8950    6.7691    9.7600 Br  0  0  0  0  0  0  0  0  0  0  0  0
    3.2099    5.5287   15.4350 O   0  0  0  0  0  0  0  0  0  0  0  0
    1.4831    5.7111    9.2296 O   0  0  0  0  0  0  0  0  0  0  0  0
    4.7801    7.4397   12.8978 N   0  0  0  0  0  0  0  0  0  0  0  0
    3.7494    5.0630   13.2563 N   0  0  0  0  0  0  0  0  0  0  0  0
    4.3643    4.1115   10.5329 N   0  0  0  0  0  0  0  0  0  0  0  0
    2.9933    6.3159   10.8445 N   0  0  0  0  0  0  0  0  0  0  0  0
    5.2644    8.6476   12.6282 C   0  0  0  0  0  3  0  0  0  0  0  0
    5.6948    8.7974   11.6470 H   0  0  0  0  0  0  0  0  0  0  0  0
    5.2367    9.6796   13.5506 C   0  0  0  0  0  0  0  0  0  0  0  0
    5.6405   10.6416   13.2804 H   0  0  0  0  0  0  0  0  0  0  0  0
    4.6964    9.4522   14.8069 C   0  0  0  0  0  0  0  0  0  0  0  0
    4.6676   10.2361   15.5476 H   0  0  0  0  0  0  0  0  0  0  0  0
    4.1977    8.1924   15.0902 C   0  0  0  0  0  0  0  0  0  0  0  0
    3.7656    7.9340   16.0444 H   0  0  0  0  0  0  0  0  0  0  0  0
    4.2528    7.2146   14.1099 C   0  0  0  0  0  0  0  0  0  0  0  0
    3.6949    5.8441   14.3633 C   0  0  0  0  0  0  0  0  0  0  0  0
    3.3164    3.7291   13.3492 C   0  0  0  0  0  0  0  0  0  0  0  0
    2.2039    3.3037   12.6244 C   0  0  0  0  0  0  0  0  0  0  0  0
    1.6274    4.0203   12.0558 H   0  0  0  0  0  0  0  0  0  0  0  0
    1.8314    1.9736   12.6563 C   0  0  0  0  0  0  0  0  0  0  0  0
    0.9677    1.6498   12.0946 H   0  0  0  0  0  0  0  0  0  0  0  0
    2.5559    1.0637   13.4092 C   0  0  0  0  0  0  0  0  0  0  0  0
    2.2623    0.0250   13.4281 H   0  0  0  0  0  0  0  0  0  0  0  0
    3.6481    1.4902   14.1467 C   0  0  0  0  0  0  0  0  0  0  0  0
    4.2076    0.7863   14.7438 H   0  0  0  0  0  0  0  0  0  0  0  0
    4.0306    2.8178   14.1252 C   0  0  0  0  0  0  0  0  0  0  0  0
    4.8851    3.1579   14.6907 H   0  0  0  0  0  0  0  0  0  0  0  0
    5.0731    2.9892   10.4687 C   0  0  0  0  0  3  0  0  0  0  0  0
    5.9572    2.9296   11.0894 H   0  0  0  0  0  0  0  0  0  0  0  0
    4.7179    1.9350    9.6447 C   0  0  0  0  0  0  0  0  0  0  0  0
    5.3261    1.0453    9.6320 H   0  0  0  0  0  0  0  0  0  0  0  0
    3.5904    2.0482    8.8460 C   0  0  0  0  0  0  0  0  0  0  0  0
    3.2939    1.2452    8.1894 H   0  0  0  0  0  0  0  0  0  0  0  0
    2.8552    3.2195    8.9083 C   0  0  0  0  0  0  0  0  0  0  0  0
    1.9687    3.3872    8.3167 H   0  0  0  0  0  0  0  0  0  0  0  0
    3.2702    4.2257    9.7658 C   0  0  0  0  0  0  0  0  0  0  0  0
    2.4845    5.4992    9.8896 C   0  0  0  0  0  0  0  0  0  0  0  0
    2.3987    7.5735   11.0476 C   0  0  0  0  0  0  0  0  0  0  0  0
    1.7509    7.8530   12.2501 C   0  0  0  0  0  0  0  0  0  0  0  0
    1.6362    7.0745   12.9917 H   0  0  0  0  0  0  0  0  0  0  0  0
    1.2406    9.1167   12.4771 C   0  0  0  0  0  0  0  0  0  0  0  0
    0.7381    9.3275   13.4094 H   0  0  0  0  0  0  0  0  0  0  0  0
    1.3663   10.1038   11.5131 C   0  0  0  0  0  0  0  0  0  0  0  0
    0.9686   11.0904   11.6970 H   0  0  0  0  0  0  0  0  0  0  0  0
    1.9908    9.8199   10.3097 C   0  0  0  0  0  0  0  0  0  0  0  0
    2.0800   10.5832    9.5517 H   0  0  0  0  0  0  0  0  0  0  0  0
    2.5040    8.5598   10.0688 C   0  0  0  0  0  0  0  0  0  0  0  0
    2.9991    8.3314    9.1368 H   0  0  0  0  0  0  0  0  0  0  0  0
  1  2  1  0  0  0  0
  1  6  1  0  0  0  0
  1  7  1  0  0  0  0
  3  1  1  0  0  0  0
  5 40  2  0  0  0  0
  6 18  1  0  0  0  0
  7 20  1  0  0  0  0
  7 19  1  0  0  0  0
  8  1  1  0  0  0  0
  9 41  1  0  0  0  0
  9  1  1  0  0  0  0
 10  6  1  0  0  0  0
 10 12  1  0  0  0  0
 11 10  1  0  0  0  0
 12 14  2  0  0  0  0
 13 12  1  0  0  0  0
 14 16  1  0  0  0  0
 14 15  1  0  0  0  0
 16 17  1  0  0  0  0
 18 19  1  0  0  0  0
 18 16  2  0  0  0  0
 19  4  2  0  0  0  0
 20 29  1  0  0  0  0
 21 23  1  0  0  0  0
 21 20  2  0  0  0  0
 22 21  1  0  0  0  0
 23 25  2  0  0  0  0
 24 23  1  0  0  0  0
 25 26  1  0  0  0  0
 25 27  1  0  0  0  0
 27 28  1  0  0  0  0
 29 27  2  0  0  0  0
 29 30  1  0  0  0  0
 31  8  1  0  0  0  0
 31 32  1  0  0  0  0
 33 31  1  0  0  0  0
 34 33  1  0  0  0  0
 35 37  1  0  0  0  0
 35 33  2  0  0  0  0
 36 35  1  0  0  0  0
 37 39  2  0  0  0  0
 38 37  1  0  0  0  0
 39 40  1  0  0  0  0
 39  8  1  0  0  0  0
 40  9  1  0  0  0  0
 41 42  1  0  0  0  0
 42 44  2  0  0  0  0
 42 43  1  0  0  0  0
 44 45  1  0  0  0  0
 46 47  1  0  0  0  0
 46 44  1  0  0  0  0
 48 46  2  0  0  0  0
 49 48  1  0  0  0  0
 50 48  1  0  0  0  0
 50 41  2  0  0  0  0
 51 50  1  0  0  0  0
M  END
$$$$
