CSD_code = LULROA | q = 0 | S = 0 | Stoichiometry = C8H9Cl2N5Zn | MND = 4
 OpenBabel04212202063D

 25 27  0  0  1  0  0  0  0  0999 V2000
    4.7782    3.4810   -0.5761 Zn  0  0  0  0  0  0  0  0  0  0  0  0
    5.6274    2.8341    1.2965 Cl  0  0  0  0  0  0  0  0  0  0  0  0
    2.6266    3.3862   -1.3475 Cl  0  0  0  0  0  0  0  0  0  0  0  0
    5.2673    2.4993   -4.4555 N   0  0  0  0  0  0  0  0  0  0  0  0
    4.9320    2.6836   -5.3861 H   0  0  0  0  0  0  0  0  0  0  0  0
    5.1426    3.3052   -3.3674 C   0  0  1  0  0  3  0  0  0  0  0  0
    5.6351    2.7620   -2.2845 N   0  0  0  0  0  0  0  0  0  0  0  0
    6.7012    0.5260   -1.8869 C   0  0  0  0  0  0  0  0  0  0  0  0
    6.8657    0.6731   -0.8316 H   0  0  0  0  0  0  0  0  0  0  0  0
    7.0601   -0.6371   -2.5394 C   0  0  0  0  0  0  0  0  0  0  0  0
    7.5269   -1.4339   -1.9813 H   0  0  0  0  0  0  0  0  0  0  0  0
    6.8323   -0.8145   -3.9045 C   0  0  0  0  0  0  0  0  0  0  0  0
    7.1284   -1.7419   -4.3704 H   0  0  0  0  0  0  0  0  0  0  0  0
    6.2335    0.1650   -4.6758 C   0  0  0  0  0  0  0  0  0  0  0  0
    6.0547    0.0239   -5.7304 H   0  0  0  0  0  0  0  0  0  0  0  0
    5.8720    1.3319   -4.0270 C   0  0  0  0  0  0  0  0  0  0  0  0
    6.1001    1.5165   -2.6502 C   0  0  0  0  0  0  0  0  0  0  0  0
    4.5871    4.5493   -3.4897 N   0  0  0  0  0  0  0  0  0  0  0  0
    4.0352    4.6940   -4.3234 H   0  0  0  0  0  0  0  0  0  0  0  0
    4.4472    5.5004   -2.5069 C   0  0  1  0  0  3  0  0  0  0  0  0
    5.0449    5.3955   -1.3767 N   0  0  0  0  0  0  0  0  0  0  0  0
    4.9199    6.2086   -0.7844 H   0  0  0  0  0  0  0  0  0  0  0  0
    3.7551    6.6050   -2.9007 N   0  0  0  0  0  0  0  0  0  0  0  0
    3.0994    6.5261   -3.6613 H   0  0  0  0  0  0  0  0  0  0  0  0
    3.4683    7.2370   -2.1699 H   0  0  0  0  0  0  0  0  0  0  0  0
  1  2  1  0  0  0  0
  3  1  1  0  0  0  0
  4 16  1  0  0  0  0
  5  4  1  0  0  0  0
  6  4  1  6  0  0  0
  6  7  1  0  0  0  0
  7  1  1  0  0  0  0
  8  9  1  0  0  0  0
 10 11  1  0  0  0  0
 10  8  1  0  0  0  0
 12 10  2  0  0  0  0
 13 12  1  0  0  0  0
 14 16  2  0  0  0  0
 14 12  1  0  0  0  0
 15 14  1  0  0  0  0
 16 17  1  0  0  0  0
 17  7  1  0  0  0  0
 17  8  2  0  0  0  0
 18  6  1  0  0  0  0
 18 20  1  0  0  0  0
 19 18  1  0  0  0  0
 20 23  1  6  0  0  0
 20 21  1  0  0  0  0
 21 22  1  0  0  0  0
 21  1  1  0  0  0  0
 23 25  1  0  0  0  0
 24 23  1  0  0  0  0
M  END
$$$$
