CSD_code = LULREQ | q = 0 | S = 0 | Stoichiometry = C16H16Br2N4Zn | MND = 4
 OpenBabel04212202063D

 39 42  0  0  1  0  0  0  0  0999 V2000
    1.4449   -0.2591   10.0667 Zn  0  0  0  0  0  0  0  0  0  0  0  0
    0.6698    1.3647   11.6265 Br  0  0  0  0  0  0  0  0  0  0  0  0
    0.6739   -2.4624    9.7804 Br  0  0  0  0  0  0  0  0  0  0  0  0
    5.4612    0.9220   10.6589 N   0  0  0  0  0  0  0  0  0  0  0  0
    6.1207    1.6656   10.8187 H   0  0  0  0  0  0  0  0  0  0  0  0
    3.5463   -0.0738   10.1979 N   0  0  0  0  0  0  0  0  0  0  0  0
    4.1677    1.0798   10.2927 C   0  0  2  0  0  3  0  0  0  0  0  0
    4.3561   -2.4346   10.5700 C   0  0  0  0  0  0  0  0  0  0  0  0
    3.4309   -2.9360   10.3397 H   0  0  0  0  0  0  0  0  0  0  0  0
    5.4811   -3.1471   10.9308 C   0  0  0  0  0  0  0  0  0  0  0  0
    5.4250   -4.2233   10.9828 H   0  0  0  0  0  0  0  0  0  0  0  0
    6.6898   -2.5179   11.2320 C   0  0  0  0  0  0  0  0  0  0  0  0
    7.5411   -3.1196   11.5115 H   0  0  0  0  0  0  0  0  0  0  0  0
    6.8211   -1.1444   11.1805 C   0  0  0  0  0  0  0  0  0  0  0  0
    7.7535   -0.6529   11.4120 H   0  0  0  0  0  0  0  0  0  0  0  0
    5.6953   -0.4242   10.8193 C   0  0  0  0  0  0  0  0  0  0  0  0
    4.4695   -1.0504   10.5188 C   0  0  0  0  0  0  0  0  0  0  0  0
    3.5793    2.4114   10.0382 C   0  0  0  0  0  0  0  0  0  0  0  0
    2.8720    2.3632    9.2138 H   0  0  0  0  0  0  0  0  0  0  0  0
    4.3578    3.1345    9.8070 H   0  0  0  0  0  0  0  0  0  0  0  0
    3.0326    2.7513   10.9195 H   0  0  0  0  0  0  0  0  0  0  0  0
   -0.5912    1.2491    6.6540 N   0  0  0  0  0  0  0  0  0  0  0  0
   -1.4652    1.4870    6.2149 H   0  0  0  0  0  0  0  0  0  0  0  0
    0.8203    0.5791    8.2131 N   0  0  0  0  0  0  0  0  0  0  0  0
   -0.4393    0.8240    7.9312 C   0  0  2  0  0  3  0  0  0  0  0  0
    2.8958    0.7096    6.7975 C   0  0  0  0  0  0  0  0  0  0  0  0
    3.5804    0.3483    7.5482 H   0  0  0  0  0  0  0  0  0  0  0  0
    3.3246    1.0448    5.5298 C   0  0  0  0  0  0  0  0  0  0  0  0
    4.3725    0.9568    5.2860 H   0  0  0  0  0  0  0  0  0  0  0  0
    2.4388    1.4890    4.5471 C   0  0  0  0  0  0  0  0  0  0  0  0
    2.8218    1.7391    3.5697 H   0  0  0  0  0  0  0  0  0  0  0  0
    1.0852    1.6055    4.7937 C   0  0  0  0  0  0  0  0  0  0  0  0
    0.3969    1.9377    4.0321 H   0  0  0  0  0  0  0  0  0  0  0  0
    0.6497    1.2687    6.0641 C   0  0  0  0  0  0  0  0  0  0  0  0
    1.5389    0.8329    7.0670 C   0  0  0  0  0  0  0  0  0  0  0  0
   -1.5787    0.6645    8.8566 C   0  0  0  0  0  0  0  0  0  0  0  0
   -1.6061   -0.3546    9.2442 H   0  0  0  0  0  0  0  0  0  0  0  0
   -2.5170    0.8750    8.3502 H   0  0  0  0  0  0  0  0  0  0  0  0
   -1.4737    1.3373    9.7085 H   0  0  0  0  0  0  0  0  0  0  0  0
  1  6  1  0  0  0  0
  1  2  1  0  0  0  0
  3  1  1  0  0  0  0
  4  5  1  0  0  0  0
  4 16  1  0  0  0  0
  6  7  1  0  0  0  0
  6 17  1  0  0  0  0
  7 18  1  6  0  0  0
  7  4  1  0  0  0  0
  8 10  1  0  0  0  0
  9  8  1  0  0  0  0
 10 11  1  0  0  0  0
 10 12  2  0  0  0  0
 12 13  1  0  0  0  0
 14 12  1  0  0  0  0
 14 15  1  0  0  0  0
 16 14  2  0  0  0  0
 17  8  2  0  0  0  0
 17 16  1  0  0  0  0
 18 21  1  0  0  0  0
 19 18  1  0  0  0  0
 20 18  1  0  0  0  0
 22 25  1  0  0  0  0
 23 22  1  0  0  0  0
 24  1  1  0  0  0  0
 25 24  1  0  0  0  0
 25 36  1  6  0  0  0
 26 35  1  0  0  0  0
 26 27  1  0  0  0  0
 28 26  2  0  0  0  0
 29 28  1  0  0  0  0
 30 32  2  0  0  0  0
 30 28  1  0  0  0  0
 31 30  1  0  0  0  0
 32 34  1  0  0  0  0
 33 32  1  0  0  0  0
 34 22  1  0  0  0  0
 34 35  2  0  0  0  0
 35 24  1  0  0  0  0
 36 37  1  0  0  0  0
 36 39  1  0  0  0  0
 38 36  1  0  0  0  0
M  END
$$$$
