CSD_code = LUMRER | q = 0 | S = 0 | Stoichiometry = C12H21ClN2Pd | MND = 4
 OpenBabel04212202063D

 37 38  0  0  1  0  0  0  0  0999 V2000
    4.4979    1.1111    2.5095 Pd  0  0  2  0  0  0  0  0  0  0  0  0
    6.0383   -0.3904    1.9472 Cl  0  0  0  0  0  0  0  0  0  0  0  0
    2.8122   -0.1485    1.8718 N   0  0  0  0  0  0  0  0  0  0  0  0
    2.8093    2.4552    2.8544 N   0  0  0  0  0  4  0  0  0  0  0  0
    3.0507    3.0423    3.6528 H   0  0  0  0  0  0  0  0  0  0  0  0
    5.9718    2.2132    3.3871 C   0  0  0  0  0  0  0  0  0  0  0  0
    5.5678    3.1177    3.8631 H   0  0  0  0  0  0  0  0  0  0  0  0
    6.7496    2.5012    2.6720 H   0  0  0  0  0  0  0  0  0  0  0  0
    6.4387    1.5862    4.1581 H   0  0  0  0  0  0  0  0  0  0  0  0
    2.8079   -1.2335    1.1118 C   0  0  0  0  0  3  0  0  0  0  0  0
    3.7781   -1.5640    0.7593 H   0  0  0  0  0  0  0  0  0  0  0  0
    1.6392   -1.9093    0.7970 C   0  0  0  0  0  0  0  0  0  0  0  0
    1.6706   -2.7921    0.1790 H   0  0  0  0  0  0  0  0  0  0  0  0
    0.4388   -1.4260    1.2932 C   0  0  0  0  0  0  0  0  0  0  0  0
   -0.4928   -1.9234    1.0679 H   0  0  0  0  0  0  0  0  0  0  0  0
    0.4508   -0.2913    2.0898 C   0  0  0  0  0  0  0  0  0  0  0  0
   -0.4660    0.1095    2.4963 H   0  0  0  0  0  0  0  0  0  0  0  0
    1.6651    0.3247    2.3594 C   0  0  0  0  0  0  0  0  0  0  0  0
    1.7722    1.5150    3.2910 C   0  0  1  0  0  0  0  0  0  0  0  0
    0.7879    2.0007    3.3788 H   0  0  0  0  0  0  0  0  0  0  0  0
    2.1891    0.9738    4.6667 C   0  0  0  0  0  0  0  0  0  0  0  0
    2.1937    1.7702    5.4091 H   0  0  0  0  0  0  0  0  0  0  0  0
    3.2050    0.5500    4.5895 H   0  0  0  0  0  0  0  0  0  0  0  0
    1.5062    0.1945    4.9969 H   0  0  0  0  0  0  0  0  0  0  0  0
    2.5316    3.3559    1.7180 C   0  0  0  0  0  0  0  0  0  0  0  0
    1.2847    4.2160    1.9642 C   0  0  0  0  0  0  0  0  0  0  0  0
    0.3738    3.6231    1.9229 H   0  0  0  0  0  0  0  0  0  0  0  0
    1.2135    4.9846    1.1995 H   0  0  0  0  0  0  0  0  0  0  0  0
    1.3402    4.7073    2.9345 H   0  0  0  0  0  0  0  0  0  0  0  0
    3.7615    4.2588    1.5807 C   0  0  0  0  0  0  0  0  0  0  0  0
    4.6510    3.6342    1.4396 H   0  0  0  0  0  0  0  0  0  0  0  0
    3.8985    4.8733    2.4685 H   0  0  0  0  0  0  0  0  0  0  0  0
    3.6568    4.9171    0.7226 H   0  0  0  0  0  0  0  0  0  0  0  0
    2.3848    2.5558    0.4224 C   0  0  0  0  0  0  0  0  0  0  0  0
    3.2673    1.9155    0.2870 H   0  0  0  0  0  0  0  0  0  0  0  0
    2.3222    3.2363   -0.4233 H   0  0  0  0  0  0  0  0  0  0  0  0
    1.4880    1.9394    0.4273 H   0  0  0  0  0  0  0  0  0  0  0  0
  1  2  1  6  0  0  0
  1  4  1  0  0  0  0
  1  6  1  0  0  0  0
  3 18  1  0  0  0  0
  3  1  1  0  0  0  0
  4 19  1  0  0  0  0
  4  5  1  0  0  0  0
  6  7  1  0  0  0  0
  6  9  1  0  0  0  0
  8  6  1  0  0  0  0
 10  3  1  0  0  0  0
 11 10  1  0  0  0  0
 12 10  1  0  0  0  0
 12 14  2  0  0  0  0
 13 12  1  0  0  0  0
 14 16  1  0  0  0  0
 15 14  1  0  0  0  0
 16 18  2  0  0  0  0
 16 17  1  0  0  0  0
 18 19  1  0  0  0  0
 19 20  1  1  0  0  0
 19 21  1  0  0  0  0
 21 24  1  0  0  0  0
 21 22  1  0  0  0  0
 23 21  1  0  0  0  0
 25 26  1  0  0  0  0
 25  4  1  0  0  0  0
 26 29  1  0  0  0  0
 27 26  1  0  0  0  0
 28 26  1  0  0  0  0
 30 25  1  0  0  0  0
 30 32  1  0  0  0  0
 31 30  1  0  0  0  0
 33 30  1  0  0  0  0
 34 37  1  0  0  0  0
 34 25  1  0  0  0  0
 35 34  1  0  0  0  0
 36 34  1  0  0  0  0
M  END
$$$$
