CSD_code = LUMRUH | q = 0 | S = 0 | Stoichiometry = C16H21ClN2Pd | MND = 4
 OpenBabel04212202063D

 41 43  0  0  1  0  0  0  0  0999 V2000
   -0.5355    3.1744    3.1399 Pd  0  0  2  0  0  0  0  0  0  0  0  0
    1.0932    4.3137    4.1381 Cl  0  0  0  0  0  0  0  0  0  0  0  0
    0.2870    1.1830    3.5396 N   0  0  0  0  0  0  0  0  0  0  0  0
   -2.0223    1.8688    2.2109 N   0  0  0  0  0  4  0  0  0  0  0  0
   -1.5456    4.9341    2.9435 C   0  0  0  0  0  0  0  0  0  0  0  0
   -2.3821    4.8168    2.2424 H   0  0  0  0  0  0  0  0  0  0  0  0
   -0.8875    5.7299    2.5831 H   0  0  0  0  0  0  0  0  0  0  0  0
   -1.9282    5.2232    3.9324 H   0  0  0  0  0  0  0  0  0  0  0  0
    1.1785    0.9798    4.5028 C   0  0  0  0  0  3  0  0  0  0  0  0
    1.7868    1.8383    4.7673 H   0  0  0  0  0  0  0  0  0  0  0  0
    1.3284   -0.2480    5.1273 C   0  0  0  0  0  0  0  0  0  0  0  0
    2.0656   -0.3772    5.9031 H   0  0  0  0  0  0  0  0  0  0  0  0
    0.5113   -1.2932    4.7313 C   0  0  0  0  0  0  0  0  0  0  0  0
    0.5921   -2.2655    5.1939 H   0  0  0  0  0  0  0  0  0  0  0  0
   -0.4209   -1.0767    3.7265 C   0  0  0  0  0  0  0  0  0  0  0  0
   -1.0615   -1.8816    3.4063 H   0  0  0  0  0  0  0  0  0  0  0  0
   -0.5094    0.1813    3.1477 C   0  0  0  0  0  0  0  0  0  0  0  0
   -1.4579    0.5191    2.0100 C   0  0  1  0  0  0  0  0  0  0  0  0
   -0.8545    0.5534    1.0945 H   0  0  0  0  0  0  0  0  0  0  0  0
   -2.5713   -0.5104    1.8067 C   0  0  0  0  0  0  0  0  0  0  0  0
   -3.2539   -0.1545    1.0369 H   0  0  0  0  0  0  0  0  0  0  0  0
   -3.1296   -0.6706    2.7280 H   0  0  0  0  0  0  0  0  0  0  0  0
   -2.1639   -1.4614    1.4741 H   0  0  0  0  0  0  0  0  0  0  0  0
   -2.6486    2.4349    1.0586 C   0  0  0  0  0  0  0  0  0  0  0  0
   -1.8730    2.8453   -0.0357 C   0  0  0  0  0  0  0  0  0  0  0  0
   -2.5196    3.3561   -1.1542 C   0  0  0  0  0  0  0  0  0  0  0  0
   -1.9275    3.6699   -2.0010 H   0  0  0  0  0  0  0  0  0  0  0  0
   -3.8937    3.4871   -1.1932 C   0  0  0  0  0  0  0  0  0  0  0  0
   -4.3774    3.8821   -2.0733 H   0  0  0  0  0  0  0  0  0  0  0  0
   -4.6436    3.1434   -0.0841 C   0  0  0  0  0  0  0  0  0  0  0  0
   -5.7145    3.2836   -0.0942 H   0  0  0  0  0  0  0  0  0  0  0  0
   -4.0386    2.6199    1.0485 C   0  0  0  0  0  0  0  0  0  0  0  0
   -0.3722    2.8298   -0.0127 C   0  0  0  0  0  0  0  0  0  0  0  0
    0.0067    3.1021    0.9997 H   0  0  0  0  0  0  0  0  0  0  0  0
    0.0088    3.5578   -0.7250 H   0  0  0  0  0  0  0  0  0  0  0  0
    0.0360    1.8566   -0.2895 H   0  0  0  0  0  0  0  0  0  0  0  0
   -4.8763    2.3104    2.2584 C   0  0  0  0  0  0  0  0  0  0  0  0
   -5.9169    2.5518    2.0586 H   0  0  0  0  0  0  0  0  0  0  0  0
   -4.5544    2.9113    3.1114 H   0  0  0  0  0  0  0  0  0  0  0  0
   -4.8267    1.2566    2.5340 H   0  0  0  0  0  0  0  0  0  0  0  0
   -2.6997    1.8231    2.9738 H   0  0  0  0  0  0  0  0  0  0  0  0
  1  3  1  0  0  0  0
  1  2  1  6  0  0  0
  3  9  1  0  0  0  0
  4 41  1  0  0  0  0
  4  1  1  0  0  0  0
  5  1  1  0  0  0  0
  5  8  1  0  0  0  0
  6  5  1  0  0  0  0
  7  5  1  0  0  0  0
  9 10  1  0  0  0  0
  9 11  1  0  0  0  0
 11 12  1  0  0  0  0
 13 11  2  0  0  0  0
 13 14  1  0  0  0  0
 15 13  1  0  0  0  0
 16 15  1  0  0  0  0
 17  3  1  0  0  0  0
 17 15  2  0  0  0  0
 18 19  1  6  0  0  0
 18  4  1  0  0  0  0
 18 17  1  0  0  0  0
 20 18  1  0  0  0  0
 20 22  1  0  0  0  0
 21 20  1  0  0  0  0
 23 20  1  0  0  0  0
 24  4  1  0  0  0  0
 25 33  1  0  0  0  0
 25 24  2  0  0  0  0
 26 25  1  0  0  0  0
 27 26  1  0  0  0  0
 28 26  2  0  0  0  0
 28 30  1  0  0  0  0
 29 28  1  0  0  0  0
 30 32  2  0  0  0  0
 31 30  1  0  0  0  0
 32 24  1  0  0  0  0
 32 37  1  0  0  0  0
 33 34  1  0  0  0  0
 35 33  1  0  0  0  0
 36 33  1  0  0  0  0
 37 40  1  0  0  0  0
 37 39  1  0  0  0  0
 38 37  1  0  0  0  0
M  END
$$$$
