CSD_code = LUMSOC | q = 0 | S = 0 | Stoichiometry = C11H19ClN2Pd | MND = 4
 OpenBabel04212202063D

 34 35  0  0  0  0  0  0  0  0999 V2000
    4.1056    0.1394    2.7182 Pd  0  0  1  0  0  0  0  0  0  0  0  0
    5.8805   -0.2449    1.4578 Cl  0  0  0  0  0  0  0  0  0  0  0  0
    2.3397    0.6056    3.5867 N   0  0  0  0  0  0  0  0  0  0  0  0
    2.6825   -0.8069    1.2218 N   0  0  0  0  0  4  0  0  0  0  0  0
    5.2962    1.0510    4.1150 C   0  0  0  0  0  0  0  0  0  0  0  0
    4.8958    2.0457    4.3572 H   0  0  0  0  0  0  0  0  0  0  0  0
    6.3260    1.1613    3.7695 H   0  0  0  0  0  0  0  0  0  0  0  0
    5.2973    0.4185    5.0167 H   0  0  0  0  0  0  0  0  0  0  0  0
    2.1082    0.9568    4.8517 C   0  0  0  0  0  3  0  0  0  0  0  0
    2.9663    0.9728    5.5096 H   0  0  0  0  0  0  0  0  0  0  0  0
    0.8515    1.2850    5.3258 C   0  0  0  0  0  0  0  0  0  0  0  0
    0.7206    1.5627    6.3593 H   0  0  0  0  0  0  0  0  0  0  0  0
   -0.2238    1.2507    4.4515 C   0  0  0  0  0  0  0  0  0  0  0  0
   -1.2192    1.5052    4.7805 H   0  0  0  0  0  0  0  0  0  0  0  0
    0.0125    0.8721    3.1394 C   0  0  0  0  0  0  0  0  0  0  0  0
   -0.7976    0.8248    2.4271 H   0  0  0  0  0  0  0  0  0  0  0  0
    1.3004    0.5512    2.7376 C   0  0  0  0  0  0  0  0  0  0  0  0
    1.5861    0.1536    1.3048 C   0  0  0  0  0  0  0  0  0  0  0  0
    0.6606   -0.2099    0.8342 H   0  0  0  0  0  0  0  0  0  0  0  0
    1.8962    1.0638    0.7699 H   0  0  0  0  0  0  0  0  0  0  0  0
    2.3764   -2.2371    1.4015 C   0  0  0  0  0  0  0  0  0  0  0  0
    3.7301   -2.9436    1.5231 C   0  0  0  0  0  0  0  0  0  0  0  0
    4.3008   -2.4946    2.3492 H   0  0  0  0  0  0  0  0  0  0  0  0
    4.3130   -2.8265    0.6119 H   0  0  0  0  0  0  0  0  0  0  0  0
    3.5972   -4.0042    1.7198 H   0  0  0  0  0  0  0  0  0  0  0  0
    1.5971   -2.7917    0.2023 C   0  0  0  0  0  0  0  0  0  0  0  0
    0.6169   -2.3271    0.1132 H   0  0  0  0  0  0  0  0  0  0  0  0
    1.4496   -3.8621    0.3166 H   0  0  0  0  0  0  0  0  0  0  0  0
    2.1478   -2.6214   -0.7210 H   0  0  0  0  0  0  0  0  0  0  0  0
    1.5953   -2.4563    2.6982 C   0  0  0  0  0  0  0  0  0  0  0  0
    0.6139   -1.9880    2.6687 H   0  0  0  0  0  0  0  0  0  0  0  0
    2.1606   -2.0520    3.5414 H   0  0  0  0  0  0  0  0  0  0  0  0
    1.4555   -3.5220    2.8624 H   0  0  0  0  0  0  0  0  0  0  0  0
    3.1835   -0.7048    0.3371 H   0  0  0  0  0  0  0  0  0  0  0  0
  1  2  1  6  0  0  0
  1  3  1  0  0  0  0
  1  5  1  0  0  0  0
  3  9  1  0  0  0  0
  4 18  1  0  0  0  0
  4 21  1  0  0  0  0
  4  1  1  0  0  0  0
  5  6  1  0  0  0  0
  5  8  1  0  0  0  0
  7  5  1  0  0  0  0
  9 11  1  0  0  0  0
  9 10  1  0  0  0  0
 11 12  1  0  0  0  0
 13 14  1  0  0  0  0
 13 11  2  0  0  0  0
 15 13  1  0  0  0  0
 16 15  1  0  0  0  0
 17 15  2  0  0  0  0
 17  3  1  0  0  0  0
 18 17  1  0  0  0  0
 19 18  1  0  0  0  0
 20 18  1  0  0  0  0
 21 22  1  0  0  0  0
 21 30  1  0  0  0  0
 22 25  1  0  0  0  0
 22 23  1  0  0  0  0
 24 22  1  0  0  0  0
 26 28  1  0  0  0  0
 26 21  1  0  0  0  0
 27 26  1  0  0  0  0
 29 26  1  0  0  0  0
 30 33  1  0  0  0  0
 30 32  1  0  0  0  0
 31 30  1  0  0  0  0
 34  4  1  0  0  0  0
M  END
$$$$
