CSD_code = LUNGOS | q = 0 | S = 0 | Stoichiometry = C30H24ClFeN3O2 | MND = 4
 OpenBabel04212202063D

 61 68  0  0  1  0  0  0  0  0999 V2000
    2.6058    3.4059    3.1296 Fe  0  0  1  0  0  0  0  0  0  0  0  0
    3.3863    1.5778    3.2967 Cl  0  0  0  0  0  0  0  0  0  0  0  0
    1.0836    6.0668    0.3854 O   0  0  0  0  0  0  0  0  0  0  0  0
    4.8129    5.1194    6.4701 O   0  0  0  0  0  0  0  0  0  0  0  0
    2.1267    4.6240    1.7511 N   0  0  1  0  0  0  0  0  0  0  0  0
    1.4724    4.5591    4.2445 N   0  0  0  0  0  0  0  0  0  0  0  0
    4.3295    4.4717    4.3842 N   0  0  2  0  0  0  0  0  0  0  0  0
    4.2256    4.8485    0.5039 C   0  0  0  0  0  0  0  0  0  0  0  0
    4.5585    6.1461    0.8745 C   0  0  0  0  0  0  0  0  0  0  0  0
    3.7798    6.8333    1.1743 H   0  0  0  0  0  0  0  0  0  0  0  0
    5.8779    6.5595    0.8553 C   0  0  0  0  0  0  0  0  0  0  0  0
    6.1284    7.5722    1.1365 H   0  0  0  0  0  0  0  0  0  0  0  0
    6.8756    5.6818    0.4655 C   0  0  0  0  0  0  0  0  0  0  0  0
    7.9035    6.0093    0.4358 H   0  0  0  0  0  0  0  0  0  0  0  0
    6.5514    4.3828    0.1171 C   0  0  0  0  0  0  0  0  0  0  0  0
    7.3282    3.6934   -0.1761 H   0  0  0  0  0  0  0  0  0  0  0  0
    5.2323    3.9653    0.1414 C   0  0  0  0  0  0  0  0  0  0  0  0
    4.9822    2.9507   -0.1313 H   0  0  0  0  0  0  0  0  0  0  0  0
    2.7751    4.4299    0.4531 C   0  0  2  0  0  0  0  0  0  0  0  0
    2.7106    3.3736    0.1647 H   0  0  0  0  0  0  0  0  0  0  0  0
    1.9312    5.3304   -0.4811 C   0  0  0  0  0  0  0  0  0  0  0  0
    2.5467    6.0304   -1.0524 H   0  0  0  0  0  0  0  0  0  0  0  0
    1.3100    4.7492   -1.1704 H   0  0  0  0  0  0  0  0  0  0  0  0
    1.2413    5.5667    1.6369 C   0  0  1  0  0  3  0  0  0  0  0  0
    0.4702    6.1043    2.7083 C   0  0  0  0  0  0  0  0  0  0  0  0
   -0.4110    7.1676    2.4704 C   0  0  0  0  0  0  0  0  0  0  0  0
   -0.5097    7.5271    1.4575 H   0  0  0  0  0  0  0  0  0  0  0  0
   -1.1242    7.7398    3.4941 C   0  0  0  0  0  0  0  0  0  0  0  0
   -1.8051    8.5542    3.3023 H   0  0  0  0  0  0  0  0  0  0  0  0
   -0.9426    7.2662    4.7956 C   0  0  0  0  0  0  0  0  0  0  0  0
   -1.4790    7.7297    5.6114 H   0  0  0  0  0  0  0  0  0  0  0  0
   -0.0891    6.2266    5.0573 C   0  0  0  0  0  0  0  0  0  0  0  0
    0.0509    5.8873    6.0732 H   0  0  0  0  0  0  0  0  0  0  0  0
    0.6285    5.5776    4.0234 C   0  0  0  0  0  0  0  0  0  0  0  0
    1.5647    3.9398    5.4785 C   0  0  0  0  0  0  0  0  0  0  0  0
    0.4375    3.3644    6.0885 C   0  0  0  0  0  0  0  0  0  0  0  0
   -0.5076    3.4214    5.5678 H   0  0  0  0  0  0  0  0  0  0  0  0
    0.5269    2.7353    7.3106 C   0  0  0  0  0  0  0  0  0  0  0  0
   -0.3555    2.2910    7.7474 H   0  0  0  0  0  0  0  0  0  0  0  0
    1.7409    2.6700    7.9830 C   0  0  0  0  0  0  0  0  0  0  0  0
    1.8058    2.1818    8.9429 H   0  0  0  0  0  0  0  0  0  0  0  0
    2.8640    3.2362    7.4142 C   0  0  0  0  0  0  0  0  0  0  0  0
    3.8149    3.1993    7.9239 H   0  0  0  0  0  0  0  0  0  0  0  0
    2.7978    3.8584    6.1712 C   0  0  0  0  0  0  0  0  0  0  0  0
    3.9977    4.4732    5.6164 C   0  0  2  0  0  3  0  0  0  0  0  0
    5.8717    5.6691    5.6999 C   0  0  0  0  0  0  0  0  0  0  0  0
    6.8192    5.2481    6.0506 H   0  0  0  0  0  0  0  0  0  0  0  0
    5.8797    6.7525    5.8425 H   0  0  0  0  0  0  0  0  0  0  0  0
    5.5483    5.2437    4.2374 C   0  0  1  0  0  0  0  0  0  0  0  0
    5.3215    6.1138    3.6085 H   0  0  0  0  0  0  0  0  0  0  0  0
    6.6995    4.4947    3.6112 C   0  0  0  0  0  0  0  0  0  0  0  0
    6.6037    3.1635    3.2415 C   0  0  0  0  0  0  0  0  0  0  0  0
    5.6707    2.6403    3.3759 H   0  0  0  0  0  0  0  0  0  0  0  0
    7.6978    2.5124    2.6967 C   0  0  0  0  0  0  0  0  0  0  0  0
    7.6094    1.4747    2.4119 H   0  0  0  0  0  0  0  0  0  0  0  0
    8.8958    3.1819    2.5239 C   0  0  0  0  0  0  0  0  0  0  0  0
    9.7501    2.6714    2.1036 H   0  0  0  0  0  0  0  0  0  0  0  0
    8.9967    4.5130    2.8936 C   0  0  0  0  0  0  0  0  0  0  0  0
    9.9291    5.0429    2.7621 H   0  0  0  0  0  0  0  0  0  0  0  0
    7.9039    5.1665    3.4315 C   0  0  0  0  0  0  0  0  0  0  0  0
    7.9832    6.2062    3.7172 H   0  0  0  0  0  0  0  0  0  0  0  0
  1  2  1  0  0  0  0
  1  6  1  0  0  0  0
  1  7  1  0  0  0  0
  3 24  1  0  0  0  0
  5  1  1  0  0  0  0
  6 35  1  0  0  0  0
  7 45  1  0  0  0  0
  8  9  1  0  0  0  0
  9 10  1  0  0  0  0
 11  9  2  0  0  0  0
 11 12  1  0  0  0  0
 13 11  1  0  0  0  0
 14 13  1  0  0  0  0
 15 17  1  0  0  0  0
 15 13  2  0  0  0  0
 16 15  1  0  0  0  0
 17  8  2  0  0  0  0
 18 17  1  0  0  0  0
 19  8  1  0  0  0  0
 19  5  1  0  0  0  0
 20 19  1  0  0  0  0
 21  3  1  0  0  0  0
 21 19  1  0  0  0  0
 22 21  1  0  0  0  0
 23 21  1  0  0  0  0
 24  5  1  0  0  0  0
 24 25  1  0  0  0  0
 25 34  1  0  0  0  0
 26 25  2  0  0  0  0
 26 28  1  0  0  0  0
 27 26  1  0  0  0  0
 28 30  2  0  0  0  0
 29 28  1  0  0  0  0
 30 32  1  0  0  0  0
 30 31  1  0  0  0  0
 32 33  1  0  0  0  0
 34  6  1  0  0  0  0
 34 32  2  0  0  0  0
 35 36  2  0  0  0  0
 35 44  1  0  0  0  0
 36 38  1  0  0  0  0
 37 36  1  0  0  0  0
 38 39  1  0  0  0  0
 38 40  2  0  0  0  0
 40 41  1  0  0  0  0
 42 43  1  0  0  0  0
 42 40  1  0  0  0  0
 44 42  2  0  0  0  0
 45 44  1  0  0  0  0
 45  4  1  0  0  0  0
 46 48  1  0  0  0  0
 46 47  1  0  0  0  0
 46  4  1  0  0  0  0
 49  7  1  0  0  0  0
 49 46  1  0  0  0  0
 50 49  1  0  0  0  0
 51 49  1  0  0  0  0
 52 53  1  0  0  0  0
 52 51  2  0  0  0  0
 54 52  1  0  0  0  0
 55 54  1  0  0  0  0
 56 54  2  0  0  0  0
 56 58  1  0  0  0  0
 57 56  1  0  0  0  0
 58 60  2  0  0  0  0
 59 58  1  0  0  0  0
 60 51  1  0  0  0  0
 60 61  1  0  0  0  0
M  END
$$$$
