CSD_code = LUNSIX | q = 1 | S = 0 | Stoichiometry = C18H27BrN5Zn(1+) | MND = 6
 OpenBabel04212202063D

 52 58  0  0  1  0  0  0  0  0999 V2000
    2.3502    1.2800   10.8989 C   0  0  0  0  0  0  0  0  0  0  0  0
    1.4612    1.6690   11.9011 C   0  0  0  0  0  0  0  0  0  0  0  0
    1.0282    0.9495   12.5751 H   0  0  0  0  0  0  0  0  0  0  0  0
    1.1252    3.0093   12.0049 C   0  0  0  0  0  0  0  0  0  0  0  0
    0.4358    3.3373   12.7674 H   0  0  0  0  0  0  0  0  0  0  0  0
    1.6637    3.9239   11.1137 C   0  0  0  0  0  0  0  0  0  0  0  0
    1.3860    4.9628   11.1700 H   0  0  0  0  0  0  0  0  0  0  0  0
    2.5538    3.4626   10.1444 C   0  0  0  0  0  0  0  0  0  0  0  0
    3.1643    4.3270    9.1110 C   0  0  2  0  0  3  0  0  0  0  0  0
    4.5619    4.3817    7.1718 C   0  0  0  0  0  0  0  0  0  0  0  0
    5.2801    5.1099    7.5680 H   0  0  0  0  0  0  0  0  0  0  0  0
    3.8506    4.9274    6.5431 H   0  0  0  0  0  0  0  0  0  0  0  0
    5.2822    3.3334    6.3070 C   0  0  0  0  0  0  0  0  0  0  0  0
    4.5781    2.9329    5.5746 H   0  0  0  0  0  0  0  0  0  0  0  0
    6.1123    3.8065    5.7669 H   0  0  0  0  0  0  0  0  0  0  0  0
    6.1527    1.0632    6.3487 C   0  0  0  0  0  0  0  0  0  0  0  0
    7.0316    1.3041    5.7358 H   0  0  0  0  0  0  0  0  0  0  0  0
    5.3407    0.7775    5.6780 H   0  0  0  0  0  0  0  0  0  0  0  0
    6.4708   -0.0787    7.3322 C   0  0  0  0  0  0  0  0  0  0  0  0
    5.9291   -0.9776    7.0417 H   0  0  0  0  0  0  0  0  0  0  0  0
    7.5450   -0.3113    7.3299 H   0  0  0  0  0  0  0  0  0  0  0  0
    6.8193    2.5598    8.0375 C   0  0  0  0  0  0  0  0  0  0  0  0
    6.6120    3.5099    8.5271 H   0  0  0  0  0  0  0  0  0  0  0  0
    7.7637    2.6602    7.4845 H   0  0  0  0  0  0  0  0  0  0  0  0
    6.9078    1.4413    9.0858 C   0  0  0  0  0  0  0  0  0  0  0  0
    7.9474    1.1031    9.2010 H   0  0  0  0  0  0  0  0  0  0  0  0
    6.5587    1.7998   10.0570 H   0  0  0  0  0  0  0  0  0  0  0  0
    6.1615   -0.7472    9.6555 C   0  0  0  0  0  0  0  0  0  0  0  0
    5.9178   -0.3088   10.6276 H   0  0  0  0  0  0  0  0  0  0  0  0
    7.1997   -1.1095    9.7039 H   0  0  0  0  0  0  0  0  0  0  0  0
    5.2471   -1.9504    9.4186 C   0  0  0  0  0  0  0  0  0  0  0  0
    5.2450   -2.5267   10.3455 H   0  0  0  0  0  0  0  0  0  0  0  0
    5.6503   -2.5952    8.6381 H   0  0  0  0  0  0  0  0  0  0  0  0
    3.8019   -1.5767    9.0415 C   0  0  0  0  0  0  0  0  0  0  0  0
    3.7295   -1.4652    7.9564 H   0  0  0  0  0  0  0  0  0  0  0  0
    3.1254   -2.3834    9.3379 H   0  0  0  0  0  0  0  0  0  0  0  0
    2.7089   -0.1300   10.6187 C   0  0  0  0  0  0  0  0  0  0  0  0
    2.8625    5.7885    9.1428 C   0  0  0  0  0  0  0  0  0  0  0  0
    3.4548    6.3366    8.4170 H   0  0  0  0  0  0  0  0  0  0  0  0
    3.0583    6.1954   10.1331 H   0  0  0  0  0  0  0  0  0  0  0  0
    1.8087    5.9465    8.9140 H   0  0  0  0  0  0  0  0  0  0  0  0
    2.1631   -1.1818   11.5275 C   0  0  0  0  0  0  0  0  0  0  0  0
    2.5924   -2.1566   11.3195 H   0  0  0  0  0  0  0  0  0  0  0  0
    1.0818   -1.2480   11.4101 H   0  0  0  0  0  0  0  0  0  0  0  0
    2.3791   -0.9257   12.5629 H   0  0  0  0  0  0  0  0  0  0  0  0
    2.8784    2.1765   10.0731 N   0  0  0  0  0  0  0  0  0  0  0  0
    3.8887    3.7264    8.2563 N   0  0  2  0  0  0  0  0  0  0  0  0
    5.7318    2.2214    7.1296 N   0  0  1  0  0  4  0  0  0  0  0  0
    6.0484    0.3297    8.6734 N   0  0  2  0  0  4  0  0  0  0  0  0
    3.4258   -0.3037    9.5845 N   0  0  0  0  0  0  0  0  0  0  0  0
    4.0035    1.4751    8.3757 Zn  0  0  0  0  0  0  0  0  0  0  0  0
    2.5740    0.9301    6.6357 Br  0  0  0  0  0  0  0  0  0  0  0  0
  1  2  1  0  0  0  0
  2  4  2  0  0  0  0
  2  3  1  0  0  0  0
  4  5  1  0  0  0  0
  6  7  1  0  0  0  0
  6  4  1  0  0  0  0
  8  6  2  0  0  0  0
  9 38  1  6  0  0  0
  9  8  1  0  0  0  0
 10 11  1  0  0  0  0
 12 10  1  0  0  0  0
 13 10  1  0  0  0  0
 14 13  1  0  0  0  0
 15 13  1  0  0  0  0
 16 48  1  0  0  0  0
 16 19  1  0  0  0  0
 17 16  1  0  0  0  0
 18 16  1  0  0  0  0
 20 19  1  0  0  0  0
 21 19  1  0  0  0  0
 22 23  1  0  0  0  0
 22 25  1  0  0  0  0
 24 22  1  0  0  0  0
 25 26  1  0  0  0  0
 25 27  1  0  0  0  0
 28 30  1  0  0  0  0
 28 29  1  0  0  0  0
 31 28  1  0  0  0  0
 31 32  1  0  0  0  0
 33 31  1  0  0  0  0
 34 36  1  0  0  0  0
 34 31  1  0  0  0  0
 34 50  1  0  0  0  0
 35 34  1  0  0  0  0
 37  1  2  0  0  0  0
 37 42  1  0  0  0  0
 38 40  1  0  0  0  0
 39 38  1  0  0  0  0
 41 38  1  0  0  0  0
 42 45  1  0  0  0  0
 43 42  1  0  0  0  0
 44 42  1  0  0  0  0
 46  8  1  0  0  0  0
 46  1  1  0  0  0  0
 47 10  1  6  0  0  0
 47 51  1  0  0  0  0
 47  9  1  0  0  0  0
 48 13  1  6  0  0  0
 48 22  1  0  0  0  0
 48 51  1  0  0  0  0
 49 19  1  6  0  0  0
 49 25  1  0  0  0  0
 49 28  1  0  0  0  0
 50 37  1  0  0  0  0
 51 49  1  0  0  0  0
 51 50  1  0  0  0  0
 51 46  1  0  0  0  0
 52 51  1  0  0  0  0
M  END
$$$$
