CSD_code = LUNSES | q = 0 | S = 0 | Stoichiometry = C28H22ClN7Ru | MND = 6
 OpenBabel04212202063D

 59 66  0  0  0  0  0  0  0  0999 V2000
   -0.2493   11.3771    3.8982 Ru  0  0  0  0  0  0  0  0  0  0  0  0
    0.3518    8.6660    4.2026 N   0  0  0  0  0  2  0  0  0  0  0  0
   -1.6555   12.2240    4.7965 N   0  0  0  0  0  0  0  0  0  0  0  0
   -1.5250   11.5206    2.3445 N   0  0  0  0  0  0  0  0  0  0  0  0
    1.2734   10.3798    2.9634 N   0  0  0  0  0  0  0  0  0  0  0  0
   -1.5492   12.5516    6.0499 N   0  0  0  0  0  2  0  0  0  0  0  0
   -0.5360    9.5847    4.4402 N   0  0  0  0  0  0  0  0  0  0  0  0
    0.6138   11.7196    5.7417 N   0  0  0  0  0  0  0  0  0  0  0  0
    0.5648   13.4846    3.2810 Cl  0  0  0  0  0  0  0  0  0  0  0  0
    1.8334   11.5014    6.2177 C   0  0  0  0  0  3  0  0  0  0  0  0
    2.5503   11.0834    5.5192 H   0  0  0  0  0  0  0  0  0  0  0  0
    2.1871   11.7775    7.5219 C   0  0  0  0  0  0  0  0  0  0  0  0
    3.1891   11.5781    7.8642 H   0  0  0  0  0  0  0  0  0  0  0  0
    1.2237   12.3152    8.3775 C   0  0  0  0  0  0  0  0  0  0  0  0
    1.4737   12.5377    9.4039 H   0  0  0  0  0  0  0  0  0  0  0  0
   -0.0376   12.5630    7.8980 C   0  0  0  0  0  0  0  0  0  0  0  0
   -0.8173   12.9883    8.5070 H   0  0  0  0  0  0  0  0  0  0  0  0
   -0.3355   12.2665    6.5552 C   0  0  0  0  0  0  0  0  0  0  0  0
   -2.7422   12.5668    4.0668 C   0  0  0  0  0  0  0  0  0  0  0  0
   -3.8760   13.2371    4.5479 C   0  0  0  0  0  0  0  0  0  0  0  0
   -3.9138   13.4879    5.5964 H   0  0  0  0  0  0  0  0  0  0  0  0
   -4.8907   13.5478    3.6804 C   0  0  0  0  0  0  0  0  0  0  0  0
   -5.7698   14.0644    4.0332 H   0  0  0  0  0  0  0  0  0  0  0  0
   -4.7957   13.1916    2.3262 C   0  0  0  0  0  0  0  0  0  0  0  0
   -5.6128   13.4343    1.6625 H   0  0  0  0  0  0  0  0  0  0  0  0
   -3.6981   12.5396    1.8280 C   0  0  0  0  0  0  0  0  0  0  0  0
   -3.6496   12.2530    0.7880 H   0  0  0  0  0  0  0  0  0  0  0  0
   -2.6257   12.2060    2.6849 C   0  0  0  0  0  0  0  0  0  0  0  0
   -1.1268   11.3433    1.0255 C   0  0  0  0  0  0  0  0  0  0  0  0
   -1.0650   12.4064    0.1213 C   0  0  0  0  0  0  0  0  0  0  0  0
   -1.3616   13.3924    0.4474 H   0  0  0  0  0  0  0  0  0  0  0  0
   -0.5766   12.2005   -1.1541 C   0  0  0  0  0  0  0  0  0  0  0  0
   -0.5189   13.0309   -1.8424 H   0  0  0  0  0  0  0  0  0  0  0  0
   -0.1532   10.9421   -1.5506 C   0  0  0  0  0  0  0  0  0  0  0  0
    0.2300   10.7887   -2.5483 H   0  0  0  0  0  0  0  0  0  0  0  0
   -0.2174    9.8814   -0.6604 C   0  0  0  0  0  0  0  0  0  0  0  0
    0.1105    8.8979   -0.9650 H   0  0  0  0  0  0  0  0  0  0  0  0
   -0.6992   10.0759    0.6182 C   0  0  0  0  0  0  0  0  0  0  0  0
   -0.7587    9.2508    1.3185 H   0  0  0  0  0  0  0  0  0  0  0  0
    2.1736   10.8169    2.0879 C   0  0  0  0  0  3  0  0  0  0  0  0
    2.0968   11.8616    1.8138 H   0  0  0  0  0  0  0  0  0  0  0  0
    3.1558   10.0008    1.5644 C   0  0  0  0  0  0  0  0  0  0  0  0
    3.8635   10.3994    0.8563 H   0  0  0  0  0  0  0  0  0  0  0  0
    3.2180    8.6658    1.9666 C   0  0  0  0  0  0  0  0  0  0  0  0
    3.9818    8.0126    1.5726 H   0  0  0  0  0  0  0  0  0  0  0  0
    2.2932    8.1944    2.8675 C   0  0  0  0  0  0  0  0  0  0  0  0
    2.2841    7.1744    3.2137 H   0  0  0  0  0  0  0  0  0  0  0  0
    1.3129    9.0757    3.3488 C   0  0  0  0  0  0  0  0  0  0  0  0
   -1.5193    9.2543    5.3753 C   0  0  0  0  0  0  0  0  0  0  0  0
   -1.1644    8.6941    6.6025 C   0  0  0  0  0  0  0  0  0  0  0  0
   -0.1252    8.4688    6.7925 H   0  0  0  0  0  0  0  0  0  0  0  0
   -2.1354    8.4714    7.5592 C   0  0  0  0  0  0  0  0  0  0  0  0
   -1.8564    8.0577    8.5168 H   0  0  0  0  0  0  0  0  0  0  0  0
   -3.4603    8.7803    7.2955 C   0  0  0  0  0  0  0  0  0  0  0  0
   -4.2144    8.6097    8.0487 H   0  0  0  0  0  0  0  0  0  0  0  0
   -3.8191    9.3003    6.0616 C   0  0  0  0  0  0  0  0  0  0  0  0
   -4.8531    9.5243    5.8469 H   0  0  0  0  0  0  0  0  0  0  0  0
   -2.8571    9.5370    5.0996 C   0  0  0  0  0  0  0  0  0  0  0  0
   -3.1294    9.9178    4.1251 H   0  0  0  0  0  0  0  0  0  0  0  0
  1  7  1  0  0  0  0
  1  3  1  0  0  0  0
  1  8  1  0  0  0  0
  2  7  1  0  0  0  0
  3  6  1  0  0  0  0
  4 28  1  0  0  0  0
  4  1  1  0  0  0  0
  5 48  1  0  0  0  0
  5  1  1  0  0  0  0
  6 18  1  0  0  0  0
  7 49  1  0  0  0  0
  8 10  1  0  0  0  0
  8 18  1  0  0  0  0
  9  1  1  0  0  0  0
 10 12  1  0  0  0  0
 11 10  1  0  0  0  0
 12 13  1  0  0  0  0
 12 14  2  0  0  0  0
 14 15  1  0  0  0  0
 16 14  1  0  0  0  0
 16 17  1  0  0  0  0
 18 16  2  0  0  0  0
 19 20  1  0  0  0  0
 19  3  1  0  0  0  0
 20 21  1  0  0  0  0
 22 23  1  0  0  0  0
 22 20  2  0  0  0  0
 24 22  1  0  0  0  0
 25 24  1  0  0  0  0
 26 24  2  0  0  0  0
 26 28  1  0  0  0  0
 27 26  1  0  0  0  0
 28 19  2  0  0  0  0
 29  4  1  0  0  0  0
 30 31  1  0  0  0  0
 30 29  2  0  0  0  0
 32 30  1  0  0  0  0
 33 32  1  0  0  0  0
 34 32  2  0  0  0  0
 34 36  1  0  0  0  0
 35 34  1  0  0  0  0
 36 38  2  0  0  0  0
 37 36  1  0  0  0  0
 38 29  1  0  0  0  0
 38 39  1  0  0  0  0
 40  5  1  0  0  0  0
 41 40  1  0  0  0  0
 42 44  2  0  0  0  0
 42 40  1  0  0  0  0
 43 42  1  0  0  0  0
 44 46  1  0  0  0  0
 45 44  1  0  0  0  0
 46 47  1  0  0  0  0
 46 48  2  0  0  0  0
 48  2  1  0  0  0  0
 49 50  1  0  0  0  0
 50 51  1  0  0  0  0
 50 52  2  0  0  0  0
 52 53  1  0  0  0  0
 54 52  1  0  0  0  0
 54 55  1  0  0  0  0
 56 54  2  0  0  0  0
 57 56  1  0  0  0  0
 58 49  2  0  0  0  0
 58 56  1  0  0  0  0
 59 58  1  0  0  0  0
M  END
$$$$
