CSD_code = LUNXEY | q = 0 | S = 0 | Stoichiometry = C13H10Cl3N3OZn | MND = 5
 OpenBabel04212202063D

 31 34  0  0  1  0  0  0  0  0999 V2000
    7.4932   -1.5002    7.9962 C   0  0  0  0  0  0  0  0  0  0  0  0
    8.4320   -2.4050    8.4883 C   0  0  0  0  0  0  0  0  0  0  0  0
    8.4936   -2.5991    9.5481 H   0  0  0  0  0  0  0  0  0  0  0  0
    9.2737   -3.0432    7.5926 C   0  0  0  0  0  0  0  0  0  0  0  0
   10.0116   -3.7482    7.9450 H   0  0  0  0  0  0  0  0  0  0  0  0
    9.1529   -2.7608    6.2407 C   0  0  0  0  0  0  0  0  0  0  0  0
    9.7887   -3.2377    5.5125 H   0  0  0  0  0  0  0  0  0  0  0  0
    8.1971   -1.8370    5.8367 C   0  0  0  0  0  0  0  0  0  0  0  0
    8.0598   -1.5721    4.7972 H   0  0  0  0  0  0  0  0  0  0  0  0
    6.5905   -0.7646    8.8619 C   0  0  0  0  0  0  0  0  0  0  0  0
    6.7534   -0.7773    9.9398 H   0  0  0  0  0  0  0  0  0  0  0  0
    4.1379    1.5955    8.0752 C   0  0  2  0  0  3  0  0  0  0  0  0
    3.3436    2.6436    8.7400 C   0  0  0  0  0  0  0  0  0  0  0  0
    3.0736    3.8008    8.0074 C   0  0  0  0  0  0  0  0  0  0  0  0
    3.4543    3.8734    7.0006 H   0  0  0  0  0  0  0  0  0  0  0  0
    2.3514    4.8343    8.5674 C   0  0  0  0  0  0  0  0  0  0  0  0
    2.1522    5.7328    8.0054 H   0  0  0  0  0  0  0  0  0  0  0  0
    1.8788    4.7078    9.8673 C   0  0  0  0  0  0  0  0  0  0  0  0
    2.1207    3.5535   10.6020 C   0  0  0  0  0  0  0  0  0  0  0  0
    1.7327    3.4653   11.6046 H   0  0  0  0  0  0  0  0  0  0  0  0
    2.8548    2.5271   10.0413 C   0  0  0  0  0  0  0  0  0  0  0  0
    3.0098    1.6244   10.6134 H   0  0  0  0  0  0  0  0  0  0  0  0
    7.3983   -1.2265    6.6903 N   0  0  0  0  0  0  0  0  0  0  0  0
    5.6862   -0.0796    8.2918 N   0  0  0  0  0  0  0  0  0  0  0  0
    4.8498    0.7492    8.9011 N   0  0  0  0  0  0  0  0  0  0  0  0
    4.9693    0.9704    9.8891 H   0  0  0  0  0  0  0  0  0  0  0  0
    4.1889    1.4649    6.8666 O   0  0  0  0  0  0  0  0  0  0  0  0
    5.9414    0.2093    4.0540 Cl  0  0  0  0  0  0  0  0  0  0  0  0
    7.2912    2.1977    7.2806 Cl  0  0  0  0  0  0  0  0  0  0  0  0
    0.9751    5.9879   10.5768 Cl  0  0  0  0  0  0  0  0  0  0  0  0
    6.1649    0.5644    6.1919 Zn  0  0  0  0  0  0  0  0  0  0  0  0
  1  2  1  0  0  0  0
  1 10  2  0  0  0  0
  2  3  1  0  0  0  0
  4  5  1  0  0  0  0
  4  2  2  0  0  0  0
  6  4  1  0  0  0  0
  7  6  1  0  0  0  0
  8  6  2  0  0  0  0
  8 23  1  0  0  0  0
  9  8  1  0  0  0  0
 10 11  1  0  0  0  0
 12 13  1  6  0  0  0
 12 25  1  0  0  0  0
 13 21  1  0  0  0  0
 14 16  1  0  0  0  0
 14 13  2  0  0  0  0
 15 14  1  0  0  0  0
 16 18  2  0  0  0  0
 17 16  1  0  0  0  0
 18 30  1  0  0  0  0
 18 19  1  0  0  0  0
 19 20  1  0  0  0  0
 21 19  2  0  0  0  0
 21 22  1  0  0  0  0
 23  1  1  0  0  0  0
 24 10  1  0  0  0  0
 24 25  1  0  0  0  0
 25 26  1  0  0  0  0
 27 12  1  0  0  0  0
 28 31  1  0  0  0  0
 31 23  1  0  0  0  0
 31 27  1  0  0  0  0
 31 29  1  0  0  0  0
 31 24  1  0  0  0  0
M  END
$$$$
