CSD_code = LUPBUU | q = 0 | S = 0 | Stoichiometry = C33H26Cl2NOPPd | MND = 4
 OpenBabel04212202063D

 65 71  0  0  1  0  0  0  0  0999 V2000
    3.4224   11.4832    8.3339 Pd  0  0  0  0  0  0  0  0  0  0  0  0
    5.0337   11.9844    9.8476 P   0  0  0  0  0  4  0  0  0  0  0  0
    1.5775   10.8645    7.1627 Cl  0  0  0  0  0  0  0  0  0  0  0  0
    2.4836   13.4021    8.9894 Cl  0  0  0  0  0  0  0  0  0  0  0  0
    5.7254    8.1220    7.6073 O   0  0  0  0  0  0  0  0  0  0  0  0
    4.3217    9.8398    7.6414 N   0  0  2  0  0  0  0  0  0  0  0  0
    4.8966    8.9199    8.2993 C   0  0  1  0  0  3  0  0  0  0  0  0
    5.6776    8.5559    6.2443 C   0  0  0  0  0  0  0  0  0  0  0  0
    5.2556    7.7463    5.6434 H   0  0  0  0  0  0  0  0  0  0  0  0
    6.6960    8.7563    5.9068 H   0  0  0  0  0  0  0  0  0  0  0  0
    4.7640    9.8023    6.2563 C   0  0  2  0  0  0  0  0  0  0  0  0
    3.8801    9.6667    5.6205 H   0  0  0  0  0  0  0  0  0  0  0  0
    4.6787    8.6797    9.7326 C   0  0  0  0  0  0  0  0  0  0  0  0
    3.5038    8.0720   10.1600 C   0  0  0  0  0  0  0  0  0  0  0  0
    2.7301    7.8444    9.4413 H   0  0  0  0  0  0  0  0  0  0  0  0
    3.3477    7.7569   11.4980 C   0  0  0  0  0  0  0  0  0  0  0  0
    2.4350    7.2916   11.8364 H   0  0  0  0  0  0  0  0  0  0  0  0
    4.3702    8.0177   12.3963 C   0  0  0  0  0  0  0  0  0  0  0  0
    4.2613    7.7386   13.4333 H   0  0  0  0  0  0  0  0  0  0  0  0
    5.5235    8.6546   11.9763 C   0  0  0  0  0  0  0  0  0  0  0  0
    6.3086    8.8857   12.6807 H   0  0  0  0  0  0  0  0  0  0  0  0
    5.6729    9.0309   10.6473 C   0  0  0  0  0  0  0  0  0  0  0  0
    6.8335    9.8197   10.1831 C   0  0  0  0  0  0  0  0  0  0  0  0
    8.0869    9.2288   10.1022 C   0  0  0  0  0  0  0  0  0  0  0  0
    8.1966    8.1947   10.3955 H   0  0  0  0  0  0  0  0  0  0  0  0
    9.1758    9.9414    9.6310 C   0  0  0  0  0  0  0  0  0  0  0  0
   10.1427    9.4658    9.5630 H   0  0  0  0  0  0  0  0  0  0  0  0
    9.0176   11.2613    9.2433 C   0  0  0  0  0  0  0  0  0  0  0  0
    9.8611   11.8222    8.8690 H   0  0  0  0  0  0  0  0  0  0  0  0
    7.7780   11.8670    9.3397 C   0  0  0  0  0  0  0  0  0  0  0  0
    7.6591   12.8999    9.0438 H   0  0  0  0  0  0  0  0  0  0  0  0
    6.6746   11.1657    9.8189 C   0  0  0  0  0  0  0  0  0  0  0  0
    5.3817   11.1557    5.9550 C   0  0  0  0  0  0  0  0  0  0  0  0
    4.5144   12.1930    5.5926 C   0  0  0  0  0  0  0  0  0  0  0  0
    3.4512   11.9987    5.4677 H   0  0  0  0  0  0  0  0  0  0  0  0
    5.0195   13.4557    5.3229 C   0  0  0  0  0  0  0  0  0  0  0  0
    4.3466   14.2480    5.0314 H   0  0  0  0  0  0  0  0  0  0  0  0
    6.3811   13.6992    5.4283 C   0  0  0  0  0  0  0  0  0  0  0  0
    6.7752   14.6804    5.2098 H   0  0  0  0  0  0  0  0  0  0  0  0
    7.2331   12.6855    5.8290 C   0  0  0  0  0  0  0  0  0  0  0  0
    8.2911   12.8749    5.9338 H   0  0  0  0  0  0  0  0  0  0  0  0
    6.7365   11.4207    6.1032 C   0  0  0  0  0  0  0  0  0  0  0  0
    7.4197   10.6514    6.4339 H   0  0  0  0  0  0  0  0  0  0  0  0
    4.3760   11.5482   11.4867 C   0  0  0  0  0  0  0  0  0  0  0  0
    3.0418   11.1590   11.5740 C   0  0  0  0  0  0  0  0  0  0  0  0
    2.4300   11.0999   10.6660 H   0  0  0  0  0  0  0  0  0  0  0  0
    2.4914   10.8545   12.8065 C   0  0  0  0  0  0  0  0  0  0  0  0
    1.4552   10.5590   12.8741 H   0  0  0  0  0  0  0  0  0  0  0  0
    3.2661   10.9337   13.9518 C   0  0  0  0  0  0  0  0  0  0  0  0
    2.8327   10.7052   14.9142 H   0  0  0  0  0  0  0  0  0  0  0  0
    4.6007   11.2976   13.8655 C   0  0  0  0  0  0  0  0  0  0  0  0
    5.2070   11.3454   14.7587 H   0  0  0  0  0  0  0  0  0  0  0  0
    5.1598   11.5978   12.6374 C   0  0  0  0  0  0  0  0  0  0  0  0
    6.2097   11.8507   12.5627 H   0  0  0  0  0  0  0  0  0  0  0  0
    5.4583   13.7497    9.9630 C   0  0  0  0  0  0  0  0  0  0  0  0
    5.6310   14.4574   11.1446 C   0  0  0  0  0  0  0  0  0  0  0  0
    5.5055   13.9719   12.1003 H   0  0  0  0  0  0  0  0  0  0  0  0
    5.9357   15.8077   11.0967 C   0  0  0  0  0  0  0  0  0  0  0  0
    6.0619   16.3576   12.0179 H   0  0  0  0  0  0  0  0  0  0  0  0
    6.0661   16.4560    9.8809 C   0  0  0  0  0  0  0  0  0  0  0  0
    6.2987   17.5103    9.8537 H   0  0  0  0  0  0  0  0  0  0  0  0
    5.8740   15.7564    8.6995 C   0  0  0  0  0  0  0  0  0  0  0  0
    5.9496   16.2634    7.7491 H   0  0  0  0  0  0  0  0  0  0  0  0
    5.5647   14.4118    8.7417 C   0  0  0  0  0  0  0  0  0  0  0  0
    5.3688   13.8569    7.8304 H   0  0  0  0  0  0  0  0  0  0  0  0
  1  4  1  0  0  0  0
  1  2  1  0  0  0  0
  2 55  1  0  0  0  0
  2 44  1  0  0  0  0
  3  1  1  0  0  0  0
  6  7  1  0  0  0  0
  6  1  1  1  0  0  0
  7  5  1  6  0  0  0
  7 13  1  0  0  0  0
  8 11  1  0  0  0  0
  8  5  1  0  0  0  0
  9  8  1  0  0  0  0
 10  8  1  0  0  0  0
 11 12  1  6  0  0  0
 11  6  1  0  0  0  0
 13 14  2  0  0  0  0
 13 22  1  0  0  0  0
 14 16  1  0  0  0  0
 15 14  1  0  0  0  0
 16 17  1  0  0  0  0
 16 18  2  0  0  0  0
 18 19  1  0  0  0  0
 20 18  1  0  0  0  0
 20 21  1  0  0  0  0
 22 20  2  0  0  0  0
 23 22  1  0  0  0  0
 24 23  1  0  0  0  0
 24 25  1  0  0  0  0
 26 24  2  0  0  0  0
 27 26  1  0  0  0  0
 28 30  2  0  0  0  0
 28 26  1  0  0  0  0
 29 28  1  0  0  0  0
 30 32  1  0  0  0  0
 31 30  1  0  0  0  0
 32  2  1  0  0  0  0
 32 23  2  0  0  0  0
 33 42  1  0  0  0  0
 33 11  1  0  0  0  0
 34 33  2  0  0  0  0
 35 34  1  0  0  0  0
 36 38  2  0  0  0  0
 36 34  1  0  0  0  0
 37 36  1  0  0  0  0
 38 40  1  0  0  0  0
 39 38  1  0  0  0  0
 40 41  1  0  0  0  0
 40 42  2  0  0  0  0
 42 43  1  0  0  0  0
 44 45  2  0  0  0  0
 44 53  1  0  0  0  0
 45 47  1  0  0  0  0
 46 45  1  0  0  0  0
 47 48  1  0  0  0  0
 47 49  2  0  0  0  0
 49 50  1  0  0  0  0
 51 49  1  0  0  0  0
 51 52  1  0  0  0  0
 53 51  2  0  0  0  0
 54 53  1  0  0  0  0
 55 56  1  0  0  0  0
 56 57  1  0  0  0  0
 58 56  2  0  0  0  0
 58 59  1  0  0  0  0
 60 58  1  0  0  0  0
 61 60  1  0  0  0  0
 62 64  1  0  0  0  0
 62 60  2  0  0  0  0
 63 62  1  0  0  0  0
 64 55  2  0  0  0  0
 65 64  1  0  0  0  0
M  END
$$$$
