CSD_code = LUSDUA | q = 0 | S = 0 | Stoichiometry = C18H22Cl2F4N2Pd | MND = 4
 OpenBabel04212202063D

 49 50  0  0  0  0  0  0  0  0999 V2000
    3.1697    4.3968    7.7324 C   0  0  0  0  0  0  0  0  0  0  0  0
    4.0102    4.7594    8.3233 H   0  0  0  0  0  0  0  0  0  0  0  0
    3.5383    4.1167    6.7383 H   0  0  0  0  0  0  0  0  0  0  0  0
    2.7499    3.5159    8.2157 H   0  0  0  0  0  0  0  0  0  0  0  0
    2.8035    6.5883    6.9495 C   0  0  0  0  0  0  0  0  0  0  0  0
    2.1074    7.4129    6.8151 H   0  0  0  0  0  0  0  0  0  0  0  0
    3.1829    6.2817    5.9674 H   0  0  0  0  0  0  0  0  0  0  0  0
    3.6367    6.9469    7.5542 H   0  0  0  0  0  0  0  0  0  0  0  0
    1.0399    4.9609    6.7813 C   0  0  0  0  0  0  0  0  0  0  0  0
    1.3929    4.8109    5.7513 H   0  0  0  0  0  0  0  0  0  0  0  0
    0.7095    4.0024    7.1953 H   0  0  0  0  0  0  0  0  0  0  0  0
   -0.1132    5.9323    6.7982 C   0  0  0  0  0  0  0  0  0  0  0  0
   -0.2608    6.9161    5.8261 C   0  0  0  0  0  0  0  0  0  0  0  0
   -1.2728    7.8602    5.8636 C   0  0  0  0  0  0  0  0  0  0  0  0
   -1.3292    8.6076    5.0888 H   0  0  0  0  0  0  0  0  0  0  0  0
   -2.1870    7.8289    6.8987 C   0  0  0  0  0  0  0  0  0  0  0  0
   -2.9841    8.5511    6.9660 H   0  0  0  0  0  0  0  0  0  0  0  0
   -2.0707    6.8333    7.8528 C   0  0  0  0  0  0  0  0  0  0  0  0
   -1.0565    5.8898    7.8276 C   0  0  0  0  0  0  0  0  0  0  0  0
   -1.0502    5.0798    8.5583 H   0  0  0  0  0  0  0  0  0  0  0  0
    1.5036    8.1805    9.1738 Cl  0  0  0  0  0  0  0  0  0  0  0  0
    0.6040    6.9481    4.7891 F   0  0  0  0  0  0  0  0  0  0  0  0
   -2.9903    6.7647    8.8389 F   0  0  0  0  0  0  0  0  0  0  0  0
    2.1580    5.4538    7.6184 N   0  0  0  0  0  4  0  0  0  0  0  0
    1.2525    5.9069    9.5194 Pd  0  0  0  0  0  0  0  0  0  0  0  0
   -0.6682    7.4165   11.3051 C   0  0  0  0  0  0  0  0  0  0  0  0
   -1.5086    7.0540   10.7140 H   0  0  0  0  0  0  0  0  0  0  0  0
   -1.0369    7.6965   12.2993 H   0  0  0  0  0  0  0  0  0  0  0  0
   -0.2484    8.2975   10.8220 H   0  0  0  0  0  0  0  0  0  0  0  0
   -0.3024    5.2251   12.0878 C   0  0  0  0  0  0  0  0  0  0  0  0
    0.3933    4.4001   12.2221 H   0  0  0  0  0  0  0  0  0  0  0  0
   -0.6819    5.5315   13.0700 H   0  0  0  0  0  0  0  0  0  0  0  0
   -1.1356    4.8669   11.4828 H   0  0  0  0  0  0  0  0  0  0  0  0
    1.4615    6.8525   12.2562 C   0  0  0  0  0  0  0  0  0  0  0  0
    1.1089    7.0025   13.2864 H   0  0  0  0  0  0  0  0  0  0  0  0
    1.7917    7.8110   11.8421 H   0  0  0  0  0  0  0  0  0  0  0  0
    2.6145    5.8809   12.2385 C   0  0  0  0  0  0  0  0  0  0  0  0
    2.7623    4.8969   13.2103 C   0  0  0  0  0  0  0  0  0  0  0  0
    3.7742    3.9528   13.1722 C   0  0  0  0  0  0  0  0  0  0  0  0
    3.8307    3.2052   13.9467 H   0  0  0  0  0  0  0  0  0  0  0  0
    4.6885    3.9848   12.1372 C   0  0  0  0  0  0  0  0  0  0  0  0
    5.4858    3.2629   12.0696 H   0  0  0  0  0  0  0  0  0  0  0  0
    4.5718    4.9806   11.1833 C   0  0  0  0  0  0  0  0  0  0  0  0
    3.5571    5.9235   11.2086 C   0  0  0  0  0  0  0  0  0  0  0  0
    3.5501    6.7334   10.4776 H   0  0  0  0  0  0  0  0  0  0  0  0
    0.9985    3.6332    9.8638 Cl  0  0  0  0  0  0  0  0  0  0  0  0
    1.8976    4.8647   14.2474 F   0  0  0  0  0  0  0  0  0  0  0  0
    5.4918    5.0501   10.1977 F   0  0  0  0  0  0  0  0  0  0  0  0
    0.3435    6.3595   11.4193 N   0  0  0  0  0  4  0  0  0  0  0  0
  1  4  1  0  0  0  0
  1  2  1  0  0  0  0
  3  1  1  0  0  0  0
  5  8  1  0  0  0  0
  5 24  1  0  0  0  0
  6  5  1  0  0  0  0
  7  5  1  0  0  0  0
  9 12  1  0  0  0  0
  9 11  1  0  0  0  0
  9 24  1  0  0  0  0
 10  9  1  0  0  0  0
 12 19  1  0  0  0  0
 13 14  1  0  0  0  0
 13 12  2  0  0  0  0
 14 16  2  0  0  0  0
 15 14  1  0  0  0  0
 16 17  1  0  0  0  0
 16 18  1  0  0  0  0
 18 23  1  0  0  0  0
 19 18  2  0  0  0  0
 19 20  1  0  0  0  0
 21 25  1  0  0  0  0
 22 13  1  0  0  0  0
 24  1  1  0  0  0  0
 24 25  1  0  0  0  0
 25 46  1  0  0  0  0
 25 49  1  0  0  0  0
 26 49  1  0  0  0  0
 26 28  1  0  0  0  0
 27 26  1  0  0  0  0
 29 26  1  0  0  0  0
 30 31  1  0  0  0  0
 30 32  1  0  0  0  0
 33 30  1  0  0  0  0
 34 35  1  0  0  0  0
 36 34  1  0  0  0  0
 37 34  1  0  0  0  0
 37 38  1  0  0  0  0
 38 47  1  0  0  0  0
 39 38  2  0  0  0  0
 39 40  1  0  0  0  0
 41 39  1  0  0  0  0
 42 41  1  0  0  0  0
 43 44  1  0  0  0  0
 43 41  2  0  0  0  0
 44 37  2  0  0  0  0
 45 44  1  0  0  0  0
 48 43  1  0  0  0  0
 49 30  1  0  0  0  0
 49 34  1  0  0  0  0
M  END
$$$$
