CSD_code = LUSNIX | q = 0 | S = 0 | Stoichiometry = C12H24Br3O3Sc | MND = 6
 OpenBabel04212202063D

 43 42  0  0  0  0  0  0  0  0999 V2000
    6.0951    5.8579    1.7603 Br  0  0  0  0  0  0  0  0  0  0  0  0
    4.3908    5.4713    3.6374 Sc  0  0  0  0  0  0  0  0  0  0  0  0
    4.3918    2.9346    3.6332 Br  0  0  0  0  0  0  0  0  0  0  0  0
    6.0756    5.4391    5.2153 O   0  0  0  0  0  0  0  0  0  0  0  0
    4.3915    7.8430    3.6367 O   0  0  0  0  0  0  0  0  0  0  0  0
    5.8853    4.8460    6.5257 C   0  0  0  0  0  0  0  0  0  0  0  0
    5.1506    4.0365    6.4520 H   0  0  0  0  0  0  0  0  0  0  0  0
    5.4935    5.6251    7.1922 H   0  0  0  0  0  0  0  0  0  0  0  0
    8.1944    5.3123    6.2663 C   0  0  0  0  0  0  0  0  0  0  0  0
    8.2353    6.2694    6.7891 H   0  0  0  0  0  0  0  0  0  0  0  0
    9.2029    4.9239    6.1540 H   0  0  0  0  0  0  0  0  0  0  0  0
    7.4906    5.4648    4.9259 C   0  0  0  0  0  0  0  0  0  0  0  0
    7.7183    6.4040    4.4132 H   0  0  0  0  0  0  0  0  0  0  0  0
    7.7344    4.6252    4.2604 H   0  0  0  0  0  0  0  0  0  0  0  0
    7.2527    4.3498    6.9837 C   0  0  0  0  0  0  0  0  0  0  0  0
    7.3509    4.3768    8.0656 H   0  0  0  0  0  0  0  0  0  0  0  0
    7.4196    3.3301    6.6355 H   0  0  0  0  0  0  0  0  0  0  0  0
    4.6356    8.6842    4.7814 C   0  0  0  0  0  0  0  0  0  0  0  0
    3.7575    8.6419    5.4383 H   0  0  0  0  0  0  0  0  0  0  0  0
    5.5049    8.2932    5.3204 H   0  0  0  0  0  0  0  0  0  0  0  0
    4.8498   10.0929    4.2417 C   0  0  0  0  0  0  0  0  0  0  0  0
    5.8866   10.2313    3.9328 H   0  0  0  0  0  0  0  0  0  0  0  0
    4.5902   10.8529    4.9739 H   0  0  0  0  0  0  0  0  0  0  0  0
    2.6866    5.8550    5.5149 Br  0  0  0  0  0  0  0  0  0  0  0  0
    2.7043    5.4443    2.0590 O   0  0  0  0  0  0  0  0  0  0  0  0
    2.8998    4.8515    0.7491 C   0  0  0  0  0  0  0  0  0  0  0  0
    3.6352    4.0428    0.8252 H   0  0  0  0  0  0  0  0  0  0  0  0
    3.2930    5.6311    0.0843 H   0  0  0  0  0  0  0  0  0  0  0  0
    0.5895    5.3139    1.0010 C   0  0  0  0  0  0  0  0  0  0  0  0
    0.5490    6.2711    0.4786 H   0  0  0  0  0  0  0  0  0  0  0  0
   -0.4187    4.9239    1.1095 H   0  0  0  0  0  0  0  0  0  0  0  0
    1.2885    5.4666    2.3440 C   0  0  0  0  0  0  0  0  0  0  0  0
    1.0571    6.4045    2.8573 H   0  0  0  0  0  0  0  0  0  0  0  0
    1.0443    4.6255    3.0075 H   0  0  0  0  0  0  0  0  0  0  0  0
    1.5350    4.3531    0.2863 C   0  0  0  0  0  0  0  0  0  0  0  0
    1.4405    4.3801   -0.7959 H   0  0  0  0  0  0  0  0  0  0  0  0
    1.3687    3.3331    0.6338 H   0  0  0  0  0  0  0  0  0  0  0  0
    4.1459    8.6798    2.4889 C   0  0  0  0  0  0  0  0  0  0  0  0
    5.0235    8.6353    1.8316 H   0  0  0  0  0  0  0  0  0  0  0  0
    3.2763    8.2861    1.9523 H   0  0  0  0  0  0  0  0  0  0  0  0
    3.9318   10.0906    3.0231 C   0  0  0  0  0  0  0  0  0  0  0  0
    2.8949   10.2305    3.3313 H   0  0  0  0  0  0  0  0  0  0  0  0
    4.1916   10.8474    2.2878 H   0  0  0  0  0  0  0  0  0  0  0  0
  1  2  1  0  0  0  0
  2 24  1  0  0  0  0
  3  2  1  0  0  0  0
  4  6  1  0  0  0  0
  5 18  1  0  0  0  0
  6 15  1  0  0  0  0
  6  8  1  0  0  0  0
  7  6  1  0  0  0  0
  9 10  1  0  0  0  0
  9 15  1  0  0  0  0
 11  9  1  0  0  0  0
 12  4  1  0  0  0  0
 12  9  1  0  0  0  0
 13 12  1  0  0  0  0
 14 12  1  0  0  0  0
 15 16  1  0  0  0  0
 17 15  1  0  0  0  0
 18 20  1  0  0  0  0
 18 19  1  0  0  0  0
 21 18  1  0  0  0  0
 21 23  1  0  0  0  0
 22 21  1  0  0  0  0
 25 32  1  0  0  0  0
 26 27  1  0  0  0  0
 26 25  1  0  0  0  0
 28 26  1  0  0  0  0
 29 31  1  0  0  0  0
 29 32  1  0  0  0  0
 30 29  1  0  0  0  0
 32 33  1  0  0  0  0
 32 34  1  0  0  0  0
 35 37  1  0  0  0  0
 35 26  1  0  0  0  0
 35 29  1  0  0  0  0
 36 35  1  0  0  0  0
 38 41  1  0  0  0  0
 38  5  1  0  0  0  0
 39 38  1  0  0  0  0
 40 38  1  0  0  0  0
 41 42  1  0  0  0  0
 41 21  1  0  0  0  0
 43 41  1  0  0  0  0
M  END
$$$$
