CSD_code = LUSVIG | q = 0 | S = 0 | Stoichiometry = C11H19ClCrN2 | MND = 6
 OpenBabel04212202063D

 34 34  0  0  1  0  0  0  0  0999 V2000
   -0.7654   10.6899   11.3576 C   0  0  0  0  0  0  0  0  0  0  0  0
   -0.4458   11.2551   12.2190 H   0  0  0  0  0  0  0  0  0  0  0  0
   -0.2888   11.1529    8.8661 Cr  0  0  1  0  0  0  0  0  0  0  0  0
    1.5285   10.2254    8.1998 Cl  0  0  0  0  0  0  0  0  0  0  0  0
   -2.0481    9.9445    9.6046 C   0  0  2  0  0  0  0  0  0  0  0  0
   -2.9063    9.7929    8.9653 H   0  0  0  0  0  0  0  0  0  0  0  0
   -1.8664   11.0199   10.5153 C   0  0  0  0  0  3  0  0  0  0  0  0
   -2.6130   11.7721   10.7354 H   0  0  0  0  0  0  0  0  0  0  0  0
    0.3238   12.8197    9.1628 N   0  0  0  0  0  0  0  0  0  0  0  0
    1.2842   12.9823   10.2336 C   0  0  0  0  0  0  0  0  0  0  0  0
    1.3964   12.0039   10.7173 H   0  0  0  0  0  0  0  0  0  0  0  0
    0.0237   14.0227    8.4109 C   0  0  0  0  0  0  0  0  0  0  0  0
    0.5721   14.8721    8.8363 H   0  0  0  0  0  0  0  0  0  0  0  0
   -0.9700    9.0618    9.7807 C   0  0  0  0  0  3  0  0  0  0  0  0
   -0.8540    8.1016    9.2960 H   0  0  0  0  0  0  0  0  0  0  0  0
   -1.4764   14.3206    8.4930 C   0  0  0  0  0  0  0  0  0  0  0  0
   -2.0187   13.4791    8.0676 H   0  0  0  0  0  0  0  0  0  0  0  0
   -1.7071   15.2210    7.9311 H   0  0  0  0  0  0  0  0  0  0  0  0
   -1.7835   14.4620    9.5271 H   0  0  0  0  0  0  0  0  0  0  0  0
    0.8307   13.9838   11.3050 C   0  0  0  0  0  0  0  0  0  0  0  0
    0.8497   15.0058   10.9351 H   0  0  0  0  0  0  0  0  0  0  0  0
    1.4969   13.9221   12.1622 H   0  0  0  0  0  0  0  0  0  0  0  0
   -0.1819   13.7540   11.6317 H   0  0  0  0  0  0  0  0  0  0  0  0
    0.4430   13.8512    6.9489 C   0  0  0  0  0  0  0  0  0  0  0  0
    1.5089   13.6473    6.8764 H   0  0  0  0  0  0  0  0  0  0  0  0
    0.2070   14.7484    6.3844 H   0  0  0  0  0  0  0  0  0  0  0  0
   -0.1036   13.0048    6.5323 H   0  0  0  0  0  0  0  0  0  0  0  0
    2.6681   13.3458    9.6754 C   0  0  0  0  0  0  0  0  0  0  0  0
    2.9501   12.6229    8.9115 H   0  0  0  0  0  0  0  0  0  0  0  0
    3.4029   13.3136   10.4760 H   0  0  0  0  0  0  0  0  0  0  0  0
    2.6733   14.3419    9.2398 H   0  0  0  0  0  0  0  0  0  0  0  0
   -0.2064    9.5130   10.8944 C   0  0  0  0  0  0  0  0  0  0  0  0
    0.6522    9.0047   11.3036 H   0  0  0  0  0  0  0  0  0  0  0  0
   -1.0828   11.4205    7.4844 N   0  0  0  0  0  1  0  0  0  0  0  0
  1  2  1  0  0  0  0
  3 34  1  6  0  0  0
  3  9  1  0  0  0  0
  3  5  1  0  0  0  0
  4  3  1  0  0  0  0
  5  6  1  6  0  0  0
  5 14  1  0  0  0  0
  5  7  1  0  0  0  0
  7  8  1  0  0  0  0
  7  1  1  0  0  0  0
  9 10  1  0  0  0  0
 10 11  1  0  0  0  0
 10 20  1  0  0  0  0
 12 16  1  0  0  0  0
 12 13  1  0  0  0  0
 12  9  1  0  0  0  0
 14 32  1  0  0  0  0
 15 14  1  0  0  0  0
 16 19  1  0  0  0  0
 17 16  1  0  0  0  0
 18 16  1  0  0  0  0
 20 23  1  0  0  0  0
 20 22  1  0  0  0  0
 21 20  1  0  0  0  0
 24 12  1  0  0  0  0
 25 24  1  0  0  0  0
 26 24  1  0  0  0  0
 27 24  1  0  0  0  0
 28 10  1  0  0  0  0
 28 30  1  0  0  0  0
 29 28  1  0  0  0  0
 31 28  1  0  0  0  0
 32 33  1  0  0  0  0
 32  1  2  0  0  0  0
M  END
$$$$
