CSD_code = LUTJIT | q = 0 | S = 0 | Stoichiometry = C28H26Cl2N2P2Pd | MND = 4
 OpenBabel04212202063D

 61 65  0  0  0  0  0  0  0  0999 V2000
    4.8749    4.0229   17.9588 Pd  0  0  0  0  0  0  0  0  0  0  0  0
    6.3775    2.6693   17.0340 P   0  0  0  0  0  4  0  0  0  0  0  0
    7.0552    5.7143   18.0120 P   0  0  0  0  0  4  0  0  0  0  0  0
    4.0687    2.2133   19.0132 Cl  0  0  0  0  0  0  0  0  0  0  0  0
    2.9320    5.2062   18.3111 Cl  0  0  0  0  0  0  0  0  0  0  0  0
    7.8087    3.6015   16.3248 C   0  0  0  0  0  0  0  0  0  0  0  0
    8.5896    2.9236   15.9682 H   0  0  0  0  0  0  0  0  0  0  0  0
    7.4195    4.1771   15.4785 H   0  0  0  0  0  0  0  0  0  0  0  0
    8.3523    4.5306   17.3981 C   0  0  0  0  0  0  0  0  0  0  0  0
    9.1844    5.1298   17.0125 H   0  0  0  0  0  0  0  0  0  0  0  0
    8.7194    3.9385   18.2418 H   0  0  0  0  0  0  0  0  0  0  0  0
    5.0641    6.8221   16.5159 C   0  0  0  0  0  0  0  0  0  0  0  0
    5.4382    7.7831   16.8966 H   0  0  0  0  0  0  0  0  0  0  0  0
    3.9963    6.7302   16.7725 H   0  0  0  0  0  0  0  0  0  0  0  0
    5.2275    6.7930   15.0819 C   0  0  0  0  0  0  0  0  0  0  0  0
    7.8490    7.3452   17.9355 C   0  0  0  0  0  0  0  0  0  0  0  0
    8.2701    7.7898   16.6852 C   0  0  0  0  0  0  0  0  0  0  0  0
    8.1644    7.1402   15.8252 H   0  0  0  0  0  0  0  0  0  0  0  0
    8.8030    9.0574   16.5482 C   0  0  0  0  0  0  0  0  0  0  0  0
    9.1282    9.4032   15.5786 H   0  0  0  0  0  0  0  0  0  0  0  0
    8.9101    9.8844   17.6563 C   0  0  0  0  0  0  0  0  0  0  0  0
    9.3252   10.8752   17.5490 H   0  0  0  0  0  0  0  0  0  0  0  0
    8.4775    9.4480   18.8979 C   0  0  0  0  0  0  0  0  0  0  0  0
    8.5536   10.0980   19.7566 H   0  0  0  0  0  0  0  0  0  0  0  0
    7.9394    8.1806   19.0408 C   0  0  0  0  0  0  0  0  0  0  0  0
    7.5926    7.8359   20.0052 H   0  0  0  0  0  0  0  0  0  0  0  0
    6.8586    5.3657   19.8086 C   0  0  0  0  0  0  0  0  0  0  0  0
    7.9621    4.9951   20.5741 C   0  0  0  0  0  0  0  0  0  0  0  0
    8.9506    4.9869   20.1341 H   0  0  0  0  0  0  0  0  0  0  0  0
    7.7955    4.6504   21.9038 C   0  0  0  0  0  0  0  0  0  0  0  0
    8.6527    4.3543   22.4907 H   0  0  0  0  0  0  0  0  0  0  0  0
    6.5337    4.6769   22.4767 C   0  0  0  0  0  0  0  0  0  0  0  0
    6.4052    4.3829   23.5075 H   0  0  0  0  0  0  0  0  0  0  0  0
    5.4422    5.1020   21.7358 C   0  0  0  0  0  0  0  0  0  0  0  0
    4.4640    5.1560   22.1883 H   0  0  0  0  0  0  0  0  0  0  0  0
    5.5981    5.4576   20.4048 C   0  0  0  0  0  0  0  0  0  0  0  0
    4.7475    5.8494   19.8474 H   0  0  0  0  0  0  0  0  0  0  0  0
    7.1455    1.3287   17.9860 C   0  0  0  0  0  0  0  0  0  0  0  0
    7.3496    1.5952   19.3382 C   0  0  0  0  0  0  0  0  0  0  0  0
    6.9981    2.5356   19.7508 H   0  0  0  0  0  0  0  0  0  0  0  0
    7.9440    0.6498   20.1512 C   0  0  0  0  0  0  0  0  0  0  0  0
    8.0962    0.8590   21.1997 H   0  0  0  0  0  0  0  0  0  0  0  0
    8.3236   -0.5734   19.6214 C   0  0  0  0  0  0  0  0  0  0  0  0
    8.7804   -1.3181   20.2561 H   0  0  0  0  0  0  0  0  0  0  0  0
    8.0952   -0.8519   18.2840 C   0  0  0  0  0  0  0  0  0  0  0  0
    8.3696   -1.8150   17.8791 H   0  0  0  0  0  0  0  0  0  0  0  0
    7.5059    0.0935   17.4626 C   0  0  0  0  0  0  0  0  0  0  0  0
    7.3068   -0.1395   16.4276 H   0  0  0  0  0  0  0  0  0  0  0  0
    5.6059    2.0099   15.5267 C   0  0  0  0  0  0  0  0  0  0  0  0
    4.2463    2.2677   15.3485 C   0  0  0  0  0  0  0  0  0  0  0  0
    3.6820    2.8008   16.1237 H   0  0  0  0  0  0  0  0  0  0  0  0
    3.6073    1.8513   14.1939 C   0  0  0  0  0  0  0  0  0  0  0  0
    2.5552    2.0522   14.0597 H   0  0  0  0  0  0  0  0  0  0  0  0
    4.3180    1.1834   13.2104 C   0  0  0  0  0  0  0  0  0  0  0  0
    3.8190    0.8563   12.3104 H   0  0  0  0  0  0  0  0  0  0  0  0
    5.6738    0.9468   13.3722 C   0  0  0  0  0  0  0  0  0  0  0  0
    6.2306    0.4415   12.5964 H   0  0  0  0  0  0  0  0  0  0  0  0
    6.3215    1.3641   14.5205 C   0  0  0  0  0  0  0  0  0  0  0  0
    7.3852    1.2006   14.6249 H   0  0  0  0  0  0  0  0  0  0  0  0
    5.7931    5.6737   17.0442 N   0  0  0  0  0  0  0  0  0  0  0  0
    5.4259    6.7099   13.9582 N   0  0  0  0  0  0  0  0  0  0  0  0
  1  5  1  0  0  0  0
  1  4  1  0  0  0  0
  2  1  1  0  0  0  0
  2 38  1  0  0  0  0
  3 27  1  0  0  0  0
  6  2  1  0  0  0  0
  6  9  1  0  0  0  0
  7  6  1  0  0  0  0
  8  6  1  0  0  0  0
  9  3  1  0  0  0  0
  9 11  1  0  0  0  0
 10  9  1  0  0  0  0
 12 14  1  0  0  0  0
 12 13  1  0  0  0  0
 12 60  1  0  0  0  0
 15 12  1  0  0  0  0
 16  3  1  0  0  0  0
 16 25  1  0  0  0  0
 17 16  2  0  0  0  0
 18 17  1  0  0  0  0
 19 17  1  0  0  0  0
 19 21  2  0  0  0  0
 20 19  1  0  0  0  0
 21 23  1  0  0  0  0
 22 21  1  0  0  0  0
 23 25  2  0  0  0  0
 23 24  1  0  0  0  0
 25 26  1  0  0  0  0
 27 36  2  0  0  0  0
 27 28  1  0  0  0  0
 28 30  2  0  0  0  0
 29 28  1  0  0  0  0
 30 32  1  0  0  0  0
 30 31  1  0  0  0  0
 32 33  1  0  0  0  0
 34 35  1  0  0  0  0
 34 32  2  0  0  0  0
 36 34  1  0  0  0  0
 37 36  1  0  0  0  0
 38 39  1  0  0  0  0
 39 40  1  0  0  0  0
 39 41  2  0  0  0  0
 41 42  1  0  0  0  0
 43 41  1  0  0  0  0
 43 44  1  0  0  0  0
 45 43  2  0  0  0  0
 46 45  1  0  0  0  0
 47 38  2  0  0  0  0
 47 45  1  0  0  0  0
 48 47  1  0  0  0  0
 49  2  1  0  0  0  0
 50 49  1  0  0  0  0
 50 51  1  0  0  0  0
 52 50  2  0  0  0  0
 53 52  1  0  0  0  0
 54 56  2  0  0  0  0
 54 52  1  0  0  0  0
 55 54  1  0  0  0  0
 56 58  1  0  0  0  0
 57 56  1  0  0  0  0
 58 59  1  0  0  0  0
 58 49  2  0  0  0  0
 60  1  1  0  0  0  0
 60  3  1  0  0  0  0
 61 15  3  0  0  0  0
M  END
$$$$
