CSD_code = LUTVAX | q = 0 | S = 0 | Stoichiometry = C18H38Cl3N3Si2Zr | MND = 8
 OpenBabel04212202063D

 65 66  0  0  1  0  0  0  0  0999 V2000
    3.2335    4.2154   13.7105 Zr  0  0  0  0  0  0  0  0  0  0  0  0
    3.8573    2.7718   15.4442 Cl  0  0  0  0  0  0  0  0  0  0  0  0
    4.1083    6.1401   14.7461 Cl  0  0  0  0  0  0  0  0  0  0  0  0
    1.1565    4.6650   14.7122 Cl  0  0  0  0  0  0  0  0  0  0  0  0
    5.0105    3.9093   12.6534 N   0  0  0  0  0  0  0  0  0  0  0  0
    2.4989    4.5230   11.7841 N   0  0  0  0  0  0  0  0  0  0  0  0
    5.3549    5.0867   12.1376 C   0  0  0  0  0  0  0  0  0  0  0  0
    4.3700    5.9672   11.6001 C   0  0  0  0  0  0  0  0  0  0  0  0
    4.7212    6.9483   11.3402 H   0  0  0  0  0  0  0  0  0  0  0  0
    3.0093    5.7209   11.4727 C   0  0  2  0  0  3  0  0  0  0  0  0
    5.9336    2.4351   12.5834 Si  0  0  0  0  0  0  0  0  0  0  0  0
    4.5909    1.0994   12.3184 C   0  0  0  0  0  0  0  0  0  0  0  0
    3.8500    1.4129   11.5858 H   0  0  0  0  0  0  0  0  0  0  0  0
    4.0906    0.8716   13.2571 H   0  0  0  0  0  0  0  0  0  0  0  0
    5.0362    0.1758   11.9627 H   0  0  0  0  0  0  0  0  0  0  0  0
    6.9739    1.9468   14.1159 C   0  0  0  0  0  0  0  0  0  0  0  0
    6.4980    2.2726   15.0368 H   0  0  0  0  0  0  0  0  0  0  0  0
    7.9833    2.3458   14.0928 H   0  0  0  0  0  0  0  0  0  0  0  0
    7.0566    0.8657   14.1657 H   0  0  0  0  0  0  0  0  0  0  0  0
    7.0657    2.4738   11.0402 C   0  0  0  0  0  0  0  0  0  0  0  0
    6.5343    2.8556   10.1744 H   0  0  0  0  0  0  0  0  0  0  0  0
    7.4154    1.4758   10.8015 H   0  0  0  0  0  0  0  0  0  0  0  0
    7.9392    3.0977   11.1905 H   0  0  0  0  0  0  0  0  0  0  0  0
    6.6626    5.4731   12.1274 N   0  0  0  0  0  0  0  0  0  0  0  0
    7.4907    5.2629   13.2997 C   0  0  0  0  0  0  0  0  0  0  0  0
    8.4724    4.8922   12.9847 H   0  0  0  0  0  0  0  0  0  0  0  0
    7.0127    4.5266   13.9427 H   0  0  0  0  0  0  0  0  0  0  0  0
    7.6429    6.5710   14.0841 C   0  0  0  0  0  0  0  0  0  0  0  0
    6.6590    6.8675   14.4536 H   0  0  0  0  0  0  0  0  0  0  0  0
    8.2918    6.3926   14.9422 H   0  0  0  0  0  0  0  0  0  0  0  0
    8.2158    7.6741   13.2012 C   0  0  0  0  0  0  0  0  0  0  0  0
    9.2227    7.4020   12.8733 H   0  0  0  0  0  0  0  0  0  0  0  0
    8.2850    8.6063   13.7632 H   0  0  0  0  0  0  0  0  0  0  0  0
    7.3132    7.8559   11.9855 C   0  0  0  0  0  0  0  0  0  0  0  0
    6.3323    8.1966   12.3200 H   0  0  0  0  0  0  0  0  0  0  0  0
    7.7252    8.6001   11.3020 H   0  0  0  0  0  0  0  0  0  0  0  0
    7.1790    6.5137   11.2633 C   0  0  0  0  0  0  0  0  0  0  0  0
    6.5532    6.5926   10.3742 H   0  0  0  0  0  0  0  0  0  0  0  0
    8.1765    6.1883   10.9417 H   0  0  0  0  0  0  0  0  0  0  0  0
    2.0844    6.8880   11.1023 C   0  0  0  0  0  0  0  0  0  0  0  0
    2.8129    8.2158   10.8624 C   0  0  0  0  0  0  0  0  0  0  0  0
    2.0741    8.9762   10.6158 H   0  0  0  0  0  0  0  0  0  0  0  0
    3.5090    8.1506   10.0290 H   0  0  0  0  0  0  0  0  0  0  0  0
    3.3392    8.5431   11.7557 H   0  0  0  0  0  0  0  0  0  0  0  0
    1.2790    6.5695    9.8405 C   0  0  0  0  0  0  0  0  0  0  0  0
    0.5223    7.3342    9.6801 H   0  0  0  0  0  0  0  0  0  0  0  0
    0.7878    5.6074    9.9179 H   0  0  0  0  0  0  0  0  0  0  0  0
    1.9388    6.5478    8.9755 H   0  0  0  0  0  0  0  0  0  0  0  0
    1.1749    7.0794   12.3273 C   0  0  0  0  0  0  0  0  0  0  0  0
    0.5492    7.9601   12.1959 H   0  0  0  0  0  0  0  0  0  0  0  0
    1.7881    7.2191   13.2236 H   0  0  0  0  0  0  0  0  0  0  0  0
    0.5336    6.2182   12.4852 H   0  0  0  0  0  0  0  0  0  0  0  0
    1.1257    3.5219   11.4779 Si  0  0  0  0  0  0  0  0  0  0  0  0
    1.3612    2.7438    9.7406 C   0  0  0  0  0  0  0  0  0  0  0  0
    2.3995    2.4840    9.5590 H   0  0  0  0  0  0  0  0  0  0  0  0
    1.0518    3.4160    8.9483 H   0  0  0  0  0  0  0  0  0  0  0  0
    0.7691    1.8405    9.6461 H   0  0  0  0  0  0  0  0  0  0  0  0
   -0.7089    4.0580   11.6752 C   0  0  0  0  0  0  0  0  0  0  0  0
   -1.0198    4.8518   11.0034 H   0  0  0  0  0  0  0  0  0  0  0  0
   -0.9061    4.3828   12.6938 H   0  0  0  0  0  0  0  0  0  0  0  0
   -1.3511    3.2038   11.4784 H   0  0  0  0  0  0  0  0  0  0  0  0
    1.3662    2.1404   12.8045 C   0  0  0  0  0  0  0  0  0  0  0  0
    2.3009    2.2929   13.3697 H   0  0  0  0  0  0  0  0  0  0  0  0
    1.3958    1.1457   12.3656 H   0  0  0  0  0  0  0  0  0  0  0  0
    0.5452    2.1541   13.5200 H   0  0  0  0  0  0  0  0  0  0  0  0
  1  4  1  0  0  0  0
  1  3  1  0  0  0  0
  1  2  1  0  0  0  0
  5  1  1  0  0  0  0
  6  1  1  0  0  0  0
  7  5  1  0  0  0  0
  8  7  2  0  0  0  0
  9  8  1  0  0  0  0
 10 40  1  1  0  0  0
 10  8  1  0  0  0  0
 10  6  1  0  0  0  0
 11  5  1  0  0  0  0
 11 16  1  0  0  0  0
 12 11  1  0  0  0  0
 12 14  1  0  0  0  0
 13 12  1  0  0  0  0
 15 12  1  0  0  0  0
 16 19  1  0  0  0  0
 16 17  1  0  0  0  0
 18 16  1  0  0  0  0
 20 23  1  0  0  0  0
 20 11  1  0  0  0  0
 21 20  1  0  0  0  0
 22 20  1  0  0  0  0
 24  7  1  0  0  0  0
 24 25  1  0  0  0  0
 25 27  1  0  0  0  0
 25 28  1  0  0  0  0
 26 25  1  0  0  0  0
 28 29  1  0  0  0  0
 28 30  1  0  0  0  0
 31 33  1  0  0  0  0
 31 28  1  0  0  0  0
 32 31  1  0  0  0  0
 34 35  1  0  0  0  0
 34 31  1  0  0  0  0
 36 34  1  0  0  0  0
 37 34  1  0  0  0  0
 37 24  1  0  0  0  0
 38 37  1  0  0  0  0
 39 37  1  0  0  0  0
 40 49  1  0  0  0  0
 41 40  1  0  0  0  0
 41 44  1  0  0  0  0
 42 41  1  0  0  0  0
 43 41  1  0  0  0  0
 45 47  1  0  0  0  0
 45 40  1  0  0  0  0
 46 45  1  0  0  0  0
 48 45  1  0  0  0  0
 49 52  1  0  0  0  0
 49 51  1  0  0  0  0
 50 49  1  0  0  0  0
 53 58  1  0  0  0  0
 53  6  1  0  0  0  0
 53 62  1  0  0  0  0
 54 53  1  0  0  0  0
 55 54  1  0  0  0  0
 56 54  1  0  0  0  0
 57 54  1  0  0  0  0
 58 60  1  0  0  0  0
 59 58  1  0  0  0  0
 61 58  1  0  0  0  0
 62 63  1  0  0  0  0
 62 65  1  0  0  0  0
 64 62  1  0  0  0  0
M  END
$$$$
