CSD_code = LUVLEU | q = 0 | S = 0 | Stoichiometry = C15H26Br2N4Ni | MND = 4
 OpenBabel04212202063D

 48 51  0  0  1  0  0  0  0  0999 V2000
    3.2239    6.6348    7.7887 Ni  0  0  0  0  0  0  0  0  0  0  0  0
    3.7192    5.5865    9.6538 Br  0  0  0  0  0  0  0  0  0  0  0  0
    5.3273    7.2189    7.3241 Br  0  0  0  0  0  0  0  0  0  0  0  0
    1.6081    5.3518    7.2058 N   0  0  2  0  0  4  0  0  0  0  0  0
    2.4079    7.8874    6.4828 N   0  0  2  0  0  0  0  0  0  0  0  0
    3.2248    9.8903    7.3057 N   0  0  0  0  0  0  0  0  0  0  0  0
    2.8335    9.8253    5.1105 N   0  0  0  0  0  0  0  0  0  0  0  0
    0.7695    6.1467    6.2924 C   0  0  2  0  0  0  0  0  0  0  0  0
    0.0990    6.7330    6.9332 H   0  0  0  0  0  0  0  0  0  0  0  0
   -0.0515    5.2196    5.3836 C   0  0  0  0  0  0  0  0  0  0  0  0
   -1.0733    5.5918    5.2908 H   0  0  0  0  0  0  0  0  0  0  0  0
    0.3757    5.1825    4.3799 H   0  0  0  0  0  0  0  0  0  0  0  0
   -0.0512    3.8239    6.0114 C   0  0  2  0  0  0  0  0  0  0  0  0
   -0.7640    3.1741    5.4962 H   0  0  0  0  0  0  0  0  0  0  0  0
   -0.4149    3.9641    7.4919 C   0  0  0  0  0  0  0  0  0  0  0  0
   -1.3555    4.5102    7.5876 H   0  0  0  0  0  0  0  0  0  0  0  0
   -0.5553    2.9812    7.9427 H   0  0  0  0  0  0  0  0  0  0  0  0
    0.7320    4.7152    8.1943 C   0  0  0  0  0  0  0  0  0  0  0  0
    0.3426    5.4848    8.8665 H   0  0  0  0  0  0  0  0  0  0  0  0
    1.3381    4.0332    8.7938 H   0  0  0  0  0  0  0  0  0  0  0  0
    2.3307    4.2984    6.4758 C   0  0  0  0  0  0  0  0  0  0  0  0
    3.0605    3.8394    7.1512 H   0  0  0  0  0  0  0  0  0  0  0  0
    2.8840    4.7509    5.6464 H   0  0  0  0  0  0  0  0  0  0  0  0
    1.3627    3.2199    5.9399 C   0  0  2  0  0  0  0  0  0  0  0  0
    1.3880    2.3432    6.5947 H   0  0  0  0  0  0  0  0  0  0  0  0
    1.7404    2.7798    4.5608 C   0  0  0  0  0  0  0  0  0  0  0  0
    1.7933    3.5561    3.8076 H   0  0  0  0  0  0  0  0  0  0  0  0
    2.0114    1.5305    4.2325 C   0  0  0  0  0  0  0  0  0  0  0  0
    1.9765    0.7334    4.9570 H   0  0  0  0  0  0  0  0  0  0  0  0
    2.2843    1.2502    3.2296 H   0  0  0  0  0  0  0  0  0  0  0  0
    1.6264    7.1551    5.5150 C   0  0  0  0  0  0  0  0  0  0  0  0
    2.2651    6.6272    4.7922 H   0  0  0  0  0  0  0  0  0  0  0  0
    0.9553    7.8254    4.9623 H   0  0  0  0  0  0  0  0  0  0  0  0
    2.8196    9.1038    6.2874 C   0  0  0  0  0  3  0  0  0  0  0  0
    3.6107   11.2082    6.8711 C   0  0  0  0  0  0  0  0  0  0  0  0
    4.6383   11.4284    7.1788 H   0  0  0  0  0  0  0  0  0  0  0  0
    2.9464   11.9603    7.3146 H   0  0  0  0  0  0  0  0  0  0  0  0
    3.4572   11.1235    5.3517 C   0  0  0  0  0  0  0  0  0  0  0  0
    2.8196   11.9153    4.9486 H   0  0  0  0  0  0  0  0  0  0  0  0
    4.4316   11.1702    4.8542 H   0  0  0  0  0  0  0  0  0  0  0  0
    3.2554    9.5706    8.7037 C   0  0  0  0  0  0  0  0  0  0  0  0
    2.8624    8.5526    8.8644 H   0  0  0  0  0  0  0  0  0  0  0  0
    2.6369   10.2762    9.2657 H   0  0  0  0  0  0  0  0  0  0  0  0
    4.2819    9.6120    9.0785 H   0  0  0  0  0  0  0  0  0  0  0  0
    3.2003    9.2225    3.8436 C   0  0  0  0  0  0  0  0  0  0  0  0
    4.1852    8.7451    3.8948 H   0  0  0  0  0  0  0  0  0  0  0  0
    3.2272   10.0124    3.0947 H   0  0  0  0  0  0  0  0  0  0  0  0
    2.4643    8.4888    3.5281 H   0  0  0  0  0  0  0  0  0  0  0  0
  1  2  1  0  0  0  0
  3  1  1  0  0  0  0
  4 21  1  6  0  0  0
  4  1  1  0  0  0  0
  4 18  1  0  0  0  0
  5 34  1  6  0  0  0
  5  1  1  0  0  0  0
  6 41  1  0  0  0  0
  7 38  1  0  0  0  0
  7 34  1  0  0  0  0
  8  9  1  1  0  0  0
  8  4  1  0  0  0  0
 10 13  1  0  0  0  0
 10  8  1  0  0  0  0
 11 10  1  0  0  0  0
 12 10  1  0  0  0  0
 13 14  1  6  0  0  0
 13 15  1  0  0  0  0
 15 16  1  0  0  0  0
 15 17  1  0  0  0  0
 15 18  1  0  0  0  0
 18 20  1  0  0  0  0
 18 19  1  0  0  0  0
 21 22  1  0  0  0  0
 23 21  1  0  0  0  0
 24 13  1  0  0  0  0
 24 21  1  0  0  0  0
 24 25  1  1  0  0  0
 26 24  1  0  0  0  0
 27 26  1  0  0  0  0
 28 26  2  0  0  0  0
 28 29  1  0  0  0  0
 30 28  1  0  0  0  0
 31  8  1  0  0  0  0
 31  5  1  0  0  0  0
 32 31  1  0  0  0  0
 33 31  1  0  0  0  0
 34  6  1  0  0  0  0
 35 36  1  0  0  0  0
 35  6  1  0  0  0  0
 35 37  1  0  0  0  0
 38 35  1  0  0  0  0
 39 38  1  0  0  0  0
 40 38  1  0  0  0  0
 41 42  1  0  0  0  0
 41 44  1  0  0  0  0
 41 43  1  0  0  0  0
 45 46  1  0  0  0  0
 45  7  1  0  0  0  0
 47 45  1  0  0  0  0
 48 45  1  0  0  0  0
M  END
$$$$
