CSD_code = LUVLAQ | q = 0 | S = 0 | Stoichiometry = C15H26Br2N4Ni | MND = 4
 OpenBabel04212202063D

 48 51  0  0  1  0  0  0  0  0999 V2000
    5.7970   12.8293   10.5189 Br  0  0  0  0  0  0  0  0  0  0  0  0
    8.8445   12.4172    9.2488 Br  0  0  0  0  0  0  0  0  0  0  0  0
    6.7668   11.6180    8.9988 Ni  0  0  0  0  0  0  0  0  0  0  0  0
    6.6589    9.5799   10.0312 N   0  0  2  0  0  4  0  0  0  0  0  0
    7.1295   10.5222    7.3909 N   0  0  2  0  0  0  0  0  0  0  0  0
    6.9224   12.2288    5.8080 N   0  0  0  0  0  0  0  0  0  0  0  0
    7.5359   10.2255    5.0306 N   0  0  0  0  0  0  0  0  0  0  0  0
    7.7158    8.9552    9.2164 C   0  0  1  0  0  0  0  0  0  0  0  0
    8.6414    9.4937    9.4536 H   0  0  0  0  0  0  0  0  0  0  0  0
    7.8716    7.4697    9.5851 C   0  0  0  0  0  0  0  0  0  0  0  0
    7.4678    6.8295    8.7959 H   0  0  0  0  0  0  0  0  0  0  0  0
    8.9231    7.2130    9.7127 H   0  0  0  0  0  0  0  0  0  0  0  0
    7.0954    7.2182   10.8787 C   0  0  2  0  0  0  0  0  0  0  0  0
    7.2883    6.2046   11.2415 H   0  0  0  0  0  0  0  0  0  0  0  0
    5.6058    7.4061   10.5864 C   0  0  0  0  0  0  0  0  0  0  0  0
    5.2617    6.6379    9.8909 H   0  0  0  0  0  0  0  0  0  0  0  0
    5.0318    7.2989   11.5080 H   0  0  0  0  0  0  0  0  0  0  0  0
    5.4155    8.8105    9.9832 C   0  0  0  0  0  0  0  0  0  0  0  0
    5.0822    8.7466    8.9448 H   0  0  0  0  0  0  0  0  0  0  0  0
    4.6572    9.3722   10.5354 H   0  0  0  0  0  0  0  0  0  0  0  0
    7.1207    9.6410   11.4233 C   0  0  0  0  0  0  0  0  0  0  0  0
    6.3195   10.0768   12.0240 H   0  0  0  0  0  0  0  0  0  0  0  0
    7.9794   10.3186   11.4767 H   0  0  0  0  0  0  0  0  0  0  0  0
    7.5033    8.2420   11.9555 C   0  0  2  0  0  0  0  0  0  0  0  0
    6.9290    8.0205   12.8608 H   0  0  0  0  0  0  0  0  0  0  0  0
    8.9608    8.1449   12.2913 C   0  0  0  0  0  0  0  0  0  0  0  0
    9.6449    8.5947   11.5844 H   0  0  0  0  0  0  0  0  0  0  0  0
    9.4275    7.5579   13.3772 C   0  0  0  0  0  0  0  0  0  0  0  0
    8.7725    7.1083   14.1061 H   0  0  0  0  0  0  0  0  0  0  0  0
   10.4816    7.5020   13.5879 H   0  0  0  0  0  0  0  0  0  0  0  0
    7.4580    9.1443    7.7146 C   0  0  0  0  0  0  0  0  0  0  0  0
    8.3742    8.8413    7.1935 H   0  0  0  0  0  0  0  0  0  0  0  0
    6.6348    8.4862    7.4050 H   0  0  0  0  0  0  0  0  0  0  0  0
    7.1848   10.9414    6.1670 C   0  0  0  0  0  3  0  0  0  0  0  0
    7.4107   12.5037    4.4773 C   0  0  0  0  0  0  0  0  0  0  0  0
    8.3990   12.9809    4.5205 H   0  0  0  0  0  0  0  0  0  0  0  0
    6.7241   13.1680    3.9468 H   0  0  0  0  0  0  0  0  0  0  0  0
    7.4803   11.1094    3.8712 C   0  0  0  0  0  0  0  0  0  0  0  0
    6.5858   10.8945    3.2711 H   0  0  0  0  0  0  0  0  0  0  0  0
    8.3645   10.9575    3.2485 H   0  0  0  0  0  0  0  0  0  0  0  0
    6.6959   13.3495    6.6795 C   0  0  0  0  0  0  0  0  0  0  0  0
    6.1245   13.0266    7.5707 H   0  0  0  0  0  0  0  0  0  0  0  0
    6.0877   14.0810    6.1443 H   0  0  0  0  0  0  0  0  0  0  0  0
    7.6303   13.8277    6.9948 H   0  0  0  0  0  0  0  0  0  0  0  0
    7.1122    8.8757    4.7187 C   0  0  0  0  0  0  0  0  0  0  0  0
    7.5166    8.1472    5.4132 H   0  0  0  0  0  0  0  0  0  0  0  0
    7.4987    8.6365    3.7286 H   0  0  0  0  0  0  0  0  0  0  0  0
    6.0191    8.7845    4.6944 H   0  0  0  0  0  0  0  0  0  0  0  0
  3  2  1  0  0  0  0
  3  4  1  0  0  0  0
  3  1  1  0  0  0  0
  4 18  1  6  0  0  0
  4 21  1  0  0  0  0
  5 34  1  1  0  0  0
  5 31  1  0  0  0  0
  5  3  1  0  0  0  0
  6 34  1  0  0  0  0
  6 41  1  0  0  0  0
  7 34  1  0  0  0  0
  8  9  1  1  0  0  0
  8 10  1  0  0  0  0
  8  4  1  0  0  0  0
 10 12  1  0  0  0  0
 10 13  1  0  0  0  0
 11 10  1  0  0  0  0
 13 14  1  1  0  0  0
 13 24  1  0  0  0  0
 15 13  1  0  0  0  0
 15 17  1  0  0  0  0
 16 15  1  0  0  0  0
 18 20  1  0  0  0  0
 18 15  1  0  0  0  0
 19 18  1  0  0  0  0
 21 23  1  0  0  0  0
 21 24  1  0  0  0  0
 21 22  1  0  0  0  0
 24 26  1  0  0  0  0
 24 25  1  1  0  0  0
 26 28  2  0  0  0  0
 27 26  1  0  0  0  0
 28 30  1  0  0  0  0
 28 29  1  0  0  0  0
 31  8  1  0  0  0  0
 32 31  1  0  0  0  0
 33 31  1  0  0  0  0
 35 36  1  0  0  0  0
 35  6  1  0  0  0  0
 37 35  1  0  0  0  0
 38 35  1  0  0  0  0
 38  7  1  0  0  0  0
 39 38  1  0  0  0  0
 40 38  1  0  0  0  0
 41 44  1  0  0  0  0
 41 42  1  0  0  0  0
 43 41  1  0  0  0  0
 45  7  1  0  0  0  0
 45 46  1  0  0  0  0
 47 45  1  0  0  0  0
 48 45  1  0  0  0  0
M  END
$$$$
