CSD_code = LUVLIY | q = 0 | S = 0 | Stoichiometry = C15H26Cl2N4Pd | MND = 4
 OpenBabel04212202063D

 48 51  0  0  1  0  0  0  0  0999 V2000
   -1.4692    2.1978    7.2342 Pd  0  0  0  0  0  0  0  0  0  0  0  0
   -2.3130    3.6183    5.7183 Cl  0  0  0  0  0  0  0  0  0  0  0  0
   -3.4997    1.6785    8.0134 Cl  0  0  0  0  0  0  0  0  0  0  0  0
   -0.5517    0.5809    8.2684 N   0  0  2  0  0  4  0  0  0  0  0  0
    0.4820    2.6102    6.6929 N   0  0  1  0  0  0  0  0  0  0  0  0
    0.5789    4.9321    6.6863 N   0  0  0  0  0  0  0  0  0  0  0  0
    1.9448    3.8713    5.2818 N   0  0  0  0  0  0  0  0  0  0  0  0
    0.9011    0.7043    8.0462 C   0  0  1  0  0  0  0  0  0  0  0  0
    1.2639    1.4169    8.7970 H   0  0  0  0  0  0  0  0  0  0  0  0
    1.5757   -0.6557    8.2690 C   0  0  0  0  0  0  0  0  0  0  0  0
    2.5250   -0.5218    8.7886 H   0  0  0  0  0  0  0  0  0  0  0  0
    1.7798   -1.1516    7.3172 H   0  0  0  0  0  0  0  0  0  0  0  0
    0.6155   -1.5150    9.0977 C   0  0  2  0  0  0  0  0  0  0  0  0
    1.1262   -2.4110    9.4613 H   0  0  0  0  0  0  0  0  0  0  0  0
   -0.5635   -1.8940    8.2036 C   0  0  0  0  0  0  0  0  0  0  0  0
   -1.3331   -2.3917    8.7950 H   0  0  0  0  0  0  0  0  0  0  0  0
   -0.2399   -2.5898    7.4280 H   0  0  0  0  0  0  0  0  0  0  0  0
   -1.1063   -0.5959    7.5794 C   0  0  0  0  0  0  0  0  0  0  0  0
   -0.8504   -0.5340    6.5140 H   0  0  0  0  0  0  0  0  0  0  0  0
   -2.1976   -0.5459    7.6679 H   0  0  0  0  0  0  0  0  0  0  0  0
   -0.7946    0.4390    9.7035 C   0  0  0  0  0  0  0  0  0  0  0  0
   -1.8575    0.2280    9.8386 H   0  0  0  0  0  0  0  0  0  0  0  0
   -0.5890    1.3973   10.1858 H   0  0  0  0  0  0  0  0  0  0  0  0
    0.0797   -0.6906   10.2871 C   0  0  2  0  0  0  0  0  0  0  0  0
   -0.5508   -1.3520   10.8944 H   0  0  0  0  0  0  0  0  0  0  0  0
    1.2235   -0.2728   11.1703 C   0  0  0  0  0  0  0  0  0  0  0  0
    1.8451   -1.1110   11.4653 H   0  0  0  0  0  0  0  0  0  0  0  0
    1.5327    0.9297   11.6169 C   0  0  0  0  0  0  0  0  0  0  0  0
    0.9667    1.8172   11.3894 H   0  0  0  0  0  0  0  0  0  0  0  0
    2.3832    1.0803   12.2597 H   0  0  0  0  0  0  0  0  0  0  0  0
    1.1799    1.3448    6.6742 C   0  0  0  0  0  0  0  0  0  0  0  0
    2.2618    1.4822    6.5491 H   0  0  0  0  0  0  0  0  0  0  0  0
    0.8192    0.6865    5.8710 H   0  0  0  0  0  0  0  0  0  0  0  0
    0.9439    3.7201    6.2166 C   0  0  0  0  0  3  0  0  0  0  0  0
    1.1055    5.9968    5.8651 C   0  0  0  0  0  0  0  0  0  0  0  0
    1.4938    6.8029    6.4926 H   0  0  0  0  0  0  0  0  0  0  0  0
    0.3213    6.4051    5.2145 H   0  0  0  0  0  0  0  0  0  0  0  0
    2.2107    5.2869    5.0737 C   0  0  0  0  0  0  0  0  0  0  0  0
    2.1824    5.5367    4.0108 H   0  0  0  0  0  0  0  0  0  0  0  0
    3.2067    5.5323    5.4603 H   0  0  0  0  0  0  0  0  0  0  0  0
   -0.4051    5.2234    7.6923 C   0  0  0  0  0  0  0  0  0  0  0  0
   -0.6888    4.2922    8.2160 H   0  0  0  0  0  0  0  0  0  0  0  0
   -1.3060    5.6464    7.2371 H   0  0  0  0  0  0  0  0  0  0  0  0
    0.0143    5.9343    8.4094 H   0  0  0  0  0  0  0  0  0  0  0  0
    2.0913    2.9623    4.1689 C   0  0  0  0  0  0  0  0  0  0  0  0
    3.0693    2.4737    4.1904 H   0  0  0  0  0  0  0  0  0  0  0  0
    1.9957    3.5043    3.2256 H   0  0  0  0  0  0  0  0  0  0  0  0
    1.3091    2.2076    4.1987 H   0  0  0  0  0  0  0  0  0  0  0  0
  1  3  1  0  0  0  0
  1  4  1  0  0  0  0
  2  1  1  0  0  0  0
  4 18  1  6  0  0  0
  4 21  1  0  0  0  0
  5 34  1  6  0  0  0
  5  1  1  0  0  0  0
  6 41  1  0  0  0  0
  7 34  1  0  0  0  0
  8  4  1  0  0  0  0
  8 10  1  0  0  0  0
  8  9  1  1  0  0  0
 10 11  1  0  0  0  0
 10 13  1  0  0  0  0
 12 10  1  0  0  0  0
 13 14  1  1  0  0  0
 13 24  1  0  0  0  0
 15 16  1  0  0  0  0
 15 13  1  0  0  0  0
 17 15  1  0  0  0  0
 18 20  1  0  0  0  0
 18 15  1  0  0  0  0
 19 18  1  0  0  0  0
 21 22  1  0  0  0  0
 21 23  1  0  0  0  0
 21 24  1  0  0  0  0
 24 25  1  1  0  0  0
 24 26  1  0  0  0  0
 26 27  1  0  0  0  0
 26 28  2  0  0  0  0
 28 30  1  0  0  0  0
 29 28  1  0  0  0  0
 31  5  1  0  0  0  0
 31  8  1  0  0  0  0
 32 31  1  0  0  0  0
 33 31  1  0  0  0  0
 34  6  1  0  0  0  0
 35 36  1  0  0  0  0
 35  6  1  0  0  0  0
 37 35  1  0  0  0  0
 38  7  1  0  0  0  0
 38 40  1  0  0  0  0
 38 35  1  0  0  0  0
 39 38  1  0  0  0  0
 41 42  1  0  0  0  0
 41 44  1  0  0  0  0
 43 41  1  0  0  0  0
 45 46  1  0  0  0  0
 45 48  1  0  0  0  0
 45  7  1  0  0  0  0
 47 45  1  0  0  0  0
M  END
$$$$
