CSD_code = LUWYOR | q = 0 | S = 0 | Stoichiometry = C20H30Cl2SiTi | MND = 12
 OpenBabel04212202063D

 54 55  0  0  1  0  0  0  0  0999 V2000
    2.9455   12.6352    2.4870 Ti  0  0  0  0  0  0  0  0  0  0  0  0
    1.3608   15.1629    4.7821 Si  0  0  0  0  0  0  0  0  0  0  0  0
    2.1508   14.5309    1.5869 Cl  0  0  0  0  0  0  0  0  0  0  0  0
    4.7331   13.7398    3.2633 Cl  0  0  0  0  0  0  0  0  0  0  0  0
    1.6735   13.3671    4.2950 C   0  0  0  0  0  0  0  0  0  0  0  0
    0.8549   12.5521    3.4642 C   0  0  2  0  0  0  0  0  0  0  0  0
   -0.0555   12.8799    2.9766 H   0  0  0  0  0  0  0  0  0  0  0  0
    1.3321   11.2322    3.5200 C   0  0  0  0  0  0  0  0  0  0  0  0
    0.8308   10.3639    3.1181 H   0  0  0  0  0  0  0  0  0  0  0  0
    2.4764   11.2171    4.3510 C   0  0  0  0  0  0  0  0  0  0  0  0
    3.0120   10.3383    4.6844 H   0  0  0  0  0  0  0  0  0  0  0  0
    2.6599   12.5188    4.8479 C   0  0  0  0  0  0  0  0  0  0  0  0
    3.3948   12.8119    5.5867 H   0  0  0  0  0  0  0  0  0  0  0  0
    2.4587   10.9903    0.8016 C   0  0  0  0  0  0  0  0  0  0  0  0
    3.4986   10.4702    1.6215 C   0  0  0  0  0  0  0  0  0  0  0  0
    4.6141   11.3432    1.5217 C   0  0  2  0  0  3  0  0  0  0  0  0
    4.2754   12.3903    0.6128 C   0  0  1  0  0  0  0  0  0  0  0  0
    2.9479   12.1571    0.1614 C   0  0  1  0  0  3  0  0  0  0  0  0
    0.9484   15.0821    6.6688 C   0  0  0  0  0  0  0  0  0  0  0  0
    1.8403   14.7892    7.2219 H   0  0  0  0  0  0  0  0  0  0  0  0
    0.6583   16.0750    7.0064 H   0  0  0  0  0  0  0  0  0  0  0  0
   -0.1441   14.1130    6.9337 C   0  0  0  0  0  0  0  0  0  0  0  0
    0.1334   13.0693    6.8504 H   0  0  0  0  0  0  0  0  0  0  0  0
   -1.3937   14.4421    7.2111 C   0  0  0  0  0  0  0  0  0  0  0  0
   -1.6990   15.4724    7.2948 H   0  0  0  0  0  0  0  0  0  0  0  0
   -2.1603   13.7029    7.3715 H   0  0  0  0  0  0  0  0  0  0  0  0
    2.8824   16.2884    4.5530 C   0  0  0  0  0  0  0  0  0  0  0  0
    2.6892   17.2868    4.9338 H   0  0  0  0  0  0  0  0  0  0  0  0
    3.1460   16.3752    3.5030 H   0  0  0  0  0  0  0  0  0  0  0  0
    3.7510   15.8949    5.0741 H   0  0  0  0  0  0  0  0  0  0  0  0
   -0.1818   15.8267    3.8769 C   0  0  0  0  0  0  0  0  0  0  0  0
   -1.0682   15.2621    4.1517 H   0  0  0  0  0  0  0  0  0  0  0  0
   -0.0664   15.7809    2.7989 H   0  0  0  0  0  0  0  0  0  0  0  0
   -0.3590   16.8629    4.1463 H   0  0  0  0  0  0  0  0  0  0  0  0
    5.9654   11.0663    2.1108 C   0  0  0  0  0  0  0  0  0  0  0  0
    6.5975   11.9502    2.0708 H   0  0  0  0  0  0  0  0  0  0  0  0
    6.4546   10.2649    1.5519 H   0  0  0  0  0  0  0  0  0  0  0  0
    5.8850   10.7577    3.1544 H   0  0  0  0  0  0  0  0  0  0  0  0
    3.5483    9.0944    2.2173 C   0  0  0  0  0  0  0  0  0  0  0  0
    2.5828    8.7715    2.6021 H   0  0  0  0  0  0  0  0  0  0  0  0
    4.2815    9.0372    3.0195 H   0  0  0  0  0  0  0  0  0  0  0  0
    3.8509    8.3846    1.4429 H   0  0  0  0  0  0  0  0  0  0  0  0
    1.1787   10.3112    0.4106 C   0  0  0  0  0  0  0  0  0  0  0  0
    1.0335    9.3838    0.9600 H   0  0  0  0  0  0  0  0  0  0  0  0
    1.2103   10.0675   -0.6535 H   0  0  0  0  0  0  0  0  0  0  0  0
    0.3152   10.9591    0.5737 H   0  0  0  0  0  0  0  0  0  0  0  0
    5.1757   13.4669    0.0875 C   0  0  0  0  0  0  0  0  0  0  0  0
    6.0629   13.5746    0.7080 H   0  0  0  0  0  0  0  0  0  0  0  0
    4.6523   14.4252    0.0722 H   0  0  0  0  0  0  0  0  0  0  0  0
    5.4888   13.2288   -0.9314 H   0  0  0  0  0  0  0  0  0  0  0  0
    2.2542   12.8592   -0.9648 C   0  0  0  0  0  0  0  0  0  0  0  0
    2.6748   13.8481   -1.1300 H   0  0  0  0  0  0  0  0  0  0  0  0
    1.1885   12.9670   -0.7650 H   0  0  0  0  0  0  0  0  0  0  0  0
    2.3740   12.2747   -1.8810 H   0  0  0  0  0  0  0  0  0  0  0  0
  1  4  1  0  0  0  0
  1  6  1  0  0  0  0
  2 19  1  0  0  0  0
  3  1  1  0  0  0  0
  5  2  1  0  0  0  0
  5 12  2  0  0  0  0
  6  7  1  6  0  0  0
  6  8  1  0  0  0  0
  6  5  1  0  0  0  0
  8 10  2  0  0  0  0
  9  8  1  0  0  0  0
 10 11  1  0  0  0  0
 10 12  1  0  0  0  0
 12 13  1  0  0  0  0
 14 15  2  0  0  0  0
 15 39  1  0  0  0  0
 16 15  1  0  0  0  0
 16 35  1  6  0  0  0
 17 47  1  6  0  0  0
 17 16  1  0  0  0  0
 17  1  1  0  0  0  0
 18 51  1  6  0  0  0
 18 17  1  0  0  0  0
 18 14  1  0  0  0  0
 19 22  1  0  0  0  0
 19 21  1  0  0  0  0
 19 20  1  0  0  0  0
 22 24  2  0  0  0  0
 23 22  1  0  0  0  0
 24 25  1  0  0  0  0
 24 26  1  0  0  0  0
 27  2  1  0  0  0  0
 27 28  1  0  0  0  0
 27 30  1  0  0  0  0
 29 27  1  0  0  0  0
 31 34  1  0  0  0  0
 31 32  1  0  0  0  0
 31  2  1  0  0  0  0
 33 31  1  0  0  0  0
 35 38  1  0  0  0  0
 36 35  1  0  0  0  0
 37 35  1  0  0  0  0
 39 40  1  0  0  0  0
 39 41  1  0  0  0  0
 42 39  1  0  0  0  0
 43 46  1  0  0  0  0
 43 14  1  0  0  0  0
 43 44  1  0  0  0  0
 45 43  1  0  0  0  0
 47 48  1  0  0  0  0
 49 47  1  0  0  0  0
 50 47  1  0  0  0  0
 51 53  1  0  0  0  0
 52 51  1  0  0  0  0
 54 51  1  0  0  0  0
M  END
$$$$
