CSD_code = LUXFER | q = 0 | S = 0 | Stoichiometry = C14H12Cl2N4Pd | MND = 4
 OpenBabel04212202063D

 33 36  0  0  0  0  0  0  0  0999 V2000
    3.6815    5.9713    6.6920 Pd  0  0  0  0  0  0  0  0  0  0  0  0
    3.5261    8.0667    5.7622 Cl  0  0  0  0  0  0  0  0  0  0  0  0
    6.2768    5.8024    8.3208 N   0  0  0  0  0  0  0  0  0  0  0  0
    6.0520    5.1022    7.6109 H   0  0  0  0  0  0  0  0  0  0  0  0
    7.4184    5.8934    9.0694 C   0  0  0  0  0  0  0  0  0  0  0  0
    8.2786    5.3005    8.8259 H   0  0  0  0  0  0  0  0  0  0  0  0
    7.2585    6.8046   10.0705 C   0  0  0  0  0  0  0  0  0  0  0  0
    7.9880    7.0908   10.8006 H   0  0  0  0  0  0  0  0  0  0  0  0
    5.9301    7.3033    9.9686 C   0  0  0  0  0  0  0  0  0  0  0  0
    5.1297    8.2161   10.6508 C   0  0  0  0  0  0  0  0  0  0  0  0
    5.5050    8.7653   11.5005 H   0  0  0  0  0  0  0  0  0  0  0  0
    3.8354    8.3918   10.1965 C   0  0  0  0  0  0  0  0  0  0  0  0
    3.1732    9.0835   10.6920 H   0  0  0  0  0  0  0  0  0  0  0  0
    3.3634    7.6945    9.0852 C   0  0  0  0  0  3  0  0  0  0  0  0
    2.3538    7.8515    8.7203 H   0  0  0  0  0  0  0  0  0  0  0  0
    4.1100    6.8257    8.4122 N   0  0  0  0  0  0  0  0  0  0  0  0
    5.3511    6.6348    8.8560 C   0  0  0  0  0  0  0  0  0  0  0  0
    3.8373    3.8769    7.6227 Cl  0  0  0  0  0  0  0  0  0  0  0  0
    1.0865    6.1404    5.0625 N   0  0  0  0  0  0  0  0  0  0  0  0
    1.3112    6.8407    5.7723 H   0  0  0  0  0  0  0  0  0  0  0  0
   -0.0550    6.0492    4.3138 C   0  0  0  0  0  0  0  0  0  0  0  0
   -0.9152    6.6421    4.5571 H   0  0  0  0  0  0  0  0  0  0  0  0
    0.1051    5.1378    3.3129 C   0  0  0  0  0  0  0  0  0  0  0  0
   -0.6244    4.8514    2.5828 H   0  0  0  0  0  0  0  0  0  0  0  0
    1.4334    4.6392    3.4151 C   0  0  0  0  0  0  0  0  0  0  0  0
    2.2339    3.7262    2.7331 C   0  0  0  0  0  0  0  0  0  0  0  0
    1.8588    3.1768    1.8836 H   0  0  0  0  0  0  0  0  0  0  0  0
    3.5281    3.5506    3.1877 C   0  0  0  0  0  0  0  0  0  0  0  0
    4.1905    2.8588    2.6924 H   0  0  0  0  0  0  0  0  0  0  0  0
    4.0001    4.2482    4.2988 C   0  0  0  0  0  3  0  0  0  0  0  0
    5.0096    4.0913    4.6639 H   0  0  0  0  0  0  0  0  0  0  0  0
    3.2533    5.1171    4.9715 N   0  0  0  0  0  0  0  0  0  0  0  0
    2.0122    5.3078    4.5276 C   0  0  0  0  0  0  0  0  0  0  0  0
  1 18  1  0  0  0  0
  1 16  1  0  0  0  0
  2  1  1  0  0  0  0
  3 17  1  0  0  0  0
  3  5  1  0  0  0  0
  4  3  1  0  0  0  0
  5  7  2  0  0  0  0
  6  5  1  0  0  0  0
  7  8  1  0  0  0  0
  9  7  1  0  0  0  0
  9 10  1  0  0  0  0
 10 11  1  0  0  0  0
 12 10  2  0  0  0  0
 12 13  1  0  0  0  0
 14 12  1  0  0  0  0
 15 14  1  0  0  0  0
 16 17  1  0  0  0  0
 16 14  1  0  0  0  0
 17  9  2  0  0  0  0
 19 20  1  0  0  0  0
 21 22  1  0  0  0  0
 21 19  1  0  0  0  0
 23 25  1  0  0  0  0
 23 21  2  0  0  0  0
 24 23  1  0  0  0  0
 25 33  2  0  0  0  0
 26 28  2  0  0  0  0
 26 25  1  0  0  0  0
 27 26  1  0  0  0  0
 28 30  1  0  0  0  0
 29 28  1  0  0  0  0
 30 31  1  0  0  0  0
 30 32  1  0  0  0  0
 32  1  1  0  0  0  0
 33 32  1  0  0  0  0
 33 19  1  0  0  0  0
M  END
$$$$
