CSD_code = LUXHOB | q = 0 | S = 0 | Stoichiometry = C21H24AgClN2 | MND = 2
 OpenBabel04212202063D

 49 51  0  0  1  0  0  0  0  0999 V2000
    7.9938   -0.0015   14.2737 Ag  0  0  0  0  0  0  0  0  0  0  0  0
    5.7614   -0.0035   14.2745 Cl  0  0  0  0  0  0  0  0  0  0  0  0
   10.9326   -0.8668   13.6495 N   0  0  0  0  0  0  0  0  0  0  0  0
   10.4885   -1.9630   12.8623 C   0  0  0  0  0  0  0  0  0  0  0  0
   10.2328   -1.7678   11.5051 C   0  0  0  0  0  0  0  0  0  0  0  0
   10.3250   -3.2103   13.4635 C   0  0  0  0  0  0  0  0  0  0  0  0
    9.9143   -4.2727   12.6735 C   0  0  0  0  0  0  0  0  0  0  0  0
    9.7806   -5.2439   13.1274 H   0  0  0  0  0  0  0  0  0  0  0  0
   10.3745   -0.4057   10.8973 C   0  0  0  0  0  0  0  0  0  0  0  0
   11.3504    0.0254   11.1186 H   0  0  0  0  0  0  0  0  0  0  0  0
    9.6113    0.2590   11.3082 H   0  0  0  0  0  0  0  0  0  0  0  0
   10.2471   -0.4510    9.8196 H   0  0  0  0  0  0  0  0  0  0  0  0
   10.5642   -3.3766   14.9333 C   0  0  0  0  0  0  0  0  0  0  0  0
    9.8552   -2.7636   15.4927 H   0  0  0  0  0  0  0  0  0  0  0  0
   11.5706   -3.0603   15.2068 H   0  0  0  0  0  0  0  0  0  0  0  0
   10.4318   -4.4134   15.2285 H   0  0  0  0  0  0  0  0  0  0  0  0
    9.6616   -4.1121   11.3186 C   0  0  0  0  0  0  0  0  0  0  0  0
    9.8227   -2.8553   10.7509 C   0  0  0  0  0  0  0  0  0  0  0  0
    9.6168   -2.7188    9.6993 H   0  0  0  0  0  0  0  0  0  0  0  0
    9.1882   -5.2631   10.4865 C   0  0  0  0  0  0  0  0  0  0  0  0
    9.5820   -5.1989    9.4744 H   0  0  0  0  0  0  0  0  0  0  0  0
    8.0995   -5.2460   10.4249 H   0  0  0  0  0  0  0  0  0  0  0  0
    9.4872   -6.2120   10.9255 H   0  0  0  0  0  0  0  0  0  0  0  0
   12.2440   -0.5497   13.8776 C   0  0  0  0  0  0  0  0  0  0  0  0
   10.1108    0.0000   14.2729 C   0  0  2  0  0  3  0  0  0  0  0  0
   13.0517   -1.1202   13.4664 H   0  0  0  0  0  0  0  0  0  0  0  0
   12.2439    0.5506   14.6676 C   0  0  0  0  0  0  0  0  0  0  0  0
   10.9325    0.8672   14.8960 N   0  0  0  0  0  0  0  0  0  0  0  0
   10.4882    1.9632   15.6835 C   0  0  0  0  0  0  0  0  0  0  0  0
   10.2321    1.7677   17.0405 C   0  0  0  0  0  0  0  0  0  0  0  0
   10.3731    0.4054   17.6479 C   0  0  0  0  0  0  0  0  0  0  0  0
   11.3488   -0.0262   17.4265 H   0  0  0  0  0  0  0  0  0  0  0  0
    9.6095   -0.2588   17.2370 H   0  0  0  0  0  0  0  0  0  0  0  0
   10.2459    0.4505   18.7257 H   0  0  0  0  0  0  0  0  0  0  0  0
    9.8222    2.8551   17.7950 C   0  0  0  0  0  0  0  0  0  0  0  0
    9.6618    4.1122   17.2277 C   0  0  0  0  0  0  0  0  0  0  0  0
    9.9148    4.2731   15.8728 C   0  0  0  0  0  0  0  0  0  0  0  0
   10.3253    3.2108   15.0826 C   0  0  0  0  0  0  0  0  0  0  0  0
   10.5647    3.3773   13.6128 C   0  0  0  0  0  0  0  0  0  0  0  0
    9.8565    2.7637   13.0532 H   0  0  0  0  0  0  0  0  0  0  0  0
   11.5715    3.0620   13.3398 H   0  0  0  0  0  0  0  0  0  0  0  0
   10.4316    4.4140   13.3177 H   0  0  0  0  0  0  0  0  0  0  0  0
    9.7814    5.2444   15.4192 H   0  0  0  0  0  0  0  0  0  0  0  0
    9.1888    5.2631   18.0600 C   0  0  0  0  0  0  0  0  0  0  0  0
    9.5826    5.1984   19.0722 H   0  0  0  0  0  0  0  0  0  0  0  0
    8.1002    5.2465   18.1216 H   0  0  0  0  0  0  0  0  0  0  0  0
    9.4883    6.2120   17.6214 H   0  0  0  0  0  0  0  0  0  0  0  0
    9.6162    2.7184   18.8465 H   0  0  0  0  0  0  0  0  0  0  0  0
   13.0514    1.1214   15.0786 H   0  0  0  0  0  0  0  0  0  0  0  0
  1  2  1  0  0  0  0
  3 24  1  0  0  0  0
  3 25  1  0  0  0  0
  4  6  1  0  0  0  0
  4  3  1  0  0  0  0
  5  4  2  0  0  0  0
  6 13  1  0  0  0  0
  7  8  1  0  0  0  0
  7  6  2  0  0  0  0
  9 10  1  0  0  0  0
  9 11  1  0  0  0  0
  9  5  1  0  0  0  0
 12  9  1  0  0  0  0
 13 15  1  0  0  0  0
 13 16  1  0  0  0  0
 13 14  1  0  0  0  0
 17  7  1  0  0  0  0
 18 17  2  0  0  0  0
 18  5  1  0  0  0  0
 19 18  1  0  0  0  0
 20 23  1  0  0  0  0
 20 17  1  0  0  0  0
 21 20  1  0  0  0  0
 22 20  1  0  0  0  0
 24 27  2  0  0  0  0
 25  1  1  1  0  0  0
 25 28  1  0  0  0  0
 26 24  1  0  0  0  0
 27 28  1  0  0  0  0
 27 49  1  0  0  0  0
 28 29  1  0  0  0  0
 29 30  1  0  0  0  0
 30 31  1  0  0  0  0
 30 35  2  0  0  0  0
 31 34  1  0  0  0  0
 32 31  1  0  0  0  0
 33 31  1  0  0  0  0
 35 48  1  0  0  0  0
 36 35  1  0  0  0  0
 36 44  1  0  0  0  0
 37 36  2  0  0  0  0
 38 29  2  0  0  0  0
 38 37  1  0  0  0  0
 39 38  1  0  0  0  0
 40 39  1  0  0  0  0
 41 39  1  0  0  0  0
 42 39  1  0  0  0  0
 43 37  1  0  0  0  0
 44 46  1  0  0  0  0
 44 45  1  0  0  0  0
 47 44  1  0  0  0  0
M  END
$$$$
