CSD_code = LUXYUZ | q = 0 | S = 0 | Stoichiometry = C23H26ClN3OPd | MND = 4
 OpenBabel04212202063D

 55 59  0  0  1  0  0  0  0  0999 V2000
    4.7612    3.3980    9.4299 Pd  0  0  1  0  0  0  0  0  0  0  0  0
    5.5386    5.9650   10.6884 N   0  0  0  0  0  0  0  0  0  0  0  0
    2.8301    3.2754    9.9499 C   0  0  0  0  0  0  0  0  0  0  0  0
    0.0605    2.7247   10.2437 C   0  0  0  0  0  0  0  0  0  0  0  0
   -0.9941    2.5203   10.3638 H   0  0  0  0  0  0  0  0  0  0  0  0
    0.7776    2.0816    9.2248 C   0  0  0  0  0  0  0  0  0  0  0  0
    2.0708    3.8793   10.9369 C   0  0  0  0  0  0  0  0  0  0  0  0
    2.5241    4.5821   11.6279 H   0  0  0  0  0  0  0  0  0  0  0  0
    0.7048    3.6061   11.0778 C   0  0  0  0  0  0  0  0  0  0  0  0
    0.1490    4.1015   11.8628 H   0  0  0  0  0  0  0  0  0  0  0  0
    2.1519    2.3738    9.0961 C   0  0  0  0  0  0  0  0  0  0  0  0
    2.3021    0.8125    7.1904 C   0  0  0  0  0  0  0  0  0  0  0  0
    4.2152    2.0638    7.9857 N   0  0  0  0  0  0  0  0  0  0  0  0
    4.9606    1.4866    7.0649 C   0  0  0  0  0  0  0  0  0  0  0  0
    6.0071    1.7688    7.0303 H   0  0  0  0  0  0  0  0  0  0  0  0
    2.9078    1.7364    8.0679 C   0  0  0  0  0  0  0  0  0  0  0  0
    0.1875    1.1518    8.3195 C   0  0  0  0  0  0  0  0  0  0  0  0
   -0.8672    0.9388    8.4271 H   0  0  0  0  0  0  0  0  0  0  0  0
    0.9123    0.5425    7.3489 C   0  0  0  0  0  0  0  0  0  0  0  0
    0.4512   -0.1629    6.6720 H   0  0  0  0  0  0  0  0  0  0  0  0
    6.9984    3.6539    8.6270 Cl  0  0  0  0  0  0  0  0  0  0  0  0
    4.4471    0.5560    6.1576 C   0  0  0  0  0  0  0  0  0  0  0  0
    5.1028    0.1160    5.4225 H   0  0  0  0  0  0  0  0  0  0  0  0
    5.2733    4.6574   10.8335 C   0  0  2  0  0  3  0  0  0  0  0  0
    3.1148    0.2187    6.2136 C   0  0  0  0  0  0  0  0  0  0  0  0
    2.6890   -0.4935    5.5208 H   0  0  0  0  0  0  0  0  0  0  0  0
    5.6956    4.3168   12.0649 N   0  0  0  0  0  0  0  0  0  0  0  0
    6.2296    5.4136   12.6903 C   0  0  0  0  0  0  0  0  0  0  0  0
    6.6280    5.3745   13.6834 H   0  0  0  0  0  0  0  0  0  0  0  0
    6.1279    6.4503   11.8256 C   0  0  0  0  0  0  0  0  0  0  0  0
    6.4269    7.4716   11.9373 H   0  0  0  0  0  0  0  0  0  0  0  0
    6.2544    1.5792   10.7576 O   0  0  0  0  0  0  0  0  0  0  0  0
    6.8040    2.0488   10.0907 H   0  0  0  0  0  0  0  0  0  0  0  0
    8.0347    2.6212   12.0293 C   0  0  0  0  0  0  0  0  0  0  0  0
    8.7696    1.8772   11.7314 H   0  0  0  0  0  0  0  0  0  0  0  0
    8.3049    3.0036   13.0106 H   0  0  0  0  0  0  0  0  0  0  0  0
    8.0664    3.4368   11.3080 H   0  0  0  0  0  0  0  0  0  0  0  0
    6.6434    1.9892   12.0537 C   0  0  0  0  0  0  0  0  0  0  0  0
    5.5909    2.9920   12.6182 C   0  0  0  0  0  0  0  0  0  0  0  0
    4.6004    2.5907   12.3622 H   0  0  0  0  0  0  0  0  0  0  0  0
    5.6947    3.0617   13.7027 H   0  0  0  0  0  0  0  0  0  0  0  0
    6.6271    0.7417   12.9452 C   0  0  0  0  0  0  0  0  0  0  0  0
    5.6258    0.3205   12.9678 H   0  0  0  0  0  0  0  0  0  0  0  0
    6.9419    0.9803   13.9571 H   0  0  0  0  0  0  0  0  0  0  0  0
    7.3002   -0.0030   12.5300 H   0  0  0  0  0  0  0  0  0  0  0  0
    5.2387    6.7139    9.4811 C   0  0  0  0  0  0  0  0  0  0  0  0
    4.7759    5.9808    8.7889 H   0  0  0  0  0  0  0  0  0  0  0  0
    6.5267    7.2447    8.8592 C   0  0  0  0  0  0  0  0  0  0  0  0
    7.0178    7.9543    9.5216 H   0  0  0  0  0  0  0  0  0  0  0  0
    6.3060    7.7413    7.9185 H   0  0  0  0  0  0  0  0  0  0  0  0
    7.2041    6.4162    8.6635 H   0  0  0  0  0  0  0  0  0  0  0  0
    4.2357    7.8228    9.7865 C   0  0  0  0  0  0  0  0  0  0  0  0
    3.3404    7.4035   10.2405 H   0  0  0  0  0  0  0  0  0  0  0  0
    3.9530    8.3269    8.8668 H   0  0  0  0  0  0  0  0  0  0  0  0
    4.6643    8.5579   10.4645 H   0  0  0  0  0  0  0  0  0  0  0  0
  1 21  1  6  0  0  0
  1  3  2  0  0  0  0
  1 24  1  0  0  0  0
  2 30  1  0  0  0  0
  3  7  1  0  0  0  0
  4  5  1  0  0  0  0
  4  9  1  0  0  0  0
  6  4  2  0  0  0  0
  7  9  2  0  0  0  0
  7  8  1  0  0  0  0
  9 10  1  0  0  0  0
 11  6  1  0  0  0  0
 11  3  1  0  0  0  0
 12 19  1  0  0  0  0
 12 16  1  0  0  0  0
 13 16  1  0  0  0  0
 13  1  1  0  0  0  0
 14 13  1  0  0  0  0
 15 14  1  0  0  0  0
 16 11  2  0  0  0  0
 17 18  1  0  0  0  0
 17  6  1  0  0  0  0
 19 17  2  0  0  0  0
 20 19  1  0  0  0  0
 22 25  1  0  0  0  0
 22 14  2  0  0  0  0
 23 22  1  0  0  0  0
 24  2  1  6  0  0  0
 24 27  1  0  0  0  0
 25 12  2  0  0  0  0
 26 25  1  0  0  0  0
 27 39  1  0  0  0  0
 27 28  1  0  0  0  0
 28 29  1  0  0  0  0
 30 31  1  0  0  0  0
 30 28  2  0  0  0  0
 32 38  1  0  0  0  0
 33 32  1  0  0  0  0
 34 38  1  0  0  0  0
 34 36  1  0  0  0  0
 35 34  1  0  0  0  0
 37 34  1  0  0  0  0
 38 39  1  0  0  0  0
 38 42  1  0  0  0  0
 39 41  1  0  0  0  0
 40 39  1  0  0  0  0
 42 43  1  0  0  0  0
 42 44  1  0  0  0  0
 45 42  1  0  0  0  0
 46 52  1  0  0  0  0
 46  2  1  0  0  0  0
 47 46  1  0  0  0  0
 48 46  1  0  0  0  0
 48 49  1  0  0  0  0
 50 48  1  0  0  0  0
 51 48  1  0  0  0  0
 52 53  1  0  0  0  0
 52 55  1  0  0  0  0
 54 52  1  0  0  0  0
M  END
$$$$
