CSD_code = LUYCUD | q = 0 | S = 0 | Stoichiometry = C12H20Cl2N4PdS | MND = 4
 OpenBabel04212202063D

 40 41  0  0  1  0  0  0  0  0999 V2000
    4.2882    5.6972    3.5098 Pd  0  0  0  0  0  0  0  0  0  0  0  0
    3.7007    3.5134    2.9754 S   0  0  1  0  0  3  0  0  0  0  0  0
    5.1513    6.0357    1.4695 Cl  0  0  0  0  0  0  0  0  0  0  0  0
    7.4341    6.1386    7.9223 N   0  0  0  0  0  0  0  0  0  0  0  0
    4.7934    7.8117    4.0707 Cl  0  0  0  0  0  0  0  0  0  0  0  0
    3.6965    2.9312    4.7122 C   0  0  0  0  0  0  0  0  0  0  0  0
    3.2188    1.9499    4.7407 H   0  0  0  0  0  0  0  0  0  0  0  0
    4.7571    2.8022    4.9315 H   0  0  0  0  0  0  0  0  0  0  0  0
    0.3355   10.2716    1.3725 N   0  0  0  0  0  0  0  0  0  0  0  0
    3.0156    3.8797    5.7003 C   0  0  0  0  0  0  0  0  0  0  0  0
    3.2808    3.5607    6.7183 H   0  0  0  0  0  0  0  0  0  0  0  0
    1.9347    3.7562    5.6078 H   0  0  0  0  0  0  0  0  0  0  0  0
    3.3564    5.2975    5.5045 N   0  0  2  0  0  4  0  0  0  0  0  0
    2.1657    6.1627    5.5804 C   0  0  0  0  0  0  0  0  0  0  0  0
    2.5284    7.1902    5.4904 H   0  0  0  0  0  0  0  0  0  0  0  0
    1.6685    6.0446    6.5549 H   0  0  0  0  0  0  0  0  0  0  0  0
    1.1224    5.9354    4.4651 C   0  0  0  0  0  0  0  0  0  0  0  0
    0.6264    4.9684    4.5839 H   0  0  0  0  0  0  0  0  0  0  0  0
    0.3498    6.7044    4.6016 H   0  0  0  0  0  0  0  0  0  0  0  0
    1.7336    6.0090    3.1471 N   0  0  0  0  0  0  0  0  0  0  0  0
    1.3851    4.9553    2.2098 C   0  0  0  0  0  0  0  0  0  0  0  0
    1.8481    5.2170    1.2530 H   0  0  0  0  0  0  0  0  0  0  0  0
    0.2942    4.8621    2.0629 H   0  0  0  0  0  0  0  0  0  0  0  0
    1.9013    3.5728    2.6141 C   0  0  0  0  0  0  0  0  0  0  0  0
    1.7444    2.8844    1.7831 H   0  0  0  0  0  0  0  0  0  0  0  0
    1.3874    3.1787    3.4883 H   0  0  0  0  0  0  0  0  0  0  0  0
    1.7365    7.3407    2.5507 C   0  0  0  0  0  0  0  0  0  0  0  0
    2.5082    7.3663    1.7700 H   0  0  0  0  0  0  0  0  0  0  0  0
    2.0290    8.0568    3.3233 H   0  0  0  0  0  0  0  0  0  0  0  0
    0.3750    7.7546    1.9489 C   0  0  0  0  0  0  0  0  0  0  0  0
    0.1664    7.1898    1.0365 H   0  0  0  0  0  0  0  0  0  0  0  0
   -0.4319    7.5703    2.6658 H   0  0  0  0  0  0  0  0  0  0  0  0
    0.3603    9.1573    1.6223 C   0  0  0  0  0  0  0  0  0  0  0  0
    4.3476    5.7512    6.4910 C   0  0  0  0  0  0  0  0  0  0  0  0
    4.0153    5.5043    7.5114 H   0  0  0  0  0  0  0  0  0  0  0  0
    4.4362    6.8377    6.3983 H   0  0  0  0  0  0  0  0  0  0  0  0
    5.7415    5.1572    6.2352 C   0  0  0  0  0  0  0  0  0  0  0  0
    5.7572    4.0710    6.3694 H   0  0  0  0  0  0  0  0  0  0  0  0
    6.0624    5.4139    5.1989 H   0  0  0  0  0  0  0  0  0  0  0  0
    6.6918    5.7194    7.1623 C   0  0  0  0  0  0  0  0  0  0  0  0
  1  5  1  0  0  0  0
  1 13  1  0  0  0  0
  2 24  1  1  0  0  0
  2  1  1  0  0  0  0
  2  6  1  0  0  0  0
  3  1  1  0  0  0  0
  6  7  1  0  0  0  0
  6  8  1  0  0  0  0
  6 10  1  0  0  0  0
  9 33  3  0  0  0  0
 10 11  1  0  0  0  0
 12 10  1  0  0  0  0
 13 14  1  0  0  0  0
 13 10  1  0  0  0  0
 13 34  1  1  0  0  0
 14 16  1  0  0  0  0
 15 14  1  0  0  0  0
 17 18  1  0  0  0  0
 17 19  1  0  0  0  0
 17 14  1  0  0  0  0
 20 17  1  0  0  0  0
 21 24  1  0  0  0  0
 21 20  1  0  0  0  0
 22 21  1  0  0  0  0
 23 21  1  0  0  0  0
 24 26  1  0  0  0  0
 25 24  1  0  0  0  0
 27 20  1  0  0  0  0
 27 29  1  0  0  0  0
 28 27  1  0  0  0  0
 30 27  1  0  0  0  0
 30 32  1  0  0  0  0
 31 30  1  0  0  0  0
 33 30  1  0  0  0  0
 34 35  1  0  0  0  0
 36 34  1  0  0  0  0
 37 38  1  0  0  0  0
 37 34  1  0  0  0  0
 37 40  1  0  0  0  0
 39 37  1  0  0  0  0
 40  4  3  0  0  0  0
M  END
$$$$
