CSD_code = LUYNIC | q = 0 | S = 0 | Stoichiometry = C21H23ClN2O2Pd | MND = 4
 OpenBabel04212202063D

 50 53  0  0  1  0  0  0  0  0999 V2000
   10.7431    0.7409    1.7831 Pd  0  0  2  0  0  0  0  0  0  0  0  0
   11.6807    2.3678    0.5591 Cl  0  0  0  0  0  0  0  0  0  0  0  0
    4.1402    2.5508   -0.2078 C   0  0  0  0  0  0  0  0  0  0  0  0
    2.9838    3.1995   -0.5968 C   0  0  0  0  0  0  0  0  0  0  0  0
    3.0014    4.5568   -0.8753 C   0  0  0  0  0  0  0  0  0  0  0  0
    4.1885    5.2627   -0.7723 C   0  0  0  0  0  0  0  0  0  0  0  0
    5.3478    4.6180   -0.3868 C   0  0  0  0  0  0  0  0  0  0  0  0
    5.3375    3.2552   -0.0891 C   0  0  0  0  0  0  0  0  0  0  0  0
    6.5933    2.6114    0.3269 C   0  0  1  0  0  3  0  0  0  0  0  0
    7.6932    3.2522   -0.0697 O   0  0  0  0  0  0  0  0  0  0  0  0
    6.6182    1.4764    1.0766 C   0  0  0  0  0  0  0  0  0  0  0  0
    7.8347    0.8294    1.5288 C   0  0  0  0  0  0  0  0  0  0  0  0
    8.9511    1.3833    1.1905 O   0  0  0  0  0  0  0  0  0  0  0  0
    7.6927   -0.3448    2.2781 C   0  0  0  0  0  0  0  0  0  0  0  0
    8.7005   -1.1245    2.8583 C   0  0  0  0  0  0  0  0  0  0  0  0
    8.2711   -2.3943    3.5514 C   0  0  0  0  0  0  0  0  0  0  0  0
   15.6069   -0.4042    2.0713 C   0  0  0  0  0  0  0  0  0  0  0  0
   16.7920   -1.0489    2.3746 C   0  0  0  0  0  0  0  0  0  0  0  0
   17.3225   -0.9610    3.6514 C   0  0  0  0  0  0  0  0  0  0  0  0
   16.6638   -0.2248    4.6208 C   0  0  0  0  0  0  0  0  0  0  0  0
   15.4742    0.4154    4.3175 C   0  0  0  0  0  0  0  0  0  0  0  0
   14.9350    0.3339    3.0405 C   0  0  0  0  0  0  0  0  0  0  0  0
   13.6307    1.0036    2.6951 C   0  0  0  0  0  0  0  0  0  0  0  0
   12.5550    0.0209    2.4635 N   0  0  0  0  0  4  0  0  0  0  0  0
   12.2334   -0.7483    3.6738 C   0  0  0  0  0  0  0  0  0  0  0  0
   10.9981   -1.6185    3.4274 C   0  0  0  0  0  0  0  0  0  0  0  0
    9.9700   -0.7901    2.8321 N   0  0  0  0  0  0  0  0  0  0  0  0
    4.1158    1.4889   -0.0177 H   0  0  0  0  0  0  0  0  0  0  0  0
    2.0625    2.6425   -0.6885 H   0  0  0  0  0  0  0  0  0  0  0  0
    2.0944    5.0593   -1.1779 H   0  0  0  0  0  0  0  0  0  0  0  0
    4.2104    6.3194   -0.9952 H   0  0  0  0  0  0  0  0  0  0  0  0
    6.2763    5.1615   -0.3066 H   0  0  0  0  0  0  0  0  0  0  0  0
    8.4792    2.7580    0.2696 H   0  0  0  0  0  0  0  0  0  0  0  0
    5.6903    1.0296    1.3872 H   0  0  0  0  0  0  0  0  0  0  0  0
    6.6804   -0.6904    2.4182 H   0  0  0  0  0  0  0  0  0  0  0  0
    8.4828   -2.3358    4.6192 H   0  0  0  0  0  0  0  0  0  0  0  0
    8.8082   -3.2501    3.1439 H   0  0  0  0  0  0  0  0  0  0  0  0
    7.2062   -2.5587    3.4231 H   0  0  0  0  0  0  0  0  0  0  0  0
   15.2059   -0.4583    1.0683 H   0  0  0  0  0  0  0  0  0  0  0  0
   17.3063   -1.6167    1.6134 H   0  0  0  0  0  0  0  0  0  0  0  0
   18.2494   -1.4617    3.8878 H   0  0  0  0  0  0  0  0  0  0  0  0
   17.0759   -0.1490    5.6161 H   0  0  0  0  0  0  0  0  0  0  0  0
   14.9645    0.9913    5.0767 H   0  0  0  0  0  0  0  0  0  0  0  0
   13.3114    1.6742    3.4994 H   0  0  0  0  0  0  0  0  0  0  0  0
   13.7327    1.5962    1.7784 H   0  0  0  0  0  0  0  0  0  0  0  0
   12.8838   -0.6285    1.7399 H   0  0  0  0  0  0  0  0  0  0  0  0
   13.0841   -1.3668    3.9935 H   0  0  0  0  0  0  0  0  0  0  0  0
   12.0042   -0.0286    4.4687 H   0  0  0  0  0  0  0  0  0  0  0  0
   11.2558   -2.4494    2.7508 H   0  0  0  0  0  0  0  0  0  0  0  0
   10.6754   -2.0510    4.3832 H   0  0  0  0  0  0  0  0  0  0  0  0
  1  2  1  6  0  0  0
  1 24  1  0  0  0  0
  1 27  1  0  0  0  0
  3  8  1  0  0  0  0
  3 28  1  0  0  0  0
  4  3  2  0  0  0  0
  5  6  2  0  0  0  0
  5  4  1  0  0  0  0
  6  7  1  0  0  0  0
  7 32  1  0  0  0  0
  7  8  2  0  0  0  0
  8  9  1  0  0  0  0
  9 10  1  1  0  0  0
  9 11  1  0  0  0  0
 10 33  1  0  0  0  0
 11 34  1  0  0  0  0
 11 12  2  0  0  0  0
 12 14  1  0  0  0  0
 13 12  1  0  0  0  0
 13  1  1  0  0  0  0
 14 35  1  0  0  0  0
 14 15  2  0  0  0  0
 15 16  1  0  0  0  0
 16 36  1  0  0  0  0
 17 18  2  0  0  0  0
 17 22  1  0  0  0  0
 18 19  1  0  0  0  0
 19 41  1  0  0  0  0
 19 20  2  0  0  0  0
 20 42  1  0  0  0  0
 21 20  1  0  0  0  0
 21 43  1  0  0  0  0
 22 21  2  0  0  0  0
 23 22  1  0  0  0  0
 23 44  1  0  0  0  0
 24 23  1  0  0  0  0
 24 25  1  0  0  0  0
 25 47  1  0  0  0  0
 25 48  1  0  0  0  0
 26 25  1  0  0  0  0
 26 50  1  0  0  0  0
 27 15  1  0  0  0  0
 27 26  1  0  0  0  0
 29  4  1  0  0  0  0
 30  5  1  0  0  0  0
 31  6  1  0  0  0  0
 37 16  1  0  0  0  0
 38 16  1  0  0  0  0
 39 17  1  0  0  0  0
 40 18  1  0  0  0  0
 45 23  1  0  0  0  0
 46 24  1  0  0  0  0
 49 26  1  0  0  0  0
M  END
$$$$
