CSD_code = LUYTOQ | q = 0 | S = 0 | Stoichiometry = C13H11ClN4OPd | MND = 4
 OpenBabel04212202063D

 31 34  0  0  1  0  0  0  0  0999 V2000
    2.9972    2.1324    9.5738 Pd  0  0  1  0  0  0  0  0  0  0  0  0
    2.2644    2.2977   11.7305 Cl  0  0  0  0  0  0  0  0  0  0  0  0
    2.7616    0.6855    5.8061 O   0  0  0  0  0  0  0  0  0  0  0  0
    4.6374    3.3510    9.7997 N   0  0  0  0  0  0  0  0  0  0  0  0
    4.6036    2.1224    7.0789 N   0  0  0  0  0  2  0  0  0  0  0  0
    3.5039    1.7779    7.6969 N   0  0  0  0  0  0  0  0  0  0  0  0
    1.4181    0.9686    9.0831 N   0  0  0  0  0  0  0  0  0  0  0  0
    4.7276    4.0358   10.9451 C   0  0  0  0  0  0  0  0  0  0  0  0
    3.9173    3.9059   11.6545 H   0  0  0  0  0  0  0  0  0  0  0  0
    5.7865    4.8654   11.2586 C   0  0  0  0  0  0  0  0  0  0  0  0
    5.7977    5.3878   12.2007 H   0  0  0  0  0  0  0  0  0  0  0  0
    6.8170    4.9954   10.3400 C   0  0  0  0  0  0  0  0  0  0  0  0
    7.6718    5.6221   10.5448 H   0  0  0  0  0  0  0  0  0  0  0  0
    6.7237    4.3089    9.1498 C   0  0  0  0  0  0  0  0  0  0  0  0
    7.5093    4.4070    8.4220 H   0  0  0  0  0  0  0  0  0  0  0  0
    5.6164    3.4882    8.8742 C   0  0  0  0  0  0  0  0  0  0  0  0
    5.5536    2.8378    7.5579 C   0  0  0  0  0  0  0  0  0  0  0  0
    2.6333    1.0137    6.9698 C   0  0  0  0  0  0  0  0  0  0  0  0
    1.4483    0.5922    7.7950 C   0  0  1  0  0  3  0  0  0  0  0  0
    0.4417   -0.1752    7.2255 C   0  0  0  0  0  0  0  0  0  0  0  0
    0.5316   -0.4428    6.1841 H   0  0  0  0  0  0  0  0  0  0  0  0
   -0.6313   -0.5657    8.0091 C   0  0  0  0  0  0  0  0  0  0  0  0
   -1.4295   -1.1618    7.5937 H   0  0  0  0  0  0  0  0  0  0  0  0
   -0.6538   -0.1729    9.3381 C   0  0  0  0  0  0  0  0  0  0  0  0
   -1.4669   -0.4527    9.9887 H   0  0  0  0  0  0  0  0  0  0  0  0
    0.3887    0.5939    9.8377 C   0  0  0  0  0  0  0  0  0  0  0  0
    0.4012    0.9173   10.8728 H   0  0  0  0  0  0  0  0  0  0  0  0
    6.6981    3.0219    6.5994 C   0  0  0  0  0  0  0  0  0  0  0  0
    6.4717    2.4539    5.7019 H   0  0  0  0  0  0  0  0  0  0  0  0
    7.6307    2.6517    7.0211 H   0  0  0  0  0  0  0  0  0  0  0  0
    6.8211    4.0681    6.3240 H   0  0  0  0  0  0  0  0  0  0  0  0
  1  4  1  0  0  0  0
  1  2  1  1  0  0  0
  3 18  2  0  0  0  0
  4  8  1  0  0  0  0
  5 17  1  0  0  0  0
  5  6  1  0  0  0  0
  6  1  1  0  0  0  0
  7  1  1  0  0  0  0
  7 26  1  0  0  0  0
  8 10  2  0  0  0  0
  8  9  1  0  0  0  0
 10 11  1  0  0  0  0
 12 13  1  0  0  0  0
 12 10  1  0  0  0  0
 14 12  2  0  0  0  0
 15 14  1  0  0  0  0
 16 14  1  0  0  0  0
 16  4  1  0  0  0  0
 17 16  2  0  0  0  0
 18  6  1  0  0  0  0
 19 18  1  1  0  0  0
 19  7  1  0  0  0  0
 20 19  1  0  0  0  0
 20 22  2  0  0  0  0
 21 20  1  0  0  0  0
 22 24  1  0  0  0  0
 23 22  1  0  0  0  0
 24 26  2  0  0  0  0
 24 25  1  0  0  0  0
 26 27  1  0  0  0  0
 28 30  1  0  0  0  0
 28 17  1  0  0  0  0
 29 28  1  0  0  0  0
 31 28  1  0  0  0  0
M  END
$$$$
