CSD_code = LUZFOB | q = 0 | S = 0 | Stoichiometry = C28H23Cl3N4OPRe | MND = 6
 OpenBabel04212202063D

 61 66  0  0  0  0  0  0  0  0999 V2000
    3.5205    9.2987   11.5445 Re  0  0  0  0  0  0  0  0  0  0  0  0
    1.3399    8.7457   11.1705 Cl  0  0  0  0  0  0  0  0  0  0  0  0
    3.0220   10.9619   12.9868 Cl  0  0  0  0  0  0  0  0  0  0  0  0
    4.2107    7.3431   10.5346 Cl  0  0  0  0  0  0  0  0  0  0  0  0
    3.3030    7.9427   13.4140 O   0  0  0  0  0  0  0  0  0  0  0  0
    3.5149    6.5122   13.7854 P   0  0  0  0  0  4  0  0  0  0  0  0
    3.7985   10.4037    9.9017 N   0  0  0  0  0  0  0  0  0  0  0  0
    5.5313   11.4321    8.5969 N   0  0  0  0  0  0  0  0  0  0  0  0
    5.9924   10.4392   10.6180 N   0  0  0  0  0  2  0  0  0  0  0  0
    5.4697    9.8217   11.6406 N   0  0  0  0  0  0  0  0  0  0  0  0
    2.9026   10.7789    8.9763 C   0  0  0  0  0  3  0  0  0  0  0  0
    1.8759   10.4872    9.1617 H   0  0  0  0  0  0  0  0  0  0  0  0
    3.2748   11.4801    7.8579 C   0  0  0  0  0  0  0  0  0  0  0  0
    2.5485   11.7762    7.1207 H   0  0  0  0  0  0  0  0  0  0  0  0
    4.6404   11.7824    7.7121 C   0  0  0  0  0  0  0  0  0  0  0  0
    5.0105   12.3201    6.8503 H   0  0  0  0  0  0  0  0  0  0  0  0
    5.1204   10.7671    9.6769 C   0  0  0  0  0  0  0  0  0  0  0  0
    6.3900    9.5190   12.6375 C   0  0  0  0  0  0  0  0  0  0  0  0
    7.7440    9.3574   12.3221 C   0  0  0  0  0  0  0  0  0  0  0  0
    8.0459    9.4651   11.2924 H   0  0  0  0  0  0  0  0  0  0  0  0
    8.6531    9.0577   13.3141 C   0  0  0  0  0  0  0  0  0  0  0  0
    9.6954    8.9280   13.0631 H   0  0  0  0  0  0  0  0  0  0  0  0
    8.2360    8.9258   14.6305 C   0  0  0  0  0  0  0  0  0  0  0  0
    8.9518    8.6970   15.4057 H   0  0  0  0  0  0  0  0  0  0  0  0
    6.8987    9.0975   14.9498 C   0  0  0  0  0  0  0  0  0  0  0  0
    6.5730    9.0095   15.9755 H   0  0  0  0  0  0  0  0  0  0  0  0
    5.9757    9.3891   13.9653 C   0  0  0  0  0  0  0  0  0  0  0  0
    4.9409    9.5538   14.2228 H   0  0  0  0  0  0  0  0  0  0  0  0
    5.2602    6.1442   14.1525 C   0  0  0  0  0  0  0  0  0  0  0  0
    6.1821    6.1779   13.1124 C   0  0  0  0  0  0  0  0  0  0  0  0
    5.8447    6.3976   12.1091 H   0  0  0  0  0  0  0  0  0  0  0  0
    7.5181    5.9308   13.3673 C   0  0  0  0  0  0  0  0  0  0  0  0
    8.2311    5.9515   12.5570 H   0  0  0  0  0  0  0  0  0  0  0  0
    7.9385    5.6571   14.6589 C   0  0  0  0  0  0  0  0  0  0  0  0
    8.9818    5.4608   14.8564 H   0  0  0  0  0  0  0  0  0  0  0  0
    7.0230    5.6383   15.6977 C   0  0  0  0  0  0  0  0  0  0  0  0
    7.3516    5.4323   16.7058 H   0  0  0  0  0  0  0  0  0  0  0  0
    5.6837    5.8818   15.4476 C   0  0  0  0  0  0  0  0  0  0  0  0
    4.9664    5.8671   16.2561 H   0  0  0  0  0  0  0  0  0  0  0  0
    2.5435    6.1616   15.2733 C   0  0  0  0  0  0  0  0  0  0  0  0
    1.8720    7.1979   15.9043 C   0  0  0  0  0  0  0  0  0  0  0  0
    1.9556    8.1978   15.5036 H   0  0  0  0  0  0  0  0  0  0  0  0
    1.1034    6.9357   17.0252 C   0  0  0  0  0  0  0  0  0  0  0  0
    0.5765    7.7389   17.5185 H   0  0  0  0  0  0  0  0  0  0  0  0
    1.0091    5.6418   17.5106 C   0  0  0  0  0  0  0  0  0  0  0  0
    0.4085    5.4367   18.3843 H   0  0  0  0  0  0  0  0  0  0  0  0
    1.6787    4.6054   16.8765 C   0  0  0  0  0  0  0  0  0  0  0  0
    1.5984    3.5975   17.2564 H   0  0  0  0  0  0  0  0  0  0  0  0
    2.4445    4.8619   15.7550 C   0  0  0  0  0  0  0  0  0  0  0  0
    2.9670    4.0635   15.2455 H   0  0  0  0  0  0  0  0  0  0  0  0
    2.9100    5.3094   12.5667 C   0  0  0  0  0  0  0  0  0  0  0  0
    3.6452    4.2153   12.1360 C   0  0  0  0  0  0  0  0  0  0  0  0
    4.6486    4.0571   12.5045 H   0  0  0  0  0  0  0  0  0  0  0  0
    3.0891    3.3407   11.2191 C   0  0  0  0  0  0  0  0  0  0  0  0
    3.6626    2.4941   10.8711 H   0  0  0  0  0  0  0  0  0  0  0  0
    1.8064    3.5527   10.7415 C   0  0  0  0  0  0  0  0  0  0  0  0
    1.3828    2.8721   10.0178 H   0  0  0  0  0  0  0  0  0  0  0  0
    1.0658    4.6349   11.1887 C   0  0  0  0  0  0  0  0  0  0  0  0
    0.0650    4.7998   10.8190 H   0  0  0  0  0  0  0  0  0  0  0  0
    1.6133    5.5087   12.1087 C   0  0  0  0  0  0  0  0  0  0  0  0
    1.0513    6.3618   12.4629 H   0  0  0  0  0  0  0  0  0  0  0  0
  1 10  1  0  0  0  0
  1  3  1  0  0  0  0
  1  5  1  0  0  0  0
  2  1  1  0  0  0  0
  4  1  1  0  0  0  0
  5  6  1  0  0  0  0
  6 29  1  0  0  0  0
  6 40  1  0  0  0  0
  7  1  1  0  0  0  0
  8 17  2  0  0  0  0
  9 10  1  0  0  0  0
 10 18  1  0  0  0  0
 11 12  1  0  0  0  0
 11  7  1  0  0  0  0
 13 11  1  0  0  0  0
 14 13  1  0  0  0  0
 15 13  2  0  0  0  0
 15  8  1  0  0  0  0
 16 15  1  0  0  0  0
 17  7  1  0  0  0  0
 17  9  1  0  0  0  0
 18 27  1  0  0  0  0
 19 18  2  0  0  0  0
 19 21  1  0  0  0  0
 20 19  1  0  0  0  0
 21 23  2  0  0  0  0
 22 21  1  0  0  0  0
 23 25  1  0  0  0  0
 23 24  1  0  0  0  0
 25 26  1  0  0  0  0
 27 28  1  0  0  0  0
 27 25  2  0  0  0  0
 29 38  1  0  0  0  0
 30 32  1  0  0  0  0
 30 29  2  0  0  0  0
 31 30  1  0  0  0  0
 32 34  2  0  0  0  0
 33 32  1  0  0  0  0
 34 35  1  0  0  0  0
 34 36  1  0  0  0  0
 36 37  1  0  0  0  0
 38 36  2  0  0  0  0
 38 39  1  0  0  0  0
 40 49  2  0  0  0  0
 40 41  1  0  0  0  0
 41 43  2  0  0  0  0
 42 41  1  0  0  0  0
 43 45  1  0  0  0  0
 43 44  1  0  0  0  0
 45 46  1  0  0  0  0
 47 48  1  0  0  0  0
 47 45  2  0  0  0  0
 49 47  1  0  0  0  0
 50 49  1  0  0  0  0
 51  6  1  0  0  0  0
 52 53  1  0  0  0  0
 52 51  1  0  0  0  0
 54 52  2  0  0  0  0
 55 54  1  0  0  0  0
 56 58  2  0  0  0  0
 56 54  1  0  0  0  0
 57 56  1  0  0  0  0
 58 60  1  0  0  0  0
 59 58  1  0  0  0  0
 60 61  1  0  0  0  0
 60 51  2  0  0  0  0
M  END
$$$$
