CSD_code = LUZKEY | q = 0 | S = 0 | Stoichiometry = C33H31ClN2Ti | MND = 8
 OpenBabel04212202063D

 68 73  0  0  1  0  0  0  0  0999 V2000
    0.4615    1.5975    3.5993 Ti  0  0  1  0  0  0  0  0  0  0  0  0
    1.3805    3.2773    4.6997 Cl  0  0  0  0  0  0  0  0  0  0  0  0
    0.0014    0.4348    4.9373 N   0  0  0  0  0  0  0  0  0  0  0  0
   -1.3103    2.1185    3.5663 N   0  0  0  0  0  0  0  0  0  0  0  0
    0.6721    0.1126    1.8514 C   0  0  2  0  0  0  0  0  0  0  0  0
   -0.0220   -0.6832    1.6075 H   0  0  0  0  0  0  0  0  0  0  0  0
    1.8533   -0.0397    2.6138 C   0  0  0  0  0  0  0  0  0  0  0  0
    2.1927   -0.9614    3.0711 H   0  0  0  0  0  0  0  0  0  0  0  0
    2.5688    1.1677    2.5532 C   0  0  0  0  0  0  0  0  0  0  0  0
    3.5527    1.3467    2.9683 H   0  0  0  0  0  0  0  0  0  0  0  0
    1.8487    2.0657    1.7402 C   0  0  0  0  0  0  0  0  0  0  0  0
    2.1967    3.0406    1.4197 H   0  0  0  0  0  0  0  0  0  0  0  0
    0.6811    1.4165    1.2963 C   0  0  0  0  0  0  0  0  0  0  0  0
   -0.0108    1.8039    0.5567 H   0  0  0  0  0  0  0  0  0  0  0  0
    0.8713   -0.3856    5.6233 C   0  0  0  0  0  0  0  0  0  0  0  0
    2.1979    0.0479    5.8037 C   0  0  0  0  0  0  0  0  0  0  0  0
    2.4762    1.0413    5.4635 H   0  0  0  0  0  0  0  0  0  0  0  0
    3.1250   -0.7461    6.4464 C   0  0  0  0  0  0  0  0  0  0  0  0
    4.1357   -0.3863    6.5762 H   0  0  0  0  0  0  0  0  0  0  0  0
    2.7671   -1.9922    6.9384 C   0  0  0  0  0  0  0  0  0  0  0  0
    3.4934   -2.6102    7.4436 H   0  0  0  0  0  0  0  0  0  0  0  0
    1.4629   -2.4286    6.7814 C   0  0  0  0  0  0  0  0  0  0  0  0
    1.1693   -3.3964    7.1623 H   0  0  0  0  0  0  0  0  0  0  0  0
    0.5253   -1.6437    6.1391 C   0  0  0  0  0  0  0  0  0  0  0  0
   -0.4769   -2.0266    6.0169 H   0  0  0  0  0  0  0  0  0  0  0  0
   -1.4011    0.4099    5.3073 C   0  0  1  0  0  0  0  0  0  0  0  0
   -1.7882   -0.6212    5.3205 H   0  0  0  0  0  0  0  0  0  0  0  0
   -1.5437    1.0098    6.6915 C   0  0  0  0  0  0  0  0  0  0  0  0
   -1.2163    2.3461    6.8981 C   0  0  0  0  0  0  0  0  0  0  0  0
   -0.8978    2.9544    6.0579 H   0  0  0  0  0  0  0  0  0  0  0  0
   -1.2937    2.8949    8.1636 C   0  0  0  0  0  0  0  0  0  0  0  0
   -1.0314    3.9327    8.3101 H   0  0  0  0  0  0  0  0  0  0  0  0
   -1.6980    2.1299    9.2522 C   0  0  0  0  0  0  0  0  0  0  0  0
   -2.0301    0.7993    9.0378 C   0  0  0  0  0  0  0  0  0  0  0  0
   -2.3488    0.1881    9.8702 H   0  0  0  0  0  0  0  0  0  0  0  0
   -1.9524    0.2435    7.7732 C   0  0  0  0  0  0  0  0  0  0  0  0
   -2.2132   -0.7960    7.6313 H   0  0  0  0  0  0  0  0  0  0  0  0
   -1.7964    2.7327   10.6204 C   0  0  0  0  0  0  0  0  0  0  0  0
   -1.0945    3.5555   10.7323 H   0  0  0  0  0  0  0  0  0  0  0  0
   -1.5952    1.9883   11.3874 H   0  0  0  0  0  0  0  0  0  0  0  0
   -2.8020    3.1221   10.7844 H   0  0  0  0  0  0  0  0  0  0  0  0
   -1.8410    3.1901    2.8914 C   0  0  0  0  0  0  0  0  0  0  0  0
   -0.9650    4.1681    2.3805 C   0  0  0  0  0  0  0  0  0  0  0  0
    0.1017    4.0769    2.5707 H   0  0  0  0  0  0  0  0  0  0  0  0
   -1.4416    5.2559    1.6798 C   0  0  0  0  0  0  0  0  0  0  0  0
   -0.7452    5.9916    1.3035 H   0  0  0  0  0  0  0  0  0  0  0  0
   -2.8019    5.4173    1.4618 C   0  0  0  0  0  0  0  0  0  0  0  0
   -3.1710    6.2697    0.9125 H   0  0  0  0  0  0  0  0  0  0  0  0
   -3.6779    4.4715    1.9646 C   0  0  0  0  0  0  0  0  0  0  0  0
   -4.7410    4.5832    1.8059 H   0  0  0  0  0  0  0  0  0  0  0  0
   -3.2162    3.3747    2.6664 C   0  0  0  0  0  0  0  0  0  0  0  0
   -3.9316    2.6503    3.0245 H   0  0  0  0  0  0  0  0  0  0  0  0
   -2.2155    1.2239    4.2564 C   0  0  2  0  0  0  0  0  0  0  0  0
   -2.9683    1.8140    4.8114 H   0  0  0  0  0  0  0  0  0  0  0  0
   -2.9654    0.2682    3.3419 C   0  0  0  0  0  0  0  0  0  0  0  0
   -3.9359   -0.5660    3.8878 C   0  0  0  0  0  0  0  0  0  0  0  0
   -4.1606   -0.5026    4.9438 H   0  0  0  0  0  0  0  0  0  0  0  0
   -4.6249   -1.4641    3.0949 C   0  0  0  0  0  0  0  0  0  0  0  0
   -5.3747   -2.1021    3.5407 H   0  0  0  0  0  0  0  0  0  0  0  0
   -4.3717   -1.5522    1.7318 C   0  0  0  0  0  0  0  0  0  0  0  0
   -3.4200   -0.7008    1.1855 C   0  0  0  0  0  0  0  0  0  0  0  0
   -3.2213   -0.7382    0.1237 H   0  0  0  0  0  0  0  0  0  0  0  0
   -2.7280    0.1993    1.9762 C   0  0  0  0  0  0  0  0  0  0  0  0
   -2.0176    0.8746    1.5203 H   0  0  0  0  0  0  0  0  0  0  0  0
   -5.0983   -2.5371    0.8681 C   0  0  0  0  0  0  0  0  0  0  0  0
   -4.4356   -3.3606    0.6011 H   0  0  0  0  0  0  0  0  0  0  0  0
   -5.4316   -2.0665   -0.0548 H   0  0  0  0  0  0  0  0  0  0  0  0
   -5.9615   -2.9475    1.3859 H   0  0  0  0  0  0  0  0  0  0  0  0
  1  2  1  1  0  0  0
  1  3  1  0  0  0  0
  3 26  1  0  0  0  0
  3 15  1  0  0  0  0
  4  1  1  0  0  0  0
  4 53  1  0  0  0  0
  5  6  1  6  0  0  0
  5  7  1  0  0  0  0
  5  1  1  0  0  0  0
  7  8  1  0  0  0  0
  9  7  2  0  0  0  0
  9 10  1  0  0  0  0
 11  9  1  0  0  0  0
 12 11  1  0  0  0  0
 13 11  2  0  0  0  0
 13  5  1  0  0  0  0
 14 13  1  0  0  0  0
 15 16  2  0  0  0  0
 15 24  1  0  0  0  0
 16 18  1  0  0  0  0
 17 16  1  0  0  0  0
 18 19  1  0  0  0  0
 18 20  2  0  0  0  0
 20 21  1  0  0  0  0
 22 20  1  0  0  0  0
 22 23  1  0  0  0  0
 24 22  2  0  0  0  0
 25 24  1  0  0  0  0
 26 27  1  1  0  0  0
 26 28  1  0  0  0  0
 28 29  2  0  0  0  0
 28 36  1  0  0  0  0
 29 31  1  0  0  0  0
 30 29  1  0  0  0  0
 31 32  1  0  0  0  0
 31 33  2  0  0  0  0
 33 38  1  0  0  0  0
 34 33  1  0  0  0  0
 34 35  1  0  0  0  0
 36 34  2  0  0  0  0
 37 36  1  0  0  0  0
 38 39  1  0  0  0  0
 38 41  1  0  0  0  0
 38 40  1  0  0  0  0
 42  4  1  0  0  0  0
 43 44  1  0  0  0  0
 43 42  2  0  0  0  0
 45 43  1  0  0  0  0
 46 45  1  0  0  0  0
 47 45  2  0  0  0  0
 47 49  1  0  0  0  0
 48 47  1  0  0  0  0
 49 51  2  0  0  0  0
 50 49  1  0  0  0  0
 51 42  1  0  0  0  0
 51 52  1  0  0  0  0
 53 54  1  1  0  0  0
 53 26  1  0  0  0  0
 55 56  1  0  0  0  0
 55 53  1  0  0  0  0
 56 57  1  0  0  0  0
 58 59  1  0  0  0  0
 58 56  2  0  0  0  0
 60 58  1  0  0  0  0
 61 60  2  0  0  0  0
 61 63  1  0  0  0  0
 62 61  1  0  0  0  0
 63 55  2  0  0  0  0
 64 63  1  0  0  0  0
 65 68  1  0  0  0  0
 65 60  1  0  0  0  0
 66 65  1  0  0  0  0
 67 65  1  0  0  0  0
M  END
$$$$
