CSD_code = LUZMUP | q = 0 | S = 0 | Stoichiometry = C26H26AsCl2PPtS | MND = 4
 OpenBabel04212202063D

 58 62  0  0  1  0  0  0  0  0999 V2000
   11.1313    6.6584    3.6435 Pt  0  0  0  0  0  0  0  0  0  0  0  0
    9.4341    6.9253    5.2647 As  0  0  2  0  0  0  0  0  0  0  0  0
    9.4617    6.6656    7.1802 C   0  0  0  0  0  0  0  0  0  0  0  0
    9.7417    7.7257    8.0343 C   0  0  0  0  0  0  0  0  0  0  0  0
    9.9560    8.7019    7.6108 H   0  0  0  0  0  0  0  0  0  0  0  0
    9.7639    7.5202    9.4030 C   0  0  0  0  0  0  0  0  0  0  0  0
    9.9809    8.3424   10.0693 H   0  0  0  0  0  0  0  0  0  0  0  0
    9.5136    6.2589    9.9193 C   0  0  0  0  0  0  0  0  0  0  0  0
    9.5317    6.1009   10.9875 H   0  0  0  0  0  0  0  0  0  0  0  0
    9.2515    5.1961    9.0695 C   0  0  0  0  0  0  0  0  0  0  0  0
    9.0683    4.2118    9.4758 H   0  0  0  0  0  0  0  0  0  0  0  0
    9.2323    5.3963    7.7003 C   0  0  0  0  0  0  0  0  0  0  0  0
    9.0425    4.5702    7.0195 H   0  0  0  0  0  0  0  0  0  0  0  0
    8.4127    8.5934    4.9917 C   0  0  2  0  0  0  0  0  0  0  0  0
    8.8984    9.5466    5.2095 H   0  0  0  0  0  0  0  0  0  0  0  0
    7.1465    8.3383    5.7640 C   0  0  0  0  0  0  0  0  0  0  0  0
    6.5075    9.4581    6.5144 C   0  0  0  0  0  0  0  0  0  0  0  0
    5.6342    9.1252    7.0680 H   0  0  0  0  0  0  0  0  0  0  0  0
    6.2020   10.2451    5.8234 H   0  0  0  0  0  0  0  0  0  0  0  0
    7.2217    9.8908    7.2149 H   0  0  0  0  0  0  0  0  0  0  0  0
    6.7131    7.0824    5.5997 C   0  0  0  0  0  0  0  0  0  0  0  0
    5.4754    6.4382    6.1309 C   0  0  0  0  0  0  0  0  0  0  0  0
    4.9833    7.0665    6.8676 H   0  0  0  0  0  0  0  0  0  0  0  0
    5.7233    5.4849    6.5983 H   0  0  0  0  0  0  0  0  0  0  0  0
    4.7705    6.2405    5.3209 H   0  0  0  0  0  0  0  0  0  0  0  0
    7.6199    6.3066    4.6872 C   0  0  1  0  0  0  0  0  0  0  0  0
    7.4027    5.2369    4.6318 H   0  0  0  0  0  0  0  0  0  0  0  0
    7.5677    6.9962    3.3092 C   0  0  1  0  0  0  0  0  0  0  0  0
    6.5342    7.0283    2.9375 H   0  0  0  0  0  0  0  0  0  0  0  0
    8.1148    8.4260    3.4915 C   0  0  0  0  0  0  0  0  0  0  0  0
    9.0542    8.5612    2.9311 H   0  0  0  0  0  0  0  0  0  0  0  0
    7.3990    9.1709    3.1350 H   0  0  0  0  0  0  0  0  0  0  0  0
    7.2965    4.9412    1.2175 C   0  0  0  0  0  0  0  0  0  0  0  0
    6.1647    4.4636    1.8645 C   0  0  0  0  0  0  0  0  0  0  0  0
    5.9304    4.7816    2.8700 H   0  0  0  0  0  0  0  0  0  0  0  0
    5.3271    3.5718    1.2168 C   0  0  0  0  0  0  0  0  0  0  0  0
    4.4456    3.2034    1.7204 H   0  0  0  0  0  0  0  0  0  0  0  0
    5.6186    3.1498   -0.0693 C   0  0  0  0  0  0  0  0  0  0  0  0
    4.9617    2.4544   -0.5696 H   0  0  0  0  0  0  0  0  0  0  0  0
    6.7559    3.6140   -0.7116 C   0  0  0  0  0  0  0  0  0  0  0  0
    6.9889    3.2800   -1.7113 H   0  0  0  0  0  0  0  0  0  0  0  0
    7.5955    4.5035   -0.0695 C   0  0  0  0  0  0  0  0  0  0  0  0
    8.4898    4.8682   -0.5567 H   0  0  0  0  0  0  0  0  0  0  0  0
    8.8686    7.2668    0.6977 C   0  0  0  0  0  0  0  0  0  0  0  0
    7.7978    7.9314    0.1044 C   0  0  0  0  0  0  0  0  0  0  0  0
    6.7860    7.7177    0.4237 H   0  0  0  0  0  0  0  0  0  0  0  0
    8.0391    8.8543   -0.8939 C   0  0  0  0  0  0  0  0  0  0  0  0
    7.2128    9.3736   -1.3568 H   0  0  0  0  0  0  0  0  0  0  0  0
    9.3408    9.1134   -1.3004 C   0  0  0  0  0  0  0  0  0  0  0  0
    9.5233    9.8394   -2.0785 H   0  0  0  0  0  0  0  0  0  0  0  0
   10.4010    8.4435   -0.7147 C   0  0  0  0  0  0  0  0  0  0  0  0
   11.4141    8.6406   -1.0287 H   0  0  0  0  0  0  0  0  0  0  0  0
   10.1702    7.5129    0.2854 C   0  0  0  0  0  0  0  0  0  0  0  0
   11.0031    6.9944    0.7475 H   0  0  0  0  0  0  0  0  0  0  0  0
   11.8638    8.3114    5.0732 Cl  0  0  0  0  0  0  0  0  0  0  0  0
   12.9251    6.7484    2.2487 Cl  0  0  0  0  0  0  0  0  0  0  0  0
    8.5120    6.0463    1.9980 P   0  0  0  0  0  4  0  0  0  0  0  0
   10.0341    4.8598    2.4960 S   0  0  0  0  0  0  0  0  0  0  0  0
  1 55  1  0  0  0  0
  2  3  1  1  0  0  0
  3 12  2  0  0  0  0
  3  4  1  0  0  0  0
  4  6  2  0  0  0  0
  5  4  1  0  0  0  0
  6  8  1  0  0  0  0
  6  7  1  0  0  0  0
  8  9  1  0  0  0  0
 10 11  1  0  0  0  0
 10  8  2  0  0  0  0
 12 10  1  0  0  0  0
 13 12  1  0  0  0  0
 14 15  1  1  0  0  0
 14  2  1  0  0  0  0
 14 16  1  0  0  0  0
 16 17  1  0  0  0  0
 17 18  1  0  0  0  0
 17 20  1  0  0  0  0
 19 17  1  0  0  0  0
 21 16  2  0  0  0  0
 21 22  1  0  0  0  0
 22 24  1  0  0  0  0
 22 23  1  0  0  0  0
 25 22  1  0  0  0  0
 26 27  1  6  0  0  0
 26  2  1  0  0  0  0
 26 21  1  0  0  0  0
 28 29  1  6  0  0  0
 28 30  1  0  0  0  0
 28 26  1  0  0  0  0
 30 14  1  0  0  0  0
 31 30  1  0  0  0  0
 32 30  1  0  0  0  0
 33 34  1  0  0  0  0
 33 57  1  0  0  0  0
 34 35  1  0  0  0  0
 36 37  1  0  0  0  0
 36 34  2  0  0  0  0
 38 36  1  0  0  0  0
 39 38  1  0  0  0  0
 40 42  1  0  0  0  0
 40 38  2  0  0  0  0
 41 40  1  0  0  0  0
 42 33  2  0  0  0  0
 43 42  1  0  0  0  0
 44 57  1  0  0  0  0
 45 46  1  0  0  0  0
 45 44  2  0  0  0  0
 47 45  1  0  0  0  0
 48 47  1  0  0  0  0
 49 47  2  0  0  0  0
 49 51  1  0  0  0  0
 50 49  1  0  0  0  0
 51 53  2  0  0  0  0
 52 51  1  0  0  0  0
 53 44  1  0  0  0  0
 53 54  1  0  0  0  0
 56  1  1  0  0  0  0
 57 58  1  0  0  0  0
 57 28  1  0  0  0  0
 58  1  1  0  0  0  0
M  END
$$$$
