CSD_code = LUZMOJ | q = 0 | S = 0 | Stoichiometry = C26H26AsBr2PPdS | MND = 4
 OpenBabel04212202063D

 58 62  0  0  1  0  0  0  0  0999 V2000
    4.0689    3.8575   12.2809 Pd  0  0  0  0  0  0  0  0  0  0  0  0
    4.8945    5.1485   10.5121 As  0  0  1  0  0  0  0  0  0  0  0  0
    5.3626    2.2515   11.0389 Br  0  0  0  0  0  0  0  0  0  0  0  0
    3.8033    2.4993   14.2632 Br  0  0  0  0  0  0  0  0  0  0  0  0
    1.6970    5.5746   11.5306 P   0  0  0  0  0  4  0  0  0  0  0  0
    2.8398    5.6606   13.1570 S   0  0  0  0  0  0  0  0  0  0  0  0
    6.7425    5.7000   10.3863 C   0  0  0  0  0  0  0  0  0  0  0  0
    7.2220    6.5474   11.3830 C   0  0  0  0  0  0  0  0  0  0  0  0
    6.5445    6.8733   12.1722 H   0  0  0  0  0  0  0  0  0  0  0  0
    8.5443    6.9527   11.3673 C   0  0  0  0  0  0  0  0  0  0  0  0
    8.9189    7.6124   12.1363 H   0  0  0  0  0  0  0  0  0  0  0  0
    9.3913    6.4982   10.3683 C   0  0  0  0  0  0  0  0  0  0  0  0
   10.4253    6.8094   10.3599 H   0  0  0  0  0  0  0  0  0  0  0  0
    8.9238    5.6330    9.3923 C   0  0  0  0  0  0  0  0  0  0  0  0
    9.5950    5.2676    8.6290 H   0  0  0  0  0  0  0  0  0  0  0  0
    7.6001    5.2268    9.3995 C   0  0  0  0  0  0  0  0  0  0  0  0
    7.2245    4.5297    8.6567 H   0  0  0  0  0  0  0  0  0  0  0  0
    3.7797    6.7346   10.0365 C   0  0  1  0  0  0  0  0  0  0  0  0
    3.6949    7.5712   10.7370 H   0  0  0  0  0  0  0  0  0  0  0  0
    4.3006    7.1079    8.6794 C   0  0  0  0  0  0  0  0  0  0  0  0
    4.3928    8.5485    8.2994 C   0  0  0  0  0  0  0  0  0  0  0  0
    4.9080    8.6778    7.3521 H   0  0  0  0  0  0  0  0  0  0  0  0
    4.9316    9.1036    9.0677 H   0  0  0  0  0  0  0  0  0  0  0  0
    3.3951    8.9829    8.2103 H   0  0  0  0  0  0  0  0  0  0  0  0
    5.0031    5.9512    6.5145 C   0  0  0  0  0  0  0  0  0  0  0  0
    5.3139    6.9224    6.1406 H   0  0  0  0  0  0  0  0  0  0  0  0
    4.1855    5.5854    5.8914 H   0  0  0  0  0  0  0  0  0  0  0  0
    5.8337    5.2540    6.4118 H   0  0  0  0  0  0  0  0  0  0  0  0
    4.5663    6.0239    7.9389 C   0  0  0  0  0  0  0  0  0  0  0  0
    4.2553    4.7539    8.6833 C   0  0  2  0  0  0  0  0  0  0  0  0
    4.5877    3.8356    8.1924 H   0  0  0  0  0  0  0  0  0  0  0  0
    2.7474    4.7286    8.9970 C   0  0  0  0  0  0  0  0  0  0  0  0
    2.5182    3.8005    9.5457 H   0  0  0  0  0  0  0  0  0  0  0  0
    2.1480    4.7292    8.0834 H   0  0  0  0  0  0  0  0  0  0  0  0
    2.4497    5.9795    9.8513 C   0  0  1  0  0  0  0  0  0  0  0  0
    1.6991    6.6090    9.3553 H   0  0  0  0  0  0  0  0  0  0  0  0
    0.6999    4.0702   11.2269 C   0  0  0  0  0  0  0  0  0  0  0  0
    1.1182    2.8049   11.6222 C   0  0  0  0  0  0  0  0  0  0  0  0
    2.0542    2.6644   12.1771 H   0  0  0  0  0  0  0  0  0  0  0  0
    0.3408    1.6983   11.3248 C   0  0  0  0  0  0  0  0  0  0  0  0
    0.6714    0.7212   11.6403 H   0  0  0  0  0  0  0  0  0  0  0  0
   -0.8460    1.8520   10.6286 C   0  0  0  0  0  0  0  0  0  0  0  0
   -1.4523    0.9892   10.3986 H   0  0  0  0  0  0  0  0  0  0  0  0
   -1.2581    3.1128   10.2230 C   0  0  0  0  0  0  0  0  0  0  0  0
   -2.1815    3.2326    9.6759 H   0  0  0  0  0  0  0  0  0  0  0  0
   -0.4889    4.2222   10.5157 C   0  0  0  0  0  0  0  0  0  0  0  0
   -0.8064    5.2071   10.2001 H   0  0  0  0  0  0  0  0  0  0  0  0
    0.4635    6.8701   11.8426 C   0  0  0  0  0  0  0  0  0  0  0  0
   -0.5456    6.5676   12.7530 C   0  0  0  0  0  0  0  0  0  0  0  0
   -0.6066    5.5687   13.1649 H   0  0  0  0  0  0  0  0  0  0  0  0
   -1.4576    7.5371   13.1220 C   0  0  0  0  0  0  0  0  0  0  0  0
   -2.2423    7.2976   13.8235 H   0  0  0  0  0  0  0  0  0  0  0  0
   -1.3583    8.8163   12.5969 C   0  0  0  0  0  0  0  0  0  0  0  0
   -2.0699    9.5749   12.8856 H   0  0  0  0  0  0  0  0  0  0  0  0
   -0.3403    9.1261   11.7111 C   0  0  0  0  0  0  0  0  0  0  0  0
   -0.2539   10.1264   11.3133 H   0  0  0  0  0  0  0  0  0  0  0  0
    0.5757    8.1583   11.3366 C   0  0  0  0  0  0  0  0  0  0  0  0
    1.3737    8.4145   10.6539 H   0  0  0  0  0  0  0  0  0  0  0  0
  1  6  1  0  0  0  0
  1  4  1  0  0  0  0
  2  7  1  6  0  0  0
  3  1  1  0  0  0  0
  5 48  1  0  0  0  0
  5  6  1  0  0  0  0
  7  8  1  0  0  0  0
  8  9  1  0  0  0  0
 10  8  2  0  0  0  0
 10 11  1  0  0  0  0
 12 10  1  0  0  0  0
 13 12  1  0  0  0  0
 14 16  1  0  0  0  0
 14 12  2  0  0  0  0
 15 14  1  0  0  0  0
 16  7  2  0  0  0  0
 17 16  1  0  0  0  0
 18  2  1  0  0  0  0
 18 19  1  1  0  0  0
 20 18  1  0  0  0  0
 21 20  1  0  0  0  0
 21 23  1  0  0  0  0
 22 21  1  0  0  0  0
 24 21  1  0  0  0  0
 25 29  1  0  0  0  0
 26 25  1  0  0  0  0
 27 25  1  0  0  0  0
 28 25  1  0  0  0  0
 29 20  2  0  0  0  0
 29 30  1  0  0  0  0
 30 31  1  6  0  0  0
 30 32  1  0  0  0  0
 30  2  1  0  0  0  0
 32 33  1  0  0  0  0
 32 35  1  0  0  0  0
 34 32  1  0  0  0  0
 35 36  1  6  0  0  0
 35 18  1  0  0  0  0
 35  5  1  0  0  0  0
 37  5  1  0  0  0  0
 37 38  1  0  0  0  0
 38 39  1  0  0  0  0
 40 38  2  0  0  0  0
 40 41  1  0  0  0  0
 42 40  1  0  0  0  0
 43 42  1  0  0  0  0
 44 46  1  0  0  0  0
 44 42  2  0  0  0  0
 45 44  1  0  0  0  0
 46 37  2  0  0  0  0
 47 46  1  0  0  0  0
 48 49  1  0  0  0  0
 49 51  2  0  0  0  0
 49 50  1  0  0  0  0
 51 52  1  0  0  0  0
 53 54  1  0  0  0  0
 53 51  1  0  0  0  0
 55 53  2  0  0  0  0
 56 55  1  0  0  0  0
 57 55  1  0  0  0  0
 57 48  2  0  0  0  0
 58 57  1  0  0  0  0
M  END
$$$$
