CSD_code = LUZROP | q = 0 | S = 0 | Stoichiometry = C24H32ClNPRh | MND = 6
 OpenBabel04212202063D

 60 60  0  0  1  0  0  0  0  0999 V2000
    3.5349    1.8086    3.3641 Rh  0  0  0  0  0  0  0  0  0  0  0  0
    2.0138    3.2875    2.5203 P   0  0  0  0  0  0  0  0  0  0  0  0
    3.0633    2.6152    5.4249 Cl  0  0  0  0  0 15  0  0  0  0  0  0
    0.8982    3.8013    3.6421 N   0  0  0  0  0  0  0  0  0  0  0  0
    1.2789    3.5657    4.5633 H   0  0  0  0  0  0  0  0  0  0  0  0
    0.0576    4.9958    3.7344 C   0  0  0  0  0  0  0  0  0  0  0  0
   -0.9190    4.7336    4.8863 C   0  0  0  0  0  0  0  0  0  0  0  0
   -1.4857    3.8250    4.6988 H   0  0  0  0  0  0  0  0  0  0  0  0
   -1.6137    5.5631    4.9899 H   0  0  0  0  0  0  0  0  0  0  0  0
   -0.3769    4.6146    5.8214 H   0  0  0  0  0  0  0  0  0  0  0  0
    0.9006    6.2346    4.0568 C   0  0  0  0  0  0  0  0  0  0  0  0
    1.5324    6.0382    4.9203 H   0  0  0  0  0  0  0  0  0  0  0  0
    0.2578    7.0828    4.2801 H   0  0  0  0  0  0  0  0  0  0  0  0
    1.5388    6.4942    3.2160 H   0  0  0  0  0  0  0  0  0  0  0  0
   -0.7240    5.2074    2.4414 C   0  0  0  0  0  0  0  0  0  0  0  0
   -0.0449    5.3107    1.6010 H   0  0  0  0  0  0  0  0  0  0  0  0
   -1.3230    6.1117    2.5166 H   0  0  0  0  0  0  0  0  0  0  0  0
   -1.3835    4.3652    2.2500 H   0  0  0  0  0  0  0  0  0  0  0  0
    2.9458    4.7346    1.8589 C   0  0  0  0  0  0  0  0  0  0  0  0
    4.1503    4.9878    2.5114 C   0  0  0  0  0  0  0  0  0  0  0  0
    4.4591    4.3191    3.3140 H   0  0  0  0  0  0  0  0  0  0  0  0
    4.9386    6.0633    2.1489 C   0  0  0  0  0  0  0  0  0  0  0  0
    5.8700    6.2512    2.6628 H   0  0  0  0  0  0  0  0  0  0  0  0
    4.5314    6.8995    1.1215 C   0  0  0  0  0  0  0  0  0  0  0  0
    5.1430    7.7414    0.8324 H   0  0  0  0  0  0  0  0  0  0  0  0
    3.3390    6.6518    0.4622 C   0  0  0  0  0  0  0  0  0  0  0  0
    3.0212    7.3003   -0.3416 H   0  0  0  0  0  0  0  0  0  0  0  0
    2.5476    5.5758    0.8268 C   0  0  0  0  0  0  0  0  0  0  0  0
    1.6232    5.3949    0.2963 H   0  0  0  0  0  0  0  0  0  0  0  0
    0.9887    2.7313    1.1164 C   0  0  0  0  0  0  0  0  0  0  0  0
    1.4153    2.7784   -0.2064 C   0  0  0  0  0  0  0  0  0  0  0  0
    2.3582    3.2442   -0.4566 H   0  0  0  0  0  0  0  0  0  0  0  0
    0.6368    2.2290   -1.2101 C   0  0  0  0  0  0  0  0  0  0  0  0
    0.9714    2.2800   -2.2364 H   0  0  0  0  0  0  0  0  0  0  0  0
   -0.5630    1.6098   -0.9029 C   0  0  0  0  0  0  0  0  0  0  0  0
   -1.1684    1.1835   -1.6893 H   0  0  0  0  0  0  0  0  0  0  0  0
   -0.9764    1.5248    0.4173 C   0  0  0  0  0  0  0  0  0  0  0  0
   -1.9019    1.0235    0.6622 H   0  0  0  0  0  0  0  0  0  0  0  0
   -0.1997    2.0729    1.4199 C   0  0  0  0  0  0  0  0  0  0  0  0
   -0.4978    1.9960    2.4562 H   0  0  0  0  0  0  0  0  0  0  0  0
    5.4137    0.9524    4.0521 C   0  0  0  0  0  3  0  0  0  0  0  0
    5.7449    1.5904    4.8724 H   0  0  0  0  0  0  0  0  0  0  0  0
    4.3940    0.0579    4.3099 C   0  0  0  0  0  3  0  0  0  0  0  0
    3.9978    0.0138    5.3242 H   0  0  0  0  0  0  0  0  0  0  0  0
    4.0758   -1.1637    3.4821 C   0  0  0  0  0  0  0  0  0  0  0  0
    3.0942   -1.5322    3.7912 H   0  0  0  0  0  0  0  0  0  0  0  0
    4.8041   -1.9505    3.7086 H   0  0  0  0  0  0  0  0  0  0  0  0
    4.0483   -0.8835    1.9685 C   0  0  0  0  0  0  0  0  0  0  0  0
    5.0332   -1.0479    1.5291 H   0  0  0  0  0  0  0  0  0  0  0  0
    3.3629   -1.5891    1.4944 H   0  0  0  0  0  0  0  0  0  0  0  0
    3.5936    0.5267    1.6561 C   0  0  0  0  0  3  0  0  0  0  0  0
    2.6364    0.5809    1.1390 H   0  0  0  0  0  0  0  0  0  0  0  0
    4.4726    1.5942    1.4803 C   0  0  2  0  0  0  0  0  0  0  0  0
    4.1640    2.3916    0.8041 H   0  0  0  0  0  0  0  0  0  0  0  0
    5.9732    1.5207    1.6460 C   0  0  0  0  0  0  0  0  0  0  0  0
    6.3552    2.5452    1.6727 H   0  0  0  0  0  0  0  0  0  0  0  0
    6.4126    1.0357    0.7669 H   0  0  0  0  0  0  0  0  0  0  0  0
    6.4126    0.7889    2.9284 C   0  0  0  0  0  0  0  0  0  0  0  0
    6.5565   -0.2744    2.7321 H   0  0  0  0  0  0  0  0  0  0  0  0
    7.3758    1.1911    3.2493 H   0  0  0  0  0  0  0  0  0  0  0  0
  2  4  1  0  0  0  0
  4  6  1  0  0  0  0
  4  5  1  0  0  0  0
  6 11  1  0  0  0  0
  6  7  1  0  0  0  0
  7  9  1  0  0  0  0
  7 10  1  0  0  0  0
  8  7  1  0  0  0  0
 11 13  1  0  0  0  0
 11 12  1  0  0  0  0
 14 11  1  0  0  0  0
 15 17  1  0  0  0  0
 15  6  1  0  0  0  0
 16 15  1  0  0  0  0
 18 15  1  0  0  0  0
 19 20  1  0  0  0  0
 19  2  1  0  0  0  0
 20 21  1  0  0  0  0
 22 20  2  0  0  0  0
 22 23  1  0  0  0  0
 24 22  1  0  0  0  0
 25 24  1  0  0  0  0
 26 28  1  0  0  0  0
 26 24  2  0  0  0  0
 27 26  1  0  0  0  0
 28 19  2  0  0  0  0
 29 28  1  0  0  0  0
 30 39  1  0  0  0  0
 30  2  1  0  0  0  0
 31 30  2  0  0  0  0
 32 31  1  0  0  0  0
 33 35  2  0  0  0  0
 33 31  1  0  0  0  0
 34 33  1  0  0  0  0
 35 37  1  0  0  0  0
 36 35  1  0  0  0  0
 37 38  1  0  0  0  0
 37 39  2  0  0  0  0
 39 40  1  0  0  0  0
 41 43  1  0  0  0  0
 41 42  1  0  0  0  0
 43 44  1  0  0  0  0
 45 47  1  0  0  0  0
 45 46  1  0  0  0  0
 45 43  1  0  0  0  0
 48 45  1  0  0  0  0
 49 48  1  0  0  0  0
 50 48  1  0  0  0  0
 51 48  1  0  0  0  0
 52 51  1  0  0  0  0
 53 54  1  6  0  0  0
 53 55  1  0  0  0  0
 53 51  1  0  0  0  0
 53  1  1  0  0  0  0
 55 56  1  0  0  0  0
 55 58  1  0  0  0  0
 57 55  1  0  0  0  0
 58 60  1  0  0  0  0
 58 41  1  0  0  0  0
 59 58  1  0  0  0  0
M  END
$$$$
