CSD_code = MABMUY | q = 0 | S = 0 | Stoichiometry = C16H12Cl4N5Re | MND = 6
 OpenBabel04212202063D

 38 41  0  0  0  0  0  0  0  0999 V2000
    1.0269   -4.5583    0.5894 Re  0  0  0  0  0  0  0  0  0  0  0  0
   -1.0794   -5.3957    0.3267 Cl  0  0  0  0  0  0  0  0  0  0  0  0
    1.7856   -6.2166   -0.9104 Cl  0  0  0  0  0  0  0  0  0  0  0  0
    0.2412   -3.3969    2.4846 Cl  0  0  0  0  0  0  0  0  0  0  0  0
    0.0467    0.9455   -4.5121 Cl  0  0  0  0  0  0  0  0  0  0  0  0
    1.4522   -6.0847    2.0466 N   0  0  0  0  0  0  0  0  0  0  0  0
    3.4897   -4.9906    2.0588 N   0  0  0  0  0  2  0  0  0  0  0  0
    2.9325   -4.2294    1.1788 N   0  0  0  0  0  0  0  0  0  0  0  0
    5.0877   -3.0830    1.1473 C   0  0  0  0  0  0  0  0  0  0  0  0
    5.4785   -3.7829    1.8669 H   0  0  0  0  0  0  0  0  0  0  0  0
    0.9116   -3.2400   -0.5645 N   0  0  0  0  0  2  0  0  0  0  0  0
    0.6708   -7.0571    2.4982 C   0  0  0  0  0  3  0  0  0  0  0  0
   -0.3264   -7.0939    2.0772 H   0  0  0  0  0  0  0  0  0  0  0  0
    1.0900   -7.9712    3.4451 C   0  0  0  0  0  0  0  0  0  0  0  0
    0.4158   -8.7426    3.7791 H   0  0  0  0  0  0  0  0  0  0  0  0
    2.3848   -7.8763    3.9526 C   0  0  0  0  0  0  0  0  0  0  0  0
    2.7340   -8.5793    4.6935 H   0  0  0  0  0  0  0  0  0  0  0  0
    3.2087   -6.8752    3.4953 C   0  0  0  0  0  0  0  0  0  0  0  0
    4.2190   -6.7451    3.8445 H   0  0  0  0  0  0  0  0  0  0  0  0
    2.7117   -5.9844    2.5322 C   0  0  0  0  0  0  0  0  0  0  0  0
    3.7650   -3.2131    0.7079 C   0  0  0  0  0  0  0  0  0  0  0  0
    3.2312   -2.3825   -0.1767 N   0  0  0  0  0  0  0  0  0  0  0  0
    3.9583   -1.4001   -0.6640 C   0  0  0  0  0  0  0  0  0  0  0  0
    3.4571   -0.7625   -1.3802 H   0  0  0  0  0  0  0  0  0  0  0  0
    5.2790   -1.1842   -0.2939 C   0  0  0  0  0  0  0  0  0  0  0  0
    5.8432   -0.3680   -0.7153 H   0  0  0  0  0  0  0  0  0  0  0  0
    5.8462   -2.0498    0.6316 C   0  0  0  0  0  0  0  0  0  0  0  0
    6.8706   -1.9207    0.9478 H   0  0  0  0  0  0  0  0  0  0  0  0
    0.7298   -2.2851   -1.4569 C   0  0  0  0  0  0  0  0  0  0  0  0
    0.2173   -1.0284   -1.0684 C   0  0  0  0  0  0  0  0  0  0  0  0
   -0.0057   -0.8690   -0.0253 H   0  0  0  0  0  0  0  0  0  0  0  0
    0.0067   -0.0459   -2.0068 C   0  0  0  0  0  0  0  0  0  0  0  0
   -0.3897    0.9136   -1.7132 H   0  0  0  0  0  0  0  0  0  0  0  0
    0.3057   -0.2903   -3.3442 C   0  0  0  0  0  0  0  0  0  0  0  0
    0.8145   -1.5216   -3.7480 C   0  0  0  0  0  0  0  0  0  0  0  0
    1.0375   -1.6936   -4.7894 H   0  0  0  0  0  0  0  0  0  0  0  0
    1.0287   -2.5112   -2.8179 C   0  0  0  0  0  0  0  0  0  0  0  0
    1.4201   -3.4756   -3.1008 H   0  0  0  0  0  0  0  0  0  0  0  0
  1  8  1  0  0  0  0
  1  6  1  0  0  0  0
  1  4  1  0  0  0  0
  2  1  1  0  0  0  0
  3  1  1  0  0  0  0
  5 34  1  0  0  0  0
  6 12  1  0  0  0  0
  6 20  1  0  0  0  0
  7 20  1  0  0  0  0
  8  7  1  0  0  0  0
  9 10  1  0  0  0  0
 11  1  1  0  0  0  0
 12 14  1  0  0  0  0
 13 12  1  0  0  0  0
 14 15  1  0  0  0  0
 14 16  2  0  0  0  0
 16 17  1  0  0  0  0
 18 19  1  0  0  0  0
 18 16  1  0  0  0  0
 20 18  2  0  0  0  0
 21  9  1  0  0  0  0
 21  8  1  0  0  0  0
 22 21  2  0  0  0  0
 23 25  2  0  0  0  0
 23 22  1  0  0  0  0
 24 23  1  0  0  0  0
 25 27  1  0  0  0  0
 26 25  1  0  0  0  0
 27 28  1  0  0  0  0
 27  9  2  0  0  0  0
 29 30  1  0  0  0  0
 29 11  1  0  0  0  0
 30 31  1  0  0  0  0
 32 33  1  0  0  0  0
 32 30  2  0  0  0  0
 34 32  1  0  0  0  0
 35 34  2  0  0  0  0
 35 37  1  0  0  0  0
 36 35  1  0  0  0  0
 37 29  2  0  0  0  0
 38 37  1  0  0  0  0
M  END
$$$$
