CSD_code = MACGII | q = 1 | S = 0 | Stoichiometry = C8H11AuClN4O3(1+) | MND = 4
 OpenBabel04212202063D

 28 30  0  0  1  0  0  0  0  0999 V2000
   19.2034    4.6907   11.9752 Au  0  0  1  0  0  0  0  0  0  0  0  0
   18.5338    4.2741   14.0989 Cl  0  0  0  0  0  0  0  0  0  0  0  0
   18.7127    4.5775    8.0084 O   0  0  0  0  0  0  0  0  0  0  0  0
   20.8246    2.8932   11.0017 O   0  0  0  0  0  0  0  0  0  0  0  0
   22.4446    3.0381    9.4753 O   0  0  0  0  0  0  0  0  0  0  0  0
   22.7154    2.1487    9.7675 H   0  0  0  0  0  0  0  0  0  0  0  0
   17.4248    4.0383   11.2434 N   0  0  0  0  0  4  0  0  0  0  0  0
   17.4731    3.0206   11.1489 H   0  0  0  0  0  0  0  0  0  0  0  0
   16.6371    4.2292   11.8675 H   0  0  0  0  0  0  0  0  0  0  0  0
   19.5660    5.0338   10.0621 N   0  0  0  0  0  0  0  0  0  0  0  0
   20.9491    5.4038   12.5515 N   0  0  0  0  0  0  0  0  0  0  0  0
   22.6505    5.9105   13.8019 N   0  0  0  0  0  0  0  0  0  0  0  0
   23.2275    6.0489   14.6204 H   0  0  0  0  0  0  0  0  0  0  0  0
   17.2163    4.6480    9.9134 C   0  0  0  0  0  0  0  0  0  0  0  0
   16.5123    4.0757    9.3050 H   0  0  0  0  0  0  0  0  0  0  0  0
   16.8330    5.6640   10.0335 H   0  0  0  0  0  0  0  0  0  0  0  0
   18.5670    4.7280    9.1925 C   0  0  0  0  0  0  0  0  0  0  0  0
   20.9293    4.8644    9.6377 C   0  0  1  0  0  0  0  0  0  0  0  0
   20.9761    4.9069    8.5436 H   0  0  0  0  0  0  0  0  0  0  0  0
   21.8259    5.9534   10.2423 C   0  0  0  0  0  0  0  0  0  0  0  0
   22.8186    5.9023    9.7944 H   0  0  0  0  0  0  0  0  0  0  0  0
   21.3872    6.9232    9.9898 H   0  0  0  0  0  0  0  0  0  0  0  0
   21.9535    5.8396   11.7235 C   0  0  0  0  0  0  0  0  0  0  0  0
   23.0225    6.1565   12.5139 C   0  0  0  0  0  0  0  0  0  0  0  0
   23.9883    6.5346   12.2489 H   0  0  0  0  0  0  0  0  0  0  0  0
   21.4029    5.4553   13.7976 C   0  0  0  0  0  3  0  0  0  0  0  0
   20.8344    5.1680   14.6610 H   0  0  0  0  0  0  0  0  0  0  0  0
   21.3926    3.4849   10.1072 C   0  0  0  0  0  0  0  0  0  0  0  0
  1 11  1  0  0  0  0
  1  2  1  1  0  0  0
  3 17  2  0  0  0  0
  5  6  1  0  0  0  0
  5 28  1  0  0  0  0
  7  9  1  0  0  0  0
  7  1  1  0  0  0  0
  8  7  1  0  0  0  0
 10  1  1  0  0  0  0
 11 26  1  0  0  0  0
 12 13  1  0  0  0  0
 14 16  1  0  0  0  0
 14  7  1  0  0  0  0
 15 14  1  0  0  0  0
 17 14  1  0  0  0  0
 17 10  1  0  0  0  0
 18 19  1  6  0  0  0
 18 10  1  0  0  0  0
 18 28  1  0  0  0  0
 18 20  1  0  0  0  0
 20 23  1  0  0  0  0
 21 20  1  0  0  0  0
 22 20  1  0  0  0  0
 23 24  2  0  0  0  0
 23 11  1  0  0  0  0
 24 12  1  0  0  0  0
 25 24  1  0  0  0  0
 26 12  1  0  0  0  0
 26 27  1  0  0  0  0
 28  4  2  0  0  0  0
M  END
$$$$
