CSD_code = MACGON | q = 0 | S = 0 | Stoichiometry = C10H9Br2N3Pd | MND = 4
 OpenBabel04212202063D

 25 27  0  0  1  0  0  0  0  0999 V2000
    3.4021    2.4525    9.1149 Pd  0  0  0  0  0  0  0  0  0  0  0  0
    3.9898    2.7728    6.8561 Br  0  0  0  0  0  0  0  0  0  0  0  0
    2.2019    0.4981    8.5759 Br  0  0  0  0  0  0  0  0  0  0  0  0
    4.5697    4.0748    9.7120 N   0  0  0  0  0  0  0  0  0  0  0  0
    3.0720    2.1648   11.1558 N   0  0  0  0  0  0  0  0  0  0  0  0
    5.3313    2.7449   11.5050 N   0  0  0  0  0  0  0  0  0  0  0  0
    6.1155    2.6005   12.1272 H   0  0  0  0  0  0  0  0  0  0  0  0
    4.6916    5.1670    8.9547 C   0  0  0  0  0  3  0  0  0  0  0  0
    3.9139    5.3268    8.2177 H   0  0  0  0  0  0  0  0  0  0  0  0
    5.7502    6.0446    9.0770 C   0  0  0  0  0  0  0  0  0  0  0  0
    5.8081    6.9116    8.4413 H   0  0  0  0  0  0  0  0  0  0  0  0
    6.7408    5.7641   10.0097 C   0  0  0  0  0  0  0  0  0  0  0  0
    7.6013    6.4066   10.1129 H   0  0  0  0  0  0  0  0  0  0  0  0
    6.6027    4.6534   10.8168 C   0  0  0  0  0  0  0  0  0  0  0  0
    7.3433    4.4114   11.5637 H   0  0  0  0  0  0  0  0  0  0  0  0
    5.4822    3.8315   10.6559 C   0  0  0  0  0  0  0  0  0  0  0  0
    4.1595    2.1361   11.9298 C   0  0  1  0  0  3  0  0  0  0  0  0
    4.1511    1.5022   13.1769 C   0  0  0  0  0  0  0  0  0  0  0  0
    5.0554    1.4615   13.7647 H   0  0  0  0  0  0  0  0  0  0  0  0
    2.9786    0.9350   13.6326 C   0  0  0  0  0  0  0  0  0  0  0  0
    2.9531    0.4347   14.5880 H   0  0  0  0  0  0  0  0  0  0  0  0
    1.8358    1.0320   12.8485 C   0  0  0  0  0  0  0  0  0  0  0  0
    0.8955    0.6218   13.1752 H   0  0  0  0  0  0  0  0  0  0  0  0
    1.9325    1.6428   11.6144 C   0  0  0  0  0  0  0  0  0  0  0  0
    1.0762    1.7107   10.9544 H   0  0  0  0  0  0  0  0  0  0  0  0
  1  4  1  0  0  0  0
  1  5  1  0  0  0  0
  2  1  1  0  0  0  0
  3  1  1  0  0  0  0
  4 16  1  0  0  0  0
  5 24  1  0  0  0  0
  5 17  1  0  0  0  0
  6 17  1  0  0  0  0
  6  7  1  0  0  0  0
  8 10  1  0  0  0  0
  8  4  1  0  0  0  0
  9  8  1  0  0  0  0
 10 12  2  0  0  0  0
 11 10  1  0  0  0  0
 12 13  1  0  0  0  0
 12 14  1  0  0  0  0
 14 15  1  0  0  0  0
 16 14  2  0  0  0  0
 16  6  1  0  0  0  0
 17 18  1  1  0  0  0
 18 20  2  0  0  0  0
 18 19  1  0  0  0  0
 20 21  1  0  0  0  0
 22 23  1  0  0  0  0
 22 20  1  0  0  0  0
 24 22  2  0  0  0  0
 25 24  1  0  0  0  0
M  END
$$$$
