CSD_code = MADXUM | q = 0 | S = 0 | Stoichiometry = C23H33BCl2N6PRh | MND = 6
 OpenBabel04212202063D

 67 72  0  0  1  0  0  0  0  0999 V2000
   -2.3885    0.1052   14.9756 Rh  0  0  0  0  0  0  0  0  0  0  0  0
   -0.2185   -0.0638   14.2898 Cl  0  0  0  0  0  0  0  0  0  0  0  0
   -1.6765    1.5046   16.6426 Cl  0  0  0  0  0  0  0  0  0  0  0  0
   -2.5583    2.0681   13.7996 P   0  0  0  0  0  4  0  0  0  0  0  0
   -4.3856    0.0395   15.7728 N   0  0  2  0  0  0  0  0  0  0  0  0
   -5.0575   -1.0926   15.4708 N   0  0  0  0  0  0  0  0  0  0  0  0
   -2.1799   -1.6116   16.0744 N   0  0  2  0  0  0  0  0  0  0  0  0
   -3.1212   -2.5623   15.9129 N   0  0  0  0  0  0  0  0  0  0  0  0
   -2.8876   -1.1312   13.3617 N   0  0  1  0  0  0  0  0  0  0  0  0
   -3.7981   -2.0941   13.5765 N   0  0  0  0  0  0  0  0  0  0  0  0
   -4.3278   -2.3536   14.9841 B   0  0  2  0  0  0  0  0  0  0  0  0
   -5.0430   -3.2875   15.0040 H   0  0  0  0  0  0  0  0  0  0  0  0
   -5.2081    0.8250   16.4705 C   0  0  1  0  0  3  0  0  0  0  0  0
   -6.4537    0.1963   16.5711 C   0  0  0  0  0  0  0  0  0  0  0  0
   -7.3238    0.5823   17.0619 H   0  0  0  0  0  0  0  0  0  0  0  0
   -6.3193   -1.0173   15.9322 C   0  0  0  0  0  0  0  0  0  0  0  0
   -1.2905   -2.0424   16.9664 C   0  0  2  0  0  3  0  0  0  0  0  0
   -1.6750   -3.3189   17.3872 C   0  0  0  0  0  0  0  0  0  0  0  0
   -1.1663   -3.9371   18.0985 H   0  0  0  0  0  0  0  0  0  0  0  0
   -2.8359   -3.6144   16.7018 C   0  0  0  0  0  0  0  0  0  0  0  0
   -2.5086   -1.1998   12.0854 C   0  0  2  0  0  3  0  0  0  0  0  0
   -3.2210   -2.2298   11.4650 C   0  0  0  0  0  0  0  0  0  0  0  0
   -3.1449   -2.5291   10.4397 H   0  0  0  0  0  0  0  0  0  0  0  0
   -4.0262   -2.7774   12.4420 C   0  0  0  0  0  0  0  0  0  0  0  0
   -4.8768    2.1074   17.1443 C   0  0  0  0  0  0  0  0  0  0  0  0
   -3.8179    2.3250   17.0700 H   0  0  0  0  0  0  0  0  0  0  0  0
   -5.1367    2.0154   18.1985 H   0  0  0  0  0  0  0  0  0  0  0  0
   -5.4633    2.9277   16.7329 H   0  0  0  0  0  0  0  0  0  0  0  0
   -7.3406   -2.0807   15.7484 C   0  0  0  0  0  0  0  0  0  0  0  0
   -7.4159   -2.3674   14.7014 H   0  0  0  0  0  0  0  0  0  0  0  0
   -8.3061   -1.7138   16.0867 H   0  0  0  0  0  0  0  0  0  0  0  0
   -7.0834   -2.9681   16.3244 H   0  0  0  0  0  0  0  0  0  0  0  0
   -0.1109   -1.2765   17.4408 C   0  0  0  0  0  0  0  0  0  0  0  0
    0.4382   -0.8543   16.6020 H   0  0  0  0  0  0  0  0  0  0  0  0
    0.5443   -1.9310   18.0103 H   0  0  0  0  0  0  0  0  0  0  0  0
   -0.4289   -0.4508   18.0766 H   0  0  0  0  0  0  0  0  0  0  0  0
   -3.6636   -4.8466   16.7772 C   0  0  0  0  0  0  0  0  0  0  0  0
   -4.6691   -4.6160   17.1255 H   0  0  0  0  0  0  0  0  0  0  0  0
   -3.2040   -5.5458   17.4705 H   0  0  0  0  0  0  0  0  0  0  0  0
   -3.7427   -5.3196   15.8000 H   0  0  0  0  0  0  0  0  0  0  0  0
   -1.4638   -0.3821   11.4206 C   0  0  0  0  0  0  0  0  0  0  0  0
   -1.2634    0.5291   11.9721 H   0  0  0  0  0  0  0  0  0  0  0  0
   -1.7758   -0.1396   10.4062 H   0  0  0  0  0  0  0  0  0  0  0  0
   -0.5361   -0.9526   11.3748 H   0  0  0  0  0  0  0  0  0  0  0  0
   -4.9855   -3.9065   12.3301 C   0  0  0  0  0  0  0  0  0  0  0  0
   -5.9858   -3.5953   12.6253 H   0  0  0  0  0  0  0  0  0  0  0  0
   -4.6856   -4.7324   12.9726 H   0  0  0  0  0  0  0  0  0  0  0  0
   -5.0129   -4.2547   11.3011 H   0  0  0  0  0  0  0  0  0  0  0  0
   -4.6514    1.2547   12.2258 C   0  0  0  0  0  0  0  0  0  0  0  0
   -4.9909    0.8143   13.1549 H   0  0  0  0  0  0  0  0  0  0  0  0
   -5.4020    1.1168   11.0743 C   0  0  0  0  0  0  0  0  0  0  0  0
   -6.3316    0.5667   11.0963 H   0  0  0  0  0  0  0  0  0  0  0  0
   -4.9562    1.6808    9.8898 C   0  0  0  0  0  0  0  0  0  0  0  0
   -5.5367    1.5706    8.9858 H   0  0  0  0  0  0  0  0  0  0  0  0
   -3.7637    2.3837    9.8662 C   0  0  0  0  0  0  0  0  0  0  0  0
   -3.4156    2.8249    8.9434 H   0  0  0  0  0  0  0  0  0  0  0  0
   -3.0090    2.5187   11.0190 C   0  0  0  0  0  0  0  0  0  0  0  0
   -2.0727    3.0556   10.9840 H   0  0  0  0  0  0  0  0  0  0  0  0
   -3.4481    1.9523   12.2073 C   0  0  0  0  0  0  0  0  0  0  0  0
   -3.5159    3.4670   14.4992 C   0  0  0  0  0  0  0  0  0  0  0  0
   -3.4800    4.2956   13.7914 H   0  0  0  0  0  0  0  0  0  0  0  0
   -3.0729    3.7675   15.4457 H   0  0  0  0  0  0  0  0  0  0  0  0
   -4.5502    3.1705   14.6492 H   0  0  0  0  0  0  0  0  0  0  0  0
   -0.9928    2.9466   13.4677 C   0  0  0  0  0  0  0  0  0  0  0  0
   -1.1904    3.9080   12.9948 H   0  0  0  0  0  0  0  0  0  0  0  0
   -0.3162    2.3478   12.8627 H   0  0  0  0  0  0  0  0  0  0  0  0
   -0.5232    3.1052   14.4394 H   0  0  0  0  0  0  0  0  0  0  0  0
  1  5  1  0  0  0  0
  1  7  1  0  0  0  0
  1  3  1  0  0  0  0
  2  1  1  0  0  0  0
  4 60  1  0  0  0  0
  4  1  1  0  0  0  0
  5  6  1  6  0  0  0
  5 13  1  0  0  0  0
  6 16  1  0  0  0  0
  7  8  1  1  0  0  0
  7 17  1  0  0  0  0
  8 20  1  0  0  0  0
  9 10  1  6  0  0  0
  9  1  1  0  0  0  0
 10 11  1  0  0  0  0
 11 12  1  1  0  0  0
 11  6  1  0  0  0  0
 11  8  1  0  0  0  0
 13 14  1  0  0  0  0
 13 25  1  1  0  0  0
 14 15  1  0  0  0  0
 16 14  2  0  0  0  0
 17 18  1  0  0  0  0
 17 33  1  1  0  0  0
 18 19  1  0  0  0  0
 20 37  1  0  0  0  0
 20 18  2  0  0  0  0
 21 41  1  1  0  0  0
 21  9  1  0  0  0  0
 22 21  1  0  0  0  0
 22 24  2  0  0  0  0
 23 22  1  0  0  0  0
 24 10  1  0  0  0  0
 25 27  1  0  0  0  0
 26 25  1  0  0  0  0
 28 25  1  0  0  0  0
 29 16  1  0  0  0  0
 29 31  1  0  0  0  0
 29 32  1  0  0  0  0
 30 29  1  0  0  0  0
 33 35  1  0  0  0  0
 33 36  1  0  0  0  0
 34 33  1  0  0  0  0
 37 38  1  0  0  0  0
 37 39  1  0  0  0  0
 40 37  1  0  0  0  0
 41 42  1  0  0  0  0
 43 41  1  0  0  0  0
 44 41  1  0  0  0  0
 45 24  1  0  0  0  0
 45 46  1  0  0  0  0
 45 47  1  0  0  0  0
 48 45  1  0  0  0  0
 49 50  1  0  0  0  0
 51 52  1  0  0  0  0
 51 49  2  0  0  0  0
 53 51  1  0  0  0  0
 54 53  1  0  0  0  0
 55 53  2  0  0  0  0
 55 57  1  0  0  0  0
 56 55  1  0  0  0  0
 57 59  2  0  0  0  0
 58 57  1  0  0  0  0
 59 49  1  0  0  0  0
 59  4  1  0  0  0  0
 60 63  1  0  0  0  0
 60 62  1  0  0  0  0
 61 60  1  0  0  0  0
 64  4  1  0  0  0  0
 64 67  1  0  0  0  0
 65 64  1  0  0  0  0
 66 64  1  0  0  0  0
M  END
$$$$
