CSD_code = MADZUO | q = 0 | S = 0 | Stoichiometry = C5H12Cl2N2OPtS | MND = 4
 OpenBabel04212202063D

 24 23  0  0  0  0  0  0  0  0999 V2000
    6.5445    2.5237    1.8558 Pt  0  0  0  0  0  0  0  0  0  0  0  0
    7.2790    0.4194    1.8564 Cl  0  0  0  0  0  0  0  0  0  0  0  0
    4.3836    1.8739    1.8568 Cl  0  0  0  0  0  0  0  0  0  0  0  0
    8.7761    3.1089    1.8566 S   0  0  0  0  0  0  0  0  0  0  0  0
    9.0673    4.5396    1.8566 O   0  0  0  0  0  1  0  0  0  0  0  0
    5.9684    4.3724    1.8541 N   0  0  0  0  0  2  0  0  0  0  0  0
    5.3630    6.7446    1.8574 N   0  0  0  0  0  0  0  0  0  0  0  0
    5.6766    5.4915    1.8595 C   0  0  0  0  0  2  0  0  0  0  0  0
    3.9610    7.1185    1.8566 C   0  0  0  0  0  0  0  0  0  0  0  0
    3.8834    8.2026    1.8559 H   0  0  0  0  0  0  0  0  0  0  0  0
    3.4557    6.7282    2.7424 H   0  0  0  0  0  0  0  0  0  0  0  0
    6.4316    7.7264    1.8565 C   0  0  0  0  0  0  0  0  0  0  0  0
    5.9972    8.7229    1.8558 H   0  0  0  0  0  0  0  0  0  0  0  0
    7.0618    7.6120    0.9724 H   0  0  0  0  0  0  0  0  0  0  0  0
    9.7073    2.3612    0.4835 C   0  0  0  0  0  0  0  0  0  0  0  0
    9.3183    2.7698   -0.4429 H   0  0  0  0  0  0  0  0  0  0  0  0
    9.5360    1.2919    0.5264 H   0  0  0  0  0  0  0  0  0  0  0  0
   10.7568    2.6084    0.5901 H   0  0  0  0  0  0  0  0  0  0  0  0
    3.4561    6.7271    0.9711 H   0  0  0  0  0  0  0  0  0  0  0  0
    7.0616    7.6132    2.7409 H   0  0  0  0  0  0  0  0  0  0  0  0
    9.7073    2.3611    3.2297 C   0  0  0  0  0  0  0  0  0  0  0  0
    9.3184    2.7697    4.1561 H   0  0  0  0  0  0  0  0  0  0  0  0
    9.5361    1.2919    3.1868 H   0  0  0  0  0  0  0  0  0  0  0  0
   10.7569    2.6083    3.1231 H   0  0  0  0  0  0  0  0  0  0  0  0
  1  2  1  0  0  0  0
  1  4  1  0  0  0  0
  1  3  1  0  0  0  0
  4  5  1  0  0  0  0
  4 21  1  0  0  0  0
  6  1  1  0  0  0  0
  6  8  1  0  0  0  0
  7  8  1  0  0  0  0
  9  7  1  0  0  0  0
  9 11  1  0  0  0  0
 10  9  1  0  0  0  0
 12  7  1  0  0  0  0
 12 20  1  0  0  0  0
 13 12  1  0  0  0  0
 14 12  1  0  0  0  0
 15 17  1  0  0  0  0
 15 18  1  0  0  0  0
 15  4  1  0  0  0  0
 16 15  1  0  0  0  0
 19  9  1  0  0  0  0
 21 22  1  0  0  0  0
 23 21  1  0  0  0  0
 24 21  1  0  0  0  0
M  END
$$$$
