CSD_code = MAFXUN | q = 0 | S = 0 | Stoichiometry = C30H24Br2MoO4P2 | MND = 6
 OpenBabel04212202063D

 63 68  0  0  0  0  0  0  0  0999 V2000
   10.6394   15.3593   -0.0244 Mo  0  0  0  0  0  0  0  0  0  0  0  0
   10.9071   15.3598    2.4302 Br  0  0  0  0  0  0  0  0  0  0  0  0
    9.4014   15.3575   -2.2051 Br  0  0  0  0  0  0  0  0  0  0  0  0
    7.4564   13.6506    0.4517 P   0  0  0  0  0  4  0  0  0  0  0  0
    8.8822   14.0740    0.5652 O   0  0  0  0  0  0  0  0  0  0  0  0
   11.5223   14.0213   -0.3392 O   0  0  0  0  0  1  0  0  0  0  0  0
    6.6354   13.7037    2.0655 C   0  0  0  0  0  0  0  0  0  0  0  0
    7.4260   13.6954    3.2072 C   0  0  0  0  0  0  0  0  0  0  0  0
    8.5035   13.7204    3.1171 H   0  0  0  0  0  0  0  0  0  0  0  0
    6.8255   13.6720    4.4538 C   0  0  0  0  0  0  0  0  0  0  0  0
    7.4401   13.6707    5.3403 H   0  0  0  0  0  0  0  0  0  0  0  0
    5.4447   13.6486    4.5570 C   0  0  0  0  0  0  0  0  0  0  0  0
    4.9767   13.6248    5.5297 H   0  0  0  0  0  0  0  0  0  0  0  0
    4.6570   13.6591    3.4159 C   0  0  0  0  0  0  0  0  0  0  0  0
    3.5805   13.6445    3.5005 H   0  0  0  0  0  0  0  0  0  0  0  0
    5.2489   13.6877    2.1671 C   0  0  0  0  0  0  0  0  0  0  0  0
    4.6436   13.7038    1.2706 H   0  0  0  0  0  0  0  0  0  0  0  0
    7.4140   11.9462   -0.1647 C   0  0  0  0  0  0  0  0  0  0  0  0
    8.3833   11.5923   -1.0974 C   0  0  0  0  0  0  0  0  0  0  0  0
    9.1002   12.3299   -1.4340 H   0  0  0  0  0  0  0  0  0  0  0  0
    8.4306   10.2971   -1.5801 C   0  0  0  0  0  0  0  0  0  0  0  0
    9.1821   10.0216   -2.3039 H   0  0  0  0  0  0  0  0  0  0  0  0
    7.5172    9.3572   -1.1293 C   0  0  0  0  0  0  0  0  0  0  0  0
    7.5573    8.3448   -1.5022 H   0  0  0  0  0  0  0  0  0  0  0  0
    6.5566    9.7092   -0.1939 C   0  0  0  0  0  0  0  0  0  0  0  0
    5.8521    8.9724    0.1625 H   0  0  0  0  0  0  0  0  0  0  0  0
    6.5013   11.0036    0.2917 C   0  0  0  0  0  0  0  0  0  0  0  0
    5.7598   11.2815    1.0274 H   0  0  0  0  0  0  0  0  0  0  0  0
    6.4391   14.6603   -0.6898 C   0  0  0  0  0  0  0  0  0  0  0  0
    5.6312   13.9815   -1.5942 C   0  0  0  0  0  0  0  0  0  0  0  0
    5.6388   12.9014   -1.6018 H   0  0  0  0  0  0  0  0  0  0  0  0
    4.8306   14.6683   -2.4900 C   0  0  0  0  0  0  0  0  0  0  0  0
    4.2172   14.1218   -3.1895 H   0  0  0  0  0  0  0  0  0  0  0  0
    6.4394   16.0591   -0.6900 C   0  0  0  0  0  0  0  0  0  0  0  0
    7.4570   17.0688    0.4513 P   0  0  0  0  0  4  0  0  0  0  0  0
    8.8830   16.6461    0.5642 O   0  0  0  0  0  0  0  0  0  0  0  0
   11.5244   16.6962   -0.3382 O   0  0  0  0  0  1  0  0  0  0  0  0
    6.6366   17.0152    2.0654 C   0  0  0  0  0  0  0  0  0  0  0  0
    7.4277   17.0238    3.2068 C   0  0  0  0  0  0  0  0  0  0  0  0
    8.5051   16.9992    3.1163 H   0  0  0  0  0  0  0  0  0  0  0  0
    6.8277   17.0468    4.4536 C   0  0  0  0  0  0  0  0  0  0  0  0
    7.4427   17.0483    5.3398 H   0  0  0  0  0  0  0  0  0  0  0  0
    5.4470   17.0697    4.5574 C   0  0  0  0  0  0  0  0  0  0  0  0
    4.9793   17.0932    5.5302 H   0  0  0  0  0  0  0  0  0  0  0  0
    4.6588   17.0590    3.4165 C   0  0  0  0  0  0  0  0  0  0  0  0
    3.5823   17.0732    3.5016 H   0  0  0  0  0  0  0  0  0  0  0  0
    5.2502   17.0307    2.1676 C   0  0  0  0  0  0  0  0  0  0  0  0
    4.6446   17.0145    1.2713 H   0  0  0  0  0  0  0  0  0  0  0  0
    7.4139   18.7731   -0.1650 C   0  0  0  0  0  0  0  0  0  0  0  0
    8.3823   19.1270   -1.0986 C   0  0  0  0  0  0  0  0  0  0  0  0
    9.0988   18.3894   -1.4360 H   0  0  0  0  0  0  0  0  0  0  0  0
    8.4292   20.4223   -1.5814 C   0  0  0  0  0  0  0  0  0  0  0  0
    9.1799   20.6977   -2.3059 H   0  0  0  0  0  0  0  0  0  0  0  0
    7.5162   21.3621   -1.1296 C   0  0  0  0  0  0  0  0  0  0  0  0
    7.5560   22.3746   -1.5025 H   0  0  0  0  0  0  0  0  0  0  0  0
    6.5565   21.0102   -0.1934 C   0  0  0  0  0  0  0  0  0  0  0  0
    5.8524   21.7470    0.1637 H   0  0  0  0  0  0  0  0  0  0  0  0
    6.5016   19.7158    0.2922 C   0  0  0  0  0  0  0  0  0  0  0  0
    5.7608   19.4379    1.0286 H   0  0  0  0  0  0  0  0  0  0  0  0
    5.6317   16.7378   -1.5946 C   0  0  0  0  0  0  0  0  0  0  0  0
    5.6399   17.8179   -1.6028 H   0  0  0  0  0  0  0  0  0  0  0  0
    4.8308   16.0510   -2.4902 C   0  0  0  0  0  0  0  0  0  0  0  0
    4.2178   16.5976   -3.1900 H   0  0  0  0  0  0  0  0  0  0  0  0
  1 36  1  0  0  0  0
  1  5  1  0  0  0  0
  1  2  1  0  0  0  0
  3  1  1  0  0  0  0
  4  5  1  0  0  0  0
  4  7  1  0  0  0  0
  6  1  1  0  0  0  0
  7 16  2  0  0  0  0
  7  8  1  0  0  0  0
  8 10  2  0  0  0  0
  9  8  1  0  0  0  0
 10 12  1  0  0  0  0
 10 11  1  0  0  0  0
 12 13  1  0  0  0  0
 14 15  1  0  0  0  0
 14 12  2  0  0  0  0
 16 14  1  0  0  0  0
 17 16  1  0  0  0  0
 18 27  1  0  0  0  0
 18  4  1  0  0  0  0
 19 18  2  0  0  0  0
 20 19  1  0  0  0  0
 21 23  2  0  0  0  0
 21 19  1  0  0  0  0
 22 21  1  0  0  0  0
 23 25  1  0  0  0  0
 24 23  1  0  0  0  0
 25 26  1  0  0  0  0
 25 27  2  0  0  0  0
 27 28  1  0  0  0  0
 29  4  1  0  0  0  0
 30 29  2  0  0  0  0
 31 30  1  0  0  0  0
 32 30  1  0  0  0  0
 33 32  1  0  0  0  0
 34 29  1  0  0  0  0
 34 35  1  0  0  0  0
 35 36  1  0  0  0  0
 35 38  1  0  0  0  0
 37  1  1  0  0  0  0
 38 47  2  0  0  0  0
 38 39  1  0  0  0  0
 39 41  2  0  0  0  0
 40 39  1  0  0  0  0
 41 43  1  0  0  0  0
 41 42  1  0  0  0  0
 43 44  1  0  0  0  0
 45 46  1  0  0  0  0
 45 43  2  0  0  0  0
 47 45  1  0  0  0  0
 48 47  1  0  0  0  0
 49 58  1  0  0  0  0
 49 35  1  0  0  0  0
 50 49  2  0  0  0  0
 51 50  1  0  0  0  0
 52 54  2  0  0  0  0
 52 50  1  0  0  0  0
 53 52  1  0  0  0  0
 54 56  1  0  0  0  0
 55 54  1  0  0  0  0
 56 57  1  0  0  0  0
 56 58  2  0  0  0  0
 58 59  1  0  0  0  0
 60 34  2  0  0  0  0
 61 60  1  0  0  0  0
 62 32  2  0  0  0  0
 62 60  1  0  0  0  0
 63 62  1  0  0  0  0
M  END
$$$$
