CSD_code = MAHQIW | q = 0 | S = 0 | Stoichiometry = C26H27Cl2N2PPd | MND = 4
 OpenBabel04212202063D

 59 63  0  0  0  0  0  0  0  0999 V2000
    7.6127    4.8175    9.6655 Pd  0  0  0  0  0  0  0  0  0  0  0  0
    6.2821    4.8495    7.8106 Cl  0  0  0  0  0  0  0  0  0  0  0  0
    9.5092    4.7898    8.4194 Cl  0  0  0  0  0  0  0  0  0  0  0  0
    8.5757    4.3432   12.4556 N   0  0  0  0  0  0  0  0  0  0  0  0
    9.5197    6.0439   11.5361 N   0  0  0  0  0  0  0  0  0  0  0  0
    5.7898    4.2098   10.8529 P   0  0  0  0  0  4  0  0  0  0  0  0
    8.6946    5.0131   11.2939 C   0  0  0  0  0  0  0  0  0  0  0  0
    9.3245    4.9561   13.4278 C   0  0  0  0  0  0  0  0  0  0  0  0
    9.3752    4.5881   14.4320 H   0  0  0  0  0  0  0  0  0  0  0  0
    9.9232    6.0214   12.8463 C   0  0  0  0  0  0  0  0  0  0  0  0
   10.5759    6.7638   13.2575 H   0  0  0  0  0  0  0  0  0  0  0  0
    7.6751    3.2346   12.6448 C   0  0  0  0  0  0  0  0  0  0  0  0
    7.8996    2.7666   13.6075 H   0  0  0  0  0  0  0  0  0  0  0  0
    7.8420    2.4989   11.8459 H   0  0  0  0  0  0  0  0  0  0  0  0
    6.2210    3.7187   12.6017 C   0  0  0  0  0  0  0  0  0  0  0  0
    6.1052    4.5820   13.2632 H   0  0  0  0  0  0  0  0  0  0  0  0
    5.5572    2.9172   12.9349 H   0  0  0  0  0  0  0  0  0  0  0  0
    9.9429    7.0039   10.5717 C   0  0  0  0  0  0  0  0  0  0  0  0
    9.0253    7.9024   10.0240 C   0  0  0  0  0  0  0  0  0  0  0  0
    9.4887    8.8346    9.1050 C   0  0  0  0  0  0  0  0  0  0  0  0
    8.7846    9.5266    8.6660 H   0  0  0  0  0  0  0  0  0  0  0  0
   10.8190    8.8827    8.7213 C   0  0  0  0  0  0  0  0  0  0  0  0
   11.7028    7.9620    9.2674 C   0  0  0  0  0  0  0  0  0  0  0  0
   12.7359    7.9673    8.9518 H   0  0  0  0  0  0  0  0  0  0  0  0
   11.2855    7.0124   10.1838 C   0  0  0  0  0  0  0  0  0  0  0  0
    7.5601    7.8688   10.3585 C   0  0  0  0  0  0  0  0  0  0  0  0
    7.1265    8.8602   10.2451 H   0  0  0  0  0  0  0  0  0  0  0  0
    7.3764    7.5215   11.3784 H   0  0  0  0  0  0  0  0  0  0  0  0
    7.0386    7.1980    9.6440 H   0  0  0  0  0  0  0  0  0  0  0  0
   12.2300    5.9603   10.6785 C   0  0  0  0  0  0  0  0  0  0  0  0
   13.2025    6.0764   10.2086 H   0  0  0  0  0  0  0  0  0  0  0  0
   11.8338    4.9802   10.4131 H   0  0  0  0  0  0  0  0  0  0  0  0
   12.3611    5.9983   11.7591 H   0  0  0  0  0  0  0  0  0  0  0  0
   11.2827    9.8755    7.7010 C   0  0  0  0  0  0  0  0  0  0  0  0
   12.3349   10.1133    7.8374 H   0  0  0  0  0  0  0  0  0  0  0  0
   10.6997   10.7920    7.7558 H   0  0  0  0  0  0  0  0  0  0  0  0
   11.1576    9.4558    6.7028 H   0  0  0  0  0  0  0  0  0  0  0  0
    4.1706    5.0163   11.0153 C   0  0  0  0  0  0  0  0  0  0  0  0
    3.4011    4.9925   12.1753 C   0  0  0  0  0  0  0  0  0  0  0  0
    3.7469    4.4757   13.0583 H   0  0  0  0  0  0  0  0  0  0  0  0
    2.1730    5.6297   12.1998 C   0  0  0  0  0  0  0  0  0  0  0  0
    1.5769    5.6048   13.1008 H   0  0  0  0  0  0  0  0  0  0  0  0
    1.7060    6.2936   11.0774 C   0  0  0  0  0  0  0  0  0  0  0  0
    0.7460    6.7875   11.1054 H   0  0  0  0  0  0  0  0  0  0  0  0
    2.4715    6.3228    9.9228 C   0  0  0  0  0  0  0  0  0  0  0  0
    2.1109    6.8398    9.0463 H   0  0  0  0  0  0  0  0  0  0  0  0
    3.7005    5.6904    9.8897 C   0  0  0  0  0  0  0  0  0  0  0  0
    4.3090    5.6993    8.9935 H   0  0  0  0  0  0  0  0  0  0  0  0
    5.3967    2.5604   10.1804 C   0  0  0  0  0  0  0  0  0  0  0  0
    6.3860    1.8880    9.4636 C   0  0  0  0  0  0  0  0  0  0  0  0
    7.3532    2.3723    9.2666 H   0  0  0  0  0  0  0  0  0  0  0  0
    6.1342    0.6242    8.9608 C   0  0  0  0  0  0  0  0  0  0  0  0
    6.8974    0.1079    8.3978 H   0  0  0  0  0  0  0  0  0  0  0  0
    4.8996    0.0287    9.1649 C   0  0  0  0  0  0  0  0  0  0  0  0
    4.7016   -0.9535    8.7620 H   0  0  0  0  0  0  0  0  0  0  0  0
    3.9140    0.6968    9.8725 C   0  0  0  0  0  0  0  0  0  0  0  0
    2.9480    0.2366   10.0217 H   0  0  0  0  0  0  0  0  0  0  0  0
    4.1592    1.9591   10.3825 C   0  0  0  0  0  0  0  0  0  0  0  0
    3.3858    2.4871   10.9235 H   0  0  0  0  0  0  0  0  0  0  0  0
  1  6  1  0  0  0  0
  1  7  2  0  0  0  0
  2  1  1  0  0  0  0
  3  1  1  0  0  0  0
  4 12  1  0  0  0  0
  4  8  1  0  0  0  0
  5 10  1  0  0  0  0
  6 38  1  0  0  0  0
  6 15  1  0  0  0  0
  7  5  1  0  0  0  0
  7  4  1  0  0  0  0
  8  9  1  0  0  0  0
 10 11  1  0  0  0  0
 10  8  2  0  0  0  0
 12 13  1  0  0  0  0
 14 12  1  0  0  0  0
 15 12  1  0  0  0  0
 15 17  1  0  0  0  0
 15 16  1  0  0  0  0
 18  5  1  0  0  0  0
 19 26  1  0  0  0  0
 19 18  2  0  0  0  0
 20 19  1  0  0  0  0
 21 20  1  0  0  0  0
 22 20  2  0  0  0  0
 22 23  1  0  0  0  0
 23 25  2  0  0  0  0
 24 23  1  0  0  0  0
 25 18  1  0  0  0  0
 25 30  1  0  0  0  0
 26 28  1  0  0  0  0
 27 26  1  0  0  0  0
 29 26  1  0  0  0  0
 30 33  1  0  0  0  0
 31 30  1  0  0  0  0
 32 30  1  0  0  0  0
 34 36  1  0  0  0  0
 34 35  1  0  0  0  0
 34 22  1  0  0  0  0
 37 34  1  0  0  0  0
 38 39  1  0  0  0  0
 39 41  2  0  0  0  0
 39 40  1  0  0  0  0
 41 42  1  0  0  0  0
 43 44  1  0  0  0  0
 43 41  1  0  0  0  0
 45 43  2  0  0  0  0
 46 45  1  0  0  0  0
 47 45  1  0  0  0  0
 47 38  2  0  0  0  0
 48 47  1  0  0  0  0
 49 58  1  0  0  0  0
 49  6  1  0  0  0  0
 50 49  2  0  0  0  0
 51 50  1  0  0  0  0
 52 54  2  0  0  0  0
 52 50  1  0  0  0  0
 53 52  1  0  0  0  0
 54 56  1  0  0  0  0
 55 54  1  0  0  0  0
 56 57  1  0  0  0  0
 56 58  2  0  0  0  0
 58 59  1  0  0  0  0
M  END
$$$$
