CSD_code = MAHVUP | q = 0 | S = 0 | Stoichiometry = C13H12Br2N2SZn | MND = 5
 OpenBabel04212202063D

 31 33  0  0  0  0  0  0  0  0999 V2000
    0.6197    2.1801    6.8374 Zn  0  0  0  0  0  0  0  0  0  0  0  0
    1.0101    0.1914    5.6532 Br  0  0  0  0  0  0  0  0  0  0  0  0
    1.6150    3.8458    8.2970 Br  0  0  0  0  0  0  0  0  0  0  0  0
   -0.3766    1.3715    8.6653 N   0  0  0  0  0  0  0  0  0  0  0  0
    0.2177    0.7848    9.6861 C   0  0  0  0  0  3  0  0  0  0  0  0
    1.1944    0.3630    9.4905 H   0  0  0  0  0  0  0  0  0  0  0  0
   -0.3586    0.7077   10.9472 C   0  0  0  0  0  0  0  0  0  0  0  0
    0.1668    0.2211   11.7527 H   0  0  0  0  0  0  0  0  0  0  0  0
   -1.6090    1.2733   11.1425 C   0  0  0  0  0  0  0  0  0  0  0  0
   -2.0837    1.2420   12.1115 H   0  0  0  0  0  0  0  0  0  0  0  0
   -2.2409    1.8797   10.0708 C   0  0  0  0  0  0  0  0  0  0  0  0
   -3.2152    2.3313   10.1781 H   0  0  0  0  0  0  0  0  0  0  0  0
   -1.5892    1.9087    8.8381 C   0  0  0  0  0  0  0  0  0  0  0  0
   -2.2067    2.5001    7.6701 C   0  0  0  0  0  3  0  0  0  0  0  0
   -3.2442    2.8244    7.7697 H   0  0  0  0  0  0  0  0  0  0  0  0
   -1.5522    2.6236    6.5819 N   0  0  0  0  0  0  0  0  0  0  0  0
   -2.1327    2.9983    5.3846 C   0  0  0  0  0  0  0  0  0  0  0  0
   -3.4527    2.6589    5.0676 C   0  0  0  0  0  0  0  0  0  0  0  0
   -4.0513    2.1278    5.7928 H   0  0  0  0  0  0  0  0  0  0  0  0
   -3.9695    2.9348    3.8184 C   0  0  0  0  0  0  0  0  0  0  0  0
   -4.9866    2.6550    3.5902 H   0  0  0  0  0  0  0  0  0  0  0  0
   -3.1837    3.5488    2.8553 C   0  0  0  0  0  0  0  0  0  0  0  0
   -3.5854    3.7547    1.8756 H   0  0  0  0  0  0  0  0  0  0  0  0
   -1.8747    3.8868    3.1509 C   0  0  0  0  0  0  0  0  0  0  0  0
   -1.2433    4.3553    2.4122 H   0  0  0  0  0  0  0  0  0  0  0  0
   -1.3505    3.6209    4.4033 C   0  0  0  0  0  0  0  0  0  0  0  0
    0.3355    4.0991    4.7372 S   0  0  0  0  0  0  0  0  0  0  0  0
    0.0172    5.5970    5.7251 C   0  0  0  0  0  0  0  0  0  0  0  0
   -0.4466    6.3408    5.0842 H   0  0  0  0  0  0  0  0  0  0  0  0
    0.9831    5.9458    6.0758 H   0  0  0  0  0  0  0  0  0  0  0  0
   -0.6166    5.3659    6.5753 H   0  0  0  0  0  0  0  0  0  0  0  0
  1  3  1  0  0  0  0
  1  4  1  0  0  0  0
  2  1  1  0  0  0  0
  4 13  1  0  0  0  0
  4  5  1  0  0  0  0
  5  7  1  0  0  0  0
  6  5  1  0  0  0  0
  7  9  2  0  0  0  0
  7  8  1  0  0  0  0
  9 10  1  0  0  0  0
 11 12  1  0  0  0  0
 11  9  1  0  0  0  0
 13 11  2  0  0  0  0
 14 15  1  0  0  0  0
 14 13  1  0  0  0  0
 16  1  1  0  0  0  0
 16 14  1  0  0  0  0
 17 16  1  0  0  0  0
 18 17  1  0  0  0  0
 18 19  1  0  0  0  0
 20 18  2  0  0  0  0
 21 20  1  0  0  0  0
 22 24  2  0  0  0  0
 22 20  1  0  0  0  0
 23 22  1  0  0  0  0
 24 26  1  0  0  0  0
 25 24  1  0  0  0  0
 26 27  1  0  0  0  0
 26 17  2  0  0  0  0
 27 28  1  0  0  0  0
 28 30  1  0  0  0  0
 28 31  1  0  0  0  0
 29 28  1  0  0  0  0
M  END
$$$$
