CSD_code = MAHZOM | q = 0 | S = 0 | Stoichiometry = C20H24ClN3OPt | MND = 5
 OpenBabel04212202063D

 50 52  0  0  1  0  0  0  0  0999 V2000
    6.6746    4.9559    4.3193 Pt  0  0  0  0  0  0  0  0  0  0  0  0
    7.3845    4.4380    6.5953 Cl  0  0  0  0  0 15  0  0  0  0  0  0
    5.1079    7.0614    0.9217 O   0  0  0  0  0  0  0  0  0  0  0  0
    4.7023    2.7408    4.3984 N   0  0  0  0  0  0  0  0  0  0  0  0
    4.0232    4.3609    5.6419 N   0  0  0  0  0  0  0  0  0  0  0  0
    2.4528    1.3374    1.9679 N   0  0  0  0  0  0  0  0  0  0  0  0
    5.0008    4.0008    4.8013 C   0  0  1  0  0  3  0  0  0  0  0  0
    3.5321    2.3253    4.9871 C   0  0  0  0  0  0  0  0  0  0  0  0
    3.1120    1.3556    4.8199 H   0  0  0  0  0  0  0  0  0  0  0  0
    3.1141    3.3434    5.7729 C   0  0  0  0  0  0  0  0  0  0  0  0
    2.2550    3.4205    6.4067 H   0  0  0  0  0  0  0  0  0  0  0  0
    3.9707    5.6252    6.3219 C   0  0  0  0  0  0  0  0  0  0  0  0
    4.9036    6.1563    6.1110 H   0  0  0  0  0  0  0  0  0  0  0  0
    3.8887    5.4697    7.3977 H   0  0  0  0  0  0  0  0  0  0  0  0
    3.1207    6.2151    5.9744 H   0  0  0  0  0  0  0  0  0  0  0  0
    5.5209    2.0255    3.5088 C   0  0  0  0  0  0  0  0  0  0  0  0
    6.9010    2.0428    3.6930 C   0  0  0  0  0  0  0  0  0  0  0  0
    7.3184    2.5211    4.5740 H   0  0  0  0  0  0  0  0  0  0  0  0
    7.7243    1.3912    2.7887 C   0  0  0  0  0  0  0  0  0  0  0  0
    8.7928    1.4049    2.9383 H   0  0  0  0  0  0  0  0  0  0  0  0
    7.1849    0.7180    1.7020 C   0  0  0  0  0  0  0  0  0  0  0  0
    7.8319    0.2163    0.9990 H   0  0  0  0  0  0  0  0  0  0  0  0
    5.8167    0.6830    1.5178 C   0  0  0  0  0  0  0  0  0  0  0  0
    5.3836    0.1621    0.6772 H   0  0  0  0  0  0  0  0  0  0  0  0
    4.9729    1.3387    2.4169 C   0  0  0  0  0  0  0  0  0  0  0  0
    3.5795    1.3367    2.1810 C   0  0  0  0  0  0  0  0  0  0  0  0
    6.0643    5.3421    2.3842 C   0  0  2  0  0  0  0  0  0  0  0  0
    5.1807    4.7465    2.1059 H   0  0  0  0  0  0  0  0  0  0  0  0
    7.2001    4.9313    1.4392 C   0  0  0  0  0  0  0  0  0  0  0  0
    7.0454    5.3999    0.4630 H   0  0  0  0  0  0  0  0  0  0  0  0
    7.1461    3.8494    1.2931 H   0  0  0  0  0  0  0  0  0  0  0  0
    8.5991    5.2834    1.9872 C   0  0  0  0  0  0  0  0  0  0  0  0
    9.2997    4.4940    1.7073 H   0  0  0  0  0  0  0  0  0  0  0  0
    8.9696    6.2073    1.5401 H   0  0  0  0  0  0  0  0  0  0  0  0
    8.6065    5.4313    3.4941 C   0  0  0  0  0  3  0  0  0  0  0  0
    9.3108    4.7788    4.0158 H   0  0  0  0  0  0  0  0  0  0  0  0
    8.1407    6.5174    4.2034 C   0  0  1  0  0  0  0  0  0  0  0  0
    8.5125    6.6243    5.2256 H   0  0  0  0  0  0  0  0  0  0  0  0
    7.5124    7.7973    3.7090 C   0  0  0  0  0  0  0  0  0  0  0  0
    8.3026    8.5571    3.6952 H   0  0  0  0  0  0  0  0  0  0  0  0
    6.7879    8.1186    4.4682 H   0  0  0  0  0  0  0  0  0  0  0  0
    6.8191    7.8049    2.3485 C   0  0  0  0  0  0  0  0  0  0  0  0
    6.4046    8.8032    2.1863 H   0  0  0  0  0  0  0  0  0  0  0  0
    7.5197    7.6244    1.5384 H   0  0  0  0  0  0  0  0  0  0  0  0
    5.6621    6.8108    2.2189 C   0  0  1  0  0  0  0  0  0  0  0  0
    4.8930    7.0566    2.9750 H   0  0  0  0  0  0  0  0  0  0  0  0
    3.7681    6.6896    0.7626 C   0  0  0  0  0  0  0  0  0  0  0  0
    3.4766    7.0154   -0.2346 H   0  0  0  0  0  0  0  0  0  0  0  0
    3.1272    7.1817    1.5067 H   0  0  0  0  0  0  0  0  0  0  0  0
    3.6209    5.6054    0.8393 H   0  0  0  0  0  0  0  0  0  0  0  0
  3 45  1  0  0  0  0
  4  7  1  0  0  0  0
  4  8  1  0  0  0  0
  5 10  1  0  0  0  0
  5 12  1  0  0  0  0
  6 26  3  0  0  0  0
  7  1  1  1  0  0  0
  7  5  1  0  0  0  0
  8 10  2  0  0  0  0
  9  8  1  0  0  0  0
 10 11  1  0  0  0  0
 12 14  1  0  0  0  0
 13 12  1  0  0  0  0
 15 12  1  0  0  0  0
 16 17  1  0  0  0  0
 16  4  1  0  0  0  0
 17 18  1  0  0  0  0
 19 20  1  0  0  0  0
 19 17  2  0  0  0  0
 21 19  1  0  0  0  0
 22 21  1  0  0  0  0
 23 21  2  0  0  0  0
 23 25  1  0  0  0  0
 24 23  1  0  0  0  0
 25 16  2  0  0  0  0
 26 25  1  0  0  0  0
 27 28  1  6  0  0  0
 27  1  1  0  0  0  0
 29 32  1  0  0  0  0
 29 27  1  0  0  0  0
 30 29  1  0  0  0  0
 31 29  1  0  0  0  0
 32 35  1  0  0  0  0
 33 32  1  0  0  0  0
 34 32  1  0  0  0  0
 35 36  1  0  0  0  0
 35 37  1  0  0  0  0
 37  1  1  0  0  0  0
 37 38  1  1  0  0  0
 39 37  1  0  0  0  0
 39 41  1  0  0  0  0
 40 39  1  0  0  0  0
 42 39  1  0  0  0  0
 43 42  1  0  0  0  0
 44 42  1  0  0  0  0
 45 42  1  0  0  0  0
 45 27  1  0  0  0  0
 45 46  1  1  0  0  0
 47 50  1  0  0  0  0
 47  3  1  0  0  0  0
 47 49  1  0  0  0  0
 48 47  1  0  0  0  0
M  END
$$$$
