CSD_code = MAHZIG | q = 1 | S = 0 | Stoichiometry = C19H21ClN3Pt(1+) | MND = 6
 OpenBabel04212202063D

 45 47  0  0  1  0  0  0  0  0999 V2000
    6.1479    3.4786   10.9221 Pt  0  0  0  0  0  0  0  0  0  0  0  0
    7.2813    2.3717   12.5698 Cl  0  0  0  0  0 15  0  0  0  0  0  0
    5.3606    0.8367    9.7570 N   0  0  0  0  0  0  0  0  0  0  0  0
    4.2545    1.2092   11.5678 N   0  0  0  0  0  0  0  0  0  0  0  0
    3.4150    0.1337    6.8977 N   0  0  0  0  0  0  0  0  0  0  0  0
    5.1506    1.7426   10.7333 C   0  0  1  0  0  3  0  0  0  0  0  0
    3.8905   -0.0326   11.1220 C   0  0  0  0  0  0  0  0  0  0  0  0
    3.1820   -0.6445   11.6407 H   0  0  0  0  0  0  0  0  0  0  0  0
    4.5807   -0.2693    9.9808 C   0  0  0  0  0  0  0  0  0  0  0  0
    4.5870   -1.1235    9.3365 H   0  0  0  0  0  0  0  0  0  0  0  0
    3.7555    1.8390   12.7613 C   0  0  0  0  0  0  0  0  0  0  0  0
    4.2846    2.7850   12.9074 H   0  0  0  0  0  0  0  0  0  0  0  0
    3.9359    1.1976   13.6242 H   0  0  0  0  0  0  0  0  0  0  0  0
    2.6839    2.0235   12.6752 H   0  0  0  0  0  0  0  0  0  0  0  0
    6.2588    1.0341    8.6830 C   0  0  0  0  0  0  0  0  0  0  0  0
    7.5484    1.4847    8.9365 C   0  0  0  0  0  0  0  0  0  0  0  0
    7.8810    1.6129    9.9604 H   0  0  0  0  0  0  0  0  0  0  0  0
    8.4229    1.6919    7.8799 C   0  0  0  0  0  0  0  0  0  0  0  0
    9.4306    2.0214    8.0798 H   0  0  0  0  0  0  0  0  0  0  0  0
    8.0186    1.4549    6.5746 C   0  0  0  0  0  0  0  0  0  0  0  0
    8.7065    1.6103    5.7586 H   0  0  0  0  0  0  0  0  0  0  0  0
    6.7352    1.0118    6.3128 C   0  0  0  0  0  0  0  0  0  0  0  0
    6.4081    0.8271    5.3012 H   0  0  0  0  0  0  0  0  0  0  0  0
    5.8432    0.8016    7.3643 C   0  0  0  0  0  0  0  0  0  0  0  0
    4.5076    0.4118    7.0978 C   0  0  0  0  0  0  0  0  0  0  0  0
    5.4862    4.4396    9.0401 C   0  0  0  0  0  3  0  0  0  0  0  0
    5.2313    3.6510    8.3335 H   0  0  0  0  0  0  0  0  0  0  0  0
    4.5643    4.7021   10.0411 C   0  0  2  0  0  0  0  0  0  0  0  0
    3.6403    4.1214   10.0343 H   0  0  0  0  0  0  0  0  0  0  0  0
    4.4764    5.9592   10.8651 C   0  0  0  0  0  0  0  0  0  0  0  0
    3.8906    5.7347   11.7605 H   0  0  0  0  0  0  0  0  0  0  0  0
    3.9117    6.7069   10.3002 H   0  0  0  0  0  0  0  0  0  0  0  0
    5.8360    6.5489   11.2907 C   0  0  0  0  0  0  0  0  0  0  0  0
    6.2367    7.1986   10.5136 H   0  0  0  0  0  0  0  0  0  0  0  0
    5.6734    7.1676   12.1739 H   0  0  0  0  0  0  0  0  0  0  0  0
    6.8516    5.4852   11.6272 C   0  0  0  0  0  3  0  0  0  0  0  0
    7.0348    5.3318   12.6906 H   0  0  0  0  0  0  0  0  0  0  0  0
    7.7632    4.9755   10.7416 C   0  0  2  0  0  0  0  0  0  0  0  0
    8.6465    4.4801   11.1465 H   0  0  0  0  0  0  0  0  0  0  0  0
    7.8679    5.3229    9.2788 C   0  0  0  0  0  0  0  0  0  0  0  0
    8.4767    4.5585    8.7910 H   0  0  0  0  0  0  0  0  0  0  0  0
    8.4091    6.2688    9.1829 H   0  0  0  0  0  0  0  0  0  0  0  0
    6.5159    5.4259    8.5417 C   0  0  0  0  0  0  0  0  0  0  0  0
    6.1091    6.4337    8.6206 H   0  0  0  0  0  0  0  0  0  0  0  0
    6.6946    5.2352    7.4829 H   0  0  0  0  0  0  0  0  0  0  0  0
  3  9  1  0  0  0  0
  3  6  1  0  0  0  0
  4 11  1  0  0  0  0
  5 25  3  0  0  0  0
  6  1  1  1  0  0  0
  6  4  1  0  0  0  0
  7  4  1  0  0  0  0
  7  8  1  0  0  0  0
  9  7  2  0  0  0  0
 10  9  1  0  0  0  0
 11 12  1  0  0  0  0
 11 13  1  0  0  0  0
 14 11  1  0  0  0  0
 15 16  1  0  0  0  0
 15  3  1  0  0  0  0
 16 17  1  0  0  0  0
 18 19  1  0  0  0  0
 18 16  2  0  0  0  0
 20 18  1  0  0  0  0
 21 20  1  0  0  0  0
 22 20  2  0  0  0  0
 22 24  1  0  0  0  0
 23 22  1  0  0  0  0
 24 15  2  0  0  0  0
 25 24  1  0  0  0  0
 26 28  1  0  0  0  0
 27 26  1  0  0  0  0
 28 29  1  6  0  0  0
 28 30  1  0  0  0  0
 28  1  1  0  0  0  0
 30 33  1  0  0  0  0
 30 31  1  0  0  0  0
 32 30  1  0  0  0  0
 33 36  1  0  0  0  0
 33 35  1  0  0  0  0
 34 33  1  0  0  0  0
 36 37  1  0  0  0  0
 38  1  1  0  0  0  0
 38 39  1  1  0  0  0
 38 36  1  0  0  0  0
 40 38  1  0  0  0  0
 41 40  1  0  0  0  0
 42 40  1  0  0  0  0
 43 44  1  0  0  0  0
 43 26  1  0  0  0  0
 43 40  1  0  0  0  0
 45 43  1  0  0  0  0
M  END
$$$$
