CSD_code = MAJBOR | q = 0 | S = 0 | Stoichiometry = C16H13Cl2N3O2Pt | MND = 4
 OpenBabel04212202063D

 37 40  0  0  0  0  0  0  0  0999 V2000
    6.2485    3.6918    6.4800 C   0  0  0  0  0  0  0  0  0  0  0  0
    5.9474    2.7577    6.0236 H   0  0  0  0  0  0  0  0  0  0  0  0
    6.1265    3.9065    7.8401 C   0  0  0  0  0  0  0  0  0  0  0  0
    5.7182    3.1326    8.4691 H   0  0  0  0  0  0  0  0  0  0  0  0
    6.5358    5.1224    8.3735 C   0  0  0  0  0  0  0  0  0  0  0  0
    6.4536    5.3181    9.4313 H   0  0  0  0  0  0  0  0  0  0  0  0
    7.0506    6.0796    7.5201 C   0  0  0  0  0  0  0  0  0  0  0  0
    7.3796    7.0382    7.8870 H   0  0  0  0  0  0  0  0  0  0  0  0
    7.1433    5.7969    6.1597 C   0  0  0  0  0  0  0  0  0  0  0  0
    7.6474    6.7309    5.1818 C   0  0  0  0  0  0  0  0  0  0  0  0
    8.1624    8.0331    5.2795 C   0  0  0  0  0  0  0  0  0  0  0  0
    8.3049    8.6182    6.1633 H   0  0  0  0  0  0  0  0  0  0  0  0
    8.4445    8.3940    3.9833 C   0  0  0  0  0  0  0  0  0  0  0  0
    8.8564    9.3030    3.5936 H   0  0  0  0  0  0  0  0  0  0  0  0
    8.1038    7.3654    1.7430 C   0  0  0  0  0  0  0  0  0  0  0  0
    8.3681    6.3616    1.3899 H   0  0  0  0  0  0  0  0  0  0  0  0
    8.8384    8.0957    1.3931 H   0  0  0  0  0  0  0  0  0  0  0  0
    6.7225    7.7152    1.2307 C   0  0  0  0  0  0  0  0  0  0  0  0
    6.0003    8.7494    1.8013 C   0  0  0  0  0  0  0  0  0  0  0  0
    6.3963    9.3349    2.6189 H   0  0  0  0  0  0  0  0  0  0  0  0
    4.7252    9.0616    1.3373 C   0  0  0  0  0  0  0  0  0  0  0  0
    4.1701    8.3340    0.2884 C   0  0  0  0  0  0  0  0  0  0  0  0
    3.1806    8.5782   -0.0642 H   0  0  0  0  0  0  0  0  0  0  0  0
    4.8943    7.3029   -0.2806 C   0  0  0  0  0  0  0  0  0  0  0  0
    4.4676    6.7282   -1.0882 H   0  0  0  0  0  0  0  0  0  0  0  0
    6.1608    6.9899    0.1860 C   0  0  0  0  0  0  0  0  0  0  0  0
    6.7101    6.1669   -0.2424 H   0  0  0  0  0  0  0  0  0  0  0  0
    4.0019   10.1682    1.9983 C   0  0  0  0  0  0  0  0  0  0  0  0
    6.7452    4.6096    5.6534 N   0  0  0  0  0  0  0  0  0  0  0  0
    7.6406    6.3525    3.8924 N   0  0  0  0  0  0  0  0  0  0  0  0
    8.1227    7.3614    3.1814 N   0  0  0  0  0  0  0  0  0  0  0  0
    4.4307   10.8022    2.9325 O   0  0  0  0  0  0  0  0  0  0  0  0
    2.7985   10.4187    1.4629 O   0  0  0  0  0  0  0  0  0  0  0  0
    2.3734   11.1497    1.9374 H   0  0  0  0  0  0  0  0  0  0  0  0
    6.4012    2.2707    3.6431 Cl  0  0  0  0  0  0  0  0  0  0  0  0
    7.5159    4.1943    1.4904 Cl  0  0  0  0  0  0  0  0  0  0  0  0
    7.0575    4.4048    3.6720 Pt  0  0  0  0  0  0  0  0  0  0  0  0
  1  3  2  0  0  0  0
  2  1  1  0  0  0  0
  3  5  1  0  0  0  0
  3  4  1  0  0  0  0
  5  6  1  0  0  0  0
  7  8  1  0  0  0  0
  7  5  2  0  0  0  0
  9  7  1  0  0  0  0
 10 11  1  0  0  0  0
 10  9  2  0  0  0  0
 11 12  1  0  0  0  0
 13 11  2  0  0  0  0
 14 13  1  0  0  0  0
 15 31  1  0  0  0  0
 16 15  1  0  0  0  0
 17 15  1  0  0  0  0
 18 15  1  0  0  0  0
 18 19  1  0  0  0  0
 19 20  1  0  0  0  0
 21 19  2  0  0  0  0
 21 28  1  0  0  0  0
 22 21  1  0  0  0  0
 23 22  1  0  0  0  0
 24 26  1  0  0  0  0
 24 22  2  0  0  0  0
 25 24  1  0  0  0  0
 26 18  2  0  0  0  0
 27 26  1  0  0  0  0
 28 32  2  0  0  0  0
 29  9  1  0  0  0  0
 29  1  1  0  0  0  0
 30 10  1  0  0  0  0
 31 30  1  0  0  0  0
 31 13  1  0  0  0  0
 33 34  1  0  0  0  0
 33 28  1  0  0  0  0
 35 37  1  0  0  0  0
 36 37  1  0  0  0  0
 37 30  1  0  0  0  0
 37 29  1  0  0  0  0
M  END
$$$$
