CSD_code = MAJCAC | q = 0 | S = 0 | Stoichiometry = C26H26Br2NiP2 | MND = 4
 OpenBabel04212202063D

 57 60  0  0  0  0  0  0  0  0999 V2000
    4.4836   11.6357    3.6121 Br  0  0  0  0  0  0  0  0  0  0  0  0
    6.1512   10.1389    3.4078 Ni  0  0  0  0  0  0  0  0  0  0  0  0
    7.1803    8.7787    2.0316 P   0  0  0  0  0  4  0  0  0  0  0  0
    6.3683    7.1574    1.8484 C   0  0  0  0  0  0  0  0  0  0  0  0
    6.3182    4.7657    1.6619 C   0  0  0  0  0  0  0  0  0  0  0  0
    8.9711    8.4038    2.1108 C   0  0  0  0  0  0  0  0  0  0  0  0
    6.8955   10.5774   -2.2073 C   0  0  0  0  0  0  0  0  0  0  0  0
    4.2596    5.9919    1.7369 C   0  0  0  0  0  0  0  0  0  0  0  0
    4.9746    7.1682    1.8467 C   0  0  0  0  0  0  0  0  0  0  0  0
    7.0514    9.4568    0.3345 C   0  0  0  0  0  0  0  0  0  0  0  0
    7.0367    5.9453    1.7541 C   0  0  0  0  0  0  0  0  0  0  0  0
    7.9539   10.4433   -0.0581 C   0  0  0  0  0  0  0  0  0  0  0  0
    7.8750   10.9961   -1.3222 C   0  0  0  0  0  0  0  0  0  0  0  0
    4.9344    4.7847    1.6510 C   0  0  0  0  0  0  0  0  0  0  0  0
    6.0677    9.0422   -0.5571 C   0  0  0  0  0  0  0  0  0  0  0  0
    5.9957    9.5992   -1.8215 C   0  0  0  0  0  0  0  0  0  0  0  0
    5.3579    8.2780   -0.2766 H   0  0  0  0  0  0  0  0  0  0  0  0
    6.8448    3.8248    1.5971 H   0  0  0  0  0  0  0  0  0  0  0  0
    5.2265    9.2686   -2.5039 H   0  0  0  0  0  0  0  0  0  0  0  0
    4.4550    8.1192    1.9252 H   0  0  0  0  0  0  0  0  0  0  0  0
    3.1790    6.0117    1.7205 H   0  0  0  0  0  0  0  0  0  0  0  0
    8.7066   10.8002    0.6288 H   0  0  0  0  0  0  0  0  0  0  0  0
    6.8283   11.0173   -3.1909 H   0  0  0  0  0  0  0  0  0  0  0  0
    8.5766   11.7642   -1.6104 H   0  0  0  0  0  0  0  0  0  0  0  0
    8.1153    5.9115    1.7536 H   0  0  0  0  0  0  0  0  0  0  0  0
    9.1647    7.6876    2.9069 H   0  0  0  0  0  0  0  0  0  0  0  0
    9.3040    8.0023    1.1539 H   0  0  0  0  0  0  0  0  0  0  0  0
    4.3809    3.8606    1.5776 H   0  0  0  0  0  0  0  0  0  0  0  0
    9.5141    9.3237    2.3280 H   0  0  0  0  0  0  0  0  0  0  0  0
    7.8183   11.6361    3.2033 Br  0  0  0  0  0  0  0  0  0  0  0  0
    5.1226    8.7786    4.7842 P   0  0  0  0  0  4  0  0  0  0  0  0
    5.9347    7.1574    4.9674 C   0  0  0  0  0  0  0  0  0  0  0  0
    7.3284    7.1683    4.9692 C   0  0  0  0  0  0  0  0  0  0  0  0
    8.0435    5.9920    5.0788 C   0  0  0  0  0  0  0  0  0  0  0  0
    7.3687    4.7847    5.1646 C   0  0  0  0  0  0  0  0  0  0  0  0
    5.9849    4.7656    5.1536 C   0  0  0  0  0  0  0  0  0  0  0  0
    5.2663    5.9451    5.0615 C   0  0  0  0  0  0  0  0  0  0  0  0
    4.1878    5.9113    5.0619 H   0  0  0  0  0  0  0  0  0  0  0  0
    5.4584    3.8247    5.2182 H   0  0  0  0  0  0  0  0  0  0  0  0
    7.9223    3.8606    5.2378 H   0  0  0  0  0  0  0  0  0  0  0  0
    9.1241    6.0119    5.0953 H   0  0  0  0  0  0  0  0  0  0  0  0
    7.8478    8.1193    4.8908 H   0  0  0  0  0  0  0  0  0  0  0  0
    3.3318    8.4035    4.7055 C   0  0  0  0  0  0  0  0  0  0  0  0
    3.1381    7.6876    3.9092 H   0  0  0  0  0  0  0  0  0  0  0  0
    2.9991    8.0017    5.6623 H   0  0  0  0  0  0  0  0  0  0  0  0
    2.7887    9.3235    4.4887 H   0  0  0  0  0  0  0  0  0  0  0  0
    5.2516    9.4566    6.4813 C   0  0  0  0  0  0  0  0  0  0  0  0
    4.3493   10.4434    6.8740 C   0  0  0  0  0  0  0  0  0  0  0  0
    4.4287   10.9966    8.1379 C   0  0  0  0  0  0  0  0  0  0  0  0
    5.4083   10.5779    9.0228 C   0  0  0  0  0  0  0  0  0  0  0  0
    6.3077    9.5993    8.6372 C   0  0  0  0  0  0  0  0  0  0  0  0
    6.2352    9.0420    7.3730 C   0  0  0  0  0  0  0  0  0  0  0  0
    6.9449    8.2776    7.0925 H   0  0  0  0  0  0  0  0  0  0  0  0
    7.0767    9.2684    9.3198 H   0  0  0  0  0  0  0  0  0  0  0  0
    5.4753   11.0175   10.0067 H   0  0  0  0  0  0  0  0  0  0  0  0
    3.7272   11.7647    8.4261 H   0  0  0  0  0  0  0  0  0  0  0  0
    3.5968   10.8005    6.1870 H   0  0  0  0  0  0  0  0  0  0  0  0
  2  1  1  0  0  0  0
  2 31  1  0  0  0  0
  3  6  1  0  0  0  0
  3  2  1  0  0  0  0
  4  3  1  0  0  0  0
  5 11  1  0  0  0  0
  6 29  1  0  0  0  0
  6 26  1  0  0  0  0
  7 16  2  0  0  0  0
  7 13  1  0  0  0  0
  8  9  2  0  0  0  0
  9  4  1  0  0  0  0
  9 20  1  0  0  0  0
 10  3  1  0  0  0  0
 11  4  2  0  0  0  0
 12 10  1  0  0  0  0
 12 22  1  0  0  0  0
 13 12  2  0  0  0  0
 14  5  2  0  0  0  0
 14  8  1  0  0  0  0
 15 17  1  0  0  0  0
 15 10  2  0  0  0  0
 16 15  1  0  0  0  0
 18  5  1  0  0  0  0
 19 16  1  0  0  0  0
 21  8  1  0  0  0  0
 23  7  1  0  0  0  0
 24 13  1  0  0  0  0
 25 11  1  0  0  0  0
 27  6  1  0  0  0  0
 28 14  1  0  0  0  0
 30  2  1  0  0  0  0
 31 32  1  0  0  0  0
 31 47  1  0  0  0  0
 32 33  2  0  0  0  0
 32 37  1  0  0  0  0
 33 34  1  0  0  0  0
 34 41  1  0  0  0  0
 34 35  2  0  0  0  0
 35 40  1  0  0  0  0
 36 35  1  0  0  0  0
 36 39  1  0  0  0  0
 37 38  1  0  0  0  0
 37 36  2  0  0  0  0
 42 33  1  0  0  0  0
 43 31  1  0  0  0  0
 43 45  1  0  0  0  0
 44 43  1  0  0  0  0
 46 43  1  0  0  0  0
 47 48  2  0  0  0  0
 47 52  1  0  0  0  0
 48 49  1  0  0  0  0
 49 56  1  0  0  0  0
 49 50  2  0  0  0  0
 50 55  1  0  0  0  0
 51 50  1  0  0  0  0
 51 54  1  0  0  0  0
 52 51  2  0  0  0  0
 53 52  1  0  0  0  0
 57 48  1  0  0  0  0
M  END
$$$$
