CSD_code = MAJHUA | q = 0 | S = 0 | Stoichiometry = C19H28Cl2Zr | MND = 12
 OpenBabel04212202063D

 50 50  0  0  1  0  0  0  0  0999 V2000
    2.0093    3.3851    3.7541 Zr  0  0  0  0  0  0  0  0  0  0  0  0
    2.4656    1.8758    2.0210 Cl  0  0  0  0  0  0  0  0  0  0  0  0
    2.4048    5.2644    2.4090 Cl  0  0  0  0  0  0  0  0  0  0  0  0
    0.0581    4.1601    5.0621 C   0  0  0  0  0  0  0  0  0  0  0  0
   -0.2636    4.4241    3.7120 C   0  0  0  0  0  0  0  0  0  0  0  0
   -0.3860    3.1920    3.0226 C   0  0  0  0  0  0  0  0  0  0  0  0
   -0.1252    2.1599    3.9631 C   0  0  0  0  0  0  0  0  0  0  0  0
    0.1258    2.7558    5.2217 C   0  0  0  0  0  3  0  0  0  0  0  0
    3.0039    3.6373    6.0563 C   0  0  0  0  0  0  0  0  0  0  0  0
    3.7306    4.4305    5.1223 C   0  0  0  0  0  0  0  0  0  0  0  0
    4.3820    3.5486    4.2070 C   0  0  1  0  0  0  0  0  0  0  0  0
    4.0472    2.2159    4.5782 C   0  0  0  0  0  0  0  0  0  0  0  0
    3.1848    2.2702    5.7054 C   0  0  0  0  0  0  0  0  0  0  0  0
    2.4143    4.1582    7.3385 C   0  0  0  0  0  0  0  0  0  0  0  0
    3.8712    5.9264    5.2046 C   0  0  0  0  0  0  0  0  0  0  0  0
    5.3083    3.9134    3.0794 C   0  0  0  0  0  0  0  0  0  0  0  0
    4.6513    0.9565    4.0255 C   0  0  0  0  0  0  0  0  0  0  0  0
    2.7439    1.0575    6.4789 C   0  0  0  0  0  0  0  0  0  0  0  0
   -0.9144    3.0441    1.6085 C   0  0  0  0  0  0  0  0  0  0  0  0
   -0.9209    1.5768    1.1683 C   0  0  0  0  0  0  0  0  0  0  0  0
   -0.0584    3.8604    0.6304 C   0  0  0  0  0  0  0  0  0  0  0  0
   -2.3579    3.5749    1.5858 C   0  0  0  0  0  0  0  0  0  0  0  0
    0.0723    4.8972    5.8549 H   0  0  0  0  0  0  0  0  0  0  0  0
   -0.4811    5.4045    3.3066 H   0  0  0  0  0  0  0  0  0  0  0  0
   -0.2326    1.0961    3.7889 H   0  0  0  0  0  0  0  0  0  0  0  0
    0.1880    2.2231    6.1610 H   0  0  0  0  0  0  0  0  0  0  0  0
    2.1160    5.2006    7.2388 H   0  0  0  0  0  0  0  0  0  0  0  0
    1.5518    3.5788    7.6643 H   0  0  0  0  0  0  0  0  0  0  0  0
    3.1645    4.1065    8.1317 H   0  0  0  0  0  0  0  0  0  0  0  0
    4.4773    6.2034    6.0701 H   0  0  0  0  0  0  0  0  0  0  0  0
    2.8951    6.4097    5.3014 H   0  0  0  0  0  0  0  0  0  0  0  0
    4.3508    6.3225    4.3123 H   0  0  0  0  0  0  0  0  0  0  0  0
    5.0137    3.3987    2.1595 H   0  0  0  0  0  0  0  0  0  0  0  0
    6.3341    3.6251    3.3186 H   0  0  0  0  0  0  0  0  0  0  0  0
    5.2896    4.9846    2.8867 H   0  0  0  0  0  0  0  0  0  0  0  0
    3.9099    0.1595    3.9571 H   0  0  0  0  0  0  0  0  0  0  0  0
    5.4569    0.6147    4.6806 H   0  0  0  0  0  0  0  0  0  0  0  0
    5.0670    1.1229    3.0340 H   0  0  0  0  0  0  0  0  0  0  0  0
    2.1565    1.3361    7.3511 H   0  0  0  0  0  0  0  0  0  0  0  0
    2.1536    0.3790    5.8567 H   0  0  0  0  0  0  0  0  0  0  0  0
    3.6171    0.5044    6.8301 H   0  0  0  0  0  0  0  0  0  0  0  0
   -0.0429    4.9136    0.9056 H   0  0  0  0  0  0  0  0  0  0  0  0
    0.9675    3.4893    0.6181 H   0  0  0  0  0  0  0  0  0  0  0  0
   -0.4641    3.7779   -0.3763 H   0  0  0  0  0  0  0  0  0  0  0  0
   -1.5829    0.9868    1.7989 H   0  0  0  0  0  0  0  0  0  0  0  0
    0.0821    1.1580    1.2110 H   0  0  0  0  0  0  0  0  0  0  0  0
   -1.2776    1.5034    0.1434 H   0  0  0  0  0  0  0  0  0  0  0  0
   -2.3860    4.6313    1.8397 H   0  0  0  0  0  0  0  0  0  0  0  0
   -2.7883    3.4474    0.5951 H   0  0  0  0  0  0  0  0  0  0  0  0
   -2.9715    3.0335    2.3028 H   0  0  0  0  0  0  0  0  0  0  0  0
  1 11  1  0  0  0  0
  2  1  1  0  0  0  0
  3  1  1  0  0  0  0
  4  8  1  0  0  0  0
  4 23  1  0  0  0  0
  5  4  2  0  0  0  0
  6  5  1  0  0  0  0
  6  7  2  0  0  0  0
  7  8  1  0  0  0  0
  8 26  1  0  0  0  0
  9 14  1  0  0  0  0
 10 15  1  0  0  0  0
 10  9  2  0  0  0  0
 11 16  1  6  0  0  0
 11 12  1  0  0  0  0
 11 10  1  0  0  0  0
 12 13  2  0  0  0  0
 13  9  1  0  0  0  0
 13 18  1  0  0  0  0
 14 28  1  0  0  0  0
 14 29  1  0  0  0  0
 15 31  1  0  0  0  0
 15 30  1  0  0  0  0
 16 34  1  0  0  0  0
 17 12  1  0  0  0  0
 17 37  1  0  0  0  0
 18 41  1  0  0  0  0
 18 39  1  0  0  0  0
 19  6  1  0  0  0  0
 20 46  1  0  0  0  0
 20 19  1  0  0  0  0
 20 45  1  0  0  0  0
 21 42  1  0  0  0  0
 21 19  1  0  0  0  0
 22 19  1  0  0  0  0
 22 48  1  0  0  0  0
 22 50  1  0  0  0  0
 24  5  1  0  0  0  0
 25  7  1  0  0  0  0
 27 14  1  0  0  0  0
 32 15  1  0  0  0  0
 33 16  1  0  0  0  0
 35 16  1  0  0  0  0
 36 17  1  0  0  0  0
 38 17  1  0  0  0  0
 40 18  1  0  0  0  0
 43 21  1  0  0  0  0
 44 21  1  0  0  0  0
 47 20  1  0  0  0  0
 49 22  1  0  0  0  0
M  END
$$$$
