CSD_code = MAJMAO | q = 1 | S = 0 | Stoichiometry = C20H20ClN2Ru(1+) | MND = 9
 OpenBabel04212202063D

 44 46  0  0  1  0  0  0  0  0999 V2000
    1.2967    2.1711    8.6984 Ru  0  0  0  0  0  0  0  0  0  0  0  0
    3.1306    3.5463    9.0962 Cl  0  0  0  0  0 15  0  0  0  0  0  0
    2.6975    0.9068    8.0614 N   0  0  0  0  0  0  0  0  0  0  0  0
    1.7326    1.2062   10.3417 N   0  0  0  0  0  0  0  0  0  0  0  0
    3.2161    0.9091    6.8381 C   0  0  0  0  0  3  0  0  0  0  0  0
    2.7882    1.6045    6.1273 H   0  0  0  0  0  0  0  0  0  0  0  0
    4.2687    0.0880    6.4769 C   0  0  0  0  0  0  0  0  0  0  0  0
    4.6570    0.1273    5.4726 H   0  0  0  0  0  0  0  0  0  0  0  0
    4.8198   -0.7685    7.4263 C   0  0  0  0  0  0  0  0  0  0  0  0
    5.6437   -1.4143    7.1678 H   0  0  0  0  0  0  0  0  0  0  0  0
    4.3056   -0.7603    8.7067 C   0  0  0  0  0  0  0  0  0  0  0  0
    4.7145   -1.3846    9.4845 H   0  0  0  0  0  0  0  0  0  0  0  0
    3.2439    0.0983    9.0049 C   0  0  0  0  0  0  0  0  0  0  0  0
    2.6428    0.2808   10.2903 C   0  0  0  0  0  3  0  0  0  0  0  0
    2.9560   -0.2754   11.1658 H   0  0  0  0  0  0  0  0  0  0  0  0
    1.0787    1.5202   11.5313 C   0  0  0  0  0  0  0  0  0  0  0  0
    0.5651    0.5294   12.3695 C   0  0  0  0  0  0  0  0  0  0  0  0
    0.6551   -0.5068   12.0753 H   0  0  0  0  0  0  0  0  0  0  0  0
   -0.0867    0.8591   13.5460 C   0  0  0  0  0  0  0  0  0  0  0  0
   -0.2129    2.2098   13.9074 C   0  0  0  0  0  0  0  0  0  0  0  0
    0.3193    3.1879   13.0731 C   0  0  0  0  0  0  0  0  0  0  0  0
    0.2428    4.2253   13.3620 H   0  0  0  0  0  0  0  0  0  0  0  0
    0.9515    2.8628   11.8903 C   0  0  0  0  0  0  0  0  0  0  0  0
    1.4057    3.6233   11.2683 H   0  0  0  0  0  0  0  0  0  0  0  0
   -0.6393   -0.2169   14.4232 C   0  0  0  0  0  0  0  0  0  0  0  0
   -0.4783   -1.1984   13.9866 H   0  0  0  0  0  0  0  0  0  0  0  0
   -1.7075   -0.0754   14.5798 H   0  0  0  0  0  0  0  0  0  0  0  0
   -0.1603   -0.1901   15.4008 H   0  0  0  0  0  0  0  0  0  0  0  0
   -0.9029    2.5938   15.1728 C   0  0  0  0  0  0  0  0  0  0  0  0
   -0.9089    3.6722   15.3013 H   0  0  0  0  0  0  0  0  0  0  0  0
   -0.4042    2.1442   16.0303 H   0  0  0  0  0  0  0  0  0  0  0  0
   -1.9320    2.2361   15.1729 H   0  0  0  0  0  0  0  0  0  0  0  0
   -0.5120    1.4632    7.4911 C   0  0  0  0  0  3  0  0  0  0  0  0
   -0.7471    0.4863    7.0834 H   0  0  0  0  0  0  0  0  0  0  0  0
   -0.9591    1.8168    8.7791 C   0  0  2  0  0  0  0  0  0  0  0  0
   -1.5362    1.1094    9.3653 H   0  0  0  0  0  0  0  0  0  0  0  0
   -0.7953    3.1444    9.2476 C   0  0  0  0  0  0  0  0  0  0  0  0
   -1.2350    3.4397   10.1924 H   0  0  0  0  0  0  0  0  0  0  0  0
   -0.0979    4.0708    8.4725 C   0  0  0  0  0  0  0  0  0  0  0  0
    0.0231    5.0919    8.8171 H   0  0  0  0  0  0  0  0  0  0  0  0
    0.3536    3.7190    7.1689 C   0  0  0  0  0  0  0  0  0  0  0  0
    0.8075    4.4759    6.5392 H   0  0  0  0  0  0  0  0  0  0  0  0
    0.1110    2.4386    6.6730 C   0  0  0  0  0  0  0  0  0  0  0  0
    0.3521    2.1963    5.6443 H   0  0  0  0  0  0  0  0  0  0  0  0
  1 35  1  0  0  0  0
  1  4  1  0  0  0  0
  3  1  1  0  0  0  0
  3 13  1  0  0  0  0
  4 16  1  0  0  0  0
  5  3  1  0  0  0  0
  6  5  1  0  0  0  0
  7  5  1  0  0  0  0
  7  9  2  0  0  0  0
  8  7  1  0  0  0  0
  9 11  1  0  0  0  0
 10  9  1  0  0  0  0
 11 13  2  0  0  0  0
 11 12  1  0  0  0  0
 13 14  1  0  0  0  0
 14  4  1  0  0  0  0
 14 15  1  0  0  0  0
 16 23  2  0  0  0  0
 16 17  1  0  0  0  0
 17 19  2  0  0  0  0
 18 17  1  0  0  0  0
 19 20  1  0  0  0  0
 19 25  1  0  0  0  0
 20 29  1  0  0  0  0
 21 22  1  0  0  0  0
 21 20  2  0  0  0  0
 23 21  1  0  0  0  0
 24 23  1  0  0  0  0
 25 27  1  0  0  0  0
 25 28  1  0  0  0  0
 26 25  1  0  0  0  0
 29 32  1  0  0  0  0
 29 30  1  0  0  0  0
 29 31  1  0  0  0  0
 33 35  1  0  0  0  0
 34 33  1  0  0  0  0
 35 37  1  0  0  0  0
 35 36  1  1  0  0  0
 37 38  1  0  0  0  0
 39 40  1  0  0  0  0
 39 37  2  0  0  0  0
 41 39  1  0  0  0  0
 42 41  1  0  0  0  0
 43 41  2  0  0  0  0
 43 33  1  0  0  0  0
 44 43  1  0  0  0  0
M  END
$$$$
