CSD_code = MAJQEU | q = 0 | S = 0 | Stoichiometry = C22H28ClCuN4O6S2 | MND = 3
 OpenBabel04212202063D

 64 65  0  0  1  0  0  0  0  0999 V2000
    1.7602    1.3772    0.7265 Cu  0  0  0  0  0  0  0  0  0  0  0  0
    1.7578    3.6297    0.7191 Cl  0  0  0  0  0  0  0  0  0  0  0  0
    3.5950    0.2576    1.5737 S   0  0  0  0  0  0  0  0  0  0  0  0
   -0.0718    0.2455   -0.1119 S   0  0  0  0  0  0  0  0  0  0  0  0
    8.7303   -3.5005    3.9155 O   0  0  0  0  0  0  0  0  0  0  0  0
    6.4261    3.7073    2.5728 O   0  0  0  0  0  0  0  0  0  0  0  0
    4.6905    4.9230    1.8238 O   0  0  0  0  0  0  0  0  0  0  0  0
   -5.1987   -3.5382   -2.4358 O   0  0  0  0  0  0  0  0  0  0  0  0
   -2.8966    3.6819   -1.1703 O   0  0  0  0  0  0  0  0  0  0  0  0
   -1.1658    4.9077   -0.4266 O   0  0  0  0  0  0  0  0  0  0  0  0
    5.9505    1.0971    2.5242 N   0  0  0  0  0  0  0  0  0  0  0  0
    6.5225    1.9323    2.7049 H   0  0  0  0  0  0  0  0  0  0  0  0
    4.4811    2.7250    1.8370 N   0  0  0  0  0  0  0  0  0  0  0  0
    3.5503    2.9835    1.4518 H   0  0  0  0  0  0  0  0  0  0  0  0
   -2.4213    1.0733   -1.0873 N   0  0  0  0  0  0  0  0  0  0  0  0
   -2.9912    1.9070   -1.2816 H   0  0  0  0  0  0  0  0  0  0  0  0
   -0.9557    2.7094   -0.4117 N   0  0  0  0  0  0  0  0  0  0  0  0
   -0.0275    2.9720   -0.0233 H   0  0  0  0  0  0  0  0  0  0  0  0
   10.0604   -3.4330    4.3697 C   0  0  0  0  0  0  0  0  0  0  0  0
   10.7244   -3.0110    3.6084 H   0  0  0  0  0  0  0  0  0  0  0  0
   10.3548   -4.4614    4.5727 H   0  0  0  0  0  0  0  0  0  0  0  0
   10.1420   -2.8459    5.2901 H   0  0  0  0  0  0  0  0  0  0  0  0
    8.0955   -2.3452    3.5850 C   0  0  0  0  0  0  0  0  0  0  0  0
    6.7785   -2.4720    3.1401 C   0  0  0  0  0  0  0  0  0  0  0  0
    6.3509   -3.4601    3.0864 H   0  0  0  0  0  0  0  0  0  0  0  0
    6.0346   -1.3707    2.7774 C   0  0  0  0  0  0  0  0  0  0  0  0
    5.0227   -1.5021    2.4400 H   0  0  0  0  0  0  0  0  0  0  0  0
    6.5960   -0.0969    2.8515 C   0  0  0  0  0  0  0  0  0  0  0  0
    7.9103    0.0304    3.2987 C   0  0  0  0  0  0  0  0  0  0  0  0
    8.3553    1.0133    3.3636 H   0  0  0  0  0  0  0  0  0  0  0  0
    8.6569   -1.0734    3.6609 C   0  0  0  0  0  0  0  0  0  0  0  0
    9.6703   -0.9287    3.9998 H   0  0  0  0  0  0  0  0  0  0  0  0
    4.7547    1.3886    2.0124 C   0  0  1  0  0  3  0  0  0  0  0  0
    5.3014    3.7883    2.1186 C   0  0  0  0  0  0  0  0  0  0  0  0
    5.4140    6.1323    2.0642 C   0  0  0  0  0  0  0  0  0  0  0  0
    5.7589    6.1390    3.1043 H   0  0  0  0  0  0  0  0  0  0  0  0
    6.2942    6.1529    1.4115 H   0  0  0  0  0  0  0  0  0  0  0  0
    4.4815    7.2927    1.7762 C   0  0  0  0  0  0  0  0  0  0  0  0
    4.1396    7.2447    0.7465 H   0  0  0  0  0  0  0  0  0  0  0  0
    5.0015    8.2317    1.9407 H   0  0  0  0  0  0  0  0  0  0  0  0
    3.6141    7.2419    2.4280 H   0  0  0  0  0  0  0  0  0  0  0  0
   -6.5269   -3.4751   -2.8965 C   0  0  0  0  0  0  0  0  0  0  0  0
   -7.1930   -3.0393   -2.1448 H   0  0  0  0  0  0  0  0  0  0  0  0
   -6.8228   -4.5060   -3.0839 H   0  0  0  0  0  0  0  0  0  0  0  0
   -6.6034   -2.9029   -3.8267 H   0  0  0  0  0  0  0  0  0  0  0  0
   -4.5642   -2.3794   -2.1170 C   0  0  0  0  0  0  0  0  0  0  0  0
   -5.1233   -1.1080   -2.2133 C   0  0  0  0  0  0  0  0  0  0  0  0
   -6.1341   -0.9664   -2.5608 H   0  0  0  0  0  0  0  0  0  0  0  0
   -4.3774   -0.0006   -1.8607 C   0  0  0  0  0  0  0  0  0  0  0  0
   -4.8205    0.9819   -1.9410 H   0  0  0  0  0  0  0  0  0  0  0  0
   -3.0662   -0.1240   -1.4033 C   0  0  0  0  0  0  0  0  0  0  0  0
   -2.5069   -1.3973   -1.3093 C   0  0  0  0  0  0  0  0  0  0  0  0
   -1.4972   -1.5255   -0.9640 H   0  0  0  0  0  0  0  0  0  0  0  0
   -3.2501   -2.5022   -1.6624 C   0  0  0  0  0  0  0  0  0  0  0  0
   -2.8246   -3.4903   -1.5933 H   0  0  0  0  0  0  0  0  0  0  0  0
   -1.2285    1.3707   -0.5719 C   0  0  1  0  0  3  0  0  0  0  0  0
   -1.7744    3.7690   -0.7107 C   0  0  0  0  0  0  0  0  0  0  0  0
   -1.8911    6.1128   -0.6826 C   0  0  0  0  0  0  0  0  0  0  0  0
   -2.7766    6.1355   -0.0372 H   0  0  0  0  0  0  0  0  0  0  0  0
   -2.2276    6.1100   -1.7254 H   0  0  0  0  0  0  0  0  0  0  0  0
   -0.9651    7.2788   -0.3965 C   0  0  0  0  0  0  0  0  0  0  0  0
   -0.6280    7.2379    0.6352 H   0  0  0  0  0  0  0  0  0  0  0  0
   -1.4889    8.2144   -0.5684 H   0  0  0  0  0  0  0  0  0  0  0  0
   -0.0943    7.2289   -1.0438 H   0  0  0  0  0  0  0  0  0  0  0  0
  1  3  1  0  0  0  0
  2  1  1  0  0  0  0
  4  1  1  0  0  0  0
  5 19  1  0  0  0  0
  7 35  1  0  0  0  0
  7 34  1  0  0  0  0
  8 46  1  0  0  0  0
  9 57  2  0  0  0  0
 11 12  1  0  0  0  0
 11 28  1  0  0  0  0
 13 33  1  0  0  0  0
 13 34  1  0  0  0  0
 14 13  1  0  0  0  0
 15 56  1  0  0  0  0
 16 15  1  0  0  0  0
 17 18  1  0  0  0  0
 19 21  1  0  0  0  0
 19 22  1  0  0  0  0
 20 19  1  0  0  0  0
 23 31  1  0  0  0  0
 23  5  1  0  0  0  0
 24 23  2  0  0  0  0
 25 24  1  0  0  0  0
 26 28  2  0  0  0  0
 26 24  1  0  0  0  0
 27 26  1  0  0  0  0
 28 29  1  0  0  0  0
 29 30  1  0  0  0  0
 29 31  2  0  0  0  0
 31 32  1  0  0  0  0
 33  3  1  6  0  0  0
 33 11  1  0  0  0  0
 34  6  2  0  0  0  0
 35 36  1  0  0  0  0
 37 35  1  0  0  0  0
 38 40  1  0  0  0  0
 38 35  1  0  0  0  0
 38 41  1  0  0  0  0
 39 38  1  0  0  0  0
 42  8  1  0  0  0  0
 42 43  1  0  0  0  0
 44 42  1  0  0  0  0
 45 42  1  0  0  0  0
 46 54  1  0  0  0  0
 47 46  2  0  0  0  0
 47 49  1  0  0  0  0
 48 47  1  0  0  0  0
 49 51  2  0  0  0  0
 50 49  1  0  0  0  0
 51 52  1  0  0  0  0
 51 15  1  0  0  0  0
 52 53  1  0  0  0  0
 54 55  1  0  0  0  0
 54 52  2  0  0  0  0
 56 17  1  0  0  0  0
 56  4  1  1  0  0  0
 57 10  1  0  0  0  0
 57 17  1  0  0  0  0
 58 10  1  0  0  0  0
 58 61  1  0  0  0  0
 58 59  1  0  0  0  0
 60 58  1  0  0  0  0
 61 62  1  0  0  0  0
 63 61  1  0  0  0  0
 64 61  1  0  0  0  0
M  END
$$$$
