CSD_code = MAJVUR | q = 0 | S = 0 | Stoichiometry = C14H34Cl3N3Si2Zr | MND = 8
 OpenBabel04212202063D

 57 58  0  0  0  0  0  0  0  0999 V2000
    6.1147    5.0894    4.0099 Zr  0  0  0  0  0  0  0  0  0  0  0  0
    7.0083    5.7228    1.2471 Si  0  0  0  0  0  0  0  0  0  0  0  0
    3.5415    7.0849    4.2809 Si  0  0  0  0  0  0  0  0  0  0  0  0
    6.5567    4.0508    1.8221 N   0  0  0  0  0  4  0  0  0  0  0  0
    3.8938    5.2958    4.2085 N   0  0  0  0  0  4  0  0  0  0  0  0
    6.1929    6.5300    2.5147 N   0  0  0  0  0  0  0  0  0  0  0  0
    5.5706    3.3613    0.9962 C   0  0  0  0  0  0  0  0  0  0  0  0
    6.0352    2.9723    0.0796 H   0  0  0  0  0  0  0  0  0  0  0  0
    4.7663    4.0273    0.6964 H   0  0  0  0  0  0  0  0  0  0  0  0
    5.1562    2.5058    1.5393 H   0  0  0  0  0  0  0  0  0  0  0  0
    7.6619    3.1035    1.9972 C   0  0  0  0  0  0  0  0  0  0  0  0
    7.2966    2.2056    2.5057 H   0  0  0  0  0  0  0  0  0  0  0  0
    8.4573    3.5366    2.5986 H   0  0  0  0  0  0  0  0  0  0  0  0
    8.0777    2.7971    1.0281 H   0  0  0  0  0  0  0  0  0  0  0  0
    6.1646    6.0582   -0.4470 C   0  0  0  0  0  0  0  0  0  0  0  0
    5.1084    6.2824   -0.3364 H   0  0  0  0  0  0  0  0  0  0  0  0
    6.2586    5.2113   -1.1175 H   0  0  0  0  0  0  0  0  0  0  0  0
    6.6178    6.9089   -0.9428 H   0  0  0  0  0  0  0  0  0  0  0  0
    8.8962    5.6949    0.8803 C   0  0  0  0  0  0  0  0  0  0  0  0
    9.2498    6.6428    0.4857 H   0  0  0  0  0  0  0  0  0  0  0  0
    9.1301    4.9355    0.1379 H   0  0  0  0  0  0  0  0  0  0  0  0
    9.4789    5.4727    1.7702 H   0  0  0  0  0  0  0  0  0  0  0  0
    6.0824    7.8013    3.0227 C   0  0  0  0  0  0  0  0  0  0  0  0
    7.2071    8.8213    2.8032 C   0  0  0  0  0  0  0  0  0  0  0  0
    6.9440   10.1682    3.4878 C   0  0  0  0  0  0  0  0  0  0  0  0
    6.8534   10.0501    4.5641 H   0  0  0  0  0  0  0  0  0  0  0  0
    6.0481   10.6458    3.0985 H   0  0  0  0  0  0  0  0  0  0  0  0
    7.7866   10.8293    3.2937 H   0  0  0  0  0  0  0  0  0  0  0  0
    7.3988    9.1010    1.3105 C   0  0  0  0  0  0  0  0  0  0  0  0
    8.2336    9.7834    1.1651 H   0  0  0  0  0  0  0  0  0  0  0  0
    6.5005    9.5583    0.9006 H   0  0  0  0  0  0  0  0  0  0  0  0
    7.5995    8.1908    0.7603 H   0  0  0  0  0  0  0  0  0  0  0  0
    8.4760    8.2310    3.4298 C   0  0  0  0  0  0  0  0  0  0  0  0
    8.2888    7.9881    4.4777 H   0  0  0  0  0  0  0  0  0  0  0  0
    9.2907    8.9510    3.3815 H   0  0  0  0  0  0  0  0  0  0  0  0
    8.7859    7.3248    2.9214 H   0  0  0  0  0  0  0  0  0  0  0  0
    5.0033    8.1249    3.7747 C   0  0  0  0  0  0  0  0  0  0  0  0
    4.9552    9.1230    4.1743 H   0  0  0  0  0  0  0  0  0  0  0  0
    2.0397    7.3953    3.1180 C   0  0  0  0  0  0  0  0  0  0  0  0
    2.2722    7.2267    2.0715 H   0  0  0  0  0  0  0  0  0  0  0  0
    1.7351    8.4313    3.2120 H   0  0  0  0  0  0  0  0  0  0  0  0
    1.1774    6.7873    3.3746 H   0  0  0  0  0  0  0  0  0  0  0  0
    2.9382    7.5729    6.0262 C   0  0  0  0  0  0  0  0  0  0  0  0
    2.0300    7.0554    6.3182 H   0  0  0  0  0  0  0  0  0  0  0  0
    2.7196    8.6352    6.0370 H   0  0  0  0  0  0  0  0  0  0  0  0
    3.6971    7.3879    6.7783 H   0  0  0  0  0  0  0  0  0  0  0  0
    3.3469    4.5744    5.3660 C   0  0  0  0  0  0  0  0  0  0  0  0
    2.2565    4.6827    5.4172 H   0  0  0  0  0  0  0  0  0  0  0  0
    3.7895    4.9623    6.2837 H   0  0  0  0  0  0  0  0  0  0  0  0
    3.5808    3.5087    5.2923 H   0  0  0  0  0  0  0  0  0  0  0  0
    3.3896    4.6601    2.9947 C   0  0  0  0  0  0  0  0  0  0  0  0
    3.7399    3.6218    2.9492 H   0  0  0  0  0  0  0  0  0  0  0  0
    3.7377    5.2185    2.1231 H   0  0  0  0  0  0  0  0  0  0  0  0
    2.2910    4.6429    2.9799 H   0  0  0  0  0  0  0  0  0  0  0  0
    6.0560    6.1236    6.1353 Cl  0  0  0  0  0  0  0  0  0  0  0  0
    8.4507    5.0518    4.4001 Cl  0  0  0  0  0  0  0  0  0  0  0  0
    5.8912    2.8448    4.6869 Cl  0  0  0  0  0  0  0  0  0  0  0  0
  1  5  1  0  0  0  0
  1 56  1  0  0  0  0
  1 57  1  0  0  0  0
  1 55  1  0  0  0  0
  2  4  1  0  0  0  0
  2  6  1  0  0  0  0
  3 43  1  0  0  0  0
  4 11  1  0  0  0  0
  4  1  1  0  0  0  0
  5  3  1  0  0  0  0
  5 47  1  0  0  0  0
  6 23  1  0  0  0  0
  6  1  1  0  0  0  0
  7 10  1  0  0  0  0
  7  4  1  0  0  0  0
  8  7  1  0  0  0  0
  9  7  1  0  0  0  0
 11 12  1  0  0  0  0
 11 13  1  0  0  0  0
 14 11  1  0  0  0  0
 15 16  1  0  0  0  0
 15  2  1  0  0  0  0
 17 15  1  0  0  0  0
 18 15  1  0  0  0  0
 19  2  1  0  0  0  0
 19 22  1  0  0  0  0
 20 19  1  0  0  0  0
 21 19  1  0  0  0  0
 23 37  2  0  0  0  0
 24 23  1  0  0  0  0
 24 33  1  0  0  0  0
 24 25  1  0  0  0  0
 25 26  1  0  0  0  0
 27 25  1  0  0  0  0
 28 25  1  0  0  0  0
 29 24  1  0  0  0  0
 30 29  1  0  0  0  0
 31 29  1  0  0  0  0
 32 29  1  0  0  0  0
 33 34  1  0  0  0  0
 35 33  1  0  0  0  0
 36 33  1  0  0  0  0
 37 38  1  0  0  0  0
 37  3  1  0  0  0  0
 39 41  1  0  0  0  0
 39 42  1  0  0  0  0
 39  3  1  0  0  0  0
 40 39  1  0  0  0  0
 43 45  1  0  0  0  0
 43 44  1  0  0  0  0
 43 46  1  0  0  0  0
 47 48  1  0  0  0  0
 47 49  1  0  0  0  0
 50 47  1  0  0  0  0
 51  5  1  0  0  0  0
 52 51  1  0  0  0  0
 53 51  1  0  0  0  0
 54 51  1  0  0  0  0
M  END
$$$$
