CSD_code = MAJXEB | q = 0 | S = 0 | Stoichiometry = C14H17ClN2Pd | MND = 4
 OpenBabel04212202063D

 35 37  0  0  1  0  0  0  0  0999 V2000
    1.4869    0.8392    8.7609 Pd  0  0  2  0  0  0  0  0  0  0  0  0
    3.6300   -0.0733    8.9453 Cl  0  0  0  0  0  0  0  0  0  0  0  0
    1.9582    1.5528    7.0234 N   0  0  0  0  0  0  0  0  0  0  0  0
    1.0075    0.0986   10.5984 N   0  0  0  0  0  4  0  0  0  0  0  0
    1.5485   -0.7455   10.8068 H   0  0  0  0  0  0  0  0  0  0  0  0
    1.3132    0.8284   11.2535 H   0  0  0  0  0  0  0  0  0  0  0  0
   -2.9951    3.8603    7.3647 C   0  0  0  0  0  0  0  0  0  0  0  0
   -2.3554    4.7355    7.2626 H   0  0  0  0  0  0  0  0  0  0  0  0
   -3.9587    4.1750    7.7579 H   0  0  0  0  0  0  0  0  0  0  0  0
   -3.1498    3.4428    6.3694 H   0  0  0  0  0  0  0  0  0  0  0  0
   -0.8392   -0.0965   12.2232 C   0  0  0  0  0  0  0  0  0  0  0  0
   -0.1991   -0.7709   12.7908 H   0  0  0  0  0  0  0  0  0  0  0  0
   -1.8670   -0.4194   12.3581 H   0  0  0  0  0  0  0  0  0  0  0  0
   -0.7386    0.9097   12.6266 H   0  0  0  0  0  0  0  0  0  0  0  0
   -0.4493   -0.1161   10.7447 C   0  0  1  0  0  0  0  0  0  0  0  0
   -0.6760   -1.1079   10.3253 H   0  0  0  0  0  0  0  0  0  0  0  0
   -1.1500    0.9360    9.9003 C   0  0  0  0  0  0  0  0  0  0  0  0
   -2.4673    1.3086   10.1126 C   0  0  0  0  0  0  0  0  0  0  0  0
   -3.0416    0.8631   10.9122 H   0  0  0  0  0  0  0  0  0  0  0  0
   -3.0653    2.2553    9.2983 C   0  0  0  0  0  0  0  0  0  0  0  0
   -4.0934    2.5384    9.4755 H   0  0  0  0  0  0  0  0  0  0  0  0
   -2.3570    2.8409    8.2613 C   0  0  0  0  0  0  0  0  0  0  0  0
   -1.0348    2.4558    8.0513 C   0  0  0  0  0  0  0  0  0  0  0  0
   -0.4921    2.9205    7.2339 H   0  0  0  0  0  0  0  0  0  0  0  0
   -0.4080    1.5053    8.8485 C   0  0  0  0  0  0  0  0  0  0  0  0
    1.5324    0.9868    5.8926 C   0  0  0  0  0  3  0  0  0  0  0  0
    0.7188    0.2710    5.9880 H   0  0  0  0  0  0  0  0  0  0  0  0
    2.0868    1.2870    4.6607 C   0  0  0  0  0  0  0  0  0  0  0  0
    1.7190    0.8004    3.7712 H   0  0  0  0  0  0  0  0  0  0  0  0
    3.1173    2.2128    4.5935 C   0  0  0  0  0  0  0  0  0  0  0  0
    3.5726    2.4652    3.6482 H   0  0  0  0  0  0  0  0  0  0  0  0
    3.5513    2.8036    5.7714 C   0  0  0  0  0  0  0  0  0  0  0  0
    4.3530    3.5250    5.7680 H   0  0  0  0  0  0  0  0  0  0  0  0
    2.9490    2.4455    6.9636 C   0  0  0  0  0  0  0  0  0  0  0  0
    3.2725    2.8720    7.9115 H   0  0  0  0  0  0  0  0  0  0  0  0
  1 25  1  0  0  0  0
  1  2  1  6  0  0  0
  1  4  1  0  0  0  0
  3  1  1  0  0  0  0
  4 15  1  0  0  0  0
  4  5  1  0  0  0  0
  4  6  1  0  0  0  0
  7  9  1  0  0  0  0
  7 22  1  0  0  0  0
  8  7  1  0  0  0  0
 10  7  1  0  0  0  0
 11 13  1  0  0  0  0
 11 14  1  0  0  0  0
 11 12  1  0  0  0  0
 15 16  1  6  0  0  0
 15 11  1  0  0  0  0
 17 18  1  0  0  0  0
 17 15  1  0  0  0  0
 18 19  1  0  0  0  0
 20 21  1  0  0  0  0
 20 18  2  0  0  0  0
 22 20  1  0  0  0  0
 23 22  2  0  0  0  0
 23 25  1  0  0  0  0
 24 23  1  0  0  0  0
 25 17  2  0  0  0  0
 26 27  1  0  0  0  0
 26  3  1  0  0  0  0
 28 26  1  0  0  0  0
 29 28  1  0  0  0  0
 30 28  2  0  0  0  0
 30 32  1  0  0  0  0
 31 30  1  0  0  0  0
 32 34  2  0  0  0  0
 33 32  1  0  0  0  0
 34  3  1  0  0  0  0
 34 35  1  0  0  0  0
M  END
$$$$
