CSD_code = MAKGIO | q = 0 | S = 0 | Stoichiometry = C28H27AsClOPPt | MND = 4
 OpenBabel04212202063D

 60 63  0  0  0  0  0  0  0  0999 V2000
    3.8825   -3.6223    2.3506 Pt  0  0  0  0  0  0  0  0  0  0  0  0
    3.2042   -5.9649    3.3633 As  0  0  0  0  0  0  0  0  0  0  0  0
    5.3835   -3.6465    4.0627 P   0  0  0  0  0  4  0  0  0  0  0  0
    2.1942   -3.7032    0.8022 Cl  0  0  0  0  0  0  0  0  0  0  0  0
    4.4739   -0.9023    2.3846 O   0  0  0  0  0  0  0  0  0  0  0  0
    1.8575   -7.3121    3.8127 C   0  0  0  0  0  0  0  0  0  0  0  0
    1.4646   -7.5765    5.1184 C   0  0  0  0  0  0  0  0  0  0  0  0
    1.9495   -7.0638    5.9419 H   0  0  0  0  0  0  0  0  0  0  0  0
    0.4617   -8.4962    5.3742 C   0  0  0  0  0  0  0  0  0  0  0  0
    0.1702   -8.7048    6.3939 H   0  0  0  0  0  0  0  0  0  0  0  0
   -0.1701   -9.1449    4.3270 C   0  0  0  0  0  0  0  0  0  0  0  0
   -0.9524   -9.8617    4.5288 H   0  0  0  0  0  0  0  0  0  0  0  0
    0.1943   -8.8646    3.0195 C   0  0  0  0  0  0  0  0  0  0  0  0
   -0.3073   -9.3591    2.2002 H   0  0  0  0  0  0  0  0  0  0  0  0
    1.1965   -7.9471    2.7645 C   0  0  0  0  0  0  0  0  0  0  0  0
    1.4846   -7.7131    1.7431 H   0  0  0  0  0  0  0  0  0  0  0  0
    4.3342   -7.0515    2.2021 C   0  0  0  0  0  0  0  0  0  0  0  0
    5.0199   -6.4322    1.1629 C   0  0  0  0  0  0  0  0  0  0  0  0
    4.8536   -5.3654    0.9786 H   0  0  0  0  0  0  0  0  0  0  0  0
    5.8838   -7.1551    0.3584 C   0  0  0  0  0  0  0  0  0  0  0  0
    6.4098   -6.6649   -0.4481 H   0  0  0  0  0  0  0  0  0  0  0  0
    6.0675   -8.5087    0.5856 C   0  0  0  0  0  0  0  0  0  0  0  0
    6.7390   -9.0769   -0.0414 H   0  0  0  0  0  0  0  0  0  0  0  0
    5.3840   -9.1367    1.6149 C   0  0  0  0  0  0  0  0  0  0  0  0
    5.5230  -10.1942    1.7895 H   0  0  0  0  0  0  0  0  0  0  0  0
    4.5234   -8.4121    2.4194 C   0  0  0  0  0  0  0  0  0  0  0  0
    3.9838   -8.9065    3.2204 H   0  0  0  0  0  0  0  0  0  0  0  0
    7.0077   -2.8430    4.0576 C   0  0  0  0  0  0  0  0  0  0  0  0
    7.0527   -1.4605    4.2277 C   0  0  0  0  0  0  0  0  0  0  0  0
    6.1333   -0.9180    4.3957 H   0  0  0  0  0  0  0  0  0  0  0  0
    8.2617   -0.7946    4.1673 C   0  0  0  0  0  0  0  0  0  0  0  0
    8.2921    0.2761    4.3027 H   0  0  0  0  0  0  0  0  0  0  0  0
    9.4321   -1.4982    3.9288 C   0  0  0  0  0  0  0  0  0  0  0  0
   10.3768   -0.9771    3.8831 H   0  0  0  0  0  0  0  0  0  0  0  0
    9.3892   -2.8694    3.7393 C   0  0  0  0  0  0  0  0  0  0  0  0
   10.2994   -3.4171    3.5429 H   0  0  0  0  0  0  0  0  0  0  0  0
    8.1814   -3.5422    3.7956 C   0  0  0  0  0  0  0  0  0  0  0  0
    8.1545   -4.6105    3.6340 H   0  0  0  0  0  0  0  0  0  0  0  0
    4.5429   -2.9142    5.4945 C   0  0  0  0  0  0  0  0  0  0  0  0
    5.1945   -2.6869    6.7025 C   0  0  0  0  0  0  0  0  0  0  0  0
    6.2504   -2.9051    6.7942 H   0  0  0  0  0  0  0  0  0  0  0  0
    4.4910   -2.1700    7.7747 C   0  0  0  0  0  0  0  0  0  0  0  0
    4.9959   -1.9895    8.7126 H   0  0  0  0  0  0  0  0  0  0  0  0
    3.1408   -1.8809    7.6477 C   0  0  0  0  0  0  0  0  0  0  0  0
    2.5975   -1.4756    8.4885 H   0  0  0  0  0  0  0  0  0  0  0  0
    2.4895   -2.1039    6.4453 C   0  0  0  0  0  0  0  0  0  0  0  0
    1.4399   -1.8713    6.3458 H   0  0  0  0  0  0  0  0  0  0  0  0
    3.1889   -2.6200    5.3694 C   0  0  0  0  0  0  0  0  0  0  0  0
    2.6951   -2.7824    4.4101 H   0  0  0  0  0  0  0  0  0  0  0  0
    4.3895   -6.0750    4.9579 C   0  0  0  0  0  0  0  0  0  0  0  0
    3.8869   -5.5982    5.8068 H   0  0  0  0  0  0  0  0  0  0  0  0
    4.5721   -7.1239    5.2137 H   0  0  0  0  0  0  0  0  0  0  0  0
    5.7067   -5.3623    4.6782 C   0  0  0  0  0  0  0  0  0  0  0  0
    6.2546   -5.9007    3.8951 H   0  0  0  0  0  0  0  0  0  0  0  0
    6.3375   -5.3120    5.5739 H   0  0  0  0  0  0  0  0  0  0  0  0
    4.4942   -1.8618    1.6648 C   0  0  0  0  0  0  0  0  0  0  0  0
    4.9498   -1.8539    0.2328 C   0  0  0  0  0  0  0  0  0  0  0  0
    5.6964   -2.6315    0.0723 H   0  0  0  0  0  0  0  0  0  0  0  0
    5.3600   -0.8791   -0.0281 H   0  0  0  0  0  0  0  0  0  0  0  0
    4.0893   -2.0774   -0.3984 H   0  0  0  0  0  0  0  0  0  0  0  0
  1  3  1  0  0  0  0
  2  6  1  0  0  0  0
  2 50  1  0  0  0  0
  3 53  1  0  0  0  0
  3 39  1  0  0  0  0
  4  1  1  0  0  0  0
  6  7  1  0  0  0  0
  7  9  2  0  0  0  0
  7  8  1  0  0  0  0
  9 10  1  0  0  0  0
 11 12  1  0  0  0  0
 11  9  1  0  0  0  0
 13 11  2  0  0  0  0
 14 13  1  0  0  0  0
 15 13  1  0  0  0  0
 15  6  2  0  0  0  0
 16 15  1  0  0  0  0
 17 26  1  0  0  0  0
 17  2  1  0  0  0  0
 18 17  2  0  0  0  0
 19 18  1  0  0  0  0
 20 22  2  0  0  0  0
 20 18  1  0  0  0  0
 21 20  1  0  0  0  0
 22 24  1  0  0  0  0
 23 22  1  0  0  0  0
 24 25  1  0  0  0  0
 24 26  2  0  0  0  0
 26 27  1  0  0  0  0
 28  3  1  0  0  0  0
 28 29  1  0  0  0  0
 29 30  1  0  0  0  0
 31 29  2  0  0  0  0
 31 32  1  0  0  0  0
 33 31  1  0  0  0  0
 34 33  1  0  0  0  0
 35 37  1  0  0  0  0
 35 33  2  0  0  0  0
 36 35  1  0  0  0  0
 37 28  2  0  0  0  0
 38 37  1  0  0  0  0
 39 40  1  0  0  0  0
 40 41  1  0  0  0  0
 40 42  2  0  0  0  0
 42 43  1  0  0  0  0
 44 42  1  0  0  0  0
 44 45  1  0  0  0  0
 46 44  2  0  0  0  0
 47 46  1  0  0  0  0
 48 39  2  0  0  0  0
 48 46  1  0  0  0  0
 49 48  1  0  0  0  0
 50 52  1  0  0  0  0
 50 51  1  0  0  0  0
 53 50  1  0  0  0  0
 53 55  1  0  0  0  0
 54 53  1  0  0  0  0
 56  1  1  0  0  0  0
 56  5  2  0  0  0  0
 57 56  1  0  0  0  0
 58 57  1  0  0  0  0
 59 57  1  0  0  0  0
 60 57  1  0  0  0  0
M  END
$$$$
