CSD_code = MALXAZ | q = 0 | S = 0 | Stoichiometry = C18H15ClN4Pt | MND = 4
 OpenBabel04212202063D

 39 43  0  0  0  0  0  0  0  0999 V2000
    4.4362    6.3234    6.6258 Pt  0  0  1  0  0  0  0  0  0  0  0  0
    4.0724    4.5031    5.3880 Cl  0  0  0  0  0  0  0  0  0  0  0  0
    4.2702    5.4448    8.4585 N   0  0  0  0  0  0  0  0  0  0  0  0
    4.8180    7.6562    9.0214 N   0  0  0  0  0  0  0  0  0  0  0  0
    4.8099    7.8054    7.7282 N   0  0  0  0  0  0  0  0  0  0  0  0
    4.7207    7.6985    5.1582 N   0  0  0  0  0  0  0  0  0  0  0  0
    3.9739    4.2062    8.8307 C   0  0  0  0  0  0  0  0  0  0  0  0
    3.7974    3.5016    8.0282 H   0  0  0  0  0  0  0  0  0  0  0  0
    3.8957    3.8284   10.1578 C   0  0  0  0  0  0  0  0  0  0  0  0
    3.6528    2.8111   10.4155 H   0  0  0  0  0  0  0  0  0  0  0  0
    4.1370    4.7842   11.1423 C   0  0  0  0  0  0  0  0  0  0  0  0
    4.0819    4.5161   12.1866 H   0  0  0  0  0  0  0  0  0  0  0  0
    4.4459    6.0729   10.7718 C   0  0  0  0  0  0  0  0  0  0  0  0
    4.6404    6.8497   11.4920 H   0  0  0  0  0  0  0  0  0  0  0  0
    4.5114    6.3999    9.4093 C   0  0  0  0  0  0  0  0  0  0  0  0
    5.1104    8.9644    7.1157 C   0  0  0  0  0  0  0  0  0  0  0  0
    5.4459   10.1684    7.7647 C   0  0  0  0  0  0  0  0  0  0  0  0
    5.4795   10.1731    8.8428 H   0  0  0  0  0  0  0  0  0  0  0  0
    5.7065   11.2821    7.0189 C   0  0  0  0  0  0  0  0  0  0  0  0
    5.9658   12.2134    7.4975 H   0  0  0  0  0  0  0  0  0  0  0  0
    5.6167   11.2287    5.6132 C   0  0  0  0  0  0  0  0  0  0  0  0
    5.7944   12.1314    5.0470 H   0  0  0  0  0  0  0  0  0  0  0  0
    5.3032   10.0750    4.9528 C   0  0  0  0  0  0  0  0  0  0  0  0
    5.2150   10.0634    3.8775 H   0  0  0  0  0  0  0  0  0  0  0  0
    5.0573    8.8816    5.6791 C   0  0  0  0  0  0  0  0  0  0  0  0
    4.7258    7.4511    3.7836 C   0  0  0  0  0  0  0  0  0  0  0  0
    5.8380    7.7328    2.9879 C   0  0  0  0  0  0  0  0  0  0  0  0
    6.7230    8.1551    3.4421 H   0  0  0  0  0  0  0  0  0  0  0  0
    5.8184    7.4369    1.6407 C   0  0  0  0  0  0  0  0  0  0  0  0
    6.6886    7.6522    1.0367 H   0  0  0  0  0  0  0  0  0  0  0  0
    4.7022    6.8555    1.0474 C   0  0  0  0  0  0  0  0  0  0  0  0
    3.6026    6.5689    1.8466 C   0  0  0  0  0  0  0  0  0  0  0  0
    2.7289    6.1093    1.4077 H   0  0  0  0  0  0  0  0  0  0  0  0
    3.6088    6.8581    3.1962 C   0  0  0  0  0  0  0  0  0  0  0  0
    2.7512    6.6303    3.8135 H   0  0  0  0  0  0  0  0  0  0  0  0
    4.7021    6.5474   -0.4186 C   0  0  0  0  0  0  0  0  0  0  0  0
    4.7855    7.4664   -0.9987 H   0  0  0  0  0  0  0  0  0  0  0  0
    3.7879    6.0365   -0.7088 H   0  0  0  0  0  0  0  0  0  0  0  0
    5.5513    5.9155   -0.6747 H   0  0  0  0  0  0  0  0  0  0  0  0
  1  2  1  6  0  0  0
  1  5  1  0  0  0  0
  1  3  1  0  0  0  0
  3  7  1  0  0  0  0
  3 15  1  0  0  0  0
  4 15  2  0  0  0  0
  5  4  1  0  0  0  0
  6 25  1  0  0  0  0
  6  1  1  0  0  0  0
  7  9  2  0  0  0  0
  8  7  1  0  0  0  0
  9 10  1  0  0  0  0
  9 11  1  0  0  0  0
 11 12  1  0  0  0  0
 13 11  2  0  0  0  0
 13 14  1  0  0  0  0
 15 13  1  0  0  0  0
 16  5  1  0  0  0  0
 16 17  1  0  0  0  0
 17 18  1  0  0  0  0
 19 20  1  0  0  0  0
 19 17  2  0  0  0  0
 21 19  1  0  0  0  0
 22 21  1  0  0  0  0
 23 21  2  0  0  0  0
 23 25  1  0  0  0  0
 24 23  1  0  0  0  0
 25 16  2  0  0  0  0
 26  6  1  0  0  0  0
 27 28  1  0  0  0  0
 27 26  2  0  0  0  0
 29 27  1  0  0  0  0
 30 29  1  0  0  0  0
 31 29  2  0  0  0  0
 31 32  1  0  0  0  0
 32 34  2  0  0  0  0
 33 32  1  0  0  0  0
 34 26  1  0  0  0  0
 34 35  1  0  0  0  0
 36 31  1  0  0  0  0
 37 36  1  0  0  0  0
 38 36  1  0  0  0  0
 39 36  1  0  0  0  0
M  END
$$$$
