CSD_code = MAMDIP | q = 1 | S = 0 | Stoichiometry = C21H21IN4PPdS(1+) | MND = 4
 OpenBabel04212202063D

 50 54  0  0  1  0  0  0  0  0999 V2000
   -1.7274    6.1217    3.3513 Pd  0  0  1  0  0  0  0  0  0  0  0  0
   -1.8393    4.0319    4.8282 I   0  0  0  0  0  0  0  0  0  0  0  0
   -1.6186    7.8795    1.7743 S   0  0  0  0  0  0  0  0  0  0  0  0
   -1.7391    5.5469    0.3603 N   0  0  0  0  0  0  0  0  0  0  0  0
   -1.7707    4.7583    1.5023 N   0  0  0  0  0  4  0  0  0  0  0  0
   -0.9675    4.1171    1.5589 H   0  0  0  0  0  0  0  0  0  0  0  0
   -2.6282    4.1919    1.5650 H   0  0  0  0  0  0  0  0  0  0  0  0
   -1.7146    6.2359   -1.7143 N   0  0  0  0  0  0  0  0  0  0  0  0
   -1.6608    7.2969   -0.8821 N   0  0  0  0  0  0  0  0  0  0  0  0
   -1.6185    8.2349   -1.2507 H   0  0  0  0  0  0  0  0  0  0  0  0
   -1.6739    6.9180    0.4089 C   0  0  2  0  0  3  0  0  0  0  0  0
   -1.7617    5.1797   -0.9756 C   0  0  0  0  0  0  0  0  0  0  0  0
   -1.8300    3.7807   -1.4312 C   0  0  0  0  0  0  0  0  0  0  0  0
   -1.8372    3.7666   -2.5166 H   0  0  0  0  0  0  0  0  0  0  0  0
   -2.7357    3.2966   -1.0650 H   0  0  0  0  0  0  0  0  0  0  0  0
   -0.9690    3.2141   -1.0758 H   0  0  0  0  0  0  0  0  0  0  0  0
   -1.7528    7.4171    5.1691 P   0  0  0  0  0  4  0  0  0  0  0  0
   -1.8570    9.1905    4.8113 C   0  0  0  0  0  0  0  0  0  0  0  0
   -0.7263    9.8057    4.2741 C   0  0  0  0  0  0  0  0  0  0  0  0
    0.1684    9.2195    4.0991 H   0  0  0  0  0  0  0  0  0  0  0  0
   -0.7557   11.1530    3.9723 C   0  0  0  0  0  0  0  0  0  0  0  0
    0.1189   11.6318    3.5590 H   0  0  0  0  0  0  0  0  0  0  0  0
   -1.9099   11.8882    4.2010 C   0  0  0  0  0  0  0  0  0  0  0  0
   -1.9317   12.9408    3.9644 H   0  0  0  0  0  0  0  0  0  0  0  0
   -3.0342   11.2765    4.7315 C   0  0  0  0  0  0  0  0  0  0  0  0
   -3.9299   11.8516    4.9095 H   0  0  0  0  0  0  0  0  0  0  0  0
   -3.0161    9.9263    5.0352 C   0  0  0  0  0  0  0  0  0  0  0  0
   -3.8921    9.4481    5.4507 H   0  0  0  0  0  0  0  0  0  0  0  0
   -0.1912    7.2310    6.0558 C   0  0  0  0  0  0  0  0  0  0  0  0
    0.0354    7.8545    7.2793 C   0  0  0  0  0  0  0  0  0  0  0  0
   -0.7424    8.4494    7.7372 H   0  0  0  0  0  0  0  0  0  0  0  0
    1.2679    7.7167    7.8919 C   0  0  0  0  0  0  0  0  0  0  0  0
    1.4457    8.1854    8.8476 H   0  0  0  0  0  0  0  0  0  0  0  0
    2.2739    6.9849    7.2801 C   0  0  0  0  0  0  0  0  0  0  0  0
    3.2312    6.8784    7.7661 H   0  0  0  0  0  0  0  0  0  0  0  0
    2.0618    6.3994    6.0413 C   0  0  0  0  0  0  0  0  0  0  0  0
    2.8543    5.8460    5.5614 H   0  0  0  0  0  0  0  0  0  0  0  0
    0.8308    6.5234    5.4250 C   0  0  0  0  0  0  0  0  0  0  0  0
    0.6524    6.0704    4.4408 H   0  0  0  0  0  0  0  0  0  0  0  0
   -3.2623    6.9910    6.0665 C   0  0  0  0  0  0  0  0  0  0  0  0
   -4.3493    6.7094    5.2342 C   0  0  0  0  0  0  0  0  0  0  0  0
   -4.2156    6.7514    4.1433 H   0  0  0  0  0  0  0  0  0  0  0  0
   -5.5661    6.3635    5.7852 C   0  0  0  0  0  0  0  0  0  0  0  0
   -6.4091    6.1424    5.1485 H   0  0  0  0  0  0  0  0  0  0  0  0
   -5.6963    6.2846    7.1654 C   0  0  0  0  0  0  0  0  0  0  0  0
   -6.6441    6.0034    7.5973 H   0  0  0  0  0  0  0  0  0  0  0  0
   -4.6137    6.5455    7.9877 C   0  0  0  0  0  0  0  0  0  0  0  0
   -4.7172    6.4639    9.0585 H   0  0  0  0  0  0  0  0  0  0  0  0
   -3.3888    6.9011    7.4447 C   0  0  0  0  0  0  0  0  0  0  0  0
   -2.5401    7.0809    8.0866 H   0  0  0  0  0  0  0  0  0  0  0  0
  1  2  1  1  0  0  0
  1 17  1  0  0  0  0
  3  1  1  0  0  0  0
  4 11  1  0  0  0  0
  4  5  1  0  0  0  0
  5  6  1  0  0  0  0
  5  7  1  0  0  0  0
  5  1  1  0  0  0  0
  8 12  2  0  0  0  0
  8  9  1  0  0  0  0
  9 11  1  0  0  0  0
 10  9  1  0  0  0  0
 11  3  1  6  0  0  0
 12  4  1  0  0  0  0
 13 16  1  0  0  0  0
 13 15  1  0  0  0  0
 13 12  1  0  0  0  0
 14 13  1  0  0  0  0
 17 29  1  0  0  0  0
 17 40  1  0  0  0  0
 18 27  1  0  0  0  0
 18 17  1  0  0  0  0
 19 18  2  0  0  0  0
 20 19  1  0  0  0  0
 21 23  2  0  0  0  0
 21 19  1  0  0  0  0
 22 21  1  0  0  0  0
 23 25  1  0  0  0  0
 24 23  1  0  0  0  0
 25 26  1  0  0  0  0
 25 27  2  0  0  0  0
 27 28  1  0  0  0  0
 29 30  1  0  0  0  0
 30 31  1  0  0  0  0
 30 32  2  0  0  0  0
 32 33  1  0  0  0  0
 34 35  1  0  0  0  0
 34 32  1  0  0  0  0
 36 34  2  0  0  0  0
 37 36  1  0  0  0  0
 38 36  1  0  0  0  0
 38 29  2  0  0  0  0
 39 38  1  0  0  0  0
 40 49  1  0  0  0  0
 41 43  1  0  0  0  0
 41 40  2  0  0  0  0
 42 41  1  0  0  0  0
 43 45  2  0  0  0  0
 44 43  1  0  0  0  0
 45 46  1  0  0  0  0
 45 47  1  0  0  0  0
 47 48  1  0  0  0  0
 49 47  2  0  0  0  0
 49 50  1  0  0  0  0
M  END
$$$$
