CSD_code = MAMDEL | q = 1 | S = 0 | Stoichiometry = C21H21ClN4PPdS(1+) | MND = 4
 OpenBabel04212202063D

 50 54  0  0  1  0  0  0  0  0999 V2000
    4.4078   -0.2815    7.1219 Pd  0  0  1  0  0  0  0  0  0  0  0  0
    2.7489   -1.6826    6.6021 Cl  0  0  0  0  0  0  0  0  0  0  0  0
    6.3042    1.0368    7.6233 S   0  0  0  0  0  0  0  0  0  0  0  0
    7.1806   -1.4200    6.8042 N   0  0  0  0  0  0  0  0  0  0  0  0
    5.9006   -1.9139    6.5941 N   0  0  0  0  0  4  0  0  0  0  0  0
    5.6901   -2.7310    7.1806 H   0  0  0  0  0  0  0  0  0  0  0  0
    5.7284   -2.1645    5.6121 H   0  0  0  0  0  0  0  0  0  0  0  0
    9.3549   -1.2235    6.9436 N   0  0  0  0  0  0  0  0  0  0  0  0
    8.7688   -0.0683    7.3206 N   0  0  0  0  0  0  0  0  0  0  0  0
    9.3269    0.7204    7.6102 H   0  0  0  0  0  0  0  0  0  0  0  0
    7.4260   -0.1415    7.2516 C   0  0  2  0  0  3  0  0  0  0  0  0
    8.4075   -2.0408    6.6315 C   0  0  0  0  0  0  0  0  0  0  0  0
    8.5561   -3.4290    6.1606 C   0  0  0  0  0  0  0  0  0  0  0  0
    9.6132   -3.6727    6.1210 H   0  0  0  0  0  0  0  0  0  0  0  0
    8.1282   -3.5489    5.1652 H   0  0  0  0  0  0  0  0  0  0  0  0
    8.0578   -4.1236    6.8369 H   0  0  0  0  0  0  0  0  0  0  0  0
    2.7546    1.1519    7.5201 P   0  0  0  0  0  4  0  0  0  0  0  0
    1.7734    1.2509    6.0070 C   0  0  0  0  0  0  0  0  0  0  0  0
    2.5337    1.2003    4.8364 C   0  0  0  0  0  0  0  0  0  0  0  0
    3.6240    1.0890    4.9132 H   0  0  0  0  0  0  0  0  0  0  0  0
    1.9089    1.2733    3.6077 C   0  0  0  0  0  0  0  0  0  0  0  0
    2.4893    1.2352    2.6984 H   0  0  0  0  0  0  0  0  0  0  0  0
    0.5262    1.3839    3.5453 C   0  0  0  0  0  0  0  0  0  0  0  0
    0.0362    1.4330    2.5853 H   0  0  0  0  0  0  0  0  0  0  0  0
   -0.2272    1.4148    4.7064 C   0  0  0  0  0  0  0  0  0  0  0  0
   -1.3026    1.4836    4.6502 H   0  0  0  0  0  0  0  0  0  0  0  0
    0.3911    1.3494    5.9453 C   0  0  0  0  0  0  0  0  0  0  0  0
   -0.1978    1.3537    6.8499 H   0  0  0  0  0  0  0  0  0  0  0  0
    1.8720    0.6397    9.0099 C   0  0  0  0  0  0  0  0  0  0  0  0
    0.7615    1.3361    9.4779 C   0  0  0  0  0  0  0  0  0  0  0  0
    0.3904    2.1926    8.9327 H   0  0  0  0  0  0  0  0  0  0  0  0
    0.1513    0.9323   10.6520 C   0  0  0  0  0  0  0  0  0  0  0  0
   -0.7181    1.4597   11.0135 H   0  0  0  0  0  0  0  0  0  0  0  0
    0.6578   -0.1419   11.3669 C   0  0  0  0  0  0  0  0  0  0  0  0
    0.1763   -0.4526   12.2812 H   0  0  0  0  0  0  0  0  0  0  0  0
    1.7866   -0.8119   10.9204 C   0  0  0  0  0  0  0  0  0  0  0  0
    2.1860   -1.6360   11.4915 H   0  0  0  0  0  0  0  0  0  0  0  0
    2.3980   -0.4222    9.7430 C   0  0  0  0  0  0  0  0  0  0  0  0
    3.2924   -0.9413    9.3746 H   0  0  0  0  0  0  0  0  0  0  0  0
    3.3063    2.8396    7.8845 C   0  0  0  0  0  0  0  0  0  0  0  0
    3.0477    3.9139    7.0409 C   0  0  0  0  0  0  0  0  0  0  0  0
    2.4876    3.7649    6.1286 H   0  0  0  0  0  0  0  0  0  0  0  0
    3.5073    5.1742    7.3837 C   0  0  0  0  0  0  0  0  0  0  0  0
    3.3050    6.0117    6.7337 H   0  0  0  0  0  0  0  0  0  0  0  0
    4.2244    5.3615    8.5539 C   0  0  0  0  0  0  0  0  0  0  0  0
    4.5821    6.3459    8.8134 H   0  0  0  0  0  0  0  0  0  0  0  0
    4.4865    4.2881    9.3935 C   0  0  0  0  0  0  0  0  0  0  0  0
    5.0463    4.4373   10.3040 H   0  0  0  0  0  0  0  0  0  0  0  0
    4.0305    3.0279    9.0611 C   0  0  0  0  0  0  0  0  0  0  0  0
    4.2285    2.1772    9.7035 H   0  0  0  0  0  0  0  0  0  0  0  0
  1  2  1  1  0  0  0
  1 17  1  0  0  0  0
  1  3  1  0  0  0  0
  4 11  1  0  0  0  0
  5  4  1  0  0  0  0
  5  1  1  0  0  0  0
  5  6  1  0  0  0  0
  7  5  1  0  0  0  0
  8  9  1  0  0  0  0
  9 10  1  0  0  0  0
 11  9  1  0  0  0  0
 11  3  1  1  0  0  0
 12  4  1  0  0  0  0
 12  8  2  0  0  0  0
 13 12  1  0  0  0  0
 13 16  1  0  0  0  0
 14 13  1  0  0  0  0
 15 13  1  0  0  0  0
 17 40  1  0  0  0  0
 17 29  1  0  0  0  0
 18 17  1  0  0  0  0
 19 20  1  0  0  0  0
 19 18  2  0  0  0  0
 21 19  1  0  0  0  0
 22 21  1  0  0  0  0
 23 21  2  0  0  0  0
 23 25  1  0  0  0  0
 24 23  1  0  0  0  0
 25 27  2  0  0  0  0
 26 25  1  0  0  0  0
 27 18  1  0  0  0  0
 27 28  1  0  0  0  0
 29 30  2  0  0  0  0
 29 38  1  0  0  0  0
 30 32  1  0  0  0  0
 31 30  1  0  0  0  0
 32 33  1  0  0  0  0
 32 34  2  0  0  0  0
 34 35  1  0  0  0  0
 36 34  1  0  0  0  0
 36 37  1  0  0  0  0
 38 36  2  0  0  0  0
 39 38  1  0  0  0  0
 40 49  1  0  0  0  0
 41 43  1  0  0  0  0
 41 40  2  0  0  0  0
 42 41  1  0  0  0  0
 43 45  2  0  0  0  0
 44 43  1  0  0  0  0
 45 46  1  0  0  0  0
 45 47  1  0  0  0  0
 47 48  1  0  0  0  0
 49 47  2  0  0  0  0
 49 50  1  0  0  0  0
M  END
$$$$
