CSD_code = MAMGUE | q = 0 | S = 0 | Stoichiometry = C14H12Cl2N4Pt | MND = 4
 OpenBabel04212202063D

 33 36  0  0  1  0  0  0  0  0999 V2000
   -2.5090    0.7285    0.8510 C   0  0  0  0  0  3  0  0  0  0  0  0
   -2.4284    0.4328   -0.1863 H   0  0  0  0  0  0  0  0  0  0  0  0
   -3.5696    0.3282    1.6422 C   0  0  0  0  0  0  0  0  0  0  0  0
   -4.3341   -0.3093    1.2295 H   0  0  0  0  0  0  0  0  0  0  0  0
   -3.6301    0.7578    2.9594 C   0  0  0  0  0  0  0  0  0  0  0  0
   -4.4416    0.4624    3.6055 H   0  0  0  0  0  0  0  0  0  0  0  0
   -2.6197    1.5836    3.4311 C   0  0  0  0  0  0  0  0  0  0  0  0
   -2.6326    1.9457    4.4475 H   0  0  0  0  0  0  0  0  0  0  0  0
   -1.5957    1.9539    2.5770 C   0  0  0  0  0  0  0  0  0  0  0  0
   -0.4747    2.8641    3.0265 C   0  0  0  0  0  0  0  0  0  0  0  0
   -0.4466    3.7441    2.3635 H   0  0  0  0  0  0  0  0  0  0  0  0
   -0.6162    3.1866    4.0587 H   0  0  0  0  0  0  0  0  0  0  0  0
    1.6791    1.7998    3.8493 C   0  0  0  0  0  3  0  0  0  0  0  0
    1.5593    2.0329    4.8854 H   0  0  0  0  0  0  0  0  0  0  0  0
    2.6709    1.1306    3.1482 C   0  0  0  0  0  0  0  0  0  0  0  0
    3.9005    0.5092    3.6083 C   0  0  0  0  0  0  0  0  0  0  0  0
    4.2259    0.4560    4.9621 C   0  0  0  0  0  0  0  0  0  0  0  0
    3.5573    0.8777    5.6979 H   0  0  0  0  0  0  0  0  0  0  0  0
    5.4063   -0.1379    5.3671 C   0  0  0  0  0  0  0  0  0  0  0  0
    5.6544   -0.1758    6.4175 H   0  0  0  0  0  0  0  0  0  0  0  0
    6.2701   -0.6829    4.4310 C   0  0  0  0  0  0  0  0  0  0  0  0
    7.1915   -1.1449    4.7529 H   0  0  0  0  0  0  0  0  0  0  0  0
    5.9506   -0.6329    3.0834 C   0  0  0  0  0  0  0  0  0  0  0  0
    6.6234   -1.0564    2.3531 H   0  0  0  0  0  0  0  0  0  0  0  0
    4.7733   -0.0405    2.6702 C   0  0  0  0  0  0  0  0  0  0  0  0
    4.5090    0.0120    1.6261 H   0  0  0  0  0  0  0  0  0  0  0  0
   -1.5388    1.5237    1.3067 N   0  0  0  0  0  0  0  0  0  0  0  0
    0.7844    2.1778    2.9117 N   0  0  1  0  0  0  0  0  0  0  0  0
    1.2090    1.7541    1.7189 N   0  0  0  0  0  0  0  0  0  0  0  0
    2.3155    1.1354    1.8430 N   0  0  0  0  0  0  0  0  0  0  0  0
   -1.2787    2.2663   -1.6401 Cl  0  0  0  0  0  0  0  0  0  0  0  0
    1.8373    2.5451   -1.1050 Cl  0  0  0  0  0  0  0  0  0  0  0  0
    0.0639    2.0033    0.1221 Pt  0  0  0  0  0  0  0  0  0  0  0  0
  1 27  1  0  0  0  0
  1  3  1  0  0  0  0
  2  1  1  0  0  0  0
  3  5  2  0  0  0  0
  4  3  1  0  0  0  0
  5  7  1  0  0  0  0
  5  6  1  0  0  0  0
  7  8  1  0  0  0  0
  9 10  1  0  0  0  0
  9  7  2  0  0  0  0
 10 12  1  0  0  0  0
 11 10  1  0  0  0  0
 13 14  1  0  0  0  0
 15 16  1  0  0  0  0
 15 13  1  0  0  0  0
 16 17  1  0  0  0  0
 17 19  2  0  0  0  0
 17 18  1  0  0  0  0
 19 20  1  0  0  0  0
 21 22  1  0  0  0  0
 21 19  1  0  0  0  0
 23 21  2  0  0  0  0
 24 23  1  0  0  0  0
 25 23  1  0  0  0  0
 25 16  2  0  0  0  0
 26 25  1  0  0  0  0
 27  9  1  0  0  0  0
 28 10  1  0  0  0  0
 28 13  1  1  0  0  0
 29 30  1  0  0  0  0
 29 28  1  0  0  0  0
 30 15  2  0  0  0  0
 31 33  1  0  0  0  0
 32 33  1  0  0  0  0
 33 27  1  0  0  0  0
 33 29  1  0  0  0  0
M  END
$$$$
