CSD_code = MAMLET | q = 0 | S = 0 | Stoichiometry = C15H26ClN2OOsP | MND = 6
 OpenBabel04212202063D

 47 49  0  0  1  0  0  0  0  0999 V2000
    2.0175    7.7095    2.4206 Os  0  0  0  0  0  0  0  0  0  0  0  0
    2.7528    5.5381    2.8391 P   0  0  0  0  0  4  0  0  0  0  0  0
    1.6599    8.6691    5.2621 O   0  0  0  0  0  1  0  0  0  0  0  0
    2.1043    7.0108    0.3893 N   0  0  1  0  0  4  0  0  0  0  0  0
    1.1465    6.6359    0.3258 H   0  0  0  0  0  0  0  0  0  0  0  0
    1.2819    9.3191    1.4769 N   0  0  0  0  0  0  0  0  0  0  0  0
    0.5629   10.3062    2.0319 C   0  0  0  0  0  3  0  0  0  0  0  0
    0.5347   10.3244    3.1136 H   0  0  0  0  0  0  0  0  0  0  0  0
   -0.1178   11.2547    1.2967 C   0  0  0  0  0  0  0  0  0  0  0  0
   -0.6853   12.0175    1.8052 H   0  0  0  0  0  0  0  0  0  0  0  0
   -0.0673   11.2051   -0.0891 C   0  0  0  0  0  0  0  0  0  0  0  0
   -0.5942   11.9239   -0.6960 H   0  0  0  0  0  0  0  0  0  0  0  0
    0.6833   10.1950   -0.6725 C   0  0  0  0  0  0  0  0  0  0  0  0
    0.7576   10.1123   -1.7465 H   0  0  0  0  0  0  0  0  0  0  0  0
    1.3420    9.2798    0.1273 C   0  0  0  0  0  0  0  0  0  0  0  0
    2.1967    8.1857   -0.4670 C   0  0  0  0  0  0  0  0  0  0  0  0
    1.8944    7.9796   -1.5051 H   0  0  0  0  0  0  0  0  0  0  0  0
    3.2432    8.5241   -0.4754 H   0  0  0  0  0  0  0  0  0  0  0  0
    3.0391    5.9334    0.0914 C   0  0  0  0  0  0  0  0  0  0  0  0
    4.0558    6.3336    0.1652 H   0  0  0  0  0  0  0  0  0  0  0  0
    2.8953    5.5444   -0.9303 H   0  0  0  0  0  0  0  0  0  0  0  0
    2.8323    4.8155    1.1141 C   0  0  0  0  0  0  0  0  0  0  0  0
    3.6146    4.0586    1.0306 H   0  0  0  0  0  0  0  0  0  0  0  0
    1.8639    4.3383    0.9327 H   0  0  0  0  0  0  0  0  0  0  0  0
    1.6147    4.2918    3.6390 C   0  0  0  0  0  0  0  0  0  0  0  0
    0.7316    4.3370    2.9877 H   0  0  0  0  0  0  0  0  0  0  0  0
    2.1435    2.8622    3.6694 C   0  0  0  0  0  0  0  0  0  0  0  0
    2.9428    2.7574    4.3998 H   0  0  0  0  0  0  0  0  0  0  0  0
    2.5138    2.5469    2.6960 H   0  0  0  0  0  0  0  0  0  0  0  0
    1.3396    2.1874    3.9597 H   0  0  0  0  0  0  0  0  0  0  0  0
    1.1765    4.7559    5.0247 C   0  0  0  0  0  0  0  0  0  0  0  0
    0.2942    4.2023    5.3413 H   0  0  0  0  0  0  0  0  0  0  0  0
    0.9271    5.8162    4.9998 H   0  0  0  0  0  0  0  0  0  0  0  0
    1.9573    4.5977    5.7649 H   0  0  0  0  0  0  0  0  0  0  0  0
    4.4515    5.1931    3.5316 C   0  0  0  0  0  0  0  0  0  0  0  0
    4.5676    4.1124    3.6674 H   0  0  0  0  0  0  0  0  0  0  0  0
    5.5343    5.7045    2.5879 C   0  0  0  0  0  0  0  0  0  0  0  0
    5.3529    6.7537    2.3626 H   0  0  0  0  0  0  0  0  0  0  0  0
    5.5675    5.1364    1.6609 H   0  0  0  0  0  0  0  0  0  0  0  0
    6.5089    5.6211    3.0657 H   0  0  0  0  0  0  0  0  0  0  0  0
    4.5570    5.9138    4.8722 C   0  0  0  0  0  0  0  0  0  0  0  0
    5.5657    5.8307    5.2731 H   0  0  0  0  0  0  0  0  0  0  0  0
    3.8646    5.5029    5.6012 H   0  0  0  0  0  0  0  0  0  0  0  0
    4.3168    6.9685    4.7302 H   0  0  0  0  0  0  0  0  0  0  0  0
    1.8137    8.3066    4.1717 C   0  0  0  0  0  2  0  0  0  0  0  0
   -0.2069    6.7935    2.1928 Cl  0  0  0  0  0  0  0  0  0  0  0  0
    3.4772    8.2816    2.3454 H   0  0  0  0  0  0  0  0  0  0  0  0
  1  2  1  0  0  0  0
  1 45  1  0  0  0  0
  2 35  1  0  0  0  0
  2 25  1  0  0  0  0
  4  5  1  6  0  0  0
  4  1  1  0  0  0  0
  6  7  1  0  0  0  0
  6  1  1  0  0  0  0
  7  8  1  0  0  0  0
  9 10  1  0  0  0  0
  9  7  1  0  0  0  0
 11  9  2  0  0  0  0
 12 11  1  0  0  0  0
 13 11  1  0  0  0  0
 13 15  2  0  0  0  0
 14 13  1  0  0  0  0
 15  6  1  0  0  0  0
 16 15  1  0  0  0  0
 16  4  1  0  0  0  0
 17 16  1  0  0  0  0
 18 16  1  0  0  0  0
 19 20  1  0  0  0  0
 19  4  1  0  0  0  0
 19 22  1  0  0  0  0
 21 19  1  0  0  0  0
 22  2  1  0  0  0  0
 23 22  1  0  0  0  0
 24 22  1  0  0  0  0
 25 27  1  0  0  0  0
 25 31  1  0  0  0  0
 26 25  1  0  0  0  0
 27 30  1  0  0  0  0
 27 28  1  0  0  0  0
 29 27  1  0  0  0  0
 31 32  1  0  0  0  0
 31 34  1  0  0  0  0
 33 31  1  0  0  0  0
 35 36  1  0  0  0  0
 35 41  1  0  0  0  0
 37 40  1  0  0  0  0
 37 35  1  0  0  0  0
 38 37  1  0  0  0  0
 39 37  1  0  0  0  0
 41 42  1  0  0  0  0
 41 43  1  0  0  0  0
 44 41  1  0  0  0  0
 45  3  1  0  0  0  0
 46  1  1  0  0  0  0
 47  1  1  0  0  0  0
M  END
$$$$
