CSD_code = MAMLOD | q = 0 | S = 0 | Stoichiometry = C15H26ClN2OPRu | MND = 6
 OpenBabel04212202063D

 47 49  0  0  1  0  0  0  0  0999 V2000
    5.8485   10.2573    2.0689 C   0  0  0  0  0  3  0  0  0  0  0  0
    5.8173   10.2542    3.1516 H   0  0  0  0  0  0  0  0  0  0  0  0
    5.1653   11.2179    1.3492 C   0  0  0  0  0  0  0  0  0  0  0  0
    4.5943   11.9694    1.8705 H   0  0  0  0  0  0  0  0  0  0  0  0
    5.2187   11.1938   -0.0366 C   0  0  0  0  0  0  0  0  0  0  0  0
    4.6907   11.9230   -0.6301 H   0  0  0  0  0  0  0  0  0  0  0  0
    5.9711   10.1966   -0.6393 C   0  0  0  0  0  0  0  0  0  0  0  0
    6.0452   10.1324   -1.7144 H   0  0  0  0  0  0  0  0  0  0  0  0
    6.6319    9.2706    0.1475 C   0  0  0  0  0  0  0  0  0  0  0  0
    7.4901    8.1817   -0.4455 C   0  0  0  0  0  0  0  0  0  0  0  0
    7.2069    7.9845   -1.4911 H   0  0  0  0  0  0  0  0  0  0  0  0
    8.5393    8.5134   -0.4245 H   0  0  0  0  0  0  0  0  0  0  0  0
    8.3166    5.9273    0.0993 C   0  0  0  0  0  0  0  0  0  0  0  0
    9.3299    6.3336    0.1866 H   0  0  0  0  0  0  0  0  0  0  0  0
    8.1784    5.5495   -0.9276 H   0  0  0  0  0  0  0  0  0  0  0  0
    8.1110    4.8016    1.1116 C   0  0  0  0  0  0  0  0  0  0  0  0
    8.8972    4.0486    1.0264 H   0  0  0  0  0  0  0  0  0  0  0  0
    7.1441    4.3210    0.9257 H   0  0  0  0  0  0  0  0  0  0  0  0
    6.8800    4.2951    3.6299 C   0  0  0  0  0  0  0  0  0  0  0  0
    6.0064    4.3293    2.9635 H   0  0  0  0  0  0  0  0  0  0  0  0
    6.4171    4.7759    5.0017 C   0  0  0  0  0  0  0  0  0  0  0  0
    5.5363    4.2178    5.3148 H   0  0  0  0  0  0  0  0  0  0  0  0
    6.1548    5.8328    4.9556 H   0  0  0  0  0  0  0  0  0  0  0  0
    7.1890    4.6394    5.7558 H   0  0  0  0  0  0  0  0  0  0  0  0
    9.7159    5.1936    3.5379 C   0  0  0  0  0  0  0  0  0  0  0  0
    9.8288    4.1142    3.6879 H   0  0  0  0  0  0  0  0  0  0  0  0
    9.8098    5.9318    4.8697 C   0  0  0  0  0  0  0  0  0  0  0  0
   10.8110    5.8432    5.2882 H   0  0  0  0  0  0  0  0  0  0  0  0
    9.1001    5.5404    5.5934 H   0  0  0  0  0  0  0  0  0  0  0  0
    9.5855    6.9876    4.7077 H   0  0  0  0  0  0  0  0  0  0  0  0
   10.8048    5.6941    2.5956 C   0  0  0  0  0  0  0  0  0  0  0  0
   10.6176    6.7383    2.3497 H   0  0  0  0  0  0  0  0  0  0  0  0
   10.8503    5.1095    1.6793 H   0  0  0  0  0  0  0  0  0  0  0  0
   11.7753    5.6268    3.0843 H   0  0  0  0  0  0  0  0  0  0  0  0
    7.0979    8.2547    4.1241 C   0  0  0  0  0  2  0  0  0  0  0  0
    7.4141    2.8681    3.6871 C   0  0  0  0  0  0  0  0  0  0  0  0
    8.1948    2.7743    4.4388 H   0  0  0  0  0  0  0  0  0  0  0  0
    7.8114    2.5473    2.7261 H   0  0  0  0  0  0  0  0  0  0  0  0
    6.6063    2.1918    3.9623 H   0  0  0  0  0  0  0  0  0  0  0  0
    5.0580    6.8272    2.2070 Cl  0  0  0  0  0  0  0  0  0  0  0  0
    7.3744    6.9990    0.3977 N   0  0  1  0  0  4  0  0  0  0  0  0
    6.5707    9.2891    1.4936 N   0  0  0  0  0  0  0  0  0  0  0  0
    6.9382    8.6154    5.2080 O   0  0  0  0  0  1  0  0  0  0  0  0
    8.0260    5.5320    2.8312 P   0  0  0  0  0  4  0  0  0  0  0  0
    7.2941    7.6686    2.3958 Ru  0  0  0  0  0  0  0  0  0  0  0  0
    6.4166    6.6241    0.3056 H   0  0  0  0  0  0  0  0  0  0  0  0
    8.7235    8.2215    2.3107 H   0  0  0  0  0  0  0  0  0  0  0  0
  1  2  1  0  0  0  0
  3  4  1  0  0  0  0
  3  1  1  0  0  0  0
  5  3  2  0  0  0  0
  6  5  1  0  0  0  0
  7  5  1  0  0  0  0
  7  9  2  0  0  0  0
  8  7  1  0  0  0  0
  9 42  1  0  0  0  0
 10 12  1  0  0  0  0
 10  9  1  0  0  0  0
 10 41  1  0  0  0  0
 11 10  1  0  0  0  0
 13 14  1  0  0  0  0
 13 41  1  0  0  0  0
 13 16  1  0  0  0  0
 15 13  1  0  0  0  0
 16 44  1  0  0  0  0
 17 16  1  0  0  0  0
 18 16  1  0  0  0  0
 19 36  1  0  0  0  0
 19 21  1  0  0  0  0
 20 19  1  0  0  0  0
 21 22  1  0  0  0  0
 21 24  1  0  0  0  0
 23 21  1  0  0  0  0
 25 26  1  0  0  0  0
 25 27  1  0  0  0  0
 27 28  1  0  0  0  0
 27 29  1  0  0  0  0
 30 27  1  0  0  0  0
 31 34  1  0  0  0  0
 31 25  1  0  0  0  0
 32 31  1  0  0  0  0
 33 31  1  0  0  0  0
 35 43  1  0  0  0  0
 36 39  1  0  0  0  0
 36 37  1  0  0  0  0
 38 36  1  0  0  0  0
 40 45  1  0  0  0  0
 41 46  1  6  0  0  0
 41 45  1  0  0  0  0
 42  1  1  0  0  0  0
 42 45  1  0  0  0  0
 44 25  1  0  0  0  0
 44 19  1  0  0  0  0
 45 44  1  0  0  0  0
 45 35  1  0  0  0  0
 47 45  1  0  0  0  0
M  END
$$$$
