CSD_code = MANKET | q = 0 | S = 0 | Stoichiometry = C18H26Cl2N4Ti | MND = 5
 OpenBabel04212202063D

 51 52  0  0  0  0  0  0  0  0999 V2000
    4.4918    1.9432    5.4666 C   0  0  0  0  0  0  0  0  0  0  0  0
    5.6178    1.2523    5.9698 C   0  0  0  0  0  0  0  0  0  0  0  0
    6.4482    1.8456    6.3342 H   0  0  0  0  0  0  0  0  0  0  0  0
    5.6696   -0.1226    5.9837 C   0  0  0  0  0  0  0  0  0  0  0  0
    6.5447   -0.6199    6.3786 H   0  0  0  0  0  0  0  0  0  0  0  0
    4.6159   -0.8748    5.4842 C   0  0  0  0  0  0  0  0  0  0  0  0
    4.6636   -1.9530    5.4876 H   0  0  0  0  0  0  0  0  0  0  0  0
    3.4994   -0.2269    4.9782 C   0  0  0  0  0  0  0  0  0  0  0  0
    2.6693   -0.8026    4.5909 H   0  0  0  0  0  0  0  0  0  0  0  0
    3.4080    1.1510    4.9780 C   0  0  0  0  0  0  0  0  0  0  0  0
    2.2302    1.8702    4.4562 C   0  0  0  0  0  0  0  0  0  0  0  0
    1.4392    2.6135    5.4858 C   0  0  0  0  0  0  0  0  0  0  0  0
    0.5694    3.1033    5.0577 H   0  0  0  0  0  0  0  0  0  0  0  0
    2.0767    3.3608    5.9739 H   0  0  0  0  0  0  0  0  0  0  0  0
    1.1169    1.9065    6.2517 H   0  0  0  0  0  0  0  0  0  0  0  0
    1.9237    1.8053    3.1521 C   0  0  0  0  0  0  0  0  0  0  0  0
    2.4856    1.1325    2.5158 H   0  0  0  0  0  0  0  0  0  0  0  0
    0.8907    2.5786    2.4791 C   0  0  0  0  0  0  0  0  0  0  0  0
    0.1548    2.0391    1.4191 C   0  0  0  0  0  0  0  0  0  0  0  0
    0.3384    1.0234    1.1039 H   0  0  0  0  0  0  0  0  0  0  0  0
   -0.8072    2.8141    0.8029 C   0  0  0  0  0  0  0  0  0  0  0  0
   -1.3940    2.4152   -0.0120 H   0  0  0  0  0  0  0  0  0  0  0  0
   -1.0098    4.1153    1.2451 C   0  0  0  0  0  0  0  0  0  0  0  0
   -1.7537    4.7516    0.7927 H   0  0  0  0  0  0  0  0  0  0  0  0
   -0.2161    4.5784    2.2799 C   0  0  0  0  0  0  0  0  0  0  0  0
   -0.3168    5.5895    2.6550 H   0  0  0  0  0  0  0  0  0  0  0  0
    0.7064    3.8431    2.8764 N   0  0  0  0  0  0  0  0  0  0  0  0
    3.9879    4.4033    2.4846 C   0  0  0  0  0  0  0  0  0  0  0  0
    3.4499    4.4216    1.5266 H   0  0  0  0  0  0  0  0  0  0  0  0
    4.1809    3.3675    2.7707 H   0  0  0  0  0  0  0  0  0  0  0  0
    4.9452    4.9175    2.3610 H   0  0  0  0  0  0  0  0  0  0  0  0
    2.9445    6.4532    3.1729 C   0  0  0  0  0  0  0  0  0  0  0  0
    3.8861    7.0114    3.1381 H   0  0  0  0  0  0  0  0  0  0  0  0
    2.2842    6.9116    3.9127 H   0  0  0  0  0  0  0  0  0  0  0  0
    2.4637    6.5179    2.1871 H   0  0  0  0  0  0  0  0  0  0  0  0
    4.5108    4.3364    8.3935 C   0  0  0  0  0  0  0  0  0  0  0  0
    5.0785    4.4138    9.3315 H   0  0  0  0  0  0  0  0  0  0  0  0
    4.4993    3.2949    8.0624 H   0  0  0  0  0  0  0  0  0  0  0  0
    3.4828    4.6615    8.5769 H   0  0  0  0  0  0  0  0  0  0  0  0
    5.2123    6.5638    7.7810 C   0  0  0  0  0  0  0  0  0  0  0  0
    4.2140    6.9692    7.9624 H   0  0  0  0  0  0  0  0  0  0  0  0
    5.6995    7.1514    6.9992 H   0  0  0  0  0  0  0  0  0  0  0  0
    5.7985    6.6473    8.7067 H   0  0  0  0  0  0  0  0  0  0  0  0
    4.4648    3.2678    5.4192 N   0  0  0  0  0  2  0  0  0  0  0  0
    3.2092    5.0598    3.5371 N   0  0  0  0  0  4  0  0  0  0  0  0
    2.2861    4.5760    3.5712 H   0  0  0  0  0  0  0  0  0  0  0  0
    5.0951    5.1729    7.3454 N   0  0  0  0  0  4  0  0  0  0  0  0
    6.0389    4.8231    7.1443 H   0  0  0  0  0  0  0  0  0  0  0  0
    5.9423    6.0261    4.5983 Cl  0  0  0  0  0  0  0  0  0  0  0  0
    2.3461    5.9255    6.3471 Cl  0  0  0  0  0  0  0  0  0  0  0  0
    4.1372    4.9321    5.4068 Ti  0  0  0  0  0  0  0  0  0  0  0  0
  1  2  1  0  0  0  0
  2  4  2  0  0  0  0
  2  3  1  0  0  0  0
  4  5  1  0  0  0  0
  6  7  1  0  0  0  0
  6  4  1  0  0  0  0
  8  6  2  0  0  0  0
  9  8  1  0  0  0  0
 10  8  1  0  0  0  0
 10  1  2  0  0  0  0
 11 10  1  0  0  0  0
 11 12  1  0  0  0  0
 12 14  1  0  0  0  0
 12 15  1  0  0  0  0
 13 12  1  0  0  0  0
 16 11  2  0  0  0  0
 17 16  1  0  0  0  0
 18 27  1  0  0  0  0
 18 16  1  0  0  0  0
 19 18  2  0  0  0  0
 20 19  1  0  0  0  0
 21 23  2  0  0  0  0
 21 19  1  0  0  0  0
 22 21  1  0  0  0  0
 23 25  1  0  0  0  0
 24 23  1  0  0  0  0
 25 26  1  0  0  0  0
 25 27  2  0  0  0  0
 28 30  1  0  0  0  0
 28 45  1  0  0  0  0
 29 28  1  0  0  0  0
 31 28  1  0  0  0  0
 32 45  1  0  0  0  0
 32 34  1  0  0  0  0
 33 32  1  0  0  0  0
 35 32  1  0  0  0  0
 36 39  1  0  0  0  0
 36 37  1  0  0  0  0
 38 36  1  0  0  0  0
 40 41  1  0  0  0  0
 40 43  1  0  0  0  0
 42 40  1  0  0  0  0
 44  1  1  0  0  0  0
 45 46  1  0  0  0  0
 45 51  1  0  0  0  0
 47 40  1  0  0  0  0
 47 36  1  0  0  0  0
 48 47  1  0  0  0  0
 49 51  1  0  0  0  0
 51 44  1  0  0  0  0
 51 50  1  0  0  0  0
 51 47  1  0  0  0  0
M  END
$$$$
