CSD_code = MANLEU | q = 0 | S = 0 | Stoichiometry = C18H28Cl2N4Ti | MND = 5
 OpenBabel04212202063D

 53 54  0  0  1  0  0  0  0  0999 V2000
    3.1142    5.4066   -2.0191 C   0  0  0  0  0  0  0  0  0  0  0  0
    2.2917    5.6712   -3.1383 C   0  0  0  0  0  0  0  0  0  0  0  0
    1.3033    5.2287   -3.1471 H   0  0  0  0  0  0  0  0  0  0  0  0
    2.7288    6.4658   -4.1728 C   0  0  0  0  0  0  0  0  0  0  0  0
    2.0798    6.6529   -5.0172 H   0  0  0  0  0  0  0  0  0  0  0  0
    3.9939    7.0332   -4.1337 C   0  0  0  0  0  0  0  0  0  0  0  0
    4.3347    7.6638   -4.9412 H   0  0  0  0  0  0  0  0  0  0  0  0
    4.8211    6.7890   -3.0467 C   0  0  0  0  0  0  0  0  0  0  0  0
    5.8030    7.2398   -3.0282 H   0  0  0  0  0  0  0  0  0  0  0  0
    4.4190    5.9850   -1.9994 C   0  0  0  0  0  0  0  0  0  0  0  0
    5.2834    5.6992   -0.7976 C   0  0  1  0  0  0  0  0  0  0  0  0
    4.9471    4.7286   -0.3875 H   0  0  0  0  0  0  0  0  0  0  0  0
    6.7720    5.6086   -1.1203 C   0  0  0  0  0  0  0  0  0  0  0  0
    6.9282    4.9528   -1.9740 H   0  0  0  0  0  0  0  0  0  0  0  0
    7.3161    5.1998   -0.2714 H   0  0  0  0  0  0  0  0  0  0  0  0
    7.1878    6.5861   -1.3558 H   0  0  0  0  0  0  0  0  0  0  0  0
    4.9965    6.7707    0.2857 C   0  0  0  0  0  0  0  0  0  0  0  0
    5.4249    7.7231   -0.0314 H   0  0  0  0  0  0  0  0  0  0  0  0
    3.9116    6.8721    0.3703 H   0  0  0  0  0  0  0  0  0  0  0  0
    5.5602    6.3534    1.6042 C   0  0  0  0  0  0  0  0  0  0  0  0
    6.8565    6.6930    1.9869 C   0  0  0  0  0  0  0  0  0  0  0  0
    7.4590    7.3206    1.3489 H   0  0  0  0  0  0  0  0  0  0  0  0
    7.3543    6.2185    3.1864 C   0  0  0  0  0  0  0  0  0  0  0  0
    8.3584    6.4648    3.5003 H   0  0  0  0  0  0  0  0  0  0  0  0
    6.5426    5.4200    3.9785 C   0  0  0  0  0  0  0  0  0  0  0  0
    6.8914    5.0232    4.9185 H   0  0  0  0  0  0  0  0  0  0  0  0
    5.2628    5.1488    3.5293 C   0  0  0  0  0  0  0  0  0  0  0  0
    4.5865    4.5416    4.1171 H   0  0  0  0  0  0  0  0  0  0  0  0
    4.2620    2.1121   -2.2335 C   0  0  0  0  0  0  0  0  0  0  0  0
    5.1299    2.0137   -1.5753 H   0  0  0  0  0  0  0  0  0  0  0  0
    4.2523    3.1175   -2.6610 H   0  0  0  0  0  0  0  0  0  0  0  0
    4.3493    1.3763   -3.0457 H   0  0  0  0  0  0  0  0  0  0  0  0
    2.9690    0.5241   -0.9586 C   0  0  0  0  0  0  0  0  0  0  0  0
    3.0275   -0.2018   -1.7822 H   0  0  0  0  0  0  0  0  0  0  0  0
    2.0270    0.3772   -0.4241 H   0  0  0  0  0  0  0  0  0  0  0  0
    3.8010    0.3419   -0.2732 H   0  0  0  0  0  0  0  0  0  0  0  0
    1.2242    5.5451    1.5766 C   0  0  0  0  0  0  0  0  0  0  0  0
    0.2630    5.0645    1.3697 H   0  0  0  0  0  0  0  0  0  0  0  0
    1.4915    6.1622    0.7155 H   0  0  0  0  0  0  0  0  0  0  0  0
    1.1196    6.1806    2.4675 H   0  0  0  0  0  0  0  0  0  0  0  0
    1.9193    3.6838    2.9282 C   0  0  0  0  0  0  0  0  0  0  0  0
    1.7998    4.2901    3.8379 H   0  0  0  0  0  0  0  0  0  0  0  0
    2.7141    2.9514    3.0929 H   0  0  0  0  0  0  0  0  0  0  0  0
    0.9813    3.1505    2.7419 H   0  0  0  0  0  0  0  0  0  0  0  0
    2.6814    4.6348   -1.0298 N   0  0  0  0  0  2  0  0  0  0  0  0
    4.7823    5.6021    2.3809 N   0  0  0  0  0  0  0  0  0  0  0  0
    3.0449    1.8994   -1.4509 N   0  0  0  0  0  4  0  0  0  0  0  0
    2.2368    2.0639   -2.0629 H   0  0  0  0  0  0  0  0  0  0  0  0
    2.2465    4.5198    1.7748 N   0  0  0  0  0  4  0  0  0  0  0  0
    3.1582    4.9960    1.9690 H   0  0  0  0  0  0  0  0  0  0  0  0
    0.5928    2.5159    0.1769 Cl  0  0  0  0  0  0  0  0  0  0  0  0
    4.5067    2.5371    1.1454 Cl  0  0  0  0  0  0  0  0  0  0  0  0
    2.6907    3.3743    0.1079 Ti  0  0  0  0  0  0  0  0  0  0  0  0
  1 10  1  0  0  0  0
  1 45  1  0  0  0  0
  2  1  2  0  0  0  0
  3  2  1  0  0  0  0
  4  6  2  0  0  0  0
  4  2  1  0  0  0  0
  5  4  1  0  0  0  0
  6  8  1  0  0  0  0
  7  6  1  0  0  0  0
  8  9  1  0  0  0  0
  8 10  2  0  0  0  0
 10 11  1  0  0  0  0
 11 12  1  1  0  0  0
 11 17  1  0  0  0  0
 13 11  1  0  0  0  0
 13 15  1  0  0  0  0
 14 13  1  0  0  0  0
 16 13  1  0  0  0  0
 17 19  1  0  0  0  0
 17 20  1  0  0  0  0
 18 17  1  0  0  0  0
 20 21  2  0  0  0  0
 20 46  1  0  0  0  0
 21 23  1  0  0  0  0
 22 21  1  0  0  0  0
 23 24  1  0  0  0  0
 23 25  2  0  0  0  0
 25 26  1  0  0  0  0
 27 25  1  0  0  0  0
 27 28  1  0  0  0  0
 29 30  1  0  0  0  0
 29 47  1  0  0  0  0
 31 29  1  0  0  0  0
 32 29  1  0  0  0  0
 33 35  1  0  0  0  0
 33 36  1  0  0  0  0
 34 33  1  0  0  0  0
 37 49  1  0  0  0  0
 37 40  1  0  0  0  0
 38 37  1  0  0  0  0
 39 37  1  0  0  0  0
 41 43  1  0  0  0  0
 41 42  1  0  0  0  0
 44 41  1  0  0  0  0
 45 53  1  0  0  0  0
 46 27  2  0  0  0  0
 47 33  1  0  0  0  0
 47 53  1  0  0  0  0
 48 47  1  0  0  0  0
 49 50  1  0  0  0  0
 49 41  1  0  0  0  0
 53 51  1  0  0  0  0
 53 52  1  0  0  0  0
 53 49  1  0  0  0  0
M  END
$$$$
