CSD_code = MANNEU | q = 0 | S = 0 | Stoichiometry = C18H10Cl3N3O3Ru | MND = 6
 OpenBabel04212202063D

 38 43  0  0  0  0  0  0  0  0999 V2000
   -0.3680    2.2205   14.3647 Ru  0  0  0  0  0  0  0  0  0  0  0  0
    0.7791    3.3460   16.0118 Cl  0  0  0  0  0  0  0  0  0  0  0  0
   -3.6426    1.5393   13.3239 Cl  0  0  0  0  0  0  0  0  0  0  0  0
   -2.6253    1.5722   16.9420 Cl  0  0  0  0  0  0  0  0  0  0  0  0
   -1.1837    1.4522   12.5398 N   0  0  0  0  0  0  0  0  0  0  0  0
    1.3526    1.6626   13.4240 O   0  0  0  0  0  0  0  0  0  0  0  0
   -0.2753    3.8474   13.2199 O   0  0  0  0  0  0  0  0  0  0  0  0
   -0.5079    0.7559   15.1599 N   0  0  0  0  0  2  0  0  0  0  0  0
   -1.9908    3.3329   15.1503 N   0  0  0  0  0  0  0  0  0  0  0  0
   -0.1700    1.2677   11.6614 C   0  0  0  0  0  0  0  0  0  0  0  0
   -2.0689    4.5453   14.5465 C   0  0  0  0  0  0  0  0  0  0  0  0
   -2.4230    1.3294   12.1327 C   0  0  0  0  0  0  0  0  0  0  0  0
    1.1603    1.4043   12.1747 C   0  0  0  0  0  0  0  0  0  0  0  0
   -2.7674    1.0262   10.8061 C   0  0  0  0  0  0  0  0  0  0  0  0
   -0.4114    0.9468   10.2962 C   0  0  0  0  0  0  0  0  0  0  0  0
   -0.5955   -0.3195   15.5728 O   0  0  0  0  0  1  0  0  0  0  0  0
   -2.7849    3.0890   16.1694 C   0  0  0  0  0  0  0  0  0  0  0  0
   -1.1255    4.7817   13.4972 C   0  0  0  0  0  0  0  0  0  0  0  0
   -3.0107    5.5349   14.9283 C   0  0  0  0  0  0  0  0  0  0  0  0
   -3.7443    4.0050   16.6312 C   0  0  0  0  0  0  0  0  0  0  0  0
    2.2123    1.2117   11.2744 C   0  0  0  0  0  0  0  0  0  0  0  0
   -1.7619    0.8406    9.8967 C   0  0  0  0  0  0  0  0  0  0  0  0
   -3.8625    5.2163   16.0078 C   0  0  0  0  0  0  0  0  0  0  0  0
   -1.1873    6.0072   12.8339 C   0  0  0  0  0  0  0  0  0  0  0  0
    0.6871    0.7677    9.4450 C   0  0  0  0  0  3  0  0  0  0  0  0
    1.9650    0.9016    9.9429 C   0  0  0  0  0  0  0  0  0  0  0  0
   -3.0248    6.7503   14.2269 C   0  0  0  0  0  3  0  0  0  0  0  0
   -2.1277    6.9631   13.2045 C   0  0  0  0  0  0  0  0  0  0  0  0
    0.5171    0.5299    8.4069 H   0  0  0  0  0  0  0  0  0  0  0  0
   -4.3622    3.7287   17.4691 H   0  0  0  0  0  0  0  0  0  0  0  0
    2.8071    0.7638    9.2808 H   0  0  0  0  0  0  0  0  0  0  0  0
   -3.7373    7.5100   14.5066 H   0  0  0  0  0  0  0  0  0  0  0  0
    3.2213    1.3108   11.6409 H   0  0  0  0  0  0  0  0  0  0  0  0
   -1.9905    0.6107    8.8666 H   0  0  0  0  0  0  0  0  0  0  0  0
   -2.1448    7.9035   12.6730 H   0  0  0  0  0  0  0  0  0  0  0  0
   -3.8079    0.9476   10.5380 H   0  0  0  0  0  0  0  0  0  0  0  0
   -4.5931    5.9385   16.3397 H   0  0  0  0  0  0  0  0  0  0  0  0
   -0.4821    6.2033   12.0416 H   0  0  0  0  0  0  0  0  0  0  0  0
  1  9  1  0  0  0  0
  1  8  1  0  0  0  0
  1  2  1  0  0  0  0
  5  1  1  0  0  0  0
  6  1  1  0  0  0  0
  7 18  1  0  0  0  0
  7  1  1  0  0  0  0
  8 16  1  0  0  0  0
  9 17  1  0  0  0  0
 10 13  2  0  0  0  0
 10  5  1  0  0  0  0
 11 19  1  0  0  0  0
 11  9  1  0  0  0  0
 12  5  1  0  0  0  0
 12  3  1  0  0  0  0
 13  6  1  0  0  0  0
 14 12  2  0  0  0  0
 15 10  1  0  0  0  0
 17 20  2  0  0  0  0
 17  4  1  0  0  0  0
 18 11  2  0  0  0  0
 19 23  2  0  0  0  0
 20 30  1  0  0  0  0
 21 33  1  0  0  0  0
 21 13  1  0  0  0  0
 22 15  2  0  0  0  0
 22 14  1  0  0  0  0
 23 37  1  0  0  0  0
 23 20  1  0  0  0  0
 24 28  2  0  0  0  0
 24 18  1  0  0  0  0
 25 26  1  0  0  0  0
 25 15  1  0  0  0  0
 26 21  2  0  0  0  0
 27 32  1  0  0  0  0
 27 19  1  0  0  0  0
 28 27  1  0  0  0  0
 29 25  1  0  0  0  0
 31 26  1  0  0  0  0
 34 22  1  0  0  0  0
 35 28  1  0  0  0  0
 36 14  1  0  0  0  0
 38 24  1  0  0  0  0
M  END
$$$$
