CSD_code = MAPHAN | q = 0 | S = 0 | Stoichiometry = C13H14F2Ti | MND = 12
 OpenBabel04212202063D

 30 32  0  0  1  0  0  0  0  0999 V2000
    1.9351   -0.0602    1.9002 Ti  0  0  0  0  0  0  0  0  0  0  0  0
    3.4068   -0.8874    2.3451 F   0  0  0  0  0  0  0  0  0  0  0  0
    1.6346   -0.9186    0.4101 F   0  0  0  0  0  0  0  0  0  0  0  0
    1.5386    2.1666    2.2390 C   0  0  1  0  0  0  0  0  0  0  0  0
    2.9121    1.9540    2.5237 C   0  0  0  0  0  3  0  0  0  0  0  0
    3.4114    2.1269    3.4682 H   0  0  0  0  0  0  0  0  0  0  0  0
    3.5752    1.6567    1.3131 C   0  0  0  0  0  0  0  0  0  0  0  0
    4.6425    1.5276    1.1940 H   0  0  0  0  0  0  0  0  0  0  0  0
    2.6200    1.6429    0.2840 C   0  0  0  0  0  0  0  0  0  0  0  0
    2.8202    1.5015   -0.7695 H   0  0  0  0  0  0  0  0  0  0  0  0
    1.3597    1.9312    0.8512 C   0  0  0  0  0  3  0  0  0  0  0  0
    0.4529    2.0847    0.2806 H   0  0  0  0  0  0  0  0  0  0  0  0
    0.3254    0.6180    3.3756 C   0  0  2  0  0  0  0  0  0  0  0  0
    1.2227   -0.2028    4.1063 C   0  0  0  0  0  0  0  0  0  0  0  0
    1.8171    0.0906    4.9619 H   0  0  0  0  0  0  0  0  0  0  0  0
    1.0762   -1.5324    3.6540 C   0  0  0  0  0  0  0  0  0  0  0  0
    1.5649   -2.3996    4.0770 H   0  0  0  0  0  0  0  0  0  0  0  0
    0.1245   -1.5398    2.6216 C   0  0  0  0  0  0  0  0  0  0  0  0
   -0.2505   -2.4140    2.1067 H   0  0  0  0  0  0  0  0  0  0  0  0
   -0.3231   -0.2150    2.4275 C   0  0  0  0  0  0  0  0  0  0  0  0
   -1.1296    0.0675    1.7633 H   0  0  0  0  0  0  0  0  0  0  0  0
    0.4219    2.1351    3.2751 C   0  0  0  0  0  0  0  0  0  0  0  0
   -0.8729    2.7832    2.7772 C   0  0  0  0  0  0  0  0  0  0  0  0
   -0.7191    3.8508    2.6350 H   0  0  0  0  0  0  0  0  0  0  0  0
   -1.6617    2.6413    3.5129 H   0  0  0  0  0  0  0  0  0  0  0  0
   -1.2060    2.3589    1.8348 H   0  0  0  0  0  0  0  0  0  0  0  0
    0.8171    2.7956    4.5987 C   0  0  0  0  0  0  0  0  0  0  0  0
    1.7349    2.3804    5.0041 H   0  0  0  0  0  0  0  0  0  0  0  0
    0.0255    2.6533    5.3314 H   0  0  0  0  0  0  0  0  0  0  0  0
    0.9630    3.8631    4.4483 H   0  0  0  0  0  0  0  0  0  0  0  0
  1  4  1  0  0  0  0
  1  2  1  0  0  0  0
  1 13  1  0  0  0  0
  3  1  1  0  0  0  0
  4 11  1  6  0  0  0
  4  5  1  0  0  0  0
  4 22  1  0  0  0  0
  5  6  1  0  0  0  0
  7  5  1  0  0  0  0
  8  7  1  0  0  0  0
  9 11  1  0  0  0  0
  9  7  2  0  0  0  0
 10  9  1  0  0  0  0
 12 11  1  0  0  0  0
 13 20  1  6  0  0  0
 13 14  1  0  0  0  0
 14 15  1  0  0  0  0
 16 17  1  0  0  0  0
 16 14  2  0  0  0  0
 18 16  1  0  0  0  0
 19 18  1  0  0  0  0
 20 18  2  0  0  0  0
 21 20  1  0  0  0  0
 22 13  1  0  0  0  0
 22 27  1  0  0  0  0
 23 22  1  0  0  0  0
 23 25  1  0  0  0  0
 24 23  1  0  0  0  0
 26 23  1  0  0  0  0
 27 28  1  0  0  0  0
 27 29  1  0  0  0  0
 30 27  1  0  0  0  0
M  END
$$$$
