CSD_code = MAPWAD | q = 0 | S = 0 | Stoichiometry = C14H17Cl2N4OTc | MND = 6
 OpenBabel04212202063D

 39 42  0  0  1  0  0  0  0  0999 V2000
   -0.4521    2.9108   16.4312 Tc  0  0  0  0  0  0  0  0  0  0  0  0
   -1.2565    5.1096   16.2729 Cl  0  0  0  0  0  0  0  0  0  0  0  0
   -1.4517    2.3414   14.3932 Cl  0  0  0  0  0  0  0  0  0  0  0  0
   -2.5138    1.9263   18.2160 O   0  0  0  0  0  1  0  0  0  0  0  0
   -1.7198    2.3475   17.4568 N   0  0  0  0  0  2  0  0  0  0  0  0
    0.5474    1.1152   16.3177 N   0  0  0  0  0  0  0  0  0  0  0  0
    1.3848    3.4435   15.2817 N   0  0  2  0  0  4  0  0  0  0  0  0
    0.6983    3.7275   17.9336 N   0  0  0  0  0  0  0  0  0  0  0  0
    0.3101    0.0318   17.0685 C   0  0  0  0  0  3  0  0  0  0  0  0
   -0.4463    0.1407   17.8315 H   0  0  0  0  0  0  0  0  0  0  0  0
    0.9704   -1.1672   16.8967 C   0  0  0  0  0  0  0  0  0  0  0  0
    0.7286   -2.0055   17.5293 H   0  0  0  0  0  0  0  0  0  0  0  0
    1.9339   -1.2727   15.9038 C   0  0  0  0  0  0  0  0  0  0  0  0
    2.4687   -2.1940   15.7374 H   0  0  0  0  0  0  0  0  0  0  0  0
    2.1870   -0.1531   15.1256 C   0  0  0  0  0  0  0  0  0  0  0  0
    2.9214   -0.1824   14.3354 H   0  0  0  0  0  0  0  0  0  0  0  0
    1.4765    1.0124   15.3516 C   0  0  0  0  0  0  0  0  0  0  0  0
    1.6784    2.2353   14.5040 C   0  0  0  0  0  0  0  0  0  0  0  0
    2.6936    2.2485   14.0857 H   0  0  0  0  0  0  0  0  0  0  0  0
    0.9507    2.1883   13.6841 H   0  0  0  0  0  0  0  0  0  0  0  0
    2.4488    3.6845   16.2657 C   0  0  0  0  0  0  0  0  0  0  0  0
    2.9586    2.7357   16.4815 H   0  0  0  0  0  0  0  0  0  0  0  0
    3.2039    4.3801   15.8831 H   0  0  0  0  0  0  0  0  0  0  0  0
    1.9045    4.1922   17.5746 C   0  0  2  0  0  3  0  0  0  0  0  0
    2.6487    5.0351   18.3808 C   0  0  0  0  0  0  0  0  0  0  0  0
    3.6088    5.3905   18.0387 H   0  0  0  0  0  0  0  0  0  0  0  0
    2.1485    5.4187   19.6154 C   0  0  0  0  0  0  0  0  0  0  0  0
    2.7052    6.0854   20.2542 H   0  0  0  0  0  0  0  0  0  0  0  0
    0.9111    4.9205   19.9959 C   0  0  0  0  0  0  0  0  0  0  0  0
    0.4730    5.1823   20.9450 H   0  0  0  0  0  0  0  0  0  0  0  0
    0.2260    4.0907   19.1328 C   0  0  0  0  0  0  0  0  0  0  0  0
   -0.7482    3.7058   19.3948 H   0  0  0  0  0  0  0  0  0  0  0  0
    1.1877    4.6080   14.4002 C   0  0  0  0  0  0  0  0  0  0  0  0
    1.0481    5.4810   15.0428 H   0  0  0  0  0  0  0  0  0  0  0  0
    0.2501    4.4494   13.8608 H   0  0  0  0  0  0  0  0  0  0  0  0
    2.2982    4.8791   13.3880 C   0  0  0  0  0  0  0  0  0  0  0  0
    3.2776    4.9723   13.8553 H   0  0  0  0  0  0  0  0  0  0  0  0
    2.0799    5.8190   12.8883 H   0  0  0  0  0  0  0  0  0  0  0  0
    2.3472    4.1027   12.6284 H   0  0  0  0  0  0  0  0  0  0  0  0
  1  5  1  0  0  0  0
  1  8  1  0  0  0  0
  2  1  1  0  0  0  0
  3  1  1  0  0  0  0
  5  4  1  0  0  0  0
  6  1  1  0  0  0  0
  6  9  1  0  0  0  0
  7 33  1  6  0  0  0
  7 21  1  0  0  0  0
  7  1  1  0  0  0  0
  8 31  1  0  0  0  0
  9 10  1  0  0  0  0
 11  9  1  0  0  0  0
 11 12  1  0  0  0  0
 13 11  2  0  0  0  0
 14 13  1  0  0  0  0
 15 17  2  0  0  0  0
 15 13  1  0  0  0  0
 16 15  1  0  0  0  0
 17  6  1  0  0  0  0
 18  7  1  0  0  0  0
 18 17  1  0  0  0  0
 19 18  1  0  0  0  0
 20 18  1  0  0  0  0
 21 22  1  0  0  0  0
 21 24  1  0  0  0  0
 23 21  1  0  0  0  0
 24  8  1  0  0  0  0
 24 25  1  1  0  0  0
 25 27  2  0  0  0  0
 26 25  1  0  0  0  0
 27 29  1  0  0  0  0
 27 28  1  0  0  0  0
 29 30  1  0  0  0  0
 31 32  1  0  0  0  0
 31 29  2  0  0  0  0
 33 34  1  0  0  0  0
 35 33  1  0  0  0  0
 36 37  1  0  0  0  0
 36 33  1  0  0  0  0
 38 36  1  0  0  0  0
 39 36  1  0  0  0  0
M  END
$$$$
