CSD_code = MAQLAS | q = 0 | S = 0 | Stoichiometry = C26H16I2N2O2Os | MND = 6
 OpenBabel04212202063D

 49 54  0  0  0  0  0  0  0  0999 V2000
    0.1882   15.3837   11.5553 Os  0  0  0  0  0  0  0  0  0  0  0  0
    1.7569   15.0120   13.7503 I   0  0  0  0  0  0  0  0  0  0  0  0
   -1.3714   16.0896    9.4375 I   0  0  0  0  0  0  0  0  0  0  0  0
    1.8613   13.4947    9.8719 O   0  0  0  0  0  1  0  0  0  0  0  0
   -1.5906   13.0303   12.2610 O   0  0  0  0  0  1  0  0  0  0  0  0
    1.3126   17.1212   11.1734 N   0  0  0  0  0  0  0  0  0  0  0  0
   -0.8569   16.8261   12.6752 N   0  0  0  0  0  0  0  0  0  0  0  0
    1.2279   14.2055   10.5078 C   0  0  0  0  0  2  0  0  0  0  0  0
   -0.9171   13.9160   11.9912 C   0  0  0  0  0  2  0  0  0  0  0  0
    2.3966   17.2425   10.4243 C   0  0  0  0  0  0  0  0  0  0  0  0
    2.7737   16.3421    9.9544 H   0  0  0  0  0  0  0  0  0  0  0  0
    3.0396   18.4552   10.2139 C   0  0  0  0  0  0  0  0  0  0  0  0
    3.9052   18.4887    9.5714 H   0  0  0  0  0  0  0  0  0  0  0  0
    2.5533   19.6161   10.7909 C   0  0  0  0  0  0  0  0  0  0  0  0
    1.4232   19.5039   11.6352 C   0  0  0  0  0  0  0  0  0  0  0  0
    0.8624   20.5955   12.3553 C   0  0  0  0  0  0  0  0  0  0  0  0
    1.3282   21.5637   12.2575 H   0  0  0  0  0  0  0  0  0  0  0  0
   -0.2187   20.4359   13.1572 C   0  0  0  0  0  0  0  0  0  0  0  0
   -0.6359   21.2814   13.6815 H   0  0  0  0  0  0  0  0  0  0  0  0
   -0.8428   19.1679   13.3221 C   0  0  0  0  0  0  0  0  0  0  0  0
   -1.9769   18.9498   14.1398 C   0  0  0  0  0  0  0  0  0  0  0  0
   -2.5286   17.6799   14.1446 C   0  0  0  0  0  0  0  0  0  0  0  0
   -3.4003   17.4680   14.7433 H   0  0  0  0  0  0  0  0  0  0  0  0
   -1.9438   16.6564   13.4106 C   0  0  0  0  0  0  0  0  0  0  0  0
   -2.3717   15.6613   13.4347 H   0  0  0  0  0  0  0  0  0  0  0  0
    0.8373   18.2308   11.7858 C   0  0  0  0  0  0  0  0  0  0  0  0
   -0.3194   18.0668   12.6147 C   0  0  0  0  0  0  0  0  0  0  0  0
    3.2011   20.9033   10.5102 C   0  0  0  0  0  0  0  0  0  0  0  0
    4.5738   21.0452   10.6973 C   0  0  0  0  0  0  0  0  0  0  0  0
    5.1467   20.2155   11.0853 H   0  0  0  0  0  0  0  0  0  0  0  0
    5.1940   22.2484   10.4169 C   0  0  0  0  0  0  0  0  0  0  0  0
    6.2568   22.3526   10.5753 H   0  0  0  0  0  0  0  0  0  0  0  0
    4.4559   23.3150    9.9306 C   0  0  0  0  0  0  0  0  0  0  0  0
    4.9426   24.2522    9.7073 H   0  0  0  0  0  0  0  0  0  0  0  0
    3.0933   23.1749    9.7247 C   0  0  0  0  0  0  0  0  0  0  0  0
    2.5167   23.9998    9.3339 H   0  0  0  0  0  0  0  0  0  0  0  0
    2.4651   21.9781   10.0160 C   0  0  0  0  0  0  0  0  0  0  0  0
    1.4068   21.8619    9.8307 H   0  0  0  0  0  0  0  0  0  0  0  0
   -2.5632   20.0081   14.9714 C   0  0  0  0  0  0  0  0  0  0  0  0
   -3.9245   20.2877   14.8817 C   0  0  0  0  0  0  0  0  0  0  0  0
   -4.5329   19.7483   14.1703 H   0  0  0  0  0  0  0  0  0  0  0  0
   -4.4875   21.2690   15.6761 C   0  0  0  0  0  0  0  0  0  0  0  0
   -5.5416   21.4864   15.5921 H   0  0  0  0  0  0  0  0  0  0  0  0
   -3.7036   21.9676   16.5796 C   0  0  0  0  0  0  0  0  0  0  0  0
   -4.1459   22.7298   17.2030 H   0  0  0  0  0  0  0  0  0  0  0  0
   -2.3525   21.6820   16.6868 C   0  0  0  0  0  0  0  0  0  0  0  0
   -1.7407   22.2155   17.3986 H   0  0  0  0  0  0  0  0  0  0  0  0
   -1.7809   20.7109   15.8854 C   0  0  0  0  0  0  0  0  0  0  0  0
   -0.7323   20.4710   15.9882 H   0  0  0  0  0  0  0  0  0  0  0  0
  1  9  1  0  0  0  0
  1  7  1  0  0  0  0
  1  2  1  0  0  0  0
  3  1  1  0  0  0  0
  4  8  1  0  0  0  0
  6  1  1  0  0  0  0
  6 26  1  0  0  0  0
  7 24  1  0  0  0  0
  8  1  1  0  0  0  0
  9  5  1  0  0  0  0
 10  6  1  0  0  0  0
 11 10  1  0  0  0  0
 12 10  2  0  0  0  0
 12 14  1  0  0  0  0
 13 12  1  0  0  0  0
 14 15  2  0  0  0  0
 15 26  1  0  0  0  0
 15 16  1  0  0  0  0
 16 18  2  0  0  0  0
 17 16  1  0  0  0  0
 18 20  1  0  0  0  0
 18 19  1  0  0  0  0
 20 21  2  0  0  0  0
 21 22  1  0  0  0  0
 21 39  1  0  0  0  0
 22 23  1  0  0  0  0
 24 25  1  0  0  0  0
 24 22  2  0  0  0  0
 26 27  2  0  0  0  0
 27  7  1  0  0  0  0
 27 20  1  0  0  0  0
 28 29  1  0  0  0  0
 28 14  1  0  0  0  0
 29 30  1  0  0  0  0
 31 32  1  0  0  0  0
 31 29  2  0  0  0  0
 33 31  1  0  0  0  0
 34 33  1  0  0  0  0
 35 33  2  0  0  0  0
 35 37  1  0  0  0  0
 36 35  1  0  0  0  0
 37 28  2  0  0  0  0
 38 37  1  0  0  0  0
 39 48  1  0  0  0  0
 40 39  2  0  0  0  0
 40 42  1  0  0  0  0
 41 40  1  0  0  0  0
 42 44  2  0  0  0  0
 43 42  1  0  0  0  0
 44 46  1  0  0  0  0
 44 45  1  0  0  0  0
 46 47  1  0  0  0  0
 48 49  1  0  0  0  0
 48 46  2  0  0  0  0
M  END
$$$$
