CSD_code = MAQXAD | q = 0 | S = 0 | Stoichiometry = C11H14ClNPtS | MND = 4
 OpenBabel04212202063D

 29 31  0  0  0  0  0  0  0  0999 V2000
   -3.2135    4.9384    3.7671 Pt  0  0  2  0  0  0  0  0  0  0  0  0
   -1.3447    5.3649    2.6716 Cl  0  0  0  0  0  0  0  0  0  0  0  0
   -4.5887    4.4469    1.6907 S   0  0  1  0  0  3  0  0  0  0  0  0
   -4.9071    4.6042    4.7269 N   0  0  0  0  0  0  0  0  0  0  0  0
   -2.5311    5.1308    5.6392 C   0  0  0  0  0  0  0  0  0  0  0  0
   -1.2615    5.4300    6.1089 C   0  0  0  0  0  0  0  0  0  0  0  0
   -0.4645    5.6483    5.4136 H   0  0  0  0  0  0  0  0  0  0  0  0
   -1.0042    5.4475    7.4733 C   0  0  0  0  0  0  0  0  0  0  0  0
   -0.0089    5.6796    7.8238 H   0  0  0  0  0  0  0  0  0  0  0  0
   -2.0061    5.1694    8.3939 C   0  0  0  0  0  0  0  0  0  0  0  0
   -1.7869    5.1872    9.4515 H   0  0  0  0  0  0  0  0  0  0  0  0
   -3.2807    4.8731    7.9573 C   0  0  0  0  0  0  0  0  0  0  0  0
   -4.0704    4.6583    8.6636 H   0  0  0  0  0  0  0  0  0  0  0  0
   -3.5490    4.8518    6.5872 C   0  0  0  0  0  0  0  0  0  0  0  0
   -4.8368    4.5878    6.0176 C   0  0  0  0  0  0  0  0  0  0  0  0
   -5.7173    4.4128    6.6328 H   0  0  0  0  0  0  0  0  0  0  0  0
   -6.1648    4.4718    4.0358 C   0  0  0  0  0  0  0  0  0  0  0  0
   -6.5847    5.4758    3.8802 H   0  0  0  0  0  0  0  0  0  0  0  0
   -6.8872    3.9020    4.6374 H   0  0  0  0  0  0  0  0  0  0  0  0
   -5.9823    3.7859    2.6854 C   0  0  0  0  0  0  0  0  0  0  0  0
   -6.8921    3.8491    2.0891 H   0  0  0  0  0  0  0  0  0  0  0  0
   -5.7222    2.7356    2.8239 H   0  0  0  0  0  0  0  0  0  0  0  0
   -5.0342    6.2076    1.4530 C   0  0  0  0  0  0  0  0  0  0  0  0
   -5.1232    6.6953    2.4271 H   0  0  0  0  0  0  0  0  0  0  0  0
   -4.1638    6.6172    0.9386 H   0  0  0  0  0  0  0  0  0  0  0  0
   -6.2859    6.3810    0.6149 C   0  0  0  0  0  0  0  0  0  0  0  0
   -6.4334    7.4354    0.3902 H   0  0  0  0  0  0  0  0  0  0  0  0
   -7.1695    6.0203    1.1383 H   0  0  0  0  0  0  0  0  0  0  0  0
   -6.1913    5.8376   -0.3227 H   0  0  0  0  0  0  0  0  0  0  0  0
  1  2  1  6  0  0  0
  1  4  1  0  0  0  0
  1  5  2  0  0  0  0
  3 23  1  1  0  0  0
  3 20  1  0  0  0  0
  3  1  1  0  0  0  0
  4 15  1  0  0  0  0
  5  6  1  0  0  0  0
  5 14  1  0  0  0  0
  6  8  2  0  0  0  0
  7  6  1  0  0  0  0
  8  9  1  0  0  0  0
  8 10  1  0  0  0  0
 10 11  1  0  0  0  0
 12 10  2  0  0  0  0
 12 13  1  0  0  0  0
 14 12  1  0  0  0  0
 15 14  2  0  0  0  0
 15 16  1  0  0  0  0
 17 19  1  0  0  0  0
 17  4  1  0  0  0  0
 18 17  1  0  0  0  0
 20 22  1  0  0  0  0
 20 17  1  0  0  0  0
 21 20  1  0  0  0  0
 23 24  1  0  0  0  0
 25 23  1  0  0  0  0
 26 28  1  0  0  0  0
 26 23  1  0  0  0  0
 27 26  1  0  0  0  0
 29 26  1  0  0  0  0
M  END
$$$$
