CSD_code = MARGAQ | q = 0 | S = 0 | Stoichiometry = C13H14Cl2N2PdS | MND = 4
 OpenBabel04212202063D

 33 35  0  0  0  0  0  0  0  0999 V2000
    0.9080    6.6158    1.2887 Pd  0  0  0  0  0  0  0  0  0  0  0  0
    0.3663    8.3830    0.0591 Cl  0  0  0  0  0  0  0  0  0  0  0  0
    0.3601    5.2340   -0.3611 Cl  0  0  0  0  0  0  0  0  0  0  0  0
    2.2664    9.9408    5.2833 S   0  0  0  0  0  0  0  0  0  0  0  0
    1.3970    5.0289    2.4453 N   0  0  0  0  0  0  0  0  0  0  0  0
    1.4057    7.8302    2.8469 N   0  0  0  0  0  0  0  0  0  0  0  0
    2.1610    4.0299    2.0096 C   0  0  0  0  0  3  0  0  0  0  0  0
    2.4755    4.0845    0.9736 H   0  0  0  0  0  0  0  0  0  0  0  0
    2.5147    2.9667    2.8222 C   0  0  0  0  0  0  0  0  0  0  0  0
    3.1291    2.1716    2.4323 H   0  0  0  0  0  0  0  0  0  0  0  0
    2.0596    2.9457    4.1316 C   0  0  0  0  0  0  0  0  0  0  0  0
    2.3133    2.1313    4.7926 H   0  0  0  0  0  0  0  0  0  0  0  0
    1.2648    3.9909    4.5770 C   0  0  0  0  0  0  0  0  0  0  0  0
    0.8871    4.0052    5.5876 H   0  0  0  0  0  0  0  0  0  0  0  0
    0.9437    5.0196    3.7035 C   0  0  0  0  0  0  0  0  0  0  0  0
    0.0913    6.1894    4.1085 C   0  0  0  0  0  0  0  0  0  0  0  0
   -0.3638    6.0114    5.0828 H   0  0  0  0  0  0  0  0  0  0  0  0
   -0.7056    6.3285    3.3551 H   0  0  0  0  0  0  0  0  0  0  0  0
    0.9290    7.4783    4.1625 C   0  0  0  0  0  0  0  0  0  0  0  0
    0.3047    8.2898    4.5594 H   0  0  0  0  0  0  0  0  0  0  0  0
    1.7762    7.3364    4.8491 H   0  0  0  0  0  0  0  0  0  0  0  0
    2.1012    8.8952    2.6461 C   0  0  0  0  0  3  0  0  0  0  0  0
    2.3840    9.0812    1.6111 H   0  0  0  0  0  0  0  0  0  0  0  0
    2.5378    9.9012    3.5532 C   0  0  0  0  0  0  0  0  0  0  0  0
    3.2418   11.0250    3.1689 C   0  0  0  0  0  0  0  0  0  0  0  0
    3.5151   11.2104    2.1460 H   0  0  0  0  0  0  0  0  0  0  0  0
    3.5469   11.8885    4.2266 C   0  0  0  0  0  0  0  0  0  0  0  0
    4.0868   12.8107    4.1057 H   0  0  0  0  0  0  0  0  0  0  0  0
    3.0920   11.4493    5.4388 C   0  0  0  0  0  0  0  0  0  0  0  0
    3.2257   12.1041    6.7645 C   0  0  0  0  0  0  0  0  0  0  0  0
    2.2458   12.3692    7.1619 H   0  0  0  0  0  0  0  0  0  0  0  0
    3.8222   13.0085    6.6744 H   0  0  0  0  0  0  0  0  0  0  0  0
    3.7032   11.4350    7.4797 H   0  0  0  0  0  0  0  0  0  0  0  0
  1  5  1  0  0  0  0
  1  6  1  0  0  0  0
  2  1  1  0  0  0  0
  3  1  1  0  0  0  0
  4 29  1  0  0  0  0
  5 15  1  0  0  0  0
  6 19  1  0  0  0  0
  7  5  1  0  0  0  0
  7  9  1  0  0  0  0
  8  7  1  0  0  0  0
  9 11  2  0  0  0  0
 10  9  1  0  0  0  0
 11 13  1  0  0  0  0
 11 12  1  0  0  0  0
 13 14  1  0  0  0  0
 15 16  1  0  0  0  0
 15 13  2  0  0  0  0
 16 19  1  0  0  0  0
 16 17  1  0  0  0  0
 18 16  1  0  0  0  0
 19 20  1  0  0  0  0
 19 21  1  0  0  0  0
 22  6  1  0  0  0  0
 22 24  1  0  0  0  0
 23 22  1  0  0  0  0
 24  4  1  0  0  0  0
 25 24  2  0  0  0  0
 25 27  1  0  0  0  0
 26 25  1  0  0  0  0
 27 29  2  0  0  0  0
 28 27  1  0  0  0  0
 29 30  1  0  0  0  0
 30 31  1  0  0  0  0
 30 33  1  0  0  0  0
 32 30  1  0  0  0  0
M  END
$$$$
