CSD_code = MARPEC | q = -1 | S = 0 | Stoichiometry = C11H9Cl5NPt(1-) | MND = 6
 OpenBabel04212202063D

 27 28  0  0  0  0  0  0  0  0999 V2000
    3.3861    1.3272    3.8866 Pt  0  0  0  0  0  0  0  0  0  0  0  0
    3.4120    0.4427    1.7639 Cl  0  0  0  0  0  0  0  0  0  0  0  0
    1.7391   -0.2187    4.5691 Cl  0  0  0  0  0  0  0  0  0  0  0  0
    1.6938    2.8641    3.2829 Cl  0  0  0  0  0  0  0  0  0  0  0  0
    5.0511    2.9131    3.2980 Cl  0  0  0  0  0  0  0  0  0  0  0  0
    5.0887   -0.1668    4.5783 Cl  0  0  0  0  0  0  0  0  0  0  0  0
    3.3963    2.1295    5.7993 N   0  0  0  0  0  0  0  0  0  0  0  0
    3.4742    3.4448    5.9387 C   0  0  0  0  0  3  0  0  0  0  0  0
    3.3501    4.0364    5.0420 H   0  0  0  0  0  0  0  0  0  0  0  0
    3.6888    4.0560    7.1721 C   0  0  0  0  0  0  0  0  0  0  0  0
    3.7855    3.2334    8.2929 C   0  0  0  0  0  0  0  0  0  0  0  0
    3.9718    3.6602    9.2680 H   0  0  0  0  0  0  0  0  0  0  0  0
    3.6635    1.8641    8.1345 C   0  0  0  0  0  0  0  0  0  0  0  0
    3.7279    1.1985    8.9808 H   0  0  0  0  0  0  0  0  0  0  0  0
    3.4794    1.3414    6.8659 C   0  0  0  0  0  0  0  0  0  0  0  0
    3.3988    0.2771    6.6946 H   0  0  0  0  0  0  0  0  0  0  0  0
    3.8303    5.5150    7.2520 C   0  0  0  0  0  0  0  0  0  0  0  0
    4.5126    6.2029    6.2495 C   0  0  0  0  0  0  0  0  0  0  0  0
    4.9416    5.6552    5.4243 H   0  0  0  0  0  0  0  0  0  0  0  0
    4.6584    7.5755    6.3231 C   0  0  0  0  0  0  0  0  0  0  0  0
    5.1910    8.0989    5.5428 H   0  0  0  0  0  0  0  0  0  0  0  0
    4.1248    8.2795    7.3903 C   0  0  0  0  0  0  0  0  0  0  0  0
    4.2377    9.3529    7.4439 H   0  0  0  0  0  0  0  0  0  0  0  0
    3.4430    7.6034    8.3881 C   0  0  0  0  0  0  0  0  0  0  0  0
    3.0195    8.1492    9.2194 H   0  0  0  0  0  0  0  0  0  0  0  0
    3.2984    6.2299    8.3224 C   0  0  0  0  0  0  0  0  0  0  0  0
    2.7483    5.7097    9.0934 H   0  0  0  0  0  0  0  0  0  0  0  0
  1  3  1  0  0  0  0
  1  6  1  0  0  0  0
  1  7  1  0  0  0  0
  2  1  1  0  0  0  0
  4  1  1  0  0  0  0
  5  1  1  0  0  0  0
  7  8  1  0  0  0  0
  7 15  1  0  0  0  0
  8 10  1  0  0  0  0
  9  8  1  0  0  0  0
 10 17  1  0  0  0  0
 10 11  2  0  0  0  0
 11 12  1  0  0  0  0
 13 11  1  0  0  0  0
 13 14  1  0  0  0  0
 15 13  2  0  0  0  0
 16 15  1  0  0  0  0
 17 26  1  0  0  0  0
 18 20  1  0  0  0  0
 18 17  2  0  0  0  0
 19 18  1  0  0  0  0
 20 22  2  0  0  0  0
 21 20  1  0  0  0  0
 22 23  1  0  0  0  0
 22 24  1  0  0  0  0
 24 25  1  0  0  0  0
 26 24  2  0  0  0  0
 26 27  1  0  0  0  0
M  END
$$$$
