CSD_code = MARRUV | q = 0 | S = 0 | Stoichiometry = C27H30ClCuN2 | MND = 2
 OpenBabel04212202063D

 61 64  0  0  1  0  0  0  0  0999 V2000
    4.2371    5.3909    9.7799 Cu  0  0  0  0  0  0  0  0  0  0  0  0
    5.0300    5.4666   11.6915 Cl  0  0  0  0  0  0  0  0  0  0  0  0
    2.4070    5.7886    7.4849 N   0  0  0  0  0  0  0  0  0  0  0  0
    4.2715    4.8849    6.9405 N   0  0  0  0  0  0  0  0  0  0  0  0
    3.5747    5.3530    7.9977 C   0  0  1  0  0  3  0  0  0  0  0  0
    2.3730    5.5956    6.1318 C   0  0  0  0  0  0  0  0  0  0  0  0
    1.5354    5.8855    5.5323 H   0  0  0  0  0  0  0  0  0  0  0  0
    3.5513    5.0261    5.7857 C   0  0  0  0  0  0  0  0  0  0  0  0
    3.9323    4.7161    4.8348 H   0  0  0  0  0  0  0  0  0  0  0  0
    1.3160    6.3669    8.2518 C   0  0  2  0  0  0  0  0  0  0  0  0
    1.7179    6.5820    9.2499 H   0  0  0  0  0  0  0  0  0  0  0  0
    0.2141    5.3203    8.4135 C   0  0  0  0  0  0  0  0  0  0  0  0
   -0.1384    4.9600    7.4498 H   0  0  0  0  0  0  0  0  0  0  0  0
   -0.6201    5.7369    8.9704 H   0  0  0  0  0  0  0  0  0  0  0  0
    0.6123    4.4743    8.9698 H   0  0  0  0  0  0  0  0  0  0  0  0
    0.8931    7.6649    7.5920 C   0  0  0  0  0  0  0  0  0  0  0  0
   -0.3098    7.7801    6.9438 C   0  0  0  0  0  0  0  0  0  0  0  0
   -0.9986    6.9507    6.9152 H   0  0  0  0  0  0  0  0  0  0  0  0
   -0.6878    8.9704    6.3057 C   0  0  0  0  0  0  0  0  0  0  0  0
   -1.6462    9.0200    5.8105 H   0  0  0  0  0  0  0  0  0  0  0  0
    0.1496   10.0467    6.3106 C   0  0  0  0  0  0  0  0  0  0  0  0
   -0.1294   10.9672    5.8187 H   0  0  0  0  0  0  0  0  0  0  0  0
    1.3978    9.9781    6.9634 C   0  0  0  0  0  0  0  0  0  0  0  0
    2.2663   11.0894    6.9773 C   0  0  0  0  0  0  0  0  0  0  0  0
    1.9533   11.9922    6.4723 H   0  0  0  0  0  0  0  0  0  0  0  0
    3.4709   11.0315    7.6179 C   0  0  0  0  0  0  0  0  0  0  0  0
    4.1292   11.8875    7.6290 H   0  0  0  0  0  0  0  0  0  0  0  0
    3.8526    9.8534    8.2740 C   0  0  0  0  0  0  0  0  0  0  0  0
    4.7981    9.8148    8.7934 H   0  0  0  0  0  0  0  0  0  0  0  0
    3.0370    8.7557    8.2732 C   0  0  0  0  0  0  0  0  0  0  0  0
    3.3690    7.8691    8.7937 H   0  0  0  0  0  0  0  0  0  0  0  0
    1.7846    8.7765    7.6192 C   0  0  0  0  0  0  0  0  0  0  0  0
    5.5866    4.3488    7.0248 C   0  0  0  0  0  0  0  0  0  0  0  0
    5.7475    2.9783    7.2381 C   0  0  0  0  0  0  0  0  0  0  0  0
    7.0399    2.4808    7.3319 C   0  0  0  0  0  0  0  0  0  0  0  0
    7.1966    1.4293    7.5122 H   0  0  0  0  0  0  0  0  0  0  0  0
    8.1311    3.3196    7.2106 C   0  0  0  0  0  0  0  0  0  0  0  0
    9.1297    2.9166    7.2899 H   0  0  0  0  0  0  0  0  0  0  0  0
    7.9503    4.6733    7.0043 C   0  0  0  0  0  0  0  0  0  0  0  0
    8.8113    5.3184    6.9281 H   0  0  0  0  0  0  0  0  0  0  0  0
    6.6753    5.2149    6.9097 C   0  0  0  0  0  0  0  0  0  0  0  0
    4.5548    2.0715    7.4280 C   0  0  0  0  0  0  0  0  0  0  0  0
    3.6494    2.6012    7.1140 H   0  0  0  0  0  0  0  0  0  0  0  0
    4.4160    1.7379    8.9162 C   0  0  0  0  0  0  0  0  0  0  0  0
    5.2904    1.1973    9.2695 H   0  0  0  0  0  0  0  0  0  0  0  0
    3.5346    1.1236    9.0856 H   0  0  0  0  0  0  0  0  0  0  0  0
    4.3217    2.6533    9.5011 H   0  0  0  0  0  0  0  0  0  0  0  0
    4.6591    0.7972    6.5885 C   0  0  0  0  0  0  0  0  0  0  0  0
    4.8411    1.0405    5.5436 H   0  0  0  0  0  0  0  0  0  0  0  0
    3.7305    0.2350    6.6557 H   0  0  0  0  0  0  0  0  0  0  0  0
    5.4643    0.1578    6.9392 H   0  0  0  0  0  0  0  0  0  0  0  0
    6.4877    6.7033    6.7359 C   0  0  0  0  0  0  0  0  0  0  0  0
    5.4248    6.9224    6.5925 H   0  0  0  0  0  0  0  0  0  0  0  0
    7.2378    7.2226    5.5076 C   0  0  0  0  0  0  0  0  0  0  0  0
    8.3126    7.1228    5.6314 H   0  0  0  0  0  0  0  0  0  0  0  0
    7.0094    8.2748    5.3538 H   0  0  0  0  0  0  0  0  0  0  0  0
    6.9416    6.6716    4.6171 H   0  0  0  0  0  0  0  0  0  0  0  0
    6.9449    7.4256    8.0054 C   0  0  0  0  0  0  0  0  0  0  0  0
    6.3823    7.0663    8.8662 H   0  0  0  0  0  0  0  0  0  0  0  0
    6.7829    8.4959    7.9029 H   0  0  0  0  0  0  0  0  0  0  0  0
    8.0014    7.2508    8.1913 H   0  0  0  0  0  0  0  0  0  0  0  0
  1  2  1  0  0  0  0
  3  5  1  0  0  0  0
  3 10  1  0  0  0  0
  4 33  1  0  0  0  0
  4  5  1  0  0  0  0
  5  1  1  6  0  0  0
  6  3  1  0  0  0  0
  7  6  1  0  0  0  0
  8  6  2  0  0  0  0
  8  4  1  0  0  0  0
  9  8  1  0  0  0  0
 10 12  1  0  0  0  0
 10 11  1  1  0  0  0
 12 15  1  0  0  0  0
 12 14  1  0  0  0  0
 13 12  1  0  0  0  0
 16 32  1  0  0  0  0
 16 10  1  0  0  0  0
 17 16  2  0  0  0  0
 18 17  1  0  0  0  0
 19 21  2  0  0  0  0
 19 17  1  0  0  0  0
 20 19  1  0  0  0  0
 21 23  1  0  0  0  0
 22 21  1  0  0  0  0
 23 24  2  0  0  0  0
 23 32  1  0  0  0  0
 24 26  1  0  0  0  0
 25 24  1  0  0  0  0
 26 27  1  0  0  0  0
 26 28  2  0  0  0  0
 28 29  1  0  0  0  0
 30 28  1  0  0  0  0
 30 31  1  0  0  0  0
 32 30  2  0  0  0  0
 33 34  1  0  0  0  0
 34 35  2  0  0  0  0
 34 42  1  0  0  0  0
 35 36  1  0  0  0  0
 37 38  1  0  0  0  0
 37 35  1  0  0  0  0
 39 37  2  0  0  0  0
 40 39  1  0  0  0  0
 41 39  1  0  0  0  0
 41 33  2  0  0  0  0
 42 44  1  0  0  0  0
 43 42  1  0  0  0  0
 44 46  1  0  0  0  0
 44 45  1  0  0  0  0
 44 47  1  0  0  0  0
 48 50  1  0  0  0  0
 48 51  1  0  0  0  0
 48 42  1  0  0  0  0
 49 48  1  0  0  0  0
 52 41  1  0  0  0  0
 52 58  1  0  0  0  0
 53 52  1  0  0  0  0
 54 55  1  0  0  0  0
 54 52  1  0  0  0  0
 56 54  1  0  0  0  0
 57 54  1  0  0  0  0
 58 61  1  0  0  0  0
 58 59  1  0  0  0  0
 60 58  1  0  0  0  0
M  END
$$$$
