CSD_code = MARVOQ | q = 0 | S = 0 | Stoichiometry = C18H21BrN4Pt | MND = 4
 OpenBabel04212202063D

 45 49  0  0  1  0  0  0  0  0999 V2000
   11.5221    1.2955    0.0347 Pt  0  0  1  0  0  0  0  0  0  0  0  0
   11.5689   -1.1662    0.0692 Br  0  0  0  0  0  0  0  0  0  0  0  0
   11.4839    3.3016    0.0052 C   0  0  0  0  0  0  0  0  0  0  0  0
   10.9987    4.0181    1.0963 C   0  0  0  0  0  0  0  0  0  0  0  0
   10.9625    5.4028    1.0750 C   0  0  0  0  0  0  0  0  0  0  0  0
   11.4308    6.0855   -0.0362 C   0  0  0  0  0  0  0  0  0  0  0  0
   11.9255    5.3886   -1.1268 C   0  0  0  0  0  0  0  0  0  0  0  0
   11.9420    4.0034   -1.1070 C   0  0  0  0  0  0  0  0  0  0  0  0
    9.4474    2.3155    1.8131 N   0  0  0  0  0  0  0  0  0  0  0  0
    9.6901    1.4244    0.8381 N   0  0  1  0  0  0  0  0  0  0  0  0
    8.5319    0.8563    0.5146 C   0  0  2  0  0  3  0  0  0  0  0  0
    8.3927   -0.1497   -0.5683 C   0  0  0  0  0  0  0  0  0  0  0  0
    7.5248    1.3916    1.3257 C   0  0  0  0  0  0  0  0  0  0  0  0
    8.1381    2.3255    2.1354 C   0  0  0  0  0  0  0  0  0  0  0  0
    7.5574    3.2074    3.1799 C   0  0  0  0  0  0  0  0  0  0  0  0
   10.4924    3.2038    2.2696 C   0  0  0  0  0  0  0  0  0  0  0  0
   13.5585    2.3414   -1.7722 N   0  0  0  0  0  0  0  0  0  0  0  0
   13.3483    1.4705   -0.7719 N   0  0  1  0  0  0  0  0  0  0  0  0
   14.5270    0.9580   -0.4301 C   0  0  2  0  0  3  0  0  0  0  0  0
   14.7024   -0.0100    0.6818 C   0  0  0  0  0  0  0  0  0  0  0  0
   15.5145    1.5085   -1.2549 C   0  0  0  0  0  0  0  0  0  0  0  0
   14.8672    2.3935   -2.0927 C   0  0  0  0  0  0  0  0  0  0  0  0
   15.4158    3.2669   -3.1614 C   0  0  0  0  0  0  0  0  0  0  0  0
   12.4807    3.1746   -2.2555 C   0  0  0  0  0  0  0  0  0  0  0  0
   10.5797    5.9521    1.9247 H   0  0  0  0  0  0  0  0  0  0  0  0
   11.4103    7.1650   -0.0520 H   0  0  0  0  0  0  0  0  0  0  0  0
   12.2877    5.9267   -1.9925 H   0  0  0  0  0  0  0  0  0  0  0  0
    9.1461    0.0214   -1.3371 H   0  0  0  0  0  0  0  0  0  0  0  0
    7.4008   -0.0874   -1.0092 H   0  0  0  0  0  0  0  0  0  0  0  0
    8.5397   -1.1551   -0.1754 H   0  0  0  0  0  0  0  0  0  0  0  0
    6.4866    1.1315    1.3127 H   0  0  0  0  0  0  0  0  0  0  0  0
    6.4948    3.0020    3.2725 H   0  0  0  0  0  0  0  0  0  0  0  0
    7.6855    4.2576    2.9174 H   0  0  0  0  0  0  0  0  0  0  0  0
    8.0298    3.0319    4.1463 H   0  0  0  0  0  0  0  0  0  0  0  0
   11.3135    2.5942    2.6744 H   0  0  0  0  0  0  0  0  0  0  0  0
   10.0954    3.8385    3.0614 H   0  0  0  0  0  0  0  0  0  0  0  0
   15.6897    0.1043    1.1229 H   0  0  0  0  0  0  0  0  0  0  0  0
   14.5967   -1.0314    0.3179 H   0  0  0  0  0  0  0  0  0  0  0  0
   13.9402    0.1532    1.4438 H   0  0  0  0  0  0  0  0  0  0  0  0
   16.5621    1.2900   -1.2325 H   0  0  0  0  0  0  0  0  0  0  0  0
   16.4859    3.1010   -3.2463 H   0  0  0  0  0  0  0  0  0  0  0  0
   15.2459    4.3185   -2.9295 H   0  0  0  0  0  0  0  0  0  0  0  0
   14.9533    3.0452   -4.1230 H   0  0  0  0  0  0  0  0  0  0  0  0
   11.6843    2.5219   -2.6421 H   0  0  0  0  0  0  0  0  0  0  0  0
   12.8538    3.8003   -3.0659 H   0  0  0  0  0  0  0  0  0  0  0  0
  1  2  1  6  0  0  0
  1 10  1  0  0  0  0
  3  1  1  0  0  0  0
  3  4  1  0  0  0  0
  4 16  1  0  0  0  0
  5  4  2  0  0  0  0
  5 25  1  0  0  0  0
  6  5  1  0  0  0  0
  7  8  1  0  0  0  0
  7  6  2  0  0  0  0
  8  3  2  0  0  0  0
  9 14  1  0  0  0  0
  9 16  1  0  0  0  0
 10  9  1  6  0  0  0
 11 12  1  6  0  0  0
 11 10  1  0  0  0  0
 11 13  1  0  0  0  0
 12 30  1  0  0  0  0
 13 14  2  0  0  0  0
 14 15  1  0  0  0  0
 15 32  1  0  0  0  0
 15 34  1  0  0  0  0
 16 35  1  0  0  0  0
 16 36  1  0  0  0  0
 18 17  1  1  0  0  0
 18 19  1  0  0  0  0
 18  1  1  0  0  0  0
 19 20  1  1  0  0  0
 20 37  1  0  0  0  0
 20 39  1  0  0  0  0
 21 40  1  0  0  0  0
 21 19  1  0  0  0  0
 22 17  1  0  0  0  0
 22 21  2  0  0  0  0
 23 42  1  0  0  0  0
 23 22  1  0  0  0  0
 24 17  1  0  0  0  0
 24  8  1  0  0  0  0
 26  6  1  0  0  0  0
 27  7  1  0  0  0  0
 28 12  1  0  0  0  0
 29 12  1  0  0  0  0
 31 13  1  0  0  0  0
 33 15  1  0  0  0  0
 38 20  1  0  0  0  0
 41 23  1  0  0  0  0
 43 23  1  0  0  0  0
 44 24  1  0  0  0  0
 45 24  1  0  0  0  0
M  END
$$$$
