CSD_code = MARZAJ | q = 0 | S = 0 | Stoichiometry = C29H26Br2FN3OPd | MND = 4
 OpenBabel04212202063D

 63 67  0  0  0  0  0  0  0  0999 V2000
    4.9687   -0.2276    4.3475 Pd  0  0  0  0  0  0  0  0  0  0  0  0
    7.3362   -0.7034    4.7740 Br  0  0  0  0  0  0  0  0  0  0  0  0
    2.5519    0.0873    4.0306 Br  0  0  0  0  0  0  0  0  0  0  0  0
    3.4374   -0.0861    9.1050 O   0  0  0  0  0  0  0  0  0  0  0  0
    2.1340   -4.3586    4.7051 F   0  0  0  0  0  0  0  0  0  0  0  0
    4.9795   -1.4433    2.6704 N   0  0  0  0  0  0  0  0  0  0  0  0
    5.1698    1.3671    6.9476 N   0  0  0  0  0  0  0  0  0  0  0  0
    4.8047    2.5230    5.1398 N   0  0  0  0  0  0  0  0  0  0  0  0
    4.1517   -2.4295    2.3414 C   0  0  0  0  0  3  0  0  0  0  0  0
    3.5079   -2.8082    3.1222 H   0  0  0  0  0  0  0  0  0  0  0  0
    4.0797   -2.9516    1.0614 C   0  0  0  0  0  0  0  0  0  0  0  0
    3.3949   -3.7579    0.8539 H   0  0  0  0  0  0  0  0  0  0  0  0
    4.8857   -2.4149    0.0717 C   0  0  0  0  0  0  0  0  0  0  0  0
    4.8517   -2.7956   -0.9377 H   0  0  0  0  0  0  0  0  0  0  0  0
    5.7307   -1.3686    0.4079 C   0  0  0  0  0  0  0  0  0  0  0  0
    6.3692   -0.9052   -0.3272 H   0  0  0  0  0  0  0  0  0  0  0  0
    5.7481   -0.9162    1.7149 C   0  0  0  0  0  0  0  0  0  0  0  0
    6.4155   -0.1030    2.0004 H   0  0  0  0  0  0  0  0  0  0  0  0
    4.9913    1.2752    5.6159 C   0  0  0  0  0  0  0  0  0  0  0  0
    5.0583    2.6859    7.3438 C   0  0  0  0  0  0  0  0  0  0  0  0
    5.1247    3.3049    8.5804 C   0  0  0  0  0  0  0  0  0  0  0  0
    5.2662    2.7374    9.4867 H   0  0  0  0  0  0  0  0  0  0  0  0
    4.9834    4.6815    8.6331 C   0  0  0  0  0  0  0  0  0  0  0  0
    4.7815    5.4314    7.4570 C   0  0  0  0  0  0  0  0  0  0  0  0
    4.7075    4.8067    6.2235 C   0  0  0  0  0  0  0  0  0  0  0  0
    4.5525    5.3815    5.3248 H   0  0  0  0  0  0  0  0  0  0  0  0
    4.8410    3.4291    6.1773 C   0  0  0  0  0  0  0  0  0  0  0  0
    5.0465    5.3756    9.9587 C   0  0  0  0  0  0  0  0  0  0  0  0
    4.1273    5.9286   10.1465 H   0  0  0  0  0  0  0  0  0  0  0  0
    5.8713    6.0869    9.9810 H   0  0  0  0  0  0  0  0  0  0  0  0
    5.1872    4.6578   10.7620 H   0  0  0  0  0  0  0  0  0  0  0  0
    4.6396    6.9202    7.5370 C   0  0  0  0  0  0  0  0  0  0  0  0
    3.7789    7.1915    8.1470 H   0  0  0  0  0  0  0  0  0  0  0  0
    4.5095    7.3476    6.5465 H   0  0  0  0  0  0  0  0  0  0  0  0
    5.5223    7.3661    7.9933 H   0  0  0  0  0  0  0  0  0  0  0  0
    5.4297    0.2668    7.8451 C   0  0  0  0  0  0  0  0  0  0  0  0
    5.8371    0.6718    8.7731 H   0  0  0  0  0  0  0  0  0  0  0  0
    6.1609   -0.4037    7.3890 H   0  0  0  0  0  0  0  0  0  0  0  0
    4.0930   -0.4252    8.1482 C   0  0  0  0  0  0  0  0  0  0  0  0
    3.6267   -1.4411    7.1822 C   0  0  0  0  0  0  0  0  0  0  0  0
    2.2473   -1.6419    7.0719 C   0  0  0  0  0  0  0  0  0  0  0  0
    1.5877   -1.0155    7.6526 H   0  0  0  0  0  0  0  0  0  0  0  0
    1.7336   -2.6050    6.2282 C   0  0  0  0  0  0  0  0  0  0  0  0
    0.6716   -2.7523    6.1196 H   0  0  0  0  0  0  0  0  0  0  0  0
    2.6172   -3.3913    5.5091 C   0  0  0  0  0  0  0  0  0  0  0  0
    3.9917   -3.2322    5.6018 C   0  0  0  0  0  0  0  0  0  0  0  0
    4.6529   -3.8954    5.0613 H   0  0  0  0  0  0  0  0  0  0  0  0
    4.5009   -2.2359    6.4233 C   0  0  0  0  0  0  0  0  0  0  0  0
    5.5734   -2.1989    6.5736 H   0  0  0  0  0  0  0  0  0  0  0  0
    4.6557    2.8970    3.7472 C   0  0  0  0  0  0  0  0  0  0  0  0
    3.7643    3.5229    3.6441 H   0  0  0  0  0  0  0  0  0  0  0  0
    4.5056    1.9744    3.1547 H   0  0  0  0  0  0  0  0  0  0  0  0
    5.8866    3.6111    3.2497 C   0  0  0  0  0  0  0  0  0  0  0  0
    5.8251    4.8993    2.7398 C   0  0  0  0  0  0  0  0  0  0  0  0
    4.8742    5.4103    2.6801 H   0  0  0  0  0  0  0  0  0  0  0  0
    6.9768    5.5261    2.2953 C   0  0  0  0  0  0  0  0  0  0  0  0
    6.9217    6.5286    1.8973 H   0  0  0  0  0  0  0  0  0  0  0  0
    8.1951    4.8722    2.3621 C   0  0  0  0  0  0  0  0  0  0  0  0
    9.0920    5.3652    2.0182 H   0  0  0  0  0  0  0  0  0  0  0  0
    8.2614    3.5837    2.8665 C   0  0  0  0  0  0  0  0  0  0  0  0
    9.2070    3.0655    2.9175 H   0  0  0  0  0  0  0  0  0  0  0  0
    7.1105    2.9565    3.3044 C   0  0  0  0  0  0  0  0  0  0  0  0
    7.1596    1.9477    3.6972 H   0  0  0  0  0  0  0  0  0  0  0  0
  1  2  1  0  0  0  0
  1 19  2  0  0  0  0
  3  1  1  0  0  0  0
  5 45  1  0  0  0  0
  6  1  1  0  0  0  0
  7 20  1  0  0  0  0
  7 36  1  0  0  0  0
  8 19  1  0  0  0  0
  8 27  1  0  0  0  0
  9  6  1  0  0  0  0
  9 10  1  0  0  0  0
 11  9  1  0  0  0  0
 12 11  1  0  0  0  0
 13 15  1  0  0  0  0
 13 11  2  0  0  0  0
 14 13  1  0  0  0  0
 15 17  2  0  0  0  0
 16 15  1  0  0  0  0
 17 18  1  0  0  0  0
 17  6  1  0  0  0  0
 19  7  1  0  0  0  0
 20 21  1  0  0  0  0
 21 23  2  0  0  0  0
 21 22  1  0  0  0  0
 23 28  1  0  0  0  0
 24 32  1  0  0  0  0
 24 23  1  0  0  0  0
 25 24  2  0  0  0  0
 26 25  1  0  0  0  0
 27 25  1  0  0  0  0
 27 20  2  0  0  0  0
 28 30  1  0  0  0  0
 28 29  1  0  0  0  0
 28 31  1  0  0  0  0
 32 35  1  0  0  0  0
 32 33  1  0  0  0  0
 34 32  1  0  0  0  0
 36 39  1  0  0  0  0
 36 37  1  0  0  0  0
 38 36  1  0  0  0  0
 39  4  2  0  0  0  0
 40 39  1  0  0  0  0
 41 40  1  0  0  0  0
 41 42  1  0  0  0  0
 43 41  2  0  0  0  0
 44 43  1  0  0  0  0
 45 46  2  0  0  0  0
 45 43  1  0  0  0  0
 46 48  1  0  0  0  0
 47 46  1  0  0  0  0
 48 49  1  0  0  0  0
 48 40  2  0  0  0  0
 50  8  1  0  0  0  0
 51 50  1  0  0  0  0
 52 50  1  0  0  0  0
 53 62  1  0  0  0  0
 53 50  1  0  0  0  0
 54 53  2  0  0  0  0
 55 54  1  0  0  0  0
 56 58  2  0  0  0  0
 56 54  1  0  0  0  0
 57 56  1  0  0  0  0
 58 60  1  0  0  0  0
 59 58  1  0  0  0  0
 60 61  1  0  0  0  0
 60 62  2  0  0  0  0
 62 63  1  0  0  0  0
M  END
$$$$
