CSD_code = MARZUD | q = 0 | S = 0 | Stoichiometry = C19H23Br2N3O2Pd | MND = 4
 OpenBabel04212202063D

 50 52  0  0  0  0  0  0  0  0999 V2000
    5.0247    6.4387    3.1669 Pd  0  0  0  0  0  0  0  0  0  0  0  0
    6.4174    7.5739    1.4785 Br  0  0  0  0  0  0  0  0  0  0  0  0
    3.7255    5.0420    4.6808 Br  0  0  0  0  0  0  0  0  0  0  0  0
    8.4066    4.0857    5.6754 O   0  0  0  0  0  0  0  0  0  0  0  0
    8.4597    3.0402    3.6875 O   0  0  0  0  0  0  0  0  0  0  0  0
    3.7600    5.9767    1.6769 N   0  0  0  0  0  0  0  0  0  0  0  0
    7.6177    6.4269    4.4882 N   0  0  0  0  0  0  0  0  0  0  0  0
    6.2465    7.7154    5.5886 N   0  0  0  0  0  0  0  0  0  0  0  0
    3.8835    4.7587    1.1555 C   0  0  0  0  0  3  0  0  0  0  0  0
    4.6139    4.0969    1.6238 H   0  0  0  0  0  0  0  0  0  0  0  0
    3.1263    4.3350    0.0786 C   0  0  0  0  0  0  0  0  0  0  0  0
    3.2584    3.3401   -0.3157 H   0  0  0  0  0  0  0  0  0  0  0  0
    2.2035    5.2102   -0.4736 C   0  0  0  0  0  0  0  0  0  0  0  0
    1.5944    4.9109   -1.3128 H   0  0  0  0  0  0  0  0  0  0  0  0
    2.0819    6.4779    0.0726 C   0  0  0  0  0  0  0  0  0  0  0  0
    1.3809    7.1934   -0.3265 H   0  0  0  0  0  0  0  0  0  0  0  0
    2.8835    6.8224    1.1468 C   0  0  0  0  0  0  0  0  0  0  0  0
    2.8304    7.8122    1.5918 H   0  0  0  0  0  0  0  0  0  0  0  0
    6.3403    6.8546    4.5590 C   0  0  0  0  0  0  0  0  0  0  0  0
    8.3691    7.0303    5.4729 C   0  0  0  0  0  0  0  0  0  0  0  0
    9.7116    6.9541    5.8053 C   0  0  0  0  0  0  0  0  0  0  0  0
   10.3901    6.3114    5.2683 H   0  0  0  0  0  0  0  0  0  0  0  0
   10.1425    7.7336    6.8612 C   0  0  0  0  0  0  0  0  0  0  0  0
   11.1814    7.7022    7.1513 H   0  0  0  0  0  0  0  0  0  0  0  0
    9.2684    8.5621    7.5623 C   0  0  0  0  0  0  0  0  0  0  0  0
    9.6490    9.1548    8.3799 H   0  0  0  0  0  0  0  0  0  0  0  0
    7.9286    8.6453    7.2349 C   0  0  0  0  0  0  0  0  0  0  0  0
    7.2611    9.2952    7.7786 H   0  0  0  0  0  0  0  0  0  0  0  0
    7.4865    7.8665    6.1768 C   0  0  0  0  0  0  0  0  0  0  0  0
    8.0557    5.3507    3.6441 C   0  0  0  0  0  0  0  0  0  0  0  0
    8.9637    5.6276    3.0983 H   0  0  0  0  0  0  0  0  0  0  0  0
    7.2642    5.1198    2.9060 H   0  0  0  0  0  0  0  0  0  0  0  0
    8.3239    4.0967    4.4786 C   0  0  0  0  0  0  0  0  0  0  0  0
    8.7161    1.7793    4.3206 C   0  0  0  0  0  0  0  0  0  0  0  0
    9.3669    1.9466    5.1852 H   0  0  0  0  0  0  0  0  0  0  0  0
    7.7623    1.3776    4.6788 H   0  0  0  0  0  0  0  0  0  0  0  0
    9.3575    0.8509    3.3070 C   0  0  0  0  0  0  0  0  0  0  0  0
   10.2972    1.2679    2.9544 H   0  0  0  0  0  0  0  0  0  0  0  0
    8.6973    0.7126    2.4553 H   0  0  0  0  0  0  0  0  0  0  0  0
    9.5483   -0.1131    3.7691 H   0  0  0  0  0  0  0  0  0  0  0  0
    5.0146    8.2620    6.1149 C   0  0  0  0  0  0  0  0  0  0  0  0
    5.1549    8.4057    7.1887 H   0  0  0  0  0  0  0  0  0  0  0  0
    4.2239    7.5162    5.9685 H   0  0  0  0  0  0  0  0  0  0  0  0
    4.5893    9.5783    5.4597 C   0  0  0  0  0  0  0  0  0  0  0  0
    5.4092   10.2982    5.5068 H   0  0  0  0  0  0  0  0  0  0  0  0
    3.7542    9.9759    6.0398 H   0  0  0  0  0  0  0  0  0  0  0  0
    4.1576    9.3759    4.0111 C   0  0  0  0  0  0  0  0  0  0  0  0
    3.4656    8.5189    3.9453 H   0  0  0  0  0  0  0  0  0  0  0  0
    5.0311    9.2106    3.3742 H   0  0  0  0  0  0  0  0  0  0  0  0
    3.6414   10.2584    3.6395 H   0  0  0  0  0  0  0  0  0  0  0  0
  1 19  2  0  0  0  0
  1  3  1  0  0  0  0
  2  1  1  0  0  0  0
  5 34  1  0  0  0  0
  5 33  1  0  0  0  0
  6  1  1  0  0  0  0
  7 19  1  0  0  0  0
  7 20  1  0  0  0  0
  8 41  1  0  0  0  0
  8 29  1  0  0  0  0
  9 10  1  0  0  0  0
  9  6  1  0  0  0  0
 11  9  1  0  0  0  0
 12 11  1  0  0  0  0
 13 15  1  0  0  0  0
 13 11  2  0  0  0  0
 14 13  1  0  0  0  0
 15 17  2  0  0  0  0
 16 15  1  0  0  0  0
 17 18  1  0  0  0  0
 17  6  1  0  0  0  0
 19  8  1  0  0  0  0
 20 21  2  0  0  0  0
 20 29  1  0  0  0  0
 21 23  1  0  0  0  0
 22 21  1  0  0  0  0
 23 24  1  0  0  0  0
 23 25  2  0  0  0  0
 25 26  1  0  0  0  0
 27 25  1  0  0  0  0
 27 28  1  0  0  0  0
 29 27  2  0  0  0  0
 30 33  1  0  0  0  0
 30  7  1  0  0  0  0
 31 30  1  0  0  0  0
 32 30  1  0  0  0  0
 33  4  2  0  0  0  0
 34 36  1  0  0  0  0
 34 35  1  0  0  0  0
 37 40  1  0  0  0  0
 37 34  1  0  0  0  0
 38 37  1  0  0  0  0
 39 37  1  0  0  0  0
 41 42  1  0  0  0  0
 43 41  1  0  0  0  0
 44 45  1  0  0  0  0
 44 46  1  0  0  0  0
 44 41  1  0  0  0  0
 47 44  1  0  0  0  0
 48 47  1  0  0  0  0
 49 47  1  0  0  0  0
 50 47  1  0  0  0  0
M  END
$$$$
