CSD_code = MASBOZ | q = 1 | S = 0 | Stoichiometry = C27H24ClN8Pt(1+) | MND = 4
 OpenBabel04212202063D

 61 68  0  0  0  0  0  0  0  0999 V2000
    2.7770   -1.7857    5.7765 Pt  0  0  2  0  0  0  0  0  0  0  0  0
    2.7467   -1.2597    3.8521 C   0  0  0  0  0  0  0  0  0  0  0  0
    3.3541   -0.4155    1.8752 C   0  0  0  0  0  0  0  0  0  0  0  0
    3.9908    0.1859    0.8001 C   0  0  0  0  0  0  0  0  0  0  0  0
    4.9677    0.6320    0.8932 H   0  0  0  0  0  0  0  0  0  0  0  0
    3.3214    0.1882   -0.4087 C   0  0  0  0  0  0  0  0  0  0  0  0
    3.7855    0.6469   -1.2670 H   0  0  0  0  0  0  0  0  0  0  0  0
    2.0599   -0.3883   -0.5468 C   0  0  0  0  0  0  0  0  0  0  0  0
    1.5731   -0.3610   -1.5084 H   0  0  0  0  0  0  0  0  0  0  0  0
    1.4191   -0.9933    0.5174 C   0  0  0  0  0  0  0  0  0  0  0  0
    0.4420   -1.4328    0.3983 H   0  0  0  0  0  0  0  0  0  0  0  0
    2.0849   -1.0048    1.7339 C   0  0  0  0  0  0  0  0  0  0  0  0
    0.5001   -2.1459    3.3195 C   0  0  0  0  0  0  0  0  0  0  0  0
    0.0450   -2.5413    2.4087 H   0  0  0  0  0  0  0  0  0  0  0  0
   -0.1770   -1.3877    3.7404 H   0  0  0  0  0  0  0  0  0  0  0  0
    0.6606   -3.2576    4.3092 C   0  0  0  0  0  0  0  0  0  0  0  0
    0.0034   -4.4655    4.4069 C   0  0  0  0  0  0  0  0  0  0  0  0
   -0.7647   -4.9066    3.8078 H   0  0  0  0  0  0  0  0  0  0  0  0
    0.1341   -6.2957    6.1279 C   0  0  0  0  0  0  0  0  0  0  0  0
    1.0268   -6.7198    6.5945 H   0  0  0  0  0  0  0  0  0  0  0  0
   -0.2519   -6.9814    5.3722 H   0  0  0  0  0  0  0  0  0  0  0  0
   -0.9115   -6.0040    7.1843 C   0  0  0  0  0  0  0  0  0  0  0  0
   -2.1702   -6.5815    7.1158 C   0  0  0  0  0  0  0  0  0  0  0  0
   -2.4131   -7.2585    6.3095 H   0  0  0  0  0  0  0  0  0  0  0  0
   -3.1127   -6.3032    8.0916 C   0  0  0  0  0  0  0  0  0  0  0  0
   -4.0881   -6.7617    8.0391 H   0  0  0  0  0  0  0  0  0  0  0  0
   -2.8043   -5.4392    9.1280 C   0  0  0  0  0  0  0  0  0  0  0  0
   -3.5409   -5.2223    9.8861 H   0  0  0  0  0  0  0  0  0  0  0  0
   -1.5498   -4.8546    9.1924 C   0  0  0  0  0  0  0  0  0  0  0  0
   -1.3048   -4.1809    9.9985 H   0  0  0  0  0  0  0  0  0  0  0  0
   -0.6026   -5.1362    8.2246 C   0  0  0  0  0  0  0  0  0  0  0  0
    0.3768   -4.6821    8.2736 H   0  0  0  0  0  0  0  0  0  0  0  0
    4.9841   -0.2078    3.7793 C   0  0  0  0  0  0  0  0  0  0  0  0
    5.4132    0.6002    3.1826 H   0  0  0  0  0  0  0  0  0  0  0  0
    5.6709   -1.0664    3.7391 H   0  0  0  0  0  0  0  0  0  0  0  0
    4.8574    0.2474    5.1998 C   0  0  0  0  0  0  0  0  0  0  0  0
    5.5215    1.2479    5.8767 C   0  0  0  0  0  0  0  0  0  0  0  0
    6.2712    1.9421    5.5613 H   0  0  0  0  0  0  0  0  0  0  0  0
    5.4549    1.9515    8.2907 C   0  0  0  0  0  0  0  0  0  0  0  0
    4.5844    2.0520    8.9438 H   0  0  0  0  0  0  0  0  0  0  0  0
    5.8014    2.9375    7.9775 H   0  0  0  0  0  0  0  0  0  0  0  0
    6.5521    1.1886    9.0033 C   0  0  0  0  0  0  0  0  0  0  0  0
    7.8129    1.7423    9.1650 C   0  0  0  0  0  0  0  0  0  0  0  0
    8.0202    2.7362    8.7950 H   0  0  0  0  0  0  0  0  0  0  0  0
    8.8039    1.0269    9.8162 C   0  0  0  0  0  0  0  0  0  0  0  0
    9.7813    1.4650    9.9472 H   0  0  0  0  0  0  0  0  0  0  0  0
    8.5410   -0.2450   10.2949 C   0  0  0  0  0  0  0  0  0  0  0  0
    9.3152   -0.8013   10.8003 H   0  0  0  0  0  0  0  0  0  0  0  0
    7.2839   -0.8026   10.1261 C   0  0  0  0  0  0  0  0  0  0  0  0
    7.0745   -1.7935   10.4980 H   0  0  0  0  0  0  0  0  0  0  0  0
    6.2890   -0.0888    9.4829 C   0  0  0  0  0  0  0  0  0  0  0  0
    5.3078   -0.5215    9.3495 H   0  0  0  0  0  0  0  0  0  0  0  0
    2.8129   -2.3760    7.9294 Cl  0  0  0  0  0  0  0  0  0  0  0  0
    1.5260   -3.2155    5.3553 N   0  0  0  0  0  0  0  0  0  0  0  0
    4.0259   -0.3305    6.1053 N   0  0  0  0  0  0  0  0  0  0  0  0
    4.1363    0.2619    7.2434 N   0  0  0  0  0  2  0  0  0  0  0  0
    5.0314    1.2076    7.1318 N   0  0  0  0  0  0  0  0  0  0  0  0
    3.7152   -0.5896    3.1975 N   0  0  0  0  0  0  0  0  0  0  0  0
    1.7573   -1.5177    2.9743 N   0  0  0  0  0  0  0  0  0  0  0  0
    1.4420   -4.3036    6.0388 N   0  0  0  0  0  2  0  0  0  0  0  0
    0.5311   -5.0653    5.4927 N   0  0  0  0  0  0  0  0  0  0  0  0
  1 55  1  0  0  0  0
  1 53  1  6  0  0  0
  2  1  2  0  0  0  0
  3 58  1  0  0  0  0
  4  5  1  0  0  0  0
  4  3  2  0  0  0  0
  6  4  1  0  0  0  0
  7  6  1  0  0  0  0
  8  6  2  0  0  0  0
  8 10  1  0  0  0  0
  9  8  1  0  0  0  0
 10 12  2  0  0  0  0
 11 10  1  0  0  0  0
 12  3  1  0  0  0  0
 12 59  1  0  0  0  0
 13 15  1  0  0  0  0
 13 16  1  0  0  0  0
 14 13  1  0  0  0  0
 16 17  2  0  0  0  0
 16 54  1  0  0  0  0
 17 61  1  0  0  0  0
 18 17  1  0  0  0  0
 19 20  1  0  0  0  0
 19 22  1  0  0  0  0
 21 19  1  0  0  0  0
 22 31  1  0  0  0  0
 23 22  2  0  0  0  0
 23 25  1  0  0  0  0
 24 23  1  0  0  0  0
 25 27  2  0  0  0  0
 26 25  1  0  0  0  0
 27 29  1  0  0  0  0
 27 28  1  0  0  0  0
 29 30  1  0  0  0  0
 31 32  1  0  0  0  0
 31 29  2  0  0  0  0
 33 36  1  0  0  0  0
 34 33  1  0  0  0  0
 35 33  1  0  0  0  0
 36 37  2  0  0  0  0
 36 55  1  0  0  0  0
 37 57  1  0  0  0  0
 38 37  1  0  0  0  0
 39 40  1  0  0  0  0
 39 42  1  0  0  0  0
 41 39  1  0  0  0  0
 42 43  2  0  0  0  0
 42 51  1  0  0  0  0
 43 45  1  0  0  0  0
 44 43  1  0  0  0  0
 45 46  1  0  0  0  0
 45 47  2  0  0  0  0
 47 48  1  0  0  0  0
 49 47  1  0  0  0  0
 49 50  1  0  0  0  0
 51 49  2  0  0  0  0
 52 51  1  0  0  0  0
 54  1  1  0  0  0  0
 54 60  1  0  0  0  0
 55 56  1  0  0  0  0
 57 56  1  0  0  0  0
 57 39  1  0  0  0  0
 58 33  1  0  0  0  0
 58  2  1  0  0  0  0
 59 13  1  0  0  0  0
 59  2  1  0  0  0  0
 61 60  1  0  0  0  0
 61 19  1  0  0  0  0
M  END
$$$$
