CSD_code = MASCUG | q = 0 | S = 0 | Stoichiometry = C18H15ClN2O2Pt | MND = 4
 OpenBabel04212202063D

 39 42  0  0  1  0  0  0  0  0999 V2000
   -4.8660    9.9817    7.9597 Pt  0  0  1  0  0  0  0  0  0  0  0  0
   -4.0197   10.8434    9.8359 Cl  0  0  0  0  0  0  0  0  0  0  0  0
   -5.5355    9.1609    6.3184 N   0  0  0  0  0  0  0  0  0  0  0  0
   -6.6823    9.5402    5.7346 C   0  0  0  0  0  3  0  0  0  0  0  0
   -7.1801   10.3946    6.1748 H   0  0  0  0  0  0  0  0  0  0  0  0
   -7.2231    8.8880    4.6482 C   0  0  0  0  0  0  0  0  0  0  0  0
   -8.1469    9.2392    4.2177 H   0  0  0  0  0  0  0  0  0  0  0  0
   -6.5716    7.7702    4.1342 C   0  0  0  0  0  0  0  0  0  0  0  0
   -6.9791    7.2238    3.2984 H   0  0  0  0  0  0  0  0  0  0  0  0
   -5.3881    7.3809    4.7261 C   0  0  0  0  0  0  0  0  0  0  0  0
   -4.8345    6.5221    4.3794 H   0  0  0  0  0  0  0  0  0  0  0  0
   -4.8750    8.1049    5.8048 C   0  0  0  0  0  0  0  0  0  0  0  0
   -3.5591    7.6363    6.3283 C   0  0  0  0  0  0  0  0  0  0  0  0
   -3.2516    6.4630    6.2014 O   0  0  0  0  0  0  0  0  0  0  0  0
   -2.5584    8.6138    6.8432 C   0  0  1  0  0  3  0  0  0  0  0  0
   -1.2339    8.1798    6.9282 C   0  0  0  0  0  0  0  0  0  0  0  0
   -1.0126    7.1495    6.6964 H   0  0  0  0  0  0  0  0  0  0  0  0
   -0.2525    9.0748    7.3093 C   0  0  0  0  0  0  0  0  0  0  0  0
    0.7765    8.7596    7.3925 H   0  0  0  0  0  0  0  0  0  0  0  0
   -0.6206   10.3854    7.5806 C   0  0  0  0  0  0  0  0  0  0  0  0
    0.1110   11.1215    7.8727 H   0  0  0  0  0  0  0  0  0  0  0  0
   -1.9572   10.7358    7.4896 C   0  0  0  0  0  0  0  0  0  0  0  0
   -2.2886   11.7403    7.7160 H   0  0  0  0  0  0  0  0  0  0  0  0
   -2.9045    9.8731    7.1396 N   0  0  0  0  0  0  0  0  0  0  0  0
   -6.6789    9.9411    8.8172 C   0  0  0  0  0  0  0  0  0  0  0  0
   -7.3658   11.1088    9.1499 C   0  0  0  0  0  0  0  0  0  0  0  0
   -6.8960   12.0728    8.9983 H   0  0  0  0  0  0  0  0  0  0  0  0
   -8.6374   11.0598    9.6842 C   0  0  0  0  0  0  0  0  0  0  0  0
   -9.1703   11.9619    9.9423 H   0  0  0  0  0  0  0  0  0  0  0  0
   -9.2610    9.8342    9.9160 C   0  0  0  0  0  0  0  0  0  0  0  0
   -8.5856    8.6625    9.6016 C   0  0  0  0  0  0  0  0  0  0  0  0
   -9.0336    7.6959    9.7745 H   0  0  0  0  0  0  0  0  0  0  0  0
   -7.3106    8.7259    9.0576 C   0  0  0  0  0  0  0  0  0  0  0  0
   -6.8066    7.7924    8.8252 H   0  0  0  0  0  0  0  0  0  0  0  0
  -10.5205    9.8963   10.4453 O   0  0  0  0  0  0  0  0  0  0  0  0
  -11.1763    8.6922   10.7520 C   0  0  0  0  0  0  0  0  0  0  0  0
  -12.1345    8.9789   11.1831 H   0  0  0  0  0  0  0  0  0  0  0  0
  -10.6139    8.1016   11.4826 H   0  0  0  0  0  0  0  0  0  0  0  0
  -11.3512    8.0877    9.8552 H   0  0  0  0  0  0  0  0  0  0  0  0
  1 25  1  0  0  0  0
  1  2  1  6  0  0  0
  3  1  1  0  0  0  0
  4  5  1  0  0  0  0
  4  3  1  0  0  0  0
  6  4  1  0  0  0  0
  7  6  1  0  0  0  0
  8  6  2  0  0  0  0
  8 10  1  0  0  0  0
  9  8  1  0  0  0  0
 10 12  2  0  0  0  0
 11 10  1  0  0  0  0
 12  3  1  0  0  0  0
 12 13  1  0  0  0  0
 14 13  2  0  0  0  0
 15 13  1  6  0  0  0
 15 16  1  0  0  0  0
 15 24  1  0  0  0  0
 16 18  2  0  0  0  0
 17 16  1  0  0  0  0
 18 19  1  0  0  0  0
 18 20  1  0  0  0  0
 20 21  1  0  0  0  0
 22 20  2  0  0  0  0
 22 23  1  0  0  0  0
 24 22  1  0  0  0  0
 24  1  1  0  0  0  0
 25 33  2  0  0  0  0
 25 26  1  0  0  0  0
 26 28  2  0  0  0  0
 27 26  1  0  0  0  0
 28 30  1  0  0  0  0
 28 29  1  0  0  0  0
 30 35  1  0  0  0  0
 31 32  1  0  0  0  0
 31 30  2  0  0  0  0
 33 31  1  0  0  0  0
 34 33  1  0  0  0  0
 35 36  1  0  0  0  0
 36 37  1  0  0  0  0
 36 38  1  0  0  0  0
 39 36  1  0  0  0  0
M  END
$$$$
