CSD_code = MASDER | q = 0 | S = 0 | Stoichiometry = C17H15ClN2OPt | MND = 4
 OpenBabel04212202063D

 37 40  0  0  0  0  0  0  0  0999 V2000
    1.4375    6.7708    8.6825 Pt  0  0  1  0  0  0  0  0  0  0  0  0
    1.0427    5.7300    6.7701 Cl  0  0  0  0  0  0  0  0  0  0  0  0
    1.3276    5.0249    9.8949 N   0  0  0  0  0  0  0  0  0  0  0  0
    1.0818    3.7850    9.4993 C   0  0  0  0  0  0  0  0  0  0  0  0
    0.9746    3.6480    8.4304 H   0  0  0  0  0  0  0  0  0  0  0  0
    0.9665    2.7317   10.3890 C   0  0  0  0  0  0  0  0  0  0  0  0
    0.7666    1.7350   10.0311 H   0  0  0  0  0  0  0  0  0  0  0  0
    1.1122    2.9941   11.7451 C   0  0  0  0  0  0  0  0  0  0  0  0
    1.0257    2.2004   12.4718 H   0  0  0  0  0  0  0  0  0  0  0  0
    1.3692    4.2881   12.1572 C   0  0  0  0  0  0  0  0  0  0  0  0
    1.4803    4.5034   13.2072 H   0  0  0  0  0  0  0  0  0  0  0  0
    1.4766    5.3016   11.2020 C   0  0  0  0  0  0  0  0  0  0  0  0
    1.7507    6.7044   11.5146 C   0  0  0  0  0  0  0  0  0  0  0  0
    1.9832    7.1565   12.8134 C   0  0  0  0  0  0  0  0  0  0  0  0
    1.9635    6.4632   13.6380 H   0  0  0  0  0  0  0  0  0  0  0  0
    2.2427    8.4917   13.0479 C   0  0  0  0  0  0  0  0  0  0  0  0
    2.4228    8.8498   14.0492 H   0  0  0  0  0  0  0  0  0  0  0  0
    2.2674    9.3588   11.9603 C   0  0  0  0  0  0  0  0  0  0  0  0
    2.4672   10.4098   12.0908 H   0  0  0  0  0  0  0  0  0  0  0  0
    2.0325    8.8560   10.6990 C   0  0  0  0  0  0  0  0  0  0  0  0
    2.0454    9.5040    9.8332 H   0  0  0  0  0  0  0  0  0  0  0  0
    1.7764    7.5631   10.4608 N   0  0  0  0  0  0  0  0  0  0  0  0
    1.5375    8.4883    7.6532 C   0  0  0  0  0  0  0  0  0  0  0  0
    0.4362    9.3296    7.5445 C   0  0  0  0  0  0  0  0  0  0  0  0
   -0.5090    9.0442    7.9952 H   0  0  0  0  0  0  0  0  0  0  0  0
    0.5026   10.5375    6.8634 C   0  0  0  0  0  0  0  0  0  0  0  0
   -0.3813   11.1542    6.8030 H   0  0  0  0  0  0  0  0  0  0  0  0
    1.6935   10.9290    6.2679 C   0  0  0  0  0  0  0  0  0  0  0  0
    2.8054   10.0937    6.3618 C   0  0  0  0  0  0  0  0  0  0  0  0
    3.7222   10.4058    5.8856 H   0  0  0  0  0  0  0  0  0  0  0  0
    2.7232    8.8935    7.0395 C   0  0  0  0  0  0  0  0  0  0  0  0
    3.5995    8.2558    7.0840 H   0  0  0  0  0  0  0  0  0  0  0  0
    1.8815   12.0990    5.5784 O   0  0  0  0  0  0  0  0  0  0  0  0
    0.7796   12.9510    5.4030 C   0  0  0  0  0  0  0  0  0  0  0  0
    1.1440   13.7887    4.8097 H   0  0  0  0  0  0  0  0  0  0  0  0
    0.4014   13.3262    6.3608 H   0  0  0  0  0  0  0  0  0  0  0  0
   -0.0336   12.4537    4.8637 H   0  0  0  0  0  0  0  0  0  0  0  0
  1  2  1  6  0  0  0
  1  3  1  0  0  0  0
  1 22  1  0  0  0  0
  3 12  1  0  0  0  0
  4  3  1  0  0  0  0
  4  6  2  0  0  0  0
  5  4  1  0  0  0  0
  6  8  1  0  0  0  0
  7  6  1  0  0  0  0
  8 10  2  0  0  0  0
  8  9  1  0  0  0  0
 10 11  1  0  0  0  0
 12 13  2  0  0  0  0
 12 10  1  0  0  0  0
 13 14  1  0  0  0  0
 14 16  2  0  0  0  0
 14 15  1  0  0  0  0
 16 17  1  0  0  0  0
 18 19  1  0  0  0  0
 18 16  1  0  0  0  0
 20 18  2  0  0  0  0
 21 20  1  0  0  0  0
 22 20  1  0  0  0  0
 22 13  1  0  0  0  0
 23  1  1  0  0  0  0
 24 23  1  0  0  0  0
 24 25  1  0  0  0  0
 26 24  2  0  0  0  0
 27 26  1  0  0  0  0
 28 29  2  0  0  0  0
 28 26  1  0  0  0  0
 29 31  1  0  0  0  0
 30 29  1  0  0  0  0
 31 32  1  0  0  0  0
 31 23  2  0  0  0  0
 33 28  1  0  0  0  0
 34 33  1  0  0  0  0
 34 36  1  0  0  0  0
 35 34  1  0  0  0  0
 37 34  1  0  0  0  0
M  END
$$$$
