CSD_code = MASKOI | q = 0 | S = 0 | Stoichiometry = C21H19Cl3N2OZr | MND = 10
 OpenBabel04212202063D

 47 51  0  0  1  0  0  0  0  0999 V2000
    1.6118    1.4561    4.0196 Zr  0  0  0  0  0  0  0  0  0  0  0  0
   -0.4433    1.7266    2.9491 Cl  0  0  0  0  0  0  0  0  0  0  0  0
    1.6610   -0.8893    3.5696 Cl  0  0  0  0  0  0  0  0  0  0  0  0
    1.3095    3.3624    5.4410 Cl  0  0  0  0  0  0  0  0  0  0  0  0
    0.3482    0.6321    5.6799 O   0  0  0  0  0  0  0  0  0  0  0  0
    3.2861    0.9811    5.4671 N   0  0  0  0  0  0  0  0  0  0  0  0
    6.0788   -1.3293    4.9896 N   0  0  0  0  0  0  0  0  0  0  0  0
    3.1533    0.8976    6.7813 C   0  0  0  0  0  0  0  0  0  0  0  0
    2.3384    1.4726    7.2125 H   0  0  0  0  0  0  0  0  0  0  0  0
    4.0162    0.1439    7.5860 C   0  0  0  0  0  0  0  0  0  0  0  0
    3.8741    0.1369    8.6554 H   0  0  0  0  0  0  0  0  0  0  0  0
    5.0062   -0.6051    6.9998 C   0  0  0  0  0  0  0  0  0  0  0  0
    5.6631   -1.2421    7.5708 H   0  0  0  0  0  0  0  0  0  0  0  0
    6.1453   -1.2842    3.6799 C   0  0  0  0  0  0  0  0  0  0  0  0
    6.8719   -1.9508    3.2340 H   0  0  0  0  0  0  0  0  0  0  0  0
    5.3949   -0.4287    2.8707 C   0  0  0  0  0  0  0  0  0  0  0  0
    5.5458   -0.4167    1.8027 H   0  0  0  0  0  0  0  0  0  0  0  0
    4.4932    0.4481    3.4591 C   0  0  0  0  0  0  0  0  0  0  0  0
    4.3143    0.3247    4.8754 C   0  0  2  0  0  3  0  0  0  0  0  0
    5.1660   -0.5546    5.5991 C   0  0  0  0  0  0  0  0  0  0  0  0
    3.7135    1.4527    2.7784 C   0  0  2  0  0  3  0  0  0  0  0  0
    3.4979    2.7871    3.2730 C   0  0  1  0  0  0  0  0  0  0  0  0
    4.0843    3.2573    4.0583 H   0  0  0  0  0  0  0  0  0  0  0  0
    2.5589    3.4315    2.4685 C   0  0  0  0  0  3  0  0  0  0  0  0
    2.2690    4.4714    2.5390 H   0  0  0  0  0  0  0  0  0  0  0  0
    2.1633    2.5293    1.4318 C   0  0  0  0  0  0  0  0  0  0  0  0
    1.2535    2.6559    0.3746 C   0  0  0  0  0  0  0  0  0  0  0  0
    0.7038    3.5765    0.2393 H   0  0  0  0  0  0  0  0  0  0  0  0
    1.0648    1.5853   -0.4692 C   0  0  0  0  0  0  0  0  0  0  0  0
    0.3639    1.6649   -1.2863 H   0  0  0  0  0  0  0  0  0  0  0  0
    1.7572    0.3820   -0.2829 C   0  0  0  0  0  0  0  0  0  0  0  0
    1.5725   -0.4388   -0.9597 H   0  0  0  0  0  0  0  0  0  0  0  0
    2.6650    0.2262    0.7402 C   0  0  0  0  0  0  0  0  0  0  0  0
    3.1913   -0.7083    0.8761 H   0  0  0  0  0  0  0  0  0  0  0  0
    2.8923    1.3046    1.6064 C   0  0  0  0  0  0  0  0  0  0  0  0
    0.3001   -0.6770    6.2587 C   0  0  0  0  0  0  0  0  0  0  0  0
    1.3190   -1.0652    6.3369 H   0  0  0  0  0  0  0  0  0  0  0  0
   -0.2843   -1.3378    5.6040 H   0  0  0  0  0  0  0  0  0  0  0  0
   -0.3964   -0.4906    7.6146 C   0  0  0  0  0  0  0  0  0  0  0  0
    0.3352   -0.3937    8.4154 H   0  0  0  0  0  0  0  0  0  0  0  0
   -1.0387   -1.3385    7.8408 H   0  0  0  0  0  0  0  0  0  0  0  0
   -1.1939    0.8134    7.4354 C   0  0  0  0  0  0  0  0  0  0  0  0
   -2.2543    0.6853    7.6384 H   0  0  0  0  0  0  0  0  0  0  0  0
   -0.8088    1.5964    8.0874 H   0  0  0  0  0  0  0  0  0  0  0  0
   -0.9452    1.1827    5.9697 C   0  0  0  0  0  0  0  0  0  0  0  0
   -1.6906    0.7190    5.3079 H   0  0  0  0  0  0  0  0  0  0  0  0
   -0.9085    2.2601    5.7900 H   0  0  0  0  0  0  0  0  0  0  0  0
  1  4  1  0  0  0  0
  1  6  1  0  0  0  0
  2  1  1  0  0  0  0
  3  1  1  0  0  0  0
  5 45  1  0  0  0  0
  5 36  1  0  0  0  0
  6  8  1  0  0  0  0
  7 20  1  0  0  0  0
  8  9  1  0  0  0  0
  8 10  2  0  0  0  0
 10 11  1  0  0  0  0
 12 13  1  0  0  0  0
 12 10  1  0  0  0  0
 14  7  2  0  0  0  0
 15 14  1  0  0  0  0
 16 18  2  0  0  0  0
 16 14  1  0  0  0  0
 17 16  1  0  0  0  0
 19 18  1  6  0  0  0
 19  6  1  0  0  0  0
 19 20  1  0  0  0  0
 20 12  2  0  0  0  0
 21 35  1  1  0  0  0
 21 22  1  0  0  0  0
 21 18  1  0  0  0  0
 22  1  1  0  0  0  0
 22 23  1  1  0  0  0
 24 25  1  0  0  0  0
 24 22  1  0  0  0  0
 26 35  1  0  0  0  0
 26 24  1  0  0  0  0
 27 26  2  0  0  0  0
 28 27  1  0  0  0  0
 29 31  2  0  0  0  0
 29 27  1  0  0  0  0
 30 29  1  0  0  0  0
 31 33  1  0  0  0  0
 32 31  1  0  0  0  0
 33 34  1  0  0  0  0
 33 35  2  0  0  0  0
 36 37  1  0  0  0  0
 36 39  1  0  0  0  0
 38 36  1  0  0  0  0
 39 41  1  0  0  0  0
 39 40  1  0  0  0  0
 42 39  1  0  0  0  0
 42 43  1  0  0  0  0
 42 44  1  0  0  0  0
 45 42  1  0  0  0  0
 46 45  1  0  0  0  0
 47 45  1  0  0  0  0
M  END
$$$$
