CSD_code = MASSAA | q = 0 | S = 0 | Stoichiometry = C14H20Cl2O2PdS2 | MND = 4
 OpenBabel04212202063D

 41 43  0  0  0  0  0  0  0  0999 V2000
    1.4286    0.2703    2.6761 Pd  0  0  0  0  0  0  0  0  0  0  0  0
    0.3465    2.1740    2.0866 Cl  0  0  0  0  0  0  0  0  0  0  0  0
    2.8236    0.7050    0.9426 Cl  0  0  0  0  0  0  0  0  0  0  0  0
   -0.0462    0.2704    4.5294 S   0  0  1  0  0  3  0  0  0  0  0  0
    3.0827   -1.2973    3.3582 S   0  0  1  0  0  3  0  0  0  0  0  0
   -0.9691   -1.1765    2.2183 O   0  0  0  0  0  0  0  0  0  0  0  0
    1.2094   -2.7539    1.6683 O   0  0  0  0  0  0  0  0  0  0  0  0
   -0.7097   -1.5037    0.8635 C   0  0  0  0  0  0  0  0  0  0  0  0
   -1.6494   -1.6123    0.3047 H   0  0  0  0  0  0  0  0  0  0  0  0
   -0.0891   -0.7155    0.3991 H   0  0  0  0  0  0  0  0  0  0  0  0
   -1.8512   -0.0839    2.3944 C   0  0  0  0  0  0  0  0  0  0  0  0
   -2.8871   -0.4042    2.1993 H   0  0  0  0  0  0  0  0  0  0  0  0
   -1.5842    0.7240    1.7019 H   0  0  0  0  0  0  0  0  0  0  0  0
   -1.7273    0.4233    3.8298 C   0  0  0  0  0  0  0  0  0  0  0  0
   -2.3826   -0.1199    4.5095 H   0  0  0  0  0  0  0  0  0  0  0  0
   -1.9570    1.4868    3.8643 H   0  0  0  0  0  0  0  0  0  0  0  0
   -0.1409   -1.4627    5.1671 C   0  0  0  0  0  0  0  0  0  0  0  0
   -1.1075   -1.5456    5.6648 H   0  0  0  0  0  0  0  0  0  0  0  0
   -0.1044   -2.1323    4.3109 H   0  0  0  0  0  0  0  0  0  0  0  0
    0.9665   -1.6618    6.1497 C   0  0  0  0  0  0  0  0  0  0  0  0
    0.7708   -1.2297    7.4583 C   0  0  0  0  0  0  0  0  0  0  0  0
   -0.1798   -0.7932    7.7281 H   0  0  0  0  0  0  0  0  0  0  0  0
    1.7681   -1.3402    8.4071 C   0  0  0  0  0  0  0  0  0  0  0  0
    1.5952   -0.9967    9.4155 H   0  0  0  0  0  0  0  0  0  0  0  0
    2.9901   -1.8875    8.0542 C   0  0  0  0  0  0  0  0  0  0  0  0
    3.7801   -1.9740    8.7845 H   0  0  0  0  0  0  0  0  0  0  0  0
    3.1959   -2.3206    6.7591 C   0  0  0  0  0  0  0  0  0  0  0  0
    4.1501   -2.7445    6.4821 H   0  0  0  0  0  0  0  0  0  0  0  0
    2.1972   -2.2192    5.7948 C   0  0  0  0  0  0  0  0  0  0  0  0
    2.4875   -2.6970    4.4115 C   0  0  0  0  0  0  0  0  0  0  0  0
    1.6276   -3.1378    3.9132 H   0  0  0  0  0  0  0  0  0  0  0  0
    3.3115   -3.4110    4.4277 H   0  0  0  0  0  0  0  0  0  0  0  0
    3.5407   -2.2599    1.8780 C   0  0  0  0  0  0  0  0  0  0  0  0
    4.3223   -1.6866    1.3825 H   0  0  0  0  0  0  0  0  0  0  0  0
    3.9411   -3.2045    2.2442 H   0  0  0  0  0  0  0  0  0  0  0  0
    2.3798   -2.4730    0.9162 C   0  0  0  0  0  0  0  0  0  0  0  0
    2.2417   -1.5651    0.3158 H   0  0  0  0  0  0  0  0  0  0  0  0
    2.6068   -3.3197    0.2492 H   0  0  0  0  0  0  0  0  0  0  0  0
    0.0296   -2.8427    0.9033 C   0  0  0  0  0  0  0  0  0  0  0  0
    0.2421   -3.1948   -0.1121 H   0  0  0  0  0  0  0  0  0  0  0  0
   -0.6050   -3.5737    1.4163 H   0  0  0  0  0  0  0  0  0  0  0  0
  1  5  1  0  0  0  0
  1  4  1  0  0  0  0
  2  1  1  0  0  0  0
  3  1  1  0  0  0  0
  4 14  1  6  0  0  0
  4 17  1  0  0  0  0
  5 33  1  6  0  0  0
  5 30  1  0  0  0  0
  6 11  1  0  0  0  0
  8 39  1  0  0  0  0
  8  6  1  0  0  0  0
  9  8  1  0  0  0  0
 10  8  1  0  0  0  0
 11 14  1  0  0  0  0
 12 11  1  0  0  0  0
 13 11  1  0  0  0  0
 14 16  1  0  0  0  0
 14 15  1  0  0  0  0
 17 18  1  0  0  0  0
 17 20  1  0  0  0  0
 19 17  1  0  0  0  0
 20 21  1  0  0  0  0
 21 22  1  0  0  0  0
 21 23  2  0  0  0  0
 23 24  1  0  0  0  0
 25 23  1  0  0  0  0
 25 26  1  0  0  0  0
 27 25  2  0  0  0  0
 28 27  1  0  0  0  0
 29 20  2  0  0  0  0
 29 27  1  0  0  0  0
 30 32  1  0  0  0  0
 30 29  1  0  0  0  0
 31 30  1  0  0  0  0
 33 35  1  0  0  0  0
 34 33  1  0  0  0  0
 36  7  1  0  0  0  0
 36 33  1  0  0  0  0
 37 36  1  0  0  0  0
 38 36  1  0  0  0  0
 39 41  1  0  0  0  0
 39  7  1  0  0  0  0
 40 39  1  0  0  0  0
M  END
$$$$
