CSD_code = MATCPD | q = 0 | S = 0 | Stoichiometry = C5H7Cl2NOPdS | MND = 5
 OpenBabel04212202063D

 18 17  0  0  1  0  0  0  0  0999 V2000
    1.4262   -1.3954    1.7503 Cl  0  0  0  0  0  0  0  0  0  0  0  0
   -1.5684   -2.1658    2.0144 Cl  0  0  0  0  0  0  0  0  0  0  0  0
   -2.6054    2.3568    1.8702 C   0  0  0  0  0  0  0  0  0  0  0  0
   -0.2377    2.4413    2.6556 C   0  0  0  0  0  0  0  0  0  0  0  0
    0.2852    1.7169    1.4917 C   0  0  2  0  0  3  0  0  0  0  0  0
    0.7076    1.2519    0.4435 C   0  0  0  0  0  2  0  0  0  0  0  0
   -4.8959    2.6064    1.3439 C   0  0  0  0  0  0  0  0  0  0  0  0
   -1.7330    3.9439    2.7113 H   0  0  0  0  0  0  0  0  0  0  0  0
   -0.2913    1.7411    3.5149 H   0  0  0  0  0  0  0  0  0  0  0  0
    0.4411    3.2591    2.9129 H   0  0  0  0  0  0  0  0  0  0  0  0
    1.2436    1.0494   -0.4509 H   0  0  0  0  0  0  0  0  0  0  0  0
   -4.7735    2.3365    0.2934 H   0  0  0  0  0  0  0  0  0  0  0  0
   -5.6317    3.3995    1.4499 H   0  0  0  0  0  0  0  0  0  0  0  0
   -5.2047    1.7212    1.9029 H   0  0  0  0  0  0  0  0  0  0  0  0
   -1.5439    3.0086    2.3786 N   0  0  0  0  0  0  0  0  0  0  0  0
   -3.6881    3.1342    1.8692 O   0  0  0  0  0  0  0  0  0  0  0  0
   -0.5023   -0.3188    1.4649 Pd  0  0  0  0  0  0  0  0  0  0  0  0
   -2.6554    0.8002    1.2866 S   0  0  0  0  0  0  0  0  0  0  0  0
  3 15  1  0  0  0  0
  4 10  1  0  0  0  0
  4  9  1  0  0  0  0
  5  6  1  6  0  0  0
  5  4  1  0  0  0  0
  7 13  1  0  0  0  0
  7 16  1  0  0  0  0
  7 14  1  0  0  0  0
 11  6  1  0  0  0  0
 12  7  1  0  0  0  0
 15  4  1  0  0  0  0
 15  8  1  0  0  0  0
 16  3  1  0  0  0  0
 17  5  1  0  0  0  0
 17  1  1  0  0  0  0
 17  2  1  0  0  0  0
 18  3  2  0  0  0  0
M  END
$$$$
