CSD_code = MATFIZ | q = 1 | S = 0 | Stoichiometry = C21H22ClN6Zn(1+) | MND = 5
 OpenBabel04212202063D

 51 57  0  0  1  0  0  0  0  0999 V2000
    0.4484    4.9920   13.3654 Zn  0  0  0  0  0  0  0  0  0  0  0  0
   -0.7439    6.3402   14.5632 Cl  0  0  0  0  0  0  0  0  0  0  0  0
    0.2362    3.5295   10.6574 C   0  0  2  0  0  0  0  0  0  0  0  0
    0.0984    3.0397    9.6890 H   0  0  0  0  0  0  0  0  0  0  0  0
    0.0649    5.6255    9.2668 C   0  0  1  0  0  3  0  0  0  0  0  0
    0.2333    4.9568   10.4361 N   0  0  1  0  0  0  0  0  0  0  0  0
    0.1366    6.9652    9.5730 C   0  0  0  0  0  0  0  0  0  0  0  0
    0.0446    7.7853    8.8918 H   0  0  0  0  0  0  0  0  0  0  0  0
    0.4081    5.8175   11.4608 N   0  0  0  0  0  0  0  0  0  0  0  0
    0.3498    7.0429   10.9583 C   0  0  0  0  0  0  0  0  0  0  0  0
   -0.8593    3.1384   11.5125 N   0  0  1  0  0  0  0  0  0  0  0  0
   -0.1444    4.9617    7.9571 C   0  0  0  0  0  0  0  0  0  0  0  0
   -0.2033    5.7196    7.1816 H   0  0  0  0  0  0  0  0  0  0  0  0
   -1.0747    4.3942    7.9459 H   0  0  0  0  0  0  0  0  0  0  0  0
    0.6788    4.2896    7.7162 H   0  0  0  0  0  0  0  0  0  0  0  0
   -0.8942    3.5177   12.8072 N   0  0  0  0  0  0  0  0  0  0  0  0
    0.5103    8.2534   11.7939 C   0  0  0  0  0  0  0  0  0  0  0  0
    0.1126    9.1217   11.2763 H   0  0  0  0  0  0  0  0  0  0  0  0
    1.5657    8.4271   12.0042 H   0  0  0  0  0  0  0  0  0  0  0  0
   -0.0050    8.1258   12.7438 H   0  0  0  0  0  0  0  0  0  0  0  0
    1.8500    3.6471   12.4374 N   0  0  0  0  0  0  0  0  0  0  0  0
   -1.9483    2.3910   11.1994 C   0  0  2  0  0  3  0  0  0  0  0  0
    2.1300    4.8492   14.7176 N   0  0  0  0  0  0  0  0  0  0  0  0
   -2.6975    2.2961   12.3502 C   0  0  0  0  0  0  0  0  0  0  0  0
   -3.6257    1.7778   12.4709 H   0  0  0  0  0  0  0  0  0  0  0  0
   -2.0038    3.0186   13.3333 C   0  0  0  0  0  0  0  0  0  0  0  0
   -2.2018    1.8238    9.8528 C   0  0  0  0  0  0  0  0  0  0  0  0
   -2.3202    2.6124    9.1102 H   0  0  0  0  0  0  0  0  0  0  0  0
   -3.1203    1.2452    9.8795 H   0  0  0  0  0  0  0  0  0  0  0  0
   -1.3922    1.1652    9.5393 H   0  0  0  0  0  0  0  0  0  0  0  0
   -2.3776    3.2441   14.7465 C   0  0  0  0  0  0  0  0  0  0  0  0
   -3.2099    2.6046   15.0251 H   0  0  0  0  0  0  0  0  0  0  0  0
   -2.6652    4.2858   14.8893 H   0  0  0  0  0  0  0  0  0  0  0  0
   -1.5292    3.0493   15.4008 H   0  0  0  0  0  0  0  0  0  0  0  0
    1.5576    3.0988   11.2730 C   0  0  1  0  0  3  0  0  0  0  0  0
    2.4073    2.1889   10.6598 C   0  0  0  0  0  0  0  0  0  0  0  0
    2.1614    1.7461    9.7079 H   0  0  0  0  0  0  0  0  0  0  0  0
    3.5889    1.8621   11.3124 C   0  0  0  0  0  0  0  0  0  0  0  0
    4.2743    1.1569   10.8683 H   0  0  0  0  0  0  0  0  0  0  0  0
    3.8830    2.4435   12.5339 C   0  0  0  0  0  0  0  0  0  0  0  0
    4.7967    2.1896   13.0439 H   0  0  0  0  0  0  0  0  0  0  0  0
    2.9746    3.3515   13.0799 C   0  0  0  0  0  0  0  0  0  0  0  0
    3.1437    4.0489   14.3643 C   0  0  1  0  0  3  0  0  0  0  0  0
    4.2677    3.9054   15.1721 C   0  0  0  0  0  0  0  0  0  0  0  0
    5.0824    3.2631   14.8817 H   0  0  0  0  0  0  0  0  0  0  0  0
    4.3312    4.6072   16.3670 C   0  0  0  0  0  0  0  0  0  0  0  0
    5.1939    4.5099   17.0080 H   0  0  0  0  0  0  0  0  0  0  0  0
    3.2741    5.4292   16.7187 C   0  0  0  0  0  0  0  0  0  0  0  0
    3.2826    5.9913   17.6380 H   0  0  0  0  0  0  0  0  0  0  0  0
    2.1895    5.5186   15.8563 C   0  0  0  0  0  0  0  0  0  0  0  0
    1.3358    6.1443   16.0791 H   0  0  0  0  0  0  0  0  0  0  0  0
  1  2  1  0  0  0  0
  1 23  1  0  0  0  0
  3  4  1  6  0  0  0
  3 35  1  0  0  0  0
  3 11  1  0  0  0  0
  5 12  1  6  0  0  0
  5  7  1  0  0  0  0
  5  6  1  0  0  0  0
  6  3  1  0  0  0  0
  6  9  1  1  0  0  0
  7 10  2  0  0  0  0
  8  7  1  0  0  0  0
  9  1  1  0  0  0  0
 10  9  1  0  0  0  0
 10 17  1  0  0  0  0
 11 16  1  6  0  0  0
 13 12  1  0  0  0  0
 14 12  1  0  0  0  0
 15 12  1  0  0  0  0
 16 26  1  0  0  0  0
 16  1  1  0  0  0  0
 17 19  1  0  0  0  0
 17 20  1  0  0  0  0
 18 17  1  0  0  0  0
 21 42  1  0  0  0  0
 21  1  1  0  0  0  0
 22 27  1  1  0  0  0
 22 11  1  0  0  0  0
 22 24  1  0  0  0  0
 23 50  1  0  0  0  0
 24 25  1  0  0  0  0
 24 26  2  0  0  0  0
 26 31  1  0  0  0  0
 27 29  1  0  0  0  0
 28 27  1  0  0  0  0
 30 27  1  0  0  0  0
 31 33  1  0  0  0  0
 31 32  1  0  0  0  0
 31 34  1  0  0  0  0
 35 36  1  1  0  0  0
 35 21  1  0  0  0  0
 36 38  2  0  0  0  0
 37 36  1  0  0  0  0
 38 40  1  0  0  0  0
 39 38  1  0  0  0  0
 40 41  1  0  0  0  0
 40 42  2  0  0  0  0
 43 42  1  6  0  0  0
 43 23  1  0  0  0  0
 43 44  1  0  0  0  0
 44 46  2  0  0  0  0
 45 44  1  0  0  0  0
 46 48  1  0  0  0  0
 46 47  1  0  0  0  0
 48 49  1  0  0  0  0
 50 51  1  0  0  0  0
 50 48  2  0  0  0  0
M  END
$$$$
