CSD_code = MATFEV | q = 1 | S = 0 | Stoichiometry = C21H22BrN6Zn(1+) | MND = 5
 OpenBabel04212202063D

 51 57  0  0  1  0  0  0  0  0999 V2000
    7.9245    7.4745    3.6194 Br  0  0  0  0  0  0  0  0  0  0  0  0
    6.5537    5.6893    4.0596 Zn  0  0  0  0  0  0  0  0  0  0  0  0
    5.2267    4.2951    1.8289 N   0  0  2  0  0  0  0  0  0  0  0  0
    6.4544    4.6907    2.2270 N   0  0  0  0  0  0  0  0  0  0  0  0
    3.7720    5.6948    3.0889 N   0  0  1  0  0  0  0  0  0  0  0  0
    4.6370    6.4621    3.7851 N   0  0  0  0  0  0  0  0  0  0  0  0
    5.4417    3.9732    4.7159 N   0  0  0  0  0  0  0  0  0  0  0  0
    7.4828    5.0374    5.9365 N   0  0  0  0  0  0  0  0  0  0  0  0
    4.1078    4.3349    2.7399 C   0  0  2  0  0  0  0  0  0  0  0  0
    3.2447    3.8973    2.2302 H   0  0  0  0  0  0  0  0  0  0  0  0
    4.0543    3.3864   -0.1918 C   0  0  0  0  0  0  0  0  0  0  0  0
    4.3486    3.0930   -1.1950 H   0  0  0  0  0  0  0  0  0  0  0  0
    3.2922    4.1609   -0.2760 H   0  0  0  0  0  0  0  0  0  0  0  0
    3.6193    2.5188    0.3042 H   0  0  0  0  0  0  0  0  0  0  0  0
    5.2468    3.8843    0.5351 C   0  0  2  0  0  3  0  0  0  0  0  0
    6.5452    4.0283    0.1032 C   0  0  0  0  0  0  0  0  0  0  0  0
    6.9281    3.8005   -0.8694 H   0  0  0  0  0  0  0  0  0  0  0  0
    7.2696    4.5383    1.1919 C   0  0  0  0  0  0  0  0  0  0  0  0
    8.7070    4.8850    1.2479 C   0  0  0  0  0  0  0  0  0  0  0  0
    9.2523    4.3469    0.4781 H   0  0  0  0  0  0  0  0  0  0  0  0
    9.1251    4.6493    2.2245 H   0  0  0  0  0  0  0  0  0  0  0  0
    8.8393    5.9545    1.0816 H   0  0  0  0  0  0  0  0  0  0  0  0
    1.4859    5.8073    2.0669 C   0  0  0  0  0  0  0  0  0  0  0  0
    0.6935    6.5479    2.0146 H   0  0  0  0  0  0  0  0  0  0  0  0
    1.0926    4.9206    2.5641 H   0  0  0  0  0  0  0  0  0  0  0  0
    1.7681    5.5417    1.0484 H   0  0  0  0  0  0  0  0  0  0  0  0
    2.6335    6.3797    2.8112 C   0  0  1  0  0  3  0  0  0  0  0  0
    2.7924    7.6328    3.3570 C   0  0  0  0  0  0  0  0  0  0  0  0
    2.0906    8.4398    3.3290 H   0  0  0  0  0  0  0  0  0  0  0  0
    4.0615    7.6448    3.9561 C   0  0  0  0  0  0  0  0  0  0  0  0
    4.7229    8.7597    4.6699 C   0  0  0  0  0  0  0  0  0  0  0  0
    3.9831    9.4801    5.0062 H   0  0  0  0  0  0  0  0  0  0  0  0
    5.4225    9.2665    4.0046 H   0  0  0  0  0  0  0  0  0  0  0  0
    5.2887    8.3920    5.5239 H   0  0  0  0  0  0  0  0  0  0  0  0
    4.4271    3.5355    3.9916 C   0  0  1  0  0  3  0  0  0  0  0  0
    3.6991    2.4113    4.3540 C   0  0  0  0  0  0  0  0  0  0  0  0
    2.8732    2.0645    3.7541 H   0  0  0  0  0  0  0  0  0  0  0  0
    4.0670    1.7431    5.5140 C   0  0  0  0  0  0  0  0  0  0  0  0
    3.5263    0.8636    5.8271 H   0  0  0  0  0  0  0  0  0  0  0  0
    5.1302    2.2120    6.2656 C   0  0  0  0  0  0  0  0  0  0  0  0
    5.4200    1.6965    7.1652 H   0  0  0  0  0  0  0  0  0  0  0  0
    5.8090    3.3518    5.8325 C   0  0  0  0  0  0  0  0  0  0  0  0
    6.9502    3.9617    6.5312 C   0  0  2  0  0  3  0  0  0  0  0  0
    7.4558    3.4731    7.7324 C   0  0  0  0  0  0  0  0  0  0  0  0
    7.0209    2.6095    8.2069 H   0  0  0  0  0  0  0  0  0  0  0  0
    8.5342    4.1154    8.3219 C   0  0  0  0  0  0  0  0  0  0  0  0
    8.9396    3.7521    9.2535 H   0  0  0  0  0  0  0  0  0  0  0  0
    9.0754    5.2246    7.6951 C   0  0  0  0  0  0  0  0  0  0  0  0
    9.9134    5.7555    8.1155 H   0  0  0  0  0  0  0  0  0  0  0  0
    8.5127    5.6490    6.4995 C   0  0  0  0  0  0  0  0  0  0  0  0
    8.9069    6.5116    5.9790 H   0  0  0  0  0  0  0  0  0  0  0  0
  1  2  1  0  0  0  0
  2  7  1  0  0  0  0
  2  8  1  0  0  0  0
  3  4  1  1  0  0  0
  3  9  1  0  0  0  0
  4  2  1  0  0  0  0
  5  6  1  1  0  0  0
  6 30  1  0  0  0  0
  6  2  1  0  0  0  0
  7 42  1  0  0  0  0
  8 50  1  0  0  0  0
  8 43  1  0  0  0  0
  9 10  1  6  0  0  0
  9  5  1  0  0  0  0
  9 35  1  0  0  0  0
 11 14  1  0  0  0  0
 12 11  1  0  0  0  0
 13 11  1  0  0  0  0
 15 11  1  1  0  0  0
 15  3  1  0  0  0  0
 16 15  1  0  0  0  0
 16 18  2  0  0  0  0
 17 16  1  0  0  0  0
 18 19  1  0  0  0  0
 18  4  1  0  0  0  0
 19 21  1  0  0  0  0
 20 19  1  0  0  0  0
 22 19  1  0  0  0  0
 23 25  1  0  0  0  0
 24 23  1  0  0  0  0
 26 23  1  0  0  0  0
 27 23  1  1  0  0  0
 27  5  1  0  0  0  0
 27 28  1  0  0  0  0
 28 30  2  0  0  0  0
 29 28  1  0  0  0  0
 30 31  1  0  0  0  0
 31 32  1  0  0  0  0
 31 34  1  0  0  0  0
 33 31  1  0  0  0  0
 35 36  1  6  0  0  0
 35  7  1  0  0  0  0
 36 38  2  0  0  0  0
 37 36  1  0  0  0  0
 38 39  1  0  0  0  0
 38 40  1  0  0  0  0
 40 41  1  0  0  0  0
 42 40  2  0  0  0  0
 43 42  1  1  0  0  0
 43 44  1  0  0  0  0
 44 45  1  0  0  0  0
 44 46  2  0  0  0  0
 46 47  1  0  0  0  0
 48 49  1  0  0  0  0
 48 46  1  0  0  0  0
 50 48  2  0  0  0  0
 51 50  1  0  0  0  0
M  END
$$$$
