CSD_code = MATFAR | q = 0 | S = 0 | Stoichiometry = C17H14Cl2N6Zn | MND = 5
 OpenBabel04212202063D

 40 45  0  0  1  0  0  0  0  0999 V2000
    3.0167    3.2764    1.3927 Zn  0  0  0  0  0  0  0  0  0  0  0  0
    4.2442    7.6633    2.1481 N   0  0  0  0  0  0  0  0  0  0  0  0
    4.0278    6.2563    2.0650 C   0  0  2  0  0  0  0  0  0  0  0  0
    3.5402    6.0255    1.0925 H   0  0  0  0  0  0  0  0  0  0  0  0
    3.1198    4.5475   -0.4751 Cl  0  0  0  0  0  0  0  0  0  0  0  0
    1.2561    1.9368    1.6383 Cl  0  0  0  0  0  0  0  0  0  0  0  0
    4.8988    8.2308    3.1676 N   0  0  0  0  0  0  0  0  0  0  0  0
    4.2161    9.8111    1.7295 C   0  0  0  0  0  0  0  0  0  0  0  0
    4.0546   10.7712    1.2860 H   0  0  0  0  0  0  0  0  0  0  0  0
    3.1298    5.7898    3.1049 N   0  0  1  0  0  0  0  0  0  0  0  0
    4.8886    9.5249    2.9277 C   0  0  0  0  0  0  0  0  0  0  0  0
    5.3582   10.2033    3.6121 H   0  0  0  0  0  0  0  0  0  0  0  0
    2.4712    4.6460    2.9350 N   0  0  0  0  0  0  0  0  0  0  0  0
    2.8551    6.3349    4.3008 C   0  0  0  0  0  3  0  0  0  0  0  0
    3.3088    7.2519    4.6187 H   0  0  0  0  0  0  0  0  0  0  0  0
    5.0692    4.1122    1.9744 N   0  0  0  0  0  0  0  0  0  0  0  0
    1.9570    5.4976    4.9266 C   0  0  0  0  0  0  0  0  0  0  0  0
    1.5133    5.6266    5.8916 H   0  0  0  0  0  0  0  0  0  0  0  0
    4.4472    1.6007    1.4165 N   0  0  0  0  0  0  0  0  0  0  0  0
    1.7531    4.4502    4.0278 C   0  0  0  0  0  0  0  0  0  0  0  0
    1.1275    3.5839    4.1122 H   0  0  0  0  0  0  0  0  0  0  0  0
    5.2885    5.4141    2.0680 C   0  0  1  0  0  3  0  0  0  0  0  0
    6.5694    5.9493    2.0872 C   0  0  0  0  0  0  0  0  0  0  0  0
    6.7200    7.0108    2.1899 H   0  0  0  0  0  0  0  0  0  0  0  0
    7.6414    5.0789    1.9759 C   0  0  0  0  0  0  0  0  0  0  0  0
    8.6518    5.4587    1.9753 H   0  0  0  0  0  0  0  0  0  0  0  0
    7.4058    3.7212    1.8487 C   0  0  0  0  0  0  0  0  0  0  0  0
    8.2291    3.0383    1.7208 H   0  0  0  0  0  0  0  0  0  0  0  0
    6.0879    3.2654    1.8637 C   0  0  0  0  0  0  0  0  0  0  0  0
    5.7236    1.8478    1.7164 C   0  0  2  0  0  3  0  0  0  0  0  0
    6.6422    0.8116    1.8737 C   0  0  0  0  0  0  0  0  0  0  0  0
    7.6632    1.0162    2.1518 H   0  0  0  0  0  0  0  0  0  0  0  0
    6.2209   -0.4947    1.6886 C   0  0  0  0  0  0  0  0  0  0  0  0
    6.9169   -1.3120    1.8056 H   0  0  0  0  0  0  0  0  0  0  0  0
    4.8973   -0.7308    1.3578 C   0  0  0  0  0  0  0  0  0  0  0  0
    4.5277   -1.7311    1.2013 H   0  0  0  0  0  0  0  0  0  0  0  0
    4.0418    0.3553    1.2419 C   0  0  0  0  0  0  0  0  0  0  0  0
    2.9904    0.2327    1.0201 H   0  0  0  0  0  0  0  0  0  0  0  0
    3.8134    8.5873    1.2583 C   0  0  0  0  0  0  0  0  0  0  0  0
    3.2739    8.3029    0.3784 H   0  0  0  0  0  0  0  0  0  0  0  0
  1 19  1  0  0  0  0
  1  6  1  0  0  0  0
  1 16  1  0  0  0  0
  1 13  1  0  0  0  0
  2  7  1  0  0  0  0
  3  4  1  6  0  0  0
  3 22  1  0  0  0  0
  3  2  1  0  0  0  0
  3 10  1  0  0  0  0
  5  1  1  0  0  0  0
  8 11  1  0  0  0  0
  9  8  1  0  0  0  0
 10 14  1  1  0  0  0
 11  7  2  0  0  0  0
 11 12  1  0  0  0  0
 13 10  1  0  0  0  0
 13 20  1  0  0  0  0
 14 15  1  0  0  0  0
 14 17  1  0  0  0  0
 16 22  1  0  0  0  0
 17 18  1  0  0  0  0
 19 30  1  0  0  0  0
 20 21  1  0  0  0  0
 20 17  2  0  0  0  0
 22 23  1  6  0  0  0
 23 24  1  0  0  0  0
 25 23  2  0  0  0  0
 26 25  1  0  0  0  0
 27 29  2  0  0  0  0
 27 25  1  0  0  0  0
 28 27  1  0  0  0  0
 29 16  1  0  0  0  0
 30 29  1  6  0  0  0
 30 31  1  0  0  0  0
 31 32  1  0  0  0  0
 33 34  1  0  0  0  0
 33 31  2  0  0  0  0
 35 33  1  0  0  0  0
 36 35  1  0  0  0  0
 37 35  2  0  0  0  0
 37 19  1  0  0  0  0
 38 37  1  0  0  0  0
 39  8  2  0  0  0  0
 39  2  1  0  0  0  0
 40 39  1  0  0  0  0
M  END
$$$$
