CSD_code = MATYEL | q = 0 | S = 0 | Stoichiometry = C19H27Cl2NSiZr | MND = 8
 OpenBabel04212202063D

 51 53  0  0  1  0  0  0  0  0999 V2000
    5.8324    5.9654    4.1006 Zr  0  0  0  0  0  0  0  0  0  0  0  0
    3.3621    7.6328    4.6538 Si  0  0  0  0  0  0  0  0  0  0  0  0
    6.5899    4.2638    2.7025 Cl  0  0  0  0  0  0  0  0  0  0  0  0
    3.9554    6.0188    4.7967 N   0  0  0  0  0  0  0  0  0  0  0  0
    5.0468    8.2129    3.9303 C   0  0  2  0  0  0  0  0  0  0  0  0
    6.8075    5.1140    6.0307 Cl  0  0  0  0  0  0  0  0  0  0  0  0
    5.5043    7.8158    2.6286 C   0  0  2  0  0  3  0  0  0  0  0  0
    6.9133    7.6352    2.6618 C   0  0  0  0  0  0  0  0  0  0  0  0
    7.3485    7.8659    4.0018 C   0  0  0  0  0  0  0  0  0  0  0  0
    6.2075    8.2278    4.7690 C   0  0  1  0  0  3  0  0  0  0  0  0
    4.6950    7.7008    1.3657 C   0  0  0  0  0  0  0  0  0  0  0  0
    7.7707    7.3469    1.4583 C   0  0  0  0  0  0  0  0  0  0  0  0
    8.7564    7.7696    4.5297 C   0  0  0  0  0  0  0  0  0  0  0  0
    6.2492    8.5769    6.2315 C   0  0  0  0  0  0  0  0  0  0  0  0
    2.8765    8.4517    6.3207 C   0  0  0  0  0  0  0  0  0  0  0  0
    1.8492    7.9436    3.5089 C   0  0  0  0  0  0  0  0  0  0  0  0
    3.2317    4.7680    4.9362 C   0  0  1  0  0  0  0  0  0  0  0  0
    2.4140    4.7526    6.2299 C   0  0  0  0  0  0  0  0  0  0  0  0
    2.4131    4.5421    3.6742 C   0  0  0  0  0  0  0  0  0  0  0  0
    1.0590    4.2402    3.6676 C   0  0  0  0  0  0  0  0  0  0  0  0
    0.3751    4.1121    2.4684 C   0  0  0  0  0  0  0  0  0  0  0  0
    1.0328    4.2800    1.2639 C   0  0  0  0  0  0  0  0  0  0  0  0
    2.3874    4.5765    1.2596 C   0  0  0  0  0  0  0  0  0  0  0  0
    3.0690    4.7095    2.4551 C   0  0  0  0  0  0  0  0  0  0  0  0
    3.6304    7.7106    1.5802 H   0  0  0  0  0  0  0  0  0  0  0  0
    4.9451    6.7810    0.8287 H   0  0  0  0  0  0  0  0  0  0  0  0
    4.9130    8.5393    0.6990 H   0  0  0  0  0  0  0  0  0  0  0  0
    8.8252    7.4870    1.6873 H   0  0  0  0  0  0  0  0  0  0  0  0
    7.5098    8.0230    0.6431 H   0  0  0  0  0  0  0  0  0  0  0  0
    7.6294    6.3216    1.1035 H   0  0  0  0  0  0  0  0  0  0  0  0
    8.7730    7.2125    5.4713 H   0  0  0  0  0  0  0  0  0  0  0  0
    9.1725    8.7631    4.7148 H   0  0  0  0  0  0  0  0  0  0  0  0
    9.4051    7.2581    3.8182 H   0  0  0  0  0  0  0  0  0  0  0  0
    5.4803    9.3081    6.4673 H   0  0  0  0  0  0  0  0  0  0  0  0
    7.2183    9.0018    6.4919 H   0  0  0  0  0  0  0  0  0  0  0  0
    6.0883    7.6879    6.8511 H   0  0  0  0  0  0  0  0  0  0  0  0
    3.4666    8.0707    7.1470 H   0  0  0  0  0  0  0  0  0  0  0  0
    1.8330    8.2575    6.5468 H   0  0  0  0  0  0  0  0  0  0  0  0
    2.9996    9.5286    6.2838 H   0  0  0  0  0  0  0  0  0  0  0  0
    1.7775    7.2239    2.7002 H   0  0  0  0  0  0  0  0  0  0  0  0
    1.8712    8.9391    3.0792 H   0  0  0  0  0  0  0  0  0  0  0  0
    0.9348    7.8627    4.0868 H   0  0  0  0  0  0  0  0  0  0  0  0
    3.9868    3.9462    5.0018 H   0  0  0  0  0  0  0  0  0  0  0  0
    3.0816    4.9859    7.0571 H   0  0  0  0  0  0  0  0  0  0  0  0
    1.9662    3.7773    6.4028 H   0  0  0  0  0  0  0  0  0  0  0  0
    1.6402    5.5149    6.1832 H   0  0  0  0  0  0  0  0  0  0  0  0
    0.5238    4.1026    4.5933 H   0  0  0  0  0  0  0  0  0  0  0  0
   -0.6798    3.8803    2.4789 H   0  0  0  0  0  0  0  0  0  0  0  0
    0.4965    4.1797    0.3324 H   0  0  0  0  0  0  0  0  0  0  0  0
    2.9108    4.7021    0.3232 H   0  0  0  0  0  0  0  0  0  0  0  0
    4.1386    4.9501    2.4577 H   0  0  0  0  0  0  0  0  0  0  0  0
  1  4  1  0  0  0  0
  1  6  1  0  0  0  0
  2  4  1  0  0  0  0
  2 15  1  0  0  0  0
  3  1  1  0  0  0  0
  4 17  1  0  0  0  0
  5  1  1  1  0  0  0
  5  2  1  0  0  0  0
  5 10  1  0  0  0  0
  7 11  1  6  0  0  0
  7  8  1  0  0  0  0
  7  5  1  0  0  0  0
  8  9  2  0  0  0  0
  9 13  1  0  0  0  0
  9 10  1  0  0  0  0
 10 14  1  6  0  0  0
 11 25  1  0  0  0  0
 12 28  1  0  0  0  0
 12  8  1  0  0  0  0
 13 32  1  0  0  0  0
 13 31  1  0  0  0  0
 14 34  1  0  0  0  0
 14 35  1  0  0  0  0
 14 36  1  0  0  0  0
 15 38  1  0  0  0  0
 15 37  1  0  0  0  0
 16 42  1  0  0  0  0
 16  2  1  0  0  0  0
 17 43  1  1  0  0  0
 17 18  1  0  0  0  0
 18 45  1  0  0  0  0
 18 44  1  0  0  0  0
 19 17  1  0  0  0  0
 20 19  1  0  0  0  0
 20 47  1  0  0  0  0
 21 48  1  0  0  0  0
 21 20  2  0  0  0  0
 22 21  1  0  0  0  0
 23 22  2  0  0  0  0
 23 24  1  0  0  0  0
 24 51  1  0  0  0  0
 24 19  2  0  0  0  0
 26 11  1  0  0  0  0
 27 11  1  0  0  0  0
 29 12  1  0  0  0  0
 30 12  1  0  0  0  0
 33 13  1  0  0  0  0
 39 15  1  0  0  0  0
 40 16  1  0  0  0  0
 41 16  1  0  0  0  0
 46 18  1  0  0  0  0
 49 22  1  0  0  0  0
 50 23  1  0  0  0  0
M  END
$$$$
