CSD_code = MAVJEB | q = 1 | S = 0 | Stoichiometry = C32H30BrN4PdSe(1+) | MND = 4
 OpenBabel04212202063D

 69 75  0  0  1  0  0  0  0  0999 V2000
   14.5355    2.6701    0.7000 C   0  0  0  0  0  0  0  0  0  0  0  0
   15.5063    2.1754    0.7230 H   0  0  0  0  0  0  0  0  0  0  0  0
   14.2018    2.8511    1.7292 H   0  0  0  0  0  0  0  0  0  0  0  0
   14.5940    3.9656   -0.0728 C   0  0  0  0  0  0  0  0  0  0  0  0
   13.6381    4.9478    0.1628 C   0  0  0  0  0  0  0  0  0  0  0  0
   12.9031    4.8152    0.9751 H   0  0  0  0  0  0  0  0  0  0  0  0
   13.6379    6.1135   -0.5842 C   0  0  0  0  0  0  0  0  0  0  0  0
   12.9064    6.8816   -0.3865 H   0  0  0  0  0  0  0  0  0  0  0  0
   14.5891    6.3009   -1.5741 C   0  0  0  0  0  0  0  0  0  0  0  0
   14.5898    7.2110   -2.1537 H   0  0  0  0  0  0  0  0  0  0  0  0
   15.5409    5.3250   -1.8144 C   0  0  0  0  0  0  0  0  0  0  0  0
   16.2846    5.4707   -2.5826 H   0  0  0  0  0  0  0  0  0  0  0  0
   15.5413    4.1588   -1.0686 C   0  0  0  0  0  0  0  0  0  0  0  0
   16.2854    3.3993   -1.2582 H   0  0  0  0  0  0  0  0  0  0  0  0
   13.8869    0.7479   -0.7988 C   0  0  0  0  0  0  0  0  0  0  0  0
   15.0902    0.1856   -1.1993 C   0  0  0  0  0  0  0  0  0  0  0  0
   16.0372    0.5520   -0.8378 H   0  0  0  0  0  0  0  0  0  0  0  0
   15.0280   -0.8760   -2.0798 C   0  0  0  0  0  0  0  0  0  0  0  0
   15.9430   -1.3404   -2.4114 H   0  0  0  0  0  0  0  0  0  0  0  0
   13.8108   -1.3673   -2.5511 C   0  0  0  0  0  0  0  0  0  0  0  0
   13.8106   -2.1995   -3.2368 H   0  0  0  0  0  0  0  0  0  0  0  0
   12.6067   -0.8165   -2.1585 C   0  0  0  0  0  0  0  0  0  0  0  0
   11.6711   -1.2076   -2.5259 H   0  0  0  0  0  0  0  0  0  0  0  0
   12.6611    0.2501   -1.2746 C   0  0  0  0  0  0  0  0  0  0  0  0
   12.2552    1.9563    0.1135 C   0  0  1  0  0  3  0  0  0  0  0  0
   10.2622    0.9689   -0.8957 C   0  0  0  0  0  0  0  0  0  0  0  0
    9.7516    0.9247    0.0820 H   0  0  0  0  0  0  0  0  0  0  0  0
   10.0251    0.0545   -1.4449 H   0  0  0  0  0  0  0  0  0  0  0  0
    9.7983    2.1847   -1.7035 C   0  0  0  0  0  0  0  0  0  0  0  0
    8.7769    2.0517   -2.0625 H   0  0  0  0  0  0  0  0  0  0  0  0
   10.4566    2.3314   -2.5642 H   0  0  0  0  0  0  0  0  0  0  0  0
    8.0180    3.7669    0.1107 C   0  0  0  0  0  0  0  0  0  0  0  0
    7.6330    4.7905    0.1382 H   0  0  0  0  0  0  0  0  0  0  0  0
    7.4081    3.1811   -0.5787 H   0  0  0  0  0  0  0  0  0  0  0  0
    7.9839    3.1669    1.5212 C   0  0  0  0  0  0  0  0  0  0  0  0
    6.9463    3.0001    1.8206 H   0  0  0  0  0  0  0  0  0  0  0  0
    8.5151    2.1981    1.5556 H   0  0  0  0  0  0  0  0  0  0  0  0
    9.9304    4.3114    2.4292 C   0  0  2  0  0  3  0  0  0  0  0  0
    7.9988    4.8656    3.4100 C   0  0  0  0  0  0  0  0  0  0  0  0
    6.6839    5.0094    3.8240 C   0  0  0  0  0  0  0  0  0  0  0  0
    5.8819    4.4315    3.3925 H   0  0  0  0  0  0  0  0  0  0  0  0
    6.4401    5.9308    4.8240 C   0  0  0  0  0  0  0  0  0  0  0  0
    5.4300    6.0709    5.1746 H   0  0  0  0  0  0  0  0  0  0  0  0
    7.4662    6.6858    5.3920 C   0  0  0  0  0  0  0  0  0  0  0  0
    7.2256    7.3942    6.1684 H   0  0  0  0  0  0  0  0  0  0  0  0
    8.7789    6.5482    4.9858 C   0  0  0  0  0  0  0  0  0  0  0  0
    9.5676    7.1366    5.4248 H   0  0  0  0  0  0  0  0  0  0  0  0
    9.0340    5.6217    3.9867 C   0  0  0  0  0  0  0  0  0  0  0  0
   11.4944    5.8427    3.5533 C   0  0  0  0  0  0  0  0  0  0  0  0
   12.2546    5.1445    3.1672 H   0  0  0  0  0  0  0  0  0  0  0  0
   11.6695    5.9808    4.6224 H   0  0  0  0  0  0  0  0  0  0  0  0
   11.5612    7.1636    2.8216 C   0  0  0  0  0  0  0  0  0  0  0  0
   11.0925    7.2562    1.5169 C   0  0  0  0  0  0  0  0  0  0  0  0
   10.7017    6.3726    1.0125 H   0  0  0  0  0  0  0  0  0  0  0  0
   11.1199    8.4654    0.8458 C   0  0  0  0  0  0  0  0  0  0  0  0
   10.7448    8.5290   -0.1652 H   0  0  0  0  0  0  0  0  0  0  0  0
   11.6278    9.5920    1.4712 C   0  0  0  0  0  0  0  0  0  0  0  0
   11.6500   10.5353    0.9482 H   0  0  0  0  0  0  0  0  0  0  0  0
   12.1061    9.5038    2.7671 C   0  0  0  0  0  0  0  0  0  0  0  0
   12.5044   10.3785    3.2571 H   0  0  0  0  0  0  0  0  0  0  0  0
   12.0667    8.2962    3.4427 C   0  0  0  0  0  0  0  0  0  0  0  0
   12.4359    8.2325    4.4556 H   0  0  0  0  0  0  0  0  0  0  0  0
   13.5818    1.7885    0.0551 N   0  0  0  0  0  0  0  0  0  0  0  0
   11.6849    1.0221   -0.6759 N   0  0  0  0  0  0  0  0  0  0  0  0
   10.2006    5.2337    3.3581 N   0  0  0  0  0  0  0  0  0  0  0  0
    8.6042    4.0652    2.4610 N   0  0  0  0  0  0  0  0  0  0  0  0
    9.8316    3.8826   -0.6957 Se  0  0  0  0  0  0  0  0  0  0  0  0
   11.8866    2.0839    3.2059 Br  0  0  0  0  0  0  0  0  0  0  0  0
   11.1279    3.2159    1.2267 Pd  0  0  0  0  0  0  0  0  0  0  0  0
  1  2  1  0  0  0  0
  1  3  1  0  0  0  0
  4  5  1  0  0  0  0
  4  1  1  0  0  0  0
  5  6  1  0  0  0  0
  7  8  1  0  0  0  0
  7  5  2  0  0  0  0
  9  7  1  0  0  0  0
 10  9  1  0  0  0  0
 11  9  2  0  0  0  0
 11 13  1  0  0  0  0
 12 11  1  0  0  0  0
 13  4  2  0  0  0  0
 14 13  1  0  0  0  0
 15 63  1  0  0  0  0
 16 17  1  0  0  0  0
 16 15  1  0  0  0  0
 18 16  2  0  0  0  0
 19 18  1  0  0  0  0
 20 22  2  0  0  0  0
 20 18  1  0  0  0  0
 21 20  1  0  0  0  0
 22 24  1  0  0  0  0
 23 22  1  0  0  0  0
 24 15  2  0  0  0  0
 24 64  1  0  0  0  0
 25 64  1  1  0  0  0
 25 69  1  0  0  0  0
 26 64  1  0  0  0  0
 26 27  1  0  0  0  0
 28 26  1  0  0  0  0
 29 26  1  0  0  0  0
 29 67  1  0  0  0  0
 30 29  1  0  0  0  0
 31 29  1  0  0  0  0
 32 33  1  0  0  0  0
 32 35  1  0  0  0  0
 34 32  1  0  0  0  0
 35 37  1  0  0  0  0
 35 36  1  0  0  0  0
 35 66  1  0  0  0  0
 38 69  1  1  0  0  0
 38 66  1  0  0  0  0
 38 65  1  0  0  0  0
 39 40  2  0  0  0  0
 39 48  1  0  0  0  0
 40 42  1  0  0  0  0
 41 40  1  0  0  0  0
 42 43  1  0  0  0  0
 42 44  2  0  0  0  0
 44 45  1  0  0  0  0
 46 44  1  0  0  0  0
 46 47  1  0  0  0  0
 48 46  2  0  0  0  0
 49 51  1  0  0  0  0
 50 49  1  0  0  0  0
 52 61  1  0  0  0  0
 52 49  1  0  0  0  0
 53 52  2  0  0  0  0
 54 53  1  0  0  0  0
 55 57  2  0  0  0  0
 55 53  1  0  0  0  0
 56 55  1  0  0  0  0
 57 59  1  0  0  0  0
 58 57  1  0  0  0  0
 59 60  1  0  0  0  0
 59 61  2  0  0  0  0
 61 62  1  0  0  0  0
 63 25  1  0  0  0  0
 63  1  1  0  0  0  0
 65 49  1  0  0  0  0
 65 48  1  0  0  0  0
 66 39  1  0  0  0  0
 67 32  1  0  0  0  0
 69 68  1  0  0  0  0
M  END
$$$$
