CSD_code = MAVTOU | q = 0 | S = 0 | Stoichiometry = C25H21ClN2Pt | MND = 4
 OpenBabel04212202063D

 50 55  0  0  0  0  0  0  0  0999 V2000
    6.7259    2.3923   11.9563 C   0  0  0  0  0  0  0  0  0  0  0  0
    6.8514    1.4367   10.9525 C   0  0  0  0  0  0  0  0  0  0  0  0
    6.1846    1.4716   10.1055 H   0  0  0  0  0  0  0  0  0  0  0  0
    7.8221    0.4566   11.0468 C   0  0  0  0  0  0  0  0  0  0  0  0
    7.9258   -0.2881   10.2721 H   0  0  0  0  0  0  0  0  0  0  0  0
    8.6592    0.4487   12.1538 C   0  0  0  0  0  0  0  0  0  0  0  0
    9.4293   -0.2969   12.2666 H   0  0  0  0  0  0  0  0  0  0  0  0
    8.4911    1.4222   13.1227 C   0  0  0  0  0  3  0  0  0  0  0  0
    9.1227    1.4526   14.0025 H   0  0  0  0  0  0  0  0  0  0  0  0
    5.8683    4.2725   13.1001 C   0  0  0  0  0  0  0  0  0  0  0  0
    5.0513    5.3759   13.3468 C   0  0  0  0  0  0  0  0  0  0  0  0
    4.0708    5.6890   12.4095 C   0  0  0  0  0  0  0  0  0  0  0  0
    3.4109    6.5359   12.5374 H   0  0  0  0  0  0  0  0  0  0  0  0
    3.9347    4.8995   11.2679 C   0  0  0  0  0  0  0  0  0  0  0  0
    4.7576    3.7975   11.0372 C   0  0  0  0  0  0  0  0  0  0  0  0
    4.6054    3.2138   10.1399 H   0  0  0  0  0  0  0  0  0  0  0  0
    5.7444    3.4732   11.9637 C   0  0  0  0  0  0  0  0  0  0  0  0
    6.8185    5.9701   16.4485 C   0  0  0  0  0  0  0  0  0  0  0  0
    7.6423    5.4689   16.9428 H   0  0  0  0  0  0  0  0  0  0  0  0
    6.2187    7.0844   17.0081 C   0  0  0  0  0  0  0  0  0  0  0  0
    6.5697    7.4687   17.9519 H   0  0  0  0  0  0  0  0  0  0  0  0
    5.1669    7.6867   16.3320 C   0  0  0  0  0  0  0  0  0  0  0  0
    4.6764    8.5575   16.7401 H   0  0  0  0  0  0  0  0  0  0  0  0
    4.7571    7.1516   15.1246 C   0  0  0  0  0  0  0  0  0  0  0  0
    3.9432    7.5960   14.5738 H   0  0  0  0  0  0  0  0  0  0  0  0
    5.3957    6.0288   14.6069 C   0  0  0  0  0  0  0  0  0  0  0  0
    2.8910    5.2440   10.2711 C   0  0  0  0  0  0  0  0  0  0  0  0
    1.5650    4.8765   10.4954 C   0  0  0  0  0  0  0  0  0  0  0  0
    0.6014    5.2134    9.5556 C   0  0  0  0  0  0  0  0  0  0  0  0
   -0.4270    4.9287    9.7300 H   0  0  0  0  0  0  0  0  0  0  0  0
    0.9306    5.9053    8.4006 C   0  0  0  0  0  0  0  0  0  0  0  0
    2.2575    6.2573    8.1917 C   0  0  0  0  0  0  0  0  0  0  0  0
    2.5260    6.7948    7.2927 H   0  0  0  0  0  0  0  0  0  0  0  0
    3.2430    5.9359    9.1108 C   0  0  0  0  0  0  0  0  0  0  0  0
    1.1890    4.1247   11.7376 C   0  0  0  0  0  0  0  0  0  0  0  0
    1.8737    3.2958   11.9083 H   0  0  0  0  0  0  0  0  0  0  0  0
    0.1763    3.7367   11.6612 H   0  0  0  0  0  0  0  0  0  0  0  0
    1.2417    4.7771   12.6087 H   0  0  0  0  0  0  0  0  0  0  0  0
    4.6716    6.3238    8.8684 C   0  0  0  0  0  0  0  0  0  0  0  0
    5.2772    5.4407    8.6657 H   0  0  0  0  0  0  0  0  0  0  0  0
    5.0918    6.8132    9.7457 H   0  0  0  0  0  0  0  0  0  0  0  0
    4.7489    6.9959    8.0175 H   0  0  0  0  0  0  0  0  0  0  0  0
   -0.1169    6.2834    7.3971 C   0  0  0  0  0  0  0  0  0  0  0  0
   -0.2772    7.3615    7.4104 H   0  0  0  0  0  0  0  0  0  0  0  0
   -1.0622    5.7935    7.6165 H   0  0  0  0  0  0  0  0  0  0  0  0
    0.1969    6.0069    6.3920 H   0  0  0  0  0  0  0  0  0  0  0  0
    7.5603    2.3678   13.0400 N   0  0  0  0  0  0  0  0  0  0  0  0
    6.4306    5.4492   15.2886 N   0  0  0  0  0  0  0  0  0  0  0  0
    8.8668    3.3026   15.9331 Cl  0  0  0  0  0  0  0  0  0  0  0  0
    7.2268    3.8336   14.3837 Pt  0  0  1  0  0  0  0  0  0  0  0  0
  1 17  1  0  0  0  0
  1 47  1  0  0  0  0
  2  4  1  0  0  0  0
  2  1  2  0  0  0  0
  3  2  1  0  0  0  0
  4  6  2  0  0  0  0
  5  4  1  0  0  0  0
  6  7  1  0  0  0  0
  6  8  1  0  0  0  0
  8  9  1  0  0  0  0
 10 11  1  0  0  0  0
 10 50  2  0  0  0  0
 11 26  2  0  0  0  0
 12 13  1  0  0  0  0
 12 11  1  0  0  0  0
 14 12  2  0  0  0  0
 15 14  1  0  0  0  0
 15 17  2  0  0  0  0
 16 15  1  0  0  0  0
 17 10  1  0  0  0  0
 18 19  1  0  0  0  0
 18 20  2  0  0  0  0
 20 21  1  0  0  0  0
 22 23  1  0  0  0  0
 22 20  1  0  0  0  0
 24 22  2  0  0  0  0
 25 24  1  0  0  0  0
 26 24  1  0  0  0  0
 26 48  1  0  0  0  0
 27 28  1  0  0  0  0
 27 14  1  0  0  0  0
 28 35  1  0  0  0  0
 29 30  1  0  0  0  0
 29 28  2  0  0  0  0
 31 29  1  0  0  0  0
 32 31  2  0  0  0  0
 32 34  1  0  0  0  0
 33 32  1  0  0  0  0
 34 27  2  0  0  0  0
 35 36  1  0  0  0  0
 35 38  1  0  0  0  0
 37 35  1  0  0  0  0
 39 34  1  0  0  0  0
 39 41  1  0  0  0  0
 40 39  1  0  0  0  0
 42 39  1  0  0  0  0
 43 44  1  0  0  0  0
 43 45  1  0  0  0  0
 43 31  1  0  0  0  0
 46 43  1  0  0  0  0
 47  8  1  0  0  0  0
 47 50  1  0  0  0  0
 48 18  1  0  0  0  0
 50 48  1  0  0  0  0
 50 49  1  1  0  0  0
M  END
$$$$
