CSD_code = MAVWIR | q = 0 | S = 0 | Stoichiometry = C17H20Br2N2Ni | MND = 4
 OpenBabel04212202063D

 42 44  0  0  1  0  0  0  0  0999 V2000
    7.6588   10.0428    0.6422 Br  0  0  0  0  0  0  0  0  0  0  0  0
   11.8022    9.5539   -0.4555 Br  0  0  0  0  0  0  0  0  0  0  0  0
   10.1133    7.6424    3.0465 C   0  0  0  0  0  0  0  0  0  0  0  0
   11.2399    7.2408    3.7574 C   0  0  0  0  0  0  0  0  0  0  0  0
   12.0801    6.8052    3.2328 H   0  0  0  0  0  0  0  0  0  0  0  0
   11.3029    7.4183    5.1276 C   0  0  0  0  0  0  0  0  0  0  0  0
   12.1847    7.1055    5.6670 H   0  0  0  0  0  0  0  0  0  0  0  0
   10.2415    7.9964    5.8022 C   0  0  0  0  0  0  0  0  0  0  0  0
   10.2901    8.1342    6.8718 H   0  0  0  0  0  0  0  0  0  0  0  0
    9.1272    8.4160    5.0953 C   0  0  0  0  0  0  0  0  0  0  0  0
    8.3063    8.8911    5.6109 H   0  0  0  0  0  0  0  0  0  0  0  0
    9.0604    8.2470    3.7245 C   0  0  0  0  0  0  0  0  0  0  0  0
    8.2056    8.6138    3.1799 H   0  0  0  0  0  0  0  0  0  0  0  0
    9.3183    6.3674    1.0587 C   0  0  0  0  0  0  0  0  0  0  0  0
    7.9025    6.3017    1.6456 C   0  0  0  0  0  0  0  0  0  0  0  0
    7.3729    7.2334    1.4634 H   0  0  0  0  0  0  0  0  0  0  0  0
    7.9524    6.1256    2.7163 H   0  0  0  0  0  0  0  0  0  0  0  0
    7.3443    5.4904    1.1869 H   0  0  0  0  0  0  0  0  0  0  0  0
   10.0644    5.0544    1.3290 C   0  0  0  0  0  0  0  0  0  0  0  0
    9.4919    4.1905    1.0057 H   0  0  0  0  0  0  0  0  0  0  0  0
   10.2356    4.9636    2.3999 H   0  0  0  0  0  0  0  0  0  0  0  0
   11.0280    5.0462    0.8221 H   0  0  0  0  0  0  0  0  0  0  0  0
    9.1546    6.6242   -0.4334 C   0  0  1  0  0  3  0  0  0  0  0  0
    8.8511    5.4681   -1.3272 C   0  0  0  0  0  0  0  0  0  0  0  0
    8.4126    5.8064   -2.2631 H   0  0  0  0  0  0  0  0  0  0  0  0
    8.1714    4.7742   -0.8407 H   0  0  0  0  0  0  0  0  0  0  0  0
    9.7738    4.9341   -1.5538 H   0  0  0  0  0  0  0  0  0  0  0  0
    9.0567    8.1442   -2.2459 C   0  0  0  0  0  0  0  0  0  0  0  0
    7.8384    8.6590   -2.6863 C   0  0  0  0  0  0  0  0  0  0  0  0
    7.0313    8.8043   -1.9839 H   0  0  0  0  0  0  0  0  0  0  0  0
    7.6810    8.9902   -4.0193 C   0  0  0  0  0  0  0  0  0  0  0  0
    6.7392    9.3956   -4.3551 H   0  0  0  0  0  0  0  0  0  0  0  0
    8.7235    8.8117   -4.9139 C   0  0  0  0  0  0  0  0  0  0  0  0
    8.5984    9.0850   -5.9503 H   0  0  0  0  0  0  0  0  0  0  0  0
    9.9300    8.2896   -4.4755 C   0  0  0  0  0  0  0  0  0  0  0  0
   10.7460    8.1508   -5.1678 H   0  0  0  0  0  0  0  0  0  0  0  0
   10.1016    7.9480   -3.1480 C   0  0  0  0  0  0  0  0  0  0  0  0
   11.0458    7.5608   -2.7956 H   0  0  0  0  0  0  0  0  0  0  0  0
   10.0860    7.5007    1.6241 N   0  0  0  0  0  4  0  0  0  0  0  0
    9.2330    7.8193   -0.8777 N   0  0  0  0  0  0  0  0  0  0  0  0
   11.0580    7.3639    1.3272 H   0  0  0  0  0  0  0  0  0  0  0  0
    9.6552    9.2751    0.0794 Ni  0  0  0  0  0  0  0  0  0  0  0  0
  2 42  1  0  0  0  0
  3 12  2  0  0  0  0
  3  4  1  0  0  0  0
  4  6  2  0  0  0  0
  5  4  1  0  0  0  0
  6  7  1  0  0  0  0
  6  8  1  0  0  0  0
  8  9  1  0  0  0  0
 10 11  1  0  0  0  0
 10  8  2  0  0  0  0
 12 10  1  0  0  0  0
 13 12  1  0  0  0  0
 14 19  1  0  0  0  0
 14 39  1  0  0  0  0
 14 15  1  0  0  0  0
 15 17  1  0  0  0  0
 16 15  1  0  0  0  0
 18 15  1  0  0  0  0
 19 21  1  0  0  0  0
 20 19  1  0  0  0  0
 22 19  1  0  0  0  0
 23 24  1  1  0  0  0
 23 14  1  0  0  0  0
 24 26  1  0  0  0  0
 25 24  1  0  0  0  0
 27 24  1  0  0  0  0
 28 40  1  0  0  0  0
 29 28  1  0  0  0  0
 29 30  1  0  0  0  0
 31 29  2  0  0  0  0
 32 31  1  0  0  0  0
 33 35  2  0  0  0  0
 33 31  1  0  0  0  0
 34 33  1  0  0  0  0
 35 37  1  0  0  0  0
 36 35  1  0  0  0  0
 37 38  1  0  0  0  0
 37 28  2  0  0  0  0
 39  3  1  0  0  0  0
 40 23  1  0  0  0  0
 40 42  1  0  0  0  0
 41 39  1  0  0  0  0
 42  1  1  0  0  0  0
 42 39  1  0  0  0  0
M  END
$$$$
