CSD_code = MAWFAR | q = 0 | S = 0 | Stoichiometry = C4H6Cl4N2Ru | MND = 6
 OpenBabel04212202063D

 17 16  0  0  0  0  0  0  0  0999 V2000
   -0.6938   -0.0170    2.6990 Ru  0  0  0  0  0  0  0  0  0  0  0  0
    0.0417    1.6232    4.1772 Cl  0  0  0  0  0  0  0  0  0  0  0  0
    0.0454   -1.6667    4.1656 Cl  0  0  0  0  0  0  0  0  0  0  0  0
   -1.4279   -1.6593    1.2235 Cl  0  0  0  0  0  0  0  0  0  0  0  0
   -1.4319    1.6326    1.2341 Cl  0  0  0  0  0  0  0  0  0  0  0  0
   -2.4205   -0.0237    3.5652 N   0  0  0  0  0  2  0  0  0  0  0  0
    1.0353   -0.0122    1.8376 N   0  0  0  0  0  2  0  0  0  0  0  0
   -3.4393   -0.0330    4.0891 C   0  0  0  0  0  2  0  0  0  0  0  0
   -4.7075   -0.0420    4.7404 C   0  0  0  0  0  0  0  0  0  0  0  0
   -5.2341    0.8870    4.5230 H   0  0  0  0  0  0  0  0  0  0  0  0
   -4.5616   -0.1341    5.8165 H   0  0  0  0  0  0  0  0  0  0  0  0
   -5.2952   -0.8860    4.3799 H   0  0  0  0  0  0  0  0  0  0  0  0
    2.0674   -0.0145    1.3400 C   0  0  0  0  0  2  0  0  0  0  0  0
    3.3509   -0.0171    0.7196 C   0  0  0  0  0  0  0  0  0  0  0  0
    3.8117    0.9638    0.8347 H   0  0  0  0  0  0  0  0  0  0  0  0
    3.2420   -0.2457   -0.3404 H   0  0  0  0  0  0  0  0  0  0  0  0
    3.9802   -0.7716    1.1914 H   0  0  0  0  0  0  0  0  0  0  0  0
  1  6  1  0  0  0  0
  1  3  1  0  0  0  0
  1  2  1  0  0  0  0
  4  1  1  0  0  0  0
  5  1  1  0  0  0  0
  6  8  1  0  0  0  0
  7  1  1  0  0  0  0
  8  9  1  0  0  0  0
  9 11  1  0  0  0  0
 10  9  1  0  0  0  0
 12  9  1  0  0  0  0
 13  7  1  0  0  0  0
 14 15  1  0  0  0  0
 14 17  1  0  0  0  0
 14 13  1  0  0  0  0
 16 14  1  0  0  0  0
M  END
$$$$
