CSD_code = MAXCIX | q = 0 | S = 0 | Stoichiometry = C24H22Cl2N2P2Pd | MND = 4
 OpenBabel04212202063D

 53 57  0  0  0  0  0  0  0  0999 V2000
    0.9537    2.9047    5.3626 Pd  0  0  0  0  0  0  0  0  0  0  0  0
    2.3442    1.4171    4.3583 Cl  0  0  0  0  0  0  0  0  0  0  0  0
   -0.7886    2.3544    4.0178 Cl  0  0  0  0  0  0  0  0  0  0  0  0
    2.6640    3.6811    6.5686 P   0  0  2  0  0  4  0  0  0  0  0  0
   -0.3135    4.2798    6.6125 P   0  0  2  0  0  4  0  0  0  0  0  0
    4.2009    5.8468    6.1021 N   0  0  0  0  0  0  0  0  0  0  0  0
   -1.7313    6.5327    6.7515 N   0  0  0  0  0  0  0  0  0  0  0  0
    3.3715    4.9906    5.5178 C   0  0  0  0  0  0  0  0  0  0  0  0
    2.9907    5.0828    4.1804 C   0  0  0  0  0  0  0  0  0  0  0  0
    2.2971    4.3496    3.7493 H   0  0  0  0  0  0  0  0  0  0  0  0
    3.5217    6.1144    3.4231 C   0  0  0  0  0  0  0  0  0  0  0  0
    3.2565    6.2261    2.3819 H   0  0  0  0  0  0  0  0  0  0  0  0
    4.3996    7.0023    4.0279 C   0  0  0  0  0  0  0  0  0  0  0  0
    4.8354    7.8184    3.4727 H   0  0  0  0  0  0  0  0  0  0  0  0
    4.7056    6.8237    5.3694 C   0  0  0  0  0  0  0  0  0  0  0  0
    5.3817    7.4936    5.8857 H   0  0  0  0  0  0  0  0  0  0  0  0
    4.0478    2.7420    7.2570 C   0  0  0  0  0  0  0  0  0  0  0  0
    5.2725    3.3197    7.5703 C   0  0  0  0  0  0  0  0  0  0  0  0
    5.4327    4.3706    7.3781 H   0  0  0  0  0  0  0  0  0  0  0  0
    6.2722    2.5327    8.1126 C   0  0  0  0  0  0  0  0  0  0  0  0
    7.2292    2.9720    8.3535 H   0  0  0  0  0  0  0  0  0  0  0  0
    6.0530    1.1833    8.3425 C   0  0  0  0  0  0  0  0  0  0  0  0
    6.8418    0.5749    8.7598 H   0  0  0  0  0  0  0  0  0  0  0  0
    4.8301    0.6104    8.0316 C   0  0  0  0  0  0  0  0  0  0  0  0
    4.6654   -0.4425    8.2052 H   0  0  0  0  0  0  0  0  0  0  0  0
    3.8249    1.3879    7.4873 C   0  0  0  0  0  0  0  0  0  0  0  0
    2.8691    0.9549    7.2111 H   0  0  0  0  0  0  0  0  0  0  0  0
    2.0376    4.6659    8.0049 C   0  0  0  0  0  0  0  0  0  0  0  0
    1.8142    3.9534    8.8077 H   0  0  0  0  0  0  0  0  0  0  0  0
    2.8250    5.3460    8.3424 H   0  0  0  0  0  0  0  0  0  0  0  0
    0.7766    5.4126    7.5845 C   0  0  0  0  0  0  0  0  0  0  0  0
    1.0245    6.2486    6.9214 H   0  0  0  0  0  0  0  0  0  0  0  0
    0.2286    5.8113    8.4414 H   0  0  0  0  0  0  0  0  0  0  0  0
   -1.0150    3.1835    7.8864 C   0  0  0  0  0  0  0  0  0  0  0  0
   -0.7320    1.8200    7.8256 C   0  0  0  0  0  0  0  0  0  0  0  0
   -0.1265    1.4202    6.9968 H   0  0  0  0  0  0  0  0  0  0  0  0
   -1.2366    0.9688    8.7930 C   0  0  0  0  0  0  0  0  0  0  0  0
   -1.0204   -0.0881    8.7471 H   0  0  0  0  0  0  0  0  0  0  0  0
   -2.0252    1.4716    9.8156 C   0  0  0  0  0  0  0  0  0  0  0  0
   -2.4205    0.8054   10.5680 H   0  0  0  0  0  0  0  0  0  0  0  0
   -2.3164    2.8259    9.8718 C   0  0  0  0  0  0  0  0  0  0  0  0
   -2.9392    3.2119   10.6654 H   0  0  0  0  0  0  0  0  0  0  0  0
   -1.8146    3.6835    8.9103 C   0  0  0  0  0  0  0  0  0  0  0  0
   -2.0443    4.7401    8.9425 H   0  0  0  0  0  0  0  0  0  0  0  0
   -1.7275    5.3324    6.1854 C   0  0  0  0  0  0  0  0  0  0  0  0
   -2.7225    4.8750    5.3278 C   0  0  0  0  0  0  0  0  0  0  0  0
   -2.6308    3.8942    4.8809 H   0  0  0  0  0  0  0  0  0  0  0  0
   -3.7808    5.7263    5.0598 C   0  0  0  0  0  0  0  0  0  0  0  0
   -4.5767    5.4193    4.3974 H   0  0  0  0  0  0  0  0  0  0  0  0
   -3.7984    6.9806    5.6539 C   0  0  0  0  0  0  0  0  0  0  0  0
   -4.6056    7.6726    5.4698 H   0  0  0  0  0  0  0  0  0  0  0  0
   -2.7484    7.3347    6.4883 C   0  0  0  0  0  0  0  0  0  0  0  0
   -2.7152    8.3036    6.9706 H   0  0  0  0  0  0  0  0  0  0  0  0
  1  4  1  0  0  0  0
  1  5  1  0  0  0  0
  2  1  1  0  0  0  0
  3  1  1  0  0  0  0
  4  8  1  6  0  0  0
  4 17  1  0  0  0  0
  4 28  1  0  0  0  0
  5 45  1  6  0  0  0
  5 31  1  0  0  0  0
  5 34  1  0  0  0  0
  8  6  1  0  0  0  0
  9  8  2  0  0  0  0
 10  9  1  0  0  0  0
 11 13  2  0  0  0  0
 11  9  1  0  0  0  0
 12 11  1  0  0  0  0
 13 15  1  0  0  0  0
 14 13  1  0  0  0  0
 15 16  1  0  0  0  0
 15  6  2  0  0  0  0
 17 26  2  0  0  0  0
 17 18  1  0  0  0  0
 18 20  2  0  0  0  0
 19 18  1  0  0  0  0
 20 22  1  0  0  0  0
 20 21  1  0  0  0  0
 22 23  1  0  0  0  0
 24 25  1  0  0  0  0
 24 22  2  0  0  0  0
 26 24  1  0  0  0  0
 27 26  1  0  0  0  0
 28 30  1  0  0  0  0
 28 29  1  0  0  0  0
 31 28  1  0  0  0  0
 31 33  1  0  0  0  0
 32 31  1  0  0  0  0
 34 43  1  0  0  0  0
 35 34  2  0  0  0  0
 35 37  1  0  0  0  0
 36 35  1  0  0  0  0
 37 39  2  0  0  0  0
 38 37  1  0  0  0  0
 39 41  1  0  0  0  0
 39 40  1  0  0  0  0
 41 42  1  0  0  0  0
 43 44  1  0  0  0  0
 43 41  2  0  0  0  0
 45  7  2  0  0  0  0
 46 45  1  0  0  0  0
 47 46  1  0  0  0  0
 48 46  2  0  0  0  0
 48 50  1  0  0  0  0
 49 48  1  0  0  0  0
 50 52  2  0  0  0  0
 51 50  1  0  0  0  0
 52  7  1  0  0  0  0
 52 53  1  0  0  0  0
M  END
$$$$
