CSD_code = MAXVIS | q = 0 | S = 0 | Stoichiometry = C21H28Cl2O5RuS3 | MND = 6
 OpenBabel04212202063D

 60 62  0  0  0  0  0  0  0  0999 V2000
   28.1465    1.7845   -0.9602 Ru  0  0  0  0  0  0  0  0  0  0  0  0
   29.9579    0.5126   -0.2257 Cl  0  0  0  0  0  0  0  0  0  0  0  0
   33.2117    9.9563   -5.6319 Cl  0  0  0  0  0  0  0  0  0  0  0  0
   26.7133    0.2264   -0.1557 S   0  0  0  0  0  0  0  0  0  0  0  0
   28.4737    0.7256   -2.9436 S   0  0  0  0  0  0  0  0  0  0  0  0
   26.4872    3.1318   -1.7201 S   0  0  0  0  0  0  0  0  0  0  0  0
   28.0022    2.6679    0.9379 O   0  0  0  0  0  0  0  0  0  0  0  0
   29.4148    3.3205   -1.5528 O   0  0  0  0  0  0  0  0  0  0  0  0
   26.1800   -0.7346   -1.1061 O   0  0  0  0  0  1  0  0  0  0  0  0
   27.5937    1.1186   -4.0354 O   0  0  0  0  0  1  0  0  0  0  0  0
   25.1390    2.5926   -1.7382 O   0  0  0  0  0  1  0  0  0  0  0  0
   29.0657    3.1922    1.4391 C   0  0  0  0  0  0  0  0  0  0  0  0
   29.1986    3.1628    2.8528 C   0  0  0  0  0  0  0  0  0  0  0  0
   28.4111    2.6681    3.4025 H   0  0  0  0  0  0  0  0  0  0  0  0
   30.2824    3.6904    3.4946 C   0  0  0  0  0  0  0  0  0  0  0  0
   30.3591    3.6218    4.5700 H   0  0  0  0  0  0  0  0  0  0  0  0
   31.3050    4.2986    2.7610 C   0  0  0  0  0  0  0  0  0  0  0  0
   32.1801    4.6794    3.2642 H   0  0  0  0  0  0  0  0  0  0  0  0
   31.1910    4.3973    1.4004 C   0  0  0  0  0  0  0  0  0  0  0  0
   32.0035    4.8349    0.8400 H   0  0  0  0  0  0  0  0  0  0  0  0
   30.0834    3.8814    0.6974 C   0  0  0  0  0  0  0  0  0  0  0  0
   30.0221    4.0617   -0.7366 C   0  0  0  0  0  0  0  0  0  0  0  0
   30.6843    5.2408   -1.3024 C   0  0  0  0  0  0  0  0  0  0  0  0
   31.0212    5.9937   -0.6099 H   0  0  0  0  0  0  0  0  0  0  0  0
   30.8134    5.4029   -2.6312 C   0  0  0  0  0  3  0  0  0  0  0  0
   30.4455    4.6070   -3.2686 H   0  0  0  0  0  0  0  0  0  0  0  0
   31.4028    6.5273   -3.3224 C   0  0  0  0  0  0  0  0  0  0  0  0
   31.9554    7.6288   -2.6598 C   0  0  0  0  0  0  0  0  0  0  0  0
   31.9558    7.6660   -1.5821 H   0  0  0  0  0  0  0  0  0  0  0  0
   32.5089    8.6776   -3.3634 C   0  0  0  0  0  0  0  0  0  0  0  0
   32.9342    9.5218   -2.8437 H   0  0  0  0  0  0  0  0  0  0  0  0
   32.5195    8.6448   -4.7514 C   0  0  0  0  0  0  0  0  0  0  0  0
   31.9791    7.5650   -5.4348 C   0  0  0  0  0  0  0  0  0  0  0  0
   31.9931    7.5479   -6.5132 H   0  0  0  0  0  0  0  0  0  0  0  0
   31.4288    6.5203   -4.7218 C   0  0  0  0  0  0  0  0  0  0  0  0
   31.0088    5.6797   -5.2547 H   0  0  0  0  0  0  0  0  0  0  0  0
   25.3162    0.9345    0.7585 C   0  0  0  0  0  0  0  0  0  0  0  0
   24.6911    1.4474    0.0349 H   0  0  0  0  0  0  0  0  0  0  0  0
   25.7329    1.6326    1.4762 H   0  0  0  0  0  0  0  0  0  0  0  0
   24.7680    0.1343    1.2410 H   0  0  0  0  0  0  0  0  0  0  0  0
   27.4161   -0.7314    1.2218 C   0  0  0  0  0  0  0  0  0  0  0  0
   26.6551   -1.3940    1.6171 H   0  0  0  0  0  0  0  0  0  0  0  0
   27.7593   -0.0154    1.9602 H   0  0  0  0  0  0  0  0  0  0  0  0
   28.2607   -1.2962    0.8409 H   0  0  0  0  0  0  0  0  0  0  0  0
   28.5581   -1.0832   -2.9326 C   0  0  0  0  0  0  0  0  0  0  0  0
   27.5860   -1.4450   -2.6126 H   0  0  0  0  0  0  0  0  0  0  0  0
   29.3267   -1.3620   -2.2203 H   0  0  0  0  0  0  0  0  0  0  0  0
   28.7861   -1.4220   -3.9359 H   0  0  0  0  0  0  0  0  0  0  0  0
   30.1725    1.0346   -3.5271 C   0  0  0  0  0  0  0  0  0  0  0  0
   30.3237    0.5248   -4.4711 H   0  0  0  0  0  0  0  0  0  0  0  0
   30.8457    0.6755   -2.7561 H   0  0  0  0  0  0  0  0  0  0  0  0
   30.2820    2.1069   -3.6502 H   0  0  0  0  0  0  0  0  0  0  0  0
   26.7696    3.9202   -3.3311 C   0  0  0  0  0  0  0  0  0  0  0  0
   26.8131    3.1197   -4.0634 H   0  0  0  0  0  0  0  0  0  0  0  0
   27.7157    4.4476   -3.2815 H   0  0  0  0  0  0  0  0  0  0  0  0
   25.9433    4.5892   -3.5390 H   0  0  0  0  0  0  0  0  0  0  0  0
   26.3942    4.6722   -0.7378 C   0  0  0  0  0  0  0  0  0  0  0  0
   25.5404    5.2488   -1.0735 H   0  0  0  0  0  0  0  0  0  0  0  0
   27.3216    5.2182   -0.8709 H   0  0  0  0  0  0  0  0  0  0  0  0
   26.2749    4.3860    0.3024 H   0  0  0  0  0  0  0  0  0  0  0  0
  1  2  1  0  0  0  0
  1  4  1  0  0  0  0
  1  7  1  0  0  0  0
  3 32  1  0  0  0  0
  4 37  1  0  0  0  0
  4 41  1  0  0  0  0
  5 45  1  0  0  0  0
  5  1  1  0  0  0  0
  6  1  1  0  0  0  0
  6 57  1  0  0  0  0
  7 12  1  0  0  0  0
  8  1  1  0  0  0  0
  8 22  1  0  0  0  0
  9  4  1  0  0  0  0
 10  5  1  0  0  0  0
 11  6  1  0  0  0  0
 12 13  1  0  0  0  0
 13 14  1  0  0  0  0
 13 15  2  0  0  0  0
 15 16  1  0  0  0  0
 17 18  1  0  0  0  0
 17 15  1  0  0  0  0
 19 17  2  0  0  0  0
 20 19  1  0  0  0  0
 21 19  1  0  0  0  0
 21 12  2  0  0  0  0
 22 21  1  0  0  0  0
 23 22  2  0  0  0  0
 23 24  1  0  0  0  0
 25 23  1  0  0  0  0
 26 25  1  0  0  0  0
 27 28  1  0  0  0  0
 27 25  1  0  0  0  0
 28 29  1  0  0  0  0
 30 31  1  0  0  0  0
 30 28  2  0  0  0  0
 32 30  1  0  0  0  0
 33 32  2  0  0  0  0
 33 35  1  0  0  0  0
 34 33  1  0  0  0  0
 35 27  2  0  0  0  0
 36 35  1  0  0  0  0
 37 40  1  0  0  0  0
 37 39  1  0  0  0  0
 38 37  1  0  0  0  0
 41 42  1  0  0  0  0
 41 43  1  0  0  0  0
 44 41  1  0  0  0  0
 45 46  1  0  0  0  0
 45 47  1  0  0  0  0
 48 45  1  0  0  0  0
 49  5  1  0  0  0  0
 49 51  1  0  0  0  0
 50 49  1  0  0  0  0
 52 49  1  0  0  0  0
 53 55  1  0  0  0  0
 53  6  1  0  0  0  0
 54 53  1  0  0  0  0
 56 53  1  0  0  0  0
 57 60  1  0  0  0  0
 58 57  1  0  0  0  0
 59 57  1  0  0  0  0
M  END
$$$$
