CSD_code = MAXYIV | q = 0 | S = 0 | Stoichiometry = C16H22CuIN6 | MND = 4
 OpenBabel04212202063D

 46 50  0  0  1  0  0  0  0  0999 V2000
   -4.2395    1.8449   11.2009 I   0  0  0  0  0  0  0  0  0  0  0  0
   -3.9286    2.4209   13.5845 Cu  0  0  1  0  0  0  0  0  0  0  0  0
   -5.3193    3.2068   14.9877 N   0  0  1  0  0  0  0  0  0  0  0  0
   -4.8116    3.6392   16.1553 N   0  0  0  0  0  0  0  0  0  0  0  0
   -3.3496    1.1866   15.2161 N   0  0  1  0  0  0  0  0  0  0  0  0
   -3.4843    1.7169   16.4445 N   0  0  0  0  0  0  0  0  0  0  0  0
   -2.6047    3.8205   14.4829 N   0  0  1  0  0  0  0  0  0  0  0  0
   -2.4845    3.7547   15.8205 N   0  0  0  0  0  0  0  0  0  0  0  0
   -6.4243    3.8912   14.7661 C   0  0  2  0  0  3  0  0  0  0  0  0
   -6.6363    4.7970   15.8268 C   0  0  0  0  0  0  0  0  0  0  0  0
   -7.4516    5.4829   15.9323 H   0  0  0  0  0  0  0  0  0  0  0  0
   -5.5856    4.6231   16.6942 C   0  0  0  0  0  0  0  0  0  0  0  0
   -7.2614    3.6722   13.5626 C   0  0  0  0  0  0  0  0  0  0  0  0
   -6.7496    3.0055   12.8747 H   0  0  0  0  0  0  0  0  0  0  0  0
   -7.4572    4.6191   13.0630 H   0  0  0  0  0  0  0  0  0  0  0  0
   -8.2178    3.2298   13.8395 H   0  0  0  0  0  0  0  0  0  0  0  0
   -5.2538    5.3021   17.9725 C   0  0  0  0  0  0  0  0  0  0  0  0
   -5.1880    4.5889   18.7955 H   0  0  0  0  0  0  0  0  0  0  0  0
   -6.0318    6.0230   18.2066 H   0  0  0  0  0  0  0  0  0  0  0  0
   -4.3042    5.8336   17.8972 H   0  0  0  0  0  0  0  0  0  0  0  0
   -3.4531   -0.1218   15.3433 C   0  0  2  0  0  3  0  0  0  0  0  0
   -3.6630   -0.4467   16.7000 C   0  0  0  0  0  0  0  0  0  0  0  0
   -3.7796   -1.4266   17.1150 H   0  0  0  0  0  0  0  0  0  0  0  0
   -3.6904    0.7468   17.3793 C   0  0  0  0  0  0  0  0  0  0  0  0
   -3.3444   -1.0396   14.1844 C   0  0  0  0  0  0  0  0  0  0  0  0
   -3.3237   -0.4669   13.2618 H   0  0  0  0  0  0  0  0  0  0  0  0
   -4.1930   -1.7208   14.1631 H   0  0  0  0  0  0  0  0  0  0  0  0
   -2.4335   -1.6334   14.2535 H   0  0  0  0  0  0  0  0  0  0  0  0
   -3.8952    1.0444   18.8198 C   0  0  0  0  0  0  0  0  0  0  0  0
   -3.0466    1.5885   19.2373 H   0  0  0  0  0  0  0  0  0  0  0  0
   -4.0048    0.1116   19.3653 H   0  0  0  0  0  0  0  0  0  0  0  0
   -4.7970    1.6391   18.9712 H   0  0  0  0  0  0  0  0  0  0  0  0
   -1.4735    4.3096   14.0138 C   0  0  2  0  0  3  0  0  0  0  0  0
   -0.5929    4.5669   15.0856 C   0  0  0  0  0  0  0  0  0  0  0  0
    0.3965    4.9708   15.0209 H   0  0  0  0  0  0  0  0  0  0  0  0
   -1.2595    4.1927   16.2267 C   0  0  0  0  0  0  0  0  0  0  0  0
   -1.2491    4.5321   12.5656 C   0  0  0  0  0  0  0  0  0  0  0  0
   -2.0678    4.1021   11.9959 H   0  0  0  0  0  0  0  0  0  0  0  0
   -0.3150    4.0686   12.2538 H   0  0  0  0  0  0  0  0  0  0  0  0
   -1.1883    5.5982   12.3495 H   0  0  0  0  0  0  0  0  0  0  0  0
   -0.8402    4.2104   17.6512 C   0  0  0  0  0  0  0  0  0  0  0  0
   -1.5112    4.8232   18.2551 H   0  0  0  0  0  0  0  0  0  0  0  0
    0.1605    4.6263   17.7239 H   0  0  0  0  0  0  0  0  0  0  0  0
   -0.8241    3.2016   18.0659 H   0  0  0  0  0  0  0  0  0  0  0  0
   -3.5330    3.1474   16.5978 C   0  0  1  0  0  0  0  0  0  0  0  0
   -3.3936    3.4026   17.6547 H   0  0  0  0  0  0  0  0  0  0  0  0
  2  1  1  6  0  0  0
  2  7  1  0  0  0  0
  2  3  1  0  0  0  0
  2  5  1  0  0  0  0
  3  4  1  1  0  0  0
  4 45  1  0  0  0  0
  4 12  1  0  0  0  0
  5 21  1  0  0  0  0
  5  6  1  1  0  0  0
  6 45  1  0  0  0  0
  6 24  1  0  0  0  0
  7  8  1  1  0  0  0
  8 36  1  0  0  0  0
  8 45  1  0  0  0  0
  9 13  1  1  0  0  0
  9  3  1  0  0  0  0
  9 10  1  0  0  0  0
 10 11  1  0  0  0  0
 10 12  2  0  0  0  0
 12 17  1  0  0  0  0
 13 16  1  0  0  0  0
 14 13  1  0  0  0  0
 15 13  1  0  0  0  0
 17 19  1  0  0  0  0
 17 18  1  0  0  0  0
 20 17  1  0  0  0  0
 21 25  1  1  0  0  0
 21 22  1  0  0  0  0
 22 23  1  0  0  0  0
 22 24  2  0  0  0  0
 24 29  1  0  0  0  0
 25 28  1  0  0  0  0
 26 25  1  0  0  0  0
 27 25  1  0  0  0  0
 29 32  1  0  0  0  0
 29 30  1  0  0  0  0
 29 31  1  0  0  0  0
 33 37  1  1  0  0  0
 33  7  1  0  0  0  0
 33 34  1  0  0  0  0
 34 36  2  0  0  0  0
 35 34  1  0  0  0  0
 36 41  1  0  0  0  0
 38 37  1  0  0  0  0
 39 37  1  0  0  0  0
 40 37  1  0  0  0  0
 41 43  1  0  0  0  0
 41 44  1  0  0  0  0
 41 42  1  0  0  0  0
 45 46  1  1  0  0  0
M  END
$$$$
