CSD_code = MAYKUS | q = 0 | S = 0 | Stoichiometry = C23H30ClF6N2OPPt | MND = 4
 OpenBabel04212202063D

 65 68  0  0  1  0  0  0  0  0999 V2000
   -7.5878    6.7168    8.7703 Pt  0  0  1  0  0  0  0  0  0  0  0  0
   -9.2002    5.3461    7.8624 Cl  0  0  0  0  0  0  0  0  0  0  0  0
   -6.2598    4.9250    9.0945 P   0  0  0  0  0  4  0  0  0  0  0  0
   -5.2504    9.1885   14.7143 F   0  0  0  0  0  0  0  0  0  0  0  0
   -3.3174   10.1043   14.4659 F   0  0  0  0  0  0  0  0  0  0  0  0
   -3.7662    8.2467   13.4827 F   0  0  0  0  0  0  0  0  0  0  0  0
   -3.2675   13.8789   13.0259 F   0  0  0  0  0  0  0  0  0  0  0  0
   -4.5599   15.5741   12.7973 F   0  0  0  0  0  0  0  0  0  0  0  0
   -5.1822   13.9258   14.0183 F   0  0  0  0  0  0  0  0  0  0  0  0
   -6.1481    8.0195    9.4465 O   0  0  0  0  0  0  0  0  0  0  0  0
   -8.6536    8.5295    8.4427 N   0  0  2  0  0  4  0  0  0  0  0  0
   -8.3050    8.8422    7.5313 H   0  0  0  0  0  0  0  0  0  0  0  0
   -4.7667   11.4865   12.6640 N   0  0  0  0  0  0  0  0  0  0  0  0
   -6.5642    9.3182    9.3869 C   0  0  1  0  0  0  0  0  0  0  0  0
   -6.2612    9.7833    8.4198 H   0  0  0  0  0  0  0  0  0  0  0  0
   -8.1181    9.4243    9.4808 C   0  0  2  0  0  0  0  0  0  0  0  0
   -8.4480   10.4612    9.3039 H   0  0  0  0  0  0  0  0  0  0  0  0
   -8.6232    8.9555   10.8442 C   0  0  0  0  0  0  0  0  0  0  0  0
   -8.2418    9.6192   11.6222 H   0  0  0  0  0  0  0  0  0  0  0  0
   -8.2287    7.9468   11.0235 H   0  0  0  0  0  0  0  0  0  0  0  0
  -10.1471    8.9136   10.8761 C   0  0  0  0  0  0  0  0  0  0  0  0
  -10.4838    8.5267   11.8384 H   0  0  0  0  0  0  0  0  0  0  0  0
  -10.5454    9.9259   10.7642 H   0  0  0  0  0  0  0  0  0  0  0  0
  -10.6548    8.0293    9.7438 C   0  0  0  0  0  0  0  0  0  0  0  0
  -11.7445    8.0165    9.7178 H   0  0  0  0  0  0  0  0  0  0  0  0
  -10.3028    7.0034    9.8886 H   0  0  0  0  0  0  0  0  0  0  0  0
  -10.1182    8.5364    8.4112 C   0  0  0  0  0  0  0  0  0  0  0  0
  -10.4503    7.8804    7.6031 H   0  0  0  0  0  0  0  0  0  0  0  0
  -10.4872    9.5553    8.2201 H   0  0  0  0  0  0  0  0  0  0  0  0
   -5.9280   10.1316   10.4995 C   0  0  0  0  0  0  0  0  0  0  0  0
   -5.3845    9.4540   11.5667 C   0  0  0  0  0  0  0  0  0  0  0  0
   -5.3994    8.3761   11.5655 H   0  0  0  0  0  0  0  0  0  0  0  0
   -4.8195   10.1832   12.6182 C   0  0  0  0  0  0  0  0  0  0  0  0
   -4.2758    9.4471   13.8209 C   0  0  0  0  0  0  0  0  0  0  0  0
   -5.2649   12.1771   11.6268 C   0  0  0  0  0  0  0  0  0  0  0  0
   -5.1903   13.5921   11.6714 C   0  0  0  0  0  0  0  0  0  0  0  0
   -4.5508   14.2294   12.8771 C   0  0  0  0  0  0  0  0  0  0  0  0
   -5.6781   14.3532   10.6423 C   0  0  0  0  0  0  0  0  0  0  0  0
   -5.6158   15.4296   10.6852 H   0  0  0  0  0  0  0  0  0  0  0  0
   -6.2488   13.7318    9.5232 C   0  0  0  0  0  0  0  0  0  0  0  0
   -6.6139   14.3451    8.7139 H   0  0  0  0  0  0  0  0  0  0  0  0
   -6.3372   12.3692    9.4489 C   0  0  0  0  0  0  0  0  0  0  0  0
   -6.7617   11.9111    8.5691 H   0  0  0  0  0  0  0  0  0  0  0  0
   -5.8636   11.5497   10.4948 C   0  0  0  0  0  0  0  0  0  0  0  0
   -7.0499    3.3344    9.5784 C   0  0  0  0  0  0  0  0  0  0  0  0
   -7.6112    3.5177   10.4986 H   0  0  0  0  0  0  0  0  0  0  0  0
   -7.7806    3.1097    8.7978 H   0  0  0  0  0  0  0  0  0  0  0  0
   -6.0822    2.1721    9.7594 C   0  0  0  0  0  0  0  0  0  0  0  0
   -6.6368    1.2682   10.0034 H   0  0  0  0  0  0  0  0  0  0  0  0
   -5.3801    2.3637   10.5670 H   0  0  0  0  0  0  0  0  0  0  0  0
   -5.5204    1.9864    8.8473 H   0  0  0  0  0  0  0  0  0  0  0  0
   -5.3460    4.5404    7.5445 C   0  0  0  0  0  0  0  0  0  0  0  0
   -4.4195    4.0105    7.7795 H   0  0  0  0  0  0  0  0  0  0  0  0
   -5.9804    3.8922    6.9346 H   0  0  0  0  0  0  0  0  0  0  0  0
   -5.0571    5.8387    6.7985 C   0  0  0  0  0  0  0  0  0  0  0  0
   -4.5258    5.6474    5.8682 H   0  0  0  0  0  0  0  0  0  0  0  0
   -4.4617    6.5097    7.4139 H   0  0  0  0  0  0  0  0  0  0  0  0
   -6.0007    6.3383    6.5662 H   0  0  0  0  0  0  0  0  0  0  0  0
   -4.9419    5.2335   10.3359 C   0  0  0  0  0  0  0  0  0  0  0  0
   -4.2011    4.4315   10.3144 H   0  0  0  0  0  0  0  0  0  0  0  0
   -4.4622    6.1650   10.0297 H   0  0  0  0  0  0  0  0  0  0  0  0
   -5.5455    5.4029   11.7247 C   0  0  0  0  0  0  0  0  0  0  0  0
   -4.8097    5.8023   12.4195 H   0  0  0  0  0  0  0  0  0  0  0  0
   -5.9092    4.4555   12.1168 H   0  0  0  0  0  0  0  0  0  0  0  0
   -6.3859    6.0951   11.6685 H   0  0  0  0  0  0  0  0  0  0  0  0
  1  2  1  6  0  0  0
  1  3  1  0  0  0  0
  1 10  1  0  0  0  0
  3 45  1  0  0  0  0
  3 59  1  0  0  0  0
  6 34  1  0  0  0  0
  8 37  1  0  0  0  0
 11 12  1  6  0  0  0
 11  1  1  0  0  0  0
 11 16  1  0  0  0  0
 14 15  1  6  0  0  0
 14 10  1  0  0  0  0
 14 16  1  0  0  0  0
 14 30  1  0  0  0  0
 16 17  1  6  0  0  0
 16 18  1  0  0  0  0
 18 21  1  0  0  0  0
 18 20  1  0  0  0  0
 18 19  1  0  0  0  0
 21 22  1  0  0  0  0
 23 21  1  0  0  0  0
 24 26  1  0  0  0  0
 24 21  1  0  0  0  0
 25 24  1  0  0  0  0
 27 11  1  0  0  0  0
 27 24  1  0  0  0  0
 28 27  1  0  0  0  0
 29 27  1  0  0  0  0
 30 31  1  0  0  0  0
 31 33  2  0  0  0  0
 32 31  1  0  0  0  0
 33 13  1  0  0  0  0
 33 34  1  0  0  0  0
 34  5  1  0  0  0  0
 34  4  1  0  0  0  0
 35 36  1  0  0  0  0
 35 13  2  0  0  0  0
 36 37  1  0  0  0  0
 37  7  1  0  0  0  0
 37  9  1  0  0  0  0
 38 39  1  0  0  0  0
 38 36  2  0  0  0  0
 40 38  1  0  0  0  0
 41 40  1  0  0  0  0
 42 40  2  0  0  0  0
 42 44  1  0  0  0  0
 43 42  1  0  0  0  0
 44 30  2  0  0  0  0
 44 35  1  0  0  0  0
 45 48  1  0  0  0  0
 45 46  1  0  0  0  0
 47 45  1  0  0  0  0
 48 49  1  0  0  0  0
 48 50  1  0  0  0  0
 51 48  1  0  0  0  0
 52 53  1  0  0  0  0
 52  3  1  0  0  0  0
 54 52  1  0  0  0  0
 55 57  1  0  0  0  0
 55 52  1  0  0  0  0
 56 55  1  0  0  0  0
 58 55  1  0  0  0  0
 59 62  1  0  0  0  0
 60 59  1  0  0  0  0
 61 59  1  0  0  0  0
 62 64  1  0  0  0  0
 62 63  1  0  0  0  0
 65 62  1  0  0  0  0
M  END
$$$$
