CSD_code = MAYQAF | q = 0 | S = 0 | Stoichiometry = C15H22BBrCdN6S3 | MND = 4
 OpenBabel04212202063D

 49 53  0  0  1  0  0  0  0  0999 V2000
    1.3191    1.7010    3.7350 Cd  0  0  1  0  0  0  0  0  0  0  0  0
    0.0712    3.7490    3.0556 Br  0  0  0  0  0  0  0  0  0  0  0  0
    3.5137   -1.2264    5.0838 B   0  0  1  0  0  0  0  0  0  0  0  0
    4.1909   -2.1038    5.5213 H   0  0  0  0  0  0  0  0  0  0  0  0
    0.1830   -0.6409    4.3908 S   0  0  0  0  0  0  0  0  0  0  0  0
    3.2039    0.6158    2.1724 S   0  0  0  0  0  0  0  0  0  0  0  0
    2.7820    2.0390    5.9382 S   0  0  0  0  0  0  0  0  0  0  0  0
    1.0507   -0.6770    5.8486 C   0  0  1  0  0  3  0  0  0  0  0  0
    0.4577   -0.4537    7.0433 N   0  0  0  0  0  0  0  0  0  0  0  0
    1.4028   -0.5914    8.0229 C   0  0  0  0  0  0  0  0  0  0  0  0
    2.5616   -0.9216    7.4119 C   0  0  0  0  0  0  0  0  0  0  0  0
    2.3456   -0.9776    6.0585 N   0  0  0  0  0  0  0  0  0  0  0  0
   -0.8976    0.0015    7.2267 C   0  0  0  0  0  0  0  0  0  0  0  0
   -0.9802    1.5226    7.1265 C   0  0  0  0  0  0  0  0  0  0  0  0
    2.7946   -0.9841    2.5560 C   0  0  1  0  0  3  0  0  0  0  0  0
    2.2336   -1.8140    1.6477 N   0  0  0  0  0  0  0  0  0  0  0  0
    2.0587   -3.0369    2.2346 C   0  0  0  0  0  0  0  0  0  0  0  0
    2.5207   -2.9378    3.5006 C   0  0  0  0  0  0  0  0  0  0  0  0
    2.9846   -1.6634    3.7022 N   0  0  0  0  0  0  0  0  0  0  0  0
    1.8816   -1.4529    0.2992 C   0  0  0  0  0  0  0  0  0  0  0  0
    3.0645   -1.6295   -0.6474 C   0  0  0  0  0  0  0  0  0  0  0  0
    4.1336    1.3369    5.1925 C   0  0  1  0  0  3  0  0  0  0  0  0
    5.2017    2.0701    4.8041 N   0  0  0  0  0  0  0  0  0  0  0  0
    6.1343    1.2202    4.2755 C   0  0  0  0  0  0  0  0  0  0  0  0
    5.6302   -0.0299    4.3700 C   0  0  0  0  0  0  0  0  0  0  0  0
    4.3856    0.0391    4.9426 N   0  0  0  0  0  0  0  0  0  0  0  0
    5.2676    3.5101    4.8128 C   0  0  0  0  0  0  0  0  0  0  0  0
    4.6402    4.0928    3.5489 C   0  0  0  0  0  0  0  0  0  0  0  0
    1.1723   -0.4442    9.0573 H   0  0  0  0  0  0  0  0  0  0  0  0
    3.5301   -1.1128    7.8235 H   0  0  0  0  0  0  0  0  0  0  0  0
   -1.2383   -0.3388    8.2076 H   0  0  0  0  0  0  0  0  0  0  0  0
   -1.5145   -0.4589    6.4498 H   0  0  0  0  0  0  0  0  0  0  0  0
   -1.9998    1.8508    7.3059 H   0  0  0  0  0  0  0  0  0  0  0  0
   -0.3214    1.9906    7.8548 H   0  0  0  0  0  0  0  0  0  0  0  0
   -0.6826    1.8553    6.1291 H   0  0  0  0  0  0  0  0  0  0  0  0
    1.6155   -3.8591    1.7126 H   0  0  0  0  0  0  0  0  0  0  0  0
    2.5534   -3.6660    4.2832 H   0  0  0  0  0  0  0  0  0  0  0  0
    1.0404   -2.0778   -0.0091 H   0  0  0  0  0  0  0  0  0  0  0  0
    1.5669   -0.4036    0.3038 H   0  0  0  0  0  0  0  0  0  0  0  0
    2.7697   -1.3602   -1.6572 H   0  0  0  0  0  0  0  0  0  0  0  0
    3.4081   -2.6619   -0.6435 H   0  0  0  0  0  0  0  0  0  0  0  0
    3.8829   -0.9835   -0.3391 H   0  0  0  0  0  0  0  0  0  0  0  0
    7.0654    1.5721    3.8828 H   0  0  0  0  0  0  0  0  0  0  0  0
    6.0475   -0.9680    4.0699 H   0  0  0  0  0  0  0  0  0  0  0  0
    6.3186    3.7990    4.8902 H   0  0  0  0  0  0  0  0  0  0  0  0
    4.7278    3.8656    5.6950 H   0  0  0  0  0  0  0  0  0  0  0  0
    4.7372    5.1745    3.5526 H   0  0  0  0  0  0  0  0  0  0  0  0
    5.1263    3.6940    2.6610 H   0  0  0  0  0  0  0  0  0  0  0  0
    3.5772    3.8448    3.5035 H   0  0  0  0  0  0  0  0  0  0  0  0
  1  2  1  6  0  0  0
  1  5  1  0  0  0  0
  1  7  1  0  0  0  0
  3  4  1  1  0  0  0
  3 12  1  0  0  0  0
  6  1  1  0  0  0  0
  8  5  1  1  0  0  0
  8 12  1  0  0  0  0
  8  9  1  0  0  0  0
  9 13  1  0  0  0  0
  9 10  1  0  0  0  0
 10 29  1  0  0  0  0
 11 30  1  0  0  0  0
 11 10  2  0  0  0  0
 12 11  1  0  0  0  0
 13 31  1  0  0  0  0
 14 13  1  0  0  0  0
 14 33  1  0  0  0  0
 14 34  1  0  0  0  0
 15  6  1  6  0  0  0
 15 19  1  0  0  0  0
 16 17  1  0  0  0  0
 16 15  1  0  0  0  0
 17 18  2  0  0  0  0
 18 19  1  0  0  0  0
 18 37  1  0  0  0  0
 19  3  1  0  0  0  0
 20 39  1  0  0  0  0
 20 16  1  0  0  0  0
 21 41  1  0  0  0  0
 21 42  1  0  0  0  0
 21 20  1  0  0  0  0
 22  7  1  1  0  0  0
 23 27  1  0  0  0  0
 23 22  1  0  0  0  0
 24 25  2  0  0  0  0
 24 23  1  0  0  0  0
 25 26  1  0  0  0  0
 26  3  1  0  0  0  0
 26 22  1  0  0  0  0
 27 45  1  0  0  0  0
 27 46  1  0  0  0  0
 28 47  1  0  0  0  0
 28 27  1  0  0  0  0
 32 13  1  0  0  0  0
 35 14  1  0  0  0  0
 36 17  1  0  0  0  0
 38 20  1  0  0  0  0
 40 21  1  0  0  0  0
 43 24  1  0  0  0  0
 44 25  1  0  0  0  0
 48 28  1  0  0  0  0
 49 28  1  0  0  0  0
M  END
$$$$
