CSD_code = MAYRAH | q = 0 | S = 0 | Stoichiometry = C32H27ClN4OTi | MND = 9
 OpenBabel04212202063D

 66 73  0  0  1  0  0  0  0  0999 V2000
    9.1891    0.9062   14.0396 Ti  0  0  0  0  0  0  0  0  0  0  0  0
    6.9776    0.7344   14.0905 Cl  0  0  0  0  0  0  0  0  0  0  0  0
    9.1154    1.2829   12.3507 O   0  0  0  0  0  0  0  0  0  0  0  0
   10.9452   -0.2138   13.2351 N   0  0  0  0  0  0  0  0  0  0  0  0
   10.8535   -2.0371   16.3062 N   0  0  0  0  0  0  0  0  0  0  0  0
   10.6163   -1.2602   15.2627 C   0  0  0  0  0  0  0  0  0  0  0  0
   11.4996   -0.9784   14.1707 C   0  0  0  0  0  0  0  0  0  0  0  0
    9.3729   -0.6740   15.2280 N   0  0  0  0  0  0  0  0  0  0  0  0
   10.9470    0.6347   10.9971 C   0  0  0  0  0  0  0  0  0  0  0  0
    8.6972    0.5611   10.2242 N   0  0  0  0  0  0  0  0  0  0  0  0
   12.8264   -1.4592   14.0745 C   0  0  0  0  0  0  0  0  0  0  0  0
   13.2087   -2.0594   14.8837 H   0  0  0  0  0  0  0  0  0  0  0  0
   13.6307   -0.0985   10.7166 C   0  0  0  0  0  3  0  0  0  0  0  0
   14.6624   -0.3984   10.6059 H   0  0  0  0  0  0  0  0  0  0  0  0
    6.6438   -0.5776   10.7233 C   0  0  0  0  0  0  0  0  0  0  0  0
   11.6220    0.0304   12.0886 C   0  0  0  0  0  0  0  0  0  0  0  0
    8.7702   -1.1274   16.3681 C   0  0  0  0  0  0  0  0  0  0  0  0
   10.3249    3.0171   14.0691 C   0  0  0  0  0  0  0  0  0  0  0  0
   10.7115    3.5247   13.1934 H   0  0  0  0  0  0  0  0  0  0  0  0
    7.3173    0.6211   10.4667 C   0  0  0  0  0  0  0  0  0  0  0  0
   12.9698   -0.3902   11.9237 C   0  0  0  0  0  0  0  0  0  0  0  0
    7.4098   -1.8679   10.8433 C   0  0  0  0  0  0  0  0  0  0  0  0
    6.7610   -2.6992   10.5575 H   0  0  0  0  0  0  0  0  0  0  0  0
    8.2669   -1.8439   10.1653 H   0  0  0  0  0  0  0  0  0  0  0  0
   12.9680    0.5254    9.6906 C   0  0  0  0  0  0  0  0  0  0  0  0
   13.4805    0.7346    8.7640 H   0  0  0  0  0  0  0  0  0  0  0  0
   11.0651    2.1925   14.9384 C   0  0  0  0  0  0  0  0  0  0  0  0
   12.1236    1.9780   14.8572 H   0  0  0  0  0  0  0  0  0  0  0  0
   10.2374    1.8475   16.0275 C   0  0  0  0  0  0  0  0  0  0  0  0
   10.5519    1.3140   16.9153 H   0  0  0  0  0  0  0  0  0  0  0  0
    7.5136   -0.8873   16.9252 C   0  0  0  0  0  0  0  0  0  0  0  0
    6.8015   -0.2452   16.4273 H   0  0  0  0  0  0  0  0  0  0  0  0
    6.6230    1.8347   10.4242 C   0  0  0  0  0  0  0  0  0  0  0  0
    9.7065   -1.9843   17.0307 C   0  0  0  0  0  0  0  0  0  0  0  0
   13.5646   -1.1277   12.9776 C   0  0  0  0  0  0  0  0  0  0  0  0
   14.5926   -1.4455   12.8783 H   0  0  0  0  0  0  0  0  0  0  0  0
    9.0222    3.1466   14.5948 C   0  0  2  0  0  0  0  0  0  0  0  0
    8.2369    3.7870   14.2079 H   0  0  0  0  0  0  0  0  0  0  0  0
    8.1356   -2.3530   18.7646 C   0  0  0  0  0  0  0  0  0  0  0  0
    7.8477   -2.8136   19.6984 H   0  0  0  0  0  0  0  0  0  0  0  0
    5.2717   -0.5486   10.9160 C   0  0  0  0  0  0  0  0  0  0  0  0
    4.7504   -1.4722   11.1231 H   0  0  0  0  0  0  0  0  0  0  0  0
    9.4929    0.8620   11.1698 C   0  0  0  0  0  0  0  0  0  0  0  0
    5.2499    1.8230   10.6093 C   0  0  0  0  0  0  0  0  0  0  0  0
    4.7070    2.7570   10.5748 H   0  0  0  0  0  0  0  0  0  0  0  0
   11.6160    0.8643    9.8177 C   0  0  0  0  0  0  0  0  0  0  0  0
   11.0813    1.2993    8.9881 H   0  0  0  0  0  0  0  0  0  0  0  0
    8.9735    2.4217   15.8155 C   0  0  0  0  0  0  0  0  0  0  0  0
    8.1439    2.4149   16.5119 H   0  0  0  0  0  0  0  0  0  0  0  0
    7.2200   -1.5093   18.1170 C   0  0  0  0  0  0  0  0  0  0  0  0
    6.2551   -1.3448   18.5739 H   0  0  0  0  0  0  0  0  0  0  0  0
    9.3790   -2.6032   18.2381 C   0  0  0  0  0  0  0  0  0  0  0  0
   10.0904   -3.2501   18.7266 H   0  0  0  0  0  0  0  0  0  0  0  0
    4.5728    0.6422   10.8541 C   0  0  0  0  0  0  0  0  0  0  0  0
    3.5040    0.6527   11.0069 H   0  0  0  0  0  0  0  0  0  0  0  0
    7.3571    3.1215   10.1606 C   0  0  0  0  0  0  0  0  0  0  0  0
    8.2231    3.1921   10.8273 H   0  0  0  0  0  0  0  0  0  0  0  0
    6.6980    3.9643   10.3792 H   0  0  0  0  0  0  0  0  0  0  0  0
    7.9002   -2.0963   12.2775 C   0  0  0  0  0  0  0  0  0  0  0  0
    8.3999   -3.0609   12.3609 H   0  0  0  0  0  0  0  0  0  0  0  0
    7.0592   -2.0753   12.9711 H   0  0  0  0  0  0  0  0  0  0  0  0
    8.6093   -1.3103   12.5779 H   0  0  0  0  0  0  0  0  0  0  0  0
    7.8268    3.2020    8.7079 C   0  0  0  0  0  0  0  0  0  0  0  0
    8.3821    4.1217    8.5340 H   0  0  0  0  0  0  0  0  0  0  0  0
    6.9714    3.1792    8.0361 H   0  0  0  0  0  0  0  0  0  0  0  0
    8.4665    2.3530    8.4775 H   0  0  0  0  0  0  0  0  0  0  0  0
  1  2  1  0  0  0  0
  1 37  1  0  0  0  0
  1  8  1  0  0  0  0
  3  1  1  0  0  0  0
  4  1  1  0  0  0  0
  4  7  1  0  0  0  0
  5 34  1  0  0  0  0
  6  5  2  0  0  0  0
  7  6  1  0  0  0  0
  8  6  1  0  0  0  0
  8 17  1  0  0  0  0
  9 43  1  0  0  0  0
  9 16  2  0  0  0  0
 10 20  1  0  0  0  0
 10 43  2  0  0  0  0
 11  7  2  0  0  0  0
 11 12  1  0  0  0  0
 13 21  1  0  0  0  0
 14 13  1  0  0  0  0
 15 22  1  0  0  0  0
 15 41  1  0  0  0  0
 16  4  1  0  0  0  0
 17 31  2  0  0  0  0
 17 34  1  0  0  0  0
 18 37  1  0  0  0  0
 18 27  2  0  0  0  0
 19 18  1  0  0  0  0
 20 15  2  0  0  0  0
 21 16  1  0  0  0  0
 21 35  2  0  0  0  0
 22 59  1  0  0  0  0
 23 22  1  0  0  0  0
 24 22  1  0  0  0  0
 25 46  2  0  0  0  0
 25 13  1  0  0  0  0
 26 25  1  0  0  0  0
 27 29  1  0  0  0  0
 28 27  1  0  0  0  0
 29 30  1  0  0  0  0
 31 50  1  0  0  0  0
 32 31  1  0  0  0  0
 33 20  1  0  0  0  0
 33 44  2  0  0  0  0
 34 52  2  0  0  0  0
 35 11  1  0  0  0  0
 36 35  1  0  0  0  0
 37 38  1  6  0  0  0
 37 48  1  0  0  0  0
 39 40  1  0  0  0  0
 41 42  1  0  0  0  0
 43  3  1  0  0  0  0
 44 54  1  0  0  0  0
 45 44  1  0  0  0  0
 46  9  1  0  0  0  0
 47 46  1  0  0  0  0
 48 29  2  0  0  0  0
 48 49  1  0  0  0  0
 50 51  1  0  0  0  0
 50 39  2  0  0  0  0
 52 53  1  0  0  0  0
 52 39  1  0  0  0  0
 54 41  2  0  0  0  0
 54 55  1  0  0  0  0
 56 58  1  0  0  0  0
 56 33  1  0  0  0  0
 56 57  1  0  0  0  0
 59 60  1  0  0  0  0
 59 62  1  0  0  0  0
 59 61  1  0  0  0  0
 63 56  1  0  0  0  0
 64 63  1  0  0  0  0
 65 63  1  0  0  0  0
 66 63  1  0  0  0  0
M  END
$$$$
