CSD_code = MAZWOZ | q = 0 | S = 0 | Stoichiometry = C31H23Br2FeN3 | MND = 5
 OpenBabel04212202063D

 60 66  0  0  0  0  0  0  0  0999 V2000
    0.3948    0.2665    3.2077 Fe  0  0  0  0  0  0  0  0  0  0  0  0
    0.0429   -1.4494    1.7585 Br  0  0  0  0  0  0  0  0  0  0  0  0
    1.7740    1.4048    4.5834 Br  0  0  0  0  0  0  0  0  0  0  0  0
   -1.2372    0.9575    3.1410 N   0  0  0  0  0  0  0  0  0  0  0  0
   -2.2015    0.4778    3.9662 C   0  0  0  0  0  0  0  0  0  0  0  0
   -3.5159    0.9295    3.8632 C   0  0  0  0  0  0  0  0  0  0  0  0
   -4.2656    0.5394    4.5322 H   0  0  0  0  0  0  0  0  0  0  0  0
   -3.8294    1.8706    2.8933 C   0  0  0  0  0  0  0  0  0  0  0  0
   -4.8412    2.2328    2.8012 H   0  0  0  0  0  0  0  0  0  0  0  0
   -2.8467    2.3325    2.0300 C   0  0  0  0  0  0  0  0  0  0  0  0
   -3.0691    3.0476    1.2547 H   0  0  0  0  0  0  0  0  0  0  0  0
   -1.5455    1.8532    2.1695 C   0  0  0  0  0  0  0  0  0  0  0  0
   -1.6565   -0.4778    4.8680 C   0  0  0  0  0  0  0  0  0  0  0  0
   -2.2626   -0.9757    5.6133 H   0  0  0  0  0  0  0  0  0  0  0  0
   -0.3821   -0.7090    4.7227 N   0  0  0  0  0  0  0  0  0  0  0  0
   -0.3908    2.1764    1.4043 C   0  0  0  0  0  3  0  0  0  0  0  0
   -0.4242    2.8786    0.5818 H   0  0  0  0  0  0  0  0  0  0  0  0
    0.7000    1.5612    1.7656 N   0  0  0  0  0  0  0  0  0  0  0  0
    0.3254   -1.5022    5.6201 C   0  0  0  0  0  0  0  0  0  0  0  0
    1.3568   -2.2948    5.1146 C   0  0  0  0  0  0  0  0  0  0  0  0
    1.5537   -2.2812    4.0515 H   0  0  0  0  0  0  0  0  0  0  0  0
    2.0981   -3.1087    5.9453 C   0  0  0  0  0  0  0  0  0  0  0  0
    2.8851   -3.7214    5.5333 H   0  0  0  0  0  0  0  0  0  0  0  0
    1.8281   -3.1341    7.3041 C   0  0  0  0  0  0  0  0  0  0  0  0
    2.4021   -3.7692    7.9614 H   0  0  0  0  0  0  0  0  0  0  0  0
    0.8332   -2.3251    7.8209 C   0  0  0  0  0  0  0  0  0  0  0  0
    0.6452   -2.3117    8.8847 H   0  0  0  0  0  0  0  0  0  0  0  0
    0.0760   -1.4929    7.0047 C   0  0  0  0  0  0  0  0  0  0  0  0
   -1.9049   -1.0986    8.4550 C   0  0  0  0  0  0  0  0  0  0  0  0
   -1.9738   -2.1669    8.6059 H   0  0  0  0  0  0  0  0  0  0  0  0
   -2.8156   -0.2506    9.0592 C   0  0  0  0  0  0  0  0  0  0  0  0
   -3.5910   -0.6589    9.6910 H   0  0  0  0  0  0  0  0  0  0  0  0
   -2.7316    1.1169    8.8584 C   0  0  0  0  0  0  0  0  0  0  0  0
   -3.4433    1.7779    9.3306 H   0  0  0  0  0  0  0  0  0  0  0  0
   -1.7264    1.6343    8.0576 C   0  0  0  0  0  0  0  0  0  0  0  0
   -1.6463    2.7010    7.9095 H   0  0  0  0  0  0  0  0  0  0  0  0
   -0.8163    0.7910    7.4486 C   0  0  0  0  0  0  0  0  0  0  0  0
   -0.0235    1.1989    6.8405 H   0  0  0  0  0  0  0  0  0  0  0  0
   -0.9043   -0.5868    7.6339 C   0  0  0  0  0  0  0  0  0  0  0  0
    1.9383    1.8828    1.2198 C   0  0  0  0  0  0  0  0  0  0  0  0
    2.8574    0.8487    1.0375 C   0  0  0  0  0  0  0  0  0  0  0  0
    2.5692   -0.1595    1.3017 H   0  0  0  0  0  0  0  0  0  0  0  0
    4.1044    1.0944    0.5022 C   0  0  0  0  0  0  0  0  0  0  0  0
    4.7974    0.2796    0.3603 H   0  0  0  0  0  0  0  0  0  0  0  0
    4.4599    2.3866    0.1502 C   0  0  0  0  0  0  0  0  0  0  0  0
    5.4331    2.5878   -0.2710 H   0  0  0  0  0  0  0  0  0  0  0  0
    3.5702    3.4239    0.3594 C   0  0  0  0  0  0  0  0  0  0  0  0
    3.8571    4.4384    0.1232 H   0  0  0  0  0  0  0  0  0  0  0  0
    2.3101    3.2021    0.9021 C   0  0  0  0  0  0  0  0  0  0  0  0
    1.1190    5.2577    0.1690 C   0  0  0  0  0  0  0  0  0  0  0  0
    1.4817    5.0780   -0.8335 H   0  0  0  0  0  0  0  0  0  0  0  0
    0.3210    6.3563    0.4336 C   0  0  0  0  0  0  0  0  0  0  0  0
    0.0690    7.0404   -0.3637 H   0  0  0  0  0  0  0  0  0  0  0  0
   -0.1506    6.5804    1.7160 C   0  0  0  0  0  0  0  0  0  0  0  0
   -0.7735    7.4384    1.9212 H   0  0  0  0  0  0  0  0  0  0  0  0
    0.1883    5.7065    2.7363 C   0  0  0  0  0  0  0  0  0  0  0  0
   -0.1631    5.8848    3.7417 H   0  0  0  0  0  0  0  0  0  0  0  0
    0.9832    4.6060    2.4767 C   0  0  0  0  0  0  0  0  0  0  0  0
    1.2593    3.9368    3.2772 H   0  0  0  0  0  0  0  0  0  0  0  0
    1.4470    4.3653    1.1855 C   0  0  0  0  0  0  0  0  0  0  0  0
  1  3  1  0  0  0  0
  1 15  1  0  0  0  0
  2  1  1  0  0  0  0
  4  1  1  0  0  0  0
  4  5  1  0  0  0  0
  5 13  2  0  0  0  0
  6  5  1  0  0  0  0
  6  7  1  0  0  0  0
  8  6  2  0  0  0  0
  9  8  1  0  0  0  0
 10 12  2  0  0  0  0
 10  8  1  0  0  0  0
 11 10  1  0  0  0  0
 12  4  1  0  0  0  0
 13 14  1  0  0  0  0
 15 13  1  0  0  0  0
 15 19  1  0  0  0  0
 16 18  1  0  0  0  0
 16 12  1  0  0  0  0
 17 16  1  0  0  0  0
 18  1  1  0  0  0  0
 19 28  1  0  0  0  0
 20 19  2  0  0  0  0
 20 22  1  0  0  0  0
 21 20  1  0  0  0  0
 22 24  2  0  0  0  0
 23 22  1  0  0  0  0
 24 26  1  0  0  0  0
 24 25  1  0  0  0  0
 26 27  1  0  0  0  0
 28 39  1  0  0  0  0
 28 26  2  0  0  0  0
 29 30  1  0  0  0  0
 29 31  1  0  0  0  0
 31 32  1  0  0  0  0
 33 31  2  0  0  0  0
 33 34  1  0  0  0  0
 35 33  1  0  0  0  0
 36 35  1  0  0  0  0
 37 39  1  0  0  0  0
 37 35  2  0  0  0  0
 38 37  1  0  0  0  0
 39 29  2  0  0  0  0
 40 18  1  0  0  0  0
 41 40  1  0  0  0  0
 41 42  1  0  0  0  0
 43 41  2  0  0  0  0
 44 43  1  0  0  0  0
 45 47  2  0  0  0  0
 45 43  1  0  0  0  0
 46 45  1  0  0  0  0
 47 49  1  0  0  0  0
 48 47  1  0  0  0  0
 49 60  1  0  0  0  0
 49 40  2  0  0  0  0
 50 52  2  0  0  0  0
 50 60  1  0  0  0  0
 51 50  1  0  0  0  0
 52 54  1  0  0  0  0
 53 52  1  0  0  0  0
 54 55  1  0  0  0  0
 54 56  2  0  0  0  0
 56 57  1  0  0  0  0
 58 56  1  0  0  0  0
 58 59  1  0  0  0  0
 60 58  2  0  0  0  0
M  END
$$$$
