CSD_code = MAZXAO | q = 0 | S = 0 | Stoichiometry = C5H7Cl4N3O2Pt | MND = 6
 OpenBabel04212202063D

 22 22  0  0  0  0  0  0  0  0999 V2000
    4.6167    0.5868    2.9664 Pt  0  0  0  0  0  0  0  0  0  0  0  0
    2.8710   -0.7562    2.0759 Cl  0  0  0  0  0  0  0  0  0  0  0  0
    6.4112    1.9454    3.7358 Cl  0  0  0  0  0  0  0  0  0  0  0  0
    3.3254    2.5557    2.6367 Cl  0  0  0  0  0  0  0  0  0  0  0  0
    5.9500   -1.3697    3.1732 Cl  0  0  0  0  0  0  0  0  0  0  0  0
    5.3537    0.8224    1.0441 N   0  0  0  0  0  4  0  0  0  0  0  0
    5.4422   -0.0868    0.5821 H   0  0  0  0  0  0  0  0  0  0  0  0
    6.2755    1.2677    1.0916 H   0  0  0  0  0  0  0  0  0  0  0  0
    4.7193    1.4176    0.5030 H   0  0  0  0  0  0  0  0  0  0  0  0
    3.9188    0.3682    4.8016 N   0  0  0  0  0  0  0  0  0  0  0  0
    2.6126    0.5085    5.0416 C   0  0  0  0  0  3  0  0  0  0  0  0
    1.9742    0.7373    4.1972 H   0  0  0  0  0  0  0  0  0  0  0  0
    2.0849    0.3696    6.3128 C   0  0  0  0  0  0  0  0  0  0  0  0
    1.0280    0.4851    6.4977 H   0  0  0  0  0  0  0  0  0  0  0  0
    3.2472   -0.3183    9.5769 O   0  0  0  0  0  0  0  0  0  0  0  0
    1.2507    0.0501    8.8648 O   0  0  0  0  0  0  0  0  0  0  0  0
    2.4405   -0.0769    8.7135 N   0  0  0  0  0  0  0  0  0  0  0  0
    2.9536    0.0763    7.3546 C   0  0  0  0  0  0  0  0  0  0  0  0
    4.3105   -0.0711    7.1040 C   0  0  0  0  0  0  0  0  0  0  0  0
    4.9941   -0.3000    7.9071 H   0  0  0  0  0  0  0  0  0  0  0  0
    4.7551    0.0838    5.8033 C   0  0  0  0  0  0  0  0  0  0  0  0
    5.8048   -0.0224    5.5591 H   0  0  0  0  0  0  0  0  0  0  0  0
  1  5  1  0  0  0  0
  1  3  1  0  0  0  0
  1 10  1  0  0  0  0
  2  1  1  0  0  0  0
  4  1  1  0  0  0  0
  6  8  1  0  0  0  0
  6  1  1  0  0  0  0
  7  6  1  0  0  0  0
  9  6  1  0  0  0  0
 10 11  1  0  0  0  0
 10 21  1  0  0  0  0
 11 13  1  0  0  0  0
 12 11  1  0  0  0  0
 13 14  1  0  0  0  0
 13 18  2  0  0  0  0
 17 16  2  0  0  0  0
 17 15  2  0  0  0  0
 18 17  1  0  0  0  0
 19 18  1  0  0  0  0
 19 20  1  0  0  0  0
 21 19  2  0  0  0  0
 22 21  1  0  0  0  0
M  END
$$$$
