CSD_code = MCYSPT | q = 0 | S = 0 | Stoichiometry = C4H9Cl2NO3PtS | MND = 4
 OpenBabel04212202063D

 21 21  0  0  1  0  0  0  0  0999 V2000
    6.3455    1.4465    2.7537 Pt  0  0  0  0  0  0  0  0  0  0  0  0
    7.7460    1.4703    1.0142 Cl  0  0  0  0  0  0  0  0  0  0  0  0
    7.7799    0.3209    4.0311 Cl  0  0  0  0  0  0  0  0  0  0  0  0
    4.7707    1.5996    4.4014 S   0  0  2  0  0  0  0  0  0  0  0  0
    3.6853    4.9929    1.0159 O   0  0  0  0  0  0  0  0  0  0  0  0
    1.8822    4.4855    2.2411 O   0  0  0  0  0  0  0  0  0  0  0  0
    3.6350    0.7008    4.4285 O   0  0  0  0  0  1  0  0  0  0  0  0
    4.9296    2.6347    1.6033 N   0  0  0  0  0  4  0  0  0  0  0  0
    3.1058    4.2690    1.7767 C   0  0  0  0  0  0  0  0  0  0  0  0
    3.7257    2.9925    2.3519 C   0  0  2  0  0  0  0  0  0  0  0  0
    4.0764    3.2239    3.8223 C   0  0  0  0  0  0  0  0  0  0  0  0
    5.1680    2.0695    6.1145 C   0  0  0  0  0  0  0  0  0  0  0  0
    2.9930    2.1780    2.3094 H   0  0  0  0  0  0  0  0  0  0  0  0
    4.2631    2.3967    6.6118 H   0  0  0  0  0  0  0  0  0  0  0  0
    5.9210    2.8476    6.0823 H   0  0  0  0  0  0  0  0  0  0  0  0
    5.5693    1.1873    6.6015 H   0  0  0  0  0  0  0  0  0  0  0  0
    1.5058    5.3056    1.8811 H   0  0  0  0  0  0  0  0  0  0  0  0
    3.1936    3.4716    4.4065 H   0  0  0  0  0  0  0  0  0  0  0  0
    4.8498    3.9835    3.9304 H   0  0  0  0  0  0  0  0  0  0  0  0
    4.7111    2.1199    0.7503 H   0  0  0  0  0  0  0  0  0  0  0  0
    5.4116    3.4882    1.3000 H   0  0  0  0  0  0  0  0  0  0  0  0
  1  3  1  0  0  0  0
  1  4  1  0  0  0  0
  2  1  1  0  0  0  0
  4  7  1  6  0  0  0
  4 12  1  0  0  0  0
  5  9  2  0  0  0  0
  8 10  1  0  0  0  0
  8  1  1  0  0  0  0
  9  6  1  0  0  0  0
  9 10  1  0  0  0  0
 10 13  1  6  0  0  0
 10 11  1  0  0  0  0
 11 19  1  0  0  0  0
 11  4  1  0  0  0  0
 11 18  1  0  0  0  0
 12 16  1  0  0  0  0
 12 14  1  0  0  0  0
 15 12  1  0  0  0  0
 17  6  1  0  0  0  0
 20  8  1  0  0  0  0
 21  8  1  0  0  0  0
M  END
$$$$
