CSD_code = MEBBIG | q = 0 | S = 0 | Stoichiometry = C22H8F12Ti | MND = 12
 OpenBabel04212202063D

 43 46  0  0  1  0  0  0  0  0999 V2000
   -0.0994   -0.0685    1.8258 C   0  0  0  0  0  0  0  0  0  0  0  0
   -1.3928    0.3144    3.8287 Ti  0  0  0  0  0  0  0  0  0  0  0  0
    1.0137    1.4470   -0.3249 F   0  0  0  0  0  0  0  0  0  0  0  0
   -2.6321    1.5359    3.7174 F   0  0  0  0  0  0  0  0  0  0  0  0
    1.6500   -0.5528    3.8946 F   0  0  0  0  0  0  0  0  0  0  0  0
    3.5896    2.2718   -0.3313 F   0  0  0  0  0  0  0  0  0  0  0  0
    5.2369    1.6585    1.7518 F   0  0  0  0  0  0  0  0  0  0  0  0
    4.2620    0.2351    3.8763 F   0  0  0  0  0  0  0  0  0  0  0  0
    1.2816    0.3862    1.7689 C   0  0  0  0  0  0  0  0  0  0  0  0
   -0.5477   -1.3000    2.3785 C   0  0  1  0  0  0  0  0  0  0  0  0
    0.0888   -2.1385    2.6298 H   0  0  0  0  0  0  0  0  0  0  0  0
   -1.2418    0.6502    1.3875 C   0  0  0  0  0  0  0  0  0  0  0  0
   -1.2335    1.6210    0.9115 H   0  0  0  0  0  0  0  0  0  0  0  0
    3.1221    1.5660    0.6995 C   0  0  0  0  0  0  0  0  0  0  0  0
   -1.9511   -1.3468    2.2368 C   0  0  0  0  0  0  0  0  0  0  0  0
   -2.5721   -2.2188    2.3918 H   0  0  0  0  0  0  0  0  0  0  0  0
    3.4717    0.5229    2.8403 C   0  0  0  0  0  0  0  0  0  0  0  0
   -2.3711   -0.1454    1.6290 C   0  0  0  0  0  0  0  0  0  0  0  0
   -3.3828    0.1014    1.3430 H   0  0  0  0  0  0  0  0  0  0  0  0
    2.1511    0.1055    2.8259 C   0  0  0  0  0  0  0  0  0  0  0  0
    3.9666    1.2545    1.7624 C   0  0  0  0  0  0  0  0  0  0  0  0
    1.7996    1.1388    0.7112 C   0  0  0  0  0  0  0  0  0  0  0  0
   -2.6860   -0.0672    5.8327 C   0  0  1  0  0  3  0  0  0  0  0  0
   -3.8009    1.4451    7.9848 F   0  0  0  0  0  0  0  0  0  0  0  0
   -0.1529    1.5355    3.9393 F   0  0  0  0  0  0  0  0  0  0  0  0
   -4.4343   -0.5505    3.7630 F   0  0  0  0  0  0  0  0  0  0  0  0
   -6.3770    2.2690    7.9908 F   0  0  0  0  0  0  0  0  0  0  0  0
   -8.0227    1.6588    5.9055 F   0  0  0  0  0  0  0  0  0  0  0  0
   -7.0461    0.2381    3.7799 F   0  0  0  0  0  0  0  0  0  0  0  0
   -4.0672    0.3871    5.8895 C   0  0  0  0  0  0  0  0  0  0  0  0
   -2.2375   -1.2986    5.2800 C   0  0  2  0  0  0  0  0  0  0  0  0
   -2.8737   -2.1374    5.0291 H   0  0  0  0  0  0  0  0  0  0  0  0
   -1.5439    0.6520    6.2707 C   0  0  0  0  0  0  0  0  0  0  0  0
   -1.5526    1.6229    6.7464 H   0  0  0  0  0  0  0  0  0  0  0  0
   -5.9087    1.5650    6.9593 C   0  0  0  0  0  0  0  0  0  0  0  0
   -0.8339   -1.3448    5.4215 C   0  0  0  0  0  3  0  0  0  0  0  0
   -0.2126   -2.2167    5.2671 H   0  0  0  0  0  0  0  0  0  0  0  0
   -6.2566    0.5248    4.8168 C   0  0  0  0  0  0  0  0  0  0  0  0
   -0.4143   -0.1431    6.0289 C   0  0  0  0  0  0  0  0  0  0  0  0
    0.5975    0.1042    6.3145 H   0  0  0  0  0  0  0  0  0  0  0  0
   -4.9361    0.1073    4.8317 C   0  0  0  0  0  0  0  0  0  0  0  0
   -6.7523    1.2549    5.8953 C   0  0  0  0  0  0  0  0  0  0  0  0
   -4.5860    1.1382    6.9478 C   0  0  0  0  0  0  0  0  0  0  0  0
  1 10  1  0  0  0  0
  2 25  1  0  0  0  0
  2 31  1  0  0  0  0
  3 22  1  0  0  0  0
  4  2  1  0  0  0  0
  6 14  1  0  0  0  0
  7 21  1  0  0  0  0
  9  1  1  0  0  0  0
  9 20  1  0  0  0  0
 10 11  1  1  0  0  0
 10  2  1  0  0  0  0
 12 18  1  0  0  0  0
 12  1  2  0  0  0  0
 13 12  1  0  0  0  0
 14 22  1  0  0  0  0
 14 21  2  0  0  0  0
 15 10  1  0  0  0  0
 15 16  1  0  0  0  0
 17  8  1  0  0  0  0
 18 15  2  0  0  0  0
 19 18  1  0  0  0  0
 20 17  2  0  0  0  0
 20  5  1  0  0  0  0
 21 17  1  0  0  0  0
 22  9  2  0  0  0  0
 23 30  1  6  0  0  0
 23 33  1  0  0  0  0
 26 41  1  0  0  0  0
 29 38  1  0  0  0  0
 30 43  1  0  0  0  0
 31 32  1  6  0  0  0
 31 36  1  0  0  0  0
 31 23  1  0  0  0  0
 33 34  1  0  0  0  0
 35 27  1  0  0  0  0
 36 39  1  0  0  0  0
 37 36  1  0  0  0  0
 38 41  1  0  0  0  0
 38 42  2  0  0  0  0
 39 33  2  0  0  0  0
 39 40  1  0  0  0  0
 41 30  2  0  0  0  0
 42 28  1  0  0  0  0
 42 35  1  0  0  0  0
 43 35  2  0  0  0  0
 43 24  1  0  0  0  0
M  END
$$$$
