CSD_code = MEBXEX | q = 0 | S = 0 | Stoichiometry = C21H19ClCoN5O4 | MND = 6
 OpenBabel04212202063D

 51 55  0  0  0  0  0  0  0  0999 V2000
    4.8676    2.5151    7.2280 Co  0  0  0  0  0  0  0  0  0  0  0  0
    6.5993    1.4049    7.9542 Cl  0  0  0  0  0  0  0  0  0  0  0  0
    5.3260    4.4908    9.3433 O   0  0  0  0  0  0  0  0  0  0  0  0
    6.0966    2.5883    4.5742 O   0  0  0  0  0  0  0  0  0  0  0  0
    4.4996    0.7218    5.1630 O   0  0  0  0  0  1  0  0  0  0  0  0
    3.7538    2.5492    9.7524 O   0  0  0  0  0  1  0  0  0  0  0  0
    5.6046    4.0998    8.0852 N   0  0  0  0  0  0  0  0  0  0  0  0
    6.0017    3.1580    5.7899 N   0  0  0  0  0  0  0  0  0  0  0  0
    4.2778    0.9554    6.4028 N   0  0  0  0  0  0  0  0  0  0  0  0
    3.9049    1.8636    8.6812 N   0  0  0  0  0  0  0  0  0  0  0  0
    3.2946    3.5031    6.5780 N   0  0  0  0  0  0  0  0  0  0  0  0
    6.5190    4.7159    7.4127 C   0  0  0  0  0  0  0  0  0  0  0  0
    7.3202    5.8324    7.9358 C   0  0  0  0  0  0  0  0  0  0  0  0
    6.7007    6.9260    8.5342 C   0  0  0  0  0  0  0  0  0  0  0  0
    7.4616    7.9734    9.0190 C   0  0  0  0  0  0  0  0  0  0  0  0
    8.8423    7.9340    8.9226 C   0  0  0  0  0  0  0  0  0  0  0  0
    9.4637    6.8391    8.3438 C   0  0  0  0  0  0  0  0  0  0  0  0
    8.7100    5.7923    7.8486 C   0  0  0  0  0  0  0  0  0  0  0  0
    6.7382    4.1793    6.0764 C   0  0  0  0  0  0  0  0  0  0  0  0
    7.7202    4.7738    5.1575 C   0  0  0  0  0  0  0  0  0  0  0  0
    7.7224    6.1464    4.9198 C   0  0  0  0  0  0  0  0  0  0  0  0
    8.6550    6.6977    4.0619 C   0  0  0  0  0  0  0  0  0  0  0  0
    9.5945    5.8901    3.4416 C   0  0  0  0  0  0  0  0  0  0  0  0
    9.5928    4.5246    3.6727 C   0  0  0  0  0  0  0  0  0  0  0  0
    8.6570    3.9635    4.5213 C   0  0  0  0  0  0  0  0  0  0  0  0
    2.9412    3.4665    5.2920 C   0  0  0  0  0  3  0  0  0  0  0  0
    1.8881    4.2052    4.7829 C   0  0  0  0  0  0  0  0  0  0  0  0
    1.1600    5.0195    5.6351 C   0  0  0  0  0  0  0  0  0  0  0  0
    1.5178    5.0464    6.9735 C   0  0  0  0  0  0  0  0  0  0  0  0
    2.5845    4.2771    7.4014 C   0  0  0  0  0  0  0  0  0  0  0  0
    3.6229    0.1637    7.1875 C   0  0  0  0  0  0  0  0  0  0  0  0
    3.4106    0.6835    8.4948 C   0  0  0  0  0  0  0  0  0  0  0  0
    4.6984    3.7437    9.7081 H   0  0  0  0  0  0  0  0  0  0  0  0
    5.5040    1.7312    4.6500 H   0  0  0  0  0  0  0  0  0  0  0  0
    5.6243    6.9574    8.6102 H   0  0  0  0  0  0  0  0  0  0  0  0
    6.9741    8.8215    9.4765 H   0  0  0  0  0  0  0  0  0  0  0  0
    9.4345    8.7523    9.3044 H   0  0  0  0  0  0  0  0  0  0  0  0
   10.5407    6.8000    8.2784 H   0  0  0  0  0  0  0  0  0  0  0  0
    9.1946    4.9313    7.4143 H   0  0  0  0  0  0  0  0  0  0  0  0
    6.9862    6.7764    5.3974 H   0  0  0  0  0  0  0  0  0  0  0  0
    8.6501    7.7620    3.8790 H   0  0  0  0  0  0  0  0  0  0  0  0
   10.3255    6.3258    2.7769 H   0  0  0  0  0  0  0  0  0  0  0  0
   10.3230    3.8925    3.1900 H   0  0  0  0  0  0  0  0  0  0  0  0
    8.6575    2.9010    4.7086 H   0  0  0  0  0  0  0  0  0  0  0  0
    3.5044    2.8146    4.6383 H   0  0  0  0  0  0  0  0  0  0  0  0
    1.6481    4.1361    3.7341 H   0  0  0  0  0  0  0  0  0  0  0  0
    0.3344    5.6101    5.2687 H   0  0  0  0  0  0  0  0  0  0  0  0
    0.9797    5.6523    7.6847 H   0  0  0  0  0  0  0  0  0  0  0  0
    2.8604    4.2769    8.4474 H   0  0  0  0  0  0  0  0  0  0  0  0
    3.2556   -0.7959    6.8526 H   0  0  0  0  0  0  0  0  0  0  0  0
    2.8659    0.1633    9.2698 H   0  0  0  0  0  0  0  0  0  0  0  0
  1  2  1  0  0  0  0
  1  7  1  0  0  0  0
  1 10  1  0  0  0  0
  3 33  1  0  0  0  0
  4 34  1  0  0  0  0
  4  8  1  0  0  0  0
  5  9  1  0  0  0  0
  7  3  1  0  0  0  0
  8 19  1  0  0  0  0
  8  1  1  0  0  0  0
  9 31  1  0  0  0  0
  9  1  1  0  0  0  0
 10  6  1  0  0  0  0
 11  1  1  0  0  0  0
 11 30  1  0  0  0  0
 12 13  1  0  0  0  0
 12  7  1  0  0  0  0
 13 14  1  0  0  0  0
 14 35  1  0  0  0  0
 14 15  2  0  0  0  0
 15 36  1  0  0  0  0
 16 15  1  0  0  0  0
 16 37  1  0  0  0  0
 17 16  2  0  0  0  0
 18 13  2  0  0  0  0
 18 17  1  0  0  0  0
 19 12  2  0  0  0  0
 20 19  1  0  0  0  0
 21 20  1  0  0  0  0
 21 40  1  0  0  0  0
 22 21  2  0  0  0  0
 23 24  2  0  0  0  0
 23 22  1  0  0  0  0
 24 25  1  0  0  0  0
 25 44  1  0  0  0  0
 25 20  2  0  0  0  0
 26 11  1  0  0  0  0
 27 26  1  0  0  0  0
 27 28  2  0  0  0  0
 28 29  1  0  0  0  0
 29 30  2  0  0  0  0
 29 48  1  0  0  0  0
 30 49  1  0  0  0  0
 31 32  2  0  0  0  0
 32 10  1  0  0  0  0
 32 51  1  0  0  0  0
 38 17  1  0  0  0  0
 39 18  1  0  0  0  0
 41 22  1  0  0  0  0
 42 23  1  0  0  0  0
 43 24  1  0  0  0  0
 45 26  1  0  0  0  0
 46 27  1  0  0  0  0
 47 28  1  0  0  0  0
 50 31  1  0  0  0  0
M  END
$$$$
