CSD_code = MECDED | q = 0 | S = 0 | Stoichiometry = C34H28Cl2NPPd | MND = 4
 OpenBabel04212202063D

 67 73  0  0  1  0  0  0  0  0999 V2000
   -1.3375    7.2080    5.6900 Pd  0  0  0  0  0  0  0  0  0  0  0  0
   -3.2658    7.5309    4.5511 Cl  0  0  0  0  0  0  0  0  0  0  0  0
   -0.2743    6.7879    3.7204 Cl  0  0  0  0  0  0  0  0  0  0  0  0
   -2.7533    7.3531    7.4122 P   0  0  0  0  0  4  0  0  0  0  0  0
    0.1833    7.1455    7.2778 C   0  0  2  0  0  0  0  0  0  0  0  0
    0.9954    8.0509    6.5335 C   0  0  2  0  0  3  0  0  0  0  0  0
    1.9765    7.5310    5.6543 C   0  0  0  0  0  0  0  0  0  0  0  0
    2.1036    6.1913    5.4302 C   0  0  0  0  0  0  0  0  0  0  0  0
    1.3921    3.8713    5.8480 C   0  0  0  0  0  0  0  0  0  0  0  0
    0.6473    2.9705    6.5592 C   0  0  0  0  0  0  0  0  0  0  0  0
   -0.2141    3.4222    7.5664 C   0  0  0  0  0  0  0  0  0  0  0  0
   -0.3577    4.7617    7.8145 C   0  0  0  0  0  0  0  0  0  0  0  0
    0.3403    5.7235    7.0480 C   0  0  0  0  0  0  0  0  0  0  0  0
    1.2810    5.2536    6.0900 C   0  0  0  0  0  0  0  0  0  0  0  0
    0.9105    9.4206    6.7796 N   0  0  0  0  0  0  0  0  0  0  0  0
   -0.4176   10.0058    6.7243 C   0  0  0  0  0  0  0  0  0  0  0  0
    1.9253   10.2798    6.2049 C   0  0  0  0  0  0  0  0  0  0  0  0
   -0.3482    7.5270    8.6248 C   0  0  0  0  0  0  0  0  0  0  0  0
   -1.7059    7.5745    8.8852 C   0  0  0  0  0  0  0  0  0  0  0  0
   -2.1930    7.8396   10.1783 C   0  0  0  0  0  0  0  0  0  0  0  0
   -1.3194    8.0702   11.1999 C   0  0  0  0  0  0  0  0  0  0  0  0
    0.9842    8.2740   12.0310 C   0  0  0  0  0  0  0  0  0  0  0  0
    2.3324    8.2144   11.8187 C   0  0  0  0  0  0  0  0  0  0  0  0
    2.8289    7.9033   10.5442 C   0  0  0  0  0  0  0  0  0  0  0  0
    1.9750    7.6721    9.5024 C   0  0  0  0  0  0  0  0  0  0  0  0
    0.5765    7.7436    9.6820 C   0  0  0  0  0  0  0  0  0  0  0  0
    0.0746    8.0353   10.9802 C   0  0  0  0  0  0  0  0  0  0  0  0
   -4.1413    8.4934    7.6336 C   0  0  0  0  0  0  0  0  0  0  0  0
   -5.3707    8.1696    7.0639 C   0  0  0  0  0  0  0  0  0  0  0  0
   -6.4290    9.0532    7.1574 C   0  0  0  0  0  0  0  0  0  0  0  0
   -6.2698   10.2648    7.8109 C   0  0  0  0  0  0  0  0  0  0  0  0
   -5.0450   10.5959    8.3669 C   0  0  0  0  0  0  0  0  0  0  0  0
   -3.9800    9.7188    8.2743 C   0  0  0  0  0  0  0  0  0  0  0  0
   -3.5180    5.7091    7.5746 C   0  0  0  0  0  0  0  0  0  0  0  0
   -3.1953    4.7375    6.6288 C   0  0  0  0  0  0  0  0  0  0  0  0
   -3.7356    3.4684    6.7354 C   0  0  0  0  0  0  0  0  0  0  0  0
   -4.5892    3.1627    7.7830 C   0  0  0  0  0  0  0  0  0  0  0  0
   -4.9111    4.1277    8.7244 C   0  0  0  0  0  0  0  0  0  0  0  0
   -4.3796    5.4002    8.6227 C   0  0  0  0  0  0  0  0  0  0  0  0
    2.6056    8.2061    5.0992 H   0  0  0  0  0  0  0  0  0  0  0  0
    2.8366    5.8311    4.7245 H   0  0  0  0  0  0  0  0  0  0  0  0
    2.0808    3.5395    5.0851 H   0  0  0  0  0  0  0  0  0  0  0  0
    0.7321    1.9124    6.3631 H   0  0  0  0  0  0  0  0  0  0  0  0
   -0.7720    2.7077    8.1540 H   0  0  0  0  0  0  0  0  0  0  0  0
   -1.0128    5.0875    8.6118 H   0  0  0  0  0  0  0  0  0  0  0  0
   -0.3336   11.0899    6.7755 H   0  0  0  0  0  0  0  0  0  0  0  0
   -1.0186    9.6770    7.5750 H   0  0  0  0  0  0  0  0  0  0  0  0
   -0.9418    9.7413    5.7726 H   0  0  0  0  0  0  0  0  0  0  0  0
    1.8385   11.2617    6.6699 H   0  0  0  0  0  0  0  0  0  0  0  0
    1.8229   10.3975    5.1193 H   0  0  0  0  0  0  0  0  0  0  0  0
    2.9137    9.8877    6.4370 H   0  0  0  0  0  0  0  0  0  0  0  0
   -3.2601    7.8709   10.3453 H   0  0  0  0  0  0  0  0  0  0  0  0
   -1.6825    8.2826   12.1951 H   0  0  0  0  0  0  0  0  0  0  0  0
    0.5906    8.5020   13.0111 H   0  0  0  0  0  0  0  0  0  0  0  0
    3.0222    8.3981   12.6291 H   0  0  0  0  0  0  0  0  0  0  0  0
    3.8963    7.8444   10.3914 H   0  0  0  0  0  0  0  0  0  0  0  0
    2.3674    7.4259    8.5282 H   0  0  0  0  0  0  0  0  0  0  0  0
   -5.4825    7.2324    6.5379 H   0  0  0  0  0  0  0  0  0  0  0  0
   -7.3801    8.7991    6.7137 H   0  0  0  0  0  0  0  0  0  0  0  0
   -7.0976   10.9546    7.8810 H   0  0  0  0  0  0  0  0  0  0  0  0
   -4.9163   11.5435    8.8694 H   0  0  0  0  0  0  0  0  0  0  0  0
   -3.0248    9.9858    8.7069 H   0  0  0  0  0  0  0  0  0  0  0  0
   -2.5268    4.9802    5.7936 H   0  0  0  0  0  0  0  0  0  0  0  0
   -3.4905    2.7175    5.9995 H   0  0  0  0  0  0  0  0  0  0  0  0
   -5.0096    2.1712    7.8650 H   0  0  0  0  0  0  0  0  0  0  0  0
   -5.5803    3.8884    9.5379 H   0  0  0  0  0  0  0  0  0  0  0  0
   -4.6387    6.1578    9.3492 H   0  0  0  0  0  0  0  0  0  0  0  0
  1  5  1  0  0  0  0
  1  4  1  0  0  0  0
  2  1  1  0  0  0  0
  3  1  1  0  0  0  0
  4 34  1  0  0  0  0
  4 28  1  0  0  0  0
  4 19  1  0  0  0  0
  5 13  1  1  0  0  0
  5 18  1  0  0  0  0
  6 15  1  1  0  0  0
  6  5  1  0  0  0  0
  7  6  1  0  0  0  0
  8  7  2  0  0  0  0
  8 14  1  0  0  0  0
  9 14  2  0  0  0  0
  9 10  1  0  0  0  0
 10 11  2  0  0  0  0
 11 12  1  0  0  0  0
 11 44  1  0  0  0  0
 12 45  1  0  0  0  0
 13 12  2  0  0  0  0
 14 13  1  0  0  0  0
 16 46  1  0  0  0  0
 16 15  1  0  0  0  0
 16 47  1  0  0  0  0
 17 51  1  0  0  0  0
 17 49  1  0  0  0  0
 17 15  1  0  0  0  0
 18 19  2  0  0  0  0
 18 26  1  0  0  0  0
 19 20  1  0  0  0  0
 20 52  1  0  0  0  0
 20 21  2  0  0  0  0
 21 53  1  0  0  0  0
 22 54  1  0  0  0  0
 23 22  1  0  0  0  0
 23 55  1  0  0  0  0
 24 23  2  0  0  0  0
 25 26  2  0  0  0  0
 25 24  1  0  0  0  0
 26 27  1  0  0  0  0
 27 21  1  0  0  0  0
 27 22  2  0  0  0  0
 28 33  1  0  0  0  0
 29 30  1  0  0  0  0
 29 28  2  0  0  0  0
 30 31  2  0  0  0  0
 31 60  1  0  0  0  0
 31 32  1  0  0  0  0
 32 61  1  0  0  0  0
 33 32  2  0  0  0  0
 33 62  1  0  0  0  0
 34 39  1  0  0  0  0
 35 36  1  0  0  0  0
 35 34  2  0  0  0  0
 36 37  2  0  0  0  0
 37 65  1  0  0  0  0
 37 38  1  0  0  0  0
 38 66  1  0  0  0  0
 39 38  2  0  0  0  0
 39 67  1  0  0  0  0
 40  7  1  0  0  0  0
 41  8  1  0  0  0  0
 42  9  1  0  0  0  0
 43 10  1  0  0  0  0
 48 16  1  0  0  0  0
 50 17  1  0  0  0  0
 56 24  1  0  0  0  0
 57 25  1  0  0  0  0
 58 29  1  0  0  0  0
 59 30  1  0  0  0  0
 63 35  1  0  0  0  0
 64 36  1  0  0  0  0
M  END
$$$$
