CSD_code = MECJOU | q = 0 | S = 0 | Stoichiometry = C22H22Cl2SiZr | MND = 12
 OpenBabel04212202063D

 48 52  0  0  1  0  0  0  0  0999 V2000
   13.5473    3.3599    9.2917 Zr  0  0  0  0  0  0  0  0  0  0  0  0
   14.7474    1.3739    9.0584 Cl  0  0  0  0  0  0  0  0  0  0  0  0
   15.4319    4.5151   10.0888 Cl  0  0  0  0  0  0  0  0  0  0  0  0
   11.0496    5.4168    9.2109 Si  0  0  0  0  0  0  0  0  0  0  0  0
   11.5519    4.1001   10.4801 C   0  0  2  0  0  3  0  0  0  0  0  0
   12.6571    4.2616   11.3712 C   0  0  1  0  0  0  0  0  0  0  0  0
   12.9965    5.2129   11.7694 H   0  0  0  0  0  0  0  0  0  0  0  0
   13.1979    3.0123   11.7314 C   0  0  2  0  0  3  0  0  0  0  0  0
   12.4102    2.0073   11.0843 C   0  0  0  0  0  0  0  0  0  0  0  0
   11.3868    2.6803   10.3117 C   0  0  0  0  0  0  0  0  0  0  0  0
   12.4597    0.5999   11.1199 C   0  0  0  0  0  0  0  0  0  0  0  0
   13.2174    0.0978   11.7062 H   0  0  0  0  0  0  0  0  0  0  0  0
   11.5178   -0.1146   10.4234 C   0  0  0  0  0  0  0  0  0  0  0  0
   11.5420   -1.1936   10.4378 H   0  0  0  0  0  0  0  0  0  0  0  0
   10.4866    0.5331    9.7221 C   0  0  0  0  0  0  0  0  0  0  0  0
    9.7325   -0.0661    9.2340 H   0  0  0  0  0  0  0  0  0  0  0  0
   10.4032    1.9030    9.6718 C   0  0  0  0  0  0  0  0  0  0  0  0
    9.5559    2.3814    9.2029 H   0  0  0  0  0  0  0  0  0  0  0  0
   14.3628    2.7530   12.6410 C   0  0  0  0  0  0  0  0  0  0  0  0
   14.8348    3.6911   12.9310 H   0  0  0  0  0  0  0  0  0  0  0  0
   15.1075    2.1315   12.1327 H   0  0  0  0  0  0  0  0  0  0  0  0
   14.0418    2.2284   13.5433 H   0  0  0  0  0  0  0  0  0  0  0  0
   12.2248    4.8154    7.8495 C   0  0  1  0  0  3  0  0  0  0  0  0
   13.5847    5.2425    7.7514 C   0  0  2  0  0  0  0  0  0  0  0  0
   13.9502    6.2180    8.0577 H   0  0  0  0  0  0  0  0  0  0  0  0
   14.3755    4.2587    7.1267 C   0  0  1  0  0  3  0  0  0  0  0  0
   13.5074    3.1741    6.7808 C   0  0  0  0  0  0  0  0  0  0  0  0
   12.1730    3.5205    7.2239 C   0  0  0  0  0  0  0  0  0  0  0  0
   13.7352    1.9599    6.1038 C   0  0  0  0  0  0  0  0  0  0  0  0
   14.7301    1.7061    5.7636 H   0  0  0  0  0  0  0  0  0  0  0  0
   12.6726    1.1262    5.8618 C   0  0  0  0  0  0  0  0  0  0  0  0
   12.8292    0.1912    5.3457 H   0  0  0  0  0  0  0  0  0  0  0  0
   11.3663    1.4866    6.2339 C   0  0  0  0  0  0  0  0  0  0  0  0
   10.5504    0.8290    5.9739 H   0  0  0  0  0  0  0  0  0  0  0  0
   11.1067    2.6649    6.8899 C   0  0  0  0  0  0  0  0  0  0  0  0
   10.0888    2.9660    7.0899 H   0  0  0  0  0  0  0  0  0  0  0  0
   15.8473    4.3208    6.8404 C   0  0  0  0  0  0  0  0  0  0  0  0
   16.0336    4.3259    5.7645 H   0  0  0  0  0  0  0  0  0  0  0  0
   16.3524    3.4488    7.2691 H   0  0  0  0  0  0  0  0  0  0  0  0
   16.2815    5.2204    7.2749 H   0  0  0  0  0  0  0  0  0  0  0  0
   11.6437    7.1228    9.8238 C   0  0  0  0  0  0  0  0  0  0  0  0
   12.6953    7.1076   10.0985 H   0  0  0  0  0  0  0  0  0  0  0  0
   11.0775    7.4411   10.6921 H   0  0  0  0  0  0  0  0  0  0  0  0
   11.5112    7.8772    9.0562 H   0  0  0  0  0  0  0  0  0  0  0  0
    9.2016    5.4774    8.7552 C   0  0  0  0  0  0  0  0  0  0  0  0
    8.6127    5.7795    9.6144 H   0  0  0  0  0  0  0  0  0  0  0  0
    8.8165    4.5244    8.4128 H   0  0  0  0  0  0  0  0  0  0  0  0
    9.0324    6.2025    7.9665 H   0  0  0  0  0  0  0  0  0  0  0  0
  1  3  1  0  0  0  0
  1  6  1  0  0  0  0
  2  1  1  0  0  0  0
  4 41  1  0  0  0  0
  4  5  1  0  0  0  0
  5 10  1  6  0  0  0
  5  6  1  0  0  0  0
  6  8  1  0  0  0  0
  6  7  1  1  0  0  0
  8 19  1  1  0  0  0
  9 11  1  0  0  0  0
  9  8  1  0  0  0  0
 10  9  2  0  0  0  0
 11 12  1  0  0  0  0
 13 14  1  0  0  0  0
 13 11  2  0  0  0  0
 15 13  1  0  0  0  0
 16 15  1  0  0  0  0
 17 15  2  0  0  0  0
 17 10  1  0  0  0  0
 18 17  1  0  0  0  0
 19 20  1  0  0  0  0
 19 22  1  0  0  0  0
 21 19  1  0  0  0  0
 23 28  1  1  0  0  0
 23  4  1  0  0  0  0
 24 23  1  0  0  0  0
 24 25  1  1  0  0  0
 24  1  1  0  0  0  0
 26 37  1  6  0  0  0
 26 24  1  0  0  0  0
 27 26  1  0  0  0  0
 27 28  1  0  0  0  0
 29 27  2  0  0  0  0
 30 29  1  0  0  0  0
 31 29  1  0  0  0  0
 31 33  2  0  0  0  0
 32 31  1  0  0  0  0
 33 35  1  0  0  0  0
 34 33  1  0  0  0  0
 35 36  1  0  0  0  0
 35 28  2  0  0  0  0
 37 39  1  0  0  0  0
 37 40  1  0  0  0  0
 38 37  1  0  0  0  0
 41 42  1  0  0  0  0
 41 43  1  0  0  0  0
 44 41  1  0  0  0  0
 45  4  1  0  0  0  0
 45 46  1  0  0  0  0
 47 45  1  0  0  0  0
 48 45  1  0  0  0  0
M  END
$$$$
