CSD_code = MECPAM | q = 0 | S = 0 | Stoichiometry = C14H21ClMoN4O2S | MND = 6
 OpenBabel04212202063D

 44 47  0  0  1  0  0  0  0  0999 V2000
   -0.0500    3.7868    0.6099 Mo  0  0  0  0  0  0  0  0  0  0  0  0
   -2.3078    3.7865    1.2117 Cl  0  0  0  0  0  0  0  0  0  0  0  0
    0.4814    5.1277    1.4003 O   0  0  0  0  0  1  0  0  0  0  0  0
    1.8479    3.7903   -0.9847 S   0  0  0  0  0  0  0  0  0  0  0  0
   -0.9072    5.1662   -0.9686 N   0  0  0  0  0  0  0  0  0  0  0  0
   -0.9040    4.9613   -2.3021 N   0  0  1  0  0  0  0  0  0  0  0  0
   -1.6374    6.0597   -4.4345 C   0  0  0  0  0  0  0  0  0  0  0  0
   -2.2310    5.2219   -4.8007 H   0  0  0  0  0  0  0  0  0  0  0  0
   -0.6723    6.0509   -4.9392 H   0  0  0  0  0  0  0  0  0  0  0  0
   -2.1516    6.9804   -4.6949 H   0  0  0  0  0  0  0  0  0  0  0  0
   -1.4770    5.9986   -2.9598 C   0  0  1  0  0  3  0  0  0  0  0  0
   -1.8569    6.9031   -1.9957 C   0  0  0  0  0  0  0  0  0  0  0  0
   -2.3427    7.8441   -2.1506 H   0  0  0  0  0  0  0  0  0  0  0  0
   -1.4862    6.3456   -0.7618 C   0  0  0  0  0  0  0  0  0  0  0  0
   -1.6891    6.9380    0.5781 C   0  0  0  0  0  0  0  0  0  0  0  0
   -0.8235    6.7198    1.2074 H   0  0  0  0  0  0  0  0  0  0  0  0
   -2.5648    6.4940    1.0543 H   0  0  0  0  0  0  0  0  0  0  0  0
   -1.8344    8.0119    0.4947 H   0  0  0  0  0  0  0  0  0  0  0  0
   -0.2993    3.7871   -2.8717 C   0  0  1  0  0  0  0  0  0  0  0  0
   -0.5418    3.7871   -3.9421 H   0  0  0  0  0  0  0  0  0  0  0  0
    1.2496    3.7870   -2.7450 C   0  0  0  0  0  0  0  0  0  0  0  0
    1.8032    5.0397   -3.4224 C   0  0  0  0  0  0  0  0  0  0  0  0
    2.8831    5.0403   -3.3131 H   0  0  0  0  0  0  0  0  0  0  0  0
    1.4223    5.9387   -2.9442 H   0  0  0  0  0  0  0  0  0  0  0  0
    1.5568    5.0566   -4.4838 H   0  0  0  0  0  0  0  0  0  0  0  0
    0.4826    2.4454    1.3988 O   0  0  0  0  0  1  0  0  0  0  0  0
   -0.9063    2.4073   -0.9689 N   0  0  0  0  0  0  0  0  0  0  0  0
   -0.9039    2.6127   -2.3022 N   0  0  2  0  0  0  0  0  0  0  0  0
   -1.6382    1.5151   -4.4348 C   0  0  0  0  0  0  0  0  0  0  0  0
   -2.2320    2.3530   -4.8005 H   0  0  0  0  0  0  0  0  0  0  0  0
   -0.6733    1.5241   -4.9398 H   0  0  0  0  0  0  0  0  0  0  0  0
   -2.1524    0.5945   -4.6953 H   0  0  0  0  0  0  0  0  0  0  0  0
   -1.4772    1.5757   -2.9601 C   0  0  2  0  0  3  0  0  0  0  0  0
   -1.8567    0.6708   -1.9962 C   0  0  0  0  0  0  0  0  0  0  0  0
   -2.3426   -0.2701   -2.1513 H   0  0  0  0  0  0  0  0  0  0  0  0
   -1.4853    1.2278   -0.7622 C   0  0  0  0  0  0  0  0  0  0  0  0
   -1.6877    0.6348    0.5775 C   0  0  0  0  0  0  0  0  0  0  0  0
   -0.8220    0.8529    1.2066 H   0  0  0  0  0  0  0  0  0  0  0  0
   -2.5634    1.0785    1.0540 H   0  0  0  0  0  0  0  0  0  0  0  0
   -1.8329   -0.4391    0.4937 H   0  0  0  0  0  0  0  0  0  0  0  0
    1.8031    2.5322   -3.4184 C   0  0  0  0  0  0  0  0  0  0  0  0
    2.8830    2.5320   -3.3096 H   0  0  0  0  0  0  0  0  0  0  0  0
    1.4225    1.6346   -2.9371 H   0  0  0  0  0  0  0  0  0  0  0  0
    1.5562    2.5117   -4.4796 H   0  0  0  0  0  0  0  0  0  0  0  0
  1  2  1  0  0  0  0
  1 26  1  0  0  0  0
  1  3  1  0  0  0  0
  4  1  1  0  0  0  0
  5 14  1  0  0  0  0
  5  1  1  0  0  0  0
  6  5  1  6  0  0  0
  8  7  1  0  0  0  0
  9  7  1  0  0  0  0
 10  7  1  0  0  0  0
 11  7  1  1  0  0  0
 11  6  1  0  0  0  0
 11 12  1  0  0  0  0
 12 14  2  0  0  0  0
 13 12  1  0  0  0  0
 14 15  1  0  0  0  0
 15 17  1  0  0  0  0
 15 16  1  0  0  0  0
 18 15  1  0  0  0  0
 19 20  1  6  0  0  0
 19 21  1  0  0  0  0
 19 28  1  0  0  0  0
 19  6  1  0  0  0  0
 21  4  1  0  0  0  0
 22 23  1  0  0  0  0
 22 24  1  0  0  0  0
 22 21  1  0  0  0  0
 25 22  1  0  0  0  0
 27 36  1  0  0  0  0
 27  1  1  0  0  0  0
 28 27  1  6  0  0  0
 30 29  1  0  0  0  0
 31 29  1  0  0  0  0
 32 29  1  0  0  0  0
 33 29  1  1  0  0  0
 33 28  1  0  0  0  0
 33 34  1  0  0  0  0
 34 36  2  0  0  0  0
 35 34  1  0  0  0  0
 36 37  1  0  0  0  0
 37 39  1  0  0  0  0
 37 38  1  0  0  0  0
 40 37  1  0  0  0  0
 41 42  1  0  0  0  0
 41 43  1  0  0  0  0
 41 21  1  0  0  0  0
 44 41  1  0  0  0  0
M  END
$$$$
