CSD_code = MECROE | q = 0 | S = 0 | Stoichiometry = C19H33ClN4P2Pt | MND = 4
 OpenBabel04212202063D

 60 63  0  0  1  0  0  0  0  0999 V2000
   -0.5045   10.9513   10.6765 C   0  0  2  0  0  0  0  0  0  0  0  0
   -1.0391   11.6858   11.3143 H   0  0  0  0  0  0  0  0  0  0  0  0
    1.8011   11.3738   11.3734 C   0  0  0  0  0  0  0  0  0  0  0  0
    2.2071    9.8767   12.8219 C   0  0  0  0  0  0  0  0  0  0  0  0
    2.7661    9.3347   13.5587 H   0  0  0  0  0  0  0  0  0  0  0  0
    0.9501    9.6171   12.3376 C   0  0  0  0  0  0  0  0  0  0  0  0
    0.2754    8.8210   12.5716 H   0  0  0  0  0  0  0  0  0  0  0  0
    3.4874   12.4661    9.3276 C   0  0  0  0  0  0  0  0  0  0  0  0
    3.5303   13.2089    8.5211 H   0  0  0  0  0  0  0  0  0  0  0  0
    3.4878   11.0711    8.7042 C   0  0  0  0  0  0  0  0  0  0  0  0
    4.3561   10.9344    8.0633 H   0  0  0  0  0  0  0  0  0  0  0  0
    2.5867   10.9411    8.0955 H   0  0  0  0  0  0  0  0  0  0  0  0
    3.5043   10.3081    9.4809 H   0  0  0  0  0  0  0  0  0  0  0  0
    4.6431   12.6560   10.3025 C   0  0  0  0  0  0  0  0  0  0  0  0
    4.4937   12.0277   11.1791 H   0  0  0  0  0  0  0  0  0  0  0  0
    4.7302   13.6922   10.6213 H   0  0  0  0  0  0  0  0  0  0  0  0
    5.5774   12.3709    9.8220 H   0  0  0  0  0  0  0  0  0  0  0  0
    1.8717   14.2575   11.0740 C   0  0  0  0  0  0  0  0  0  0  0  0
    2.6949   14.2057   11.7955 H   0  0  0  0  0  0  0  0  0  0  0  0
    2.0705   15.4120   10.0972 C   0  0  0  0  0  0  0  0  0  0  0  0
    1.3299   15.3560    9.2993 H   0  0  0  0  0  0  0  0  0  0  0  0
    3.0595   15.3803    9.6454 H   0  0  0  0  0  0  0  0  0  0  0  0
    1.9571   16.3670   10.6074 H   0  0  0  0  0  0  0  0  0  0  0  0
    0.5438   14.3814   11.8162 C   0  0  0  0  0  0  0  0  0  0  0  0
    0.4903   15.3267   12.3531 H   0  0  0  0  0  0  0  0  0  0  0  0
    0.4299   13.5715   12.5362 H   0  0  0  0  0  0  0  0  0  0  0  0
   -0.2845   14.3408   11.1059 H   0  0  0  0  0  0  0  0  0  0  0  0
   -1.9492    9.5533    9.2445 C   0  0  0  0  0  0  0  0  0  0  0  0
   -2.0498    9.0450   11.3579 C   0  0  0  0  0  0  0  0  0  0  0  0
   -1.8801    9.0916   12.4141 H   0  0  0  0  0  0  0  0  0  0  0  0
   -2.9088    8.2643   10.6310 C   0  0  0  0  0  0  0  0  0  0  0  0
   -3.5698    7.4935   10.9750 H   0  0  0  0  0  0  0  0  0  0  0  0
   -1.0288    9.3429    6.5464 C   0  0  0  0  0  0  0  0  0  0  0  0
   -1.8561    8.6249    6.4882 H   0  0  0  0  0  0  0  0  0  0  0  0
   -0.8117   10.0455    5.2109 C   0  0  0  0  0  0  0  0  0  0  0  0
   -0.1000   10.8619    5.3306 H   0  0  0  0  0  0  0  0  0  0  0  0
   -1.7425   10.4545    4.8235 H   0  0  0  0  0  0  0  0  0  0  0  0
   -0.4150    9.3459    4.4773 H   0  0  0  0  0  0  0  0  0  0  0  0
    0.2387    8.6347    7.0188 C   0  0  0  0  0  0  0  0  0  0  0  0
    0.5697    7.9035    6.2840 H   0  0  0  0  0  0  0  0  0  0  0  0
    0.0621    8.1202    7.9629 H   0  0  0  0  0  0  0  0  0  0  0  0
    1.0366    9.3654    7.1623 H   0  0  0  0  0  0  0  0  0  0  0  0
   -3.0108   11.4320    7.3363 C   0  0  0  0  0  0  0  0  0  0  0  0
   -2.7465   12.0224    6.4502 H   0  0  0  0  0  0  0  0  0  0  0  0
   -3.3579   12.3916    8.4745 C   0  0  0  0  0  0  0  0  0  0  0  0
   -4.1632   13.0639    8.1855 H   0  0  0  0  0  0  0  0  0  0  0  0
   -2.4781   12.9947    8.7310 H   0  0  0  0  0  0  0  0  0  0  0  0
   -3.6717   11.8363    9.3580 H   0  0  0  0  0  0  0  0  0  0  0  0
   -4.1459   10.4682    7.0157 C   0  0  0  0  0  0  0  0  0  0  0  0
   -4.2737    9.7506    7.8245 H   0  0  0  0  0  0  0  0  0  0  0  0
   -3.9463    9.9188    6.0989 H   0  0  0  0  0  0  0  0  0  0  0  0
   -5.0753   11.0200    6.8858 H   0  0  0  0  0  0  0  0  0  0  0  0
    0.7417   12.9635    6.9340 Cl  0  0  0  0  0  0  0  0  0  0  0  0
    0.6954   10.5746   11.4074 N   0  0  0  0  0  0  0  0  0  0  0  0
    2.7219   10.9726   12.2228 N   0  0  0  0  0  0  0  0  0  0  0  0
   -1.4197    9.8563   10.4628 N   0  0  0  0  0  0  0  0  0  0  0  0
   -2.8437    8.5939    9.3208 N   0  0  0  0  0  0  0  0  0  0  0  0
    1.8349   12.6683   10.1261 P   0  0  0  0  0  4  0  0  0  0  0  0
   -1.4577   10.5724    7.8524 P   0  0  0  0  0  4  0  0  0  0  0  0
    0.1000   11.8571    8.8868 Pt  0  0  1  0  0  0  0  0  0  0  0  0
  1  2  1  1  0  0  0
  1 54  1  0  0  0  0
  3 54  1  0  0  0  0
  3 55  2  0  0  0  0
  4  5  1  0  0  0  0
  6  7  1  0  0  0  0
  6  4  2  0  0  0  0
  8 58  1  0  0  0  0
  8 14  1  0  0  0  0
  9  8  1  0  0  0  0
 10  8  1  0  0  0  0
 10 13  1  0  0  0  0
 11 10  1  0  0  0  0
 12 10  1  0  0  0  0
 14 16  1  0  0  0  0
 14 15  1  0  0  0  0
 17 14  1  0  0  0  0
 18 19  1  0  0  0  0
 18 24  1  0  0  0  0
 20 23  1  0  0  0  0
 20 18  1  0  0  0  0
 21 20  1  0  0  0  0
 22 20  1  0  0  0  0
 24 25  1  0  0  0  0
 24 26  1  0  0  0  0
 27 24  1  0  0  0  0
 28 57  2  0  0  0  0
 28 56  1  0  0  0  0
 29 30  1  0  0  0  0
 31 32  1  0  0  0  0
 31 29  2  0  0  0  0
 33 39  1  0  0  0  0
 33 59  1  0  0  0  0
 34 33  1  0  0  0  0
 35 36  1  0  0  0  0
 35 33  1  0  0  0  0
 37 35  1  0  0  0  0
 38 35  1  0  0  0  0
 39 42  1  0  0  0  0
 39 41  1  0  0  0  0
 40 39  1  0  0  0  0
 43 59  1  0  0  0  0
 43 45  1  0  0  0  0
 44 43  1  0  0  0  0
 45 47  1  0  0  0  0
 45 48  1  0  0  0  0
 46 45  1  0  0  0  0
 49 43  1  0  0  0  0
 49 50  1  0  0  0  0
 51 49  1  0  0  0  0
 52 49  1  0  0  0  0
 54  6  1  0  0  0  0
 55  4  1  0  0  0  0
 56  1  1  0  0  0  0
 56 29  1  0  0  0  0
 57 31  1  0  0  0  0
 58 18  1  0  0  0  0
 58  3  1  0  0  0  0
 59 60  1  0  0  0  0
 59 28  1  0  0  0  0
 60 53  1  1  0  0  0
 60 58  1  0  0  0  0
 60  1  1  0  0  0  0
M  END
$$$$
