CSD_code = MEDKOX | q = 0 | S = 0 | Stoichiometry = C17H17ClN2Pd | MND = 4
 OpenBabel04212202063D

 38 41  0  0  1  0  0  0  0  0999 V2000
    6.4501    9.1542    3.1832 Pd  0  0  1  0  0  0  0  0  0  0  0  0
    5.8104    7.0126    3.8610 Cl  0  0  0  0  0  0  0  0  0  0  0  0
    6.9329    9.6253    5.1270 N   0  0  0  0  0  4  0  0  0  0  0  0
    6.4346    9.0125    5.7789 H   0  0  0  0  0  0  0  0  0  0  0  0
    7.9380    9.4715    5.2485 H   0  0  0  0  0  0  0  0  0  0  0  0
    6.1236    8.6360    1.3408 N   0  0  0  0  0  0  0  0  0  0  0  0
    7.0087   11.0584    2.8817 C   0  0  0  0  0  0  0  0  0  0  0  0
    7.0410   11.7843    4.0840 C   0  0  0  0  0  0  0  0  0  0  0  0
    7.4382   13.1111    4.1180 C   0  0  0  0  0  0  0  0  0  0  0  0
    7.4570   13.6472    5.0577 H   0  0  0  0  0  0  0  0  0  0  0  0
    7.8118   13.7466    2.9459 C   0  0  0  0  0  0  0  0  0  0  0  0
    8.1222   14.7812    2.9669 H   0  0  0  0  0  0  0  0  0  0  0  0
    7.7871   13.0503    1.7510 C   0  0  0  0  0  0  0  0  0  0  0  0
    8.0777   13.5450    0.8345 H   0  0  0  0  0  0  0  0  0  0  0  0
    7.3933   11.7197    1.7205 C   0  0  0  0  0  0  0  0  0  0  0  0
    7.3837   11.1994    0.7689 H   0  0  0  0  0  0  0  0  0  0  0  0
    6.5853   11.0436    5.3234 C   0  0  1  0  0  0  0  0  0  0  0  0
    7.0588   11.4510    6.2312 H   0  0  0  0  0  0  0  0  0  0  0  0
    5.0634   11.1317    5.4561 C   0  0  0  0  0  0  0  0  0  0  0  0
    4.7393   12.1689    5.4426 H   0  0  0  0  0  0  0  0  0  0  0  0
    4.7247   10.6675    6.3811 H   0  0  0  0  0  0  0  0  0  0  0  0
    4.6105   10.6043    4.6048 H   0  0  0  0  0  0  0  0  0  0  0  0
    4.8557    8.4750    0.8837 C   0  0  0  0  0  0  0  0  0  0  0  0
    3.7897    9.0557    1.5995 C   0  0  0  0  0  0  0  0  0  0  0  0
    4.0327    9.6332    2.4974 H   0  0  0  0  0  0  0  0  0  0  0  0
    2.5005    8.8831    1.1768 C   0  0  0  0  0  0  0  0  0  0  0  0
    1.6829    9.3188    1.7309 H   0  0  0  0  0  0  0  0  0  0  0  0
    2.2267    8.1378    0.0185 C   0  0  0  0  0  0  0  0  0  0  0  0
    1.2024    8.0123   -0.2987 H   0  0  0  0  0  0  0  0  0  0  0  0
    3.2430    7.5762   -0.7033 C   0  0  0  0  0  3  0  0  0  0  0  0
    3.0379    7.0029   -1.5954 H   0  0  0  0  0  0  0  0  0  0  0  0
    4.5834    7.7261   -0.2916 C   0  0  0  0  0  0  0  0  0  0  0  0
    5.6737    7.1518   -0.9761 C   0  0  0  0  0  0  0  0  0  0  0  0
    5.4951    6.5670   -1.8661 H   0  0  0  0  0  0  0  0  0  0  0  0
    6.9413    7.3401   -0.4892 C   0  0  0  0  0  0  0  0  0  0  0  0
    7.7993    6.9109   -0.9824 H   0  0  0  0  0  0  0  0  0  0  0  0
    7.1249    8.0925    0.6769 C   0  0  0  0  0  0  0  0  0  0  0  0
    8.1254    8.2509    1.0803 H   0  0  0  0  0  0  0  0  0  0  0  0
  1  2  1  1  0  0  0
  1  3  1  0  0  0  0
  3  5  1  0  0  0  0
  3 17  1  0  0  0  0
  3  4  1  0  0  0  0
  6  1  1  0  0  0  0
  7  1  1  0  0  0  0
  7  8  1  0  0  0  0
  8  9  2  0  0  0  0
  8 17  1  0  0  0  0
  9 10  1  0  0  0  0
 11 12  1  0  0  0  0
 11  9  1  0  0  0  0
 13 11  2  0  0  0  0
 14 13  1  0  0  0  0
 15 13  1  0  0  0  0
 15  7  2  0  0  0  0
 16 15  1  0  0  0  0
 17 19  1  0  0  0  0
 17 18  1  1  0  0  0
 19 21  1  0  0  0  0
 20 19  1  0  0  0  0
 22 19  1  0  0  0  0
 23  6  1  0  0  0  0
 23 24  2  0  0  0  0
 24 25  1  0  0  0  0
 26 24  1  0  0  0  0
 26 27  1  0  0  0  0
 28 26  2  0  0  0  0
 29 28  1  0  0  0  0
 30 32  1  0  0  0  0
 30 28  1  0  0  0  0
 31 30  1  0  0  0  0
 32 23  1  0  0  0  0
 33 35  1  0  0  0  0
 33 32  2  0  0  0  0
 34 33  1  0  0  0  0
 35 37  2  0  0  0  0
 36 35  1  0  0  0  0
 37 38  1  0  0  0  0
 37  6  1  0  0  0  0
M  END
$$$$
