CSD_code = MEDZIF | q = 0 | S = 0 | Stoichiometry = C18H26I2PtS2Si2 | MND = 4
 OpenBabel04212202063D

 51 53  0  0  0  0  0  0  0  0999 V2000
    6.0637    0.4783   17.5521 C   0  0  0  0  0  0  0  0  0  0  0  0
    6.4729   -0.5155   17.7058 H   0  0  0  0  0  0  0  0  0  0  0  0
    4.9922    0.4158   17.7036 H   0  0  0  0  0  0  0  0  0  0  0  0
    6.4650    1.1230   18.3278 H   0  0  0  0  0  0  0  0  0  0  0  0
    5.8881    2.9703   15.6795 C   0  0  0  0  0  0  0  0  0  0  0  0
    6.1307    3.3992   14.7104 H   0  0  0  0  0  0  0  0  0  0  0  0
    6.3667    3.5893   16.4352 H   0  0  0  0  0  0  0  0  0  0  0  0
    4.8145    3.0641   15.8131 H   0  0  0  0  0  0  0  0  0  0  0  0
    8.3724    1.1663   15.7224 C   0  0  0  0  0  0  0  0  0  0  0  0
    8.8065    1.6117   16.6166 H   0  0  0  0  0  0  0  0  0  0  0  0
    8.7701    0.1618   15.5992 H   0  0  0  0  0  0  0  0  0  0  0  0
   10.5383    1.6280   13.9149 C   0  0  0  0  0  0  0  0  0  0  0  0
   11.3039    0.8196   14.7397 C   0  0  0  0  0  0  0  0  0  0  0  0
   10.9351    0.4975   15.7015 H   0  0  0  0  0  0  0  0  0  0  0  0
   12.5624    0.4186   14.3224 C   0  0  0  0  0  0  0  0  0  0  0  0
   13.1511   -0.2212   14.9627 H   0  0  0  0  0  0  0  0  0  0  0  0
   13.0647    0.8340   13.1018 C   0  0  0  0  0  0  0  0  0  0  0  0
   14.0437    0.5117   12.7824 H   0  0  0  0  0  0  0  0  0  0  0  0
   12.3088    1.6697   12.2933 C   0  0  0  0  0  0  0  0  0  0  0  0
   12.6946    2.0048   11.3427 H   0  0  0  0  0  0  0  0  0  0  0  0
   11.0484    2.0688   12.6954 C   0  0  0  0  0  0  0  0  0  0  0  0
   10.4594    2.7234   12.0648 H   0  0  0  0  0  0  0  0  0  0  0  0
    4.1448   -1.3475   14.9283 C   0  0  0  0  0  0  0  0  0  0  0  0
    3.3642   -0.7584   15.3958 H   0  0  0  0  0  0  0  0  0  0  0  0
    4.5768   -1.9827   15.6949 H   0  0  0  0  0  0  0  0  0  0  0  0
    3.6710   -1.9913   14.1942 H   0  0  0  0  0  0  0  0  0  0  0  0
    4.5795    0.8575   12.7970 C   0  0  0  0  0  0  0  0  0  0  0  0
    5.2589    1.5661   12.3229 H   0  0  0  0  0  0  0  0  0  0  0  0
    3.7725    1.4387   13.2337 H   0  0  0  0  0  0  0  0  0  0  0  0
    4.1552    0.2437   12.0055 H   0  0  0  0  0  0  0  0  0  0  0  0
    6.6349   -1.4481   13.2420 C   0  0  0  0  0  0  0  0  0  0  0  0
    6.6843   -2.3913   13.7854 H   0  0  0  0  0  0  0  0  0  0  0  0
    6.2865   -1.6365   12.2275 H   0  0  0  0  0  0  0  0  0  0  0  0
    9.0998   -1.8110   11.8563 C   0  0  0  0  0  0  0  0  0  0  0  0
    8.5969   -3.0364   11.4546 C   0  0  0  0  0  0  0  0  0  0  0  0
    7.6863   -3.4324   11.8759 H   0  0  0  0  0  0  0  0  0  0  0  0
    9.2699   -3.7571   10.4831 C   0  0  0  0  0  0  0  0  0  0  0  0
    8.8694   -4.7053   10.1586 H   0  0  0  0  0  0  0  0  0  0  0  0
   10.4401   -3.2693    9.9297 C   0  0  0  0  0  0  0  0  0  0  0  0
   10.9549   -3.8354    9.1691 H   0  0  0  0  0  0  0  0  0  0  0  0
   10.9457   -2.0497   10.3498 C   0  0  0  0  0  0  0  0  0  0  0  0
   11.8554   -1.6589    9.9209 H   0  0  0  0  0  0  0  0  0  0  0  0
   10.2796   -1.3198   11.3134 C   0  0  0  0  0  0  0  0  0  0  0  0
   10.6612   -0.3606   11.6322 H   0  0  0  0  0  0  0  0  0  0  0  0
    7.4319    3.8599   11.7048 I   0  0  0  0  0  0  0  0  0  0  0  0
    7.2236    0.4800    9.9746 I   0  0  0  0  0  0  0  0  0  0  0  0
    7.9442    1.3759   12.3200 Pt  0  0  0  0  0  0  0  0  0  0  0  0
    8.9013    2.1941   14.3329 S   0  0  1  0  0  3  0  0  0  0  0  0
    8.3350   -0.8270   13.1288 S   0  0  1  0  0  3  0  0  0  0  0  0
    6.4348    1.1491   15.8061 Si  0  0  0  0  0  0  0  0  0  0  0  0
    5.4383   -0.1954   14.1314 Si  0  0  0  0  0  0  0  0  0  0  0  0
  1  3  1  0  0  0  0
  1  2  1  0  0  0  0
  1  4  1  0  0  0  0
  5 50  1  0  0  0  0
  5  8  1  0  0  0  0
  5  7  1  0  0  0  0
  6  5  1  0  0  0  0
  9 50  1  0  0  0  0
  9 10  1  0  0  0  0
 11  9  1  0  0  0  0
 12 13  1  0  0  0  0
 13 14  1  0  0  0  0
 15 13  2  0  0  0  0
 15 16  1  0  0  0  0
 17 15  1  0  0  0  0
 18 17  1  0  0  0  0
 19 21  1  0  0  0  0
 19 17  2  0  0  0  0
 20 19  1  0  0  0  0
 21 12  2  0  0  0  0
 22 21  1  0  0  0  0
 23 24  1  0  0  0  0
 23 25  1  0  0  0  0
 26 23  1  0  0  0  0
 27 29  1  0  0  0  0
 27 51  1  0  0  0  0
 28 27  1  0  0  0  0
 30 27  1  0  0  0  0
 31 32  1  0  0  0  0
 31 51  1  0  0  0  0
 33 31  1  0  0  0  0
 35 34  1  0  0  0  0
 35 36  1  0  0  0  0
 37 35  2  0  0  0  0
 38 37  1  0  0  0  0
 39 41  2  0  0  0  0
 39 37  1  0  0  0  0
 40 39  1  0  0  0  0
 41 43  1  0  0  0  0
 42 41  1  0  0  0  0
 43 44  1  0  0  0  0
 43 34  2  0  0  0  0
 45 47  1  0  0  0  0
 46 47  1  0  0  0  0
 47 49  1  0  0  0  0
 47 48  1  0  0  0  0
 48 12  1  6  0  0  0
 48  9  1  0  0  0  0
 49 34  1  6  0  0  0
 49 31  1  0  0  0  0
 50  1  1  0  0  0  0
 51 23  1  0  0  0  0
 51 50  1  0  0  0  0
M  END
$$$$
