CSD_code = MEFTIB | q = 0 | S = 0 | Stoichiometry = C18H27BrN2Pd | MND = 4
 OpenBabel04212202063D

 49 53  0  0  0  0  0  0  0  0999 V2000
    7.5209    3.6826    4.8938 Pd  0  0  0  0  0  0  0  0  0  0  0  0
    6.9373    1.4118    5.6113 Br  0  0  0  0  0  0  0  0  0  0  0  0
    7.6150    3.3598    2.7680 N   0  0  0  0  0  4  0  0  0  0  0  0
    7.5985    4.6461    6.8161 N   0  0  0  0  0  4  0  0  0  0  0  0
    7.9764    5.4784    4.3246 C   0  0  0  0  0  0  0  0  0  0  0  0
    7.9683    5.7822    2.9704 C   0  0  0  0  0  0  0  0  0  0  0  0
    8.3042    7.0663    2.5645 C   0  0  0  0  0  0  0  0  0  0  0  0
    8.3110    7.3243    1.5143 H   0  0  0  0  0  0  0  0  0  0  0  0
    8.6252    8.0224    3.5167 C   0  0  0  0  0  0  0  0  0  0  0  0
    8.8805    9.0228    3.1990 H   0  0  0  0  0  0  0  0  0  0  0  0
    8.6241    7.7166    4.8695 C   0  0  0  0  0  0  0  0  0  0  0  0
    8.8770    8.4762    5.5965 H   0  0  0  0  0  0  0  0  0  0  0  0
    8.3044    6.4298    5.2802 C   0  0  0  0  0  0  0  0  0  0  0  0
    7.5373    4.6629    2.0574 C   0  0  0  0  0  0  0  0  0  0  0  0
    8.1335    4.6487    1.1380 H   0  0  0  0  0  0  0  0  0  0  0  0
    6.4918    4.8311    1.7718 H   0  0  0  0  0  0  0  0  0  0  0  0
    6.6207    2.4014    2.2685 C   0  0  0  0  0  0  0  0  0  0  0  0
    5.6281    2.8596    2.3449 H   0  0  0  0  0  0  0  0  0  0  0  0
    6.6385    1.5232    2.9222 H   0  0  0  0  0  0  0  0  0  0  0  0
    6.8994    1.9379    0.8389 C   0  0  0  0  0  0  0  0  0  0  0  0
    6.8621    2.7810    0.1453 H   0  0  0  0  0  0  0  0  0  0  0  0
    6.1254    1.2285    0.5432 H   0  0  0  0  0  0  0  0  0  0  0  0
    8.2729    1.2757    0.7852 C   0  0  0  0  0  0  0  0  0  0  0  0
    8.2694    0.3907    1.4252 H   0  0  0  0  0  0  0  0  0  0  0  0
    8.5044    0.9549   -0.2320 H   0  0  0  0  0  0  0  0  0  0  0  0
    9.3295    2.2575    1.2829 C   0  0  0  0  0  0  0  0  0  0  0  0
   10.3042    1.7704    1.3383 H   0  0  0  0  0  0  0  0  0  0  0  0
    9.4211    3.0874    0.5786 H   0  0  0  0  0  0  0  0  0  0  0  0
    8.9653    2.7700    2.6800 C   0  0  0  0  0  0  0  0  0  0  0  0
    9.0031    1.9199    3.3787 H   0  0  0  0  0  0  0  0  0  0  0  0
    9.6938    3.5271    3.0035 H   0  0  0  0  0  0  0  0  0  0  0  0
    8.3251    5.9384    6.7050 C   0  0  0  0  0  0  0  0  0  0  0  0
    7.9077    6.6866    7.3883 H   0  0  0  0  0  0  0  0  0  0  0  0
    9.3681    5.7676    6.9981 H   0  0  0  0  0  0  0  0  0  0  0  0
    6.1539    4.8497    7.0409 C   0  0  0  0  0  0  0  0  0  0  0  0
    5.6580    3.8742    6.9212 H   0  0  0  0  0  0  0  0  0  0  0  0
    5.7783    5.5350    6.2678 H   0  0  0  0  0  0  0  0  0  0  0  0
    5.8123    5.3919    8.4324 C   0  0  0  0  0  0  0  0  0  0  0  0
    6.1845    6.4117    8.5526 H   0  0  0  0  0  0  0  0  0  0  0  0
    4.7262    5.4297    8.5299 H   0  0  0  0  0  0  0  0  0  0  0  0
    6.4111    4.4962    9.5129 C   0  0  0  0  0  0  0  0  0  0  0  0
    5.9460    3.5092    9.4654 H   0  0  0  0  0  0  0  0  0  0  0  0
    6.2145    4.9140   10.5019 H   0  0  0  0  0  0  0  0  0  0  0  0
    7.9122    4.3542    9.2798 C   0  0  0  0  0  0  0  0  0  0  0  0
    8.4034    5.3227    9.3983 H   0  0  0  0  0  0  0  0  0  0  0  0
    8.3455    3.6690   10.0095 H   0  0  0  0  0  0  0  0  0  0  0  0
    8.1516    3.7950    7.8776 C   0  0  0  0  0  0  0  0  0  0  0  0
    9.2222    3.6564    7.6888 H   0  0  0  0  0  0  0  0  0  0  0  0
    7.6673    2.8150    7.8130 H   0  0  0  0  0  0  0  0  0  0  0  0
  1  2  1  0  0  0  0
  1  4  1  0  0  0  0
  3  1  1  0  0  0  0
  4 35  1  0  0  0  0
  4 47  1  0  0  0  0
  5  1  1  0  0  0  0
  5 13  1  0  0  0  0
  6  5  2  0  0  0  0
  7  6  1  0  0  0  0
  7  9  2  0  0  0  0
  8  7  1  0  0  0  0
  9 11  1  0  0  0  0
 10  9  1  0  0  0  0
 11 13  2  0  0  0  0
 11 12  1  0  0  0  0
 13 32  1  0  0  0  0
 14  3  1  0  0  0  0
 14  6  1  0  0  0  0
 15 14  1  0  0  0  0
 16 14  1  0  0  0  0
 17 18  1  0  0  0  0
 17  3  1  0  0  0  0
 17 19  1  0  0  0  0
 20 17  1  0  0  0  0
 21 20  1  0  0  0  0
 22 20  1  0  0  0  0
 23 20  1  0  0  0  0
 23 26  1  0  0  0  0
 23 24  1  0  0  0  0
 25 23  1  0  0  0  0
 26 27  1  0  0  0  0
 26 29  1  0  0  0  0
 28 26  1  0  0  0  0
 29  3  1  0  0  0  0
 29 31  1  0  0  0  0
 29 30  1  0  0  0  0
 32  4  1  0  0  0  0
 32 34  1  0  0  0  0
 32 33  1  0  0  0  0
 35 38  1  0  0  0  0
 36 35  1  0  0  0  0
 37 35  1  0  0  0  0
 38 40  1  0  0  0  0
 38 39  1  0  0  0  0
 38 41  1  0  0  0  0
 41 43  1  0  0  0  0
 42 41  1  0  0  0  0
 44 45  1  0  0  0  0
 44 41  1  0  0  0  0
 44 46  1  0  0  0  0
 47 44  1  0  0  0  0
 48 47  1  0  0  0  0
 49 47  1  0  0  0  0
M  END
$$$$
