CSD_code = MEFTUN | q = 1 | S = 0 | Stoichiometry = C17H27ClN3Pd(1+) | MND = 4
 OpenBabel04212202063D

 49 53  0  0  1  0  0  0  0  0999 V2000
    2.4832    3.1467    3.4958 Pd  0  0  1  0  0  0  0  0  0  0  0  0
    0.7427    2.8745    4.8672 Cl  0  0  0  0  0  0  0  0  0  0  0  0
    3.9098    3.5823    2.2601 N   0  0  0  0  0  0  0  0  0  0  0  0
    2.9182    5.0599    4.2718 N   0  0  0  0  0  4  0  0  0  0  0  0
    2.7332    1.2012    2.5685 N   0  0  0  0  0  4  0  0  0  0  0  0
    4.5558    4.7358    2.4170 C   0  0  1  0  0  3  0  0  0  0  0  0
    5.6798    5.0155    1.6503 C   0  0  0  0  0  0  0  0  0  0  0  0
    6.2090    5.9460    1.7761 H   0  0  0  0  0  0  0  0  0  0  0  0
    6.0998    4.0794    0.7160 C   0  0  0  0  0  0  0  0  0  0  0  0
    6.9733    4.2717    0.1139 H   0  0  0  0  0  0  0  0  0  0  0  0
    5.3817    2.9020    0.5436 C   0  0  0  0  0  0  0  0  0  0  0  0
    5.6755    2.1770   -0.1975 H   0  0  0  0  0  0  0  0  0  0  0  0
    4.2718    2.6848    1.3434 C   0  0  0  0  0  0  0  0  0  0  0  0
    3.9231    5.7016    3.3846 C   0  0  0  0  0  0  0  0  0  0  0  0
    3.4214    6.4697    2.7831 H   0  0  0  0  0  0  0  0  0  0  0  0
    4.6975    6.2046    3.9721 H   0  0  0  0  0  0  0  0  0  0  0  0
    1.7394    5.9261    4.4658 C   0  0  0  0  0  0  0  0  0  0  0  0
    0.9942    5.3457    5.0187 H   0  0  0  0  0  0  0  0  0  0  0  0
    1.3215    6.1692    3.4823 H   0  0  0  0  0  0  0  0  0  0  0  0
    2.0617    7.1897    5.2619 C   0  0  0  0  0  0  0  0  0  0  0  0
    2.7813    7.8162    4.7309 H   0  0  0  0  0  0  0  0  0  0  0  0
    1.1451    7.7672    5.3786 H   0  0  0  0  0  0  0  0  0  0  0  0
    2.6153    6.8010    6.6294 C   0  0  0  0  0  0  0  0  0  0  0  0
    1.8531    6.2540    7.1864 H   0  0  0  0  0  0  0  0  0  0  0  0
    2.8732    7.6925    7.2004 H   0  0  0  0  0  0  0  0  0  0  0  0
    3.8474    5.9188    6.4518 C   0  0  0  0  0  0  0  0  0  0  0  0
    4.1959    5.5587    7.4198 H   0  0  0  0  0  0  0  0  0  0  0  0
    4.6597    6.5033    6.0146 H   0  0  0  0  0  0  0  0  0  0  0  0
    3.5036    4.7037    5.5858 C   0  0  0  0  0  0  0  0  0  0  0  0
    4.4006    4.0884    5.4143 H   0  0  0  0  0  0  0  0  0  0  0  0
    2.7563    4.1028    6.1207 H   0  0  0  0  0  0  0  0  0  0  0  0
    3.3283    1.5167    1.2501 C   0  0  0  0  0  0  0  0  0  0  0  0
    2.5184    1.7979    0.5625 H   0  0  0  0  0  0  0  0  0  0  0  0
    3.8319    0.6328    0.8342 H   0  0  0  0  0  0  0  0  0  0  0  0
    3.7672    0.5571    3.4065 C   0  0  0  0  0  0  0  0  0  0  0  0
    4.6317    1.2294    3.4989 H   0  0  0  0  0  0  0  0  0  0  0  0
    4.1004   -0.3675    2.9135 H   0  0  0  0  0  0  0  0  0  0  0  0
    3.2037    0.2158    4.7824 C   0  0  0  0  0  0  0  0  0  0  0  0
    2.8107    1.1320    5.2522 H   0  0  0  0  0  0  0  0  0  0  0  0
    3.9997   -0.1825    5.4118 H   0  0  0  0  0  0  0  0  0  0  0  0
    2.0840   -0.8067    4.6165 C   0  0  0  0  0  0  0  0  0  0  0  0
    2.4911   -1.7305    4.1989 H   0  0  0  0  0  0  0  0  0  0  0  0
    1.6414   -1.0416    5.5829 H   0  0  0  0  0  0  0  0  0  0  0  0
    1.0177   -0.2297    3.6918 C   0  0  0  0  0  0  0  0  0  0  0  0
    0.2612   -0.9810    3.4666 H   0  0  0  0  0  0  0  0  0  0  0  0
    0.5251    0.6034    4.1922 H   0  0  0  0  0  0  0  0  0  0  0  0
    1.6178    0.2548    2.3745 C   0  0  0  0  0  0  0  0  0  0  0  0
    1.9904   -0.6091    1.8050 H   0  0  0  0  0  0  0  0  0  0  0  0
    0.8421    0.7548    1.7855 H   0  0  0  0  0  0  0  0  0  0  0  0
  1  4  1  0  0  0  0
  1  2  1  6  0  0  0
  3  6  1  0  0  0  0
  3  1  1  0  0  0  0
  4 17  1  0  0  0  0
  4 29  1  0  0  0  0
  5 35  1  0  0  0  0
  5  1  1  0  0  0  0
  6  7  1  6  0  0  0
  6 14  1  0  0  0  0
  7  8  1  0  0  0  0
  9  7  2  0  0  0  0
 10  9  1  0  0  0  0
 11  9  1  0  0  0  0
 11 13  2  0  0  0  0
 12 11  1  0  0  0  0
 13  3  1  0  0  0  0
 14 16  1  0  0  0  0
 14  4  1  0  0  0  0
 15 14  1  0  0  0  0
 17 18  1  0  0  0  0
 17 20  1  0  0  0  0
 19 17  1  0  0  0  0
 20 22  1  0  0  0  0
 20 23  1  0  0  0  0
 21 20  1  0  0  0  0
 23 24  1  0  0  0  0
 23 25  1  0  0  0  0
 26 23  1  0  0  0  0
 26 27  1  0  0  0  0
 28 26  1  0  0  0  0
 29 31  1  0  0  0  0
 29 26  1  0  0  0  0
 30 29  1  0  0  0  0
 32 13  1  0  0  0  0
 32  5  1  0  0  0  0
 33 32  1  0  0  0  0
 34 32  1  0  0  0  0
 35 36  1  0  0  0  0
 35 38  1  0  0  0  0
 37 35  1  0  0  0  0
 38 39  1  0  0  0  0
 38 40  1  0  0  0  0
 41 38  1  0  0  0  0
 41 43  1  0  0  0  0
 42 41  1  0  0  0  0
 44 46  1  0  0  0  0
 44 41  1  0  0  0  0
 45 44  1  0  0  0  0
 47  5  1  0  0  0  0
 47 44  1  0  0  0  0
 48 47  1  0  0  0  0
 49 47  1  0  0  0  0
M  END
$$$$
