CSD_code = MEFWEC | q = 0 | S = 0 | Stoichiometry = C21H29ClZr | MND = 14
 OpenBabel04212202063D

 52 53  0  0  1  0  0  0  0  0999 V2000
    0.4558    1.2827    7.5031 Zr  0  0  0  0  0  0  0  0  0  0  0  0
    2.4542    2.1834    8.4406 Cl  0  0  0  0  0  0  0  0  0  0  0  0
   -1.6132    1.2306    5.9412 C   0  0  0  0  0  0  0  0  0  0  0  0
   -2.6461    0.8925    5.8832 H   0  0  0  0  0  0  0  0  0  0  0  0
   -1.4688    2.4473    6.6444 C   0  0  2  0  0  0  0  0  0  0  0  0
   -2.4123    2.8131    7.0539 H   0  0  0  0  0  0  0  0  0  0  0  0
   -0.4159    3.4082    6.7464 C   0  0  0  0  0  3  0  0  0  0  0  0
   -0.7433    4.3319    7.2267 H   0  0  0  0  0  0  0  0  0  0  0  0
    0.8418    3.5452    6.1214 C   0  0  0  0  0  0  0  0  0  0  0  0
    1.2493    4.5508    6.2089 H   0  0  0  0  0  0  0  0  0  0  0  0
    1.7270    2.6478    5.5179 C   0  0  0  0  0  0  0  0  0  0  0  0
    2.6679    3.1098    5.2275 H   0  0  0  0  0  0  0  0  0  0  0  0
    1.7349    1.2521    5.3657 C   0  0  0  0  0  3  0  0  0  0  0  0
    2.7014    0.8681    5.0334 H   0  0  0  0  0  0  0  0  0  0  0  0
    0.7197    0.2487    5.3841 C   0  0  2  0  0  0  0  0  0  0  0  0
    1.0875   -0.7102    5.0123 H   0  0  0  0  0  0  0  0  0  0  0  0
   -0.7005    0.3011    5.4351 C   0  0  0  0  0  0  0  0  0  0  0  0
   -1.1721   -0.6080    5.0647 H   0  0  0  0  0  0  0  0  0  0  0  0
    0.5120   -0.9000    8.7279 C   0  0  0  0  0  0  0  0  0  0  0  0
    0.7830    0.0898    9.7038 C   0  0  0  0  0  3  0  0  0  0  0  0
    1.6865    0.1497   10.2916 H   0  0  0  0  0  0  0  0  0  0  0  0
   -0.3514    0.9171    9.8575 C   0  0  0  0  0  0  0  0  0  0  0  0
   -1.3506    0.4187    8.9798 C   0  0  0  0  0  0  0  0  0  0  0  0
   -2.3879    0.7296    8.9498 H   0  0  0  0  0  0  0  0  0  0  0  0
   -0.8240   -0.7037    8.2946 C   0  0  0  0  0  0  0  0  0  0  0  0
   -1.4007   -1.3712    7.6688 H   0  0  0  0  0  0  0  0  0  0  0  0
    1.4802   -2.0084    8.3655 C   0  0  0  0  0  0  0  0  0  0  0  0
    1.7802   -2.8491    9.6161 C   0  0  0  0  0  0  0  0  0  0  0  0
    2.2409   -2.2403   10.3887 H   0  0  0  0  0  0  0  0  0  0  0  0
    2.4566   -3.6649    9.3705 H   0  0  0  0  0  0  0  0  0  0  0  0
    0.8603   -3.2691   10.0157 H   0  0  0  0  0  0  0  0  0  0  0  0
    0.8935   -2.9262    7.2883 C   0  0  0  0  0  0  0  0  0  0  0  0
    1.6221   -3.6837    7.0068 H   0  0  0  0  0  0  0  0  0  0  0  0
    0.6205   -2.3625    6.3984 H   0  0  0  0  0  0  0  0  0  0  0  0
    0.0079   -3.4331    7.6645 H   0  0  0  0  0  0  0  0  0  0  0  0
    2.7861   -1.3717    7.8562 C   0  0  0  0  0  0  0  0  0  0  0  0
    3.2493   -0.7678    8.6364 H   0  0  0  0  0  0  0  0  0  0  0  0
    2.5914   -0.7242    6.9922 H   0  0  0  0  0  0  0  0  0  0  0  0
    3.4939   -2.1455    7.5616 H   0  0  0  0  0  0  0  0  0  0  0  0
   -0.5101    2.0678   10.8325 C   0  0  0  0  0  0  0  0  0  0  0  0
   -1.7566    1.8445   11.7004 C   0  0  0  0  0  0  0  0  0  0  0  0
   -1.8548    2.6429   12.4325 H   0  0  0  0  0  0  0  0  0  0  0  0
   -1.6799    0.8978   12.2293 H   0  0  0  0  0  0  0  0  0  0  0  0
   -2.6576    1.8248   11.0928 H   0  0  0  0  0  0  0  0  0  0  0  0
    0.7207    2.1900   11.7359 C   0  0  0  0  0  0  0  0  0  0  0  0
    0.5918    3.0195   12.4279 H   0  0  0  0  0  0  0  0  0  0  0  0
    1.6114    2.3757   11.1390 H   0  0  0  0  0  0  0  0  0  0  0  0
    0.8629    1.2819   12.3165 H   0  0  0  0  0  0  0  0  0  0  0  0
   -0.6600    3.3752   10.0366 C   0  0  0  0  0  0  0  0  0  0  0  0
   -0.7573    4.2188   10.7191 H   0  0  0  0  0  0  0  0  0  0  0  0
   -1.5541    3.3415    9.4102 H   0  0  0  0  0  0  0  0  0  0  0  0
    0.2331    3.5339    9.4180 H   0  0  0  0  0  0  0  0  0  0  0  0
  1  2  1  0  0  0  0
  3  5  1  0  0  0  0
  4  3  1  0  0  0  0
  5  7  1  0  0  0  0
  5  6  1  1  0  0  0
  5  1  1  0  0  0  0
  7  8  1  0  0  0  0
  9 10  1  0  0  0  0
  9  7  1  0  0  0  0
 11  9  2  0  0  0  0
 12 11  1  0  0  0  0
 13 15  1  0  0  0  0
 13 11  1  0  0  0  0
 14 13  1  0  0  0  0
 15 16  1  1  0  0  0
 15 17  1  0  0  0  0
 15  1  1  0  0  0  0
 17  3  2  0  0  0  0
 18 17  1  0  0  0  0
 19 20  1  0  0  0  0
 20 22  1  0  0  0  0
 20 21  1  0  0  0  0
 22 40  1  0  0  0  0
 23 22  2  0  0  0  0
 24 23  1  0  0  0  0
 25 19  2  0  0  0  0
 25 23  1  0  0  0  0
 26 25  1  0  0  0  0
 27 19  1  0  0  0  0
 27 28  1  0  0  0  0
 28 31  1  0  0  0  0
 28 29  1  0  0  0  0
 30 28  1  0  0  0  0
 32 35  1  0  0  0  0
 32 27  1  0  0  0  0
 33 32  1  0  0  0  0
 34 32  1  0  0  0  0
 36 27  1  0  0  0  0
 36 37  1  0  0  0  0
 38 36  1  0  0  0  0
 39 36  1  0  0  0  0
 40 41  1  0  0  0  0
 40 45  1  0  0  0  0
 41 43  1  0  0  0  0
 41 42  1  0  0  0  0
 44 41  1  0  0  0  0
 45 48  1  0  0  0  0
 45 46  1  0  0  0  0
 47 45  1  0  0  0  0
 49 50  1  0  0  0  0
 49 40  1  0  0  0  0
 51 49  1  0  0  0  0
 52 49  1  0  0  0  0
M  END
$$$$
