CSD_code = MEFXEB | q = 0 | S = 0 | Stoichiometry = C24H24ClNO3PdS2 | MND = 4
 OpenBabel04212202063D

 56 60  0  0  0  0  0  0  0  0999 V2000
    1.7939   -0.1677    5.3387 Pd  0  0  1  0  0  0  0  0  0  0  0  0
    2.9095    0.7732    7.0978 S   0  0  1  0  0  3  0  0  0  0  0  0
    0.9062   -0.9908    3.3874 S   0  0  1  0  0  3  0  0  0  0  0  0
    0.2248   -1.2358    6.6822 Cl  0  0  0  0  0  0  0  0  0  0  0  0
    2.2421   -6.4595    5.2148 O   0  0  0  0  0  0  0  0  0  0  0  0
    7.0570    4.0926    3.0662 O   0  0  0  0  0  0  0  0  0  0  0  0
   -1.6737    4.0149    8.9690 O   0  0  0  0  0  0  0  0  0  0  0  0
    5.9656    2.6176    1.7095 N   0  0  0  0  0  0  0  0  0  0  0  0
    5.9284    2.2820    0.7568 H   0  0  0  0  0  0  0  0  0  0  0  0
    3.1352    0.7441    4.1830 C   0  0  0  0  0  0  0  0  0  0  0  0
    3.2345    0.4324    2.8247 C   0  0  0  0  0  0  0  0  0  0  0  0
    4.0076    1.6952    4.7157 C   0  0  0  0  0  0  0  0  0  0  0  0
    2.3097   -0.5973    2.2413 C   0  0  0  0  0  0  0  0  0  0  0  0
    2.8220   -1.5407    2.0427 H   0  0  0  0  0  0  0  0  0  0  0  0
    1.8518   -0.2441    1.3152 H   0  0  0  0  0  0  0  0  0  0  0  0
    3.9045    2.0379    6.1727 C   0  0  0  0  0  0  0  0  0  0  0  0
    3.4080    2.9977    6.3266 H   0  0  0  0  0  0  0  0  0  0  0  0
    4.8865    2.0698    6.6474 H   0  0  0  0  0  0  0  0  0  0  0  0
    1.3325   -2.6549    3.8886 C   0  0  0  0  0  0  0  0  0  0  0  0
    1.5205    1.7789    7.6069 C   0  0  0  0  0  0  0  0  0  0  0  0
    4.1734    1.0662    2.0244 C   0  0  0  0  0  0  0  0  0  0  0  0
    4.2369    0.8196    0.9723 H   0  0  0  0  0  0  0  0  0  0  0  0
    5.0380    2.0129    2.5681 C   0  0  0  0  0  0  0  0  0  0  0  0
    4.9563    2.3225    3.9203 C   0  0  0  0  0  0  0  0  0  0  0  0
    5.6266    3.0523    4.3421 H   0  0  0  0  0  0  0  0  0  0  0  0
    2.5439   -2.9288    4.5268 C   0  0  0  0  0  0  0  0  0  0  0  0
    3.2875   -2.1385    4.6929 H   0  0  0  0  0  0  0  0  0  0  0  0
    2.8110   -4.2138    4.9431 C   0  0  0  0  0  0  0  0  0  0  0  0
    3.7351   -4.4518    5.4455 H   0  0  0  0  0  0  0  0  0  0  0  0
    1.8765   -5.2386    4.7530 C   0  0  0  0  0  0  0  0  0  0  0  0
    0.6726   -4.9523    4.1181 C   0  0  0  0  0  0  0  0  0  0  0  0
   -0.0714   -5.7164    3.9609 H   0  0  0  0  0  0  0  0  0  0  0  0
    0.4079   -3.6629    3.6874 C   0  0  0  0  0  0  0  0  0  0  0  0
   -0.5336   -3.4352    3.2118 H   0  0  0  0  0  0  0  0  0  0  0  0
    1.3241   -7.5229    5.1171 C   0  0  0  0  0  0  0  0  0  0  0  0
    0.3964   -7.3017    5.6534 H   0  0  0  0  0  0  0  0  0  0  0  0
    1.8138   -8.3773    5.5815 H   0  0  0  0  0  0  0  0  0  0  0  0
    1.0954   -7.7612    4.0732 H   0  0  0  0  0  0  0  0  0  0  0  0
    6.8886    3.5839    1.9819 C   0  0  0  0  0  0  0  0  0  0  0  0
    7.6983    3.9609    0.7558 C   0  0  0  0  0  0  0  0  0  0  0  0
    8.3956    4.7504    1.0198 H   0  0  0  0  0  0  0  0  0  0  0  0
    7.0418    4.3131   -0.0376 H   0  0  0  0  0  0  0  0  0  0  0  0
    8.2557    3.0985    0.3951 H   0  0  0  0  0  0  0  0  0  0  0  0
    1.3551    2.0557    8.9568 C   0  0  0  0  0  0  0  0  0  0  0  0
    2.0652    1.6698    9.6715 H   0  0  0  0  0  0  0  0  0  0  0  0
    0.2778    2.8049    9.3765 C   0  0  0  0  0  0  0  0  0  0  0  0
    0.1247    3.0241   10.4209 H   0  0  0  0  0  0  0  0  0  0  0  0
   -0.6523    3.2886    8.4530 C   0  0  0  0  0  0  0  0  0  0  0  0
   -0.4772    3.0097    7.0985 C   0  0  0  0  0  0  0  0  0  0  0  0
   -1.1828    3.3605    6.3625 H   0  0  0  0  0  0  0  0  0  0  0  0
    0.6021    2.2530    6.6783 C   0  0  0  0  0  0  0  0  0  0  0  0
    0.7231    2.0350    5.6059 H   0  0  0  0  0  0  0  0  0  0  0  0
   -2.6723    4.4943    8.0993 C   0  0  0  0  0  0  0  0  0  0  0  0
   -2.2629    5.1972    7.3665 H   0  0  0  0  0  0  0  0  0  0  0  0
   -3.3889    5.0137    8.7334 H   0  0  0  0  0  0  0  0  0  0  0  0
   -3.1771    3.6752    7.5785 H   0  0  0  0  0  0  0  0  0  0  0  0
  1  4  1  6  0  0  0
  1  2  1  0  0  0  0
  2 20  1  1  0  0  0
  3 19  1  1  0  0  0
  3  1  1  0  0  0  0
  8 39  1  0  0  0  0
  8 23  1  0  0  0  0
  9  8  1  0  0  0  0
 10 12  1  0  0  0  0
 10  1  1  0  0  0  0
 11 10  2  0  0  0  0
 12 16  1  0  0  0  0
 13 11  1  0  0  0  0
 13  3  1  0  0  0  0
 14 13  1  0  0  0  0
 15 13  1  0  0  0  0
 16 17  1  0  0  0  0
 16 18  1  0  0  0  0
 16  2  1  0  0  0  0
 19 26  1  0  0  0  0
 20 44  1  0  0  0  0
 21 23  2  0  0  0  0
 21 11  1  0  0  0  0
 22 21  1  0  0  0  0
 23 24  1  0  0  0  0
 24 25  1  0  0  0  0
 24 12  2  0  0  0  0
 26 27  1  0  0  0  0
 26 28  2  0  0  0  0
 28 29  1  0  0  0  0
 30 28  1  0  0  0  0
 30  5  1  0  0  0  0
 31 30  2  0  0  0  0
 32 31  1  0  0  0  0
 33 19  2  0  0  0  0
 33 31  1  0  0  0  0
 34 33  1  0  0  0  0
 35  5  1  0  0  0  0
 35 37  1  0  0  0  0
 35 36  1  0  0  0  0
 38 35  1  0  0  0  0
 39  6  2  0  0  0  0
 40 41  1  0  0  0  0
 40 39  1  0  0  0  0
 42 40  1  0  0  0  0
 43 40  1  0  0  0  0
 44 46  2  0  0  0  0
 44 45  1  0  0  0  0
 46 47  1  0  0  0  0
 48  7  1  0  0  0  0
 48 46  1  0  0  0  0
 49 48  2  0  0  0  0
 50 49  1  0  0  0  0
 51 49  1  0  0  0  0
 51 20  2  0  0  0  0
 52 51  1  0  0  0  0
 53 55  1  0  0  0  0
 53  7  1  0  0  0  0
 54 53  1  0  0  0  0
 56 53  1  0  0  0  0
M  END
$$$$
