CSD_code = MEFYOO | q = 0 | S = 0 | Stoichiometry = C19H33ClIrN3O | MND = 6
 OpenBabel04212202063D

 58 58  0  0  1  0  0  0  0  0999 V2000
    6.1751    8.0943    8.8631 C   0  0  0  0  0  0  0  0  0  0  0  0
    6.3330    8.8361    9.6484 H   0  0  0  0  0  0  0  0  0  0  0  0
    6.8053    7.2356    9.1007 H   0  0  0  0  0  0  0  0  0  0  0  0
    6.6141    8.6752    7.5382 C   0  0  0  0  0  3  0  0  0  0  0  0
    7.1675    7.9166    6.5257 C   0  0  0  0  0  3  0  0  0  0  0  0
    7.3537    6.4184    6.5781 C   0  0  0  0  0  0  0  0  0  0  0  0
    8.1749    6.1779    7.2621 H   0  0  0  0  0  0  0  0  0  0  0  0
    7.6567    6.0810    5.5843 H   0  0  0  0  0  0  0  0  0  0  0  0
    6.0780    5.6633    6.9971 C   0  0  0  0  0  0  0  0  0  0  0  0
    6.0764    4.6824    6.5167 H   0  0  0  0  0  0  0  0  0  0  0  0
    6.0767    5.4903    8.0744 H   0  0  0  0  0  0  0  0  0  0  0  0
    4.8133    6.4091    6.6138 C   0  0  0  0  0  3  0  0  0  0  0  0
    4.1748    7.3217    7.4825 C   0  0  1  0  0  0  0  0  0  0  0  0
    4.6909    7.6819    8.8588 C   0  0  0  0  0  0  0  0  0  0  0  0
    4.5329    6.8388    9.5410 H   0  0  0  0  0  0  0  0  0  0  0  0
    4.0916    8.5139    9.2352 H   0  0  0  0  0  0  0  0  0  0  0  0
    3.5569    8.5560    4.7113 C   0  0  0  0  0  0  0  0  0  0  0  0
    2.4646    9.4339    4.6187 C   0  0  0  0  0  0  0  0  0  0  0  0
    1.9295   10.4673    5.5849 C   0  0  0  0  0  0  0  0  0  0  0  0
    2.8564   10.6366    6.7899 C   0  0  0  0  0  0  0  0  0  0  0  0
    2.7928    9.7616    7.4266 H   0  0  0  0  0  0  0  0  0  0  0  0
    2.5428   11.5110    7.3560 H   0  0  0  0  0  0  0  0  0  0  0  0
    3.8885   10.7665    6.4757 H   0  0  0  0  0  0  0  0  0  0  0  0
    0.5405   10.0426    6.0861 C   0  0  0  0  0  0  0  0  0  0  0  0
   -0.1911   10.0702    5.2852 H   0  0  0  0  0  0  0  0  0  0  0  0
    0.2171   10.7297    6.8626 H   0  0  0  0  0  0  0  0  0  0  0  0
    0.5886    9.0375    6.4964 H   0  0  0  0  0  0  0  0  0  0  0  0
    2.9213   12.3778    4.5100 C   0  0  0  0  0  0  0  0  0  0  0  0
    3.3408   12.9474    5.3430 H   0  0  0  0  0  0  0  0  0  0  0  0
    2.6336   13.0677    3.7172 H   0  0  0  0  0  0  0  0  0  0  0  0
    3.6833   11.6894    4.1364 H   0  0  0  0  0  0  0  0  0  0  0  0
    0.7892    9.8866    2.7760 C   0  0  0  0  0  0  0  0  0  0  0  0
    0.9627    9.9108    1.7015 H   0  0  0  0  0  0  0  0  0  0  0  0
    0.6865   10.8956    3.1702 H   0  0  0  0  0  0  0  0  0  0  0  0
   -0.1203    9.3154    2.9716 H   0  0  0  0  0  0  0  0  0  0  0  0
    4.4881    6.9931    2.9843 C   0  0  0  0  0  0  0  0  0  0  0  0
    3.9451    6.2728    2.3692 H   0  0  0  0  0  0  0  0  0  0  0  0
    4.9597    6.4945    3.8329 H   0  0  0  0  0  0  0  0  0  0  0  0
    5.5568    7.7187    2.1613 C   0  0  0  0  0  0  0  0  0  0  0  0
    5.9244    8.5591    2.7537 H   0  0  0  0  0  0  0  0  0  0  0  0
    5.1030    8.1155    1.2512 H   0  0  0  0  0  0  0  0  0  0  0  0
    6.7310    6.8107    1.8080 C   0  0  0  0  0  0  0  0  0  0  0  0
    7.4958    7.4180    1.3208 H   0  0  0  0  0  0  0  0  0  0  0  0
    7.1643    6.4116    2.7273 H   0  0  0  0  0  0  0  0  0  0  0  0
    6.3467    5.6609    0.8837 C   0  0  0  0  0  0  0  0  0  0  0  0
    5.6728    4.9663    1.3790 H   0  0  0  0  0  0  0  0  0  0  0  0
    7.2335    5.1100    0.5788 H   0  0  0  0  0  0  0  0  0  0  0  0
    5.8569    6.0397   -0.0107 H   0  0  0  0  0  0  0  0  0  0  0  0
    1.9176    9.2477    3.3933 N   0  0  0  0  0  0  0  0  0  0  0  0
    2.5605    8.3381    2.7152 N   0  0  0  0  0  2  0  0  0  0  0  0
    3.5304    7.9331    3.5022 N   0  0  0  0  0  0  0  0  0  0  0  0
    1.7368   11.7034    4.8939 O   0  0  0  0  0  0  0  0  0  0  0  0
    5.9572   10.2381    4.7022 Cl  0  0  0  0  0 15  0  0  0  0  0  0
    5.1532    8.3991    5.9600 Ir  0  0  0  0  0  0  0  0  0  0  0  0
    6.8451    9.7372    7.5563 H   0  0  0  0  0  0  0  0  0  0  0  0
    7.8267    8.4145    5.8184 H   0  0  0  0  0  0  0  0  0  0  0  0
    4.1553    5.8408    5.9577 H   0  0  0  0  0  0  0  0  0  0  0  0
    3.0867    7.3602    7.4230 H   0  0  0  0  0  0  0  0  0  0  0  0
  1  3  1  0  0  0  0
  1  2  1  0  0  0  0
  4 55  1  0  0  0  0
  4  1  1  0  0  0  0
  5  6  1  0  0  0  0
  5  4  1  0  0  0  0
  6  9  1  0  0  0  0
  6  7  1  0  0  0  0
  8  6  1  0  0  0  0
  9 11  1  0  0  0  0
 10  9  1  0  0  0  0
 12  9  1  0  0  0  0
 12 13  1  0  0  0  0
 13 58  1  6  0  0  0
 13 14  1  0  0  0  0
 14  1  1  0  0  0  0
 14 16  1  0  0  0  0
 14 15  1  0  0  0  0
 17 54  1  0  0  0  0
 18 17  2  0  0  0  0
 18 19  1  0  0  0  0
 19 24  1  0  0  0  0
 19 20  1  0  0  0  0
 20 22  1  0  0  0  0
 20 21  1  0  0  0  0
 23 20  1  0  0  0  0
 24 27  1  0  0  0  0
 24 26  1  0  0  0  0
 25 24  1  0  0  0  0
 28 52  1  0  0  0  0
 28 29  1  0  0  0  0
 30 28  1  0  0  0  0
 31 28  1  0  0  0  0
 32 35  1  0  0  0  0
 32 34  1  0  0  0  0
 32 49  1  0  0  0  0
 33 32  1  0  0  0  0
 36 51  1  0  0  0  0
 36 38  1  0  0  0  0
 37 36  1  0  0  0  0
 39 40  1  0  0  0  0
 39 36  1  0  0  0  0
 41 39  1  0  0  0  0
 42 39  1  0  0  0  0
 42 44  1  0  0  0  0
 43 42  1  0  0  0  0
 45 46  1  0  0  0  0
 45 42  1  0  0  0  0
 47 45  1  0  0  0  0
 48 45  1  0  0  0  0
 49 18  1  0  0  0  0
 50 49  1  0  0  0  0
 50 51  1  0  0  0  0
 51 17  1  0  0  0  0
 52 19  1  0  0  0  0
 54 13  1  0  0  0  0
 56  5  1  0  0  0  0
 57 12  1  0  0  0  0
M  END
$$$$
