CSD_code = MEGJUG | q = 0 | S = 0 | Stoichiometry = C13H15IN4Pd | MND = 6
 OpenBabel04212202063D

 34 37  0  0  0  0  0  0  0  0999 V2000
    3.3693    2.4706    8.2551 I   0  0  0  0  0  0  0  0  0  0  0  0
    4.7254    4.2574    6.7230 Pd  0  0  0  0  0  0  0  0  0  0  0  0
    3.4772    3.3936    4.9923 N   0  0  0  0  0  0  0  0  0  0  0  0
    5.9437    2.4187    5.9822 N   0  0  0  0  0  0  0  0  0  0  0  0
    4.7556   -0.3819    3.9317 N   0  0  0  0  0  0  0  0  0  0  0  0
    3.6515    0.0419    3.5112 N   0  0  0  0  0  0  0  0  0  0  0  0
    3.9230    2.1629    4.6728 C   0  0  0  0  0  0  0  0  0  0  0  0
    5.1740    1.6741    5.1650 C   0  0  0  0  0  0  0  0  0  0  0  0
    7.0726    1.8984    6.4101 C   0  0  0  0  0  0  0  0  0  0  0  0
    7.6738    2.5227    7.0610 H   0  0  0  0  0  0  0  0  0  0  0  0
    7.5110    0.6103    6.0742 C   0  0  0  0  0  0  0  0  0  0  0  0
    8.4437    0.2481    6.4769 H   0  0  0  0  0  0  0  0  0  0  0  0
    6.7432   -0.1686    5.2459 C   0  0  0  0  0  0  0  0  0  0  0  0
    7.0227   -1.1695    4.9581 H   0  0  0  0  0  0  0  0  0  0  0  0
    5.5360    0.3668    4.7619 C   0  0  0  0  0  0  0  0  0  0  0  0
    3.1833    1.2747    3.8565 C   0  0  0  0  0  0  0  0  0  0  0  0
    1.9215    1.6902    3.3937 C   0  0  0  0  0  0  0  0  0  0  0  0
    1.3416    1.0163    2.7837 H   0  0  0  0  0  0  0  0  0  0  0  0
    1.4799    2.9388    3.7518 C   0  0  0  0  0  0  0  0  0  0  0  0
    0.5155    3.3030    3.4351 H   0  0  0  0  0  0  0  0  0  0  0  0
    2.2957    3.7580    4.5440 C   0  0  0  0  0  0  0  0  0  0  0  0
    1.9585    4.7483    4.8264 H   0  0  0  0  0  0  0  0  0  0  0  0
    5.8365    5.4740    5.4918 C   0  0  0  0  0  0  0  0  0  0  0  0
    5.4126    5.3936    4.4846 H   0  0  0  0  0  0  0  0  0  0  0  0
    6.8627    5.0921    5.4721 H   0  0  0  0  0  0  0  0  0  0  0  0
    5.8644    6.5265    5.7732 H   0  0  0  0  0  0  0  0  0  0  0  0
    3.5228    5.8752    7.0929 C   0  0  0  0  0  0  0  0  0  0  0  0
    2.6361    5.4997    7.6145 H   0  0  0  0  0  0  0  0  0  0  0  0
    3.2291    6.3122    6.1320 H   0  0  0  0  0  0  0  0  0  0  0  0
    3.9912    6.6511    7.7009 H   0  0  0  0  0  0  0  0  0  0  0  0
    5.8952    4.8250    8.3032 C   0  0  0  0  0  0  0  0  0  0  0  0
    6.5592    5.6660    8.0953 H   0  0  0  0  0  0  0  0  0  0  0  0
    6.4894    3.9355    8.5502 H   0  0  0  0  0  0  0  0  0  0  0  0
    5.2622    5.0677    9.1613 H   0  0  0  0  0  0  0  0  0  0  0  0
  2 27  1  0  0  0  0
  2  1  1  0  0  0  0
  2 31  1  0  0  0  0
  3  2  1  0  0  0  0
  4  9  1  0  0  0  0
  4  2  1  0  0  0  0
  5 15  1  0  0  0  0
  6 16  1  0  0  0  0
  6  5  2  0  0  0  0
  7  3  1  0  0  0  0
  7  8  2  0  0  0  0
  8  4  1  0  0  0  0
  9 10  1  0  0  0  0
 11  9  2  0  0  0  0
 11 12  1  0  0  0  0
 13 11  1  0  0  0  0
 14 13  1  0  0  0  0
 15  8  1  0  0  0  0
 15 13  2  0  0  0  0
 16  7  1  0  0  0  0
 17 19  1  0  0  0  0
 17 16  2  0  0  0  0
 18 17  1  0  0  0  0
 19 21  2  0  0  0  0
 20 19  1  0  0  0  0
 21 22  1  0  0  0  0
 21  3  1  0  0  0  0
 23 26  1  0  0  0  0
 23  2  1  0  0  0  0
 24 23  1  0  0  0  0
 25 23  1  0  0  0  0
 27 28  1  0  0  0  0
 27 30  1  0  0  0  0
 29 27  1  0  0  0  0
 31 33  1  0  0  0  0
 31 34  1  0  0  0  0
 32 31  1  0  0  0  0
M  END
$$$$
