CSD_code = MEGKAN | q = 0 | S = 0 | Stoichiometry = C11H15IN4Pd | MND = 6
 OpenBabel04212202063D

 32 34  0  0  0  0  0  0  0  0999 V2000
    1.8524    4.1927    7.0263 I   0  0  0  0  0  0  0  0  0  0  0  0
    1.2487    4.7171    4.4395 Pd  0  0  0  0  0  0  0  0  0  0  0  0
    2.3955    6.6688    4.7909 N   0  0  0  0  0  0  0  0  0  0  0  0
    3.4695    4.2614    3.9867 N   0  0  0  0  0  0  0  0  0  0  0  0
    4.5844    7.4426    5.2130 N   0  0  0  0  0  0  0  0  0  0  0  0
    5.6218    5.1938    4.2404 N   0  0  0  0  0  0  0  0  0  0  0  0
    3.7272    6.5297    4.7876 C   0  0  0  0  0  0  0  0  0  0  0  0
    4.3021    5.2605    4.3043 C   0  0  0  0  0  0  0  0  0  0  0  0
    6.1645    4.0517    3.8717 C   0  0  0  0  0  0  0  0  0  0  0  0
    7.2455    4.0296    3.8401 H   0  0  0  0  0  0  0  0  0  0  0  0
    5.3906    2.9446    3.5428 C   0  0  0  0  0  0  0  0  0  0  0  0
    5.8282    2.0049    3.2507 H   0  0  0  0  0  0  0  0  0  0  0  0
    4.0169    3.1142    3.6051 C   0  0  0  0  0  0  0  0  0  0  0  0
    3.3348    2.3122    3.3452 H   0  0  0  0  0  0  0  0  0  0  0  0
    1.9051    7.7906    5.3056 C   0  0  0  0  0  0  0  0  0  0  0  0
    0.8252    7.8874    5.3208 H   0  0  0  0  0  0  0  0  0  0  0  0
    2.7289    8.7848    5.8078 C   0  0  0  0  0  0  0  0  0  0  0  0
    2.3240    9.6838    6.2409 H   0  0  0  0  0  0  0  0  0  0  0  0
    4.0976    8.5576    5.7184 C   0  0  0  0  0  0  0  0  0  0  0  0
    4.8262    9.2789    6.0628 H   0  0  0  0  0  0  0  0  0  0  0  0
   -0.6450    5.4336    4.7637 C   0  0  0  0  0  0  0  0  0  0  0  0
   -1.4421    4.8030    4.3665 H   0  0  0  0  0  0  0  0  0  0  0  0
   -0.7164    6.4220    4.2947 H   0  0  0  0  0  0  0  0  0  0  0  0
   -0.7738    5.5278    5.8471 H   0  0  0  0  0  0  0  0  0  0  0  0
    0.4204    2.8610    4.1911 C   0  0  0  0  0  0  0  0  0  0  0  0
   -0.3182    2.6716    4.9748 H   0  0  0  0  0  0  0  0  0  0  0  0
    1.2545    2.1603    4.3275 H   0  0  0  0  0  0  0  0  0  0  0  0
   -0.0405    2.6999    3.2146 H   0  0  0  0  0  0  0  0  0  0  0  0
    0.9498    5.0969    2.4370 C   0  0  0  0  0  0  0  0  0  0  0  0
    1.5589    4.3937    1.8589 H   0  0  0  0  0  0  0  0  0  0  0  0
    1.3098    6.1134    2.2421 H   0  0  0  0  0  0  0  0  0  0  0  0
   -0.0821    5.0228    2.0934 H   0  0  0  0  0  0  0  0  0  0  0  0
  2 21  1  0  0  0  0
  2  3  1  0  0  0  0
  2  1  1  0  0  0  0
  3 15  1  0  0  0  0
  4  8  1  0  0  0  0
  4  2  1  0  0  0  0
  5 19  2  0  0  0  0
  6  8  1  0  0  0  0
  7  3  1  0  0  0  0
  7  5  1  0  0  0  0
  8  7  2  0  0  0  0
  9  6  2  0  0  0  0
 10  9  1  0  0  0  0
 11 13  2  0  0  0  0
 11  9  1  0  0  0  0
 12 11  1  0  0  0  0
 13  4  1  0  0  0  0
 14 13  1  0  0  0  0
 15 16  1  0  0  0  0
 15 17  2  0  0  0  0
 17 18  1  0  0  0  0
 19 17  1  0  0  0  0
 19 20  1  0  0  0  0
 21 24  1  0  0  0  0
 22 21  1  0  0  0  0
 23 21  1  0  0  0  0
 25 27  1  0  0  0  0
 25  2  1  0  0  0  0
 25 26  1  0  0  0  0
 28 25  1  0  0  0  0
 29  2  1  0  0  0  0
 30 29  1  0  0  0  0
 31 29  1  0  0  0  0
 32 29  1  0  0  0  0
M  END
$$$$
