CSD_code = MEGNAN | q = 0 | S = 0 | Stoichiometry = C15H27ClN7Rh | MND = 6
 OpenBabel04212202073D

 51 55  0  0  1  0  0  0  0  0999 V2000
   -0.0233    8.1071    3.9360 Rh  0  0  0  0  0  0  0  0  0  0  0  0
    1.4038    9.5802    4.9144 Cl  0  0  0  0  0  0  0  0  0  0  0  0
   -1.1092    6.4152    3.0227 N   0  0  1  0  0  4  0  0  0  0  0  0
    1.6143    7.2133    2.7649 N   0  0  1  0  0  4  0  0  0  0  0  0
    0.5497    6.5289    5.3366 N   0  0  1  0  0  4  0  0  0  0  0  0
   -2.3552    6.8200    2.3720 C   0  0  0  0  0  0  0  0  0  0  0  0
   -2.1174    7.4770    1.5370 H   0  0  0  0  0  0  0  0  0  0  0  0
   -2.9622    7.3680    3.0916 H   0  0  0  0  0  0  0  0  0  0  0  0
   -2.9129    5.9470    2.0135 H   0  0  0  0  0  0  0  0  0  0  0  0
   -0.2390    5.7156    2.0543 C   0  0  0  0  0  0  0  0  0  0  0  0
    0.1117    4.7765    2.4902 H   0  0  0  0  0  0  0  0  0  0  0  0
   -0.8129    5.4532    1.1597 H   0  0  0  0  0  0  0  0  0  0  0  0
    0.9434    6.5812    1.6200 C   0  0  0  0  0  0  0  0  0  0  0  0
    1.6529    5.9802    1.0322 H   0  0  0  0  0  0  0  0  0  0  0  0
    0.5485    7.3971    1.0047 H   0  0  0  0  0  0  0  0  0  0  0  0
    2.5653    8.2071    2.2598 C   0  0  0  0  0  0  0  0  0  0  0  0
    2.0312    8.9610    1.6843 H   0  0  0  0  0  0  0  0  0  0  0  0
    3.3185    7.7356    1.6166 H   0  0  0  0  0  0  0  0  0  0  0  0
    3.0562    8.7026    3.0952 H   0  0  0  0  0  0  0  0  0  0  0  0
    2.3183    6.2207    3.6040 C   0  0  0  0  0  0  0  0  0  0  0  0
    3.4018    6.3240    3.4813 H   0  0  0  0  0  0  0  0  0  0  0  0
    2.0580    5.2128    3.2711 H   0  0  0  0  0  0  0  0  0  0  0  0
    1.9931    6.3876    5.0932 C   0  0  0  0  0  0  0  0  0  0  0  0
    2.4039    5.5353    5.6560 H   0  0  0  0  0  0  0  0  0  0  0  0
    2.4667    7.3054    5.4519 H   0  0  0  0  0  0  0  0  0  0  0  0
    0.3335    6.9205    6.7319 C   0  0  0  0  0  0  0  0  0  0  0  0
   -0.7339    7.0077    6.9254 H   0  0  0  0  0  0  0  0  0  0  0  0
    0.7964    7.8897    6.9137 H   0  0  0  0  0  0  0  0  0  0  0  0
    0.7646    6.1805    7.4176 H   0  0  0  0  0  0  0  0  0  0  0  0
   -0.1855    5.2822    5.0408 C   0  0  0  0  0  0  0  0  0  0  0  0
   -0.5171    4.8096    5.9716 H   0  0  0  0  0  0  0  0  0  0  0  0
    0.4842    4.5714    4.5499 H   0  0  0  0  0  0  0  0  0  0  0  0
   -1.4182    5.5534    4.1731 C   0  0  0  0  0  0  0  0  0  0  0  0
   -2.1568    6.1016    4.7685 H   0  0  0  0  0  0  0  0  0  0  0  0
   -1.8541    4.6000    3.8402 H   0  0  0  0  0  0  0  0  0  0  0  0
   -1.4937    8.7813    5.0674 N   0  0  0  0  0  0  0  0  0  0  0  0
   -2.5970    8.0463    5.1444 N   0  0  0  0  0  0  0  0  0  0  0  0
   -3.4285    8.6594    5.9801 C   0  0  0  0  0  0  0  0  0  0  0  0
   -4.3931    8.2378    6.1930 H   0  0  0  0  0  0  0  0  0  0  0  0
   -2.8450    9.8259    6.4641 C   0  0  0  0  0  0  0  0  0  0  0  0
   -3.2561   10.5369    7.1523 H   0  0  0  0  0  0  0  0  0  0  0  0
   -1.6046    9.8633    5.8510 C   0  0  0  0  0  0  0  0  0  0  0  0
   -0.8224   10.5885    5.9585 H   0  0  0  0  0  0  0  0  0  0  0  0
   -0.4901    9.4650    2.5996 N   0  0  0  0  0  0  0  0  0  0  0  0
   -0.5543    9.0852    1.3279 N   0  0  0  0  0  0  0  0  0  0  0  0
   -0.8624   10.1611    0.6097 C   0  0  0  0  0  0  0  0  0  0  0  0
   -0.9673   10.0900   -0.4570 H   0  0  0  0  0  0  0  0  0  0  0  0
   -0.9997   11.2684    1.4405 C   0  0  0  0  0  0  0  0  0  0  0  0
   -1.2414   12.2757    1.1669 H   0  0  0  0  0  0  0  0  0  0  0  0
   -0.7511   10.7733    2.7096 C   0  0  0  0  0  0  0  0  0  0  0  0
   -0.7476   11.2881    3.6497 H   0  0  0  0  0  0  0  0  0  0  0  0
  1  2  1  0  0  0  0
  1 36  1  0  0  0  0
  1  5  1  0  0  0  0
  3  6  1  6  0  0  0
  3  1  1  0  0  0  0
  3 33  1  0  0  0  0
  4 16  1  6  0  0  0
  4 20  1  0  0  0  0
  4  1  1  0  0  0  0
  5 26  1  1  0  0  0
  6  8  1  0  0  0  0
  7  6  1  0  0  0  0
  9  6  1  0  0  0  0
 10 11  1  0  0  0  0
 10  3  1  0  0  0  0
 12 10  1  0  0  0  0
 13 10  1  0  0  0  0
 13  4  1  0  0  0  0
 14 13  1  0  0  0  0
 15 13  1  0  0  0  0
 16 19  1  0  0  0  0
 17 16  1  0  0  0  0
 18 16  1  0  0  0  0
 20 23  1  0  0  0  0
 21 20  1  0  0  0  0
 22 20  1  0  0  0  0
 23  5  1  0  0  0  0
 23 25  1  0  0  0  0
 23 24  1  0  0  0  0
 26 28  1  0  0  0  0
 26 27  1  0  0  0  0
 26 29  1  0  0  0  0
 30  5  1  0  0  0  0
 30 31  1  0  0  0  0
 32 30  1  0  0  0  0
 33 34  1  0  0  0  0
 33 30  1  0  0  0  0
 35 33  1  0  0  0  0
 36 37  1  0  0  0  0
 36 42  1  0  0  0  0
 37 38  2  0  0  0  0
 38 39  1  0  0  0  0
 38 40  1  0  0  0  0
 40 41  1  0  0  0  0
 42 43  1  0  0  0  0
 42 40  2  0  0  0  0
 44 50  1  0  0  0  0
 44  1  1  0  0  0  0
 45 44  1  0  0  0  0
 46 45  2  0  0  0  0
 46 48  1  0  0  0  0
 47 46  1  0  0  0  0
 48 50  2  0  0  0  0
 49 48  1  0  0  0  0
 50 51  1  0  0  0  0
M  END
$$$$
