CSD_code = MEGTEY | q = 0 | S = 0 | Stoichiometry = C13H19Br3N2OZn | MND = 4
 OpenBabel04212202073D

 39 40  0  0  0  0  0  0  0  0999 V2000
    3.1658    1.6340    2.8465 Zn  0  0  0  0  0  0  0  0  0  0  0  0
    7.9707    6.5432    0.6719 Br  0  0  0  0  0  0  0  0  0  0  0  0
    1.8353    0.2998    4.2275 Br  0  0  0  0  0  0  0  0  0  0  0  0
    3.4498    0.6168    0.6246 Br  0  0  0  0  0  0  0  0  0  0  0  0
    3.2761    3.4641    2.7764 O   0  0  0  0  0  0  0  0  0  0  0  0
    5.2063    1.3199    3.3454 N   0  0  0  0  0  0  0  0  0  0  0  0
    4.7158   -1.6167    2.5691 N   0  0  0  0  0  4  0  0  0  0  0  0
    5.6359    3.5202    2.3676 C   0  0  0  0  0  0  0  0  0  0  0  0
    4.3152    4.0694    2.3375 C   0  0  0  0  0  0  0  0  0  0  0  0
    4.1616    5.3793    1.8073 C   0  0  0  0  0  0  0  0  0  0  0  0
    3.1619    5.7861    1.7939 H   0  0  0  0  0  0  0  0  0  0  0  0
    5.2147    6.0968    1.3191 C   0  0  0  0  0  0  0  0  0  0  0  0
    5.0676    7.0856    0.9115 H   0  0  0  0  0  0  0  0  0  0  0  0
    6.4973    5.5387    1.3501 C   0  0  0  0  0  0  0  0  0  0  0  0
    6.7059    4.2916    1.8662 C   0  0  0  0  0  0  0  0  0  0  0  0
    7.7036    3.8763    1.8878 H   0  0  0  0  0  0  0  0  0  0  0  0
    5.9832    2.2560    2.9143 C   0  0  0  0  0  3  0  0  0  0  0  0
    7.0653    2.0818    2.9738 H   0  0  0  0  0  0  0  0  0  0  0  0
    5.8645    0.1817    3.9584 C   0  0  0  0  0  0  0  0  0  0  0  0
    6.0055    0.4096    5.0233 H   0  0  0  0  0  0  0  0  0  0  0  0
    6.8643    0.0391    3.5238 H   0  0  0  0  0  0  0  0  0  0  0  0
    5.0552   -1.1139    3.9193 C   0  0  0  0  0  0  0  0  0  0  0  0
    5.6170   -1.8872    4.4464 H   0  0  0  0  0  0  0  0  0  0  0  0
    4.1166   -0.9529    4.4537 H   0  0  0  0  0  0  0  0  0  0  0  0
    5.8887   -1.9621    1.7304 C   0  0  0  0  0  0  0  0  0  0  0  0
    6.5265   -1.0794    1.6788 H   0  0  0  0  0  0  0  0  0  0  0  0
    5.5165   -2.1447    0.7220 H   0  0  0  0  0  0  0  0  0  0  0  0
    6.6902   -3.1557    2.2229 C   0  0  0  0  0  0  0  0  0  0  0  0
    7.0981   -2.9912    3.2166 H   0  0  0  0  0  0  0  0  0  0  0  0
    7.5240   -3.3133    1.5444 H   0  0  0  0  0  0  0  0  0  0  0  0
    6.0938   -4.0629    2.2325 H   0  0  0  0  0  0  0  0  0  0  0  0
    3.6996   -2.6965    2.6756 C   0  0  0  0  0  0  0  0  0  0  0  0
    4.1214   -3.5174    3.2579 H   0  0  0  0  0  0  0  0  0  0  0  0
    2.8533   -2.2810    3.2277 H   0  0  0  0  0  0  0  0  0  0  0  0
    3.2120   -3.1777    1.3197 C   0  0  0  0  0  0  0  0  0  0  0  0
    2.9277   -2.3348    0.6955 H   0  0  0  0  0  0  0  0  0  0  0  0
    2.3327   -3.7968    1.4694 H   0  0  0  0  0  0  0  0  0  0  0  0
    3.9555   -3.7728    0.7977 H   0  0  0  0  0  0  0  0  0  0  0  0
    4.2432   -0.8450    2.0251 H   0  0  0  0  0  0  0  0  0  0  0  0
  1  6  1  0  0  0  0
  1  3  1  0  0  0  0
  2 14  1  0  0  0  0
  4  1  1  0  0  0  0
  5  1  1  0  0  0  0
  6 19  1  0  0  0  0
  7 32  1  0  0  0  0
  7 22  1  0  0  0  0
  8 17  1  0  0  0  0
  9  8  1  0  0  0  0
  9  5  1  0  0  0  0
 10  9  2  0  0  0  0
 11 10  1  0  0  0  0
 12 14  2  0  0  0  0
 12 10  1  0  0  0  0
 13 12  1  0  0  0  0
 14 15  1  0  0  0  0
 15 16  1  0  0  0  0
 15  8  2  0  0  0  0
 17 18  1  0  0  0  0
 17  6  1  0  0  0  0
 19 20  1  0  0  0  0
 21 19  1  0  0  0  0
 22 19  1  0  0  0  0
 22 23  1  0  0  0  0
 22 24  1  0  0  0  0
 25 28  1  0  0  0  0
 25  7  1  0  0  0  0
 26 25  1  0  0  0  0
 27 25  1  0  0  0  0
 28 31  1  0  0  0  0
 28 29  1  0  0  0  0
 30 28  1  0  0  0  0
 32 34  1  0  0  0  0
 32 33  1  0  0  0  0
 35 37  1  0  0  0  0
 35 32  1  0  0  0  0
 36 35  1  0  0  0  0
 38 35  1  0  0  0  0
 39  7  1  0  0  0  0
M  END
$$$$
