CSD_code = MEGYIG | q = 0 | S = 0 | Stoichiometry = C18H24Cl2N4Ru | MND = 6
 OpenBabel04212202073D

 49 52  0  0  1  0  0  0  0  0999 V2000
   -0.0002    8.9336    8.2297 Ru  0  0  0  0  0  0  0  0  0  0  0  0
    1.5923    8.9389   10.0318 Cl  0  0  0  0  0  0  0  0  0  0  0  0
   -0.0001    7.0403    8.2297 N   0  0  0  0  0  0  0  0  0  0  0  0
   -1.6912    8.5931    9.5523 N   0  0  0  0  0  4  0  0  0  0  0  0
   -0.0000   10.8025    8.2294 N   0  0  0  0  0  2  0  0  0  0  0  0
   -1.0742    6.3835    8.6781 C   0  0  2  0  0  3  0  0  0  0  0  0
   -1.1034    5.0004    8.7021 C   0  0  0  0  0  0  0  0  0  0  0  0
   -1.9725    4.4806    9.0737 H   0  0  0  0  0  0  0  0  0  0  0  0
    0.0001    4.2999    8.2300 C   0  0  0  0  0  0  0  0  0  0  0  0
    0.0002    3.2214    8.2301 H   0  0  0  0  0  0  0  0  0  0  0  0
   -2.2075    7.2970    9.0611 C   0  0  0  0  0  0  0  0  0  0  0  0
   -2.8704    6.8323    9.8036 H   0  0  0  0  0  0  0  0  0  0  0  0
   -2.7792    7.4961    8.1455 H   0  0  0  0  0  0  0  0  0  0  0  0
   -2.7355    9.6116    9.4527 C   0  0  0  0  0  0  0  0  0  0  0  0
   -2.9981    9.7624    8.4052 H   0  0  0  0  0  0  0  0  0  0  0  0
   -2.3581   10.5510    9.8576 H   0  0  0  0  0  0  0  0  0  0  0  0
   -3.6298    9.3147   10.0149 H   0  0  0  0  0  0  0  0  0  0  0  0
   -1.3096    8.4432   10.9563 C   0  0  0  0  0  0  0  0  0  0  0  0
   -0.8572    9.3667   11.3159 H   0  0  0  0  0  0  0  0  0  0  0  0
   -0.5758    7.6442   11.0627 H   0  0  0  0  0  0  0  0  0  0  0  0
   -2.1883    8.2087   11.5716 H   0  0  0  0  0  0  0  0  0  0  0  0
    0.0004   11.9631    8.2295 C   0  0  0  0  0  2  0  0  0  0  0  0
    0.0003   13.3655    8.2296 C   0  0  0  0  0  0  0  0  0  0  0  0
   -0.4174   14.0695    9.3655 C   0  0  0  0  0  0  0  0  0  0  0  0
   -0.7354   13.5234   10.2411 H   0  0  0  0  0  0  0  0  0  0  0  0
   -0.4149   15.4492    9.3571 C   0  0  0  0  0  0  0  0  0  0  0  0
   -0.7390   15.9901   10.2341 H   0  0  0  0  0  0  0  0  0  0  0  0
   -0.0000   16.1427    8.2298 C   0  0  0  0  0  0  0  0  0  0  0  0
   -0.0001   17.2223    8.2299 H   0  0  0  0  0  0  0  0  0  0  0  0
   -1.5920    8.9393    6.4273 Cl  0  0  0  0  0  0  0  0  0  0  0  0
    1.1035    5.0005    7.7576 C   0  0  0  0  0  0  0  0  0  0  0  0
    1.0741    6.3836    7.7814 C   0  0  0  0  0  0  0  0  0  0  0  0
    2.2073    7.2971    7.3983 C   0  0  0  0  0  0  0  0  0  0  0  0
    1.6910    8.5932    6.9072 N   0  0  0  0  0  4  0  0  0  0  0  0
    0.4150   15.4495    7.1024 C   0  0  0  0  0  0  0  0  0  0  0  0
    0.4177   14.0698    7.0938 C   0  0  0  0  0  0  0  0  0  0  0  0
    0.7359   13.5239    6.2180 H   0  0  0  0  0  0  0  0  0  0  0  0
    0.7391   15.9906    6.2256 H   0  0  0  0  0  0  0  0  0  0  0  0
    2.7353    9.6117    7.0069 C   0  0  0  0  0  0  0  0  0  0  0  0
    2.9980    9.7624    8.0544 H   0  0  0  0  0  0  0  0  0  0  0  0
    2.3578   10.5512    6.6022 H   0  0  0  0  0  0  0  0  0  0  0  0
    3.6296    9.3148    6.4447 H   0  0  0  0  0  0  0  0  0  0  0  0
    1.3095    8.4434    5.5033 C   0  0  0  0  0  0  0  0  0  0  0  0
    0.8571    9.3670    5.1437 H   0  0  0  0  0  0  0  0  0  0  0  0
    0.5757    7.6444    5.3968 H   0  0  0  0  0  0  0  0  0  0  0  0
    2.1882    8.2090    4.8880 H   0  0  0  0  0  0  0  0  0  0  0  0
    2.8703    6.8324    6.6558 H   0  0  0  0  0  0  0  0  0  0  0  0
    2.7790    7.4962    8.3140 H   0  0  0  0  0  0  0  0  0  0  0  0
    1.9727    4.4808    7.3862 H   0  0  0  0  0  0  0  0  0  0  0  0
  1  4  1  0  0  0  0
  1  2  1  0  0  0  0
  3  1  1  0  0  0  0
  3  6  1  0  0  0  0
  4 18  1  0  0  0  0
  5 22  1  0  0  0  0
  5  1  1  0  0  0  0
  6  7  1  6  0  0  0
  6 11  1  0  0  0  0
  7  8  1  0  0  0  0
  9 10  1  0  0  0  0
  9  7  2  0  0  0  0
 11  4  1  0  0  0  0
 11 12  1  0  0  0  0
 13 11  1  0  0  0  0
 14  4  1  0  0  0  0
 14 16  1  0  0  0  0
 14 17  1  0  0  0  0
 15 14  1  0  0  0  0
 18 20  1  0  0  0  0
 18 19  1  0  0  0  0
 18 21  1  0  0  0  0
 22 23  1  0  0  0  0
 23 24  1  0  0  0  0
 24 25  1  0  0  0  0
 26 24  2  0  0  0  0
 26 27  1  0  0  0  0
 28 29  1  0  0  0  0
 28 26  1  0  0  0  0
 30  1  1  0  0  0  0
 31 32  2  0  0  0  0
 31  9  1  0  0  0  0
 32  3  1  0  0  0  0
 33 32  1  0  0  0  0
 33 48  1  0  0  0  0
 34 39  1  0  0  0  0
 34 33  1  0  0  0  0
 34  1  1  0  0  0  0
 35 28  2  0  0  0  0
 36 35  1  0  0  0  0
 36 23  2  0  0  0  0
 37 36  1  0  0  0  0
 38 35  1  0  0  0  0
 39 40  1  0  0  0  0
 41 39  1  0  0  0  0
 42 39  1  0  0  0  0
 43 34  1  0  0  0  0
 44 43  1  0  0  0  0
 45 43  1  0  0  0  0
 46 43  1  0  0  0  0
 47 33  1  0  0  0  0
 49 31  1  0  0  0  0
M  END
$$$$
