CSD_code = MEHGIR | q = 0 | S = 0 | Stoichiometry = C20H19Cl3HfN2O | MND = 6
 OpenBabel04212202073D

 46 50  0  0  0  0  0  0  0  0999 V2000
    0.8535    2.0656    2.8280 Hf  0  0  0  0  0  0  0  0  0  0  0  0
    1.4980   -0.0810    2.2789 Cl  0  0  0  0  0  0  0  0  0  0  0  0
    0.0309    1.4496    4.9570 Cl  0  0  0  0  0  0  0  0  0  0  0  0
    1.2072    2.8223    0.6089 Cl  0  0  0  0  0  0  0  0  0  0  0  0
    2.3830    2.9650    3.5111 O   0  0  0  0  0  0  0  0  0  0  0  0
   -1.2163    1.7750    2.0621 N   0  0  0  0  0  0  0  0  0  0  0  0
   -0.1150    3.9597    3.1793 N   0  0  0  0  0  0  0  0  0  0  0  0
   -1.7152    0.6845    1.5203 C   0  0  0  0  0  0  0  0  0  0  0  0
   -1.1831   -0.2391    1.7252 H   0  0  0  0  0  0  0  0  0  0  0  0
   -2.8641    0.6927    0.7161 C   0  0  0  0  0  0  0  0  0  0  0  0
   -3.2248   -0.2329    0.2972 H   0  0  0  0  0  0  0  0  0  0  0  0
   -3.4976    1.8820    0.4711 C   0  0  0  0  0  0  0  0  0  0  0  0
   -4.3788    1.9304   -0.1519 H   0  0  0  0  0  0  0  0  0  0  0  0
   -2.9885    3.0717    1.0338 C   0  0  0  0  0  0  0  0  0  0  0  0
   -1.8241    2.9675    1.8375 C   0  0  0  0  0  0  0  0  0  0  0  0
   -3.5650    4.3401    0.8165 C   0  0  0  0  0  3  0  0  0  0  0  0
   -4.4448    4.4129    0.1961 H   0  0  0  0  0  0  0  0  0  0  0  0
   -2.9988    5.4571    1.3695 C   0  0  0  0  0  0  0  0  0  0  0  0
   -3.4298    6.4295    1.1866 H   0  0  0  0  0  0  0  0  0  0  0  0
   -1.8547    5.3664    2.1700 C   0  0  0  0  0  0  0  0  0  0  0  0
   -1.4117    6.2690    2.5625 H   0  0  0  0  0  0  0  0  0  0  0  0
   -1.2633    4.1435    2.4264 C   0  0  0  0  0  0  0  0  0  0  0  0
    0.2185    4.7214    4.1749 C   0  0  0  0  0  3  0  0  0  0  0  0
   -0.4522    5.5298    4.4818 H   0  0  0  0  0  0  0  0  0  0  0  0
    1.3773    4.5438    4.9729 C   0  0  0  0  0  0  0  0  0  0  0  0
    1.4936    5.3186    6.1471 C   0  0  0  0  0  0  0  0  0  0  0  0
    0.7261    6.0459    6.3675 H   0  0  0  0  0  0  0  0  0  0  0  0
    2.5428    5.1302    7.0000 C   0  0  0  0  0  0  0  0  0  0  0  0
    2.6317    5.7186    7.8999 H   0  0  0  0  0  0  0  0  0  0  0  0
    3.4977    4.1462    6.7241 C   0  0  0  0  0  0  0  0  0  0  0  0
    4.2888    4.0044    7.4415 H   0  0  0  0  0  0  0  0  0  0  0  0
    3.4543    3.3676    5.5873 C   0  0  0  0  0  0  0  0  0  0  0  0
    2.3986    3.5884    4.6558 C   0  0  0  0  0  0  0  0  0  0  0  0
    4.4651    2.2603    5.3142 C   0  0  0  0  0  0  0  0  0  0  0  0
    5.2412    2.5637    4.0242 C   0  0  0  0  0  0  0  0  0  0  0  0
    4.5769    2.6059    3.1646 H   0  0  0  0  0  0  0  0  0  0  0  0
    5.9782    1.7836    3.8481 H   0  0  0  0  0  0  0  0  0  0  0  0
    5.7587    3.5176    4.1106 H   0  0  0  0  0  0  0  0  0  0  0  0
    3.7095    0.9277    5.1826 C   0  0  0  0  0  0  0  0  0  0  0  0
    3.0977    0.7503    6.0657 H   0  0  0  0  0  0  0  0  0  0  0  0
    4.4191    0.1094    5.0813 H   0  0  0  0  0  0  0  0  0  0  0  0
    3.0574    0.9155    4.3045 H   0  0  0  0  0  0  0  0  0  0  0  0
    5.4807    2.1116    6.4526 C   0  0  0  0  0  0  0  0  0  0  0  0
    6.0731    3.0155    6.5755 H   0  0  0  0  0  0  0  0  0  0  0  0
    6.1618    1.2977    6.2152 H   0  0  0  0  0  0  0  0  0  0  0  0
    4.9874    1.8713    7.3914 H   0  0  0  0  0  0  0  0  0  0  0  0
  1  7  1  0  0  0  0
  1  5  1  0  0  0  0
  1  3  1  0  0  0  0
  2  1  1  0  0  0  0
  4  1  1  0  0  0  0
  5 33  1  0  0  0  0
  6  1  1  0  0  0  0
  7 23  1  0  0  0  0
  8  9  1  0  0  0  0
  8  6  1  0  0  0  0
 10  8  2  0  0  0  0
 11 10  1  0  0  0  0
 12 10  1  0  0  0  0
 12 14  2  0  0  0  0
 13 12  1  0  0  0  0
 14 15  1  0  0  0  0
 15  6  1  0  0  0  0
 15 22  2  0  0  0  0
 16 14  1  0  0  0  0
 16 18  1  0  0  0  0
 17 16  1  0  0  0  0
 18 20  2  0  0  0  0
 19 18  1  0  0  0  0
 20 22  1  0  0  0  0
 20 21  1  0  0  0  0
 22  7  1  0  0  0  0
 23 24  1  0  0  0  0
 23 25  1  0  0  0  0
 25 26  1  0  0  0  0
 26 27  1  0  0  0  0
 26 28  2  0  0  0  0
 28 29  1  0  0  0  0
 30 28  1  0  0  0  0
 30 31  1  0  0  0  0
 32 30  2  0  0  0  0
 33 25  2  0  0  0  0
 33 32  1  0  0  0  0
 34 32  1  0  0  0  0
 34 43  1  0  0  0  0
 35 38  1  0  0  0  0
 35 34  1  0  0  0  0
 36 35  1  0  0  0  0
 37 35  1  0  0  0  0
 39 34  1  0  0  0  0
 39 40  1  0  0  0  0
 41 39  1  0  0  0  0
 42 39  1  0  0  0  0
 43 44  1  0  0  0  0
 43 46  1  0  0  0  0
 45 43  1  0  0  0  0
M  END
$$$$
