CSD_code = MEHGAJ | q = 0 | S = 0 | Stoichiometry = C20H19Cl3N2OTi | MND = 6
 OpenBabel04212202073D

 46 50  0  0  0  0  0  0  0  0999 V2000
    3.8852    2.6209    6.7885 Ti  0  0  0  0  0  0  0  0  0  0  0  0
    5.7301    3.6349    6.1937 Cl  0  0  0  0  0  0  0  0  0  0  0  0
    4.8938    1.1630    8.2327 Cl  0  0  0  0  0  0  0  0  0  0  0  0
    2.6250    3.4852    5.1015 Cl  0  0  0  0  0  0  0  0  0  0  0  0
    3.3311    3.6763    8.0143 O   0  0  0  0  0  0  0  0  0  0  0  0
    4.0922    1.0347    5.4828 N   0  0  0  0  0  0  0  0  0  0  0  0
    2.1577    1.4970    7.2531 N   0  0  0  0  0  0  0  0  0  0  0  0
    5.0904    0.8222    4.6542 C   0  0  0  0  0  0  0  0  0  0  0  0
    5.9399    1.4952    4.7315 H   0  0  0  0  0  0  0  0  0  0  0  0
    5.0832   -0.2113    3.7041 C   0  0  0  0  0  0  0  0  0  0  0  0
    5.9348   -0.3384    3.0551 H   0  0  0  0  0  0  0  0  0  0  0  0
    3.9895   -1.0293    3.6122 C   0  0  0  0  0  0  0  0  0  0  0  0
    3.9405   -1.8249    2.8831 H   0  0  0  0  0  0  0  0  0  0  0  0
    2.9000   -0.8251    4.4849 C   0  0  0  0  0  0  0  0  0  0  0  0
    3.0074    0.2271    5.4302 C   0  0  0  0  0  0  0  0  0  0  0  0
    1.7203   -1.5961    4.4458 C   0  0  0  0  0  3  0  0  0  0  0  0
    1.6410   -2.3919    3.7211 H   0  0  0  0  0  0  0  0  0  0  0  0
    0.6892   -1.3176    5.3019 C   0  0  0  0  0  0  0  0  0  0  0  0
   -0.2239   -1.8914    5.2538 H   0  0  0  0  0  0  0  0  0  0  0  0
    0.7921   -0.2944    6.2503 C   0  0  0  0  0  0  0  0  0  0  0  0
   -0.0549   -0.0923    6.8879 H   0  0  0  0  0  0  0  0  0  0  0  0
    1.9431    0.4668    6.3519 C   0  0  0  0  0  0  0  0  0  0  0  0
    1.4789    1.6203    8.3466 C   0  0  0  0  0  3  0  0  0  0  0  0
    0.7352    0.8637    8.6167 H   0  0  0  0  0  0  0  0  0  0  0  0
    1.6333    2.6819    9.2849 C   0  0  0  0  0  0  0  0  0  0  0  0
    0.8294    2.7134   10.4382 C   0  0  0  0  0  0  0  0  0  0  0  0
    0.1030    1.9290   10.5937 H   0  0  0  0  0  0  0  0  0  0  0  0
    0.9695    3.7275   11.3482 C   0  0  0  0  0  0  0  0  0  0  0  0
    0.3506    3.7562   12.2317 H   0  0  0  0  0  0  0  0  0  0  0  0
    1.9220    4.7293   11.1466 C   0  0  0  0  0  0  0  0  0  0  0  0
    2.0054    5.5010   11.8941 H   0  0  0  0  0  0  0  0  0  0  0  0
    2.7462    4.7524   10.0391 C   0  0  0  0  0  0  0  0  0  0  0  0
    2.5968    3.7157    9.0799 C   0  0  0  0  0  0  0  0  0  0  0  0
    3.8215    5.8071    9.8147 C   0  0  0  0  0  0  0  0  0  0  0  0
    5.1941    5.1139    9.7995 C   0  0  0  0  0  0  0  0  0  0  0  0
    5.3622    4.5895   10.7387 H   0  0  0  0  0  0  0  0  0  0  0  0
    5.9786    5.8562    9.6709 H   0  0  0  0  0  0  0  0  0  0  0  0
    5.2743    4.3924    8.9836 H   0  0  0  0  0  0  0  0  0  0  0  0
    3.5772    6.5257    8.4777 C   0  0  0  0  0  0  0  0  0  0  0  0
    3.6647    5.8442    7.6298 H   0  0  0  0  0  0  0  0  0  0  0  0
    4.3127    7.3166    8.3492 H   0  0  0  0  0  0  0  0  0  0  0  0
    2.5837    6.9711    8.4641 H   0  0  0  0  0  0  0  0  0  0  0  0
    3.8324    6.8630   10.9252 C   0  0  0  0  0  0  0  0  0  0  0  0
    2.8835    7.3922   10.9744 H   0  0  0  0  0  0  0  0  0  0  0  0
    4.6118    7.5918   10.7162 H   0  0  0  0  0  0  0  0  0  0  0  0
    4.0461    6.4154   11.8930 H   0  0  0  0  0  0  0  0  0  0  0  0
  1  7  1  0  0  0  0
  1  5  1  0  0  0  0
  1  3  1  0  0  0  0
  2  1  1  0  0  0  0
  4  1  1  0  0  0  0
  5 33  1  0  0  0  0
  6  1  1  0  0  0  0
  7 23  1  0  0  0  0
  8  9  1  0  0  0  0
  8  6  1  0  0  0  0
 10  8  2  0  0  0  0
 11 10  1  0  0  0  0
 12 10  1  0  0  0  0
 12 14  2  0  0  0  0
 13 12  1  0  0  0  0
 14 15  1  0  0  0  0
 15  6  1  0  0  0  0
 15 22  2  0  0  0  0
 16 14  1  0  0  0  0
 16 18  1  0  0  0  0
 17 16  1  0  0  0  0
 18 20  2  0  0  0  0
 19 18  1  0  0  0  0
 20 22  1  0  0  0  0
 20 21  1  0  0  0  0
 22  7  1  0  0  0  0
 23 24  1  0  0  0  0
 23 25  1  0  0  0  0
 25 26  1  0  0  0  0
 26 27  1  0  0  0  0
 26 28  2  0  0  0  0
 28 29  1  0  0  0  0
 30 28  1  0  0  0  0
 30 31  1  0  0  0  0
 32 30  2  0  0  0  0
 33 25  2  0  0  0  0
 33 32  1  0  0  0  0
 34 32  1  0  0  0  0
 34 43  1  0  0  0  0
 35 34  1  0  0  0  0
 35 36  1  0  0  0  0
 37 35  1  0  0  0  0
 38 35  1  0  0  0  0
 39 34  1  0  0  0  0
 40 39  1  0  0  0  0
 41 39  1  0  0  0  0
 42 39  1  0  0  0  0
 43 44  1  0  0  0  0
 43 46  1  0  0  0  0
 45 43  1  0  0  0  0
M  END
$$$$
