CSD_code = MEHHIT | q = 0 | S = 0 | Stoichiometry = C30H27Cl4N2OPPdS2 | MND = 4
 OpenBabel04212202073D

 68 73  0  0  1  0  0  0  0  0999 V2000
    5.4136    3.4057    7.7816 C   0  0  1  0  0  3  0  0  0  0  0  0
    5.3239    4.3193   10.0434 C   0  0  0  0  0  0  0  0  0  0  0  0
    4.2921    4.5372    9.7655 H   0  0  0  0  0  0  0  0  0  0  0  0
    5.8227    5.2422   10.3551 H   0  0  0  0  0  0  0  0  0  0  0  0
    5.3777    3.2933   11.1785 C   0  0  0  0  0  0  0  0  0  0  0  0
    4.8638    3.6826   12.0551 H   0  0  0  0  0  0  0  0  0  0  0  0
    4.8530    2.3803   10.8486 H   0  0  0  0  0  0  0  0  0  0  0  0
    7.4477    2.4353   10.3559 C   0  0  0  0  0  0  0  0  0  0  0  0
    6.9909    1.4884   10.0242 H   0  0  0  0  0  0  0  0  0  0  0  0
    8.4912    2.2575   10.6153 H   0  0  0  0  0  0  0  0  0  0  0  0
    7.3989    3.4426    9.1992 C   0  0  0  0  0  0  0  0  0  0  0  0
    7.9238    4.3570    9.4930 H   0  0  0  0  0  0  0  0  0  0  0  0
    7.8696    3.0240    8.3090 H   0  0  0  0  0  0  0  0  0  0  0  0
    7.0929    2.5951   12.7866 C   0  0  0  0  0  0  0  0  0  0  0  0
    7.8668    1.4667   13.0412 C   0  0  0  0  0  0  0  0  0  0  0  0
    8.1892    0.8253   12.2370 H   0  0  0  0  0  0  0  0  0  0  0  0
    8.2128    1.1435   14.3430 C   0  0  0  0  0  0  0  0  0  0  0  0
    8.8105    0.2635   14.5280 H   0  0  0  0  0  0  0  0  0  0  0  0
    7.7942    1.9167   15.4029 C   0  0  0  0  0  0  0  0  0  0  0  0
    8.0514    1.6718   16.4200 H   0  0  0  0  0  0  0  0  0  0  0  0
    7.0182    3.0523   15.1616 C   0  0  0  0  0  0  0  0  0  0  0  0
    6.6792    3.3887   13.8612 C   0  0  0  0  0  0  0  0  0  0  0  0
    6.1091    4.2812   13.6592 H   0  0  0  0  0  0  0  0  0  0  0  0
    5.8757    4.9226   16.0988 C   0  0  0  0  0  0  0  0  0  0  0  0
    6.3972    5.6779   15.5014 H   0  0  0  0  0  0  0  0  0  0  0  0
    5.7086    5.3122   17.1018 H   0  0  0  0  0  0  0  0  0  0  0  0
    4.9094    4.6958   15.6354 H   0  0  0  0  0  0  0  0  0  0  0  0
    0.8102    3.8530    5.1957 C   0  0  0  0  0  0  0  0  0  0  0  0
    0.4220    3.3611    6.4406 C   0  0  0  0  0  0  0  0  0  0  0  0
    0.9382    2.5000    6.8492 H   0  0  0  0  0  0  0  0  0  0  0  0
   -0.5944    3.9677    7.1487 C   0  0  0  0  0  0  0  0  0  0  0  0
   -0.8983    3.5919    8.1130 H   0  0  0  0  0  0  0  0  0  0  0  0
   -1.2223    5.0820    6.6071 C   0  0  0  0  0  0  0  0  0  0  0  0
   -0.8400    5.5890    5.3746 C   0  0  0  0  0  0  0  0  0  0  0  0
   -1.3354    6.4593    4.9731 H   0  0  0  0  0  0  0  0  0  0  0  0
    0.1802    4.9743    4.6705 C   0  0  0  0  0  0  0  0  0  0  0  0
    0.4870    5.3681    3.7120 H   0  0  0  0  0  0  0  0  0  0  0  0
    2.4494    3.9033    2.8463 C   0  0  0  0  0  0  0  0  0  0  0  0
    3.4077    4.9134    2.9527 C   0  0  0  0  0  0  0  0  0  0  0  0
    3.9247    5.0579    3.9098 H   0  0  0  0  0  0  0  0  0  0  0  0
    3.7241    5.6963    1.8622 C   0  0  0  0  0  0  0  0  0  0  0  0
    4.4672    6.4750    1.9334 H   0  0  0  0  0  0  0  0  0  0  0  0
    3.0834    5.4555    0.6528 C   0  0  0  0  0  0  0  0  0  0  0  0
    2.1467    4.4412    0.5286 C   0  0  0  0  0  0  0  0  0  0  0  0
    1.6770    4.2570   -0.4250 H   0  0  0  0  0  0  0  0  0  0  0  0
    1.8287    3.6636    1.6290 C   0  0  0  0  0  0  0  0  0  0  0  0
    1.1171    2.8586    1.5284 H   0  0  0  0  0  0  0  0  0  0  0  0
    1.4574    1.3566    4.0873 C   0  0  0  0  0  0  0  0  0  0  0  0
    0.2203    1.1846    3.4733 C   0  0  0  0  0  0  0  0  0  0  0  0
   -0.3400    2.0447    3.1350 H   0  0  0  0  0  0  0  0  0  0  0  0
   -0.3026   -0.0847    3.3148 C   0  0  0  0  0  0  0  0  0  0  0  0
   -1.2557   -0.2303    2.8306 H   0  0  0  0  0  0  0  0  0  0  0  0
    0.4054   -1.1797    3.7916 C   0  0  0  0  0  0  0  0  0  0  0  0
    1.6211   -1.0187    4.4419 C   0  0  0  0  0  0  0  0  0  0  0  0
    2.1478   -1.8800    4.8217 H   0  0  0  0  0  0  0  0  0  0  0  0
    2.1417    0.2524    4.5913 C   0  0  0  0  0  0  0  0  0  0  0  0
    3.1010    0.4025    5.1001 H   0  0  0  0  0  0  0  0  0  0  0  0
    4.7950    1.9301    3.4154 Cl  0  0  0  0  0  0  0  0  0  0  0  0
   -2.4930    5.8507    7.4851 Cl  0  0  0  0  0  0  0  0  0  0  0  0
    3.4729    6.4238   -0.7201 Cl  0  0  0  0  0  0  0  0  0  0  0  0
   -0.2487   -2.7621    3.5894 Cl  0  0  0  0  0  0  0  0  0  0  0  0
    6.0276    3.7833    8.9018 N   0  0  0  0  0  0  0  0  0  0  0  0
    6.7600    3.0037   11.4921 N   0  0  0  0  0  0  0  0  0  0  0  0
    6.6548    3.7649   16.2653 O   0  0  0  0  0  0  0  0  0  0  0  0
    2.1929    2.9857    4.3880 P   0  0  0  0  0  4  0  0  0  0  0  0
    4.1653    2.7992    5.4106 Pd  0  0  2  0  0  0  0  0  0  0  0  0
    3.7461    3.6912    7.5232 S   0  0  0  0  0  0  0  0  0  0  0  0
    6.2279    2.6370    6.5022 S   0  0  0  0  0  0  0  0  0  0  0  0
  1 62  1  6  0  0  0
  2  4  1  0  0  0  0
  2  5  1  0  0  0  0
  3  2  1  0  0  0  0
  5 63  1  0  0  0  0
  5  6  1  0  0  0  0
  7  5  1  0  0  0  0
  8 10  1  0  0  0  0
  8 63  1  0  0  0  0
  9  8  1  0  0  0  0
 11 12  1  0  0  0  0
 11  8  1  0  0  0  0
 13 11  1  0  0  0  0
 14 15  2  0  0  0  0
 14 22  1  0  0  0  0
 15 17  1  0  0  0  0
 16 15  1  0  0  0  0
 17 18  1  0  0  0  0
 17 19  2  0  0  0  0
 19 20  1  0  0  0  0
 21 19  1  0  0  0  0
 21 64  1  0  0  0  0
 22 21  2  0  0  0  0
 23 22  1  0  0  0  0
 24 64  1  0  0  0  0
 24 26  1  0  0  0  0
 25 24  1  0  0  0  0
 27 24  1  0  0  0  0
 28 29  1  0  0  0  0
 29 30  1  0  0  0  0
 29 31  2  0  0  0  0
 31 32  1  0  0  0  0
 33 31  1  0  0  0  0
 33 59  1  0  0  0  0
 34 33  2  0  0  0  0
 35 34  1  0  0  0  0
 36 28  2  0  0  0  0
 36 34  1  0  0  0  0
 37 36  1  0  0  0  0
 38 39  1  0  0  0  0
 38 65  1  0  0  0  0
 39 40  1  0  0  0  0
 41 42  1  0  0  0  0
 41 39  2  0  0  0  0
 43 41  1  0  0  0  0
 44 43  2  0  0  0  0
 44 46  1  0  0  0  0
 45 44  1  0  0  0  0
 46 38  2  0  0  0  0
 47 46  1  0  0  0  0
 48 65  1  0  0  0  0
 48 56  1  0  0  0  0
 49 48  2  0  0  0  0
 50 49  1  0  0  0  0
 51 49  1  0  0  0  0
 51 53  2  0  0  0  0
 52 51  1  0  0  0  0
 53 54  1  0  0  0  0
 54 56  2  0  0  0  0
 54 55  1  0  0  0  0
 56 57  1  0  0  0  0
 60 43  1  0  0  0  0
 61 53  1  0  0  0  0
 62 11  1  0  0  0  0
 62  2  1  0  0  0  0
 63 14  1  0  0  0  0
 65 28  1  0  0  0  0
 65 66  1  0  0  0  0
 66 58  1  6  0  0  0
 66 68  1  0  0  0  0
 66 67  1  0  0  0  0
 67  1  1  0  0  0  0
 68  1  1  0  0  0  0
M  END
$$$$
