CSD_code = MEHKAM | q = 0 | S = 0 | Stoichiometry = C4H6Br2N2Pd | MND = 4
 OpenBabel04212202073D

 15 14  0  0  0  0  0  0  0  0999 V2000
   -0.0007    0.0002    0.0008 Pd  0  0  0  0  0  0  0  0  0  0  0  0
    0.5972    1.6018   -1.7506 Br  0  0  0  0  0  0  0  0  0  0  0  0
    2.0933    1.2076    1.8010 C   0  0  0  0  0  2  0  0  0  0  0  0
    3.0879    1.7802    2.6485 C   0  0  0  0  0  0  0  0  0  0  0  0
    1.2919    0.7462    1.1176 N   0  0  0  0  0  2  0  0  0  0  0  0
    2.6097    2.4169    3.3933 H   0  0  0  0  0  0  0  0  0  0  0  0
    3.6381    0.9860    3.1538 H   0  0  0  0  0  0  0  0  0  0  0  0
    3.7749    2.3772    2.0484 H   0  0  0  0  0  0  0  0  0  0  0  0
   -0.5974   -1.6027    1.7514 Br  0  0  0  0  0  0  0  0  0  0  0  0
   -2.0932   -1.2076   -1.8012 C   0  0  0  0  0  2  0  0  0  0  0  0
   -3.0880   -1.7802   -2.6485 C   0  0  0  0  0  0  0  0  0  0  0  0
   -1.2909   -0.7455   -1.1191 N   0  0  0  0  0  2  0  0  0  0  0  0
   -2.6099   -2.4169   -3.3933 H   0  0  0  0  0  0  0  0  0  0  0  0
   -3.6381   -0.9859   -3.1538 H   0  0  0  0  0  0  0  0  0  0  0  0
   -3.7749   -2.3772   -2.0483 H   0  0  0  0  0  0  0  0  0  0  0  0
  1  5  1  0  0  0  0
  1  9  1  0  0  0  0
  2  1  1  0  0  0  0
  3  4  1  0  0  0  0
  4  7  1  0  0  0  0
  4  6  1  0  0  0  0
  5  3  1  0  0  0  0
  8  4  1  0  0  0  0
 10 12  1  0  0  0  0
 11 15  1  0  0  0  0
 11 10  1  0  0  0  0
 12  1  1  0  0  0  0
 13 11  1  0  0  0  0
 14 11  1  0  0  0  0
M  END
$$$$
