CSD_code = MEJNIY | q = 1 | S = 0 | Stoichiometry = C21H22ClN6OOs(1+) | MND = 6
 OpenBabel04212202073D

 52 57  0  0  1  0  0  0  0  0999 V2000
    7.4025   18.9538    2.6120 Os  0  0  0  0  0  0  0  0  0  0  0  0
    6.4177   21.0748    2.4171 Cl  0  0  0  0  0  0  0  0  0  0  0  0
    8.2728   17.2747    2.7871 N   0  0  0  0  0  2  0  0  0  0  0  0
    8.1031   16.1871    3.3494 N   0  0  0  0  0  0  0  0  0  0  0  0
    6.9787   15.7741    4.1923 C   0  0  0  0  0  0  0  0  0  0  0  0
    7.5097   15.5372    5.6165 C   0  0  0  0  0  0  0  0  0  0  0  0
    8.5293   14.5756    5.6177 O   0  0  0  0  0  0  0  0  0  0  0  0
    9.6131   14.9662    4.8147 C   0  0  0  0  0  0  0  0  0  0  0  0
    9.1655   15.1836    3.3602 C   0  0  0  0  0  0  0  0  0  0  0  0
    5.5509   18.3070    2.8201 N   0  0  0  0  0  2  0  0  0  0  0  0
    4.3992   18.3938    2.8399 C   0  0  0  0  0  2  0  0  0  0  0  0
    2.9768   18.4919    2.8663 C   0  0  0  0  0  0  0  0  0  0  0  0
    7.8175   19.4734    4.5994 N   0  0  0  0  0  0  0  0  0  0  0  0
    7.0871   19.3008    5.6957 C   0  0  0  0  0  3  0  0  0  0  0  0
    7.4476   19.8022    6.9340 C   0  0  0  0  0  0  0  0  0  0  0  0
    8.6311   20.5195    7.0391 C   0  0  0  0  0  0  0  0  0  0  0  0
    9.3931   20.7146    5.9022 C   0  0  0  0  0  0  0  0  0  0  0  0
    8.9650   20.1913    4.6826 C   0  0  0  0  0  0  0  0  0  0  0  0
    9.0515   19.8381    2.3594 N   0  0  0  0  0  0  0  0  0  0  0  0
    9.6659   20.4100    3.4148 C   0  0  1  0  0  3  0  0  0  0  0  0
   10.8086   21.1782    3.2346 C   0  0  0  0  0  0  0  0  0  0  0  0
   11.2959   21.3704    1.9471 C   0  0  0  0  0  0  0  0  0  0  0  0
   10.6159   20.8322    0.8679 C   0  0  0  0  0  0  0  0  0  0  0  0
    9.4749   20.0671    1.0998 C   0  0  0  0  0  0  0  0  0  0  0  0
    7.4925   18.8637    0.5865 N   0  0  0  0  0  0  0  0  0  0  0  0
    8.5870   19.5022    0.0933 C   0  0  1  0  0  3  0  0  0  0  0  0
    8.7859   19.6291   -1.2823 C   0  0  0  0  0  0  0  0  0  0  0  0
    7.8582   19.1085   -2.1609 C   0  0  0  0  0  0  0  0  0  0  0  0
    6.7412   18.4609   -1.6428 C   0  0  0  0  0  0  0  0  0  0  0  0
    6.6057   18.3632   -0.2728 C   0  0  0  0  0  0  0  0  0  0  0  0
    6.2138   16.5502    4.1834 H   0  0  0  0  0  0  0  0  0  0  0  0
    6.5708   14.8397    3.7988 H   0  0  0  0  0  0  0  0  0  0  0  0
    6.7194   15.1475    6.2601 H   0  0  0  0  0  0  0  0  0  0  0  0
    7.8778   16.4917    6.0271 H   0  0  0  0  0  0  0  0  0  0  0  0
   10.0604   15.8960    5.1983 H   0  0  0  0  0  0  0  0  0  0  0  0
   10.3463   14.1609    4.8731 H   0  0  0  0  0  0  0  0  0  0  0  0
    8.7788   14.2451    2.9553 H   0  0  0  0  0  0  0  0  0  0  0  0
    9.9908   15.5450    2.7474 H   0  0  0  0  0  0  0  0  0  0  0  0
    2.6070   18.3803    3.8857 H   0  0  0  0  0  0  0  0  0  0  0  0
    2.6886   19.4748    2.4908 H   0  0  0  0  0  0  0  0  0  0  0  0
    2.5314   17.7226    2.2352 H   0  0  0  0  0  0  0  0  0  0  0  0
    6.1673   18.7424    5.5748 H   0  0  0  0  0  0  0  0  0  0  0  0
    6.8143   19.6390    7.7902 H   0  0  0  0  0  0  0  0  0  0  0  0
    8.9474   20.9264    7.9866 H   0  0  0  0  0  0  0  0  0  0  0  0
   10.3092   21.2789    5.9550 H   0  0  0  0  0  0  0  0  0  0  0  0
   11.3083   21.6347    4.0724 H   0  0  0  0  0  0  0  0  0  0  0  0
   12.1835   21.9613    1.7894 H   0  0  0  0  0  0  0  0  0  0  0  0
   10.9608   21.0160   -0.1358 H   0  0  0  0  0  0  0  0  0  0  0  0
    9.6589   20.1402   -1.6530 H   0  0  0  0  0  0  0  0  0  0  0  0
    7.9942   19.2057   -3.2261 H   0  0  0  0  0  0  0  0  0  0  0  0
    5.9899   18.0426   -2.2921 H   0  0  0  0  0  0  0  0  0  0  0  0
    5.7500   17.8624    0.1630 H   0  0  0  0  0  0  0  0  0  0  0  0
  1  3  1  0  0  0  0
  1 10  1  0  0  0  0
  1 13  1  0  0  0  0
  2  1  1  0  0  0  0
  3  4  1  0  0  0  0
  4  9  1  0  0  0  0
  4  5  1  0  0  0  0
  5  6  1  0  0  0  0
  6  7  1  0  0  0  0
  6 34  1  0  0  0  0
  6 33  1  0  0  0  0
  8 36  1  0  0  0  0
  8 35  1  0  0  0  0
  8  7  1  0  0  0  0
  9  8  1  0  0  0  0
 10 11  1  0  0  0  0
 11 12  1  0  0  0  0
 12 39  1  0  0  0  0
 13 18  1  0  0  0  0
 13 14  1  0  0  0  0
 14 15  1  0  0  0  0
 15 16  2  0  0  0  0
 15 43  1  0  0  0  0
 16 44  1  0  0  0  0
 17 45  1  0  0  0  0
 17 16  1  0  0  0  0
 18 17  2  0  0  0  0
 19  1  1  0  0  0  0
 19 20  1  0  0  0  0
 20 21  1  6  0  0  0
 20 18  1  0  0  0  0
 21 46  1  0  0  0  0
 22 21  2  0  0  0  0
 23 24  2  0  0  0  0
 23 22  1  0  0  0  0
 24 19  1  0  0  0  0
 25  1  1  0  0  0  0
 26 27  1  6  0  0  0
 26 25  1  0  0  0  0
 26 24  1  0  0  0  0
 28 29  1  0  0  0  0
 28 27  2  0  0  0  0
 29 30  2  0  0  0  0
 30 52  1  0  0  0  0
 30 25  1  0  0  0  0
 31  5  1  0  0  0  0
 32  5  1  0  0  0  0
 37  9  1  0  0  0  0
 38  9  1  0  0  0  0
 40 12  1  0  0  0  0
 41 12  1  0  0  0  0
 42 14  1  0  0  0  0
 47 22  1  0  0  0  0
 48 23  1  0  0  0  0
 49 27  1  0  0  0  0
 50 28  1  0  0  0  0
 51 29  1  0  0  0  0
M  END
$$$$
