CSD_code = MEJXOO | q = 1 | S = 0 | Stoichiometry = C28H28ClP2PtS(1+) | MND = 4
 OpenBabel04212202073D

 61 66  0  0  0  0  0  0  0  0999 V2000
    6.0218    5.8672   13.1288 Pt  0  0  1  0  0  0  0  0  0  0  0  0
    7.9874    5.2223   12.1224 P   0  0  0  0  0  4  0  0  0  0  0  0
    4.1951    6.2188   14.4527 P   0  0  0  0  0  4  0  0  0  0  0  0
    7.3132    6.8737   14.8116 S   0  0  2  0  0  3  0  0  0  0  0  0
    4.6618    4.8866   11.5667 Cl  0  0  0  0  0  0  0  0  0  0  0  0
    8.5935    5.6460   10.4767 C   0  0  0  0  0  0  0  0  0  0  0  0
    9.9367    5.8717   10.1891 C   0  0  0  0  0  0  0  0  0  0  0  0
   10.3147    6.1626    8.8904 C   0  0  0  0  0  0  0  0  0  0  0  0
    9.3644    6.2308    7.8837 C   0  0  0  0  0  0  0  0  0  0  0  0
    8.0263    6.0105    8.1710 C   0  0  0  0  0  0  0  0  0  0  0  0
    7.6374    5.7206    9.4654 C   0  0  0  0  0  0  0  0  0  0  0  0
    3.1742    7.6160   13.9532 C   0  0  0  0  0  0  0  0  0  0  0  0
    3.5706    8.3320   12.8277 C   0  0  0  0  0  0  0  0  0  0  0  0
    2.8285    9.4224   12.4121 C   0  0  0  0  0  0  0  0  0  0  0  0
    1.6976    9.7958   13.1210 C   0  0  0  0  0  0  0  0  0  0  0  0
    1.3037    9.0823   14.2440 C   0  0  0  0  0  0  0  0  0  0  0  0
    2.0377    7.9895   14.6653 C   0  0  0  0  0  0  0  0  0  0  0  0
    8.7529    5.7319   14.7320 C   0  0  0  0  0  0  0  0  0  0  0  0
    9.3148    5.7518   13.3182 C   0  0  0  0  0  0  0  0  0  0  0  0
    6.3420    6.2298   16.2367 C   0  0  0  0  0  0  0  0  0  0  0  0
    4.9031    6.7131   16.1104 C   0  0  0  0  0  0  0  0  0  0  0  0
    8.0727    3.4145   12.2464 C   0  0  0  0  0  0  0  0  0  0  0  0
    7.1526    2.7680   13.0677 C   0  0  0  0  0  0  0  0  0  0  0  0
    7.2039    1.3950   13.2177 C   0  0  0  0  0  0  0  0  0  0  0  0
    8.1713    0.6642   12.5460 C   0  0  0  0  0  0  0  0  0  0  0  0
    9.0840    1.3045   11.7222 C   0  0  0  0  0  0  0  0  0  0  0  0
    9.0390    2.6784   11.5692 C   0  0  0  0  0  0  0  0  0  0  0  0
    3.0711    4.8420   14.7687 C   0  0  0  0  0  0  0  0  0  0  0  0
    1.9670    4.6859   13.9332 C   0  0  0  0  0  0  0  0  0  0  0  0
    1.1253    3.6028   14.1012 C   0  0  0  0  0  0  0  0  0  0  0  0
    1.3858    2.6664   15.0896 C   0  0  0  0  0  0  0  0  0  0  0  0
    2.4952    2.8082   15.9079 C   0  0  0  0  0  0  0  0  0  0  0  0
    3.3435    3.8882   15.7461 C   0  0  0  0  0  0  0  0  0  0  0  0
    9.4856    6.0849   15.4589 H   0  0  0  0  0  0  0  0  0  0  0  0
    8.4165    4.7300   15.0058 H   0  0  0  0  0  0  0  0  0  0  0  0
    9.6347    6.7646   13.0558 H   0  0  0  0  0  0  0  0  0  0  0  0
   10.1752    5.0799   13.2536 H   0  0  0  0  0  0  0  0  0  0  0  0
    6.4050    5.1404   16.2204 H   0  0  0  0  0  0  0  0  0  0  0  0
    6.8109    6.6096   17.1457 H   0  0  0  0  0  0  0  0  0  0  0  0
    4.2943    6.3186   16.9276 H   0  0  0  0  0  0  0  0  0  0  0  0
    4.8748    7.8055   16.1615 H   0  0  0  0  0  0  0  0  0  0  0  0
   10.6847    5.8222   10.9670 H   0  0  0  0  0  0  0  0  0  0  0  0
   11.3556    6.3368    8.6639 H   0  0  0  0  0  0  0  0  0  0  0  0
    9.6689    6.4592    6.8740 H   0  0  0  0  0  0  0  0  0  0  0  0
    7.2871    6.0678    7.3870 H   0  0  0  0  0  0  0  0  0  0  0  0
    6.5963    5.5520    9.7081 H   0  0  0  0  0  0  0  0  0  0  0  0
    6.3738    3.3476   13.5653 H   0  0  0  0  0  0  0  0  0  0  0  0
    6.4858    0.8928   13.8481 H   0  0  0  0  0  0  0  0  0  0  0  0
    8.2078   -0.4085   12.6566 H   0  0  0  0  0  0  0  0  0  0  0  0
    9.8289    0.7304   11.1928 H   0  0  0  0  0  0  0  0  0  0  0  0
    9.7403    3.1795   10.9167 H   0  0  0  0  0  0  0  0  0  0  0  0
    4.4550    8.0136   12.2798 H   0  0  0  0  0  0  0  0  0  0  0  0
    3.1273    9.9778   11.5365 H   0  0  0  0  0  0  0  0  0  0  0  0
    1.1161   10.6447   12.7960 H   0  0  0  0  0  0  0  0  0  0  0  0
    0.4202    9.3779   14.7886 H   0  0  0  0  0  0  0  0  0  0  0  0
    1.7331    7.4212   15.5335 H   0  0  0  0  0  0  0  0  0  0  0  0
    1.7779    5.4138   13.1568 H   0  0  0  0  0  0  0  0  0  0  0  0
    0.2669    3.4861   13.4579 H   0  0  0  0  0  0  0  0  0  0  0  0
    0.7274    1.8215   15.2191 H   0  0  0  0  0  0  0  0  0  0  0  0
    2.7020    2.0734   16.6712 H   0  0  0  0  0  0  0  0  0  0  0  0
    4.2120    3.9866   16.3833 H   0  0  0  0  0  0  0  0  0  0  0  0
  1  5  1  6  0  0  0
  1  3  1  0  0  0  0
  1  4  1  0  0  0  0
  2 22  1  0  0  0  0
  2  1  1  0  0  0  0
  2 19  1  0  0  0  0
  3 28  1  0  0  0  0
  3 21  1  0  0  0  0
  4 18  1  1  0  0  0
  4 20  1  0  0  0  0
  6  2  1  0  0  0  0
  7  6  1  0  0  0  0
  7 42  1  0  0  0  0
  8  7  2  0  0  0  0
  9 10  2  0  0  0  0
  9  8  1  0  0  0  0
 10 11  1  0  0  0  0
 11 46  1  0  0  0  0
 11  6  2  0  0  0  0
 12  3  1  0  0  0  0
 12 17  1  0  0  0  0
 13 12  2  0  0  0  0
 14 13  1  0  0  0  0
 14 15  2  0  0  0  0
 15 16  1  0  0  0  0
 16 17  2  0  0  0  0
 16 55  1  0  0  0  0
 17 56  1  0  0  0  0
 18 35  1  0  0  0  0
 18 34  1  0  0  0  0
 19 18  1  0  0  0  0
 20 39  1  0  0  0  0
 21 41  1  0  0  0  0
 21 20  1  0  0  0  0
 21 40  1  0  0  0  0
 22 23  1  0  0  0  0
 23 24  2  0  0  0  0
 23 47  1  0  0  0  0
 24 48  1  0  0  0  0
 25 49  1  0  0  0  0
 25 24  1  0  0  0  0
 26 25  2  0  0  0  0
 27 26  1  0  0  0  0
 27 22  2  0  0  0  0
 28 33  1  0  0  0  0
 29 30  1  0  0  0  0
 29 28  2  0  0  0  0
 30 31  2  0  0  0  0
 31 59  1  0  0  0  0
 31 32  1  0  0  0  0
 32 60  1  0  0  0  0
 33 32  2  0  0  0  0
 33 61  1  0  0  0  0
 36 19  1  0  0  0  0
 37 19  1  0  0  0  0
 38 20  1  0  0  0  0
 43  8  1  0  0  0  0
 44  9  1  0  0  0  0
 45 10  1  0  0  0  0
 50 26  1  0  0  0  0
 51 27  1  0  0  0  0
 52 13  1  0  0  0  0
 53 14  1  0  0  0  0
 54 15  1  0  0  0  0
 57 29  1  0  0  0  0
 58 30  1  0  0  0  0
M  END
$$$$
