CSD_code = MELCAI | q = 0 | S = 0 | Stoichiometry = C30H23ClNiO2P2 | MND = 4
 OpenBabel04212202073D

 59 65  0  0  0  0  0  0  0  0999 V2000
   11.3425    4.0146    3.0294 Ni  0  0  0  0  0  0  0  0  0  0  0  0
    9.5557    4.7201    3.9497 P   0  0  0  0  0  4  0  0  0  0  0  0
   12.9726    3.7536    1.6745 P   0  0  0  0  0  4  0  0  0  0  0  0
   11.2202    2.0549    3.7570 Cl  0  0  0  0  0  0  0  0  0  0  0  0
    9.5200    6.3458    3.7401 O   0  0  0  0  0  0  0  0  0  0  0  0
   13.3165    5.2416    1.0851 O   0  0  0  0  0  0  0  0  0  0  0  0
   10.5041    6.7565    2.8535 C   0  0  0  0  0  0  0  0  0  0  0  0
   11.4232    5.8009    2.4183 C   0  0  0  0  0  0  0  0  0  0  0  0
   12.4144    6.1989    1.5219 C   0  0  0  0  0  0  0  0  0  0  0  0
   12.5030    7.5104    1.0831 C   0  0  0  0  0  0  0  0  0  0  0  0
   13.2821    7.7936    0.3930 H   0  0  0  0  0  0  0  0  0  0  0  0
   11.5801    8.4362    1.5426 C   0  0  0  0  0  0  0  0  0  0  0  0
   11.6433    9.4592    1.2054 H   0  0  0  0  0  0  0  0  0  0  0  0
   10.5749    8.0718    2.4246 C   0  0  0  0  0  0  0  0  0  0  0  0
    9.8513    8.7899    2.7764 H   0  0  0  0  0  0  0  0  0  0  0  0
    8.1757    4.1612    2.8913 C   0  0  0  0  0  0  0  0  0  0  0  0
    8.4946    3.5058    1.7087 C   0  0  0  0  0  0  0  0  0  0  0  0
    9.5424    3.3062    1.4779 H   0  0  0  0  0  0  0  0  0  0  0  0
    7.4920    3.1019    0.8468 C   0  0  0  0  0  0  0  0  0  0  0  0
    7.7413    2.5890   -0.0704 H   0  0  0  0  0  0  0  0  0  0  0  0
    6.1684    3.3574    1.1674 C   0  0  0  0  0  0  0  0  0  0  0  0
    5.3818    3.0420    0.4978 H   0  0  0  0  0  0  0  0  0  0  0  0
    5.8485    4.0153    2.3450 C   0  0  0  0  0  0  0  0  0  0  0  0
    4.8147    4.2117    2.5893 H   0  0  0  0  0  0  0  0  0  0  0  0
    6.8491    4.4188    3.2106 C   0  0  0  0  0  0  0  0  0  0  0  0
    6.6090    4.9307    4.1319 H   0  0  0  0  0  0  0  0  0  0  0  0
    8.8764    4.5484    5.6117 C   0  0  0  0  0  0  0  0  0  0  0  0
    8.6310    5.6405    6.4334 C   0  0  0  0  0  0  0  0  0  0  0  0
    8.8450    6.6371    6.0768 H   0  0  0  0  0  0  0  0  0  0  0  0
    8.1088    5.4380    7.6988 C   0  0  0  0  0  0  0  0  0  0  0  0
    7.9096    6.2850    8.3393 H   0  0  0  0  0  0  0  0  0  0  0  0
    7.8463    4.1535    8.1463 C   0  0  0  0  0  0  0  0  0  0  0  0
    7.4414    4.0012    9.1361 H   0  0  0  0  0  0  0  0  0  0  0  0
    8.1084    3.0628    7.3309 C   0  0  0  0  0  0  0  0  0  0  0  0
    7.9123    2.0621    7.6862 H   0  0  0  0  0  0  0  0  0  0  0  0
    8.6257    3.2562    6.0644 C   0  0  0  0  0  0  0  0  0  0  0  0
    8.8510    2.4166    5.4211 H   0  0  0  0  0  0  0  0  0  0  0  0
   12.6221    2.7956    0.1631 C   0  0  0  0  0  0  0  0  0  0  0  0
   11.8768    1.6263    0.2568 C   0  0  0  0  0  0  0  0  0  0  0  0
   11.4921    1.3130    1.2184 H   0  0  0  0  0  0  0  0  0  0  0  0
   11.6288    0.8786   -0.8804 C   0  0  0  0  0  0  0  0  0  0  0  0
   11.0486   -0.0296   -0.8097 H   0  0  0  0  0  0  0  0  0  0  0  0
   12.1206    1.2954   -2.1067 C   0  0  0  0  0  0  0  0  0  0  0  0
   11.9243    0.7117   -2.9943 H   0  0  0  0  0  0  0  0  0  0  0  0
   12.8629    2.4622   -2.1984 C   0  0  0  0  0  0  0  0  0  0  0  0
   13.2453    2.7860   -3.1556 H   0  0  0  0  0  0  0  0  0  0  0  0
   13.1172    3.2133   -1.0656 C   0  0  0  0  0  0  0  0  0  0  0  0
   13.6922    4.1257   -1.1273 H   0  0  0  0  0  0  0  0  0  0  0  0
   14.6220    3.1119    2.0662 C   0  0  0  0  0  0  0  0  0  0  0  0
   14.7032    1.8740    2.6950 C   0  0  0  0  0  0  0  0  0  0  0  0
   13.7947    1.3555    2.9687 H   0  0  0  0  0  0  0  0  0  0  0  0
   15.9422    1.3330    2.9827 C   0  0  0  0  0  0  0  0  0  0  0  0
   16.0095    0.3737    3.4740 H   0  0  0  0  0  0  0  0  0  0  0  0
   17.0962    2.0232    2.6458 C   0  0  0  0  0  0  0  0  0  0  0  0
   18.0638    1.5995    2.8718 H   0  0  0  0  0  0  0  0  0  0  0  0
   17.0123    3.2593    2.0261 C   0  0  0  0  0  0  0  0  0  0  0  0
   17.9130    3.7982    1.7698 H   0  0  0  0  0  0  0  0  0  0  0  0
   15.7762    3.8089    1.7355 C   0  0  0  0  0  0  0  0  0  0  0  0
   15.7023    4.7753    1.2597 H   0  0  0  0  0  0  0  0  0  0  0  0
  1  4  1  0  0  0  0
  1  2  1  0  0  0  0
  2 27  1  0  0  0  0
  3 49  1  0  0  0  0
  3  1  1  0  0  0  0
  5  2  1  0  0  0  0
  6  9  1  0  0  0  0
  6  3  1  0  0  0  0
  7  5  1  0  0  0  0
  8  7  2  0  0  0  0
  8  1  1  0  0  0  0
  9  8  1  0  0  0  0
 10  9  2  0  0  0  0
 10 12  1  0  0  0  0
 11 10  1  0  0  0  0
 12 14  2  0  0  0  0
 13 12  1  0  0  0  0
 14 15  1  0  0  0  0
 14  7  1  0  0  0  0
 16 25  1  0  0  0  0
 16  2  1  0  0  0  0
 17 16  2  0  0  0  0
 18 17  1  0  0  0  0
 19 21  2  0  0  0  0
 19 17  1  0  0  0  0
 20 19  1  0  0  0  0
 21 23  1  0  0  0  0
 22 21  1  0  0  0  0
 23 24  1  0  0  0  0
 23 25  2  0  0  0  0
 25 26  1  0  0  0  0
 27 36  2  0  0  0  0
 27 28  1  0  0  0  0
 28 30  2  0  0  0  0
 29 28  1  0  0  0  0
 30 32  1  0  0  0  0
 30 31  1  0  0  0  0
 32 33  1  0  0  0  0
 34 35  1  0  0  0  0
 34 32  2  0  0  0  0
 36 34  1  0  0  0  0
 37 36  1  0  0  0  0
 38 39  1  0  0  0  0
 38  3  1  0  0  0  0
 39 40  1  0  0  0  0
 41 42  1  0  0  0  0
 41 39  2  0  0  0  0
 43 41  1  0  0  0  0
 44 43  1  0  0  0  0
 45 43  2  0  0  0  0
 45 47  1  0  0  0  0
 46 45  1  0  0  0  0
 47 38  2  0  0  0  0
 48 47  1  0  0  0  0
 49 50  1  0  0  0  0
 50 51  1  0  0  0  0
 50 52  2  0  0  0  0
 52 53  1  0  0  0  0
 54 55  1  0  0  0  0
 54 52  1  0  0  0  0
 56 54  2  0  0  0  0
 57 56  1  0  0  0  0
 58 56  1  0  0  0  0
 58 49  2  0  0  0  0
 59 58  1  0  0  0  0
M  END
$$$$
