CSD_code = MELJOF | q = 0 | S = 0 | Stoichiometry = C30H32ClN2O2Rh | MND = 6
 OpenBabel04212202073D

 68 71  0  0  1  0  0  0  0  0999 V2000
    4.1415    4.8941   12.2155 C   0  0  1  0  0  3  0  0  0  0  0  0
    4.1384    5.3937   14.3874 C   0  0  0  0  0  0  0  0  0  0  0  0
    4.5125    5.8050   15.3020 H   0  0  0  0  0  0  0  0  0  0  0  0
    2.9777    4.7547   14.1148 C   0  0  0  0  0  0  0  0  0  0  0  0
    2.1547    4.4997   14.7505 H   0  0  0  0  0  0  0  0  0  0  0  0
    6.0855    6.1778   13.0382 C   0  0  0  0  0  0  0  0  0  0  0  0
    6.3238    6.1320   11.9648 H   0  0  0  0  0  0  0  0  0  0  0  0
    6.8773    5.6806   13.6091 H   0  0  0  0  0  0  0  0  0  0  0  0
    5.9365    7.6129   13.4751 C   0  0  0  0  0  0  0  0  0  0  0  0
    5.0079    8.4241   12.8335 C   0  0  0  0  0  0  0  0  0  0  0  0
    4.4235    8.0245   12.0168 H   0  0  0  0  0  0  0  0  0  0  0  0
    4.8344    9.7340   13.2404 C   0  0  0  0  0  0  0  0  0  0  0  0
    4.1104   10.3579   12.7384 H   0  0  0  0  0  0  0  0  0  0  0  0
    5.5866   10.2440   14.2863 C   0  0  0  0  0  0  0  0  0  0  0  0
    5.4507   11.2675   14.6032 H   0  0  0  0  0  0  0  0  0  0  0  0
    6.5143    9.4399   14.9251 C   0  0  0  0  0  0  0  0  0  0  0  0
    7.1039    9.8336   15.7402 H   0  0  0  0  0  0  0  0  0  0  0  0
    6.6862    8.1261   14.5233 C   0  0  0  0  0  0  0  0  0  0  0  0
    7.4105    7.4995   15.0257 H   0  0  0  0  0  0  0  0  0  0  0  0
    1.9536    3.8306   12.0130 C   0  0  0  0  0  0  0  0  0  0  0  0
    2.0768    4.1979   10.9810 H   0  0  0  0  0  0  0  0  0  0  0  0
    0.9759    4.1549   12.3853 H   0  0  0  0  0  0  0  0  0  0  0  0
    2.0273    2.3270   12.0197 C   0  0  0  0  0  0  0  0  0  0  0  0
    2.7220    1.6515   12.9604 C   0  0  0  0  0  0  0  0  0  0  0  0
    3.2493    2.1482   13.7596 H   0  0  0  0  0  0  0  0  0  0  0  0
    2.8252    0.2063   12.9636 C   0  0  0  0  0  0  0  0  0  0  0  0
    1.4849    0.1863   10.9896 C   0  0  0  0  0  0  0  0  0  0  0  0
    0.8895   -0.6117   10.0031 C   0  0  0  0  0  0  0  0  0  0  0  0
    0.1571    0.0041    8.9925 C   0  0  0  0  0  0  0  0  0  0  0  0
    0.0279    1.3935    8.9823 C   0  0  0  0  0  0  0  0  0  0  0  0
   -0.5423    1.8625    8.1945 H   0  0  0  0  0  0  0  0  0  0  0  0
    0.6107    2.1748    9.9502 C   0  0  0  0  0  0  0  0  0  0  0  0
    0.4913    3.2448    9.9118 H   0  0  0  0  0  0  0  0  0  0  0  0
    1.3579    1.5864   10.9775 C   0  0  0  0  0  0  0  0  0  0  0  0
    1.0468   -2.0998   10.0467 C   0  0  0  0  0  0  0  0  0  0  0  0
    0.0720   -2.5828   10.0991 H   0  0  0  0  0  0  0  0  0  0  0  0
    1.6321   -2.3943   10.9116 H   0  0  0  0  0  0  0  0  0  0  0  0
    1.5466   -2.4547    9.1462 H   0  0  0  0  0  0  0  0  0  0  0  0
   -0.4897   -0.8178    7.9238 C   0  0  0  0  0  0  0  0  0  0  0  0
    0.2553   -1.4069    7.3907 H   0  0  0  0  0  0  0  0  0  0  0  0
   -1.0091   -0.1843    7.2102 H   0  0  0  0  0  0  0  0  0  0  0  0
   -1.2068   -1.5126    8.3593 H   0  0  0  0  0  0  0  0  0  0  0  0
    4.3030    4.5004    8.1222 C   0  0  0  0  0  3  0  0  0  0  0  0
    3.3307    4.9075    7.8432 H   0  0  0  0  0  0  0  0  0  0  0  0
    5.3324    5.3917    8.3386 C   0  0  0  0  0  3  0  0  0  0  0  0
    5.1287    6.4531    8.1921 H   0  0  0  0  0  0  0  0  0  0  0  0
    6.8026    5.0427    8.3113 C   0  0  0  0  0  0  0  0  0  0  0  0
    7.3588    5.8919    8.7174 H   0  0  0  0  0  0  0  0  0  0  0  0
    7.1236    4.9146    7.2716 H   0  0  0  0  0  0  0  0  0  0  0  0
    7.1448    3.7826    9.1294 C   0  0  0  0  0  0  0  0  0  0  0  0
    8.1698    3.8712    9.4958 H   0  0  0  0  0  0  0  0  0  0  0  0
    7.1069    2.8947    8.4968 H   0  0  0  0  0  0  0  0  0  0  0  0
    6.2129    3.5895   10.3081 C   0  0  0  0  0  3  0  0  0  0  0  0
    6.7036    3.6521   11.2786 H   0  0  0  0  0  0  0  0  0  0  0  0
    5.0481    2.8210   10.2471 C   0  0  2  0  0  0  0  0  0  0  0  0
    4.7368    2.3209   11.1648 H   0  0  0  0  0  0  0  0  0  0  0  0
    4.5319    2.1343    9.0032 C   0  0  0  0  0  0  0  0  0  0  0  0
    3.5135    1.7889    9.2045 H   0  0  0  0  0  0  0  0  0  0  0  0
    5.1385    1.2432    8.8056 H   0  0  0  0  0  0  0  0  0  0  0  0
    4.5135    3.0466    7.7619 C   0  0  0  0  0  0  0  0  0  0  0  0
    5.4458    2.9497    7.2039 H   0  0  0  0  0  0  0  0  0  0  0  0
    3.7063    2.7224    7.1015 H   0  0  0  0  0  0  0  0  0  0  0  0
    4.8388    5.4680   13.2108 N   0  0  0  0  0  0  0  0  0  0  0  0
    2.9946    4.4597   12.7769 N   0  0  0  0  0  0  0  0  0  0  0  0
    2.1913   -0.4546   11.9528 O   0  0  0  0  0  0  0  0  0  0  0  0
    3.4278   -0.4449   13.7816 O   0  0  0  0  0  0  0  0  0  0  0  0
    3.1039    6.6598   10.1981 Cl  0  0  0  0  0 15  0  0  0  0  0  0
    4.5060    4.8600   10.2519 Rh  0  0  0  0  0  0  0  0  0  0  0  0
  1 68  1  6  0  0  0
  1 64  1  0  0  0  0
  1 63  1  0  0  0  0
  2  3  1  0  0  0  0
  4  2  2  0  0  0  0
  4  5  1  0  0  0  0
  6 63  1  0  0  0  0
  6  9  1  0  0  0  0
  6  8  1  0  0  0  0
  7  6  1  0  0  0  0
  9 18  1  0  0  0  0
 10 12  1  0  0  0  0
 10  9  2  0  0  0  0
 11 10  1  0  0  0  0
 12 14  2  0  0  0  0
 13 12  1  0  0  0  0
 14 15  1  0  0  0  0
 14 16  1  0  0  0  0
 16 17  1  0  0  0  0
 18 16  2  0  0  0  0
 18 19  1  0  0  0  0
 20 23  1  0  0  0  0
 20 22  1  0  0  0  0
 20 64  1  0  0  0  0
 21 20  1  0  0  0  0
 23 24  2  0  0  0  0
 24 26  1  0  0  0  0
 24 25  1  0  0  0  0
 26 66  2  0  0  0  0
 27 65  1  0  0  0  0
 28 35  1  0  0  0  0
 28 27  2  0  0  0  0
 29 28  1  0  0  0  0
 30 29  2  0  0  0  0
 30 32  1  0  0  0  0
 31 30  1  0  0  0  0
 32 34  2  0  0  0  0
 33 32  1  0  0  0  0
 34 27  1  0  0  0  0
 34 23  1  0  0  0  0
 35 36  1  0  0  0  0
 35 37  1  0  0  0  0
 38 35  1  0  0  0  0
 39 42  1  0  0  0  0
 39 29  1  0  0  0  0
 40 39  1  0  0  0  0
 41 39  1  0  0  0  0
 43 45  1  0  0  0  0
 44 43  1  0  0  0  0
 46 45  1  0  0  0  0
 47 45  1  0  0  0  0
 47 48  1  0  0  0  0
 47 50  1  0  0  0  0
 49 47  1  0  0  0  0
 50 51  1  0  0  0  0
 50 53  1  0  0  0  0
 52 50  1  0  0  0  0
 53 54  1  0  0  0  0
 55 68  1  0  0  0  0
 55 53  1  0  0  0  0
 55 56  1  1  0  0  0
 57 58  1  0  0  0  0
 57 55  1  0  0  0  0
 59 57  1  0  0  0  0
 60 43  1  0  0  0  0
 60 57  1  0  0  0  0
 61 60  1  0  0  0  0
 62 60  1  0  0  0  0
 63  2  1  0  0  0  0
 64  4  1  0  0  0  0
 65 26  1  0  0  0  0
M  END
$$$$
