CSD_code = MEMMUN | q = 0 | S = 0 | Stoichiometry = C22H41ClN2NiP2 | MND = 4
 OpenBabel04212202073D

 69 71  0  0  0  0  0  0  0  0999 V2000
    7.4510    1.1083    3.3404 Ni  0  0  0  0  0  0  0  0  0  0  0  0
    6.5762    0.0510    4.9707 Cl  0  0  0  0  0  0  0  0  0  0  0  0
    5.6039    1.9237    2.5968 P   0  0  0  0  0  4  0  0  0  0  0  0
    9.4737    0.5049    3.7565 P   0  0  0  0  0  4  0  0  0  0  0  0
    6.0575    2.6175    1.1288 N   0  0  0  0  0  0  0  0  0  0  0  0
    5.4653    3.2456    0.6029 H   0  0  0  0  0  0  0  0  0  0  0  0
   10.3793    1.4513    2.6956 N   0  0  0  0  0  0  0  0  0  0  0  0
   11.3593    1.2931    2.5048 H   0  0  0  0  0  0  0  0  0  0  0  0
    8.2336    2.0529    1.8844 C   0  0  0  0  0  0  0  0  0  0  0  0
    7.4405    2.7239    0.9520 C   0  0  0  0  0  0  0  0  0  0  0  0
    8.0072    3.4189   -0.1108 C   0  0  0  0  0  0  0  0  0  0  0  0
    7.3729    3.9339   -0.8189 H   0  0  0  0  0  0  0  0  0  0  0  0
    9.3829    3.4395   -0.2541 C   0  0  0  0  0  0  0  0  0  0  0  0
    9.8270    3.9751   -1.0803 H   0  0  0  0  0  0  0  0  0  0  0  0
   10.1951    2.7805    0.6510 C   0  0  0  0  0  0  0  0  0  0  0  0
   11.2703    2.7974    0.5386 H   0  0  0  0  0  0  0  0  0  0  0  0
    9.6187    2.0960    1.7154 C   0  0  0  0  0  0  0  0  0  0  0  0
    4.8946    3.3673    3.5891 C   0  0  0  0  0  0  0  0  0  0  0  0
    4.4951    2.9054    4.9884 C   0  0  0  0  0  0  0  0  0  0  0  0
    4.3566    3.7683    5.6391 H   0  0  0  0  0  0  0  0  0  0  0  0
    5.2703    2.2728    5.4168 H   0  0  0  0  0  0  0  0  0  0  0  0
    3.5677    2.3409    4.9749 H   0  0  0  0  0  0  0  0  0  0  0  0
    6.0946    4.3136    3.7089 C   0  0  0  0  0  0  0  0  0  0  0  0
    5.8740    5.1306    4.3943 H   0  0  0  0  0  0  0  0  0  0  0  0
    6.3662    4.7395    2.7437 H   0  0  0  0  0  0  0  0  0  0  0  0
    6.9607    3.7656    4.0934 H   0  0  0  0  0  0  0  0  0  0  0  0
    3.7291    4.0777    2.9093 C   0  0  0  0  0  0  0  0  0  0  0  0
    3.4992    4.9943    3.4529 H   0  0  0  0  0  0  0  0  0  0  0  0
    2.8354    3.4577    2.9118 H   0  0  0  0  0  0  0  0  0  0  0  0
    3.9668    4.3518    1.8822 H   0  0  0  0  0  0  0  0  0  0  0  0
    4.3038    0.6891    2.0277 C   0  0  0  0  0  0  0  0  0  0  0  0
    3.4528    0.2068    3.1973 C   0  0  0  0  0  0  0  0  0  0  0  0
    2.9172   -0.6994    2.9160 H   0  0  0  0  0  0  0  0  0  0  0  0
    2.7171    0.9550    3.4839 H   0  0  0  0  0  0  0  0  0  0  0  0
    4.0835   -0.0214    4.0550 H   0  0  0  0  0  0  0  0  0  0  0  0
    5.1684   -0.4662    1.5112 C   0  0  0  0  0  0  0  0  0  0  0  0
    4.5490   -1.2747    1.1258 H   0  0  0  0  0  0  0  0  0  0  0  0
    5.7820   -0.8616    2.3248 H   0  0  0  0  0  0  0  0  0  0  0  0
    5.8259   -0.1205    0.7119 H   0  0  0  0  0  0  0  0  0  0  0  0
    3.4256    1.2085    0.8920 C   0  0  0  0  0  0  0  0  0  0  0  0
    2.7344    0.4219    0.5906 H   0  0  0  0  0  0  0  0  0  0  0  0
    4.0271    1.4739    0.0254 H   0  0  0  0  0  0  0  0  0  0  0  0
    2.8384    2.0718    1.1929 H   0  0  0  0  0  0  0  0  0  0  0  0
   10.1893    1.0335    5.4138 C   0  0  0  0  0  0  0  0  0  0  0  0
    9.8280    0.0403    6.5128 C   0  0  0  0  0  0  0  0  0  0  0  0
    9.9898    0.4939    7.4902 H   0  0  0  0  0  0  0  0  0  0  0  0
   10.4446   -0.8537    6.4529 H   0  0  0  0  0  0  0  0  0  0  0  0
    8.7794   -0.2428    6.4367 H   0  0  0  0  0  0  0  0  0  0  0  0
    9.4654    2.3608    5.6654 C   0  0  0  0  0  0  0  0  0  0  0  0
    9.7901    2.8120    6.6019 H   0  0  0  0  0  0  0  0  0  0  0  0
    8.3875    2.1890    5.7226 H   0  0  0  0  0  0  0  0  0  0  0  0
    9.6663    3.0618    4.8536 H   0  0  0  0  0  0  0  0  0  0  0  0
   11.6954    1.2813    5.3766 C   0  0  0  0  0  0  0  0  0  0  0  0
   12.0241    1.6195    6.3590 H   0  0  0  0  0  0  0  0  0  0  0  0
   11.9441    2.0575    4.6563 H   0  0  0  0  0  0  0  0  0  0  0  0
   12.2505    0.3801    5.1310 H   0  0  0  0  0  0  0  0  0  0  0  0
    9.9085   -1.2707    3.2768 C   0  0  0  0  0  0  0  0  0  0  0  0
    9.1064   -2.2606    4.1181 C   0  0  0  0  0  0  0  0  0  0  0  0
    9.1371   -3.2479    3.6580 H   0  0  0  0  0  0  0  0  0  0  0  0
    8.0667   -1.9466    4.1889 H   0  0  0  0  0  0  0  0  0  0  0  0
    9.5033   -2.3457    5.1251 H   0  0  0  0  0  0  0  0  0  0  0  0
    9.4235   -1.3528    1.8251 C   0  0  0  0  0  0  0  0  0  0  0  0
    9.4742   -2.3777    1.4606 H   0  0  0  0  0  0  0  0  0  0  0  0
   10.0223   -0.7245    1.1667 H   0  0  0  0  0  0  0  0  0  0  0  0
    8.3840   -1.0156    1.7630 H   0  0  0  0  0  0  0  0  0  0  0  0
   11.3976   -1.5895    3.3539 C   0  0  0  0  0  0  0  0  0  0  0  0
   11.5812   -2.5637    2.9008 H   0  0  0  0  0  0  0  0  0  0  0  0
   11.7377   -1.6348    4.3859 H   0  0  0  0  0  0  0  0  0  0  0  0
   11.9963   -0.8557    2.8161 H   0  0  0  0  0  0  0  0  0  0  0  0
  1  4  1  0  0  0  0
  1  2  1  0  0  0  0
  3  1  1  0  0  0  0
  3 18  1  0  0  0  0
  4 44  1  0  0  0  0
  5  3  1  0  0  0  0
  6  5  1  0  0  0  0
  7  4  1  0  0  0  0
  8  7  1  0  0  0  0
  9  1  1  0  0  0  0
 10  5  1  0  0  0  0
 10  9  2  0  0  0  0
 11 10  1  0  0  0  0
 12 11  1  0  0  0  0
 13 11  2  0  0  0  0
 13 15  1  0  0  0  0
 14 13  1  0  0  0  0
 15 17  2  0  0  0  0
 16 15  1  0  0  0  0
 17  9  1  0  0  0  0
 17  7  1  0  0  0  0
 18 23  1  0  0  0  0
 18 19  1  0  0  0  0
 19 21  1  0  0  0  0
 19 20  1  0  0  0  0
 22 19  1  0  0  0  0
 23 26  1  0  0  0  0
 23 24  1  0  0  0  0
 25 23  1  0  0  0  0
 27 29  1  0  0  0  0
 27 28  1  0  0  0  0
 27 18  1  0  0  0  0
 30 27  1  0  0  0  0
 31  3  1  0  0  0  0
 31 32  1  0  0  0  0
 32 34  1  0  0  0  0
 32 35  1  0  0  0  0
 33 32  1  0  0  0  0
 36 31  1  0  0  0  0
 36 38  1  0  0  0  0
 37 36  1  0  0  0  0
 39 36  1  0  0  0  0
 40 43  1  0  0  0  0
 40 31  1  0  0  0  0
 41 40  1  0  0  0  0
 42 40  1  0  0  0  0
 44 49  1  0  0  0  0
 44 45  1  0  0  0  0
 45 46  1  0  0  0  0
 47 45  1  0  0  0  0
 48 45  1  0  0  0  0
 49 51  1  0  0  0  0
 49 50  1  0  0  0  0
 52 49  1  0  0  0  0
 53 44  1  0  0  0  0
 53 54  1  0  0  0  0
 55 53  1  0  0  0  0
 56 53  1  0  0  0  0
 57 66  1  0  0  0  0
 57  4  1  0  0  0  0
 57 58  1  0  0  0  0
 58 60  1  0  0  0  0
 58 61  1  0  0  0  0
 59 58  1  0  0  0  0
 62 57  1  0  0  0  0
 63 62  1  0  0  0  0
 64 62  1  0  0  0  0
 65 62  1  0  0  0  0
 66 68  1  0  0  0  0
 67 66  1  0  0  0  0
 69 66  1  0  0  0  0
M  END
$$$$
