CSD_code = MENCEO | q = 0 | S = 0 | Stoichiometry = C28H23ClN2O3PRe | MND = 6
 OpenBabel04212202073D

 59 63  0  0  1  0  0  0  0  0999 V2000
    5.2479    2.8791   10.1339 Re  0  0  0  0  0  0  0  0  0  0  0  0
    7.0841    2.7224    8.5739 P   0  0  0  0  0  4  0  0  0  0  0  0
    7.0473    3.0922   11.6313 Cl  0  0  0  0  0  0  0  0  0  0  0  0
    6.2412    5.1868    7.6614 N   0  0  0  0  0  0  0  0  0  0  0  0
    5.6096    5.2232    9.8911 N   0  0  0  0  0  0  0  0  0  0  0  0
    3.0738    3.1789    7.9578 O   0  0  0  0  0  1  0  0  0  0  0  0
    4.9468   -0.1639   10.5660 O   0  0  0  0  0  1  0  0  0  0  0  0
    3.2699    3.3953   12.4571 O   0  0  0  0  0  1  0  0  0  0  0  0
    3.8770    3.0268    8.7713 C   0  0  0  0  0  2  0  0  0  0  0  0
    5.0227    0.9675   10.3877 C   0  0  0  0  0  2  0  0  0  0  0  0
    3.9832    3.2101   11.5822 C   0  0  0  0  0  2  0  0  0  0  0  0
    8.6879    2.1306    9.1923 C   0  0  0  0  0  0  0  0  0  0  0  0
    8.6642    0.8612    9.7662 C   0  0  0  0  0  0  0  0  0  0  0  0
    7.7223    0.3290    9.8260 H   0  0  0  0  0  0  0  0  0  0  0  0
    9.8193    0.3032   10.2744 C   0  0  0  0  0  0  0  0  0  0  0  0
    9.7906   -0.6756   10.7298 H   0  0  0  0  0  0  0  0  0  0  0  0
   11.0117    1.0074   10.2094 C   0  0  0  0  0  0  0  0  0  0  0  0
   11.9166    0.5781   10.6134 H   0  0  0  0  0  0  0  0  0  0  0  0
   11.0409    2.2653    9.6343 C   0  0  0  0  0  0  0  0  0  0  0  0
   11.9691    2.8168    9.5866 H   0  0  0  0  0  0  0  0  0  0  0  0
    9.8839    2.8317    9.1251 C   0  0  0  0  0  0  0  0  0  0  0  0
    9.9289    3.8197    8.6891 H   0  0  0  0  0  0  0  0  0  0  0  0
    6.9962    1.6740    7.0843 C   0  0  0  0  0  0  0  0  0  0  0  0
    5.9052    0.8321    6.9106 C   0  0  0  0  0  0  0  0  0  0  0  0
    5.0780    0.8886    7.6083 H   0  0  0  0  0  0  0  0  0  0  0  0
    5.8870   -0.0716    5.8631 C   0  0  0  0  0  0  0  0  0  0  0  0
    5.0403   -0.7298    5.7364 H   0  0  0  0  0  0  0  0  0  0  0  0
    6.9575   -0.1393    4.9883 C   0  0  0  0  0  0  0  0  0  0  0  0
    6.9488   -0.8515    4.1766 H   0  0  0  0  0  0  0  0  0  0  0  0
    8.0463    0.7017    5.1569 C   0  0  0  0  0  0  0  0  0  0  0  0
    8.8836    0.6456    4.4768 H   0  0  0  0  0  0  0  0  0  0  0  0
    8.0710    1.6012    6.2045 C   0  0  0  0  0  0  0  0  0  0  0  0
    8.9344    2.2370    6.3501 H   0  0  0  0  0  0  0  0  0  0  0  0
    7.4462    4.4307    7.9510 C   0  0  0  0  0  0  0  0  0  0  0  0
    8.0104    4.9305    8.7528 H   0  0  0  0  0  0  0  0  0  0  0  0
    8.0585    4.3739    7.0470 H   0  0  0  0  0  0  0  0  0  0  0  0
    5.6708    5.8673    8.7117 C   0  0  1  0  0  3  0  0  0  0  0  0
    5.2050    7.1871    8.5941 C   0  0  0  0  0  0  0  0  0  0  0  0
    5.2216    7.6933    7.6436 H   0  0  0  0  0  0  0  0  0  0  0  0
    4.7666    7.8539    9.7161 C   0  0  0  0  0  0  0  0  0  0  0  0
    4.4126    8.8710    9.6376 H   0  0  0  0  0  0  0  0  0  0  0  0
    4.8320    7.2180   10.9495 C   0  0  0  0  0  0  0  0  0  0  0  0
    4.5505    7.7211   11.8593 H   0  0  0  0  0  0  0  0  0  0  0  0
    5.2483    5.9045   10.9781 C   0  0  0  0  0  0  0  0  0  0  0  0
    5.3122    5.3688   11.9167 H   0  0  0  0  0  0  0  0  0  0  0  0
    6.1150    5.7031    6.3102 C   0  0  0  0  0  0  0  0  0  0  0  0
    6.8753    6.4748    6.1104 H   0  0  0  0  0  0  0  0  0  0  0  0
    5.1240    6.1542    6.2185 H   0  0  0  0  0  0  0  0  0  0  0  0
    6.2167    4.6088    5.2796 C   0  0  0  0  0  0  0  0  0  0  0  0
    5.2066    3.6601    5.1828 C   0  0  0  0  0  0  0  0  0  0  0  0
    4.3786    3.6918    5.8744 H   0  0  0  0  0  0  0  0  0  0  0  0
    5.2525    2.6905    4.1988 C   0  0  0  0  0  0  0  0  0  0  0  0
    4.4559    1.9664    4.1235 H   0  0  0  0  0  0  0  0  0  0  0  0
    6.3116    2.6540    3.3078 C   0  0  0  0  0  0  0  0  0  0  0  0
    6.3419    1.9027    2.5332 H   0  0  0  0  0  0  0  0  0  0  0  0
    7.3296    3.5852    3.4090 C   0  0  0  0  0  0  0  0  0  0  0  0
    8.1594    3.5602    2.7181 H   0  0  0  0  0  0  0  0  0  0  0  0
    7.2818    4.5590    4.3913 C   0  0  0  0  0  0  0  0  0  0  0  0
    8.0711    5.2965    4.4544 H   0  0  0  0  0  0  0  0  0  0  0  0
  1 10  1  0  0  0  0
  1 11  1  0  0  0  0
  1  3  1  0  0  0  0
  2 12  1  0  0  0  0
  2  1  1  0  0  0  0
  4 34  1  0  0  0  0
  4 37  1  0  0  0  0
  5  1  1  0  0  0  0
  5 44  1  0  0  0  0
  6  9  1  0  0  0  0
  9  1  1  0  0  0  0
 10  7  1  0  0  0  0
 11  8  1  0  0  0  0
 12 13  1  0  0  0  0
 13 14  1  0  0  0  0
 13 15  2  0  0  0  0
 15 16  1  0  0  0  0
 17 15  1  0  0  0  0
 17 18  1  0  0  0  0
 19 17  2  0  0  0  0
 20 19  1  0  0  0  0
 21 12  2  0  0  0  0
 21 19  1  0  0  0  0
 22 21  1  0  0  0  0
 23  2  1  0  0  0  0
 24 23  1  0  0  0  0
 24 25  1  0  0  0  0
 26 24  2  0  0  0  0
 27 26  1  0  0  0  0
 28 30  2  0  0  0  0
 28 26  1  0  0  0  0
 29 28  1  0  0  0  0
 30 32  1  0  0  0  0
 31 30  1  0  0  0  0
 32 33  1  0  0  0  0
 32 23  2  0  0  0  0
 34  2  1  0  0  0  0
 34 35  1  0  0  0  0
 36 34  1  0  0  0  0
 37 38  1  1  0  0  0
 37  5  1  0  0  0  0
 38 40  2  0  0  0  0
 39 38  1  0  0  0  0
 40 42  1  0  0  0  0
 41 40  1  0  0  0  0
 42 44  2  0  0  0  0
 42 43  1  0  0  0  0
 44 45  1  0  0  0  0
 46  4  1  0  0  0  0
 47 46  1  0  0  0  0
 48 46  1  0  0  0  0
 49 46  1  0  0  0  0
 50 49  1  0  0  0  0
 50 51  1  0  0  0  0
 52 50  2  0  0  0  0
 53 52  1  0  0  0  0
 54 56  2  0  0  0  0
 54 52  1  0  0  0  0
 55 54  1  0  0  0  0
 56 58  1  0  0  0  0
 57 56  1  0  0  0  0
 58 59  1  0  0  0  0
 58 49  2  0  0  0  0
M  END
$$$$
