CSD_code = MENKIZ | q = 0 | S = 0 | Stoichiometry = C10H16Cl3N5ORu | MND = 6
 OpenBabel04212202073D

 36 37  0  0  1  0  0  0  0  0999 V2000
   -2.7193   -0.0378    8.9455 Ru  0  0  0  0  0  0  0  0  0  0  0  0
   -4.1514    1.3971    9.9705 Cl  0  0  0  0  0  0  0  0  0  0  0  0
   -2.0028    1.8293    7.6142 Cl  0  0  0  0  0  0  0  0  0  0  0  0
   -3.5956   -1.7454   10.3901 Cl  0  0  0  0  0  0  0  0  0  0  0  0
   -1.6664   -1.0914    8.1908 N   0  0  0  0  0  2  0  0  0  0  0  0
   -0.9391   -1.8191    7.6679 O   0  0  0  0  0  1  0  0  0  0  0  0
   -1.4087    0.3775   10.4980 N   0  0  0  0  0  0  0  0  0  0  0  0
   -1.9017    0.3999   11.7414 N   0  0  0  0  0  0  0  0  0  0  0  0
   -2.8784    0.1652   11.8975 H   0  0  0  0  0  0  0  0  0  0  0  0
   -0.1138    0.6716   10.5807 C   0  0  2  0  0  3  0  0  0  0  0  0
    0.7851    0.7066    9.3996 C   0  0  0  0  0  0  0  0  0  0  0  0
    0.2893    1.1873    8.5574 H   0  0  0  0  0  0  0  0  0  0  0  0
    1.0595   -0.3070    9.1047 H   0  0  0  0  0  0  0  0  0  0  0  0
    1.6926    1.2532    9.6390 H   0  0  0  0  0  0  0  0  0  0  0  0
    0.2115    0.8899   11.9239 C   0  0  0  0  0  0  0  0  0  0  0  0
    1.1747    1.1479   12.3123 H   0  0  0  0  0  0  0  0  0  0  0  0
   -0.9576    0.7062   12.6410 C   0  0  0  0  0  0  0  0  0  0  0  0
   -1.2379    0.8069   14.0933 C   0  0  0  0  0  0  0  0  0  0  0  0
   -2.2624    0.5114   14.3033 H   0  0  0  0  0  0  0  0  0  0  0  0
   -1.0896    1.8300   14.4361 H   0  0  0  0  0  0  0  0  0  0  0  0
   -0.5615    0.1643   14.6535 H   0  0  0  0  0  0  0  0  0  0  0  0
   -4.2030   -0.2803    7.5172 N   0  0  0  0  0  0  0  0  0  0  0  0
   -4.8269    0.8169    7.0739 N   0  0  0  0  0  0  0  0  0  0  0  0
   -4.5236    1.7312    7.3989 H   0  0  0  0  0  0  0  0  0  0  0  0
   -4.7553   -1.3241    6.9042 C   0  0  2  0  0  3  0  0  0  0  0  0
   -4.2980   -2.7211    7.1132 C   0  0  0  0  0  0  0  0  0  0  0  0
   -4.1099   -2.9066    8.1700 H   0  0  0  0  0  0  0  0  0  0  0  0
   -3.3738   -2.9015    6.5623 H   0  0  0  0  0  0  0  0  0  0  0  0
   -5.0530   -3.4163    6.7571 H   0  0  0  0  0  0  0  0  0  0  0  0
   -5.7633   -0.8613    6.0513 C   0  0  0  0  0  0  0  0  0  0  0  0
   -6.3920   -1.4593    5.4250 H   0  0  0  0  0  0  0  0  0  0  0  0
   -5.7815    0.5160    6.1836 C   0  0  0  0  0  0  0  0  0  0  0  0
   -6.6299    1.5471    5.5395 C   0  0  0  0  0  0  0  0  0  0  0  0
   -6.3324    2.5404    5.8647 H   0  0  0  0  0  0  0  0  0  0  0  0
   -7.6760    1.3900    5.7976 H   0  0  0  0  0  0  0  0  0  0  0  0
   -6.5393    1.4874    4.4565 H   0  0  0  0  0  0  0  0  0  0  0  0
  1  2  1  0  0  0  0
  1  4  1  0  0  0  0
  1  7  1  0  0  0  0
  3  1  1  0  0  0  0
  5  1  1  0  0  0  0
  6  5  1  0  0  0  0
  7 10  1  0  0  0  0
  7  8  1  0  0  0  0
  8  9  1  0  0  0  0
  8 17  1  0  0  0  0
 10 11  1  1  0  0  0
 10 15  1  0  0  0  0
 11 14  1  0  0  0  0
 12 11  1  0  0  0  0
 13 11  1  0  0  0  0
 15 16  1  0  0  0  0
 15 17  2  0  0  0  0
 17 18  1  0  0  0  0
 18 19  1  0  0  0  0
 18 20  1  0  0  0  0
 18 21  1  0  0  0  0
 22  1  1  0  0  0  0
 23 24  1  0  0  0  0
 23 22  1  0  0  0  0
 25 26  1  6  0  0  0
 25 22  1  0  0  0  0
 26 27  1  0  0  0  0
 28 26  1  0  0  0  0
 29 26  1  0  0  0  0
 30 32  2  0  0  0  0
 30 25  1  0  0  0  0
 31 30  1  0  0  0  0
 32 23  1  0  0  0  0
 33 35  1  0  0  0  0
 33 34  1  0  0  0  0
 33 32  1  0  0  0  0
 36 33  1  0  0  0  0
M  END
$$$$
