CSD_code = MENLAS | q = 1 | S = 0 | Stoichiometry = C13H22ClN6OZn(1+) | MND = 5
 OpenBabel04212202073D

 44 48  0  0  1  0  0  0  0  0999 V2000
    0.0736    2.3420    6.0910 Zn  0  0  0  0  0  0  0  0  0  0  0  0
    1.3494    0.7226    6.4388 N   0  0  0  0  0  0  0  0  0  0  0  0
    1.9362    3.3703    6.6841 N   0  0  2  0  0  4  0  0  0  0  0  0
    2.5544    3.3701    5.8725 H   0  0  0  0  0  0  0  0  0  0  0  0
   -0.3361    4.1755    4.9694 N   0  0  2  0  0  4  0  0  0  0  0  0
    0.2739    4.2157    4.1530 H   0  0  0  0  0  0  0  0  0  0  0  0
   -1.1672    1.6078    4.5811 N   0  0  0  0  0  0  0  0  0  0  0  0
   -1.1076    2.6400    7.8553 Cl  0  0  0  0  0  0  0  0  0  0  0  0
    2.0712    5.4791    4.8361 O   0  0  0  0  0  0  0  0  0  0  0  0
    2.9174    5.9326    4.9067 H   0  0  0  0  0  0  0  0  0  0  0  0
    2.4403   -1.0809    7.0034 N   0  0  0  0  0  0  0  0  0  0  0  0
    2.7082   -2.0509    7.0717 H   0  0  0  0  0  0  0  0  0  0  0  0
   -2.6242    0.7286    3.2154 N   0  0  0  0  0  0  0  0  0  0  0  0
   -3.1470    0.0442    2.6905 H   0  0  0  0  0  0  0  0  0  0  0  0
    4.2115   -0.2512    8.5623 C   0  0  0  0  0  0  0  0  0  0  0  0
    4.6703    0.7010    8.8095 H   0  0  0  0  0  0  0  0  0  0  0  0
    4.9568   -0.8909    8.0930 H   0  0  0  0  0  0  0  0  0  0  0  0
    3.8922   -0.7259    9.4896 H   0  0  0  0  0  0  0  0  0  0  0  0
    3.0545   -0.0458    7.6590 C   0  0  0  0  0  0  0  0  0  0  0  0
    1.4234   -0.5781    6.2860 C   0  0  0  0  0  3  0  0  0  0  0  0
    0.7738   -1.1679    5.6728 H   0  0  0  0  0  0  0  0  0  0  0  0
    2.3577    1.0759    7.2922 C   0  0  0  0  0  0  0  0  0  0  0  0
    2.5027    2.4992    7.7111 C   0  0  0  0  0  0  0  0  0  0  0  0
    1.9214    2.6542    8.6274 H   0  0  0  0  0  0  0  0  0  0  0  0
    3.5542    2.7344    7.9265 H   0  0  0  0  0  0  0  0  0  0  0  0
    1.8261    4.7514    7.1469 C   0  0  0  0  0  0  0  0  0  0  0  0
    2.8019    5.1166    7.5020 H   0  0  0  0  0  0  0  0  0  0  0  0
    1.1197    4.7836    7.9781 H   0  0  0  0  0  0  0  0  0  0  0  0
    1.3229    5.6710    6.0232 C   0  0  2  0  0  0  0  0  0  0  0  0
    1.4152    6.7078    6.3747 H   0  0  0  0  0  0  0  0  0  0  0  0
   -0.1525    5.4365    5.6851 C   0  0  0  0  0  0  0  0  0  0  0  0
   -0.7340    5.4033    6.6081 H   0  0  0  0  0  0  0  0  0  0  0  0
   -0.5045    6.2765    5.0709 H   0  0  0  0  0  0  0  0  0  0  0  0
   -1.7177    4.0155    4.5189 C   0  0  0  0  0  0  0  0  0  0  0  0
   -1.9830    4.7274    3.7260 H   0  0  0  0  0  0  0  0  0  0  0  0
   -2.3673    4.2045    5.3816 H   0  0  0  0  0  0  0  0  0  0  0  0
   -1.9352    2.6131    4.0622 C   0  0  0  0  0  0  0  0  0  0  0  0
   -1.6053    0.4886    4.0555 C   0  0  0  0  0  3  0  0  0  0  0  0
   -1.2128   -0.4867    4.2570 H   0  0  0  0  0  0  0  0  0  0  0  0
   -2.8582    2.0792    3.2014 C   0  0  0  0  0  0  0  0  0  0  0  0
   -3.9346    2.6913    2.3870 C   0  0  0  0  0  0  0  0  0  0  0  0
   -3.8319    3.7717    2.3786 H   0  0  0  0  0  0  0  0  0  0  0  0
   -4.9126    2.4449    2.7992 H   0  0  0  0  0  0  0  0  0  0  0  0
   -3.8967    2.3254    1.3624 H   0  0  0  0  0  0  0  0  0  0  0  0
  1  2  1  0  0  0  0
  1  3  1  0  0  0  0
  1  8  1  0  0  0  0
  2 22  1  0  0  0  0
  3  4  1  6  0  0  0
  3 26  1  0  0  0  0
  3 23  1  0  0  0  0
  5  6  1  6  0  0  0
  5 31  1  0  0  0  0
  5  1  1  0  0  0  0
  7  1  1  0  0  0  0
  9 10  1  0  0  0  0
  9 29  1  0  0  0  0
 11 12  1  0  0  0  0
 11 19  1  0  0  0  0
 13 38  1  0  0  0  0
 14 13  1  0  0  0  0
 15 16  1  0  0  0  0
 15 18  1  0  0  0  0
 17 15  1  0  0  0  0
 19 15  1  0  0  0  0
 20  2  1  0  0  0  0
 20 11  1  0  0  0  0
 21 20  1  0  0  0  0
 22 19  2  0  0  0  0
 22 23  1  0  0  0  0
 23 25  1  0  0  0  0
 23 24  1  0  0  0  0
 26 27  1  0  0  0  0
 26 28  1  0  0  0  0
 29 30  1  1  0  0  0
 29 26  1  0  0  0  0
 31 29  1  0  0  0  0
 31 32  1  0  0  0  0
 33 31  1  0  0  0  0
 34  5  1  0  0  0  0
 34 36  1  0  0  0  0
 35 34  1  0  0  0  0
 37 34  1  0  0  0  0
 37  7  1  0  0  0  0
 38 39  1  0  0  0  0
 38  7  1  0  0  0  0
 40 13  1  0  0  0  0
 40 37  2  0  0  0  0
 41 43  1  0  0  0  0
 41 40  1  0  0  0  0
 42 41  1  0  0  0  0
 44 41  1  0  0  0  0
M  END
$$$$
