CSD_code = MEPGOE | q = 0 | S = 0 | Stoichiometry = C26H23BrN2Ni | MND = 7
 OpenBabel04212202073D

 53 56  0  0  1  0  0  0  0  0999 V2000
    5.6293    6.6018    4.5955 Ni  0  0  0  0  0  0  0  0  0  0  0  0
    7.5625    5.6391    5.1427 Br  0  0  0  0  0 15  0  0  0  0  0  0
    4.6234    5.0138    5.0033 C   0  0  2  0  0  3  0  0  0  0  0  0
    4.3276    4.5323    6.2304 N   0  0  0  0  0  0  0  0  0  0  0  0
    3.6918    3.3263    6.1297 C   0  0  0  0  0  0  0  0  0  0  0  0
    3.3666    2.7766    6.9887 H   0  0  0  0  0  0  0  0  0  0  0  0
    3.5996    3.0385    4.8116 C   0  0  0  0  0  0  0  0  0  0  0  0
    3.1860    2.1919    4.3044 H   0  0  0  0  0  0  0  0  0  0  0  0
    4.1843    4.0755    4.1382 N   0  0  0  0  0  0  0  0  0  0  0  0
    4.8066    5.0971    7.4720 C   0  0  0  0  0  0  0  0  0  0  0  0
    5.8648    4.8310    7.5841 H   0  0  0  0  0  0  0  0  0  0  0  0
    4.2396    4.6399    8.2894 H   0  0  0  0  0  0  0  0  0  0  0  0
    4.6600    6.5970    7.5343 C   0  0  0  0  0  0  0  0  0  0  0  0
    3.4010    7.1805    7.4132 C   0  0  0  0  0  0  0  0  0  0  0  0
    2.5454    6.5606    7.1819 H   0  0  0  0  0  0  0  0  0  0  0  0
    3.2404    8.5410    7.5994 C   0  0  0  0  0  0  0  0  0  0  0  0
    2.2608    8.9864    7.5023 H   0  0  0  0  0  0  0  0  0  0  0  0
    4.3320    9.3307    7.9250 C   0  0  0  0  0  0  0  0  0  0  0  0
    4.2018   10.3914    8.0854 H   0  0  0  0  0  0  0  0  0  0  0  0
    5.5889    8.7597    8.0359 C   0  0  0  0  0  0  0  0  0  0  0  0
    6.4438    9.3742    8.2768 H   0  0  0  0  0  0  0  0  0  0  0  0
    5.7573    7.3991    7.8331 C   0  0  0  0  0  0  0  0  0  0  0  0
    6.7376    6.9551    7.9288 H   0  0  0  0  0  0  0  0  0  0  0  0
    4.4414    4.0554    2.7143 C   0  0  0  0  0  0  0  0  0  0  0  0
    5.0760    4.9206    2.4845 H   0  0  0  0  0  0  0  0  0  0  0  0
    3.5000    4.1484    2.1639 H   0  0  0  0  0  0  0  0  0  0  0  0
    5.1607    2.7864    2.3352 C   0  0  0  0  0  0  0  0  0  0  0  0
    4.5721    1.8544    1.4930 C   0  0  0  0  0  0  0  0  0  0  0  0
    3.5903    2.0446    1.0812 H   0  0  0  0  0  0  0  0  0  0  0  0
    5.2406    0.6854    1.1716 C   0  0  0  0  0  0  0  0  0  0  0  0
    4.7773   -0.0337    0.5121 H   0  0  0  0  0  0  0  0  0  0  0  0
    6.4972    0.4394    1.6971 C   0  0  0  0  0  0  0  0  0  0  0  0
    7.0163   -0.4742    1.4478 H   0  0  0  0  0  0  0  0  0  0  0  0
    7.0877    1.3672    2.5394 C   0  0  0  0  0  0  0  0  0  0  0  0
    8.0690    1.1838    2.9492 H   0  0  0  0  0  0  0  0  0  0  0  0
    6.4246    2.5381    2.8574 C   0  0  0  0  0  0  0  0  0  0  0  0
    6.8906    3.2624    3.5093 H   0  0  0  0  0  0  0  0  0  0  0  0
    6.4250    8.3281    3.8770 C   0  0  2  0  0  0  0  0  0  0  0  0
    7.4003    8.7530    4.0753 H   0  0  0  0  0  0  0  0  0  0  0  0
    5.2502    8.6140    4.5987 C   0  0  0  0  0  3  0  0  0  0  0  0
    5.1882    9.2091    5.4955 H   0  0  0  0  0  0  0  0  0  0  0  0
    4.1831    7.9544    3.9699 C   0  0  0  0  0  3  0  0  0  0  0  0
    3.1444    8.0370    4.2567 H   0  0  0  0  0  0  0  0  0  0  0  0
    3.9461    7.0989    1.5204 C   0  0  0  0  0  0  0  0  0  0  0  0
    2.8743    6.9548    1.5457 H   0  0  0  0  0  0  0  0  0  0  0  0
    4.6712    6.8446    0.3671 C   0  0  0  0  0  0  0  0  0  0  0  0
    4.1564    6.5056   -0.5204 H   0  0  0  0  0  0  0  0  0  0  0  0
    6.0504    7.0226    0.3279 C   0  0  0  0  0  0  0  0  0  0  0  0
    6.5846    6.8103   -0.5863 H   0  0  0  0  0  0  0  0  0  0  0  0
    6.7482    7.4816    1.4335 C   0  0  0  0  0  0  0  0  0  0  0  0
    7.8183    7.6261    1.3937 H   0  0  0  0  0  0  0  0  0  0  0  0
    6.0368    7.7667    2.5922 C   0  0  0  0  0  0  0  0  0  0  0  0
    4.6261    7.5512    2.6432 C   0  0  0  0  0  0  0  0  0  0  0  0
  3  1  1  1  0  0  0
  3  4  1  0  0  0  0
  4 10  1  0  0  0  0
  5  4  1  0  0  0  0
  5  6  1  0  0  0  0
  7  5  2  0  0  0  0
  8  7  1  0  0  0  0
  9  7  1  0  0  0  0
  9  3  1  0  0  0  0
 10 13  1  0  0  0  0
 10 11  1  0  0  0  0
 10 12  1  0  0  0  0
 13 22  1  0  0  0  0
 14 13  2  0  0  0  0
 14 16  1  0  0  0  0
 15 14  1  0  0  0  0
 16 18  2  0  0  0  0
 17 16  1  0  0  0  0
 18 20  1  0  0  0  0
 18 19  1  0  0  0  0
 20 21  1  0  0  0  0
 22 23  1  0  0  0  0
 22 20  2  0  0  0  0
 24  9  1  0  0  0  0
 25 24  1  0  0  0  0
 26 24  1  0  0  0  0
 27 24  1  0  0  0  0
 27 36  1  0  0  0  0
 28 27  2  0  0  0  0
 29 28  1  0  0  0  0
 30 28  1  0  0  0  0
 30 32  2  0  0  0  0
 31 30  1  0  0  0  0
 32 34  1  0  0  0  0
 33 32  1  0  0  0  0
 34 36  2  0  0  0  0
 34 35  1  0  0  0  0
 36 37  1  0  0  0  0
 38 39  1  1  0  0  0
 38  1  1  0  0  0  0
 38 40  1  0  0  0  0
 40 41  1  0  0  0  0
 42 43  1  0  0  0  0
 42 40  1  0  0  0  0
 44 45  1  0  0  0  0
 44 53  1  0  0  0  0
 46 44  2  0  0  0  0
 47 46  1  0  0  0  0
 48 46  1  0  0  0  0
 48 50  2  0  0  0  0
 49 48  1  0  0  0  0
 50 52  1  0  0  0  0
 51 50  1  0  0  0  0
 52 53  2  0  0  0  0
 52 38  1  0  0  0  0
 53 42  1  0  0  0  0
M  END
$$$$
