CSD_code = MEQZEO | q = 0 | S = 0 | Stoichiometry = C18H18Cl2Zr | MND = 12
 OpenBabel04212202073D

 39 41  0  0  1  0  0  0  0  0999 V2000
    3.9616    1.7819    3.4424 Zr  0  0  0  0  0  0  0  0  0  0  0  0
    5.6284    0.7842    2.1566 Cl  0  0  0  0  0  0  0  0  0  0  0  0
    5.3791    3.4599    4.2201 Cl  0  0  0  0  0  0  0  0  0  0  0  0
    2.4391    0.2218    4.5423 C   0  0  0  0  0  0  0  0  0  0  0  0
    3.6671   -0.4653    4.3610 C   0  0  0  0  0  0  0  0  0  0  0  0
    3.8095   -1.3773    3.7929 H   0  0  0  0  0  0  0  0  0  0  0  0
    4.6407    0.1418    5.1935 C   0  0  0  0  0  0  0  0  0  0  0  0
    5.6550   -0.2116    5.3421 H   0  0  0  0  0  0  0  0  0  0  0  0
    4.0207    1.1996    5.8909 C   0  0  0  0  0  0  0  0  0  0  0  0
    4.4741    1.7981    6.6718 H   0  0  0  0  0  0  0  0  0  0  0  0
    2.6677    1.2612    5.4829 C   0  0  0  0  0  3  0  0  0  0  0  0
    1.9085    1.8859    5.9395 H   0  0  0  0  0  0  0  0  0  0  0  0
    1.1406   -0.0910    3.8314 C   0  0  2  0  0  0  0  0  0  0  0  0
    0.3368    0.4960    4.2985 H   0  0  0  0  0  0  0  0  0  0  0  0
    0.8217   -1.5575    4.0182 C   0  0  0  0  0  0  0  0  0  0  0  0
    1.3375   -1.9990    4.8608 H   0  0  0  0  0  0  0  0  0  0  0  0
    0.0033   -2.3271    3.3165 C   0  0  0  0  0  0  0  0  0  0  0  0
   -0.0845   -3.3664    3.6035 H   0  0  0  0  0  0  0  0  0  0  0  0
   -0.8033   -1.9263    2.1205 C   0  0  0  0  0  0  0  0  0  0  0  0
   -1.1654   -0.9059    2.2394 H   0  0  0  0  0  0  0  0  0  0  0  0
   -1.6816   -2.5707    2.0471 H   0  0  0  0  0  0  0  0  0  0  0  0
    0.0080   -2.0725    0.8136 C   0  0  0  0  0  0  0  0  0  0  0  0
   -0.4480   -1.4452    0.0415 H   0  0  0  0  0  0  0  0  0  0  0  0
   -0.0690   -3.1066    0.4741 H   0  0  0  0  0  0  0  0  0  0  0  0
    1.4686   -1.7369    0.9297 C   0  0  0  0  0  0  0  0  0  0  0  0
    2.1295   -2.4291    0.4253 H   0  0  0  0  0  0  0  0  0  0  0  0
    2.0091   -0.7074    1.5648 C   0  0  0  0  0  0  0  0  0  0  0  0
    3.0930   -0.6003    1.5849 H   0  0  0  0  0  0  0  0  0  0  0  0
    1.2413    0.3404    2.3241 C   0  0  2  0  0  0  0  0  0  0  0  0
    0.2324    0.4166    1.9114 H   0  0  0  0  0  0  0  0  0  0  0  0
    1.9199    1.6865    2.2041 C   0  0  1  0  0  0  0  0  0  0  0  0
    1.7408    2.8039    3.0651 C   0  0  0  0  0  0  0  0  0  0  0  0
    0.9543    2.9221    3.8000 H   0  0  0  0  0  0  0  0  0  0  0  0
    2.6374    3.8187    2.6656 C   0  0  0  0  0  0  0  0  0  0  0  0
    2.6852    4.8195    3.0763 H   0  0  0  0  0  0  0  0  0  0  0  0
    3.3676    3.3477    1.5543 C   0  0  0  0  0  0  0  0  0  0  0  0
    4.0753    3.9224    0.9684 H   0  0  0  0  0  0  0  0  0  0  0  0
    2.9188    2.0396    1.2564 C   0  0  0  0  0  0  0  0  0  0  0  0
    3.2084    1.4643    0.3847 H   0  0  0  0  0  0  0  0  0  0  0  0
  1  3  1  0  0  0  0
  2  1  1  0  0  0  0
  4 11  1  0  0  0  0
  5  4  2  0  0  0  0
  5  7  1  0  0  0  0
  6  5  1  0  0  0  0
  7  8  1  0  0  0  0
  7  9  2  0  0  0  0
  9 10  1  0  0  0  0
 11  9  1  0  0  0  0
 11 12  1  0  0  0  0
 13 15  1  0  0  0  0
 13 14  1  1  0  0  0
 13  4  1  0  0  0  0
 15 16  1  0  0  0  0
 17 18  1  0  0  0  0
 17 15  2  0  0  0  0
 19 20  1  0  0  0  0
 19 17  1  0  0  0  0
 21 19  1  0  0  0  0
 22 25  1  0  0  0  0
 22 19  1  0  0  0  0
 23 22  1  0  0  0  0
 24 22  1  0  0  0  0
 25 27  2  0  0  0  0
 26 25  1  0  0  0  0
 27 28  1  0  0  0  0
 27 29  1  0  0  0  0
 29 30  1  6  0  0  0
 29 13  1  0  0  0  0
 31 29  1  0  0  0  0
 31 32  1  0  0  0  0
 31  1  1  1  0  0  0
 32 33  1  0  0  0  0
 34 32  2  0  0  0  0
 34 35  1  0  0  0  0
 36 34  1  0  0  0  0
 37 36  1  0  0  0  0
 38 36  2  0  0  0  0
 38 31  1  0  0  0  0
 39 38  1  0  0  0  0
M  END
$$$$
