CSD_code = MERBUG | q = 0 | S = 0 | Stoichiometry = C18H12ClN3Pt | MND = 4
 OpenBabel04212202073D

 35 40  0  0  1  0  0  0  0  0999 V2000
    3.7340    4.1865    1.1841 Pt  0  0  2  0  0  0  0  0  0  0  0  0
    1.4996    4.0189    1.5417 Cl  0  0  0  0  0  0  0  0  0  0  0  0
    3.8792    2.6157    0.0153 N   0  0  0  0  0  0  0  0  0  0  0  0
    5.6745    4.3320    0.8733 N   0  0  0  0  0  0  0  0  0  0  0  0
    4.0048    5.7887    2.2859 N   0  0  0  0  0  0  0  0  0  0  0  0
    5.1664    2.4248   -0.3923 C   0  0  0  0  0  0  0  0  0  0  0  0
    6.1689    3.3511    0.0687 C   0  0  0  0  0  0  0  0  0  0  0  0
    7.4768    3.1252   -0.3538 C   0  0  0  0  0  0  0  0  0  0  0  0
    7.7951    2.0584   -1.1907 C   0  0  0  0  0  0  0  0  0  0  0  0
    6.8449    1.1769   -1.6390 C   0  0  0  0  0  3  0  0  0  0  0  0
    5.5062    1.3430   -1.2439 C   0  0  0  0  0  0  0  0  0  0  0  0
    4.4704    0.4763   -1.6544 C   0  0  0  0  0  0  0  0  0  0  0  0
    3.1905    0.7004   -1.2248 C   0  0  0  0  0  0  0  0  0  0  0  0
    2.9318    1.7878   -0.3844 C   0  0  0  0  0  0  0  0  0  0  0  0
    5.3127    6.1745    2.2776 C   0  0  1  0  0  3  0  0  0  0  0  0
    6.2460    5.3931    1.5069 C   0  0  0  0  0  0  0  0  0  0  0  0
    7.5730    5.8168    1.5073 C   0  0  0  0  0  0  0  0  0  0  0  0
    7.9766    6.9382    2.2278 C   0  0  0  0  0  0  0  0  0  0  0  0
    7.0949    7.6827    2.9690 C   0  0  0  0  0  0  0  0  0  0  0  0
    5.7390    7.3142    3.0058 C   0  0  0  0  0  0  0  0  0  0  0  0
    4.7673    8.0307    3.7374 C   0  0  0  0  0  0  0  0  0  0  0  0
    3.4643    7.6126    3.7218 C   0  0  0  0  0  0  0  0  0  0  0  0
    3.1185    6.4794    2.9789 C   0  0  0  0  0  0  0  0  0  0  0  0
    8.2797    3.7675   -0.0426 H   0  0  0  0  0  0  0  0  0  0  0  0
    8.8255    1.9313   -1.4892 H   0  0  0  0  0  0  0  0  0  0  0  0
    7.1051    0.3555   -2.2878 H   0  0  0  0  0  0  0  0  0  0  0  0
    4.7081   -0.3537   -2.3033 H   0  0  0  0  0  0  0  0  0  0  0  0
    2.3772    0.0567   -1.5194 H   0  0  0  0  0  0  0  0  0  0  0  0
    1.9295    1.9880   -0.0286 H   0  0  0  0  0  0  0  0  0  0  0  0
    8.3240    5.2906    0.9476 H   0  0  0  0  0  0  0  0  0  0  0  0
    9.0187    7.2208    2.1945 H   0  0  0  0  0  0  0  0  0  0  0  0
    7.4212    8.5484    3.5233 H   0  0  0  0  0  0  0  0  0  0  0  0
    5.0713    8.9017    4.2989 H   0  0  0  0  0  0  0  0  0  0  0  0
    2.6980    8.1379    4.2691 H   0  0  0  0  0  0  0  0  0  0  0  0
    2.0957    6.1271    2.9479 H   0  0  0  0  0  0  0  0  0  0  0  0
  1  2  1  1  0  0  0
  1  5  1  0  0  0  0
  3  1  1  0  0  0  0
  4  1  1  0  0  0  0
  4 16  1  0  0  0  0
  5 23  1  0  0  0  0
  6  3  1  0  0  0  0
  6  7  2  0  0  0  0
  7  4  1  0  0  0  0
  8 24  1  0  0  0  0
  8  7  1  0  0  0  0
  9  8  2  0  0  0  0
 10 11  1  0  0  0  0
 10  9  1  0  0  0  0
 11  6  1  0  0  0  0
 12 11  2  0  0  0  0
 12 13  1  0  0  0  0
 13 14  2  0  0  0  0
 14 29  1  0  0  0  0
 14  3  1  0  0  0  0
 15 16  1  6  0  0  0
 15  5  1  0  0  0  0
 15 20  1  0  0  0  0
 16 17  2  0  0  0  0
 17 18  1  0  0  0  0
 18 19  2  0  0  0  0
 19 20  1  0  0  0  0
 19 32  1  0  0  0  0
 20 21  2  0  0  0  0
 21 33  1  0  0  0  0
 22 21  1  0  0  0  0
 22 34  1  0  0  0  0
 23 22  2  0  0  0  0
 25  9  1  0  0  0  0
 26 10  1  0  0  0  0
 27 12  1  0  0  0  0
 28 13  1  0  0  0  0
 30 17  1  0  0  0  0
 31 18  1  0  0  0  0
 35 23  1  0  0  0  0
M  END
$$$$
