CSD_code = MERBAM | q = 0 | S = 0 | Stoichiometry = C24H20BrNO5PRe | MND = 6
 OpenBabel04212202073D

 53 56  0  0  1  0  0  0  0  0999 V2000
    6.9683    3.0898    4.1899 Re  0  0  0  0  0  0  0  0  0  0  0  0
    5.4397    1.0768    4.0386 Br  0  0  0  0  0  0  0  0  0  0  0  0
    8.1437    1.9464    2.3956 P   0  0  0  0  0  4  0  0  0  0  0  0
    8.5711    1.6915    5.2186 O   0  0  0  0  0  0  0  0  0  0  0  0
   12.8272    1.5642    5.2581 O   0  0  0  0  0  0  0  0  0  0  0  0
   13.4029    2.1798    4.7938 H   0  0  0  0  0  0  0  0  0  0  0  0
   10.2917    0.3416    5.6646 N   0  0  0  0  0  0  0  0  0  0  0  0
   10.8914   -0.3970    5.3318 H   0  0  0  0  0  0  0  0  0  0  0  0
    8.2580    0.1479    2.7016 C   0  0  0  0  0  0  0  0  0  0  0  0
    7.8151   -0.7732    1.7608 C   0  0  0  0  0  0  0  0  0  0  0  0
    7.4008   -0.4264    0.8257 H   0  0  0  0  0  0  0  0  0  0  0  0
    7.8766   -2.1299    2.0264 C   0  0  0  0  0  0  0  0  0  0  0  0
    7.5149   -2.8331    1.2918 H   0  0  0  0  0  0  0  0  0  0  0  0
    8.3828   -2.5840    3.2324 C   0  0  0  0  0  0  0  0  0  0  0  0
    8.4171   -3.6416    3.4443 H   0  0  0  0  0  0  0  0  0  0  0  0
    8.8322   -1.6785    4.1770 C   0  0  0  0  0  0  0  0  0  0  0  0
    9.1953   -2.0281    5.1329 H   0  0  0  0  0  0  0  0  0  0  0  0
    8.7721   -0.3137    3.9222 C   0  0  0  0  0  0  0  0  0  0  0  0
    9.1912    0.6605    4.9620 C   0  0  1  0  0  3  0  0  0  0  0  0
   10.8791    1.2810    6.5938 C   0  0  0  0  0  0  0  0  0  0  0  0
   11.4700    0.7221    7.3203 H   0  0  0  0  0  0  0  0  0  0  0  0
   10.0724    1.8164    7.0980 H   0  0  0  0  0  0  0  0  0  0  0  0
   11.7753    2.2846    5.8649 C   0  0  0  0  0  0  0  0  0  0  0  0
   11.1861    2.8211    5.1081 H   0  0  0  0  0  0  0  0  0  0  0  0
   12.1616    3.0130    6.5890 H   0  0  0  0  0  0  0  0  0  0  0  0
    9.8977    2.4056    2.1812 C   0  0  0  0  0  0  0  0  0  0  0  0
   10.9632    1.5174    2.2624 C   0  0  0  0  0  0  0  0  0  0  0  0
   10.7882    0.4608    2.4150 H   0  0  0  0  0  0  0  0  0  0  0  0
   12.2611    1.9831    2.1341 C   0  0  0  0  0  0  0  0  0  0  0  0
   13.0844    1.2865    2.1986 H   0  0  0  0  0  0  0  0  0  0  0  0
   12.5015    3.3307    1.9254 C   0  0  0  0  0  0  0  0  0  0  0  0
   13.5160    3.6899    1.8308 H   0  0  0  0  0  0  0  0  0  0  0  0
   11.4405    4.2192    1.8302 C   0  0  0  0  0  0  0  0  0  0  0  0
   11.6254    5.2694    1.6616 H   0  0  0  0  0  0  0  0  0  0  0  0
   10.1452    3.7589    1.9596 C   0  0  0  0  0  0  0  0  0  0  0  0
    9.3057    4.4413    1.8929 H   0  0  0  0  0  0  0  0  0  0  0  0
    7.5261    2.0383    0.6895 C   0  0  0  0  0  0  0  0  0  0  0  0
    8.3732    1.8703   -0.4027 C   0  0  0  0  0  0  0  0  0  0  0  0
    9.4267    1.6803   -0.2472 H   0  0  0  0  0  0  0  0  0  0  0  0
    7.8636    1.9492   -1.6851 C   0  0  0  0  0  0  0  0  0  0  0  0
    8.5224    1.8204   -2.5316 H   0  0  0  0  0  0  0  0  0  0  0  0
    6.5137    2.1931   -1.8856 C   0  0  0  0  0  0  0  0  0  0  0  0
    6.1223    2.2549   -2.8902 H   0  0  0  0  0  0  0  0  0  0  0  0
    5.6689    2.3594   -0.8009 C   0  0  0  0  0  0  0  0  0  0  0  0
    4.6176    2.5499   -0.9539 H   0  0  0  0  0  0  0  0  0  0  0  0
    6.1724    2.2860    0.4851 C   0  0  0  0  0  0  0  0  0  0  0  0
    5.5122    2.4141    1.3326 H   0  0  0  0  0  0  0  0  0  0  0  0
    6.0892    3.5016    5.8873 C   0  0  0  0  0  2  0  0  0  0  0  0
    5.5863    3.6305    6.9031 O   0  0  0  0  0  1  0  0  0  0  0  0
    5.8372    4.3168    3.2002 C   0  0  0  0  0  2  0  0  0  0  0  0
    5.1714    5.0222    2.5825 O   0  0  0  0  0  1  0  0  0  0  0  0
    8.3350    4.4319    4.4787 C   0  0  0  0  0  2  0  0  0  0  0  0
    9.1715    5.1845    4.7090 O   0  0  0  0  0  1  0  0  0  0  0  0
  1 52  1  0  0  0  0
  1  4  1  0  0  0  0
  1 48  1  0  0  0  0
  2  1  1  0  0  0  0
  3  9  1  0  0  0  0
  3  1  1  0  0  0  0
  5 23  1  0  0  0  0
  6  5  1  0  0  0  0
  7 20  1  0  0  0  0
  8  7  1  0  0  0  0
  9 18  1  0  0  0  0
 10 12  1  0  0  0  0
 10  9  2  0  0  0  0
 11 10  1  0  0  0  0
 12 14  2  0  0  0  0
 13 12  1  0  0  0  0
 14 15  1  0  0  0  0
 14 16  1  0  0  0  0
 16 17  1  0  0  0  0
 18 16  2  0  0  0  0
 18 19  1  0  0  0  0
 19  4  1  0  0  0  0
 19  7  1  1  0  0  0
 20 22  1  0  0  0  0
 20 21  1  0  0  0  0
 23 25  1  0  0  0  0
 23 20  1  0  0  0  0
 24 23  1  0  0  0  0
 26 27  1  0  0  0  0
 26  3  1  0  0  0  0
 27 28  1  0  0  0  0
 29 30  1  0  0  0  0
 29 27  2  0  0  0  0
 31 29  1  0  0  0  0
 32 31  1  0  0  0  0
 33 31  2  0  0  0  0
 33 35  1  0  0  0  0
 34 33  1  0  0  0  0
 35 26  2  0  0  0  0
 36 35  1  0  0  0  0
 37  3  1  0  0  0  0
 38 39  1  0  0  0  0
 38 37  2  0  0  0  0
 40 38  1  0  0  0  0
 41 40  1  0  0  0  0
 42 40  2  0  0  0  0
 42 44  1  0  0  0  0
 43 42  1  0  0  0  0
 44 46  2  0  0  0  0
 45 44  1  0  0  0  0
 46 37  1  0  0  0  0
 46 47  1  0  0  0  0
 48 49  1  0  0  0  0
 50  1  1  0  0  0  0
 51 50  1  0  0  0  0
 52 53  1  0  0  0  0
M  END
$$$$
