CSD_code = MERTOT | q = 0 | S = 0 | Stoichiometry = C12H18ClCoN6O4 | MND = 6
 OpenBabel04212202073D

 42 44  0  0  0  0  0  0  0  0999 V2000
    1.2830    0.5180   11.2781 Co  0  0  0  0  0  0  0  0  0  0  0  0
    2.8756    0.0130   12.6764 Cl  0  0  0  0  0  0  0  0  0  0  0  0
    0.0797   -1.9894   11.5914 O   0  0  0  0  0  1  0  0  0  0  0  0
    3.3163    1.2584    9.3513 O   0  0  0  0  0  0  0  0  0  0  0  0
    3.0814    2.1024    9.8998 H   0  0  0  0  0  0  0  0  0  0  0  0
    2.3428    3.0727   10.8390 O   0  0  0  0  0  1  0  0  0  0  0  0
   -0.6387   -0.2564   13.3056 O   0  0  0  0  0  0  0  0  0  0  0  0
   -0.4241   -1.0939   12.7403 H   0  0  0  0  0  0  0  0  0  0  0  0
    1.0061   -1.3363   10.9889 N   0  0  0  0  0  0  0  0  0  0  0  0
    2.5480    0.2771    9.8864 N   0  0  0  0  0  0  0  0  0  0  0  0
    1.6204    2.3544   11.6205 N   0  0  0  0  0  0  0  0  0  0  0  0
    0.1446    0.7196   12.7821 N   0  0  0  0  0  0  0  0  0  0  0  0
   -0.1265    0.9654   10.0429 N   0  0  0  0  0  0  0  0  0  0  0  0
   -2.1705    1.6226    8.2683 N   0  0  0  0  0  0  0  0  0  0  0  0
    1.8191   -3.3435    9.8255 C   0  0  0  0  0  0  0  0  0  0  0  0
    1.0618   -3.8273   10.4384 H   0  0  0  0  0  0  0  0  0  0  0  0
    2.7906   -3.7820   10.0458 H   0  0  0  0  0  0  0  0  0  0  0  0
    1.5925   -3.5147    8.7739 H   0  0  0  0  0  0  0  0  0  0  0  0
    1.8244   -1.8832   10.1400 C   0  0  0  0  0  0  0  0  0  0  0  0
    2.7286   -0.9484    9.5215 C   0  0  0  0  0  0  0  0  0  0  0  0
    3.7663   -1.3769    8.5421 C   0  0  0  0  0  0  0  0  0  0  0  0
    3.3092   -1.9162    7.7146 H   0  0  0  0  0  0  0  0  0  0  0  0
    4.4750   -2.0424    9.0322 H   0  0  0  0  0  0  0  0  0  0  0  0
    4.2967   -0.5071    8.1643 H   0  0  0  0  0  0  0  0  0  0  0  0
    1.2593    4.2183   13.1824 C   0  0  0  0  0  0  0  0  0  0  0  0
    1.9203    4.7349   12.4900 H   0  0  0  0  0  0  0  0  0  0  0  0
    1.7118    4.2177   14.1724 H   0  0  0  0  0  0  0  0  0  0  0  0
    0.3090    4.7475   13.2366 H   0  0  0  0  0  0  0  0  0  0  0  0
    1.0638    2.8182   12.6995 C   0  0  0  0  0  0  0  0  0  0  0  0
    0.2297    1.8613   13.3794 C   0  0  0  0  0  0  0  0  0  0  0  0
   -0.4768    2.1855   14.6505 C   0  0  0  0  0  0  0  0  0  0  0  0
   -1.0153    1.3106   15.0041 H   0  0  0  0  0  0  0  0  0  0  0  0
   -1.1769    3.0051   14.4962 H   0  0  0  0  0  0  0  0  0  0  0  0
    0.2467    2.4932   15.4030 H   0  0  0  0  0  0  0  0  0  0  0  0
    0.0329    1.9051    9.1051 C   0  0  0  0  0  3  0  0  0  0  0  0
    0.9790    2.4263    9.0572 H   0  0  0  0  0  0  0  0  0  0  0  0
   -0.9934    2.2234    8.2276 C   0  0  0  0  0  0  0  0  0  0  0  0
   -0.8622    2.9839    7.4716 H   0  0  0  0  0  0  0  0  0  0  0  0
   -2.3255    0.6924    9.1949 C   0  0  0  0  0  0  0  0  0  0  0  0
   -3.2856    0.1984    9.2314 H   0  0  0  0  0  0  0  0  0  0  0  0
   -1.3158    0.3558   10.0847 C   0  0  0  0  0  0  0  0  0  0  0  0
   -1.4679   -0.4214   10.8209 H   0  0  0  0  0  0  0  0  0  0  0  0
  1 11  1  0  0  0  0
  1  2  1  0  0  0  0
  1 12  1  0  0  0  0
  4 10  1  0  0  0  0
  4  5  1  0  0  0  0
  6 11  1  0  0  0  0
  8  7  1  0  0  0  0
  9  1  1  0  0  0  0
  9  3  1  0  0  0  0
 10  1  1  0  0  0  0
 11 29  1  0  0  0  0
 12  7  1  0  0  0  0
 12 30  1  0  0  0  0
 13 41  1  0  0  0  0
 13  1  1  0  0  0  0
 14 39  1  0  0  0  0
 15 17  1  0  0  0  0
 15 19  1  0  0  0  0
 15 16  1  0  0  0  0
 18 15  1  0  0  0  0
 19  9  1  0  0  0  0
 20 10  1  0  0  0  0
 20 19  2  0  0  0  0
 21 23  1  0  0  0  0
 21 20  1  0  0  0  0
 22 21  1  0  0  0  0
 24 21  1  0  0  0  0
 25 28  1  0  0  0  0
 25 27  1  0  0  0  0
 26 25  1  0  0  0  0
 29 25  1  0  0  0  0
 29 30  2  0  0  0  0
 30 31  1  0  0  0  0
 31 32  1  0  0  0  0
 31 34  1  0  0  0  0
 33 31  1  0  0  0  0
 35 13  1  0  0  0  0
 36 35  1  0  0  0  0
 37 14  2  0  0  0  0
 37 35  1  0  0  0  0
 38 37  1  0  0  0  0
 39 40  1  0  0  0  0
 39 41  2  0  0  0  0
 41 42  1  0  0  0  0
M  END
$$$$
