CSD_code = METDOE | q = 0 | S = 0 | Stoichiometry = C30H33Br2N2OPTi | MND = 5
 OpenBabel04212202073D

 70 73  0  0  0  0  0  0  0  0999 V2000
    2.3548    3.9557    1.0883 Ti  0  0  0  0  0  0  0  0  0  0  0  0
    2.5931    5.3065   -1.0619 Br  0  0  0  0  0  0  0  0  0  0  0  0
    2.7525    2.6142    3.2104 Br  0  0  0  0  0  0  0  0  0  0  0  0
    4.6430    1.1660   -1.3164 P   0  0  0  0  0  4  0  0  0  0  0  0
    3.7584    2.8957    0.3371 O   0  0  0  0  0  0  0  0  0  0  0  0
    2.0382    5.4758    2.0654 N   0  0  0  0  0  0  0  0  0  0  0  0
    0.7165    3.1923    0.6891 N   0  0  0  0  0  0  0  0  0  0  0  0
    5.7251    2.4000   -0.6762 C   0  0  0  0  0  0  0  0  0  0  0  0
    6.7548    2.5112   -0.9631 H   0  0  0  0  0  0  0  0  0  0  0  0
    4.9905    3.2281    0.1325 C   0  0  0  0  0  0  0  0  0  0  0  0
    5.5564    4.4465    0.7626 C   0  0  0  0  0  0  0  0  0  0  0  0
    6.0677    5.4615   -0.0435 C   0  0  0  0  0  0  0  0  0  0  0  0
    6.0262    5.3596   -1.1180 H   0  0  0  0  0  0  0  0  0  0  0  0
    6.5833    6.6071    0.5350 C   0  0  0  0  0  0  0  0  0  0  0  0
    6.9610    7.3989   -0.0942 H   0  0  0  0  0  0  0  0  0  0  0  0
    6.6130    6.7396    1.9143 C   0  0  0  0  0  0  0  0  0  0  0  0
    7.0198    7.6343    2.3617 H   0  0  0  0  0  0  0  0  0  0  0  0
    6.1214    5.7248    2.7185 C   0  0  0  0  0  0  0  0  0  0  0  0
    6.1532    5.8188    3.7940 H   0  0  0  0  0  0  0  0  0  0  0  0
    5.5837    4.5816    2.1500 C   0  0  0  0  0  0  0  0  0  0  0  0
    5.2298    3.7804    2.7873 H   0  0  0  0  0  0  0  0  0  0  0  0
    5.6162    0.1031   -2.4142 C   0  0  0  0  0  0  0  0  0  0  0  0
    5.2036   -0.2342   -3.6962 C   0  0  0  0  0  0  0  0  0  0  0  0
    4.2818    0.1705   -4.0904 H   0  0  0  0  0  0  0  0  0  0  0  0
    5.9817   -1.0803   -4.4673 C   0  0  0  0  0  0  0  0  0  0  0  0
    5.6639   -1.3394   -5.4663 H   0  0  0  0  0  0  0  0  0  0  0  0
    7.1637   -1.5944   -3.9604 C   0  0  0  0  0  0  0  0  0  0  0  0
    7.7676   -2.2536   -4.5656 H   0  0  0  0  0  0  0  0  0  0  0  0
    7.5717   -1.2671   -2.6765 C   0  0  0  0  0  0  0  0  0  0  0  0
    8.4908   -1.6724   -2.2807 H   0  0  0  0  0  0  0  0  0  0  0  0
    6.7983   -0.4228   -1.9027 C   0  0  0  0  0  0  0  0  0  0  0  0
    7.1010   -0.1648   -0.8967 H   0  0  0  0  0  0  0  0  0  0  0  0
    3.9587    0.0130   -0.0975 C   0  0  0  0  0  0  0  0  0  0  0  0
    3.1218   -1.0023   -0.5559 C   0  0  0  0  0  0  0  0  0  0  0  0
    2.9187   -1.0924   -1.6156 H   0  0  0  0  0  0  0  0  0  0  0  0
    2.5588   -1.8833    0.3481 C   0  0  0  0  0  0  0  0  0  0  0  0
    1.9023   -2.6663   -0.0020 H   0  0  0  0  0  0  0  0  0  0  0  0
    2.8295   -1.7543    1.7027 C   0  0  0  0  0  0  0  0  0  0  0  0
    2.3720   -2.4314    2.4079 H   0  0  0  0  0  0  0  0  0  0  0  0
    3.6841   -0.7624    2.1544 C   0  0  0  0  0  0  0  0  0  0  0  0
    3.8865   -0.6504    3.2076 H   0  0  0  0  0  0  0  0  0  0  0  0
    4.2595    0.1174    1.2539 C   0  0  0  0  0  0  0  0  0  0  0  0
    4.9259    0.8933    1.6041 H   0  0  0  0  0  0  0  0  0  0  0  0
    3.3206    1.9002   -2.3089 C   0  0  0  0  0  0  0  0  0  0  0  0
    1.9730    1.7262   -2.0224 C   0  0  0  0  0  0  0  0  0  0  0  0
    1.6722    1.0926   -1.2002 H   0  0  0  0  0  0  0  0  0  0  0  0
    1.0268    2.3705   -2.8007 C   0  0  0  0  0  0  0  0  0  0  0  0
   -0.0232    2.2415   -2.5821 H   0  0  0  0  0  0  0  0  0  0  0  0
    1.4208    3.1883   -3.8466 C   0  0  0  0  0  0  0  0  0  0  0  0
    0.6784    3.7039   -4.4358 H   0  0  0  0  0  0  0  0  0  0  0  0
    2.7664    3.3659   -4.1261 C   0  0  0  0  0  0  0  0  0  0  0  0
    3.0714    4.0197   -4.9277 H   0  0  0  0  0  0  0  0  0  0  0  0
    3.7188    2.7261   -3.3574 C   0  0  0  0  0  0  0  0  0  0  0  0
    4.7745    2.8708   -3.5494 H   0  0  0  0  0  0  0  0  0  0  0  0
    2.8550    6.6603    2.1078 C   0  0  0  0  0  0  0  0  0  0  0  0
    3.6107    6.6448    1.3161 H   0  0  0  0  0  0  0  0  0  0  0  0
    3.3694    6.7607    3.0811 H   0  0  0  0  0  0  0  0  0  0  0  0
    2.2363    7.5632    1.9672 H   0  0  0  0  0  0  0  0  0  0  0  0
    1.0083    5.5375    3.0731 C   0  0  0  0  0  0  0  0  0  0  0  0
    0.3985    4.6292    3.0589 H   0  0  0  0  0  0  0  0  0  0  0  0
    0.3486    6.4069    2.9103 H   0  0  0  0  0  0  0  0  0  0  0  0
    1.4518    5.6389    4.0798 H   0  0  0  0  0  0  0  0  0  0  0  0
   -0.4292    4.0025    0.3567 C   0  0  0  0  0  0  0  0  0  0  0  0
   -0.1194    5.0304    0.1440 H   0  0  0  0  0  0  0  0  0  0  0  0
   -1.1689    4.0192    1.1784 H   0  0  0  0  0  0  0  0  0  0  0  0
   -0.9426    3.6055   -0.5358 H   0  0  0  0  0  0  0  0  0  0  0  0
    0.3193    1.8520    1.0391 C   0  0  0  0  0  0  0  0  0  0  0  0
    1.1964    1.2101    1.1728 H   0  0  0  0  0  0  0  0  0  0  0  0
   -0.3194    1.4116    0.2544 H   0  0  0  0  0  0  0  0  0  0  0  0
   -0.2642    1.8359    1.9794 H   0  0  0  0  0  0  0  0  0  0  0  0
  1  6  1  0  0  0  0
  1  3  1  0  0  0  0
  2  1  1  0  0  0  0
  4  8  1  0  0  0  0
  4 33  1  0  0  0  0
  5  1  1  0  0  0  0
  6 55  1  0  0  0  0
  6 59  1  0  0  0  0
  7 67  1  0  0  0  0
  7  1  1  0  0  0  0
  8 10  2  0  0  0  0
  9  8  1  0  0  0  0
 10  5  1  0  0  0  0
 10 11  1  0  0  0  0
 11 20  1  0  0  0  0
 12 14  1  0  0  0  0
 12 11  2  0  0  0  0
 13 12  1  0  0  0  0
 14 16  2  0  0  0  0
 15 14  1  0  0  0  0
 16 17  1  0  0  0  0
 16 18  1  0  0  0  0
 18 19  1  0  0  0  0
 20 18  2  0  0  0  0
 20 21  1  0  0  0  0
 22 31  1  0  0  0  0
 22  4  1  0  0  0  0
 23 22  2  0  0  0  0
 24 23  1  0  0  0  0
 25 27  2  0  0  0  0
 25 23  1  0  0  0  0
 26 25  1  0  0  0  0
 27 29  1  0  0  0  0
 28 27  1  0  0  0  0
 29 30  1  0  0  0  0
 29 31  2  0  0  0  0
 31 32  1  0  0  0  0
 33 42  1  0  0  0  0
 34 33  2  0  0  0  0
 34 36  1  0  0  0  0
 35 34  1  0  0  0  0
 36 38  2  0  0  0  0
 37 36  1  0  0  0  0
 38 40  1  0  0  0  0
 38 39  1  0  0  0  0
 40 41  1  0  0  0  0
 42 43  1  0  0  0  0
 42 40  2  0  0  0  0
 44 45  1  0  0  0  0
 44  4  1  0  0  0  0
 45 46  1  0  0  0  0
 47 48  1  0  0  0  0
 47 45  2  0  0  0  0
 49 47  1  0  0  0  0
 50 49  1  0  0  0  0
 51 49  2  0  0  0  0
 51 53  1  0  0  0  0
 52 51  1  0  0  0  0
 53 44  2  0  0  0  0
 54 53  1  0  0  0  0
 55 57  1  0  0  0  0
 56 55  1  0  0  0  0
 58 55  1  0  0  0  0
 59 62  1  0  0  0  0
 60 59  1  0  0  0  0
 61 59  1  0  0  0  0
 63  7  1  0  0  0  0
 63 65  1  0  0  0  0
 64 63  1  0  0  0  0
 66 63  1  0  0  0  0
 67 68  1  0  0  0  0
 67 70  1  0  0  0  0
 69 67  1  0  0  0  0
M  END
$$$$
