CSD_code = METGIB | q = 0 | S = 0 | Stoichiometry = C7H18Cl2FeN2 | MND = 4
 OpenBabel04212202073D

 30 28  0  0  0  0  0  0  0  0999 V2000
    4.7826   10.8548    3.2683 Fe  0  0  0  0  0  0  0  0  0  0  0  0
    4.7826   10.6601    5.2564 Cl  0  0  0  0  0  0  0  0  0  0  0  0
    4.7826   11.4468    1.3481 Cl  0  0  0  0  0  0  0  0  0  0  0  0
    3.1140    8.9904    2.8454 N   0  0  0  0  0  0  0  0  0  0  0  0
    4.7826    7.3306    1.8858 C   0  0  0  0  0  0  0  0  0  0  0  0
    4.7826    6.5766    1.0943 H   0  0  0  0  0  0  0  0  0  0  0  0
    4.7826    6.7937    2.8323 H   0  0  0  0  0  0  0  0  0  0  0  0
    3.4871    8.1286    1.7197 C   0  0  0  0  0  0  0  0  0  0  0  0
    3.5926    8.7710    0.8425 H   0  0  0  0  0  0  0  0  0  0  0  0
    2.6690    7.4124    1.5231 H   0  0  0  0  0  0  0  0  0  0  0  0
    1.9508    9.7906    2.4579 C   0  0  0  0  0  0  0  0  0  0  0  0
    1.6834   10.4542    3.2799 H   0  0  0  0  0  0  0  0  0  0  0  0
    1.0849    9.1551    2.2205 H   0  0  0  0  0  0  0  0  0  0  0  0
    2.1922   10.3936    1.5844 H   0  0  0  0  0  0  0  0  0  0  0  0
    2.7539    8.1974    4.0161 C   0  0  0  0  0  0  0  0  0  0  0  0
    3.6156    7.6466    4.3804 H   0  0  0  0  0  0  0  0  0  0  0  0
    1.9445    7.4881    3.7888 H   0  0  0  0  0  0  0  0  0  0  0  0
    2.4288    8.8638    4.8118 H   0  0  0  0  0  0  0  0  0  0  0  0
    6.0781    8.1286    1.7197 C   0  0  0  0  0  0  0  0  0  0  0  0
    6.4511    8.9904    2.8454 N   0  0  0  0  0  0  0  0  0  0  0  0
    7.6144    9.7906    2.4579 C   0  0  0  0  0  0  0  0  0  0  0  0
    7.8817   10.4542    3.2799 H   0  0  0  0  0  0  0  0  0  0  0  0
    8.4802    9.1551    2.2205 H   0  0  0  0  0  0  0  0  0  0  0  0
    7.3729   10.3936    1.5844 H   0  0  0  0  0  0  0  0  0  0  0  0
    6.8112    8.1974    4.0161 C   0  0  0  0  0  0  0  0  0  0  0  0
    5.9495    7.6466    4.3804 H   0  0  0  0  0  0  0  0  0  0  0  0
    7.6206    7.4881    3.7888 H   0  0  0  0  0  0  0  0  0  0  0  0
    7.1364    8.8638    4.8118 H   0  0  0  0  0  0  0  0  0  0  0  0
    5.9725    8.7710    0.8425 H   0  0  0  0  0  0  0  0  0  0  0  0
    6.8961    7.4124    1.5231 H   0  0  0  0  0  0  0  0  0  0  0  0
  1  2  1  0  0  0  0
  3  1  1  0  0  0  0
  4 15  1  0  0  0  0
  5  7  1  0  0  0  0
  6  5  1  0  0  0  0
  8  5  1  0  0  0  0
  8  4  1  0  0  0  0
  9  8  1  0  0  0  0
 10  8  1  0  0  0  0
 11  4  1  0  0  0  0
 11 12  1  0  0  0  0
 13 11  1  0  0  0  0
 14 11  1  0  0  0  0
 15 16  1  0  0  0  0
 15 18  1  0  0  0  0
 17 15  1  0  0  0  0
 19  5  1  0  0  0  0
 19 20  1  0  0  0  0
 20 25  1  0  0  0  0
 21 20  1  0  0  0  0
 21 22  1  0  0  0  0
 23 21  1  0  0  0  0
 24 21  1  0  0  0  0
 25 26  1  0  0  0  0
 25 28  1  0  0  0  0
 27 25  1  0  0  0  0
 29 19  1  0  0  0  0
 30 19  1  0  0  0  0
M  END
$$$$
