CSD_code = METLAZ | q = 0 | S = 0 | Stoichiometry = C4H12Br2MoO4S2 | MND = 6
 OpenBabel04212202073D

 25 24  0  0  0  0  0  0  0  0999 V2000
    2.1102    3.2964    0.5117 Mo  0  0  0  0  0  0  0  0  0  0  0  0
    2.8968    1.0725    1.4650 Br  0  0  0  0  0  0  0  0  0  0  0  0
    1.6160    4.9578   -1.2548 Br  0  0  0  0  0  0  0  0  0  0  0  0
    2.0485    0.9468   -1.5691 S   0  0  0  0  0  3  0  0  0  0  0  0
    4.9680    3.2569   -0.0876 S   0  0  0  0  0  3  0  0  0  0  0  0
    0.7346    3.4865    1.3588 O   0  0  0  0  0  1  0  0  0  0  0  0
    3.3591    4.1172    1.2280 O   0  0  0  0  0  1  0  0  0  0  0  0
    3.7243    2.8044   -0.8503 O   0  0  0  0  0  0  0  0  0  0  0  0
    1.2648    2.0056   -0.8282 O   0  0  0  0  0  0  0  0  0  0  0  0
    0.7900   -0.3541   -1.7422 C   0  0  0  0  0  0  0  0  0  0  0  0
    0.6806   -0.8152   -0.7651 H   0  0  0  0  0  0  0  0  0  0  0  0
    1.1287   -1.0906   -2.4606 H   0  0  0  0  0  0  0  0  0  0  0  0
   -0.1477    0.0952   -2.0492 H   0  0  0  0  0  0  0  0  0  0  0  0
    1.9701    1.5745   -3.2755 C   0  0  0  0  0  0  0  0  0  0  0  0
    0.9480    1.8518   -3.5101 H   0  0  0  0  0  0  0  0  0  0  0  0
    2.3409    0.8155   -3.9540 H   0  0  0  0  0  0  0  0  0  0  0  0
    2.6028    2.4576   -3.3147 H   0  0  0  0  0  0  0  0  0  0  0  0
    6.2305    2.5177   -1.2071 C   0  0  0  0  0  0  0  0  0  0  0  0
    6.1373    1.4407   -1.1196 H   0  0  0  0  0  0  0  0  0  0  0  0
    7.2140    2.8245   -0.8733 H   0  0  0  0  0  0  0  0  0  0  0  0
    6.0595    2.8236   -2.2317 H   0  0  0  0  0  0  0  0  0  0  0  0
    5.2296    4.9542   -0.6756 C   0  0  0  0  0  0  0  0  0  0  0  0
    4.9071    5.0152   -1.7101 H   0  0  0  0  0  0  0  0  0  0  0  0
    6.2814    5.1938   -0.5731 H   0  0  0  0  0  0  0  0  0  0  0  0
    4.6315    5.6166   -0.0561 H   0  0  0  0  0  0  0  0  0  0  0  0
  1  7  1  0  0  0  0
  1  6  1  0  0  0  0
  1  2  1  0  0  0  0
  3  1  1  0  0  0  0
  4  9  1  0  0  0  0
  8  5  1  0  0  0  0
  8  1  1  0  0  0  0
  9  1  1  0  0  0  0
 10  4  1  0  0  0  0
 10 11  1  0  0  0  0
 12 10  1  0  0  0  0
 13 10  1  0  0  0  0
 14  4  1  0  0  0  0
 15 14  1  0  0  0  0
 16 14  1  0  0  0  0
 17 14  1  0  0  0  0
 18 19  1  0  0  0  0
 18 20  1  0  0  0  0
 18  5  1  0  0  0  0
 21 18  1  0  0  0  0
 22 24  1  0  0  0  0
 22  5  1  0  0  0  0
 22 25  1  0  0  0  0
 23 22  1  0  0  0  0
M  END
$$$$
