CSD_code = METYEQ | q = 0 | S = 0 | Stoichiometry = C12H16Cl2FeN4 | MND = 6
 OpenBabel04212202073D

 35 38  0  0  0  0  0  0  0  0999 V2000
    3.0504   -0.0002   -0.0003 Fe  0  0  0  0  0  0  0  0  0  0  0  0
    4.6909    0.3720    1.4167 Cl  0  0  0  0  0  0  0  0  0  0  0  0
    3.5678   -1.8462   -0.0564 N   0  0  0  0  0  0  0  0  0  0  0  0
    1.9243   -0.7267    1.6337 N   0  0  0  0  0  4  0  0  0  0  0  0
    4.6680   -2.3380   -0.6287 C   0  0  0  0  0  3  0  0  0  0  0  0
    5.3296   -1.6149   -1.0783 H   0  0  0  0  0  0  0  0  0  0  0  0
    4.9894   -3.6802   -0.6373 C   0  0  0  0  0  0  0  0  0  0  0  0
    5.8931   -4.0139   -1.1221 H   0  0  0  0  0  0  0  0  0  0  0  0
    4.1374   -4.5794   -0.0137 C   0  0  0  0  0  0  0  0  0  0  0  0
    4.3497   -5.6368   -0.0046 H   0  0  0  0  0  0  0  0  0  0  0  0
    3.0105   -4.0736    0.6171 C   0  0  0  0  0  0  0  0  0  0  0  0
    2.3261   -4.7269    1.1363 H   0  0  0  0  0  0  0  0  0  0  0  0
    2.7619   -2.7137    0.5797 C   0  0  0  0  0  0  0  0  0  0  0  0
    1.5697   -2.0931    1.2489 C   0  0  0  0  0  0  0  0  0  0  0  0
    0.7634   -2.0255    0.5098 H   0  0  0  0  0  0  0  0  0  0  0  0
    1.2345   -2.7049    2.0976 H   0  0  0  0  0  0  0  0  0  0  0  0
    1.1029   -0.2420    1.9860 H   0  0  0  0  0  0  0  0  0  0  0  0
    2.6272   -0.7314    2.3772 H   0  0  0  0  0  0  0  0  0  0  0  0
    1.4107   -0.3706   -1.4185 Cl  0  0  0  0  0  0  0  0  0  0  0  0
    2.5341    1.8462    0.0570 N   0  0  0  0  0  0  0  0  0  0  0  0
    4.1773    0.7266   -1.6336 N   0  0  0  0  0  4  0  0  0  0  0  0
    1.4338    2.3380    0.6291 C   0  0  0  0  0  3  0  0  0  0  0  0
    0.7721    1.6149    1.0785 H   0  0  0  0  0  0  0  0  0  0  0  0
    1.1122    3.6802    0.6373 C   0  0  0  0  0  0  0  0  0  0  0  0
    0.2085    4.0139    1.1220 H   0  0  0  0  0  0  0  0  0  0  0  0
    1.9642    4.5793    0.0136 C   0  0  0  0  0  0  0  0  0  0  0  0
    1.7518    5.6367    0.0044 H   0  0  0  0  0  0  0  0  0  0  0  0
    3.0911    4.0735   -0.6171 C   0  0  0  0  0  0  0  0  0  0  0  0
    3.7755    4.7268   -1.1364 H   0  0  0  0  0  0  0  0  0  0  0  0
    3.3398    2.7136   -0.5794 C   0  0  0  0  0  0  0  0  0  0  0  0
    4.5319    2.0929   -1.2487 C   0  0  0  0  0  0  0  0  0  0  0  0
    5.3383    2.0253   -0.5096 H   0  0  0  0  0  0  0  0  0  0  0  0
    4.8671    2.7048   -2.0974 H   0  0  0  0  0  0  0  0  0  0  0  0
    4.9986    0.2419   -1.9859 H   0  0  0  0  0  0  0  0  0  0  0  0
    3.4744    0.7313   -2.3771 H   0  0  0  0  0  0  0  0  0  0  0  0
  1 20  1  0  0  0  0
  1  2  1  0  0  0  0
  1  4  1  0  0  0  0
  3  1  1  0  0  0  0
  3 13  1  0  0  0  0
  4 17  1  0  0  0  0
  4 18  1  0  0  0  0
  5  3  1  0  0  0  0
  6  5  1  0  0  0  0
  7  5  1  0  0  0  0
  7  9  2  0  0  0  0
  8  7  1  0  0  0  0
  9 10  1  0  0  0  0
  9 11  1  0  0  0  0
 11 12  1  0  0  0  0
 13 11  2  0  0  0  0
 13 14  1  0  0  0  0
 14  4  1  0  0  0  0
 14 16  1  0  0  0  0
 15 14  1  0  0  0  0
 19  1  1  0  0  0  0
 20 22  1  0  0  0  0
 21 31  1  0  0  0  0
 21  1  1  0  0  0  0
 22 24  1  0  0  0  0
 22 23  1  0  0  0  0
 24 25  1  0  0  0  0
 26 24  2  0  0  0  0
 27 26  1  0  0  0  0
 28 30  2  0  0  0  0
 28 26  1  0  0  0  0
 29 28  1  0  0  0  0
 30 20  1  0  0  0  0
 31 30  1  0  0  0  0
 31 32  1  0  0  0  0
 33 31  1  0  0  0  0
 34 21  1  0  0  0  0
 35 21  1  0  0  0  0
M  END
$$$$
