CSD_code = MEVDOG | q = 0 | S = 0 | Stoichiometry = C10H9Cl2N5OPd | MND = 4
 OpenBabel04212202073D

 28 30  0  0  1  0  0  0  0  0999 V2000
    4.0001    6.8584    0.2835 Pd  0  0  0  0  0  0  0  0  0  0  0  0
    3.8140    4.6916    0.6543 Cl  0  0  0  0  0  0  0  0  0  0  0  0
    5.1125    7.1465    2.1712 Cl  0  0  0  0  0  0  0  0  0  0  0  0
   -0.3255    8.2793   -0.9638 O   0  0  0  0  0  0  0  0  0  0  0  0
    1.8929    8.7066   -0.7832 N   0  0  0  0  0  0  0  0  0  0  0  0
    2.9684    6.7036   -1.4327 N   0  0  0  0  0  0  0  0  0  0  0  0
    1.5085    7.8269   -2.8969 N   0  0  0  0  0  0  0  0  0  0  0  0
    4.1094    8.8709   -0.0485 N   0  0  0  0  0  0  0  0  0  0  0  0
    2.7863   10.8020   -0.3021 N   0  0  0  0  0  0  0  0  0  0  0  0
    0.5365    8.9220   -0.4370 C   0  0  0  0  0  0  0  0  0  0  0  0
    0.3116    9.9092    0.6653 C   0  0  0  0  0  0  0  0  0  0  0  0
    0.4837   10.9168    0.2961 H   0  0  0  0  0  0  0  0  0  0  0  0
    0.9875    9.7235    1.4970 H   0  0  0  0  0  0  0  0  0  0  0  0
   -0.7186    9.8150    0.9987 H   0  0  0  0  0  0  0  0  0  0  0  0
    2.1403    7.7036   -1.7545 C   0  0  1  0  0  3  0  0  0  0  0  0
    3.1124    5.7175   -2.3233 C   0  0  0  0  0  0  0  0  0  0  0  0
    3.7635    4.9014   -2.0281 H   0  0  0  0  0  0  0  0  0  0  0  0
    2.4367    5.7434   -3.5315 C   0  0  0  0  0  0  0  0  0  0  0  0
    2.5338    4.9386   -4.2401 H   0  0  0  0  0  0  0  0  0  0  0  0
    1.6435    6.8546   -3.7858 C   0  0  0  0  0  0  0  0  0  0  0  0
    1.1009    6.9881   -4.7103 H   0  0  0  0  0  0  0  0  0  0  0  0
    2.9630    9.4967   -0.3539 C   0  0  1  0  0  3  0  0  0  0  0  0
    5.1556    9.6250    0.2988 C   0  0  0  0  0  0  0  0  0  0  0  0
    6.0671    9.0954    0.5497 H   0  0  0  0  0  0  0  0  0  0  0  0
    5.0533   11.0054    0.3598 C   0  0  0  0  0  0  0  0  0  0  0  0
    5.8940   11.6150    0.6421 H   0  0  0  0  0  0  0  0  0  0  0  0
    3.8136   11.5533    0.0641 C   0  0  0  0  0  0  0  0  0  0  0  0
    3.6203   12.6157    0.1080 H   0  0  0  0  0  0  0  0  0  0  0  0
  1  2  1  0  0  0  0
  1  3  1  0  0  0  0
  4 10  2  0  0  0  0
  5 10  1  0  0  0  0
  5 22  1  0  0  0  0
  6  1  1  0  0  0  0
  8  1  1  0  0  0  0
  8 23  1  0  0  0  0
  9 27  2  0  0  0  0
 10 11  1  0  0  0  0
 11 14  1  0  0  0  0
 11 13  1  0  0  0  0
 12 11  1  0  0  0  0
 15  7  1  1  0  0  0
 15  6  1  0  0  0  0
 15  5  1  0  0  0  0
 16 17  1  0  0  0  0
 16  6  1  0  0  0  0
 18 16  2  0  0  0  0
 19 18  1  0  0  0  0
 20 18  1  0  0  0  0
 20  7  2  0  0  0  0
 21 20  1  0  0  0  0
 22  9  1  6  0  0  0
 22  8  1  0  0  0  0
 23 25  2  0  0  0  0
 23 24  1  0  0  0  0
 25 26  1  0  0  0  0
 27 28  1  0  0  0  0
 27 25  1  0  0  0  0
M  END
$$$$
