CSD_code = MEVKEG | q = 0 | S = 0 | Stoichiometry = C18H10AuBrClF4P | MND = 2
 OpenBabel04212202073D

 36 38  0  0  0  0  0  0  0  0999 V2000
   -3.4710   -2.0482    7.9239 Au  0  0  0  0  0  0  0  0  0  0  0  0
   -4.3353    1.1077    6.4737 Br  0  0  0  0  0  0  0  0  0  0  0  0
   -4.1564   -3.9904    7.0025 Cl  0  0  0  0  0  0  0  0  0  0  0  0
   -2.7465   -0.1812    8.9405 P   0  0  0  0  0  4  0  0  0  0  0  0
   -2.5096    2.6362    4.6762 F   0  0  0  0  0  0  0  0  0  0  0  0
    0.1712    3.0772    4.8723 F   0  0  0  0  0  0  0  0  0  0  0  0
    1.5512    2.0453    6.9940 F   0  0  0  0  0  0  0  0  0  0  0  0
    0.2859    0.6290    8.8746 F   0  0  0  0  0  0  0  0  0  0  0  0
   -1.8106    0.8981    7.7987 C   0  0  0  0  0  0  0  0  0  0  0  0
   -2.4907    1.4108    6.6873 C   0  0  0  0  0  0  0  0  0  0  0  0
   -1.8321    2.1461    5.7108 C   0  0  0  0  0  0  0  0  0  0  0  0
   -0.4617    2.3724    5.8053 C   0  0  0  0  0  0  0  0  0  0  0  0
    0.2381    1.8470    6.8874 C   0  0  0  0  0  0  0  0  0  0  0  0
   -0.4350    1.1152    7.8621 C   0  0  0  0  0  0  0  0  0  0  0  0
   -1.6504   -0.5227   10.3403 C   0  0  0  0  0  0  0  0  0  0  0  0
   -1.4373    0.3976   11.3634 C   0  0  0  0  0  0  0  0  0  0  0  0
   -1.9176    1.3655   11.3346 H   0  0  0  0  0  0  0  0  0  0  0  0
   -0.6059    0.0645   12.4157 C   0  0  0  0  0  0  0  0  0  0  0  0
   -0.4352    0.7776   13.2083 H   0  0  0  0  0  0  0  0  0  0  0  0
    0.0067   -1.1783   12.4564 C   0  0  0  0  0  0  0  0  0  0  0  0
    0.6552   -1.4307   13.2816 H   0  0  0  0  0  0  0  0  0  0  0  0
   -0.2147   -2.0986   11.4452 C   0  0  0  0  0  0  0  0  0  0  0  0
    0.2568   -3.0688   11.4797 H   0  0  0  0  0  0  0  0  0  0  0  0
   -1.0459   -1.7756   10.3890 C   0  0  0  0  0  0  0  0  0  0  0  0
   -1.2353   -2.4890    9.5963 H   0  0  0  0  0  0  0  0  0  0  0  0
   -3.9705    0.9442    9.6613 C   0  0  0  0  0  0  0  0  0  0  0  0
   -5.1136    0.3501   10.1859 C   0  0  0  0  0  0  0  0  0  0  0  0
   -5.2369   -0.7226   10.1060 H   0  0  0  0  0  0  0  0  0  0  0  0
   -6.0815    1.1329   10.7874 C   0  0  0  0  0  0  0  0  0  0  0  0
   -6.9703    0.6733   11.1916 H   0  0  0  0  0  0  0  0  0  0  0  0
   -5.9116    2.5061   10.8603 C   0  0  0  0  0  0  0  0  0  0  0  0
   -6.6699    3.1188   11.3234 H   0  0  0  0  0  0  0  0  0  0  0  0
   -4.7741    3.0984   10.3350 C   0  0  0  0  0  0  0  0  0  0  0  0
   -4.6466    4.1692   10.3897 H   0  0  0  0  0  0  0  0  0  0  0  0
   -3.7984    2.3235    9.7353 C   0  0  0  0  0  0  0  0  0  0  0  0
   -2.9128    2.7873    9.3201 H   0  0  0  0  0  0  0  0  0  0  0  0
  1  4  1  0  0  0  0
  2 10  1  0  0  0  0
  3  1  1  0  0  0  0
  4 26  1  0  0  0  0
  4 15  1  0  0  0  0
  5 11  1  0  0  0  0
  6 12  1  0  0  0  0
  9 14  1  0  0  0  0
  9  4  1  0  0  0  0
 10  9  2  0  0  0  0
 11 12  2  0  0  0  0
 11 10  1  0  0  0  0
 12 13  1  0  0  0  0
 13  7  1  0  0  0  0
 13 14  2  0  0  0  0
 14  8  1  0  0  0  0
 15 24  2  0  0  0  0
 15 16  1  0  0  0  0
 16 18  2  0  0  0  0
 17 16  1  0  0  0  0
 18 20  1  0  0  0  0
 18 19  1  0  0  0  0
 20 21  1  0  0  0  0
 22 23  1  0  0  0  0
 22 20  2  0  0  0  0
 24 22  1  0  0  0  0
 25 24  1  0  0  0  0
 26 35  2  0  0  0  0
 26 27  1  0  0  0  0
 27 29  2  0  0  0  0
 28 27  1  0  0  0  0
 29 31  1  0  0  0  0
 29 30  1  0  0  0  0
 31 32  1  0  0  0  0
 33 34  1  0  0  0  0
 33 31  2  0  0  0  0
 35 33  1  0  0  0  0
 36 35  1  0  0  0  0
M  END
$$$$
