CSD_code = MEVSEO | q = 0 | S = 0 | Stoichiometry = C22H24ClN2Rh | MND = 8
 OpenBabel04212202073D

 50 53  0  0  1  0  0  0  0  0999 V2000
    5.4392    4.4311    4.4651 Rh  0  0  2  0  0  0  0  0  0  0  0  0
    3.8563    5.1829    5.9560 Cl  0  0  0  0  0 15  0  0  0  0  0  0
    6.8053    4.2791    5.8300 N   0  0  0  0  0  0  0  0  0  0  0  0
    7.5986    5.2349    6.1029 N   0  0  0  0  0  2  0  0  0  0  0  0
    7.3141    6.3584    5.3920 C   0  0  0  0  0  0  0  0  0  0  0  0
    6.2250    6.2628    4.4919 C   0  0  0  0  0  0  0  0  0  0  0  0
    5.8264    7.4071    3.8184 C   0  0  0  0  0  0  0  0  0  0  0  0
    4.9615    7.3880    3.1689 H   0  0  0  0  0  0  0  0  0  0  0  0
    6.5311    8.5887    3.9824 C   0  0  0  0  0  0  0  0  0  0  0  0
    6.2216    9.4708    3.4400 H   0  0  0  0  0  0  0  0  0  0  0  0
    7.6247    8.6616    4.8420 C   0  0  0  0  0  0  0  0  0  0  0  0
    8.1519    9.5971    4.9562 H   0  0  0  0  0  0  0  0  0  0  0  0
    8.0167    7.5562    5.5608 C   0  0  0  0  0  0  0  0  0  0  0  0
    8.8355    7.5913    6.2622 H   0  0  0  0  0  0  0  0  0  0  0  0
    6.9986    3.0817    6.5268 C   0  0  0  0  0  0  0  0  0  0  0  0
    5.8929    2.3214    6.9100 C   0  0  0  0  0  0  0  0  0  0  0  0
    4.8967    2.6914    6.7010 H   0  0  0  0  0  0  0  0  0  0  0  0
    6.0835    1.1339    7.5893 C   0  0  0  0  0  0  0  0  0  0  0  0
    5.2284    0.5502    7.8967 H   0  0  0  0  0  0  0  0  0  0  0  0
    7.3646    0.6915    7.8816 C   0  0  0  0  0  0  0  0  0  0  0  0
    7.5077   -0.2425    8.4039 H   0  0  0  0  0  0  0  0  0  0  0  0
    8.4623    1.4529    7.5111 C   0  0  0  0  0  0  0  0  0  0  0  0
    9.4600    1.1128    7.7458 H   0  0  0  0  0  0  0  0  0  0  0  0
    8.2868    2.6493    6.8437 C   0  0  0  0  0  0  0  0  0  0  0  0
    9.1278    3.2587    6.5492 H   0  0  0  0  0  0  0  0  0  0  0  0
    5.3973    2.2660    3.5219 C   0  0  0  0  0  0  0  0  0  0  0  0
    4.0786    2.7220    3.6261 C   0  0  0  0  0  0  0  0  0  0  0  0
    3.9605    3.9614    2.8704 C   0  0  2  0  0  0  0  0  0  0  0  0
    5.2071    4.2206    2.2538 C   0  0  1  0  0  3  0  0  0  0  0  0
    6.1419    3.2495    2.7620 C   0  0  1  0  0  0  0  0  0  0  0  0
    5.9481    0.9445    3.9596 C   0  0  0  0  0  0  0  0  0  0  0  0
    6.9564    1.0419    4.3587 H   0  0  0  0  0  0  0  0  0  0  0  0
    5.9901    0.2716    3.1005 H   0  0  0  0  0  0  0  0  0  0  0  0
    5.3243    0.4863    4.7225 H   0  0  0  0  0  0  0  0  0  0  0  0
    2.9115    2.0339    4.2583 C   0  0  0  0  0  0  0  0  0  0  0  0
    3.2268    1.1625    4.8272 H   0  0  0  0  0  0  0  0  0  0  0  0
    2.2125    1.7103    3.4853 H   0  0  0  0  0  0  0  0  0  0  0  0
    2.3832    2.7145    4.9252 H   0  0  0  0  0  0  0  0  0  0  0  0
    2.6475    4.6227    2.5834 C   0  0  0  0  0  0  0  0  0  0  0  0
    2.0984    4.7991    3.5068 H   0  0  0  0  0  0  0  0  0  0  0  0
    2.0418    3.9785    1.9430 H   0  0  0  0  0  0  0  0  0  0  0  0
    2.7870    5.5768    2.0810 H   0  0  0  0  0  0  0  0  0  0  0  0
    5.5049    5.2039    1.1636 C   0  0  0  0  0  0  0  0  0  0  0  0
    4.7231    5.9544    1.0839 H   0  0  0  0  0  0  0  0  0  0  0  0
    5.5634    4.6709    0.2125 H   0  0  0  0  0  0  0  0  0  0  0  0
    6.4545    5.7105    1.3269 H   0  0  0  0  0  0  0  0  0  0  0  0
    7.5335    3.0459    2.2449 C   0  0  0  0  0  0  0  0  0  0  0  0
    8.0008    3.9955    1.9928 H   0  0  0  0  0  0  0  0  0  0  0  0
    7.5027    2.4305    1.3431 H   0  0  0  0  0  0  0  0  0  0  0  0
    8.1558    2.5378    2.9792 H   0  0  0  0  0  0  0  0  0  0  0  0
  1  6  1  6  0  0  0
  1  3  1  0  0  0  0
  3  4  1  0  0  0  0
  3 15  1  0  0  0  0
  5 13  1  0  0  0  0
  5  4  1  0  0  0  0
  6  5  2  0  0  0  0
  7  9  2  0  0  0  0
  7  6  1  0  0  0  0
  8  7  1  0  0  0  0
  9 11  1  0  0  0  0
 10  9  1  0  0  0  0
 11 12  1  0  0  0  0
 11 13  2  0  0  0  0
 13 14  1  0  0  0  0
 15 24  2  0  0  0  0
 15 16  1  0  0  0  0
 16 18  2  0  0  0  0
 17 16  1  0  0  0  0
 18 20  1  0  0  0  0
 18 19  1  0  0  0  0
 20 21  1  0  0  0  0
 22 23  1  0  0  0  0
 22 20  2  0  0  0  0
 24 22  1  0  0  0  0
 25 24  1  0  0  0  0
 26 27  2  0  0  0  0
 26 31  1  0  0  0  0
 27 35  1  0  0  0  0
 28 39  1  6  0  0  0
 28 27  1  0  0  0  0
 28  1  1  0  0  0  0
 29 43  1  6  0  0  0
 29 30  1  0  0  0  0
 29 28  1  0  0  0  0
 30 47  1  6  0  0  0
 30 26  1  0  0  0  0
 30  1  1  0  0  0  0
 31 32  1  0  0  0  0
 31 34  1  0  0  0  0
 33 31  1  0  0  0  0
 35 36  1  0  0  0  0
 35 38  1  0  0  0  0
 37 35  1  0  0  0  0
 39 40  1  0  0  0  0
 41 39  1  0  0  0  0
 42 39  1  0  0  0  0
 43 46  1  0  0  0  0
 44 43  1  0  0  0  0
 45 43  1  0  0  0  0
 47 50  1  0  0  0  0
 48 47  1  0  0  0  0
 49 47  1  0  0  0  0
M  END
$$$$
