CSD_code = MEXREM | q = 0 | S = 0 | Stoichiometry = C24H32Cl2N6O4Zn | MND = 6
 OpenBabel04212202073D

 69 74  0  0  1  0  0  0  0  0999 V2000
    0.0000   11.0192    6.2741 Zn  0  0  0  0  0  0  0  0  0  0  0  0
    1.6392   12.3819    5.3429 Cl  0  0  0  0  0  0  0  0  0  0  0  0
    1.2018    9.3500    5.5229 O   0  0  0  0  0  0  0  0  0  0  0  0
    5.2882   10.2681    7.4324 O   0  0  0  0  0  1  0  0  0  0  0  0
    2.4389    9.5733    5.6825 N   0  0  1  0  0  0  0  0  0  0  0  0
    4.3886   10.0259    6.5921 N   0  0  0  0  0  0  0  0  0  0  0  0
    1.1738   10.7061    8.0662 N   0  0  0  0  0  0  0  0  0  0  0  0
    3.0659    9.9431    6.8009 C   0  0  1  0  0  3  0  0  0  0  0  0
    3.4027    9.2591    4.6127 C   0  0  0  0  0  0  0  0  0  0  0  0
    4.6930    9.9131    5.1514 C   0  0  0  0  0  0  0  0  0  0  0  0
    2.8965    9.8155    3.2889 C   0  0  0  0  0  0  0  0  0  0  0  0
    2.6877   10.8764    3.3826 H   0  0  0  0  0  0  0  0  0  0  0  0
    1.9749    9.3055    3.0197 H   0  0  0  0  0  0  0  0  0  0  0  0
    3.6345    9.6522    2.5087 H   0  0  0  0  0  0  0  0  0  0  0  0
    3.4621    7.7280    4.5410 C   0  0  0  0  0  0  0  0  0  0  0  0
    2.4583    7.3542    4.3502 H   0  0  0  0  0  0  0  0  0  0  0  0
    3.8096    7.3006    5.4791 H   0  0  0  0  0  0  0  0  0  0  0  0
    4.1151    7.4066    3.7350 H   0  0  0  0  0  0  0  0  0  0  0  0
    4.9013   11.3527    4.6689 C   0  0  0  0  0  0  0  0  0  0  0  0
    5.7083   11.7971    5.2474 H   0  0  0  0  0  0  0  0  0  0  0  0
    4.0006   11.9457    4.8226 H   0  0  0  0  0  0  0  0  0  0  0  0
    5.1734   11.3703    3.6183 H   0  0  0  0  0  0  0  0  0  0  0  0
    5.9771    9.1158    4.9620 C   0  0  0  0  0  0  0  0  0  0  0  0
    5.9074    8.1205    5.3904 H   0  0  0  0  0  0  0  0  0  0  0  0
    6.7869    9.6395    5.4640 H   0  0  0  0  0  0  0  0  0  0  0  0
    6.2119    9.0355    3.9048 H   0  0  0  0  0  0  0  0  0  0  0  0
    2.4277   10.2443    8.0768 C   0  0  1  0  0  3  0  0  0  0  0  0
    3.1411   10.0806    9.2663 C   0  0  0  0  0  0  0  0  0  0  0  0
    4.1562    9.7205    9.2385 H   0  0  0  0  0  0  0  0  0  0  0  0
    2.5348   10.4135   10.4637 C   0  0  0  0  0  0  0  0  0  0  0  0
    3.0696   10.2968   11.3945 H   0  0  0  0  0  0  0  0  0  0  0  0
    1.2406   10.9053   10.4400 C   0  0  0  0  0  0  0  0  0  0  0  0
    0.7297   11.1916   11.3453 H   0  0  0  0  0  0  0  0  0  0  0  0
    0.6059   11.0339    9.2151 C   0  0  0  0  0  0  0  0  0  0  0  0
   -0.3937   11.4358    9.1417 H   0  0  0  0  0  0  0  0  0  0  0  0
   -1.6386   12.3817    7.2065 Cl  0  0  0  0  0  0  0  0  0  0  0  0
   -1.2017    9.3501    7.0256 O   0  0  0  0  0  0  0  0  0  0  0  0
   -2.4389    9.5734    6.8660 N   0  0  1  0  0  0  0  0  0  0  0  0
   -3.0659    9.9431    5.7476 C   0  0  1  0  0  3  0  0  0  0  0  0
   -4.3886   10.0259    5.9564 N   0  0  0  0  0  0  0  0  0  0  0  0
   -5.2882   10.2681    5.1161 O   0  0  0  0  0  1  0  0  0  0  0  0
   -4.6930    9.9131    7.3971 C   0  0  0  0  0  0  0  0  0  0  0  0
   -3.4027    9.2591    7.9358 C   0  0  0  0  0  0  0  0  0  0  0  0
   -2.8965    9.8155    9.2596 C   0  0  0  0  0  0  0  0  0  0  0  0
   -2.6877   10.8764    9.1658 H   0  0  0  0  0  0  0  0  0  0  0  0
   -1.9749    9.3055    9.5288 H   0  0  0  0  0  0  0  0  0  0  0  0
   -3.6345    9.6523   10.0398 H   0  0  0  0  0  0  0  0  0  0  0  0
   -3.4621    7.7280    8.0076 C   0  0  0  0  0  0  0  0  0  0  0  0
   -2.4583    7.3542    8.1983 H   0  0  0  0  0  0  0  0  0  0  0  0
   -3.8096    7.3006    7.0694 H   0  0  0  0  0  0  0  0  0  0  0  0
   -4.1151    7.4066    8.8135 H   0  0  0  0  0  0  0  0  0  0  0  0
   -4.9013   11.3527    7.8796 C   0  0  0  0  0  0  0  0  0  0  0  0
   -5.7083   11.7971    7.3011 H   0  0  0  0  0  0  0  0  0  0  0  0
   -4.0006   11.9457    7.7259 H   0  0  0  0  0  0  0  0  0  0  0  0
   -5.1734   11.3702    8.9302 H   0  0  0  0  0  0  0  0  0  0  0  0
   -5.9771    9.1158    7.5865 C   0  0  0  0  0  0  0  0  0  0  0  0
   -5.9074    8.1205    7.1581 H   0  0  0  0  0  0  0  0  0  0  0  0
   -6.7869    9.6395    7.0846 H   0  0  0  0  0  0  0  0  0  0  0  0
   -6.2119    9.0355    8.6438 H   0  0  0  0  0  0  0  0  0  0  0  0
   -2.4277   10.2442    4.4716 C   0  0  2  0  0  3  0  0  0  0  0  0
   -1.1738   10.7060    4.4822 N   0  0  0  0  0  0  0  0  0  0  0  0
   -0.6059   11.0337    3.3332 C   0  0  0  0  0  0  0  0  0  0  0  0
   -1.2407   10.9052    2.1084 C   0  0  0  0  0  0  0  0  0  0  0  0
   -2.5348   10.4134    2.0847 C   0  0  0  0  0  0  0  0  0  0  0  0
   -3.1412   10.0806    3.2822 C   0  0  0  0  0  0  0  0  0  0  0  0
   -4.1563    9.7205    3.3100 H   0  0  0  0  0  0  0  0  0  0  0  0
   -3.0696   10.2968    1.1539 H   0  0  0  0  0  0  0  0  0  0  0  0
   -0.7298   11.1916    1.2031 H   0  0  0  0  0  0  0  0  0  0  0  0
    0.3936   11.4357    3.4066 H   0  0  0  0  0  0  0  0  0  0  0  0
  1 37  1  0  0  0  0
  1 36  1  0  0  0  0
  1  7  1  0  0  0  0
  2  1  1  0  0  0  0
  3  1  1  0  0  0  0
  5  3  1  1  0  0  0
  5  8  1  0  0  0  0
  6  4  1  0  0  0  0
  7 27  1  0  0  0  0
  7 34  1  0  0  0  0
  8  6  1  6  0  0  0
  8 27  1  0  0  0  0
  9 10  1  0  0  0  0
  9  5  1  0  0  0  0
 10  6  1  0  0  0  0
 11 12  1  0  0  0  0
 11  9  1  0  0  0  0
 13 11  1  0  0  0  0
 14 11  1  0  0  0  0
 15  9  1  0  0  0  0
 15 17  1  0  0  0  0
 16 15  1  0  0  0  0
 18 15  1  0  0  0  0
 19 21  1  0  0  0  0
 19 10  1  0  0  0  0
 19 20  1  0  0  0  0
 22 19  1  0  0  0  0
 23 10  1  0  0  0  0
 23 24  1  0  0  0  0
 23 25  1  0  0  0  0
 26 23  1  0  0  0  0
 27 28  1  6  0  0  0
 28 30  2  0  0  0  0
 29 28  1  0  0  0  0
 30 31  1  0  0  0  0
 32 30  1  0  0  0  0
 32 33  1  0  0  0  0
 34 32  2  0  0  0  0
 35 34  1  0  0  0  0
 38 37  1  6  0  0  0
 38 43  1  0  0  0  0
 39 40  1  1  0  0  0
 39 38  1  0  0  0  0
 40 42  1  0  0  0  0
 41 40  1  0  0  0  0
 42 56  1  0  0  0  0
 42 52  1  0  0  0  0
 42 43  1  0  0  0  0
 43 48  1  0  0  0  0
 43 44  1  0  0  0  0
 44 46  1  0  0  0  0
 44 47  1  0  0  0  0
 45 44  1  0  0  0  0
 48 49  1  0  0  0  0
 48 51  1  0  0  0  0
 50 48  1  0  0  0  0
 52 55  1  0  0  0  0
 53 52  1  0  0  0  0
 54 52  1  0  0  0  0
 56 59  1  0  0  0  0
 57 56  1  0  0  0  0
 58 56  1  0  0  0  0
 60 65  1  1  0  0  0
 60 61  1  0  0  0  0
 60 39  1  0  0  0  0
 61  1  1  0  0  0  0
 62 69  1  0  0  0  0
 62 61  1  0  0  0  0
 63 62  2  0  0  0  0
 64 63  1  0  0  0  0
 64 65  2  0  0  0  0
 65 66  1  0  0  0  0
 67 64  1  0  0  0  0
 68 63  1  0  0  0  0
M  END
$$$$
