CSD_code = MEXXAO | q = 0 | S = 0 | Stoichiometry = C14H22Cl2N4Zr | MND = 6
 OpenBabel04212202073D

 43 46  0  0  0  0  0  0  0  0999 V2000
   11.0859    6.6192    9.4601 Zr  0  0  0  0  0  0  0  0  0  0  0  0
   10.8283    4.2534    9.4096 Cl  0  0  0  0  0  0  0  0  0  0  0  0
   12.5145    6.7849    7.5636 Cl  0  0  0  0  0  0  0  0  0  0  0  0
   10.3155    6.6845   11.3892 N   0  0  0  0  0  0  0  0  0  0  0  0
   13.0183    6.2368   10.5571 N   0  0  0  0  0  4  0  0  0  0  0  0
   10.7326    8.6665    9.4002 N   0  0  0  0  0  0  0  0  0  0  0  0
    9.3790    6.5742    7.9876 N   0  0  0  0  0  4  0  0  0  0  0  0
    9.3717    7.4174   12.0448 C   0  0  0  0  0  0  0  0  0  0  0  0
    8.4582    7.7191   11.5571 H   0  0  0  0  0  0  0  0  0  0  0  0
    9.7593    7.6703   13.3380 C   0  0  0  0  0  0  0  0  0  0  0  0
    9.2060    8.2109   14.0810 H   0  0  0  0  0  0  0  0  0  0  0  0
   11.0278    7.0804   13.4992 C   0  0  0  0  0  0  0  0  0  0  0  0
   11.6306    7.0785   14.3880 H   0  0  0  0  0  0  0  0  0  0  0  0
   11.3363    6.4937   12.2926 C   0  0  0  0  0  0  0  0  0  0  0  0
   12.5385    5.7112   11.8569 C   0  0  0  0  0  0  0  0  0  0  0  0
   12.2630    4.6561   11.7103 H   0  0  0  0  0  0  0  0  0  0  0  0
   13.3328    5.7629   12.6181 H   0  0  0  0  0  0  0  0  0  0  0  0
   13.9713    5.2987    9.9545 C   0  0  0  0  0  0  0  0  0  0  0  0
   13.4650    4.3584    9.7208 H   0  0  0  0  0  0  0  0  0  0  0  0
   14.8059    5.0979   10.6405 H   0  0  0  0  0  0  0  0  0  0  0  0
   14.3677    5.7167    9.0268 H   0  0  0  0  0  0  0  0  0  0  0  0
   13.6647    7.5407   10.7501 C   0  0  0  0  0  0  0  0  0  0  0  0
   13.0160    8.1821   11.3551 H   0  0  0  0  0  0  0  0  0  0  0  0
   13.8431    8.0153    9.7776 H   0  0  0  0  0  0  0  0  0  0  0  0
   14.6259    7.4252   11.2731 H   0  0  0  0  0  0  0  0  0  0  0  0
   10.7428    9.6911   10.2990 C   0  0  0  0  0  0  0  0  0  0  0  0
   11.4755    9.7357   11.0893 H   0  0  0  0  0  0  0  0  0  0  0  0
    9.7401   10.5899   10.0284 C   0  0  0  0  0  0  0  0  0  0  0  0
    9.5255   11.4942   10.5638 H   0  0  0  0  0  0  0  0  0  0  0  0
    9.0469   10.0922    8.9084 C   0  0  0  0  0  0  0  0  0  0  0  0
    8.2032   10.5419    8.4192 H   0  0  0  0  0  0  0  0  0  0  0  0
    9.6752    8.9189    8.5561 C   0  0  0  0  0  0  0  0  0  0  0  0
    9.4031    7.9521    7.4432 C   0  0  0  0  0  0  0  0  0  0  0  0
   10.2121    8.0040    6.6992 H   0  0  0  0  0  0  0  0  0  0  0  0
    8.4519    8.1928    6.9428 H   0  0  0  0  0  0  0  0  0  0  0  0
    8.1511    6.3619    8.7637 C   0  0  0  0  0  0  0  0  0  0  0  0
    8.0157    7.1918    9.4645 H   0  0  0  0  0  0  0  0  0  0  0  0
    8.2217    5.4205    9.3220 H   0  0  0  0  0  0  0  0  0  0  0  0
    7.2739    6.3191    8.1008 H   0  0  0  0  0  0  0  0  0  0  0  0
    9.4458    5.5987    6.8943 C   0  0  0  0  0  0  0  0  0  0  0  0
   10.4037    5.6916    6.3756 H   0  0  0  0  0  0  0  0  0  0  0  0
    8.6299    5.7625    6.1766 H   0  0  0  0  0  0  0  0  0  0  0  0
    9.3675    4.5858    7.2948 H   0  0  0  0  0  0  0  0  0  0  0  0
  1  5  1  0  0  0  0
  1  4  1  0  0  0  0
  2  1  1  0  0  0  0
  3  1  1  0  0  0  0
  4  8  1  0  0  0  0
  4 14  1  0  0  0  0
  5 22  1  0  0  0  0
  5 15  1  0  0  0  0
  6  1  1  0  0  0  0
  6 26  1  0  0  0  0
  7 36  1  0  0  0  0
  7  1  1  0  0  0  0
  8 10  2  0  0  0  0
  9  8  1  0  0  0  0
 10 12  1  0  0  0  0
 10 11  1  0  0  0  0
 12 13  1  0  0  0  0
 14 12  2  0  0  0  0
 15 14  1  0  0  0  0
 15 17  1  0  0  0  0
 16 15  1  0  0  0  0
 18  5  1  0  0  0  0
 18 20  1  0  0  0  0
 19 18  1  0  0  0  0
 21 18  1  0  0  0  0
 22 25  1  0  0  0  0
 22 23  1  0  0  0  0
 24 22  1  0  0  0  0
 26 27  1  0  0  0  0
 28 26  2  0  0  0  0
 28 29  1  0  0  0  0
 30 28  1  0  0  0  0
 31 30  1  0  0  0  0
 32 30  2  0  0  0  0
 32  6  1  0  0  0  0
 33  7  1  0  0  0  0
 33 32  1  0  0  0  0
 34 33  1  0  0  0  0
 35 33  1  0  0  0  0
 36 38  1  0  0  0  0
 36 37  1  0  0  0  0
 39 36  1  0  0  0  0
 40 43  1  0  0  0  0
 40  7  1  0  0  0  0
 41 40  1  0  0  0  0
 42 40  1  0  0  0  0
M  END
$$$$
