CSD_code = MEXXES | q = 0 | S = 0 | Stoichiometry = C21H33ClN6Zr | MND = 7
 OpenBabel04212202073D

 62 66  0  0  0  0  0  0  0  0999 V2000
    5.4335    1.4937    9.2650 Zr  0  0  0  0  0  0  0  0  0  0  0  0
    5.0625    3.7212    8.3929 Cl  0  0  0  0  0  0  0  0  0  0  0  0
    4.5207    0.1161   10.5587 N   0  0  0  0  0  0  0  0  0  0  0  0
    2.9909    1.5853    8.7969 N   0  0  0  0  0  4  0  0  0  0  0  0
    5.4279    0.0888    7.7266 N   0  0  0  0  0  0  0  0  0  0  0  0
    7.4054    1.9710    7.4168 N   0  0  0  0  0  0  0  0  0  0  0  0
    7.2463    1.1632   10.2042 N   0  0  0  0  0  0  0  0  0  0  0  0
    5.5310    3.1079   11.3852 N   0  0  0  0  0  4  0  0  0  0  0  0
    4.9622   -0.6011   11.6335 C   0  0  0  0  0  0  0  0  0  0  0  0
    5.9837   -0.5311   11.9705 H   0  0  0  0  0  0  0  0  0  0  0  0
    3.9548   -1.3875   12.1376 C   0  0  0  0  0  0  0  0  0  0  0  0
    4.0152   -2.0503   12.9794 H   0  0  0  0  0  0  0  0  0  0  0  0
    2.8261   -1.1632   11.3252 C   0  0  0  0  0  0  0  0  0  0  0  0
    1.8597   -1.6212   11.4219 H   0  0  0  0  0  0  0  0  0  0  0  0
    3.2122   -0.2490   10.3706 C   0  0  0  0  0  0  0  0  0  0  0  0
    2.4874    0.2496    9.1573 C   0  0  0  0  0  0  0  0  0  0  0  0
    1.3985    0.2702    9.3333 H   0  0  0  0  0  0  0  0  0  0  0  0
    2.6739   -0.4280    8.3123 H   0  0  0  0  0  0  0  0  0  0  0  0
    2.3739    2.5586    9.7023 C   0  0  0  0  0  0  0  0  0  0  0  0
    2.6155    2.2867   10.7340 H   0  0  0  0  0  0  0  0  0  0  0  0
    1.2785    2.5598    9.5893 H   0  0  0  0  0  0  0  0  0  0  0  0
    2.7441    3.5610    9.4843 H   0  0  0  0  0  0  0  0  0  0  0  0
    2.6177    1.8969    7.4144 C   0  0  0  0  0  0  0  0  0  0  0  0
    3.1155    1.2026    6.7330 H   0  0  0  0  0  0  0  0  0  0  0  0
    2.9258    2.9141    7.1690 H   0  0  0  0  0  0  0  0  0  0  0  0
    1.5304    1.8183    7.2699 H   0  0  0  0  0  0  0  0  0  0  0  0
    4.9783   -1.1985    7.6487 C   0  0  0  0  0  0  0  0  0  0  0  0
    4.6627   -1.7298    8.5336 H   0  0  0  0  0  0  0  0  0  0  0  0
    5.0475   -1.6501    6.3521 C   0  0  0  0  0  0  0  0  0  0  0  0
    4.7602   -2.6191    5.9910 H   0  0  0  0  0  0  0  0  0  0  0  0
    5.5874   -0.5964    5.5865 C   0  0  0  0  0  0  0  0  0  0  0  0
    5.7891   -0.6053    4.5317 H   0  0  0  0  0  0  0  0  0  0  0  0
    5.8064    0.4475    6.4579 C   0  0  0  0  0  0  0  0  0  0  0  0
    6.5061    1.7602    6.2649 C   0  0  0  0  0  0  0  0  0  0  0  0
    7.0724    1.7435    5.3172 H   0  0  0  0  0  0  0  0  0  0  0  0
    5.7964    2.5971    6.2159 H   0  0  0  0  0  0  0  0  0  0  0  0
    8.4644    0.9601    7.3676 C   0  0  0  0  0  0  0  0  0  0  0  0
    8.0292   -0.0387    7.3998 H   0  0  0  0  0  0  0  0  0  0  0  0
    9.1323    1.0845    8.2192 H   0  0  0  0  0  0  0  0  0  0  0  0
    9.0523    1.0552    6.4415 H   0  0  0  0  0  0  0  0  0  0  0  0
    8.0445    3.2832    7.3395 C   0  0  0  0  0  0  0  0  0  0  0  0
    7.2949    4.0724    7.3217 H   0  0  0  0  0  0  0  0  0  0  0  0
    8.6653    3.3749    6.4355 H   0  0  0  0  0  0  0  0  0  0  0  0
    8.6839    3.4189    8.2134 H   0  0  0  0  0  0  0  0  0  0  0  0
    8.0613    0.0822   10.3529 C   0  0  0  0  0  0  0  0  0  0  0  0
    7.8570   -0.8357    9.8222 H   0  0  0  0  0  0  0  0  0  0  0  0
    9.0800    0.3720   11.2310 C   0  0  0  0  0  0  0  0  0  0  0  0
    9.8757   -0.2807   11.5355 H   0  0  0  0  0  0  0  0  0  0  0  0
    8.8717    1.6968   11.6659 C   0  0  0  0  0  0  0  0  0  0  0  0
    9.4769    2.2475   12.3618 H   0  0  0  0  0  0  0  0  0  0  0  0
    7.7416    2.1468   11.0165 C   0  0  0  0  0  0  0  0  0  0  0  0
    6.9631    3.4195   11.1518 C   0  0  0  0  0  0  0  0  0  0  0  0
    7.0269    4.0265   10.2362 H   0  0  0  0  0  0  0  0  0  0  0  0
    7.3698    4.0148   11.9871 H   0  0  0  0  0  0  0  0  0  0  0  0
    5.4021    2.4132   12.6707 C   0  0  0  0  0  0  0  0  0  0  0  0
    6.0837    1.5655   12.7071 H   0  0  0  0  0  0  0  0  0  0  0  0
    4.3813    2.0496   12.7995 H   0  0  0  0  0  0  0  0  0  0  0  0
    5.6455    3.0858   13.5068 H   0  0  0  0  0  0  0  0  0  0  0  0
    4.7942    4.3697   11.4975 C   0  0  0  0  0  0  0  0  0  0  0  0
    4.8264    4.9142   10.5554 H   0  0  0  0  0  0  0  0  0  0  0  0
    5.2253    5.0075   12.2835 H   0  0  0  0  0  0  0  0  0  0  0  0
    3.7550    4.1698   11.7577 H   0  0  0  0  0  0  0  0  0  0  0  0
  1  7  1  0  0  0  0
  1  3  1  0  0  0  0
  1  8  1  0  0  0  0
  2  1  1  0  0  0  0
  3  9  1  0  0  0  0
  4 16  1  0  0  0  0
  4  1  1  0  0  0  0
  4 19  1  0  0  0  0
  5  1  1  0  0  0  0
  7 45  1  0  0  0  0
  7 51  1  0  0  0  0
  8 59  1  0  0  0  0
  8 55  1  0  0  0  0
  9 10  1  0  0  0  0
  9 11  2  0  0  0  0
 11 12  1  0  0  0  0
 13 14  1  0  0  0  0
 13 11  1  0  0  0  0
 15  3  1  0  0  0  0
 15 13  2  0  0  0  0
 16 17  1  0  0  0  0
 16 15  1  0  0  0  0
 18 16  1  0  0  0  0
 19 20  1  0  0  0  0
 21 19  1  0  0  0  0
 22 19  1  0  0  0  0
 23  4  1  0  0  0  0
 24 23  1  0  0  0  0
 25 23  1  0  0  0  0
 26 23  1  0  0  0  0
 27  5  1  0  0  0  0
 27 28  1  0  0  0  0
 29 27  2  0  0  0  0
 30 29  1  0  0  0  0
 31 29  1  0  0  0  0
 31 33  2  0  0  0  0
 32 31  1  0  0  0  0
 33  5  1  0  0  0  0
 34 33  1  0  0  0  0
 34  6  1  0  0  0  0
 35 34  1  0  0  0  0
 36 34  1  0  0  0  0
 37 38  1  0  0  0  0
 37  6  1  0  0  0  0
 37 39  1  0  0  0  0
 40 37  1  0  0  0  0
 41  6  1  0  0  0  0
 41 44  1  0  0  0  0
 42 41  1  0  0  0  0
 43 41  1  0  0  0  0
 45 47  2  0  0  0  0
 46 45  1  0  0  0  0
 47 48  1  0  0  0  0
 47 49  1  0  0  0  0
 49 50  1  0  0  0  0
 51 52  1  0  0  0  0
 51 49  2  0  0  0  0
 52  8  1  0  0  0  0
 52 54  1  0  0  0  0
 53 52  1  0  0  0  0
 55 56  1  0  0  0  0
 55 57  1  0  0  0  0
 55 58  1  0  0  0  0
 59 62  1  0  0  0  0
 59 61  1  0  0  0  0
 60 59  1  0  0  0  0
M  END
$$$$
