CSD_code = MEZBOL | q = 0 | S = 0 | Stoichiometry = C14H24Cl2N6O2P2Ru | MND = 6
 OpenBabel04212202073D

 51 56  0  0  1  0  0  0  0  0999 V2000
    3.4327   11.7367    4.2974 Ru  0  0  0  0  0  0  0  0  0  0  0  0
    4.9404   13.3799    3.4598 Cl  0  0  0  0  0  0  0  0  0  0  0  0
    2.2130   10.4960    4.9313 C   0  0  0  0  0  2  0  0  0  0  0  0
    1.4293    9.7697    5.3358 O   0  0  0  0  0  1  0  0  0  0  0  0
    4.4431   12.2915    6.3155 P   0  0  2  0  0  4  0  0  0  0  0  0
    4.7692   14.0784    6.7030 C   0  0  0  0  0  0  0  0  0  0  0  0
    3.8195   14.6259    6.6812 H   0  0  0  0  0  0  0  0  0  0  0  0
    5.4321   14.4936    5.9345 H   0  0  0  0  0  0  0  0  0  0  0  0
    6.1333   11.6450    6.7268 C   0  0  0  0  0  0  0  0  0  0  0  0
    6.8398   11.9858    5.9591 H   0  0  0  0  0  0  0  0  0  0  0  0
    6.1133   10.5475    6.7158 H   0  0  0  0  0  0  0  0  0  0  0  0
    3.6051   11.8379    7.9054 C   0  0  0  0  0  0  0  0  0  0  0  0
    3.4759   10.7484    7.9469 H   0  0  0  0  0  0  0  0  0  0  0  0
    2.6137   12.3075    7.9297 H   0  0  0  0  0  0  0  0  0  0  0  0
    6.6741   13.5555    8.0749 C   0  0  0  0  0  0  0  0  0  0  0  0
    7.3002   13.8992    7.2476 H   0  0  0  0  0  0  0  0  0  0  0  0
    7.1477   13.8316    9.0221 H   0  0  0  0  0  0  0  0  0  0  0  0
    5.6901   11.6551    9.0885 C   0  0  0  0  0  0  0  0  0  0  0  0
    6.1554   11.9081   10.0461 H   0  0  0  0  0  0  0  0  0  0  0  0
    5.5762   10.5696    9.0236 H   0  0  0  0  0  0  0  0  0  0  0  0
    4.5310   13.7209    9.0696 C   0  0  0  0  0  0  0  0  0  0  0  0
    4.9830   14.0007   10.0263 H   0  0  0  0  0  0  0  0  0  0  0  0
    3.5460   14.1871    8.9878 H   0  0  0  0  0  0  0  0  0  0  0  0
    5.3836   14.2174    8.0036 N   0  0  2  0  0  0  0  0  0  0  0  0
    6.5773   12.1041    8.0271 N   0  0  1  0  0  0  0  0  0  0  0  0
    4.3748   12.2742    9.0518 N   0  0  1  0  0  0  0  0  0  0  0  0
    1.9248   13.3797    5.1349 Cl  0  0  0  0  0  0  0  0  0  0  0  0
    4.6525   10.4961    3.6634 C   0  0  0  0  0  2  0  0  0  0  0  0
    5.4360    9.7697    3.2589 O   0  0  0  0  0  1  0  0  0  0  0  0
    2.4223   12.2916    2.2794 P   0  0  2  0  0  4  0  0  0  0  0  0
    2.0960   14.0785    1.8919 C   0  0  0  0  0  0  0  0  0  0  0  0
    3.0457   14.6260    1.9134 H   0  0  0  0  0  0  0  0  0  0  0  0
    1.4333   14.4937    2.6605 H   0  0  0  0  0  0  0  0  0  0  0  0
    0.7320   11.6451    1.8686 C   0  0  0  0  0  0  0  0  0  0  0  0
    0.0257   11.9860    2.6364 H   0  0  0  0  0  0  0  0  0  0  0  0
    0.7520   10.5476    1.8796 H   0  0  0  0  0  0  0  0  0  0  0  0
    3.2599   11.8381    0.6893 C   0  0  0  0  0  0  0  0  0  0  0  0
    3.3891   10.7486    0.6478 H   0  0  0  0  0  0  0  0  0  0  0  0
    4.2512   12.3077    0.6647 H   0  0  0  0  0  0  0  0  0  0  0  0
    0.1907   13.5555    0.5205 C   0  0  0  0  0  0  0  0  0  0  0  0
   -0.4352   13.8993    1.3479 H   0  0  0  0  0  0  0  0  0  0  0  0
   -0.2831   13.8316   -0.4266 H   0  0  0  0  0  0  0  0  0  0  0  0
    1.1746   11.6551   -0.4933 C   0  0  0  0  0  0  0  0  0  0  0  0
    0.7090   11.9080   -1.4508 H   0  0  0  0  0  0  0  0  0  0  0  0
    1.2885   10.5695   -0.4283 H   0  0  0  0  0  0  0  0  0  0  0  0
    2.3336   13.7210   -0.4748 C   0  0  0  0  0  0  0  0  0  0  0  0
    1.8813   14.0006   -1.4314 H   0  0  0  0  0  0  0  0  0  0  0  0
    3.3186   14.1872   -0.3933 H   0  0  0  0  0  0  0  0  0  0  0  0
    1.4813   14.2174    0.5914 N   0  0  2  0  0  0  0  0  0  0  0  0
    0.2876   12.1042    0.5683 N   0  0  1  0  0  0  0  0  0  0  0  0
    2.4898   12.2743   -0.4570 N   0  0  1  0  0  0  0  0  0  0  0  0
  1  3  1  0  0  0  0
  1 27  1  0  0  0  0
  2  1  1  0  0  0  0
  3  4  1  0  0  0  0
  5  1  1  6  0  0  0
  5  6  1  0  0  0  0
  5  9  1  0  0  0  0
  5 12  1  0  0  0  0
  7  6  1  0  0  0  0
  8  6  1  0  0  0  0
 10  9  1  0  0  0  0
 11  9  1  0  0  0  0
 12 14  1  0  0  0  0
 12 13  1  0  0  0  0
 15 17  1  0  0  0  0
 16 15  1  0  0  0  0
 18 19  1  0  0  0  0
 20 18  1  0  0  0  0
 21 22  1  0  0  0  0
 23 21  1  0  0  0  0
 24  6  1  6  0  0  0
 24 15  1  0  0  0  0
 24 21  1  0  0  0  0
 25  9  1  6  0  0  0
 25 15  1  0  0  0  0
 25 18  1  0  0  0  0
 26 12  1  6  0  0  0
 26 21  1  0  0  0  0
 26 18  1  0  0  0  0
 28  1  1  0  0  0  0
 29 28  1  0  0  0  0
 30  1  1  1  0  0  0
 31 32  1  0  0  0  0
 31 30  1  0  0  0  0
 31 33  1  0  0  0  0
 34 36  1  0  0  0  0
 34 30  1  0  0  0  0
 34 35  1  0  0  0  0
 37 30  1  0  0  0  0
 38 37  1  0  0  0  0
 39 37  1  0  0  0  0
 40 50  1  0  0  0  0
 40 49  1  0  0  0  0
 40 41  1  0  0  0  0
 42 40  1  0  0  0  0
 43 45  1  0  0  0  0
 44 43  1  0  0  0  0
 46 51  1  0  0  0  0
 46 48  1  0  0  0  0
 47 46  1  0  0  0  0
 49 46  1  6  0  0  0
 49 31  1  0  0  0  0
 50 43  1  6  0  0  0
 50 34  1  0  0  0  0
 51 43  1  1  0  0  0
 51 37  1  0  0  0  0
M  END
$$$$
