CSD_code = MEZMOW | q = 0 | S = 0 | Stoichiometry = C30H25ClNPPt | MND = 4
 OpenBabel04212202073D

 59 64  0  0  0  0  0  0  0  0999 V2000
    3.7964    3.8746    4.1504 Pt  0  0  2  0  0  0  0  0  0  0  0  0
    5.8330    5.0870    4.2256 Cl  0  0  0  0  0  0  0  0  0  0  0  0
    4.5261    2.4161    2.6213 P   0  0  0  0  0  4  0  0  0  0  0  0
    3.0919    5.2771    5.5223 N   0  0  0  0  0  4  0  0  0  0  0  0
    3.8978    5.8416    5.8050 H   0  0  0  0  0  0  0  0  0  0  0  0
    2.6303    4.8633    6.3342 H   0  0  0  0  0  0  0  0  0  0  0  0
    2.1908    6.0218    4.6993 C   0  0  0  0  0  0  0  0  0  0  0  0
    1.0761    5.3766    4.1368 C   0  0  0  0  0  0  0  0  0  0  0  0
    0.8653    3.9279    4.3266 C   0  0  0  0  0  0  0  0  0  0  0  0
   -0.4275    3.4364    4.4907 C   0  0  0  0  0  0  0  0  0  0  0  0
   -1.2572    4.1276    4.5465 H   0  0  0  0  0  0  0  0  0  0  0  0
   -0.6561    2.0789    4.6091 C   0  0  0  0  0  0  0  0  0  0  0  0
   -1.6634    1.7095    4.7371 H   0  0  0  0  0  0  0  0  0  0  0  0
    0.4108    1.1993    4.5590 C   0  0  0  0  0  0  0  0  0  0  0  0
    0.2409    0.1348    4.6373 H   0  0  0  0  0  0  0  0  0  0  0  0
    1.6996    1.6841    4.4079 C   0  0  0  0  0  0  0  0  0  0  0  0
    2.5203    0.9770    4.3660 H   0  0  0  0  0  0  0  0  0  0  0  0
    1.9590    3.0449    4.2922 C   0  0  0  0  0  0  0  0  0  0  0  0
    0.2115    6.1285    3.3488 C   0  0  0  0  0  0  0  0  0  0  0  0
   -0.6359    5.6406    2.8906 H   0  0  0  0  0  0  0  0  0  0  0  0
    0.4400    7.4731    3.1142 C   0  0  0  0  0  0  0  0  0  0  0  0
   -0.2412    8.0332    2.4913 H   0  0  0  0  0  0  0  0  0  0  0  0
    1.5486    8.0935    3.6621 C   0  0  0  0  0  0  0  0  0  0  0  0
    1.7398    9.1386    3.4722 H   0  0  0  0  0  0  0  0  0  0  0  0
    2.4176    7.3692    4.4604 C   0  0  0  0  0  0  0  0  0  0  0  0
    3.2882    7.8463    4.8884 H   0  0  0  0  0  0  0  0  0  0  0  0
    3.1892    1.7322    1.5940 C   0  0  0  0  0  0  0  0  0  0  0  0
    3.0292    0.3913    1.2797 C   0  0  0  0  0  0  0  0  0  0  0  0
    3.7441   -0.3390    1.6301 H   0  0  0  0  0  0  0  0  0  0  0  0
    1.9355   -0.0126    0.5316 C   0  0  0  0  0  0  0  0  0  0  0  0
    1.8073   -1.0584    0.2925 H   0  0  0  0  0  0  0  0  0  0  0  0
    1.0044    0.9146    0.0970 C   0  0  0  0  0  0  0  0  0  0  0  0
    0.1512    0.5916   -0.4810 H   0  0  0  0  0  0  0  0  0  0  0  0
    1.1598    2.2562    0.4120 C   0  0  0  0  0  0  0  0  0  0  0  0
    0.4287    2.9790    0.0815 H   0  0  0  0  0  0  0  0  0  0  0  0
    2.2452    2.6616    1.1623 C   0  0  0  0  0  0  0  0  0  0  0  0
    2.3726    3.7021    1.4448 H   0  0  0  0  0  0  0  0  0  0  0  0
    5.7568    2.9829    1.4076 C   0  0  0  0  0  0  0  0  0  0  0  0
    7.0670    3.1547    1.8487 C   0  0  0  0  0  0  0  0  0  0  0  0
    7.3184    2.9178    2.8730 H   0  0  0  0  0  0  0  0  0  0  0  0
    8.0297    3.6405    0.9854 C   0  0  0  0  0  0  0  0  0  0  0  0
    9.0430    3.7782    1.3328 H   0  0  0  0  0  0  0  0  0  0  0  0
    7.6932    3.9595   -0.3209 C   0  0  0  0  0  0  0  0  0  0  0  0
    8.4459    4.3432   -0.9940 H   0  0  0  0  0  0  0  0  0  0  0  0
    6.3911    3.7928   -0.7614 C   0  0  0  0  0  0  0  0  0  0  0  0
    6.1275    4.0452   -1.7784 H   0  0  0  0  0  0  0  0  0  0  0  0
    5.4205    3.3102    0.0992 C   0  0  0  0  0  0  0  0  0  0  0  0
    4.4031    3.1860   -0.2449 H   0  0  0  0  0  0  0  0  0  0  0  0
    5.3788    1.0162    3.3974 C   0  0  0  0  0  0  0  0  0  0  0  0
    5.3352    0.9328    4.7850 C   0  0  0  0  0  0  0  0  0  0  0  0
    4.7982    1.7054    5.3337 H   0  0  0  0  0  0  0  0  0  0  0  0
    5.9815   -0.0997    5.4396 C   0  0  0  0  0  0  0  0  0  0  0  0
    5.9510   -0.1623    6.5173 H   0  0  0  0  0  0  0  0  0  0  0  0
    6.6752   -1.0510    4.7086 C   0  0  0  0  0  0  0  0  0  0  0  0
    7.1812   -1.8584    5.2170 H   0  0  0  0  0  0  0  0  0  0  0  0
    6.7350   -0.9620    3.3263 C   0  0  0  0  0  0  0  0  0  0  0  0
    7.2897   -1.6976    2.7621 H   0  0  0  0  0  0  0  0  0  0  0  0
    6.0942    0.0717    2.6675 C   0  0  0  0  0  0  0  0  0  0  0  0
    6.1590    0.1602    1.5912 H   0  0  0  0  0  0  0  0  0  0  0  0
  1  2  1  1  0  0  0
  1 18  1  0  0  0  0
  1  4  1  0  0  0  0
  3 49  1  0  0  0  0
  3  1  1  0  0  0  0
  4  5  1  0  0  0  0
  4  6  1  0  0  0  0
  7  4  1  0  0  0  0
  8  9  1  0  0  0  0
  8  7  2  0  0  0  0
  9 10  1  0  0  0  0
 10 11  1  0  0  0  0
 10 12  2  0  0  0  0
 12 13  1  0  0  0  0
 14 12  1  0  0  0  0
 14 15  1  0  0  0  0
 16 14  2  0  0  0  0
 17 16  1  0  0  0  0
 18  9  2  0  0  0  0
 18 16  1  0  0  0  0
 19  8  1  0  0  0  0
 20 19  1  0  0  0  0
 21 19  2  0  0  0  0
 21 23  1  0  0  0  0
 22 21  1  0  0  0  0
 23 25  2  0  0  0  0
 24 23  1  0  0  0  0
 25  7  1  0  0  0  0
 25 26  1  0  0  0  0
 27  3  1  0  0  0  0
 28 27  1  0  0  0  0
 28 29  1  0  0  0  0
 30 28  2  0  0  0  0
 31 30  1  0  0  0  0
 32 34  2  0  0  0  0
 32 30  1  0  0  0  0
 33 32  1  0  0  0  0
 34 36  1  0  0  0  0
 35 34  1  0  0  0  0
 36 37  1  0  0  0  0
 36 27  2  0  0  0  0
 38 39  1  0  0  0  0
 38  3  1  0  0  0  0
 39 40  1  0  0  0  0
 41 42  1  0  0  0  0
 41 39  2  0  0  0  0
 43 41  1  0  0  0  0
 44 43  1  0  0  0  0
 45 43  2  0  0  0  0
 45 47  1  0  0  0  0
 46 45  1  0  0  0  0
 47 38  2  0  0  0  0
 48 47  1  0  0  0  0
 49 50  1  0  0  0  0
 50 51  1  0  0  0  0
 50 52  2  0  0  0  0
 52 53  1  0  0  0  0
 54 55  1  0  0  0  0
 54 52  1  0  0  0  0
 56 54  2  0  0  0  0
 57 56  1  0  0  0  0
 58 56  1  0  0  0  0
 58 49  2  0  0  0  0
 59 58  1  0  0  0  0
M  END
$$$$
