CSD_code = MEZRAK | q = 0 | S = 0 | Stoichiometry = C12H26Cl4N2O2Pt | MND = 6
 OpenBabel04212202073D

 47 46  0  0  1  0  0  0  0  0999 V2000
    4.3235    0.0000   -0.0001 Pt  0  0  0  0  0  0  0  0  0  0  0  0
    2.3241   -1.0948    0.6714 Cl  0  0  0  0  0  0  0  0  0  0  0  0
    4.6072    0.5972    2.2860 Cl  0  0  0  0  0  0  0  0  0  0  0  0
    5.1767   -3.7493    0.1332 O   0  0  0  0  0  0  0  0  0  0  0  0
    5.6127   -1.5043    0.5373 N   0  0  0  0  0  0  0  0  0  0  0  0
    6.3014   -0.9519    1.0512 H   0  0  0  0  0  0  0  0  0  0  0  0
    5.8211   -2.7635    0.6859 C   0  0  1  0  0  3  0  0  0  0  0  0
    6.9321   -3.2774    1.6091 C   0  0  0  0  0  0  0  0  0  0  0  0
    7.8039   -4.2614    0.8218 C   0  0  0  0  0  0  0  0  0  0  0  0
    8.5666   -4.6788    1.4741 H   0  0  0  0  0  0  0  0  0  0  0  0
    8.2967   -3.7549   -0.0051 H   0  0  0  0  0  0  0  0  0  0  0  0
    7.2039   -5.0747    0.4245 H   0  0  0  0  0  0  0  0  0  0  0  0
    7.8026   -2.1510    2.1665 C   0  0  0  0  0  0  0  0  0  0  0  0
    8.5806   -2.5844    2.7907 H   0  0  0  0  0  0  0  0  0  0  0  0
    7.2268   -1.4690    2.7898 H   0  0  0  0  0  0  0  0  0  0  0  0
    8.2918   -1.5928    1.3701 H   0  0  0  0  0  0  0  0  0  0  0  0
    6.2222   -3.9962    2.7652 C   0  0  0  0  0  0  0  0  0  0  0  0
    6.9588   -4.3801    3.4662 H   0  0  0  0  0  0  0  0  0  0  0  0
    5.6279   -4.8260    2.3930 H   0  0  0  0  0  0  0  0  0  0  0  0
    5.5667   -3.3079    3.2944 H   0  0  0  0  0  0  0  0  0  0  0  0
    4.1120   -3.5544   -0.7926 C   0  0  0  0  0  0  0  0  0  0  0  0
    3.8201   -4.5540   -1.1078 H   0  0  0  0  0  0  0  0  0  0  0  0
    4.4470   -2.9722   -1.6516 H   0  0  0  0  0  0  0  0  0  0  0  0
    3.2683   -3.0485   -0.3203 H   0  0  0  0  0  0  0  0  0  0  0  0
    6.3229    1.0951   -0.6705 Cl  0  0  0  0  0  0  0  0  0  0  0  0
    4.0395   -0.5975   -2.2862 Cl  0  0  0  0  0  0  0  0  0  0  0  0
    3.0344    1.5043   -0.5375 N   0  0  0  0  0  0  0  0  0  0  0  0
    2.3456    0.9519   -1.0513 H   0  0  0  0  0  0  0  0  0  0  0  0
    2.8259    2.7636   -0.6860 C   0  0  1  0  0  3  0  0  0  0  0  0
    3.4704    3.7493   -0.1333 O   0  0  0  0  0  0  0  0  0  0  0  0
    4.5351    3.5544    0.7925 C   0  0  0  0  0  0  0  0  0  0  0  0
    4.8270    4.5539    1.1077 H   0  0  0  0  0  0  0  0  0  0  0  0
    4.2000    2.9722    1.6516 H   0  0  0  0  0  0  0  0  0  0  0  0
    5.3787    3.0484    0.3203 H   0  0  0  0  0  0  0  0  0  0  0  0
    1.7149    3.2774   -1.6091 C   0  0  0  0  0  0  0  0  0  0  0  0
    0.8430    4.2614   -0.8218 C   0  0  0  0  0  0  0  0  0  0  0  0
    0.0804    4.6788   -1.4741 H   0  0  0  0  0  0  0  0  0  0  0  0
    0.3503    3.7549    0.0051 H   0  0  0  0  0  0  0  0  0  0  0  0
    1.4431    5.0747   -0.4245 H   0  0  0  0  0  0  0  0  0  0  0  0
    0.8444    2.1510   -2.1665 C   0  0  0  0  0  0  0  0  0  0  0  0
    0.0664    2.5844   -2.7906 H   0  0  0  0  0  0  0  0  0  0  0  0
    1.4202    1.4690   -2.7898 H   0  0  0  0  0  0  0  0  0  0  0  0
    0.3552    1.5928   -1.3701 H   0  0  0  0  0  0  0  0  0  0  0  0
    2.4248    3.9962   -2.7652 C   0  0  0  0  0  0  0  0  0  0  0  0
    1.6882    4.3801   -3.4662 H   0  0  0  0  0  0  0  0  0  0  0  0
    3.0191    4.8260   -2.3930 H   0  0  0  0  0  0  0  0  0  0  0  0
    3.0802    3.3079   -3.2944 H   0  0  0  0  0  0  0  0  0  0  0  0
  1  5  1  0  0  0  0
  1  2  1  0  0  0  0
  1  3  1  0  0  0  0
  5  7  1  0  0  0  0
  5  6  1  0  0  0  0
  7  4  1  1  0  0  0
  7  8  1  0  0  0  0
  8 13  1  0  0  0  0
  8 17  1  0  0  0  0
  9 10  1  0  0  0  0
  9  8  1  0  0  0  0
 11  9  1  0  0  0  0
 12  9  1  0  0  0  0
 13 15  1  0  0  0  0
 13 14  1  0  0  0  0
 16 13  1  0  0  0  0
 17 20  1  0  0  0  0
 17 18  1  0  0  0  0
 19 17  1  0  0  0  0
 21 24  1  0  0  0  0
 21  4  1  0  0  0  0
 22 21  1  0  0  0  0
 23 21  1  0  0  0  0
 25  1  1  0  0  0  0
 26  1  1  0  0  0  0
 27  1  1  0  0  0  0
 28 27  1  0  0  0  0
 29 27  1  0  0  0  0
 29 30  1  6  0  0  0
 30 31  1  0  0  0  0
 31 32  1  0  0  0  0
 31 33  1  0  0  0  0
 34 31  1  0  0  0  0
 35 36  1  0  0  0  0
 35 29  1  0  0  0  0
 36 39  1  0  0  0  0
 36 38  1  0  0  0  0
 37 36  1  0  0  0  0
 40 35  1  0  0  0  0
 40 43  1  0  0  0  0
 41 40  1  0  0  0  0
 42 40  1  0  0  0  0
 44 46  1  0  0  0  0
 44 35  1  0  0  0  0
 45 44  1  0  0  0  0
 47 44  1  0  0  0  0
M  END
$$$$
