CSD_code = MEZXUM | q = 0 | S = 0 | Stoichiometry = C16H41Br2FeNP4 | MND = 6
 OpenBabel04212202073D

 65 66  0  0  0  0  0  0  0  0999 V2000
    4.1279    0.2384    3.3291 Fe  0  0  0  0  0  0  0  0  0  0  0  0
    5.1033    1.7839    4.7927 Br  0  0  0  0  0  0  0  0  0  0  0  0
    3.2017   -1.4030    1.9542 Br  0  0  0  0  0  0  0  0  0  0  0  0
    2.2042    1.1655    3.7502 P   0  0  0  0  0  4  0  0  0  0  0  0
    4.5504    1.6510    1.7243 P   0  0  0  0  0  4  0  0  0  0  0  0
    6.0236   -0.9239    3.1435 P   0  0  0  0  0  4  0  0  0  0  0  0
    3.9598   -1.3065    4.9359 P   0  0  0  0  0  4  0  0  0  0  0  0
    2.4501    3.3257    2.0943 N   0  0  0  0  0  0  0  0  0  0  0  0
    1.7843    1.0956    5.5499 C   0  0  0  0  0  0  0  0  0  0  0  0
    1.5303    0.0442    5.7378 H   0  0  0  0  0  0  0  0  0  0  0  0
    2.7113    1.3160    6.0880 H   0  0  0  0  0  0  0  0  0  0  0  0
    0.6799    1.9998    6.0833 C   0  0  0  0  0  0  0  0  0  0  0  0
    0.5079    1.7698    7.1339 H   0  0  0  0  0  0  0  0  0  0  0  0
   -0.2601    1.8573    5.5544 H   0  0  0  0  0  0  0  0  0  0  0  0
    0.9652    3.0463    6.0149 H   0  0  0  0  0  0  0  0  0  0  0  0
    0.6290    0.5344    3.0339 C   0  0  0  0  0  0  0  0  0  0  0  0
    0.6020   -0.5428    3.2317 H   0  0  0  0  0  0  0  0  0  0  0  0
   -0.1808    1.0066    3.6011 H   0  0  0  0  0  0  0  0  0  0  0  0
    0.4424    0.7970    1.5459 C   0  0  0  0  0  0  0  0  0  0  0  0
   -0.5868    0.5847    1.2609 H   0  0  0  0  0  0  0  0  0  0  0  0
    1.0896    0.1482    0.9629 H   0  0  0  0  0  0  0  0  0  0  0  0
    0.6693    1.8324    1.3024 H   0  0  0  0  0  0  0  0  0  0  0  0
    2.0433    2.9759    3.4417 C   0  0  0  0  0  0  0  0  0  0  0  0
    0.9826    3.2212    3.5681 H   0  0  0  0  0  0  0  0  0  0  0  0
    2.6251    3.5229    4.2076 H   0  0  0  0  0  0  0  0  0  0  0  0
    1.8552    4.5816    1.6758 C   0  0  0  0  0  0  0  0  0  0  0  0
    2.1229    4.7769    0.6376 H   0  0  0  0  0  0  0  0  0  0  0  0
    2.1841    5.4319    2.2920 H   0  0  0  0  0  0  0  0  0  0  0  0
    0.7695    4.5061    1.7385 H   0  0  0  0  0  0  0  0  0  0  0  0
    3.8948    3.3570    1.9700 C   0  0  0  0  0  0  0  0  0  0  0  0
    4.3847    3.8250    2.8426 H   0  0  0  0  0  0  0  0  0  0  0  0
    4.1588    3.9329    1.0770 H   0  0  0  0  0  0  0  0  0  0  0  0
    3.9849    1.3722   -0.0067 C   0  0  0  0  0  0  0  0  0  0  0  0
    2.9323    1.0849    0.0653 H   0  0  0  0  0  0  0  0  0  0  0  0
    4.0346    2.3308   -0.5338 H   0  0  0  0  0  0  0  0  0  0  0  0
    4.7608    0.3048   -0.7664 C   0  0  0  0  0  0  0  0  0  0  0  0
    4.3255    0.1692   -1.7548 H   0  0  0  0  0  0  0  0  0  0  0  0
    4.7107   -0.6482   -0.2482 H   0  0  0  0  0  0  0  0  0  0  0  0
    5.8057    0.5823   -0.8904 H   0  0  0  0  0  0  0  0  0  0  0  0
    6.3518    2.0088    1.5367 C   0  0  0  0  0  0  0  0  0  0  0  0
    6.7139    2.2768    2.5345 H   0  0  0  0  0  0  0  0  0  0  0  0
    6.8099    1.0481    1.2695 H   0  0  0  0  0  0  0  0  0  0  0  0
    6.7648    3.0830    0.5388 C   0  0  0  0  0  0  0  0  0  0  0  0
    7.8508    3.0966    0.4528 H   0  0  0  0  0  0  0  0  0  0  0  0
    6.4471    4.0681    0.8711 H   0  0  0  0  0  0  0  0  0  0  0  0
    6.3514    2.8970   -0.4499 H   0  0  0  0  0  0  0  0  0  0  0  0
    7.5873   -0.4686    3.9786 C   0  0  0  0  0  0  0  0  0  0  0  0
    8.1172    0.2750    3.3839 H   0  0  0  0  0  0  0  0  0  0  0  0
    8.2095   -1.3580    4.0909 H   0  0  0  0  0  0  0  0  0  0  0  0
    7.3715   -0.0380    4.9554 H   0  0  0  0  0  0  0  0  0  0  0  0
    6.6803   -1.8817    1.7255 C   0  0  0  0  0  0  0  0  0  0  0  0
    7.2386   -1.2317    1.0523 H   0  0  0  0  0  0  0  0  0  0  0  0
    5.8582   -2.3419    1.1794 H   0  0  0  0  0  0  0  0  0  0  0  0
    7.3436   -2.6578    2.1114 H   0  0  0  0  0  0  0  0  0  0  0  0
    5.3934   -2.2639    4.2573 C   0  0  0  0  0  0  0  0  0  0  0  0
    5.0278   -3.1039    3.6569 H   0  0  0  0  0  0  0  0  0  0  0  0
    6.1088   -2.6130    5.0077 H   0  0  0  0  0  0  0  0  0  0  0  0
    2.6890   -2.6068    5.1702 C   0  0  0  0  0  0  0  0  0  0  0  0
    1.8700   -2.2273    5.7810 H   0  0  0  0  0  0  0  0  0  0  0  0
    3.1524   -3.4552    5.6769 H   0  0  0  0  0  0  0  0  0  0  0  0
    2.2998   -2.9248    4.2041 H   0  0  0  0  0  0  0  0  0  0  0  0
    4.4895   -1.0665    6.6722 C   0  0  0  0  0  0  0  0  0  0  0  0
    3.6853   -0.6019    7.2419 H   0  0  0  0  0  0  0  0  0  0  0  0
    5.3605   -0.4133    6.7064 H   0  0  0  0  0  0  0  0  0  0  0  0
    4.7320   -2.0364    7.1098 H   0  0  0  0  0  0  0  0  0  0  0  0
  1  4  1  0  0  0  0
  1  2  1  0  0  0  0
  1  7  1  0  0  0  0
  3  1  1  0  0  0  0
  4  9  1  0  0  0  0
  5 30  1  0  0  0  0
  5  1  1  0  0  0  0
  6  1  1  0  0  0  0
  6 47  1  0  0  0  0
  6 55  1  0  0  0  0
  7 58  1  0  0  0  0
  7 62  1  0  0  0  0
  8 23  1  0  0  0  0
  9 10  1  0  0  0  0
  9 12  1  0  0  0  0
  9 11  1  0  0  0  0
 12 13  1  0  0  0  0
 14 12  1  0  0  0  0
 15 12  1  0  0  0  0
 16 17  1  0  0  0  0
 16 18  1  0  0  0  0
 16  4  1  0  0  0  0
 19 16  1  0  0  0  0
 20 19  1  0  0  0  0
 21 19  1  0  0  0  0
 22 19  1  0  0  0  0
 23 24  1  0  0  0  0
 23  4  1  0  0  0  0
 23 25  1  0  0  0  0
 26 29  1  0  0  0  0
 26  8  1  0  0  0  0
 26 28  1  0  0  0  0
 27 26  1  0  0  0  0
 30  8  1  0  0  0  0
 30 31  1  0  0  0  0
 32 30  1  0  0  0  0
 33 34  1  0  0  0  0
 33  5  1  0  0  0  0
 35 33  1  0  0  0  0
 36 38  1  0  0  0  0
 36 33  1  0  0  0  0
 37 36  1  0  0  0  0
 39 36  1  0  0  0  0
 40  5  1  0  0  0  0
 40 41  1  0  0  0  0
 42 40  1  0  0  0  0
 43 45  1  0  0  0  0
 43 40  1  0  0  0  0
 44 43  1  0  0  0  0
 46 43  1  0  0  0  0
 47 49  1  0  0  0  0
 47 50  1  0  0  0  0
 48 47  1  0  0  0  0
 51 54  1  0  0  0  0
 51  6  1  0  0  0  0
 52 51  1  0  0  0  0
 53 51  1  0  0  0  0
 55  7  1  0  0  0  0
 55 57  1  0  0  0  0
 56 55  1  0  0  0  0
 58 60  1  0  0  0  0
 58 59  1  0  0  0  0
 61 58  1  0  0  0  0
 62 64  1  0  0  0  0
 62 65  1  0  0  0  0
 62 63  1  0  0  0  0
M  END
$$$$
