CSD_code = MEZYAT | q = 0 | S = 0 | Stoichiometry = C16H42BrFeNP4 | MND = 6
 OpenBabel04212202073D

 65 66  0  0  0  0  0  0  0  0999 V2000
   13.4226   12.0911    4.8139 Fe  0  0  0  0  0  0  0  0  0  0  0  0
   12.9275   12.5006    6.1118 H   0  0  0  0  0  0  0  0  0  0  0  0
   14.2340   11.4192    2.7665 Br  0  0  0  0  0  0  0  0  0  0  0  0
   10.9563   13.8546    2.5933 N   0  0  0  0  0  0  0  0  0  0  0  0
   13.2411   14.0889    4.0364 P   0  0  0  0  0  4  0  0  0  0  0  0
   11.4331   11.6608    4.1164 P   0  0  0  0  0  4  0  0  0  0  0  0
   13.7950   10.1426    5.7557 P   0  0  0  0  0  4  0  0  0  0  0  0
   15.4232   12.3312    5.6862 P   0  0  0  0  0  4  0  0  0  0  0  0
   12.3801   15.3698    5.0348 C   0  0  0  0  0  0  0  0  0  0  0  0
   12.4080   16.3268    4.5041 H   0  0  0  0  0  0  0  0  0  0  0  0
   11.3386   15.0367    5.0835 H   0  0  0  0  0  0  0  0  0  0  0  0
   12.9592   15.4859    6.4335 C   0  0  0  0  0  0  0  0  0  0  0  0
   12.3406   16.1236    7.0628 H   0  0  0  0  0  0  0  0  0  0  0  0
   13.9662   15.8985    6.4056 H   0  0  0  0  0  0  0  0  0  0  0  0
   13.0041   14.4923    6.8759 H   0  0  0  0  0  0  0  0  0  0  0  0
   14.8552   14.8639    3.5774 C   0  0  0  0  0  0  0  0  0  0  0  0
   15.4938   14.7462    4.4617 H   0  0  0  0  0  0  0  0  0  0  0  0
   15.2641   14.2147    2.7929 H   0  0  0  0  0  0  0  0  0  0  0  0
   14.8745   16.3150    3.1165 C   0  0  0  0  0  0  0  0  0  0  0  0
   15.8983   16.6044    2.8818 H   0  0  0  0  0  0  0  0  0  0  0  0
   14.5066   16.9841    3.8914 H   0  0  0  0  0  0  0  0  0  0  0  0
   14.2769   16.4548    2.2193 H   0  0  0  0  0  0  0  0  0  0  0  0
   12.3202   14.3277    2.4549 C   0  0  0  0  0  0  0  0  0  0  0  0
   12.2962   15.4052    2.2570 H   0  0  0  0  0  0  0  0  0  0  0  0
   12.8609   13.8304    1.6287 H   0  0  0  0  0  0  0  0  0  0  0  0
   10.0821   14.4733    1.6143 C   0  0  0  0  0  0  0  0  0  0  0  0
    9.0585   14.1398    1.7852 H   0  0  0  0  0  0  0  0  0  0  0  0
   10.3648   14.2280    0.5796 H   0  0  0  0  0  0  0  0  0  0  0  0
   10.1133   15.5558    1.7379 H   0  0  0  0  0  0  0  0  0  0  0  0
   10.8906   12.4078    2.5183 C   0  0  0  0  0  0  0  0  0  0  0  0
   11.4964   11.9973    1.6895 H   0  0  0  0  0  0  0  0  0  0  0  0
    9.8462   12.1144    2.3647 H   0  0  0  0  0  0  0  0  0  0  0  0
   11.1380    9.8753    3.7393 C   0  0  0  0  0  0  0  0  0  0  0  0
   11.8421    9.6403    2.9311 H   0  0  0  0  0  0  0  0  0  0  0  0
   11.4744    9.3316    4.6309 H   0  0  0  0  0  0  0  0  0  0  0  0
    9.7352    9.4225    3.3581 C   0  0  0  0  0  0  0  0  0  0  0  0
    9.7444    8.3517    3.1576 H   0  0  0  0  0  0  0  0  0  0  0  0
    9.3858    9.9249    2.4596 H   0  0  0  0  0  0  0  0  0  0  0  0
    9.0253    9.6068    4.1617 H   0  0  0  0  0  0  0  0  0  0  0  0
    9.9922   12.1614    5.1418 C   0  0  0  0  0  0  0  0  0  0  0  0
   10.0157   13.2557    5.1471 H   0  0  0  0  0  0  0  0  0  0  0  0
    9.0664   11.8420    4.6527 H   0  0  0  0  0  0  0  0  0  0  0  0
   10.0915   11.6284    6.5600 C   0  0  0  0  0  0  0  0  0  0  0  0
    9.3230   12.0625    7.1975 H   0  0  0  0  0  0  0  0  0  0  0  0
   11.0695   11.8871    6.9619 H   0  0  0  0  0  0  0  0  0  0  0  0
    9.9855   10.5450    6.5777 H   0  0  0  0  0  0  0  0  0  0  0  0
   12.8732    9.3454    7.1295 C   0  0  0  0  0  0  0  0  0  0  0  0
   12.0233    8.7754    6.7566 H   0  0  0  0  0  0  0  0  0  0  0  0
   12.5103   10.1266    7.7957 H   0  0  0  0  0  0  0  0  0  0  0  0
   13.5461    8.6785    7.6716 H   0  0  0  0  0  0  0  0  0  0  0  0
   14.4668    8.6652    4.9007 C   0  0  0  0  0  0  0  0  0  0  0  0
   13.6666    8.1496    4.3703 H   0  0  0  0  0  0  0  0  0  0  0  0
   14.9192    7.9926    5.6305 H   0  0  0  0  0  0  0  0  0  0  0  0
   15.2098    8.9850    4.1702 H   0  0  0  0  0  0  0  0  0  0  0  0
   15.2905   10.7596    6.6544 C   0  0  0  0  0  0  0  0  0  0  0  0
   16.1679   10.1059    6.6317 H   0  0  0  0  0  0  0  0  0  0  0  0
   15.0135   10.9984    7.6861 H   0  0  0  0  0  0  0  0  0  0  0  0
   17.0057   12.0781    4.7938 C   0  0  0  0  0  0  0  0  0  0  0  0
   17.2553   12.9728    4.2241 H   0  0  0  0  0  0  0  0  0  0  0  0
   16.8912   11.2492    4.0953 H   0  0  0  0  0  0  0  0  0  0  0  0
   17.8003   11.8627    5.5094 H   0  0  0  0  0  0  0  0  0  0  0  0
   15.9599   13.4983    6.9986 C   0  0  0  0  0  0  0  0  0  0  0  0
   16.2490   14.4602    6.5775 H   0  0  0  0  0  0  0  0  0  0  0  0
   16.8082   13.0682    7.5341 H   0  0  0  0  0  0  0  0  0  0  0  0
   15.1268   13.6481    7.6838 H   0  0  0  0  0  0  0  0  0  0  0  0
  1  8  1  0  0  0  0
  1  7  1  0  0  0  0
  1  2  1  0  0  0  0
  3  1  1  0  0  0  0
  5  1  1  0  0  0  0
  5  9  1  0  0  0  0
  6  1  1  0  0  0  0
  6 40  1  0  0  0  0
  7 55  1  0  0  0  0
  7 47  1  0  0  0  0
  8 55  1  0  0  0  0
  8 62  1  0  0  0  0
  9 11  1  0  0  0  0
  9 12  1  0  0  0  0
 10  9  1  0  0  0  0
 12 15  1  0  0  0  0
 12 13  1  0  0  0  0
 14 12  1  0  0  0  0
 16  5  1  0  0  0  0
 16 17  1  0  0  0  0
 18 16  1  0  0  0  0
 19 16  1  0  0  0  0
 19 21  1  0  0  0  0
 20 19  1  0  0  0  0
 22 19  1  0  0  0  0
 23  4  1  0  0  0  0
 23  5  1  0  0  0  0
 24 23  1  0  0  0  0
 25 23  1  0  0  0  0
 26 29  1  0  0  0  0
 26 27  1  0  0  0  0
 26  4  1  0  0  0  0
 28 26  1  0  0  0  0
 30  4  1  0  0  0  0
 30  6  1  0  0  0  0
 31 30  1  0  0  0  0
 32 30  1  0  0  0  0
 33  6  1  0  0  0  0
 33 35  1  0  0  0  0
 34 33  1  0  0  0  0
 36 33  1  0  0  0  0
 36 39  1  0  0  0  0
 37 36  1  0  0  0  0
 38 36  1  0  0  0  0
 40 41  1  0  0  0  0
 40 43  1  0  0  0  0
 42 40  1  0  0  0  0
 43 46  1  0  0  0  0
 43 45  1  0  0  0  0
 43 44  1  0  0  0  0
 47 50  1  0  0  0  0
 47 49  1  0  0  0  0
 48 47  1  0  0  0  0
 51 53  1  0  0  0  0
 51  7  1  0  0  0  0
 52 51  1  0  0  0  0
 54 51  1  0  0  0  0
 55 57  1  0  0  0  0
 56 55  1  0  0  0  0
 58 61  1  0  0  0  0
 58  8  1  0  0  0  0
 59 58  1  0  0  0  0
 60 58  1  0  0  0  0
 62 64  1  0  0  0  0
 62 65  1  0  0  0  0
 63 62  1  0  0  0  0
M  END
$$$$
