CSD_code = MEZZOI | q = 1 | S = 0 | Stoichiometry = C16H26AuI2N4(1+) | MND = 4
 OpenBabel04212202073D

 49 51  0  0  1  0  0  0  0  0999 V2000
    8.7833    1.9607    2.5512 Au  0  0  0  0  0  0  0  0  0  0  0  0
    9.3036    4.1697    3.9066 I   0  0  0  0  0  0  0  0  0  0  0  0
    8.2758   -0.2537    1.2011 I   0  0  0  0  0  0  0  0  0  0  0  0
    9.3191    0.6135    5.1761 N   0  0  0  0  0  0  0  0  0  0  0  0
   10.9995    0.3470    3.8515 N   0  0  0  0  0  0  0  0  0  0  0  0
    6.4105    2.9965    1.0368 N   0  0  0  0  0  0  0  0  0  0  0  0
    8.2251    3.8294    0.2242 N   0  0  0  0  0  0  0  0  0  0  0  0
    9.7778    0.8907    3.9446 C   0  0  0  0  0  0  0  0  0  0  0  0
   10.2599   -0.0966    5.8632 C   0  0  0  0  0  0  0  0  0  0  0  0
   10.1077   -0.4267    6.8696 H   0  0  0  0  0  0  0  0  0  0  0  0
   11.3173   -0.2617    5.0310 C   0  0  0  0  0  0  0  0  0  0  0  0
   12.2503   -0.7635    5.1814 H   0  0  0  0  0  0  0  0  0  0  0  0
    8.0383    0.9961    5.7077 C   0  0  0  0  0  0  0  0  0  0  0  0
    8.0019    2.0722    5.8912 H   0  0  0  0  0  0  0  0  0  0  0  0
    7.8741    0.4783    6.6500 H   0  0  0  0  0  0  0  0  0  0  0  0
    7.2408    0.7223    5.0150 H   0  0  0  0  0  0  0  0  0  0  0  0
   11.8782    0.3893    2.7074 C   0  0  0  0  0  0  0  0  0  0  0  0
   11.2712    0.3619    1.8007 H   0  0  0  0  0  0  0  0  0  0  0  0
   12.4981   -0.5097    2.7272 H   0  0  0  0  0  0  0  0  0  0  0  0
   12.7726    1.6318    2.7166 C   0  0  0  0  0  0  0  0  0  0  0  0
   13.3499    1.6424    3.6432 H   0  0  0  0  0  0  0  0  0  0  0  0
   12.1533    2.5311    2.7071 H   0  0  0  0  0  0  0  0  0  0  0  0
   13.7350    1.6369    1.5270 C   0  0  0  0  0  0  0  0  0  0  0  0
   14.4811    2.4163    1.6874 H   0  0  0  0  0  0  0  0  0  0  0  0
   14.2598    0.6803    1.5016 H   0  0  0  0  0  0  0  0  0  0  0  0
   13.0580    1.8777    0.1760 C   0  0  0  0  0  0  0  0  0  0  0  0
   13.7457    1.5791   -0.6162 H   0  0  0  0  0  0  0  0  0  0  0  0
   12.1766    1.2414    0.0823 H   0  0  0  0  0  0  0  0  0  0  0  0
   12.6777    3.3432   -0.0398 C   0  0  0  0  0  0  0  0  0  0  0  0
   13.5895    3.9145   -0.2178 H   0  0  0  0  0  0  0  0  0  0  0  0
   12.2221    3.7522    0.8632 H   0  0  0  0  0  0  0  0  0  0  0  0
   11.7376    3.5358   -1.2319 C   0  0  0  0  0  0  0  0  0  0  0  0
   11.7623    4.5804   -1.5469 H   0  0  0  0  0  0  0  0  0  0  0  0
   12.1023    2.9335   -2.0649 H   0  0  0  0  0  0  0  0  0  0  0  0
   10.2849    3.1481   -0.9476 C   0  0  0  0  0  0  0  0  0  0  0  0
    9.7319    3.1137   -1.8883 H   0  0  0  0  0  0  0  0  0  0  0  0
   10.2386    2.1510   -0.5042 H   0  0  0  0  0  0  0  0  0  0  0  0
    9.6099    4.1580   -0.0158 C   0  0  0  0  0  0  0  0  0  0  0  0
   10.1308    4.2014    0.9422 H   0  0  0  0  0  0  0  0  0  0  0  0
    9.6451    5.1528   -0.4650 H   0  0  0  0  0  0  0  0  0  0  0  0
    7.7456    3.0171    1.1772 C   0  0  2  0  0  3  0  0  0  0  0  0
    6.0499    3.7866   -0.0156 C   0  0  0  0  0  0  0  0  0  0  0  0
    5.0297    3.9171   -0.3108 H   0  0  0  0  0  0  0  0  0  0  0  0
    7.1915    4.3087   -0.5272 C   0  0  0  0  0  0  0  0  0  0  0  0
    7.3444    4.9790   -1.3471 H   0  0  0  0  0  0  0  0  0  0  0  0
    5.4812    2.2502    1.8418 C   0  0  0  0  0  0  0  0  0  0  0  0
    5.3942    1.2241    1.4765 H   0  0  0  0  0  0  0  0  0  0  0  0
    4.5021    2.7226    1.7925 H   0  0  0  0  0  0  0  0  0  0  0  0
    5.8099    2.2317    2.8812 H   0  0  0  0  0  0  0  0  0  0  0  0
  1  2  1  0  0  0  0
  1  8  2  0  0  0  0
  3  1  1  0  0  0  0
  4 13  1  0  0  0  0
  4  9  1  0  0  0  0
  5  8  1  0  0  0  0
  5 11  1  0  0  0  0
  6 41  1  0  0  0  0
  6 46  1  0  0  0  0
  8  4  1  0  0  0  0
  9 10  1  0  0  0  0
 11 12  1  0  0  0  0
 11  9  2  0  0  0  0
 13 14  1  0  0  0  0
 13 15  1  0  0  0  0
 16 13  1  0  0  0  0
 17 20  1  0  0  0  0
 17 19  1  0  0  0  0
 17  5  1  0  0  0  0
 18 17  1  0  0  0  0
 20 21  1  0  0  0  0
 22 20  1  0  0  0  0
 23 24  1  0  0  0  0
 23 20  1  0  0  0  0
 25 23  1  0  0  0  0
 26 23  1  0  0  0  0
 27 26  1  0  0  0  0
 28 26  1  0  0  0  0
 29 26  1  0  0  0  0
 29 31  1  0  0  0  0
 30 29  1  0  0  0  0
 32 35  1  0  0  0  0
 32 29  1  0  0  0  0
 33 32  1  0  0  0  0
 34 32  1  0  0  0  0
 35 37  1  0  0  0  0
 35 38  1  0  0  0  0
 36 35  1  0  0  0  0
 38  7  1  0  0  0  0
 38 39  1  0  0  0  0
 40 38  1  0  0  0  0
 41  7  1  6  0  0  0
 41  1  1  0  0  0  0
 42  6  1  0  0  0  0
 43 42  1  0  0  0  0
 44 42  2  0  0  0  0
 44  7  1  0  0  0  0
 45 44  1  0  0  0  0
 46 49  1  0  0  0  0
 47 46  1  0  0  0  0
 48 46  1  0  0  0  0
M  END
$$$$
