CSD_code = MGCACO | q = 0 | S = 0 | Stoichiometry = C14H20Cl2CoN5O4 | MND = 6
 OpenBabel04212202073D

 46 48  0  0  0  0  0  0  0  0999 V2000
   -1.9032    2.0070    2.5110 Cl  0  0  0  0  0  0  0  0  0  0  0  0
    0.6707    9.7137    5.0544 Cl  0  0  0  0  0  0  0  0  0  0  0  0
   -0.0587    3.0908    2.8378 Co  0  0  0  0  0  0  0  0  0  0  0  0
    1.5355    5.5427    3.6229 C   0  0  0  0  0  0  0  0  0  0  0  0
   -1.5497    5.2954    2.7820 C   0  0  0  0  0  0  0  0  0  0  0  0
   -1.5436    4.8649    4.1548 C   0  0  0  0  0  0  0  0  0  0  0  0
   -2.2586    6.5210    2.3102 C   0  0  0  0  0  0  0  0  0  0  0  0
   -2.2452    5.5986    5.2487 C   0  0  0  0  0  0  0  0  0  0  0  0
    1.4475    5.8083    4.9848 C   0  0  0  0  0  0  0  0  0  0  0  0
    1.1242    0.5957    2.8125 C   0  0  0  0  0  0  0  0  0  0  0  0
    1.1145    1.0279    1.4251 C   0  0  0  0  0  0  0  0  0  0  0  0
    1.5842   -0.7674    3.2036 C   0  0  0  0  0  0  0  0  0  0  0  0
    1.5639    0.1299    0.3232 C   0  0  0  0  0  0  0  0  0  0  0  0
    1.1848    7.0907    5.4273 C   0  0  0  0  0  0  0  0  0  0  0  0
    1.0182    8.1117    4.5041 C   0  0  0  0  0  0  0  0  0  0  0  0
    1.1202    7.8609    3.1444 C   0  0  0  0  0  0  0  0  0  0  0  0
    1.3824    6.5769    2.7063 C   0  0  0  0  0  0  0  0  0  0  0  0
   -1.8896    7.3998    2.8372 H   0  0  0  0  0  0  0  0  0  0  0  0
   -3.3277    6.4314    2.4925 H   0  0  0  0  0  0  0  0  0  0  0  0
   -2.0850    6.6391    1.2433 H   0  0  0  0  0  0  0  0  0  0  0  0
   -2.1021    5.0587    6.1816 H   0  0  0  0  0  0  0  0  0  0  0  0
   -3.3090    5.6711    5.0325 H   0  0  0  0  0  0  0  0  0  0  0  0
   -1.8423    6.6057    5.3500 H   0  0  0  0  0  0  0  0  0  0  0  0
    1.5508    5.0061    5.6998 H   0  0  0  0  0  0  0  0  0  0  0  0
    2.6077   -0.9389    2.8747 H   0  0  0  0  0  0  0  0  0  0  0  0
    0.9465   -1.5183    2.7405 H   0  0  0  0  0  0  0  0  0  0  0  0
    1.5278   -0.8718    4.2840 H   0  0  0  0  0  0  0  0  0  0  0  0
    1.4684    0.6488   -0.6271 H   0  0  0  0  0  0  0  0  0  0  0  0
    2.6000   -0.1711    0.4691 H   0  0  0  0  0  0  0  0  0  0  0  0
    0.9474   -0.7668    0.3032 H   0  0  0  0  0  0  0  0  0  0  0  0
    1.1037    7.2955    6.4825 H   0  0  0  0  0  0  0  0  0  0  0  0
    0.1286    3.6445    0.1302 H   0  0  0  0  0  0  0  0  0  0  0  0
    0.1606    2.0054    5.3770 H   0  0  0  0  0  0  0  0  0  0  0  0
    0.9900    8.6616    2.4343 H   0  0  0  0  0  0  0  0  0  0  0  0
    1.4367    6.3730    1.6475 H   0  0  0  0  0  0  0  0  0  0  0  0
    2.2022    4.2003    2.2692 H   0  0  0  0  0  0  0  0  0  0  0  0
    2.2514    3.6669    3.8469 H   0  0  0  0  0  0  0  0  0  0  0  0
    1.7193    4.2059    3.1661 N   0  0  0  0  0  4  0  0  0  0  0  0
   -0.8220    4.5553    2.0067 N   0  0  0  0  0  0  0  0  0  0  0  0
   -0.8097    3.8177    4.3632 N   0  0  0  0  0  0  0  0  0  0  0  0
    0.7053    1.4837    3.6474 N   0  0  0  0  0  0  0  0  0  0  0  0
    0.6899    2.2318    1.2483 N   0  0  0  0  0  0  0  0  0  0  0  0
   -0.5785    4.8143    0.7711 O   0  0  0  0  0  1  0  0  0  0  0  0
   -0.5583    3.3250    5.5233 O   0  0  0  0  0  1  0  0  0  0  0  0
    0.6937    1.2060    4.9672 O   0  0  0  0  0  0  0  0  0  0  0  0
    0.6607    2.7539    0.0051 O   0  0  0  0  0  0  0  0  0  0  0  0
  1  3  1  0  0  0  0
  3 38  1  0  0  0  0
  3 41  1  0  0  0  0
  3 40  1  0  0  0  0
  4  9  1  0  0  0  0
  5  6  2  0  0  0  0
  6 40  1  0  0  0  0
  6  8  1  0  0  0  0
  7 19  1  0  0  0  0
  7  5  1  0  0  0  0
  7 18  1  0  0  0  0
  8 23  1  0  0  0  0
  8 21  1  0  0  0  0
  9 14  2  0  0  0  0
  9 24  1  0  0  0  0
 10 12  1  0  0  0  0
 10 41  1  0  0  0  0
 11 10  2  0  0  0  0
 12 27  1  0  0  0  0
 13 29  1  0  0  0  0
 13 11  1  0  0  0  0
 14 31  1  0  0  0  0
 15  2  1  0  0  0  0
 15 14  1  0  0  0  0
 16 15  2  0  0  0  0
 17 16  1  0  0  0  0
 17  4  2  0  0  0  0
 20  7  1  0  0  0  0
 22  8  1  0  0  0  0
 25 12  1  0  0  0  0
 26 12  1  0  0  0  0
 28 13  1  0  0  0  0
 30 13  1  0  0  0  0
 34 16  1  0  0  0  0
 35 17  1  0  0  0  0
 36 38  1  0  0  0  0
 38  4  1  0  0  0  0
 38 37  1  0  0  0  0
 39  5  1  0  0  0  0
 39  3  1  0  0  0  0
 40 44  1  0  0  0  0
 41 45  1  0  0  0  0
 42 11  1  0  0  0  0
 42  3  1  0  0  0  0
 43 39  1  0  0  0  0
 45 33  1  0  0  0  0
 46 32  1  0  0  0  0
 46 42  1  0  0  0  0
M  END
$$$$
