CSD_code = MGSACO | q = 0 | S = 0 | Stoichiometry = C14H22ClCoN6O6S | MND = 6
 OpenBabel04212202073D

 51 53  0  0  0  0  0  0  0  0999 V2000
    3.1138    1.8048    0.0173 Cl  0  0  0  0  0  0  0  0  0  0  0  0
    1.0127    1.9275    0.5092 Co  0  0  0  0  0  0  0  0  0  0  0  0
   -1.3171    1.8012    2.4243 C   0  0  0  0  0  0  0  0  0  0  0  0
    1.6337    0.5344    2.6916 C   0  0  0  0  0  0  0  0  0  0  0  0
    1.8002    1.9162    3.0528 C   0  0  0  0  0  0  0  0  0  0  0  0
    1.8564   -0.5992    3.6374 C   0  0  0  0  0  0  0  0  0  0  0  0
    2.2159    2.3669    4.4144 C   0  0  0  0  0  0  0  0  0  0  0  0
   -1.3300    2.8823    3.3026 C   0  0  0  0  0  0  0  0  0  0  0  0
    0.7920    3.3315   -1.8597 C   0  0  0  0  0  0  0  0  0  0  0  0
    0.6244    1.9347   -2.2260 C   0  0  0  0  0  0  0  0  0  0  0  0
    0.8543    4.4075   -2.8891 C   0  0  0  0  0  0  0  0  0  0  0  0
    0.5033    1.5090   -3.6491 C   0  0  0  0  0  0  0  0  0  0  0  0
   -1.4823    2.6610    4.6588 C   0  0  0  0  0  0  0  0  0  0  0  0
   -1.6320    1.3690    5.1236 C   0  0  0  0  0  0  0  0  0  0  0  0
   -1.6514    0.2917    4.2602 C   0  0  0  0  0  0  0  0  0  0  0  0
   -1.4989    0.5056    2.9024 C   0  0  0  0  0  0  0  0  0  0  0  0
    0.2997    1.9383    7.3873 H   0  0  0  0  0  0  0  0  0  0  0  0
    1.7665   -1.5342    3.0890 H   0  0  0  0  0  0  0  0  0  0  0  0
    2.8469   -0.5332    4.0817 H   0  0  0  0  0  0  0  0  0  0  0  0
    1.1119   -0.5829    4.4340 H   0  0  0  0  0  0  0  0  0  0  0  0
    1.5204    1.9936    5.1658 H   0  0  0  0  0  0  0  0  0  0  0  0
    3.2129    1.9969    4.6470 H   0  0  0  0  0  0  0  0  0  0  0  0
    2.2240    3.4543    4.4349 H   0  0  0  0  0  0  0  0  0  0  0  0
   -1.1854    3.8842    2.9278 H   0  0  0  0  0  0  0  0  0  0  0  0
    1.0292    5.3634   -2.4024 H   0  0  0  0  0  0  0  0  0  0  0  0
   -0.0758    4.4552   -3.4534 H   0  0  0  0  0  0  0  0  0  0  0  0
    1.6657    4.2063   -3.5857 H   0  0  0  0  0  0  0  0  0  0  0  0
   -0.3165    2.0301   -4.1400 H   0  0  0  0  0  0  0  0  0  0  0  0
    1.4235    1.7424   -4.1820 H   0  0  0  0  0  0  0  0  0  0  0  0
    0.3322    0.4367   -3.6936 H   0  0  0  0  0  0  0  0  0  0  0  0
   -1.4978    3.4766    5.3636 H   0  0  0  0  0  0  0  0  0  0  0  0
    0.5980   -0.6222   -0.5110 H   0  0  0  0  0  0  0  0  0  0  0  0
    1.2290    4.6682    0.8802 H   0  0  0  0  0  0  0  0  0  0  0  0
   -1.7977   -0.6972    4.6643 H   0  0  0  0  0  0  0  0  0  0  0  0
   -1.4908   -0.3291    2.2174 H   0  0  0  0  0  0  0  0  0  0  0  0
   -1.4991    1.2936    0.4770 H   0  0  0  0  0  0  0  0  0  0  0  0
   -1.3731    2.9345    0.7519 H   0  0  0  0  0  0  0  0  0  0  0  0
    0.3740    0.2728    7.0976 H   0  0  0  0  0  0  0  0  0  0  0  0
   -1.0538    2.0129    1.0443 N   0  0  0  0  0  4  0  0  0  0  0  0
    1.1973    0.3683    1.4823 N   0  0  0  0  0  0  0  0  0  0  0  0
    1.4827    2.7393    2.1034 N   0  0  0  0  0  0  0  0  0  0  0  0
   -0.1774    1.0548    7.4018 N   0  0  0  0  0  0  0  0  0  0  0  0
    0.8783    3.5398   -0.5909 N   0  0  0  0  0  0  0  0  0  0  0  0
    0.5937    1.1242   -1.2246 N   0  0  0  0  0  0  0  0  0  0  0  0
   -2.2872   -0.2278    7.1017 O   0  0  0  0  0  0  0  0  0  0  0  0
    0.8535   -0.7637    0.9840 O   0  0  0  0  0  1  0  0  0  0  0  0
    1.4377    4.0155    2.2346 O   0  0  0  0  0  1  0  0  0  0  0  0
   -2.3671    2.2212    7.4984 O   0  0  0  0  0  0  0  0  0  0  0  0
    1.0074    4.8003   -0.1292 O   0  0  0  0  0  0  0  0  0  0  0  0
    0.4163   -0.1959   -1.4416 O   0  0  0  0  0  0  0  0  0  0  0  0
   -1.7607    1.0826    6.8853 S   0  0  0  0  0  0  0  0  0  0  0  0
  1  2  1  0  0  0  0
  2 39  1  0  0  0  0
  2 40  1  0  0  0  0
  2 41  1  0  0  0  0
  3 16  2  0  0  0  0
  3  8  1  0  0  0  0
  4  5  2  0  0  0  0
  4  6  1  0  0  0  0
  5  7  1  0  0  0  0
  6 19  1  0  0  0  0
  6 20  1  0  0  0  0
  7 23  1  0  0  0  0
  7 22  1  0  0  0  0
  7 21  1  0  0  0  0
  8 13  2  0  0  0  0
  9 43  1  0  0  0  0
 10  9  2  0  0  0  0
 10 44  1  0  0  0  0
 11 25  1  0  0  0  0
 11  9  1  0  0  0  0
 12 10  1  0  0  0  0
 13 14  1  0  0  0  0
 13 31  1  0  0  0  0
 14 51  1  0  0  0  0
 15 34  1  0  0  0  0
 15 14  2  0  0  0  0
 16 15  1  0  0  0  0
 17 42  1  0  0  0  0
 18  6  1  0  0  0  0
 24  8  1  0  0  0  0
 26 11  1  0  0  0  0
 27 11  1  0  0  0  0
 28 12  1  0  0  0  0
 29 12  1  0  0  0  0
 30 12  1  0  0  0  0
 35 16  1  0  0  0  0
 36 39  1  0  0  0  0
 37 39  1  0  0  0  0
 38 42  1  0  0  0  0
 39  3  1  0  0  0  0
 40  4  1  0  0  0  0
 41 47  1  0  0  0  0
 41  5  1  0  0  0  0
 43 49  1  0  0  0  0
 43  2  1  0  0  0  0
 44  2  1  0  0  0  0
 46 40  1  0  0  0  0
 49 33  1  0  0  0  0
 50 44  1  0  0  0  0
 50 32  1  0  0  0  0
 51 45  2  0  0  0  0
 51 42  1  0  0  0  0
 51 48  2  0  0  0  0
M  END
$$$$
