CSD_code = MGXPCO | q = 0 | S = 0 | Stoichiometry = C26H17ClCoN4O4P | MND = 6
 OpenBabel04212202073D

 54 62  0  0  1  0  0  0  0  0999 V2000
    2.2696    3.6567    2.4243 Cl  0  0  0  0  0  0  0  0  0  0  0  0
    1.5430    2.2350    0.9189 Co  0  0  0  0  0  0  0  0  0  0  0  0
    0.9301    0.1417    3.9464 C   0  0  2  0  0  3  0  0  0  0  0  0
    0.2704    1.7877   -3.2841 C   0  0  0  0  0  0  0  0  0  0  0  0
    0.6135    2.3097   -4.5185 C   0  0  0  0  0  0  0  0  0  0  0  0
    1.9432    2.4062   -4.8924 C   0  0  0  0  0  0  0  0  0  0  0  0
    2.9335    1.9690   -4.0284 C   0  0  0  0  0  0  0  0  0  0  0  0
    2.5993    1.4470   -2.7923 C   0  0  0  0  0  0  0  0  0  0  0  0
    1.5540   -0.8844   -0.5247 C   0  0  0  0  0  0  0  0  0  0  0  0
    1.1572   -1.5811    0.6194 C   0  0  0  0  0  0  0  0  0  0  0  0
    1.6874   -2.8231    0.9019 C   0  0  0  0  0  0  0  0  0  0  0  0
    2.6195   -3.3866    0.0438 C   0  0  0  0  0  0  0  0  0  0  0  0
    2.9935   -2.7143   -1.1060 C   0  0  0  0  0  0  0  0  0  0  0  0
    1.6883    0.5815    2.9091 C   0  0  2  0  0  3  0  0  0  0  0  0
    2.4651   -1.4670   -1.3954 C   0  0  0  0  0  0  0  0  0  0  0  0
   -0.9530    0.3799   -0.8746 C   0  0  0  0  0  0  0  0  0  0  0  0
   -1.8911    1.4086   -0.8069 C   0  0  0  0  0  0  0  0  0  0  0  0
   -3.2409    1.1321   -0.9271 C   0  0  0  0  0  0  0  0  0  0  0  0
   -3.6700   -0.1692   -1.1247 C   0  0  0  0  0  0  0  0  0  0  0  0
   -2.7407   -1.1917   -1.2202 C   0  0  0  0  0  0  0  0  0  0  0  0
   -1.3894   -0.9241   -1.0981 C   0  0  0  0  0  0  0  0  0  0  0  0
    0.2088    1.2162    3.0354 C   0  0  2  0  0  0  0  0  0  0  0  0
   -0.3209    0.5207    4.2663 C   0  0  0  0  0  2  0  0  0  0  0  0
    2.4890    4.9071   -1.5211 C   0  0  1  0  0  3  0  0  0  0  0  0
    1.6226    4.2780   -0.6831 C   0  0  2  0  0  3  0  0  0  0  0  0
    3.0877    3.6324   -0.7974 C   0  0  1  0  0  0  0  0  0  0  0  0
    3.7504    4.5437   -1.8095 C   0  0  0  0  0  2  0  0  0  0  0  0
    1.2601    1.3465   -2.4086 C   0  0  0  0  0  0  0  0  0  0  0  0
   -0.7708    1.7222   -3.0052 H   0  0  0  0  0  0  0  0  0  0  0  0
    2.7560   -0.9636   -2.3040 H   0  0  0  0  0  0  0  0  0  0  0  0
   -1.5784    2.4323   -0.6721 H   0  0  0  0  0  0  0  0  0  0  0  0
   -3.9552    1.9384   -0.8626 H   0  0  0  0  0  0  0  0  0  0  0  0
   -4.7239   -0.3863   -1.2098 H   0  0  0  0  0  0  0  0  0  0  0  0
   -3.0667   -2.2070   -1.3904 H   0  0  0  0  0  0  0  0  0  0  0  0
   -0.6789   -1.7329   -1.1814 H   0  0  0  0  0  0  0  0  0  0  0  0
   -1.1542    3.3019    1.2987 H   0  0  0  0  0  0  0  0  0  0  0  0
    4.2274    1.1553    0.5845 H   0  0  0  0  0  0  0  0  0  0  0  0
   -0.1643    2.6476   -5.1866 H   0  0  0  0  0  0  0  0  0  0  0  0
    2.2079    2.8238   -5.8516 H   0  0  0  0  0  0  0  0  0  0  0  0
    3.9730    2.0464   -4.3067 H   0  0  0  0  0  0  0  0  0  0  0  0
    3.3917    1.1243   -2.1331 H   0  0  0  0  0  0  0  0  0  0  0  0
    0.4103   -1.1483    1.2746 H   0  0  0  0  0  0  0  0  0  0  0  0
    1.3769   -3.3500    1.7916 H   0  0  0  0  0  0  0  0  0  0  0  0
    3.0463   -4.3516    0.2701 H   0  0  0  0  0  0  0  0  0  0  0  0
    3.7058   -3.1583   -1.7849 H   0  0  0  0  0  0  0  0  0  0  0  0
    2.4313    0.8093    1.9263 N   0  0  0  0  0  0  0  0  0  0  0  0
   -0.0282    1.9645    2.0409 N   0  0  0  0  0  0  0  0  0  0  0  0
    0.7109    3.7524   -0.0025 N   0  0  0  0  0  0  0  0  0  0  0  0
    3.1657    2.5880   -0.0864 N   0  0  0  0  0  0  0  0  0  0  0  0
    3.5503    0.2799    1.6454 O   0  0  0  0  0  1  0  0  0  0  0  0
   -1.2576    2.5549    1.9812 O   0  0  0  0  0  0  0  0  0  0  0  0
   -0.4969    4.1229    0.1180 O   0  0  0  0  0  1  0  0  0  0  0  0
    4.3297    1.8785   -0.1362 O   0  0  0  0  0  0  0  0  0  0  0  0
    0.8257    0.7726   -0.7304 P   0  0  0  0  0  4  0  0  0  0  0  0
  2 46  1  0  0  0  0
  2 47  1  0  0  0  0
  2  1  1  0  0  0  0
  3 23  1  1  0  0  0
  4 29  1  0  0  0  0
  4 28  1  0  0  0  0
  5  4  2  0  0  0  0
  6  5  1  0  0  0  0
  6  7  2  0  0  0  0
  7  8  1  0  0  0  0
  8 28  2  0  0  0  0
  8 41  1  0  0  0  0
  9 10  1  0  0  0  0
 10 11  2  0  0  0  0
 10 42  1  0  0  0  0
 11 43  1  0  0  0  0
 12 44  1  0  0  0  0
 12 11  1  0  0  0  0
 13 12  2  0  0  0  0
 14 46  1  6  0  0  0
 14 22  1  0  0  0  0
 14  3  1  0  0  0  0
 15 13  1  0  0  0  0
 15  9  2  0  0  0  0
 16 17  1  0  0  0  0
 16 54  1  0  0  0  0
 17 31  1  0  0  0  0
 18 32  1  0  0  0  0
 18 17  2  0  0  0  0
 19 18  1  0  0  0  0
 20 19  2  0  0  0  0
 20 21  1  0  0  0  0
 21 16  2  0  0  0  0
 22  3  1  0  0  0  0
 22 23  1  1  0  0  0
 24 27  1  6  0  0  0
 24 26  1  0  0  0  0
 24 25  1  0  0  0  0
 25 48  1  6  0  0  0
 26 27  1  6  0  0  0
 26 25  1  0  0  0  0
 26 49  1  0  0  0  0
 28 54  1  0  0  0  0
 30 15  1  0  0  0  0
 33 19  1  0  0  0  0
 34 20  1  0  0  0  0
 35 21  1  0  0  0  0
 36 51  1  0  0  0  0
 38  5  1  0  0  0  0
 39  6  1  0  0  0  0
 40  7  1  0  0  0  0
 45 13  1  0  0  0  0
 47 22  1  0  0  0  0
 48 52  1  0  0  0  0
 48  2  1  0  0  0  0
 49  2  1  0  0  0  0
 50 46  1  0  0  0  0
 51 47  1  0  0  0  0
 53 49  1  0  0  0  0
 53 37  1  0  0  0  0
 54  9  1  0  0  0  0
 54  2  1  0  0  0  0
M  END
$$$$
