CSD_code = MIBCEH | q = 0 | S = 0 | Stoichiometry = C18H36BrNP2Pt | MND = 4
 OpenBabel04212202073D

 59 59  0  0  0  0  0  0  0  0999 V2000
    2.9925   12.5912    2.8737 Pt  0  0  0  0  0  0  0  0  0  0  0  0
    5.1754   12.4147    4.1097 Br  0  0  0  0  0  0  0  0  0  0  0  0
    3.1869   14.8625    2.9646 P   0  0  0  0  0  4  0  0  0  0  0  0
    2.9168   10.3122    2.8413 P   0  0  0  0  0  4  0  0  0  0  0  0
    2.3128   12.9758   -0.1582 N   0  0  0  0  0  0  0  0  0  0  0  0
    1.1835   12.7407    1.9539 C   0  0  0  0  0  0  0  0  0  0  0  0
    1.1255   12.8712    0.5606 C   0  0  0  0  0  0  0  0  0  0  0  0
   -0.1053   12.9673   -0.0808 C   0  0  0  0  0  0  0  0  0  0  0  0
   -0.1360   13.0621   -1.1584 H   0  0  0  0  0  0  0  0  0  0  0  0
   -1.2778   12.9453    0.6530 C   0  0  0  0  0  0  0  0  0  0  0  0
   -2.2287   13.0200    0.1451 H   0  0  0  0  0  0  0  0  0  0  0  0
   -1.2305   12.8260    2.0288 C   0  0  0  0  0  0  0  0  0  0  0  0
   -2.1430   12.8083    2.6074 H   0  0  0  0  0  0  0  0  0  0  0  0
   -0.0006   12.7247    2.6680 C   0  0  0  0  0  0  0  0  0  0  0  0
    0.0188   12.6300    3.7479 H   0  0  0  0  0  0  0  0  0  0  0  0
    1.4830    9.5108    1.9911 C   0  0  0  0  0  0  0  0  0  0  0  0
    0.5965    9.8232    2.5509 H   0  0  0  0  0  0  0  0  0  0  0  0
    1.3976    9.9720    1.0031 H   0  0  0  0  0  0  0  0  0  0  0  0
    1.5195    7.9946    1.8586 C   0  0  0  0  0  0  0  0  0  0  0  0
    2.3146    7.6754    1.1887 H   0  0  0  0  0  0  0  0  0  0  0  0
    0.5748    7.6419    1.4480 H   0  0  0  0  0  0  0  0  0  0  0  0
    1.6655    7.5128    2.8231 H   0  0  0  0  0  0  0  0  0  0  0  0
    2.8448    9.6564    4.5584 C   0  0  0  0  0  0  0  0  0  0  0  0
    2.5727    8.5981    4.5585 H   0  0  0  0  0  0  0  0  0  0  0  0
    3.8490    9.7548    4.9801 H   0  0  0  0  0  0  0  0  0  0  0  0
    1.8622   10.4845    5.3777 C   0  0  0  0  0  0  0  0  0  0  0  0
    2.1373   11.5412    5.3069 H   0  0  0  0  0  0  0  0  0  0  0  0
    1.8847   10.1948    6.4265 H   0  0  0  0  0  0  0  0  0  0  0  0
    0.8453   10.3684    5.0063 H   0  0  0  0  0  0  0  0  0  0  0  0
    4.3984    9.4489    2.1699 C   0  0  0  0  0  0  0  0  0  0  0  0
    5.2412    9.7260    2.8091 H   0  0  0  0  0  0  0  0  0  0  0  0
    4.2538    8.3683    2.2449 H   0  0  0  0  0  0  0  0  0  0  0  0
    4.6837    9.8763    0.7353 C   0  0  0  0  0  0  0  0  0  0  0  0
    3.8400    9.6570    0.0822 H   0  0  0  0  0  0  0  0  0  0  0  0
    5.5623    9.3638    0.3483 H   0  0  0  0  0  0  0  0  0  0  0  0
    4.8791   10.9487    0.7038 H   0  0  0  0  0  0  0  0  0  0  0  0
    1.9255   15.8630    2.0616 C   0  0  0  0  0  0  0  0  0  0  0  0
    2.0484   15.6130    1.0039 H   0  0  0  0  0  0  0  0  0  0  0  0
    0.9482   15.4738    2.3595 H   0  0  0  0  0  0  0  0  0  0  0  0
    1.9714   17.3716    2.2601 C   0  0  0  0  0  0  0  0  0  0  0  0
    1.7629   17.6415    3.2926 H   0  0  0  0  0  0  0  0  0  0  0  0
    1.2170   17.8434    1.6330 H   0  0  0  0  0  0  0  0  0  0  0  0
    2.9392   17.7839    1.9837 H   0  0  0  0  0  0  0  0  0  0  0  0
    3.1739   15.5199    4.6818 C   0  0  0  0  0  0  0  0  0  0  0  0
    4.0290   15.0703    5.1952 H   0  0  0  0  0  0  0  0  0  0  0  0
    3.3169   16.6035    4.6703 H   0  0  0  0  0  0  0  0  0  0  0  0
    1.8824   15.1281    5.3891 C   0  0  0  0  0  0  0  0  0  0  0  0
    1.0199   15.6054    4.9277 H   0  0  0  0  0  0  0  0  0  0  0  0
    1.9140   15.4087    6.4402 H   0  0  0  0  0  0  0  0  0  0  0  0
    1.7451   14.0473    5.3253 H   0  0  0  0  0  0  0  0  0  0  0  0
    4.7987   15.4838    2.3277 C   0  0  0  0  0  0  0  0  0  0  0  0
    4.7570   16.5689    2.2072 H   0  0  0  0  0  0  0  0  0  0  0  0
    5.5575   15.2501    3.0791 H   0  0  0  0  0  0  0  0  0  0  0  0
    5.1490   14.7953    1.0143 C   0  0  0  0  0  0  0  0  0  0  0  0
    5.2351   13.7206    1.1825 H   0  0  0  0  0  0  0  0  0  0  0  0
    6.1023   15.1539    0.6310 H   0  0  0  0  0  0  0  0  0  0  0  0
    4.3807   14.9680    0.2626 H   0  0  0  0  0  0  0  0  0  0  0  0
    2.2601   12.7284   -1.1347 H   0  0  0  0  0  0  0  0  0  0  0  0
    3.1086   12.5713    0.3270 H   0  0  0  0  0  0  0  0  0  0  0  0
  1  3  1  0  0  0  0
  1  2  1  0  0  0  0
  3 44  1  0  0  0  0
  4  1  1  0  0  0  0
  4 23  1  0  0  0  0
  5 59  1  0  0  0  0
  5  7  1  0  0  0  0
  6 14  1  0  0  0  0
  6  1  1  0  0  0  0
  7  6  2  0  0  0  0
  8  7  1  0  0  0  0
  8 10  2  0  0  0  0
  9  8  1  0  0  0  0
 10 12  1  0  0  0  0
 11 10  1  0  0  0  0
 12 13  1  0  0  0  0
 12 14  2  0  0  0  0
 14 15  1  0  0  0  0
 16 17  1  0  0  0  0
 16  4  1  0  0  0  0
 18 16  1  0  0  0  0
 19 16  1  0  0  0  0
 19 22  1  0  0  0  0
 20 19  1  0  0  0  0
 21 19  1  0  0  0  0
 23 24  1  0  0  0  0
 23 25  1  0  0  0  0
 23 26  1  0  0  0  0
 26 28  1  0  0  0  0
 27 26  1  0  0  0  0
 29 26  1  0  0  0  0
 30 32  1  0  0  0  0
 30 31  1  0  0  0  0
 30  4  1  0  0  0  0
 33 30  1  0  0  0  0
 34 33  1  0  0  0  0
 35 33  1  0  0  0  0
 36 33  1  0  0  0  0
 37 40  1  0  0  0  0
 37 39  1  0  0  0  0
 37  3  1  0  0  0  0
 38 37  1  0  0  0  0
 40 41  1  0  0  0  0
 42 40  1  0  0  0  0
 43 40  1  0  0  0  0
 44 45  1  0  0  0  0
 44 47  1  0  0  0  0
 46 44  1  0  0  0  0
 47 49  1  0  0  0  0
 48 47  1  0  0  0  0
 50 47  1  0  0  0  0
 51  3  1  0  0  0  0
 51 53  1  0  0  0  0
 52 51  1  0  0  0  0
 54 55  1  0  0  0  0
 54 51  1  0  0  0  0
 56 54  1  0  0  0  0
 57 54  1  0  0  0  0
 58  5  1  0  0  0  0
M  END
$$$$
