CSD_code = MIBDAE | q = 0 | S = 0 | Stoichiometry = C26H38Br2P2Pt | MND = 4
 OpenBabel04212202073D

 69 71  0  0  0  0  0  0  0  0999 V2000
    1.8778    3.6341    3.6477 Pt  0  0  0  0  0  0  0  0  0  0  0  0
   -0.5457    4.2342    3.7094 Br  0  0  0  0  0  0  0  0  0  0  0  0
    2.7511    0.5716    3.2541 Br  0  0  0  0  0  0  0  0  0  0  0  0
    1.8944    3.2401    5.9093 P   0  0  0  0  0  4  0  0  0  0  0  0
    1.8274    4.2801    1.4465 P   0  0  0  0  0  4  0  0  0  0  0  0
    5.8765    0.0447    3.0645 C   0  0  0  0  0  0  0  0  0  0  0  0
    5.0845   -0.6863    2.9980 H   0  0  0  0  0  0  0  0  0  0  0  0
    7.1834   -0.3556    2.9590 C   0  0  0  0  0  0  0  0  0  0  0  0
    7.4202   -1.3985    2.8108 H   0  0  0  0  0  0  0  0  0  0  0  0
    8.2054    0.5882    3.0427 C   0  0  0  0  0  0  0  0  0  0  0  0
    9.2356    0.2750    2.9590 H   0  0  0  0  0  0  0  0  0  0  0  0
    7.9050    1.9146    3.2305 C   0  0  0  0  0  0  0  0  0  0  0  0
    8.7157    2.6232    3.2909 H   0  0  0  0  0  0  0  0  0  0  0  0
    7.2008    4.7698    3.6425 C   0  0  0  0  0  0  0  0  0  0  0  0
    8.2501    4.5304    3.5720 H   0  0  0  0  0  0  0  0  0  0  0  0
    6.8414    6.0817    3.8322 C   0  0  0  0  0  0  0  0  0  0  0  0
    7.6046    6.8426    3.9062 H   0  0  0  0  0  0  0  0  0  0  0  0
    5.4963    6.4396    3.9306 C   0  0  0  0  0  0  0  0  0  0  0  0
    5.2208    7.4731    4.0813 H   0  0  0  0  0  0  0  0  0  0  0  0
    4.5359    5.4677    3.8346 C   0  0  0  0  0  0  0  0  0  0  0  0
    3.4814    5.7198    3.9077 H   0  0  0  0  0  0  0  0  0  0  0  0
    3.8367    3.1440    3.5436 C   0  0  0  0  0  0  0  0  0  0  0  0
    4.2004    1.8487    3.3654 C   0  0  0  0  0  0  0  0  0  0  0  0
    5.5457    1.3945    3.2567 C   0  0  0  0  0  0  0  0  0  0  0  0
    6.5800    2.3621    3.3430 C   0  0  0  0  0  0  0  0  0  0  0  0
    6.2404    3.7502    3.5409 C   0  0  0  0  0  0  0  0  0  0  0  0
    4.8780    4.1196    3.6392 C   0  0  0  0  0  0  0  0  0  0  0  0
    3.2442    2.1743    6.5909 C   0  0  0  0  0  0  0  0  0  0  0  0
    3.1807    1.2059    6.0883 H   0  0  0  0  0  0  0  0  0  0  0  0
    4.1860    2.6393    6.2803 H   0  0  0  0  0  0  0  0  0  0  0  0
    3.2464    1.9608    8.0988 C   0  0  0  0  0  0  0  0  0  0  0  0
    3.3147    2.9049    8.6340 H   0  0  0  0  0  0  0  0  0  0  0  0
    4.1078    1.3553    8.3760 H   0  0  0  0  0  0  0  0  0  0  0  0
    2.3525    1.4358    8.4259 H   0  0  0  0  0  0  0  0  0  0  0  0
    2.1266    4.7998    6.8647 C   0  0  0  0  0  0  0  0  0  0  0  0
    1.8775    4.6164    7.9135 H   0  0  0  0  0  0  0  0  0  0  0  0
    3.1882    5.0599    6.7981 H   0  0  0  0  0  0  0  0  0  0  0  0
    1.2765    5.9374    6.3128 C   0  0  0  0  0  0  0  0  0  0  0  0
    1.4850    6.0875    5.2525 H   0  0  0  0  0  0  0  0  0  0  0  0
    1.4906    6.8661    6.8388 H   0  0  0  0  0  0  0  0  0  0  0  0
    0.2158    5.7192    6.4155 H   0  0  0  0  0  0  0  0  0  0  0  0
    0.3572    2.5361    6.6298 C   0  0  0  0  0  0  0  0  0  0  0  0
    0.4761    2.4417    7.7126 H   0  0  0  0  0  0  0  0  0  0  0  0
   -0.4461    3.2511    6.4340 H   0  0  0  0  0  0  0  0  0  0  0  0
    0.0142    1.1994    5.9840 C   0  0  0  0  0  0  0  0  0  0  0  0
   -0.0772    1.3207    4.9051 H   0  0  0  0  0  0  0  0  0  0  0  0
   -0.9347    0.8257    6.3623 H   0  0  0  0  0  0  0  0  0  0  0  0
    0.7827    0.4536    6.1783 H   0  0  0  0  0  0  0  0  0  0  0  0
    1.4818    6.0927    1.3400 C   0  0  0  0  0  0  0  0  0  0  0  0
    0.6929    6.3078    2.0670 H   0  0  0  0  0  0  0  0  0  0  0  0
    2.3932    6.6011    1.6729 H   0  0  0  0  0  0  0  0  0  0  0  0
    1.0581    6.6226   -0.0246 C   0  0  0  0  0  0  0  0  0  0  0  0
    1.8105    6.4314   -0.7865 H   0  0  0  0  0  0  0  0  0  0  0  0
    0.9131    7.6996    0.0373 H   0  0  0  0  0  0  0  0  0  0  0  0
    0.1195    6.1767   -0.3429 H   0  0  0  0  0  0  0  0  0  0  0  0
    3.3337    4.1583    0.3774 C   0  0  0  0  0  0  0  0  0  0  0  0
    3.1742    4.7751   -0.5112 H   0  0  0  0  0  0  0  0  0  0  0  0
    4.1575    4.5988    0.9484 H   0  0  0  0  0  0  0  0  0  0  0  0
    3.6968    2.7413   -0.0448 C   0  0  0  0  0  0  0  0  0  0  0  0
    3.7792    2.0869    0.8186 H   0  0  0  0  0  0  0  0  0  0  0  0
    4.6563    2.7385   -0.5598 H   0  0  0  0  0  0  0  0  0  0  0  0
    2.9490    2.3319   -0.7201 H   0  0  0  0  0  0  0  0  0  0  0  0
    0.4906    3.5126    0.4386 C   0  0  0  0  0  0  0  0  0  0  0  0
   -0.4306    4.0544    0.6712 H   0  0  0  0  0  0  0  0  0  0  0  0
    0.7214    3.6459   -0.6223 H   0  0  0  0  0  0  0  0  0  0  0  0
    0.2983    2.0399    0.7848 C   0  0  0  0  0  0  0  0  0  0  0  0
    1.1789    1.4487    0.5465 H   0  0  0  0  0  0  0  0  0  0  0  0
   -0.5503    1.6308    0.2401 H   0  0  0  0  0  0  0  0  0  0  0  0
    0.0964    1.9322    1.8504 H   0  0  0  0  0  0  0  0  0  0  0  0
  1  2  1  0  0  0  0
  1  4  1  0  0  0  0
  3 23  1  0  0  0  0
  4 28  1  0  0  0  0
  4 42  1  0  0  0  0
  4 35  1  0  0  0  0
  5  1  1  0  0  0  0
  6 24  1  0  0  0  0
  7  6  1  0  0  0  0
  8 10  1  0  0  0  0
  8  6  2  0  0  0  0
  9  8  1  0  0  0  0
 10 12  2  0  0  0  0
 11 10  1  0  0  0  0
 12 13  1  0  0  0  0
 12 25  1  0  0  0  0
 14 16  1  0  0  0  0
 15 14  1  0  0  0  0
 16 17  1  0  0  0  0
 16 18  2  0  0  0  0
 18 19  1  0  0  0  0
 20 21  1  0  0  0  0
 20 18  1  0  0  0  0
 22 27  1  0  0  0  0
 22  1  1  0  0  0  0
 23 22  2  0  0  0  0
 24 25  2  0  0  0  0
 24 23  1  0  0  0  0
 25 26  1  0  0  0  0
 26 27  1  0  0  0  0
 26 14  2  0  0  0  0
 27 20  2  0  0  0  0
 28 31  1  0  0  0  0
 29 28  1  0  0  0  0
 30 28  1  0  0  0  0
 31 33  1  0  0  0  0
 31 34  1  0  0  0  0
 31 32  1  0  0  0  0
 35 36  1  0  0  0  0
 37 35  1  0  0  0  0
 38 41  1  0  0  0  0
 38 40  1  0  0  0  0
 38 35  1  0  0  0  0
 39 38  1  0  0  0  0
 42 43  1  0  0  0  0
 44 42  1  0  0  0  0
 45 48  1  0  0  0  0
 45 47  1  0  0  0  0
 45 42  1  0  0  0  0
 46 45  1  0  0  0  0
 49  5  1  0  0  0  0
 49 51  1  0  0  0  0
 49 50  1  0  0  0  0
 52 54  1  0  0  0  0
 52 49  1  0  0  0  0
 53 52  1  0  0  0  0
 55 52  1  0  0  0  0
 56 58  1  0  0  0  0
 56  5  1  0  0  0  0
 57 56  1  0  0  0  0
 59 56  1  0  0  0  0
 59 60  1  0  0  0  0
 61 59  1  0  0  0  0
 62 59  1  0  0  0  0
 63 64  1  0  0  0  0
 63 66  1  0  0  0  0
 63  5  1  0  0  0  0
 65 63  1  0  0  0  0
 66 69  1  0  0  0  0
 67 66  1  0  0  0  0
 68 66  1  0  0  0  0
M  END
$$$$
