CSD_code = MICJEQ | q = 0 | S = 0 | Stoichiometry = C15H16Cl2N2Pd | MND = 4
 OpenBabel04212202073D

 36 38  0  0  0  0  0  0  0  0999 V2000
    4.0838    6.9345    1.9825 Pd  0  0  0  0  0  0  0  0  0  0  0  0
    6.0756    6.5413    1.9546 N   0  0  0  0  0  0  0  0  0  0  0  0
    4.1221    5.4882    3.2755 N   0  0  0  0  0  0  0  0  0  0  0  0
    7.0348    7.1374    1.2526 C   0  0  0  0  0  0  0  0  0  0  0  0
    6.7249    7.9935    0.6635 H   0  0  0  0  0  0  0  0  0  0  0  0
    8.3456    6.6951    1.2701 C   0  0  0  0  0  0  0  0  0  0  0  0
    9.0933    7.2076    0.6872 H   0  0  0  0  0  0  0  0  0  0  0  0
    8.6792    5.5872    2.0454 C   0  0  0  0  0  0  0  0  0  0  0  0
    9.6942    5.2219    2.0724 H   0  0  0  0  0  0  0  0  0  0  0  0
    7.6894    4.9644    2.7773 C   0  0  0  0  0  0  0  0  0  0  0  0
    7.9005    4.1026    3.3909 H   0  0  0  0  0  0  0  0  0  0  0  0
    6.3844    5.4627    2.7166 C   0  0  0  0  0  0  0  0  0  0  0  0
    5.2737    4.9275    3.4502 C   0  0  0  0  0  0  0  0  0  0  0  0
    5.4133    4.1100    4.1541 H   0  0  0  0  0  0  0  0  0  0  0  0
    2.9931    5.0975    4.0126 C   0  0  0  0  0  0  0  0  0  0  0  0
    2.2566    3.9758    3.6253 C   0  0  0  0  0  0  0  0  0  0  0  0
    1.1336    3.6416    4.3622 C   0  0  0  0  0  0  0  0  0  0  0  0
    0.5489    2.7826    4.0668 H   0  0  0  0  0  0  0  0  0  0  0  0
    0.7303    4.3975    5.4558 C   0  0  0  0  0  0  0  0  0  0  0  0
    1.4579    5.5307    5.7919 C   0  0  0  0  0  0  0  0  0  0  0  0
    1.1326    6.1476    6.6168 H   0  0  0  0  0  0  0  0  0  0  0  0
    2.5828    5.9058    5.0769 C   0  0  0  0  0  0  0  0  0  0  0  0
    2.6543    3.2286    2.3880 C   0  0  0  0  0  0  0  0  0  0  0  0
    3.5691    2.6555    2.5439 H   0  0  0  0  0  0  0  0  0  0  0  0
    2.8332    3.9427    1.5757 H   0  0  0  0  0  0  0  0  0  0  0  0
    1.8667    2.5445    2.0853 H   0  0  0  0  0  0  0  0  0  0  0  0
   -0.4782    3.9961    6.2445 C   0  0  0  0  0  0  0  0  0  0  0  0
   -0.2442    3.1421    6.8808 H   0  0  0  0  0  0  0  0  0  0  0  0
   -1.2892    3.7051    5.5805 H   0  0  0  0  0  0  0  0  0  0  0  0
   -0.8181    4.8113    6.8774 H   0  0  0  0  0  0  0  0  0  0  0  0
    3.3456    7.1598    5.3830 C   0  0  0  0  0  0  0  0  0  0  0  0
    3.4366    7.7710    4.4653 H   0  0  0  0  0  0  0  0  0  0  0  0
    4.3520    6.9317    5.7399 H   0  0  0  0  0  0  0  0  0  0  0  0
    2.8322    7.7460    6.1399 H   0  0  0  0  0  0  0  0  0  0  0  0
    4.2119    8.5946    0.5252 Cl  0  0  0  0  0  0  0  0  0  0  0  0
    1.8700    7.1348    1.9854 Cl  0  0  0  0  0  0  0  0  0  0  0  0
  1 36  1  0  0  0  0
  1  3  1  0  0  0  0
  2  1  1  0  0  0  0
  2 12  1  0  0  0  0
  3 13  1  0  0  0  0
  3 15  1  0  0  0  0
  4  6  2  0  0  0  0
  4  2  1  0  0  0  0
  5  4  1  0  0  0  0
  6  8  1  0  0  0  0
  7  6  1  0  0  0  0
  8  9  1  0  0  0  0
  8 10  2  0  0  0  0
 10 11  1  0  0  0  0
 12 10  1  0  0  0  0
 12 13  2  0  0  0  0
 13 14  1  0  0  0  0
 15 22  1  0  0  0  0
 16 15  2  0  0  0  0
 16 17  1  0  0  0  0
 17 19  2  0  0  0  0
 18 17  1  0  0  0  0
 19 20  1  0  0  0  0
 19 27  1  0  0  0  0
 20 21  1  0  0  0  0
 22 31  1  0  0  0  0
 22 20  2  0  0  0  0
 23 24  1  0  0  0  0
 23 16  1  0  0  0  0
 25 23  1  0  0  0  0
 26 23  1  0  0  0  0
 27 30  1  0  0  0  0
 27 28  1  0  0  0  0
 29 27  1  0  0  0  0
 31 33  1  0  0  0  0
 31 34  1  0  0  0  0
 32 31  1  0  0  0  0
 35  1  1  0  0  0  0
M  END
$$$$
