CSD_code = MICSEY | q = 0 | S = 0 | Stoichiometry = C22H32Cl2N2O2RuS2 | MND = 6
 OpenBabel04212202073D

 63 67  0  0  1  0  0  0  0  0999 V2000
    3.8905    7.1958   12.5605 Ru  0  0  0  0  0  0  0  0  0  0  0  0
    3.3101    5.4504   11.0987 Cl  0  0  0  0  0  0  0  0  0  0  0  0
    2.2634    6.5207   14.1161 Cl  0  0  0  0  0  0  0  0  0  0  0  0
    5.4199    5.8403   13.5180 S   0  0  1  0  0  0  0  0  0  0  0  0
    2.3639    8.5554   11.6038 S   0  0  1  0  0  0  0  0  0  0  0  0
    2.4028    9.9742   11.9713 O   0  0  0  0  0  1  0  0  0  0  0  0
    6.8144    5.9891   13.0905 O   0  0  0  0  0  1  0  0  0  0  0  0
    4.7259    8.6641   13.9547 N   0  0  1  0  0  4  0  0  0  0  0  0
    5.2203    8.1008   11.0745 N   0  0  2  0  0  4  0  0  0  0  0  0
    5.3726    6.6095   15.1861 C   0  0  0  0  0  0  0  0  0  0  0  0
    4.3628    6.4634   15.5673 H   0  0  0  0  0  0  0  0  0  0  0  0
    6.1180    6.1442   15.8262 H   0  0  0  0  0  0  0  0  0  0  0  0
    5.6967    8.0658   14.8963 C   0  0  0  0  0  0  0  0  0  0  0  0
    5.7225    8.6523   15.8232 H   0  0  0  0  0  0  0  0  0  0  0  0
    6.6962    8.0870   14.4515 H   0  0  0  0  0  0  0  0  0  0  0  0
    5.3870    9.6088   13.0427 C   0  0  0  0  0  0  0  0  0  0  0  0
    6.0895   10.2521   13.5914 H   0  0  0  0  0  0  0  0  0  0  0  0
    4.6043   10.2443   12.6196 H   0  0  0  0  0  0  0  0  0  0  0  0
    6.1343    8.8833   11.9194 C   0  0  0  0  0  0  0  0  0  0  0  0
    6.6882    9.6173   11.3169 H   0  0  0  0  0  0  0  0  0  0  0  0
    6.8554    8.1803   12.3452 H   0  0  0  0  0  0  0  0  0  0  0  0
    4.4988    8.9724   10.1220 C   0  0  0  0  0  0  0  0  0  0  0  0
    4.4457    9.9878   10.5260 H   0  0  0  0  0  0  0  0  0  0  0  0
    5.0438    9.0109    9.1706 H   0  0  0  0  0  0  0  0  0  0  0  0
    3.0678    8.5071    9.9070 C   0  0  0  0  0  0  0  0  0  0  0  0
    2.9999    7.4734    9.5709 H   0  0  0  0  0  0  0  0  0  0  0  0
    2.5119    9.1807    9.2595 H   0  0  0  0  0  0  0  0  0  0  0  0
    0.6494    8.1764   11.2503 C   0  0  0  0  0  0  0  0  0  0  0  0
    0.2368    6.8632   11.1149 C   0  0  0  0  0  0  0  0  0  0  0  0
    0.9508    6.0593   11.2148 H   0  0  0  0  0  0  0  0  0  0  0  0
   -1.0959    6.6078   10.8515 C   0  0  0  0  0  0  0  0  0  0  0  0
   -1.4301    5.5865   10.7447 H   0  0  0  0  0  0  0  0  0  0  0  0
   -2.0148    7.6463   10.7299 C   0  0  0  0  0  0  0  0  0  0  0  0
   -1.5741    8.9564   10.8803 C   0  0  0  0  0  0  0  0  0  0  0  0
   -2.2775    9.7723   10.7947 H   0  0  0  0  0  0  0  0  0  0  0  0
   -0.2444    9.2253   11.1469 C   0  0  0  0  0  0  0  0  0  0  0  0
    0.1143   10.2342   11.2847 H   0  0  0  0  0  0  0  0  0  0  0  0
   -3.4592    7.3474   10.4690 C   0  0  0  0  0  0  0  0  0  0  0  0
   -3.9875    8.2338   10.1269 H   0  0  0  0  0  0  0  0  0  0  0  0
   -3.9354    6.9979   11.3852 H   0  0  0  0  0  0  0  0  0  0  0  0
   -3.5607    6.5631    9.7219 H   0  0  0  0  0  0  0  0  0  0  0  0
    5.9711    7.0963   10.3190 C   0  0  0  0  0  0  0  0  0  0  0  0
    6.7048    7.5707    9.6568 H   0  0  0  0  0  0  0  0  0  0  0  0
    5.2776    6.5015    9.7275 H   0  0  0  0  0  0  0  0  0  0  0  0
    6.4913    6.4315   11.0069 H   0  0  0  0  0  0  0  0  0  0  0  0
    3.6861    9.3508   14.7231 C   0  0  0  0  0  0  0  0  0  0  0  0
    4.1156   10.1513   15.3369 H   0  0  0  0  0  0  0  0  0  0  0  0
    3.1812    8.6310   15.3646 H   0  0  0  0  0  0  0  0  0  0  0  0
    2.9499    9.7795   14.0448 H   0  0  0  0  0  0  0  0  0  0  0  0
    5.2113    4.1173   13.9598 C   0  0  0  0  0  0  0  0  0  0  0  0
    6.3432    3.3370   14.1003 C   0  0  0  0  0  0  0  0  0  0  0  0
    7.3116    3.7843   13.9337 H   0  0  0  0  0  0  0  0  0  0  0  0
    6.2066    2.0035   14.4385 C   0  0  0  0  0  0  0  0  0  0  0  0
    7.0876    1.3884   14.5537 H   0  0  0  0  0  0  0  0  0  0  0  0
    4.9464    1.4458   14.6237 C   0  0  0  0  0  0  0  0  0  0  0  0
    4.7915   -0.0049   14.9632 C   0  0  0  0  0  0  0  0  0  0  0  0
    4.0277   -0.1420   15.7259 H   0  0  0  0  0  0  0  0  0  0  0  0
    5.7282   -0.4263   15.3195 H   0  0  0  0  0  0  0  0  0  0  0  0
    4.4813   -0.5603   14.0779 H   0  0  0  0  0  0  0  0  0  0  0  0
    3.8224    2.2511   14.4637 C   0  0  0  0  0  0  0  0  0  0  0  0
    2.8390    1.8251   14.5970 H   0  0  0  0  0  0  0  0  0  0  0  0
    3.9453    3.5867   14.1290 C   0  0  0  0  0  0  0  0  0  0  0  0
    3.0752    4.2132   14.0011 H   0  0  0  0  0  0  0  0  0  0  0  0
  1  4  1  0  0  0  0
  1  8  1  0  0  0  0
  1  3  1  0  0  0  0
  2  1  1  0  0  0  0
  4  7  1  6  0  0  0
  4 50  1  0  0  0  0
  4 10  1  0  0  0  0
  5  6  1  1  0  0  0
  5  1  1  0  0  0  0
  8 46  1  1  0  0  0
  8 13  1  0  0  0  0
  9 42  1  6  0  0  0
  9 19  1  0  0  0  0
  9  1  1  0  0  0  0
 10 11  1  0  0  0  0
 10 12  1  0  0  0  0
 13 10  1  0  0  0  0
 13 14  1  0  0  0  0
 15 13  1  0  0  0  0
 16 17  1  0  0  0  0
 16  8  1  0  0  0  0
 18 16  1  0  0  0  0
 19 21  1  0  0  0  0
 19 16  1  0  0  0  0
 20 19  1  0  0  0  0
 22 23  1  0  0  0  0
 22  9  1  0  0  0  0
 24 22  1  0  0  0  0
 25 22  1  0  0  0  0
 25  5  1  0  0  0  0
 26 25  1  0  0  0  0
 27 25  1  0  0  0  0
 28  5  1  0  0  0  0
 29 30  1  0  0  0  0
 29 28  2  0  0  0  0
 31 29  1  0  0  0  0
 32 31  1  0  0  0  0
 33 31  2  0  0  0  0
 33 34  1  0  0  0  0
 34 36  2  0  0  0  0
 35 34  1  0  0  0  0
 36 28  1  0  0  0  0
 36 37  1  0  0  0  0
 38 33  1  0  0  0  0
 38 40  1  0  0  0  0
 39 38  1  0  0  0  0
 41 38  1  0  0  0  0
 42 45  1  0  0  0  0
 43 42  1  0  0  0  0
 44 42  1  0  0  0  0
 46 47  1  0  0  0  0
 46 48  1  0  0  0  0
 49 46  1  0  0  0  0
 50 51  2  0  0  0  0
 50 62  1  0  0  0  0
 51 53  1  0  0  0  0
 52 51  1  0  0  0  0
 53 54  1  0  0  0  0
 53 55  2  0  0  0  0
 55 56  1  0  0  0  0
 56 58  1  0  0  0  0
 56 57  1  0  0  0  0
 59 56  1  0  0  0  0
 60 61  1  0  0  0  0
 60 55  1  0  0  0  0
 62 60  2  0  0  0  0
 63 62  1  0  0  0  0
M  END
$$$$
