CSD_code = MIDCOU | q = 0 | S = 0 | Stoichiometry = C30H26Br2N4O2Pd | MND = 4
 OpenBabel04212202073D

 65 70  0  0  0  0  0  0  0  0999 V2000
    3.5719    5.5989   -1.3302 Pd  0  0  0  0  0  0  0  0  0  0  0  0
    2.5830    6.7619   -3.2389 Br  0  0  0  0  0  0  0  0  0  0  0  0
    4.3836    4.3625    0.6237 Br  0  0  0  0  0  0  0  0  0  0  0  0
    4.8094    4.0235   -3.4752 N   0  0  0  0  0  0  0  0  0  0  0  0
    8.2559    8.2760   -4.6937 N   0  0  0  0  0  0  0  0  0  0  0  0
    3.2327    2.8885   -2.5364 N   0  0  0  0  0  0  0  0  0  0  0  0
    5.6750    5.0929   -3.7806 C   0  0  0  0  0  0  0  0  0  0  0  0
    6.6282    9.3016   -5.8944 O   0  0  0  0  0  0  0  0  0  0  0  0
    7.0705    6.9113   -3.0598 C   0  0  0  0  0  0  0  0  0  0  0  0
    7.5211    7.4927   -2.2698 H   0  0  0  0  0  0  0  0  0  0  0  0
    9.8734    7.1923   -3.5317 O   0  0  0  0  0  0  0  0  0  0  0  0
    3.2742    7.2152   -0.1953 N   0  0  0  0  0  0  0  0  0  0  0  0
    6.2400    5.8486   -2.7516 C   0  0  0  0  0  0  0  0  0  0  0  0
    6.0923    5.5701   -1.7042 H   0  0  0  0  0  0  0  0  0  0  0  0
   10.4737    9.2552   -4.5145 C   0  0  0  0  0  0  0  0  0  0  0  0
    2.1584    8.3640    1.5602 C   0  0  0  0  0  0  0  0  0  0  0  0
    1.3992    8.3519    2.3258 H   0  0  0  0  0  0  0  0  0  0  0  0
    6.7931    6.4587   -5.4074 C   0  0  0  0  0  0  0  0  0  0  0  0
    7.0071    6.7026   -6.4358 H   0  0  0  0  0  0  0  0  0  0  0  0
    4.7100    2.8358   -4.1583 C   0  0  0  0  0  0  0  0  0  0  0  0
    5.3512    2.5877   -4.9780 H   0  0  0  0  0  0  0  0  0  0  0  0
    2.1840    2.4911   -1.6209 C   0  0  0  0  0  0  0  0  0  0  0  0
    2.6244    2.3411   -0.6269 H   0  0  0  0  0  0  0  0  0  0  0  0
    1.7763    1.5397   -1.9713 H   0  0  0  0  0  0  0  0  0  0  0  0
    7.3538    7.2093   -4.3852 C   0  0  0  0  0  0  0  0  0  0  0  0
    8.7266   10.3836   -5.8107 C   0  0  0  0  0  0  0  0  0  0  0  0
    5.9469    5.4092   -5.1059 C   0  0  0  0  0  0  0  0  0  0  0  0
    5.4841    4.8455   -5.9009 H   0  0  0  0  0  0  0  0  0  0  0  0
   12.6621   10.2490   -4.3428 C   0  0  0  0  0  0  0  0  0  0  0  0
   13.6704   10.2043   -3.9600 H   0  0  0  0  0  0  0  0  0  0  0  0
    7.7712    9.3076   -5.4973 C   0  0  0  0  0  0  0  0  0  0  0  0
    8.3221   11.4441   -6.5948 C   0  0  0  0  0  0  0  0  0  0  0  0
    7.3066   11.4599   -6.9611 H   0  0  0  0  0  0  0  0  0  0  0  0
    1.0722    3.5407   -1.5302 C   0  0  0  0  0  0  0  0  0  0  0  0
    1.4937    4.4886   -1.1301 H   0  0  0  0  0  0  0  0  0  0  0  0
    0.6754    3.7421   -2.5293 H   0  0  0  0  0  0  0  0  0  0  0  0
   10.0452   10.3334   -5.3153 C   0  0  0  0  0  0  0  0  0  0  0  0
   10.9518   11.3777   -5.6280 C   0  0  0  0  0  0  0  0  0  0  0  0
    9.2147   12.4743   -6.9048 C   0  0  0  0  0  0  0  0  0  0  0  0
    8.8807   13.2956   -7.5206 H   0  0  0  0  0  0  0  0  0  0  0  0
   11.7676    9.2192   -4.0376 C   0  0  0  0  0  0  0  0  0  0  0  0
   12.0722    8.3824   -3.4271 H   0  0  0  0  0  0  0  0  0  0  0  0
   -0.0517    3.0895   -0.6027 C   0  0  0  0  0  0  0  0  0  0  0  0
    0.3645    2.8617    0.3812 H   0  0  0  0  0  0  0  0  0  0  0  0
   -0.5058    2.1757   -0.9933 H   0  0  0  0  0  0  0  0  0  0  0  0
    2.9556    9.4793    1.3562 C   0  0  0  0  0  0  0  0  0  0  0  0
    2.8308   10.3640    1.9618 H   0  0  0  0  0  0  0  0  0  0  0  0
   10.5017   12.4445   -6.4336 C   0  0  0  0  0  0  0  0  0  0  0  0
   11.1922   13.2401   -6.6735 H   0  0  0  0  0  0  0  0  0  0  0  0
    3.8952    4.0529   -2.4811 C   0  0  0  0  0  0  0  0  0  0  0  0
    2.3537    7.2498    0.7635 C   0  0  0  0  0  3  0  0  0  0  0  0
    1.7623    6.3481    0.9053 H   0  0  0  0  0  0  0  0  0  0  0  0
    4.0386    8.2848   -0.4009 C   0  0  0  0  0  0  0  0  0  0  0  0
    4.7664    8.2158   -1.2089 H   0  0  0  0  0  0  0  0  0  0  0  0
    3.7269    2.1242   -3.5615 C   0  0  0  0  0  0  0  0  0  0  0  0
    3.3461    1.1484   -3.7823 H   0  0  0  0  0  0  0  0  0  0  0  0
    3.9148    9.4360    0.3560 C   0  0  0  0  0  0  0  0  0  0  0  0
    4.5557   10.2809    0.1602 H   0  0  0  0  0  0  0  0  0  0  0  0
    9.5486    8.1579   -4.1889 C   0  0  0  0  0  0  0  0  0  0  0  0
   12.2661   11.3058   -5.1211 C   0  0  0  0  0  0  0  0  0  0  0  0
   12.9575   12.1014   -5.3585 H   0  0  0  0  0  0  0  0  0  0  0  0
   -1.1165    4.1711   -0.4696 C   0  0  0  0  0  0  0  0  0  0  0  0
   -1.9082    3.8499    0.2026 H   0  0  0  0  0  0  0  0  0  0  0  0
   -0.6817    5.0875   -0.0756 H   0  0  0  0  0  0  0  0  0  0  0  0
   -1.5559    4.3958   -1.4388 H   0  0  0  0  0  0  0  0  0  0  0  0
  1 12  1  0  0  0  0
  1  3  1  0  0  0  0
  2  1  1  0  0  0  0
  4 50  1  0  0  0  0
  5 25  1  0  0  0  0
  5 59  1  0  0  0  0
  6 50  1  0  0  0  0
  6 22  1  0  0  0  0
  7  4  1  0  0  0  0
  7 13  1  0  0  0  0
  8 31  2  0  0  0  0
  9 13  2  0  0  0  0
  9 10  1  0  0  0  0
 12 51  1  0  0  0  0
 13 14  1  0  0  0  0
 15 59  1  0  0  0  0
 15 41  1  0  0  0  0
 16 17  1  0  0  0  0
 18 27  1  0  0  0  0
 18 25  2  0  0  0  0
 19 18  1  0  0  0  0
 20 55  2  0  0  0  0
 20  4  1  0  0  0  0
 21 20  1  0  0  0  0
 22 34  1  0  0  0  0
 22 23  1  0  0  0  0
 24 22  1  0  0  0  0
 25  9  1  0  0  0  0
 26 31  1  0  0  0  0
 26 37  1  0  0  0  0
 27  7  2  0  0  0  0
 28 27  1  0  0  0  0
 29 41  2  0  0  0  0
 29 30  1  0  0  0  0
 31  5  1  0  0  0  0
 32 26  2  0  0  0  0
 33 32  1  0  0  0  0
 34 35  1  0  0  0  0
 34 43  1  0  0  0  0
 36 34  1  0  0  0  0
 37 15  2  0  0  0  0
 38 37  1  0  0  0  0
 38 60  2  0  0  0  0
 39 32  1  0  0  0  0
 39 48  2  0  0  0  0
 40 39  1  0  0  0  0
 41 42  1  0  0  0  0
 43 62  1  0  0  0  0
 43 44  1  0  0  0  0
 45 43  1  0  0  0  0
 46 16  2  0  0  0  0
 46 47  1  0  0  0  0
 48 38  1  0  0  0  0
 49 48  1  0  0  0  0
 50  1  2  0  0  0  0
 51 52  1  0  0  0  0
 51 16  1  0  0  0  0
 53 12  1  0  0  0  0
 53 57  2  0  0  0  0
 54 53  1  0  0  0  0
 55  6  1  0  0  0  0
 56 55  1  0  0  0  0
 57 46  1  0  0  0  0
 58 57  1  0  0  0  0
 59 11  2  0  0  0  0
 60 29  1  0  0  0  0
 61 60  1  0  0  0  0
 62 64  1  0  0  0  0
 62 63  1  0  0  0  0
 65 62  1  0  0  0  0
M  END
$$$$
