CSD_code = MIDLIX | q = 0 | S = 0 | Stoichiometry = C21H19ClNOPPdS2 | MND = 4
 OpenBabel04212202073D

 47 51  0  0  0  0  0  0  0  0999 V2000
    3.0413    5.7523    8.3875 Pd  0  0  2  0  0  0  0  0  0  0  0  0
    1.3261    6.9626    7.5549 Cl  0  0  0  0  0  0  0  0  0  0  0  0
    2.6572    4.2087   10.7111 P   0  0  0  0  0  4  0  0  0  0  0  0
    3.8502    5.7554    6.2614 S   0  0  2  0  0  3  0  0  0  0  0  0
    2.0540    6.0909   10.5312 S   0  0  0  0  0  0  0  0  0  0  0  0
    4.8835    4.7796    8.8834 N   0  0  0  0  0  0  0  0  0  0  0  0
    6.6920    3.6675    8.0270 O   0  0  0  0  0  0  0  0  0  0  0  0
    5.3250    4.6005   10.1893 C   0  0  0  0  0  0  0  0  0  0  0  0
    4.4006    4.2000   11.1669 C   0  0  0  0  0  0  0  0  0  0  0  0
    4.7842    4.0141   12.4899 C   0  0  0  0  0  0  0  0  0  0  0  0
    4.0436    3.7239   13.2228 H   0  0  0  0  0  0  0  0  0  0  0  0
    6.1048    4.1914   12.8506 C   0  0  0  0  0  0  0  0  0  0  0  0
    6.4115    4.0345   13.8734 H   0  0  0  0  0  0  0  0  0  0  0  0
    7.0292    4.5876   11.8934 C   0  0  0  0  0  0  0  0  0  0  0  0
    8.0596    4.7427   12.1768 H   0  0  0  0  0  0  0  0  0  0  0  0
    6.6518    4.7944   10.5827 C   0  0  0  0  0  0  0  0  0  0  0  0
    7.3791    5.1027    9.8489 H   0  0  0  0  0  0  0  0  0  0  0  0
    5.6531    4.2963    7.8976 C   0  0  0  0  0  0  0  0  0  0  0  0
    5.1276    4.4948    6.4668 C   0  0  0  0  0  0  0  0  0  0  0  0
    4.6729    3.5557    6.1409 H   0  0  0  0  0  0  0  0  0  0  0  0
    5.9663    4.7184    5.8048 H   0  0  0  0  0  0  0  0  0  0  0  0
    4.8162    7.2697    6.5807 C   0  0  0  0  0  0  0  0  0  0  0  0
    5.4907    7.4423    5.7450 H   0  0  0  0  0  0  0  0  0  0  0  0
    5.3745    7.1690    7.5154 H   0  0  0  0  0  0  0  0  0  0  0  0
    4.0933    8.0835    6.6552 H   0  0  0  0  0  0  0  0  0  0  0  0
    2.4021    3.1515    9.2272 C   0  0  0  0  0  0  0  0  0  0  0  0
    1.3734    3.4782    8.3335 C   0  0  0  0  0  0  0  0  0  0  0  0
    0.6549    4.2604    8.5859 H   0  0  0  0  0  0  0  0  0  0  0  0
    1.2483    2.7620    7.1540 C   0  0  0  0  0  0  0  0  0  0  0  0
    0.4613    3.0112    6.4582 H   0  0  0  0  0  0  0  0  0  0  0  0
    2.1339    1.7309    6.8680 C   0  0  0  0  0  0  0  0  0  0  0  0
    2.0407    1.1859    5.9405 H   0  0  0  0  0  0  0  0  0  0  0  0
    3.1359    1.3985    7.7644 C   0  0  0  0  0  0  0  0  0  0  0  0
    3.8236    0.5969    7.5397 H   0  0  0  0  0  0  0  0  0  0  0  0
    3.2775    2.1087    8.9458 C   0  0  0  0  0  0  0  0  0  0  0  0
    4.0804    1.8750    9.6323 H   0  0  0  0  0  0  0  0  0  0  0  0
    1.7529    3.3851   12.0517 C   0  0  0  0  0  0  0  0  0  0  0  0
    1.0195    4.1439   12.9540 C   0  0  0  0  0  0  0  0  0  0  0  0
    0.9844    5.2181   12.8358 H   0  0  0  0  0  0  0  0  0  0  0  0
    0.3420    3.5170   13.9846 C   0  0  0  0  0  0  0  0  0  0  0  0
   -0.2282    4.1045   14.6883 H   0  0  0  0  0  0  0  0  0  0  0  0
    0.3930    2.1382   14.1093 C   0  0  0  0  0  0  0  0  0  0  0  0
   -0.1384    1.6499   14.9124 H   0  0  0  0  0  0  0  0  0  0  0  0
    1.1212    1.3813   13.2042 C   0  0  0  0  0  0  0  0  0  0  0  0
    1.1571    0.3066   13.3027 H   0  0  0  0  0  0  0  0  0  0  0  0
    1.8029    2.0008   12.1733 C   0  0  0  0  0  0  0  0  0  0  0  0
    2.3733    1.4178   11.4640 H   0  0  0  0  0  0  0  0  0  0  0  0
  1  2  1  1  0  0  0
  1  6  1  0  0  0  0
  1  5  1  0  0  0  0
  3  9  1  0  0  0  0
  3 37  1  0  0  0  0
  4 19  1  0  0  0  0
  4 22  1  1  0  0  0
  4  1  1  0  0  0  0
  5  3  1  0  0  0  0
  6  8  1  0  0  0  0
  8 16  2  0  0  0  0
  8  9  1  0  0  0  0
  9 10  2  0  0  0  0
 10 12  1  0  0  0  0
 10 11  1  0  0  0  0
 12 13  1  0  0  0  0
 14 15  1  0  0  0  0
 14 12  2  0  0  0  0
 16 14  1  0  0  0  0
 17 16  1  0  0  0  0
 18  7  2  0  0  0  0
 18  6  1  0  0  0  0
 19 18  1  0  0  0  0
 20 19  1  0  0  0  0
 21 19  1  0  0  0  0
 22 25  1  0  0  0  0
 22 24  1  0  0  0  0
 23 22  1  0  0  0  0
 26  3  1  0  0  0  0
 27 28  1  0  0  0  0
 27 26  2  0  0  0  0
 29 27  1  0  0  0  0
 30 29  1  0  0  0  0
 31 29  2  0  0  0  0
 31 33  1  0  0  0  0
 32 31  1  0  0  0  0
 33 35  2  0  0  0  0
 34 33  1  0  0  0  0
 35 26  1  0  0  0  0
 35 36  1  0  0  0  0
 37 46  2  0  0  0  0
 37 38  1  0  0  0  0
 38 40  2  0  0  0  0
 39 38  1  0  0  0  0
 40 42  1  0  0  0  0
 40 41  1  0  0  0  0
 42 43  1  0  0  0  0
 44 45  1  0  0  0  0
 44 42  2  0  0  0  0
 46 44  1  0  0  0  0
 47 46  1  0  0  0  0
M  END
$$$$
