CSD_code = MIDLIV | q = 1 | S = 0 | Stoichiometry = C11H26Cl2N3Pt(1+) | MND = 4
 OpenBabel04212202073D

 43 44  0  0  0  0  0  0  0  0999 V2000
    3.2098    3.4571   11.9979 C   0  0  0  0  0  0  0  0  0  0  0  0
    3.1579    2.9659   11.0230 H   0  0  0  0  0  0  0  0  0  0  0  0
    2.2160    3.4224   12.4549 H   0  0  0  0  0  0  0  0  0  0  0  0
    4.2335    2.7413   12.8907 C   0  0  0  0  0  0  0  0  0  0  0  0
    3.9167    1.7059   13.0278 H   0  0  0  0  0  0  0  0  0  0  0  0
    5.2035    2.7438   12.3900 H   0  0  0  0  0  0  0  0  0  0  0  0
    4.3021    3.4791   14.2254 C   0  0  0  0  0  0  0  0  0  0  0  0
    3.2942    3.4956   14.6561 H   0  0  0  0  0  0  0  0  0  0  0  0
    4.7437    4.9173   13.9770 C   0  0  0  0  0  0  0  0  0  0  0  0
    5.7180    4.9444   13.4862 H   0  0  0  0  0  0  0  0  0  0  0  0
    4.8010    5.4862   14.9045 H   0  0  0  0  0  0  0  0  0  0  0  0
    3.7044    5.5804   13.0609 C   0  0  0  0  0  0  0  0  0  0  0  0
    2.7244    5.6006   13.5480 H   0  0  0  0  0  0  0  0  0  0  0  0
    4.0034    6.6096   12.8451 H   0  0  0  0  0  0  0  0  0  0  0  0
    4.8996    3.1448   16.6271 C   0  0  0  0  0  0  0  0  0  0  0  0
    3.8218    3.1497   16.7994 H   0  0  0  0  0  0  0  0  0  0  0  0
    5.2827    4.1556   16.7734 H   0  0  0  0  0  0  0  0  0  0  0  0
    5.5867    2.1768   17.5822 C   0  0  0  0  0  0  0  0  0  0  0  0
    5.3888    2.4933   18.6056 H   0  0  0  0  0  0  0  0  0  0  0  0
    5.1657    1.1759   17.4617 H   0  0  0  0  0  0  0  0  0  0  0  0
    7.0895    2.1455   17.3201 C   0  0  0  0  0  0  0  0  0  0  0  0
    7.5626    1.4039   17.9612 H   0  0  0  0  0  0  0  0  0  0  0  0
    7.5266    3.1160   17.5589 H   0  0  0  0  0  0  0  0  0  0  0  0
    7.3496    1.8091   15.8549 C   0  0  0  0  0  0  0  0  0  0  0  0
    8.4166    1.8580   15.6405 H   0  0  0  0  0  0  0  0  0  0  0  0
    7.0183    0.7905   15.6399 H   0  0  0  0  0  0  0  0  0  0  0  0
    6.6207    2.7944   14.9492 C   0  0  0  0  0  0  0  0  0  0  0  0
    6.9708    3.8087   15.1441 H   0  0  0  0  0  0  0  0  0  0  0  0
    6.7991    2.5488   13.9021 H   0  0  0  0  0  0  0  0  0  0  0  0
    0.8163    8.1382    9.5445 C   0  0  0  0  0  0  0  0  0  0  0  0
    0.4462    8.2955   10.5582 H   0  0  0  0  0  0  0  0  0  0  0  0
    0.1332    8.6195    8.8408 H   0  0  0  0  0  0  0  0  0  0  0  0
    1.8011    8.5963    9.4483 H   0  0  0  0  0  0  0  0  0  0  0  0
    3.9715    6.0818    9.1003 Cl  0  0  0  0  0  0  0  0  0  0  0  0
    0.5050    5.4175   12.0808 Cl  0  0  0  0  0  0  0  0  0  0  0  0
    3.5610    4.8613   11.7963 N   0  0  0  0  0  4  0  0  0  0  0  0
    4.4351    4.9264   11.2580 H   0  0  0  0  0  0  0  0  0  0  0  0
    5.1611    2.7430   15.2199 N   0  0  0  0  0  4  0  0  0  0  0  0
    4.8933    1.7531   15.1497 H   0  0  0  0  0  0  0  0  0  0  0  0
    0.9242    6.6948    9.2841 N   0  0  0  0  0  4  0  0  0  0  0  0
    1.2648    6.5482    8.3286 H   0  0  0  0  0  0  0  0  0  0  0  0
   -0.0030    6.2657    9.3654 H   0  0  0  0  0  0  0  0  0  0  0  0
    2.2125    5.7788   10.5583 Pt  0  0  0  0  0  0  0  0  0  0  0  0
  1  3  1  0  0  0  0
  1  4  1  0  0  0  0
  2  1  1  0  0  0  0
  4  5  1  0  0  0  0
  4  7  1  0  0  0  0
  6  4  1  0  0  0  0
  7  8  1  0  0  0  0
  7 38  1  0  0  0  0
  9  7  1  0  0  0  0
  9 11  1  0  0  0  0
 10  9  1  0  0  0  0
 12 13  1  0  0  0  0
 12  9  1  0  0  0  0
 14 12  1  0  0  0  0
 15 17  1  0  0  0  0
 15 16  1  0  0  0  0
 15 18  1  0  0  0  0
 18 19  1  0  0  0  0
 20 18  1  0  0  0  0
 21 23  1  0  0  0  0
 21 18  1  0  0  0  0
 21 22  1  0  0  0  0
 24 21  1  0  0  0  0
 25 24  1  0  0  0  0
 26 24  1  0  0  0  0
 27 28  1  0  0  0  0
 27 38  1  0  0  0  0
 27 24  1  0  0  0  0
 29 27  1  0  0  0  0
 30 31  1  0  0  0  0
 32 30  1  0  0  0  0
 33 30  1  0  0  0  0
 34 43  1  0  0  0  0
 36  1  1  0  0  0  0
 36 12  1  0  0  0  0
 37 36  1  0  0  0  0
 38 15  1  0  0  0  0
 39 38  1  0  0  0  0
 40 42  1  0  0  0  0
 40 30  1  0  0  0  0
 40 43  1  0  0  0  0
 41 40  1  0  0  0  0
 43 36  1  0  0  0  0
 43 35  1  0  0  0  0
M  END
$$$$
