CSD_code = MIDRIA | q = -1 | S = 0 | Stoichiometry = C18H15Br3O3PPd(1-) | MND = 4
 OpenBabel04212202073D

 41 43  0  0  0  0  0  0  0  0999 V2000
    8.8597    5.1254    4.7459 Pd  0  0  0  0  0  0  0  0  0  0  0  0
   10.1297    7.1074    5.4125 Br  0  0  0  0  0  0  0  0  0  0  0  0
    7.9236    2.9744    4.0172 Br  0  0  0  0  0  0  0  0  0  0  0  0
    7.3090    5.3401    6.5428 Br  0  0  0  0  0  0  0  0  0  0  0  0
   10.1329    5.1713    2.9226 P   0  0  0  0  0  4  0  0  0  0  0  0
   10.2688    4.0106    1.7946 O   0  0  0  0  0  0  0  0  0  0  0  0
   11.6947    5.6291    3.0563 O   0  0  0  0  0  0  0  0  0  0  0  0
    9.4989    6.2511    1.8961 O   0  0  0  0  0  0  0  0  0  0  0  0
   10.9937    2.8745    2.0282 C   0  0  0  0  0  0  0  0  0  0  0  0
   11.3858    2.4718    3.2970 C   0  0  0  0  0  0  0  0  0  0  0  0
   11.0977    3.0530    4.1676 H   0  0  0  0  0  0  0  0  0  0  0  0
   12.1299    1.3168    3.4518 C   0  0  0  0  0  0  0  0  0  0  0  0
   12.4251    1.0061    4.4429 H   0  0  0  0  0  0  0  0  0  0  0  0
   12.4922    0.5640    2.3490 C   0  0  0  0  0  0  0  0  0  0  0  0
   13.0761   -0.3358    2.4751 H   0  0  0  0  0  0  0  0  0  0  0  0
   12.0983    0.9668    1.0841 C   0  0  0  0  0  0  0  0  0  0  0  0
   12.3738    0.3826    0.2181 H   0  0  0  0  0  0  0  0  0  0  0  0
   11.3518    2.1173    0.9190 C   0  0  0  0  0  0  0  0  0  0  0  0
   11.0366    2.4477   -0.0584 H   0  0  0  0  0  0  0  0  0  0  0  0
   12.6554    5.3852    2.1131 C   0  0  0  0  0  0  0  0  0  0  0  0
   13.8532    4.8204    2.5368 C   0  0  0  0  0  0  0  0  0  0  0  0
   13.9813    4.5940    3.5840 H   0  0  0  0  0  0  0  0  0  0  0  0
   14.8497    4.5567    1.6173 C   0  0  0  0  0  0  0  0  0  0  0  0
   15.7784    4.1164    1.9496 H   0  0  0  0  0  0  0  0  0  0  0  0
   14.6566    4.8436    0.2759 C   0  0  0  0  0  0  0  0  0  0  0  0
   15.4341    4.6267   -0.4422 H   0  0  0  0  0  0  0  0  0  0  0  0
   13.4640    5.4089   -0.1408 C   0  0  0  0  0  0  0  0  0  0  0  0
   13.3084    5.6367   -1.1856 H   0  0  0  0  0  0  0  0  0  0  0  0
   12.4621    5.6853    0.7718 C   0  0  0  0  0  0  0  0  0  0  0  0
   11.5267    6.1225    0.4590 H   0  0  0  0  0  0  0  0  0  0  0  0
    8.4805    7.0572    2.3867 C   0  0  0  0  0  0  0  0  0  0  0  0
    8.6981    8.4198    2.5097 C   0  0  0  0  0  0  0  0  0  0  0  0
    9.6491    8.8304    2.2067 H   0  0  0  0  0  0  0  0  0  0  0  0
    7.7141    9.2187    3.0673 C   0  0  0  0  0  0  0  0  0  0  0  0
    7.8940   10.2769    3.1821 H   0  0  0  0  0  0  0  0  0  0  0  0
    6.5300    8.6595    3.5160 C   0  0  0  0  0  0  0  0  0  0  0  0
    5.7829    9.2804    3.9868 H   0  0  0  0  0  0  0  0  0  0  0  0
    6.3056    7.3000    3.3737 C   0  0  0  0  0  0  0  0  0  0  0  0
    5.3838    6.8570    3.7212 H   0  0  0  0  0  0  0  0  0  0  0  0
    7.2783    6.4881    2.8043 C   0  0  0  0  0  0  0  0  0  0  0  0
    7.0794    5.4362    2.6075 H   0  0  0  0  0  0  0  0  0  0  0  0
  1  2  1  0  0  0  0
  1  4  1  0  0  0  0
  3  1  1  0  0  0  0
  5  7  1  0  0  0  0
  5  1  1  0  0  0  0
  6  9  1  0  0  0  0
  6  5  1  0  0  0  0
  8 31  1  0  0  0  0
  8  5  1  0  0  0  0
  9 10  1  0  0  0  0
 10 12  2  0  0  0  0
 10 11  1  0  0  0  0
 12 13  1  0  0  0  0
 14 15  1  0  0  0  0
 14 12  1  0  0  0  0
 16 14  2  0  0  0  0
 17 16  1  0  0  0  0
 18 16  1  0  0  0  0
 18  9  2  0  0  0  0
 19 18  1  0  0  0  0
 20 21  1  0  0  0  0
 20  7  1  0  0  0  0
 21 22  1  0  0  0  0
 23 24  1  0  0  0  0
 23 21  2  0  0  0  0
 25 23  1  0  0  0  0
 26 25  1  0  0  0  0
 27 25  2  0  0  0  0
 27 29  1  0  0  0  0
 28 27  1  0  0  0  0
 29 20  2  0  0  0  0
 30 29  1  0  0  0  0
 31 32  2  0  0  0  0
 31 40  1  0  0  0  0
 32 34  1  0  0  0  0
 33 32  1  0  0  0  0
 34 35  1  0  0  0  0
 34 36  2  0  0  0  0
 36 37  1  0  0  0  0
 38 36  1  0  0  0  0
 38 39  1  0  0  0  0
 40 38  2  0  0  0  0
 41 40  1  0  0  0  0
M  END
$$$$
