CSD_code = MIDWAX | q = 0 | S = 0 | Stoichiometry = C9H12Cl2N4Zn | MND = 4
 OpenBabel04212202073D

 28 30  0  0  1  0  0  0  0  0999 V2000
    3.9680    9.7361    9.0805 Zn  0  0  0  0  0  0  0  0  0  0  0  0
    2.1973   10.0294   10.2993 Cl  0  0  0  0  0  0  0  0  0  0  0  0
    6.1609    9.9341    9.4296 Cl  0  0  0  0  0  0  0  0  0  0  0  0
    4.0918    7.2667    7.0857 N   0  0  0  0  0  0  0  0  0  0  0  0
    4.0309    7.7268    8.3348 N   0  0  1  0  0  0  0  0  0  0  0  0
    4.4476    6.7496    9.1245 C   0  0  0  0  0  3  0  0  0  0  0  0
    4.7861    5.6281    8.3673 C   0  0  0  0  0  0  0  0  0  0  0  0
    4.5438    6.0016    7.0648 C   0  0  0  0  0  0  0  0  0  0  0  0
    3.6922    8.0606    5.9561 C   0  0  0  0  0  0  0  0  0  0  0  0
    4.8804    8.7311    5.2551 C   0  0  0  0  0  0  0  0  0  0  0  0
    5.5257    9.8493    6.0821 C   0  0  0  0  0  0  0  0  0  0  0  0
    4.6124   10.9355    6.3080 N   0  0  0  0  0  0  0  0  0  0  0  0
    3.7568   10.9277    7.3301 N   0  0  2  0  0  0  0  0  0  0  0  0
    3.0287   12.0315    7.2352 C   0  0  0  0  0  3  0  0  0  0  0  0
    3.4193   12.7668    6.1175 C   0  0  0  0  0  0  0  0  0  0  0  0
    4.4361   12.0284    5.5509 C   0  0  0  0  0  0  0  0  0  0  0  0
    4.4846    6.8853   10.1874 H   0  0  0  0  0  0  0  0  0  0  0  0
    5.1515    4.6873    8.7217 H   0  0  0  0  0  0  0  0  0  0  0  0
    4.6550    5.4573    6.1485 H   0  0  0  0  0  0  0  0  0  0  0  0
    2.2660   12.2396    7.9595 H   0  0  0  0  0  0  0  0  0  0  0  0
    3.0233   13.7014    5.7797 H   0  0  0  0  0  0  0  0  0  0  0  0
    5.0346   12.2161    4.6821 H   0  0  0  0  0  0  0  0  0  0  0  0
    3.1774    7.4083    5.2449 H   0  0  0  0  0  0  0  0  0  0  0  0
    2.9857    8.8128    6.3143 H   0  0  0  0  0  0  0  0  0  0  0  0
    5.6427    7.9812    5.0389 H   0  0  0  0  0  0  0  0  0  0  0  0
    4.5269    9.1413    4.3067 H   0  0  0  0  0  0  0  0  0  0  0  0
    5.8592    9.4817    7.0574 H   0  0  0  0  0  0  0  0  0  0  0  0
    6.3942   10.2400    5.5477 H   0  0  0  0  0  0  0  0  0  0  0  0
  1  3  1  0  0  0  0
  1  2  1  0  0  0  0
  4  5  1  0  0  0  0
  5  1  1  0  0  0  0
  5  6  1  1  0  0  0
  6 17  1  0  0  0  0
  7 18  1  0  0  0  0
  7  6  1  0  0  0  0
  8  4  1  0  0  0  0
  8  7  2  0  0  0  0
  9 24  1  0  0  0  0
  9  4  1  0  0  0  0
 10  9  1  0  0  0  0
 10 11  1  0  0  0  0
 11 12  1  0  0  0  0
 11 27  1  0  0  0  0
 12 13  1  0  0  0  0
 13 14  1  1  0  0  0
 13  1  1  0  0  0  0
 14 20  1  0  0  0  0
 15 14  1  0  0  0  0
 16 15  2  0  0  0  0
 16 12  1  0  0  0  0
 19  8  1  0  0  0  0
 21 15  1  0  0  0  0
 22 16  1  0  0  0  0
 23  9  1  0  0  0  0
 25 10  1  0  0  0  0
 26 10  1  0  0  0  0
 28 11  1  0  0  0  0
M  END
$$$$
