CSD_code = MIFNUK | q = 0 | S = 0 | Stoichiometry = C15H15ClCuN3 | MND = 4
 OpenBabel04212202073D

 35 37  0  0  0  0  0  0  0  0999 V2000
    7.1747    5.6393    7.2707 Cu  0  0  1  0  0  0  0  0  0  0  0  0
    7.1750    6.8853    5.3235 Cl  0  0  0  0  0  0  0  0  0  0  0  0
    8.8542    4.5720    7.1462 N   0  0  0  0  0  0  0  0  0  0  0  0
    9.2508    3.6946    8.0641 C   0  0  0  0  0  3  0  0  0  0  0  0
    8.6037    3.5719    8.9219 H   0  0  0  0  0  0  0  0  0  0  0  0
   10.4210    2.9673    7.9507 C   0  0  0  0  0  0  0  0  0  0  0  0
   10.7018    2.2660    8.7213 H   0  0  0  0  0  0  0  0  0  0  0  0
   11.2187    3.1591    6.8319 C   0  0  0  0  0  0  0  0  0  0  0  0
   12.1394    2.6075    6.7107 H   0  0  0  0  0  0  0  0  0  0  0  0
   10.8048    4.0741    5.8760 C   0  0  0  0  0  0  0  0  0  0  0  0
   11.3921    4.2569    4.9902 H   0  0  0  0  0  0  0  0  0  0  0  0
    9.6177    4.7578    6.0722 C   0  0  0  0  0  0  0  0  0  0  0  0
    9.2495    5.4812    5.3564 H   0  0  0  0  0  0  0  0  0  0  0  0
    7.1746    7.0198    8.7096 N   0  0  0  0  0  0  0  0  0  0  0  0
    7.1745    6.7424   10.0106 C   0  0  0  0  0  3  0  0  0  0  0  0
    7.1746    5.6945   10.2779 H   0  0  0  0  0  0  0  0  0  0  0  0
    7.1742    7.7217   10.9864 C   0  0  0  0  0  0  0  0  0  0  0  0
    7.1741    7.4487   12.0304 H   0  0  0  0  0  0  0  0  0  0  0  0
    7.1740    9.0526   10.5945 C   0  0  0  0  0  0  0  0  0  0  0  0
    7.1737    9.8434   11.3302 H   0  0  0  0  0  0  0  0  0  0  0  0
    7.1741    9.3407    9.2384 C   0  0  0  0  0  0  0  0  0  0  0  0
    7.1739   10.3601    8.8863 H   0  0  0  0  0  0  0  0  0  0  0  0
    7.1744    8.2956    8.3311 C   0  0  0  0  0  0  0  0  0  0  0  0
    7.1745    8.4660    7.2624 H   0  0  0  0  0  0  0  0  0  0  0  0
    5.4952    4.5721    7.1463 N   0  0  0  0  0  0  0  0  0  0  0  0
    5.0985    3.6947    8.0643 C   0  0  0  0  0  3  0  0  0  0  0  0
    5.7457    3.5719    8.9219 H   0  0  0  0  0  0  0  0  0  0  0  0
    3.9282    2.9676    7.9510 C   0  0  0  0  0  0  0  0  0  0  0  0
    3.6473    2.2665    8.7216 H   0  0  0  0  0  0  0  0  0  0  0  0
    3.1303    3.1596    6.8323 C   0  0  0  0  0  0  0  0  0  0  0  0
    2.2096    2.6083    6.7113 H   0  0  0  0  0  0  0  0  0  0  0  0
    3.5443    4.0745    5.8764 C   0  0  0  0  0  0  0  0  0  0  0  0
    2.9570    4.2574    4.9906 H   0  0  0  0  0  0  0  0  0  0  0  0
    4.7316    4.7580    6.0724 C   0  0  0  0  0  0  0  0  0  0  0  0
    5.0998    5.4813    5.3565 H   0  0  0  0  0  0  0  0  0  0  0  0
  1  2  1  6  0  0  0
  1 14  1  0  0  0  0
  3  1  1  0  0  0  0
  3  4  1  0  0  0  0
  4  5  1  0  0  0  0
  6  4  1  0  0  0  0
  6  7  1  0  0  0  0
  8  6  2  0  0  0  0
  9  8  1  0  0  0  0
 10 12  2  0  0  0  0
 10  8  1  0  0  0  0
 11 10  1  0  0  0  0
 12  3  1  0  0  0  0
 13 12  1  0  0  0  0
 14 15  1  0  0  0  0
 15 16  1  0  0  0  0
 15 17  1  0  0  0  0
 17 18  1  0  0  0  0
 19 17  2  0  0  0  0
 19 20  1  0  0  0  0
 21 19  1  0  0  0  0
 22 21  1  0  0  0  0
 23 14  1  0  0  0  0
 23 21  2  0  0  0  0
 24 23  1  0  0  0  0
 25  1  1  0  0  0  0
 25 26  1  0  0  0  0
 26 27  1  0  0  0  0
 28 26  1  0  0  0  0
 28 29  1  0  0  0  0
 30 28  2  0  0  0  0
 31 30  1  0  0  0  0
 32 34  2  0  0  0  0
 32 30  1  0  0  0  0
 33 32  1  0  0  0  0
 34 25  1  0  0  0  0
 35 34  1  0  0  0  0
M  END
$$$$
