CSD_code = MIGCAI | q = 0 | S = 0 | Stoichiometry = C21H24BrMnN2O3 | MND = 6
 OpenBabel04212202073D

 52 54  0  0  1  0  0  0  0  0999 V2000
   19.1240    4.9461    5.6488 Br  0  0  0  0  0  0  0  0  0  0  0  0
   19.2934    4.9965    8.1250 Mn  0  0  0  0  0  0  0  0  0  0  0  0
   19.5079    5.0898   11.0398 O   0  0  0  0  0  1  0  0  0  0  0  0
   17.3391    2.8118    8.2506 O   0  0  0  0  0  1  0  0  0  0  0  0
   21.2952    2.8595    7.9419 O   0  0  0  0  0  1  0  0  0  0  0  0
   17.9699    6.5232    8.0184 N   0  0  0  0  0  0  0  0  0  0  0  0
   20.5492    6.5566    7.8628 N   0  0  0  0  0  0  0  0  0  0  0  0
   19.4204    5.0739    9.8918 C   0  0  0  0  0  2  0  0  0  0  0  0
   18.0798    3.6895    8.2095 C   0  0  0  0  0  2  0  0  0  0  0  0
   20.5373    3.7193    8.0241 C   0  0  0  0  0  2  0  0  0  0  0  0
   16.6429    6.4361    8.1023 C   0  0  0  0  0  3  0  0  0  0  0  0
   16.2358    5.4839    8.4189 H   0  0  0  0  0  0  0  0  0  0  0  0
   15.7925    7.4772    7.7969 C   0  0  0  0  0  0  0  0  0  0  0  0
   14.7305    7.3150    7.8803 H   0  0  0  0  0  0  0  0  0  0  0  0
   16.3072    8.7030    7.3716 C   0  0  0  0  0  0  0  0  0  0  0  0
   17.6895    8.7956    7.3139 C   0  0  0  0  0  0  0  0  0  0  0  0
   18.1583    9.7091    6.9947 H   0  0  0  0  0  0  0  0  0  0  0  0
   18.4922    7.7050    7.6414 C   0  0  0  0  0  0  0  0  0  0  0  0
   19.9564    7.7329    7.5857 C   0  0  2  0  0  3  0  0  0  0  0  0
   20.6919    8.8744    7.2732 C   0  0  0  0  0  0  0  0  0  0  0  0
   20.1672    9.7890    7.0626 H   0  0  0  0  0  0  0  0  0  0  0  0
   22.0770    8.8368    7.2265 C   0  0  0  0  0  0  0  0  0  0  0  0
   22.6664    7.6051    7.5169 C   0  0  0  0  0  0  0  0  0  0  0  0
   23.7366    7.4799    7.5021 H   0  0  0  0  0  0  0  0  0  0  0  0
   21.8809    6.5154    7.8256 C   0  0  0  0  0  0  0  0  0  0  0  0
   22.3457    5.5631    8.0489 H   0  0  0  0  0  0  0  0  0  0  0  0
   15.3761    9.8346    6.9883 C   0  0  0  0  0  0  0  0  0  0  0  0
   14.5109    9.3660    5.8095 C   0  0  0  0  0  0  0  0  0  0  0  0
   15.1394    9.0815    4.9683 H   0  0  0  0  0  0  0  0  0  0  0  0
   13.8514   10.1700    5.4917 H   0  0  0  0  0  0  0  0  0  0  0  0
   13.8986    8.5108    6.0813 H   0  0  0  0  0  0  0  0  0  0  0  0
   16.1304   11.0980    6.5668 C   0  0  0  0  0  0  0  0  0  0  0  0
   16.7529   11.4740    7.3763 H   0  0  0  0  0  0  0  0  0  0  0  0
   15.4145   11.8749    6.3090 H   0  0  0  0  0  0  0  0  0  0  0  0
   16.7487   10.9119    5.6915 H   0  0  0  0  0  0  0  0  0  0  0  0
   14.4839   10.1774    8.1897 C   0  0  0  0  0  0  0  0  0  0  0  0
   13.8782    9.3280    8.4928 H   0  0  0  0  0  0  0  0  0  0  0  0
   13.8149   10.9944    7.9306 H   0  0  0  0  0  0  0  0  0  0  0  0
   15.0909   10.4859    9.0387 H   0  0  0  0  0  0  0  0  0  0  0  0
   22.9358   10.0375    6.8868 C   0  0  0  0  0  0  0  0  0  0  0  0
   22.1049   11.2891    6.5935 C   0  0  0  0  0  0  0  0  0  0  0  0
   21.4492   11.1330    5.7397 H   0  0  0  0  0  0  0  0  0  0  0  0
   22.7708   12.1151    6.3553 H   0  0  0  0  0  0  0  0  0  0  0  0
   21.5108   11.5795    7.4577 H   0  0  0  0  0  0  0  0  0  0  0  0
   23.7733    9.7060    5.6436 C   0  0  0  0  0  0  0  0  0  0  0  0
   24.4387    8.8664    5.8235 H   0  0  0  0  0  0  0  0  0  0  0  0
   24.3788   10.5656    5.3663 H   0  0  0  0  0  0  0  0  0  0  0  0
   23.1255    9.4554    4.8063 H   0  0  0  0  0  0  0  0  0  0  0  0
   23.8594   10.3325    8.0775 C   0  0  0  0  0  0  0  0  0  0  0  0
   23.2734   10.5460    8.9693 H   0  0  0  0  0  0  0  0  0  0  0  0
   24.4795   11.1983    7.8583 H   0  0  0  0  0  0  0  0  0  0  0  0
   24.5138    9.4922    8.2917 H   0  0  0  0  0  0  0  0  0  0  0  0
  1  2  1  0  0  0  0
  2  9  1  0  0  0  0
  2  8  1  0  0  0  0
  5 10  1  0  0  0  0
  6 11  1  0  0  0  0
  6  2  1  0  0  0  0
  7  2  1  0  0  0  0
  8  3  1  0  0  0  0
  9  4  1  0  0  0  0
 10  2  1  0  0  0  0
 11 12  1  0  0  0  0
 13 14  1  0  0  0  0
 13 11  1  0  0  0  0
 15 13  2  0  0  0  0
 16 15  1  0  0  0  0
 16 18  2  0  0  0  0
 17 16  1  0  0  0  0
 18  6  1  0  0  0  0
 19 20  1  6  0  0  0
 19 18  1  0  0  0  0
 19  7  1  0  0  0  0
 21 20  1  0  0  0  0
 22 20  2  0  0  0  0
 22 23  1  0  0  0  0
 23 25  2  0  0  0  0
 24 23  1  0  0  0  0
 25  7  1  0  0  0  0
 25 26  1  0  0  0  0
 27 15  1  0  0  0  0
 27 36  1  0  0  0  0
 28 31  1  0  0  0  0
 28 27  1  0  0  0  0
 29 28  1  0  0  0  0
 30 28  1  0  0  0  0
 32 27  1  0  0  0  0
 32 33  1  0  0  0  0
 34 32  1  0  0  0  0
 35 32  1  0  0  0  0
 36 37  1  0  0  0  0
 36 39  1  0  0  0  0
 38 36  1  0  0  0  0
 40 22  1  0  0  0  0
 40 49  1  0  0  0  0
 41 40  1  0  0  0  0
 41 44  1  0  0  0  0
 42 41  1  0  0  0  0
 43 41  1  0  0  0  0
 45 46  1  0  0  0  0
 45 40  1  0  0  0  0
 47 45  1  0  0  0  0
 48 45  1  0  0  0  0
 49 52  1  0  0  0  0
 49 50  1  0  0  0  0
 51 49  1  0  0  0  0
M  END
$$$$
