CSD_code = MIGCIP | q = 0 | S = 0 | Stoichiometry = C28H30Cl2P2Pt | MND = 4
 OpenBabel04212202073D

 63 66  0  0  0  0  0  0  0  0999 V2000
    2.5176    4.9238    4.4434 Pt  0  0  0  0  0  0  0  0  0  0  0  0
    0.6006    4.5803    5.6533 P   0  0  0  0  0  4  0  0  0  0  0  0
    3.7940    3.1329    5.0353 P   0  0  0  0  0  4  0  0  0  0  0  0
    4.1677    5.5438    2.9736 Cl  0  0  0  0  0  0  0  0  0  0  0  0
    1.2029    6.7061    3.7684 Cl  0  0  0  0  0  0  0  0  0  0  0  0
    0.1409    5.9821    6.7093 C   0  0  0  0  0  0  0  0  0  0  0  0
   -1.1334    6.0746    7.2589 C   0  0  0  0  0  0  0  0  0  0  0  0
   -1.8676    5.3093    7.0484 H   0  0  0  0  0  0  0  0  0  0  0  0
   -1.4552    7.1439    8.0746 C   0  0  0  0  0  0  0  0  0  0  0  0
   -2.4474    7.2197    8.4952 H   0  0  0  0  0  0  0  0  0  0  0  0
   -0.5089    8.1178    8.3515 C   0  0  0  0  0  0  0  0  0  0  0  0
   -0.7661    8.9533    8.9858 H   0  0  0  0  0  0  0  0  0  0  0  0
    0.7639    8.0237    7.8126 C   0  0  0  0  0  0  0  0  0  0  0  0
    1.4998    8.7851    8.0248 H   0  0  0  0  0  0  0  0  0  0  0  0
    1.0886    6.9576    6.9942 C   0  0  0  0  0  0  0  0  0  0  0  0
    2.0733    6.8879    6.5436 H   0  0  0  0  0  0  0  0  0  0  0  0
    0.4423    3.1942    6.8355 C   0  0  0  0  0  0  0  0  0  0  0  0
    0.1544    1.9115    6.3817 C   0  0  0  0  0  0  0  0  0  0  0  0
   -0.0292    1.7397    5.3318 H   0  0  0  0  0  0  0  0  0  0  0  0
    0.0972    0.8506    7.2668 C   0  0  0  0  0  0  0  0  0  0  0  0
   -0.1367   -0.1388    6.9016 H   0  0  0  0  0  0  0  0  0  0  0  0
    0.3425    1.0542    8.6142 C   0  0  0  0  0  0  0  0  0  0  0  0
    0.3046    0.2240    9.3037 H   0  0  0  0  0  0  0  0  0  0  0  0
    0.6309    2.3279    9.0746 C   0  0  0  0  0  0  0  0  0  0  0  0
    0.8172    2.4939   10.1255 H   0  0  0  0  0  0  0  0  0  0  0  0
    0.6799    3.3909    8.1927 C   0  0  0  0  0  0  0  0  0  0  0  0
    0.8900    4.3851    8.5597 H   0  0  0  0  0  0  0  0  0  0  0  0
   -0.8481    4.3310    4.5348 C   0  0  0  0  0  0  0  0  0  0  0  0
   -1.6149    3.7465    5.0517 H   0  0  0  0  0  0  0  0  0  0  0  0
   -1.2393    5.3292    4.3209 H   0  0  0  0  0  0  0  0  0  0  0  0
   -0.4306    3.6614    3.2288 C   0  0  0  0  0  0  0  0  0  0  0  0
    0.3942    4.2193    2.7788 H   0  0  0  0  0  0  0  0  0  0  0  0
   -1.2609    3.6539    2.5253 H   0  0  0  0  0  0  0  0  0  0  0  0
   -0.1016    2.6352    3.3839 H   0  0  0  0  0  0  0  0  0  0  0  0
    2.9980    1.6604    4.3272 C   0  0  0  0  0  0  0  0  0  0  0  0
    2.5977    0.5317    5.0293 C   0  0  0  0  0  0  0  0  0  0  0  0
    2.7663    0.4626    6.0935 H   0  0  0  0  0  0  0  0  0  0  0  0
    1.9569   -0.5004    4.3632 C   0  0  0  0  0  0  0  0  0  0  0  0
    1.6500   -1.3796    4.9111 H   0  0  0  0  0  0  0  0  0  0  0  0
    1.7031   -0.4086    3.0053 C   0  0  0  0  0  0  0  0  0  0  0  0
    1.1993   -1.2159    2.4945 H   0  0  0  0  0  0  0  0  0  0  0  0
    2.0858    0.7249    2.3035 C   0  0  0  0  0  0  0  0  0  0  0  0
    1.8765    0.8043    1.2472 H   0  0  0  0  0  0  0  0  0  0  0  0
    2.7271    1.7560    2.9622 C   0  0  0  0  0  0  0  0  0  0  0  0
    3.0173    2.6558    2.4315 H   0  0  0  0  0  0  0  0  0  0  0  0
    4.0180    2.8469    6.8164 C   0  0  0  0  0  0  0  0  0  0  0  0
    4.6189    1.7028    7.3324 C   0  0  0  0  0  0  0  0  0  0  0  0
    4.9514    0.9167    6.6693 H   0  0  0  0  0  0  0  0  0  0  0  0
    4.8036    1.5767    8.6971 C   0  0  0  0  0  0  0  0  0  0  0  0
    5.2608    0.6830    9.0965 H   0  0  0  0  0  0  0  0  0  0  0  0
    4.4174    2.5970    9.5519 C   0  0  0  0  0  0  0  0  0  0  0  0
    4.5716    2.4947   10.6158 H   0  0  0  0  0  0  0  0  0  0  0  0
    3.8502    3.7520    9.0406 C   0  0  0  0  0  0  0  0  0  0  0  0
    3.5683    4.5568    9.7033 H   0  0  0  0  0  0  0  0  0  0  0  0
    3.6487    3.8721    7.6779 C   0  0  0  0  0  0  0  0  0  0  0  0
    3.2107    4.7708    7.2557 H   0  0  0  0  0  0  0  0  0  0  0  0
    5.5199    2.9518    4.4181 C   0  0  0  0  0  0  0  0  0  0  0  0
    5.8558    1.9314    4.6313 H   0  0  0  0  0  0  0  0  0  0  0  0
    5.4901    3.0978    3.3358 H   0  0  0  0  0  0  0  0  0  0  0  0
    6.4359    3.9858    5.0590 C   0  0  0  0  0  0  0  0  0  0  0  0
    6.0598    4.9843    4.8444 H   0  0  0  0  0  0  0  0  0  0  0  0
    7.4414    3.9030    4.6525 H   0  0  0  0  0  0  0  0  0  0  0  0
    6.4836    3.8524    6.1391 H   0  0  0  0  0  0  0  0  0  0  0  0
  1  3  1  0  0  0  0
  1  2  1  0  0  0  0
  2  6  1  0  0  0  0
  2 17  1  0  0  0  0
  3 46  1  0  0  0  0
  4  1  1  0  0  0  0
  5  1  1  0  0  0  0
  6 15  2  0  0  0  0
  6  7  1  0  0  0  0
  7  9  2  0  0  0  0
  8  7  1  0  0  0  0
  9 11  1  0  0  0  0
  9 10  1  0  0  0  0
 11 12  1  0  0  0  0
 13 14  1  0  0  0  0
 13 11  2  0  0  0  0
 15 13  1  0  0  0  0
 16 15  1  0  0  0  0
 17 26  1  0  0  0  0
 18 17  2  0  0  0  0
 18 20  1  0  0  0  0
 19 18  1  0  0  0  0
 20 22  2  0  0  0  0
 21 20  1  0  0  0  0
 22 24  1  0  0  0  0
 22 23  1  0  0  0  0
 24 25  1  0  0  0  0
 26 27  1  0  0  0  0
 26 24  2  0  0  0  0
 28 29  1  0  0  0  0
 28  2  1  0  0  0  0
 30 28  1  0  0  0  0
 31 34  1  0  0  0  0
 31 28  1  0  0  0  0
 32 31  1  0  0  0  0
 33 31  1  0  0  0  0
 35 36  1  0  0  0  0
 35  3  1  0  0  0  0
 36 37  1  0  0  0  0
 38 39  1  0  0  0  0
 38 36  2  0  0  0  0
 40 38  1  0  0  0  0
 41 40  1  0  0  0  0
 42 44  1  0  0  0  0
 42 40  2  0  0  0  0
 43 42  1  0  0  0  0
 44 35  2  0  0  0  0
 45 44  1  0  0  0  0
 46 47  2  0  0  0  0
 46 55  1  0  0  0  0
 47 49  1  0  0  0  0
 48 47  1  0  0  0  0
 49 50  1  0  0  0  0
 49 51  2  0  0  0  0
 51 52  1  0  0  0  0
 53 51  1  0  0  0  0
 53 54  1  0  0  0  0
 55 53  2  0  0  0  0
 56 55  1  0  0  0  0
 57 58  1  0  0  0  0
 57  3  1  0  0  0  0
 57 60  1  0  0  0  0
 59 57  1  0  0  0  0
 60 63  1  0  0  0  0
 61 60  1  0  0  0  0
 62 60  1  0  0  0  0
M  END
$$$$
