CSD_code = MIGHAM | q = 0 | S = 0 | Stoichiometry = C12H26Br2N2O4Pt | MND = 6
 OpenBabel04212202073D

 47 47  0  0  0  0  0  0  0  0999 V2000
   -6.4306   -2.9603   -9.4322 C   0  0  0  0  0  0  0  0  0  0  0  0
   -5.8309   -2.0930   -9.1575 H   0  0  0  0  0  0  0  0  0  0  0  0
   -7.4628   -2.6510   -9.5927 H   0  0  0  0  0  0  0  0  0  0  0  0
   -6.0217   -3.3840  -10.3528 H   0  0  0  0  0  0  0  0  0  0  0  0
   -6.7883   -7.4194   -8.5972 C   0  0  0  0  0  0  0  0  0  0  0  0
   -6.6492   -8.3550   -9.1515 H   0  0  0  0  0  0  0  0  0  0  0  0
   -7.8303   -7.3651   -8.2639 H   0  0  0  0  0  0  0  0  0  0  0  0
   -7.4560   -6.1681  -10.5659 C   0  0  0  0  0  0  0  0  0  0  0  0
   -7.3534   -5.1984  -11.0638 H   0  0  0  0  0  0  0  0  0  0  0  0
   -8.4841   -6.2426  -10.2026 H   0  0  0  0  0  0  0  0  0  0  0  0
   -7.1972   -7.2460  -11.6110 C   0  0  0  0  0  0  0  0  0  0  0  0
   -8.0455   -8.2322  -13.5784 C   0  0  0  0  0  0  0  0  0  0  0  0
   -9.0680   -8.4428  -13.8954 H   0  0  0  0  0  0  0  0  0  0  0  0
   -7.5750   -9.1444  -13.1983 H   0  0  0  0  0  0  0  0  0  0  0  0
   -7.2240   -7.6465  -14.7161 C   0  0  0  0  0  0  0  0  0  0  0  0
   -7.1902   -8.3533  -15.5398 H   0  0  0  0  0  0  0  0  0  0  0  0
   -6.2084   -7.4493  -14.3816 H   0  0  0  0  0  0  0  0  0  0  0  0
   -7.6696   -6.7175  -15.0627 H   0  0  0  0  0  0  0  0  0  0  0  0
   -6.5180   -6.2558   -9.4529 N   0  0  0  0  0  4  0  0  0  0  0  0
   -5.5832   -6.3862   -9.8546 H   0  0  0  0  0  0  0  0  0  0  0  0
   -6.2154   -7.9444  -11.6118 O   0  0  0  0  0  0  0  0  0  0  0  0
   -8.1791   -7.2978  -12.5003 O   0  0  0  0  0  0  0  0  0  0  0  0
   -8.7875   -4.5298   -7.6826 Br  0  0  0  0  0  0  0  0  0  0  0  0
   -6.3257   -4.4348   -7.9912 Pt  0  0  0  0  0  0  0  0  0  0  0  0
   -6.2202   -2.9604   -6.5502 C   0  0  0  0  0  0  0  0  0  0  0  0
   -6.8197   -2.0929   -6.8248 H   0  0  0  0  0  0  0  0  0  0  0  0
   -5.1880   -2.6513   -6.3895 H   0  0  0  0  0  0  0  0  0  0  0  0
   -6.6293   -3.3841   -5.6296 H   0  0  0  0  0  0  0  0  0  0  0  0
   -5.8624   -7.4194   -7.3852 C   0  0  0  0  0  0  0  0  0  0  0  0
   -6.0014   -8.3550   -6.8309 H   0  0  0  0  0  0  0  0  0  0  0  0
   -4.8204   -7.3650   -7.7185 H   0  0  0  0  0  0  0  0  0  0  0  0
   -5.1949   -6.1681   -5.4164 C   0  0  0  0  0  0  0  0  0  0  0  0
   -5.2977   -5.1984   -4.9184 H   0  0  0  0  0  0  0  0  0  0  0  0
   -4.1668   -6.2425   -5.7796 H   0  0  0  0  0  0  0  0  0  0  0  0
   -5.4538   -7.2460   -4.3713 C   0  0  0  0  0  0  0  0  0  0  0  0
   -4.6055   -8.2324   -2.4040 C   0  0  0  0  0  0  0  0  0  0  0  0
   -3.5829   -8.4434   -2.0873 H   0  0  0  0  0  0  0  0  0  0  0  0
   -5.0766   -9.1443   -2.7839 H   0  0  0  0  0  0  0  0  0  0  0  0
   -5.4264   -7.6464   -1.2660 C   0  0  0  0  0  0  0  0  0  0  0  0
   -5.4602   -8.3532   -0.4423 H   0  0  0  0  0  0  0  0  0  0  0  0
   -6.4420   -7.4486   -1.6001 H   0  0  0  0  0  0  0  0  0  0  0  0
   -4.9802   -6.7176   -0.9194 H   0  0  0  0  0  0  0  0  0  0  0  0
   -6.1329   -6.2558   -6.5295 N   0  0  0  0  0  4  0  0  0  0  0  0
   -7.0676   -6.3863   -6.1279 H   0  0  0  0  0  0  0  0  0  0  0  0
   -6.4355   -7.9444   -4.3706 O   0  0  0  0  0  0  0  0  0  0  0  0
   -4.4719   -7.2979   -3.4821 O   0  0  0  0  0  0  0  0  0  0  0  0
   -3.8638   -4.5296   -8.2995 Br  0  0  0  0  0  0  0  0  0  0  0  0
  1  2  1  0  0  0  0
  1 24  1  0  0  0  0
  3  1  1  0  0  0  0
  4  1  1  0  0  0  0
  5  7  1  0  0  0  0
  5 29  1  0  0  0  0
  6  5  1  0  0  0  0
  8 10  1  0  0  0  0
  8 19  1  0  0  0  0
  9  8  1  0  0  0  0
 11  8  1  0  0  0  0
 12 14  1  0  0  0  0
 12 22  1  0  0  0  0
 13 12  1  0  0  0  0
 15 17  1  0  0  0  0
 15 12  1  0  0  0  0
 16 15  1  0  0  0  0
 18 15  1  0  0  0  0
 19  5  1  0  0  0  0
 19 24  1  0  0  0  0
 20 19  1  0  0  0  0
 21 11  2  0  0  0  0
 22 11  1  0  0  0  0
 24 23  1  0  0  0  0
 24 25  1  0  0  0  0
 24 43  1  0  0  0  0
 25 27  1  0  0  0  0
 25 28  1  0  0  0  0
 26 25  1  0  0  0  0
 29 30  1  0  0  0  0
 29 43  1  0  0  0  0
 31 29  1  0  0  0  0
 32 33  1  0  0  0  0
 32 35  1  0  0  0  0
 34 32  1  0  0  0  0
 35 45  2  0  0  0  0
 35 46  1  0  0  0  0
 36 37  1  0  0  0  0
 36 39  1  0  0  0  0
 38 36  1  0  0  0  0
 39 42  1  0  0  0  0
 39 40  1  0  0  0  0
 41 39  1  0  0  0  0
 43 44  1  0  0  0  0
 43 32  1  0  0  0  0
 46 36  1  0  0  0  0
 47 24  1  0  0  0  0
M  END
$$$$
