CSD_code = MIHMEV | q = 0 | S = 0 | Stoichiometry = C9H18Cl3NOTi | MND = 5
 OpenBabel04212202073D

 33 30  0  0  0  0  0  0  0  0999 V2000
    2.1659    7.9281    3.2788 Ti  0  0  0  0  0  0  0  0  0  0  0  0
    2.3282   10.1106    3.3879 Cl  0  0  0  0  0 15  0  0  0  0  0  0
    3.3882    7.3361    4.9591 Cl  0  0  0  0  0 15  0  0  0  0  0  0
    3.6398    7.4796    1.7638 Cl  0  0  0  0  0 15  0  0  0  0  0  0
    0.8562    6.7787    3.1245 O   0  0  0  0  0  0  0  0  0  0  0  0
    0.2191    8.0052    3.1288 N   0  0  0  0  0  0  0  0  0  0  0  0
   -0.6078    8.1816    4.3532 C   0  0  0  0  0  0  0  0  0  0  0  0
   -1.2520    9.5753    4.3223 C   0  0  0  0  0  0  0  0  0  0  0  0
   -2.0171    9.8428    3.0344 C   0  0  0  0  0  0  0  0  0  0  0  0
   -1.0590    9.6841    1.8630 C   0  0  0  0  0  0  0  0  0  0  0  0
   -0.4079    8.2943    1.8105 C   0  0  0  0  0  0  0  0  0  0  0  0
   -1.3921    7.1935    1.3884 C   0  0  0  0  0  0  0  0  0  0  0  0
    0.7118    8.3376    0.7581 C   0  0  0  0  0  0  0  0  0  0  0  0
   -1.6383    7.0552    4.5180 C   0  0  0  0  0  0  0  0  0  0  0  0
    0.3331    8.1240    5.5675 C   0  0  0  0  0  0  0  0  0  0  0  0
   -1.9119    9.6696    5.1856 H   0  0  0  0  0  0  0  0  0  0  0  0
   -0.4559   10.3202    4.4113 H   0  0  0  0  0  0  0  0  0  0  0  0
   -2.8686    9.1682    2.9380 H   0  0  0  0  0  0  0  0  0  0  0  0
   -2.4093   10.8603    3.0486 H   0  0  0  0  0  0  0  0  0  0  0  0
   -1.5771    9.8582    0.9191 H   0  0  0  0  0  0  0  0  0  0  0  0
   -0.2642   10.4288    1.9647 H   0  0  0  0  0  0  0  0  0  0  0  0
   -0.9803    6.2214    1.6533 H   0  0  0  0  0  0  0  0  0  0  0  0
   -2.3672    7.3058    1.8483 H   0  0  0  0  0  0  0  0  0  0  0  0
   -1.5286    7.2250    0.3105 H   0  0  0  0  0  0  0  0  0  0  0  0
    0.2862    8.6258   -0.2017 H   0  0  0  0  0  0  0  0  0  0  0  0
    1.1744    7.3520    0.6462 H   0  0  0  0  0  0  0  0  0  0  0  0
    1.4737    9.0805    1.0244 H   0  0  0  0  0  0  0  0  0  0  0  0
   -1.1777    6.1046    4.2548 H   0  0  0  0  0  0  0  0  0  0  0  0
   -1.9561    7.0062    5.5563 H   0  0  0  0  0  0  0  0  0  0  0  0
   -2.5221    7.2041    3.9083 H   0  0  0  0  0  0  0  0  0  0  0  0
    1.1228    8.8812    5.4896 H   0  0  0  0  0  0  0  0  0  0  0  0
    0.7784    7.1290    5.6638 H   0  0  0  0  0  0  0  0  0  0  0  0
   -0.2391    8.3306    6.4702 H   0  0  0  0  0  0  0  0  0  0  0  0
  5  6  1  0  0  0  0
  5  1  1  0  0  0  0
  6  7  1  0  0  0  0
  7 14  1  0  0  0  0
  7 15  1  0  0  0  0
  8  7  1  0  0  0  0
  8 17  1  0  0  0  0
  8 16  1  0  0  0  0
  9 19  1  0  0  0  0
  9  8  1  0  0  0  0
 10 21  1  0  0  0  0
 10  9  1  0  0  0  0
 11 10  1  0  0  0  0
 11  6  1  0  0  0  0
 12 22  1  0  0  0  0
 12 11  1  0  0  0  0
 12 23  1  0  0  0  0
 13 27  1  0  0  0  0
 13 11  1  0  0  0  0
 14 29  1  0  0  0  0
 15 32  1  0  0  0  0
 15 33  1  0  0  0  0
 18  9  1  0  0  0  0
 20 10  1  0  0  0  0
 24 12  1  0  0  0  0
 25 13  1  0  0  0  0
 26 13  1  0  0  0  0
 28 14  1  0  0  0  0
 30 14  1  0  0  0  0
 31 15  1  0  0  0  0
M  END
$$$$
