CSD_code = MIJJEV | q = 0 | S = 0 | Stoichiometry = C4H2Cl2N4O2Pd | MND = 4
 OpenBabel04212202073D

 15 17  0  0  0  0  0  0  0  0999 V2000
    2.8751    8.0149    0.3427 Pd  0  0  0  0  0  0  0  0  0  0  0  0
    1.7104    7.3530   -1.3898 Cl  0  0  0  0  0  0  0  0  0  0  0  0
    3.6210    9.7776   -0.7213 Cl  0  0  0  0  0  0  0  0  0  0  0  0
    1.6447    4.7077    2.6995 O   0  0  0  0  0  0  0  0  0  0  0  0
    2.4579    5.4229    3.4950 N   0  0  0  0  0  0  0  0  0  0  0  0
    2.8331    6.4403    2.7715 C   0  0  0  0  0  0  0  0  0  0  0  0
    2.2799    6.4080    1.5086 N   0  0  0  0  0  0  0  0  0  0  0  0
    1.5617    5.3208    1.5283 C   0  0  0  0  0  3  0  0  0  0  0  0
    0.9611    4.9253    0.7302 H   0  0  0  0  0  0  0  0  0  0  0  0
    5.0059    8.9854    3.8823 O   0  0  0  0  0  0  0  0  0  0  0  0
    4.3573    7.8428    4.1644 N   0  0  0  0  0  0  0  0  0  0  0  0
    3.9082    8.4761    2.0799 N   0  0  0  0  0  0  0  0  0  0  0  0
    3.7023    7.5460    3.0771 C   0  0  0  0  0  0  0  0  0  0  0  0
    4.7168    9.3328    2.6372 C   0  0  0  0  0  3  0  0  0  0  0  0
    5.1274   10.2213    2.1945 H   0  0  0  0  0  0  0  0  0  0  0  0
  1  7  1  0  0  0  0
  1 12  1  0  0  0  0
  2  1  1  0  0  0  0
  3  1  1  0  0  0  0
  4  5  1  0  0  0  0
  6 13  1  0  0  0  0
  6  5  2  0  0  0  0
  7  8  1  0  0  0  0
  7  6  1  0  0  0  0
  8  4  1  0  0  0  0
  9  8  1  0  0  0  0
 10 11  1  0  0  0  0
 12 14  1  0  0  0  0
 12 13  1  0  0  0  0
 13 11  2  0  0  0  0
 14 10  1  0  0  0  0
 15 14  1  0  0  0  0
M  END
$$$$
