CSD_code = MIJKOF | q = 0 | S = 0 | Stoichiometry = C19H19ClNORh | MND = 5
 OpenBabel04212202073D

 42 44  0  0  1  0  0  0  0  0999 V2000
    2.0265    7.6523    3.1260 Rh  0  0  0  0  0  0  0  0  0  0  0  0
    0.9760    8.7210    1.4488 Cl  0  0  0  0  0 15  0  0  0  0  0  0
   -0.6953    7.4472    4.3123 O   0  0  0  0  0  1  0  0  0  0  0  0
    3.7794    7.8257    2.1455 N   0  0  0  0  0  0  0  0  0  0  0  0
    4.3255    5.8613    3.3743 C   0  0  0  0  0  0  0  0  0  0  0  0
    4.6501    6.8003    2.3564 C   0  0  0  0  0  0  0  0  0  0  0  0
    4.0897    8.7451    1.2552 C   0  0  0  0  0  0  0  0  0  0  0  0
    5.2624    8.6982    0.4883 C   0  0  0  0  0  0  0  0  0  0  0  0
    6.1222    7.6439    0.6323 C   0  0  0  0  0  0  0  0  0  0  0  0
    5.8275    6.6453    1.5840 C   0  0  0  0  0  0  0  0  0  0  0  0
    6.6278    5.5043    1.7891 C   0  0  0  0  0  3  0  0  0  0  0  0
    6.2650    4.5711    2.7229 C   0  0  0  0  0  0  0  0  0  0  0  0
    5.1288    4.7492    3.5198 C   0  0  0  0  0  0  0  0  0  0  0  0
    3.1679    6.1679    4.2196 C   0  0  1  0  0  3  0  0  0  0  0  0
    2.3696    5.0706    4.8996 C   0  0  1  0  0  0  0  0  0  0  0  0
    1.6671    5.7990    6.0177 C   0  0  0  0  0  0  0  0  0  0  0  0
    2.0819    7.0763    6.0792 C   0  0  0  0  0  0  0  0  0  0  0  0
    3.0436    7.3549    4.9927 C   0  0  2  0  0  0  0  0  0  0  0  0
    1.4573    4.2977    3.9469 C   0  0  0  0  0  0  0  0  0  0  0  0
    0.6564    5.1060    6.8634 C   0  0  0  0  0  0  0  0  0  0  0  0
    1.6819    8.1356    7.0527 C   0  0  0  0  0  0  0  0  0  0  0  0
    4.0747    8.4413    5.1692 C   0  0  0  0  0  0  0  0  0  0  0  0
    0.3690    7.5022    3.8968 C   0  0  0  0  0  2  0  0  0  0  0  0
    3.3770    9.5464    1.1105 H   0  0  0  0  0  0  0  0  0  0  0  0
    5.4561    9.4871   -0.2212 H   0  0  0  0  0  0  0  0  0  0  0  0
    7.0176    7.5581    0.0340 H   0  0  0  0  0  0  0  0  0  0  0  0
    7.5183    5.3779    1.1920 H   0  0  0  0  0  0  0  0  0  0  0  0
    6.8705    3.6887    2.8671 H   0  0  0  0  0  0  0  0  0  0  0  0
    4.8989    4.0080    4.2695 H   0  0  0  0  0  0  0  0  0  0  0  0
    3.0724    4.3595    5.3524 H   0  0  0  0  0  0  0  0  0  0  0  0
    0.7971    4.9873    3.4175 H   0  0  0  0  0  0  0  0  0  0  0  0
    0.8519    3.5776    4.4910 H   0  0  0  0  0  0  0  0  0  0  0  0
    2.0567    3.7654    3.2113 H   0  0  0  0  0  0  0  0  0  0  0  0
    0.9616    4.0798    7.0610 H   0  0  0  0  0  0  0  0  0  0  0  0
    0.5193    5.6172    7.8122 H   0  0  0  0  0  0  0  0  0  0  0  0
   -0.3054    5.0792    6.3496 H   0  0  0  0  0  0  0  0  0  0  0  0
    0.8388    7.8132    7.6561 H   0  0  0  0  0  0  0  0  0  0  0  0
    1.3995    9.0414    6.5181 H   0  0  0  0  0  0  0  0  0  0  0  0
    2.5108    8.3806    7.7173 H   0  0  0  0  0  0  0  0  0  0  0  0
    3.6468    9.4293    4.9796 H   0  0  0  0  0  0  0  0  0  0  0  0
    4.4339    8.4289    6.1986 H   0  0  0  0  0  0  0  0  0  0  0  0
    4.9280    8.2963    4.5092 H   0  0  0  0  0  0  0  0  0  0  0  0
  1 23  1  0  0  0  0
  1 18  1  0  0  0  0
  4  6  1  0  0  0  0
  4  1  1  0  0  0  0
  5 13  1  0  0  0  0
  6  5  2  0  0  0  0
  7  4  1  0  0  0  0
  8  9  1  0  0  0  0
  8  7  2  0  0  0  0
  9 10  2  0  0  0  0
 10 11  1  0  0  0  0
 10  6  1  0  0  0  0
 11 12  1  0  0  0  0
 12 28  1  0  0  0  0
 12 13  2  0  0  0  0
 13 29  1  0  0  0  0
 14  5  1  1  0  0  0
 14 15  1  0  0  0  0
 14 18  1  0  0  0  0
 15 30  1  1  0  0  0
 15 16  1  0  0  0  0
 16 17  2  0  0  0  0
 16 20  1  0  0  0  0
 17 21  1  0  0  0  0
 18 22  1  1  0  0  0
 18 17  1  0  0  0  0
 19 32  1  0  0  0  0
 19 15  1  0  0  0  0
 20 34  1  0  0  0  0
 20 35  1  0  0  0  0
 21 37  1  0  0  0  0
 21 39  1  0  0  0  0
 22 41  1  0  0  0  0
 23  3  1  0  0  0  0
 24  7  1  0  0  0  0
 25  8  1  0  0  0  0
 26  9  1  0  0  0  0
 27 11  1  0  0  0  0
 31 19  1  0  0  0  0
 33 19  1  0  0  0  0
 36 20  1  0  0  0  0
 38 21  1  0  0  0  0
 40 22  1  0  0  0  0
 42 22  1  0  0  0  0
M  END
$$$$
