CSD_code = MIJLIB | q = 0 | S = 0 | Stoichiometry = C12H30Cl2HfN2O2 | MND = 6
 OpenBabel04212202073D

 49 47  0  0  0  0  0  0  0  0999 V2000
    5.9392   -1.5251    0.8435 Hf  0  0  0  0  0  0  0  0  0  0  0  0
    6.0904   -3.8698    0.3448 Cl  0  0  0  0  0  0  0  0  0  0  0  0
    4.6782    0.5088    1.0102 Cl  0  0  0  0  0  0  0  0  0  0  0  0
    4.4613   -1.7809   -1.0123 O   0  0  0  0  0  0  0  0  0  0  0  0
    3.8362   -2.2666    1.6882 O   0  0  0  0  0  0  0  0  0  0  0  0
    7.3552   -0.8698   -0.3731 N   0  0  0  0  0  0  0  0  0  0  0  0
    6.6904   -1.5893    2.6732 N   0  0  0  0  0  0  0  0  0  0  0  0
    2.8241   -2.0748    0.7076 C   0  0  0  0  0  0  0  0  0  0  0  0
    2.5798   -1.0051    0.6352 H   0  0  0  0  0  0  0  0  0  0  0  0
    1.9244   -2.6409    0.9884 H   0  0  0  0  0  0  0  0  0  0  0  0
    3.3439   -2.5750   -0.6336 C   0  0  0  0  0  0  0  0  0  0  0  0
    3.6529   -3.6266   -0.5437 H   0  0  0  0  0  0  0  0  0  0  0  0
    2.5523   -2.4862   -1.3915 H   0  0  0  0  0  0  0  0  0  0  0  0
    5.0084   -2.2092   -2.2533 C   0  0  0  0  0  0  0  0  0  0  0  0
    5.2946   -3.2649   -2.2044 H   0  0  0  0  0  0  0  0  0  0  0  0
    5.8951   -1.6020   -2.4316 H   0  0  0  0  0  0  0  0  0  0  0  0
    4.2795   -2.0598   -3.0582 H   0  0  0  0  0  0  0  0  0  0  0  0
    3.4221   -1.7914    2.9632 C   0  0  0  0  0  0  0  0  0  0  0  0
    3.1401   -0.7349    2.9076 H   0  0  0  0  0  0  0  0  0  0  0  0
    4.2749   -1.9028    3.6319 H   0  0  0  0  0  0  0  0  0  0  0  0
    2.5745   -2.3827    3.3288 H   0  0  0  0  0  0  0  0  0  0  0  0
    7.3153    0.4191   -1.0365 C   0  0  0  0  0  0  0  0  0  0  0  0
    6.2811    0.6253   -1.3445 H   0  0  0  0  0  0  0  0  0  0  0  0
    7.9372    0.3923   -1.9462 H   0  0  0  0  0  0  0  0  0  0  0  0
    7.7875    1.5867   -0.1539 C   0  0  0  0  0  0  0  0  0  0  0  0
    7.1115    1.7074    0.6901 H   0  0  0  0  0  0  0  0  0  0  0  0
    7.7915    2.5098   -0.7294 H   0  0  0  0  0  0  0  0  0  0  0  0
    8.7937    1.4063    0.2203 H   0  0  0  0  0  0  0  0  0  0  0  0
    8.6768   -1.4758   -0.3480 C   0  0  0  0  0  0  0  0  0  0  0  0
    8.8109   -2.0079    0.6052 H   0  0  0  0  0  0  0  0  0  0  0  0
    9.4611   -0.7074   -0.4149 H   0  0  0  0  0  0  0  0  0  0  0  0
    8.8665   -2.4780   -1.4976 C   0  0  0  0  0  0  0  0  0  0  0  0
    8.1305   -3.2743   -1.4122 H   0  0  0  0  0  0  0  0  0  0  0  0
    9.8625   -2.9130   -1.4600 H   0  0  0  0  0  0  0  0  0  0  0  0
    8.7392   -1.9813   -2.4578 H   0  0  0  0  0  0  0  0  0  0  0  0
    7.3992   -0.4404    3.2143 C   0  0  0  0  0  0  0  0  0  0  0  0
    7.7597    0.1861    2.3852 H   0  0  0  0  0  0  0  0  0  0  0  0
    8.2759   -0.7609    3.7955 H   0  0  0  0  0  0  0  0  0  0  0  0
    6.4941    0.4138    4.1157 C   0  0  0  0  0  0  0  0  0  0  0  0
    5.6412    0.7715    3.5433 H   0  0  0  0  0  0  0  0  0  0  0  0
    7.0436    1.2691    4.5017 H   0  0  0  0  0  0  0  0  0  0  0  0
    6.1321   -0.1759    4.9558 H   0  0  0  0  0  0  0  0  0  0  0  0
    6.9277   -2.8202    3.4026 C   0  0  0  0  0  0  0  0  0  0  0  0
    6.1159   -3.5253    3.1772 H   0  0  0  0  0  0  0  0  0  0  0  0
    6.9091   -2.6227    4.4873 H   0  0  0  0  0  0  0  0  0  0  0  0
    8.2595   -3.5046    3.0513 C   0  0  0  0  0  0  0  0  0  0  0  0
    8.2459   -3.8275    2.0122 H   0  0  0  0  0  0  0  0  0  0  0  0
    8.4068   -4.3777    3.6837 H   0  0  0  0  0  0  0  0  0  0  0  0
    9.0956   -2.8230    3.1994 H   0  0  0  0  0  0  0  0  0  0  0  0
  1  3  1  0  0  0  0
  1  7  1  0  0  0  0
  2  1  1  0  0  0  0
  4 11  1  0  0  0  0
  5 18  1  0  0  0  0
  6 29  1  0  0  0  0
  6  1  1  0  0  0  0
  7 36  1  0  0  0  0
  7 43  1  0  0  0  0
  8 10  1  0  0  0  0
  8  5  1  0  0  0  0
  9  8  1  0  0  0  0
 11 12  1  0  0  0  0
 11  8  1  0  0  0  0
 13 11  1  0  0  0  0
 14 15  1  0  0  0  0
 14  4  1  0  0  0  0
 16 14  1  0  0  0  0
 17 14  1  0  0  0  0
 18 21  1  0  0  0  0
 18 20  1  0  0  0  0
 19 18  1  0  0  0  0
 22  6  1  0  0  0  0
 22 25  1  0  0  0  0
 23 22  1  0  0  0  0
 24 22  1  0  0  0  0
 25 28  1  0  0  0  0
 25 26  1  0  0  0  0
 27 25  1  0  0  0  0
 29 30  1  0  0  0  0
 31 29  1  0  0  0  0
 32 34  1  0  0  0  0
 32 33  1  0  0  0  0
 32 29  1  0  0  0  0
 35 32  1  0  0  0  0
 36 38  1  0  0  0  0
 36 39  1  0  0  0  0
 37 36  1  0  0  0  0
 39 41  1  0  0  0  0
 39 42  1  0  0  0  0
 40 39  1  0  0  0  0
 43 45  1  0  0  0  0
 44 43  1  0  0  0  0
 46 49  1  0  0  0  0
 46 43  1  0  0  0  0
 46 48  1  0  0  0  0
 47 46  1  0  0  0  0
M  END
$$$$
