CSD_code = MIJLEZ | q = 0 | S = 0 | Stoichiometry = C24H28Cl2N4O4PdS2 | MND = 4
 OpenBabel04212202073D

 65 68  0  0  1  0  0  0  0  0999 V2000
   -1.4942    4.0507    8.9614 Pd  0  0  0  0  0  0  0  0  0  0  0  0
    0.4565    2.8578    5.6267 N   0  0  0  0  0  0  0  0  0  0  0  0
   -0.4043    2.9340   10.6269 Cl  0  0  0  0  0  0  0  0  0  0  0  0
   -0.4293    2.7523    6.6423 C   0  0  2  0  0  3  0  0  0  0  0  0
    0.9763    4.3030    7.1909 C   0  0  0  0  0  0  0  0  0  0  0  0
    1.4184    5.0694    7.8002 H   0  0  0  0  0  0  0  0  0  0  0  0
   -0.1274    3.6162    7.5918 N   0  0  0  0  0  0  0  0  0  0  0  0
    0.4463    2.1273    4.3851 C   0  0  0  0  0  0  0  0  0  0  0  0
    0.3265    2.8355    3.5561 H   0  0  0  0  0  0  0  0  0  0  0  0
   -0.4088    1.4493    4.3984 H   0  0  0  0  0  0  0  0  0  0  0  0
    1.3512    3.8387    5.9682 C   0  0  0  0  0  0  0  0  0  0  0  0
    2.1503    4.1341    5.3211 H   0  0  0  0  0  0  0  0  0  0  0  0
    1.7102    1.3104    4.1976 C   0  0  0  0  0  0  0  0  0  0  0  0
    2.6126    1.9131    4.2348 H   0  0  0  0  0  0  0  0  0  0  0  0
    1.6822    0.7490    3.2677 H   0  0  0  0  0  0  0  0  0  0  0  0
    0.5148   -0.3815    5.8561 O   0  0  0  0  0  0  0  0  0  0  0  0
    1.8513    0.0552    5.5406 S   0  0  0  0  0  0  0  0  0  0  0  0
    2.7931   -0.9292    5.0852 O   0  0  0  0  0  0  0  0  0  0  0  0
    2.5480    0.9485    6.9267 C   0  0  0  0  0  0  0  0  0  0  0  0
    1.8274    1.1114    8.0920 C   0  0  0  0  0  0  0  0  0  0  0  0
    0.8483    0.6688    8.1810 H   0  0  0  0  0  0  0  0  0  0  0  0
    2.3834    1.8389    9.1330 C   0  0  0  0  0  0  0  0  0  0  0  0
    1.8145    1.9889   10.0377 H   0  0  0  0  0  0  0  0  0  0  0  0
    3.6460    2.3902    8.9882 C   0  0  0  0  0  0  0  0  0  0  0  0
    4.0742    2.9633    9.7965 H   0  0  0  0  0  0  0  0  0  0  0  0
    3.8186    1.4737    6.7798 C   0  0  0  0  0  0  0  0  0  0  0  0
    4.3678    1.2894    5.8691 H   0  0  0  0  0  0  0  0  0  0  0  0
   -1.5754    1.8098    6.7088 C   0  0  0  0  0  0  0  0  0  0  0  0
   -1.9972    1.8489    7.7287 H   0  0  0  0  0  0  0  0  0  0  0  0
   -1.2445    0.7940    6.4885 H   0  0  0  0  0  0  0  0  0  0  0  0
   -2.3531    2.1020    6.0015 H   0  0  0  0  0  0  0  0  0  0  0  0
    4.3695    2.2022    7.8198 C   0  0  0  0  0  0  0  0  0  0  0  0
    5.3600    2.6197    7.7193 H   0  0  0  0  0  0  0  0  0  0  0  0
   -3.4451    5.2439   12.2959 N   0  0  0  0  0  0  0  0  0  0  0  0
   -2.5840    5.1674    7.2964 Cl  0  0  0  0  0  0  0  0  0  0  0  0
   -2.5593    5.3494   11.2803 C   0  0  1  0  0  3  0  0  0  0  0  0
   -3.9644    3.7983   10.7319 C   0  0  0  0  0  0  0  0  0  0  0  0
   -4.4062    3.0317   10.1228 H   0  0  0  0  0  0  0  0  0  0  0  0
   -2.8610    4.4855   10.3309 N   0  0  0  0  0  0  0  0  0  0  0  0
   -3.4352    5.9745   13.5374 C   0  0  0  0  0  0  0  0  0  0  0  0
   -3.3153    5.2665   14.3666 H   0  0  0  0  0  0  0  0  0  0  0  0
   -2.5802    6.6528   13.5241 H   0  0  0  0  0  0  0  0  0  0  0  0
   -4.3397    4.2628   11.9545 C   0  0  0  0  0  0  0  0  0  0  0  0
   -5.1388    3.9674   12.6015 H   0  0  0  0  0  0  0  0  0  0  0  0
   -4.6992    6.7912   13.7247 C   0  0  0  0  0  0  0  0  0  0  0  0
   -5.6015    6.1883   13.6874 H   0  0  0  0  0  0  0  0  0  0  0  0
   -4.6715    7.3527   14.6545 H   0  0  0  0  0  0  0  0  0  0  0  0
   -3.5041    8.4830   12.0660 O   0  0  0  0  0  0  0  0  0  0  0  0
   -4.8405    8.0462   12.3815 S   0  0  0  0  0  0  0  0  0  0  0  0
   -5.7823    9.0305   12.8369 O   0  0  0  0  0  0  0  0  0  0  0  0
   -5.5372    7.1528   10.9955 C   0  0  0  0  0  0  0  0  0  0  0  0
   -4.8167    6.9896    9.8303 C   0  0  0  0  0  0  0  0  0  0  0  0
   -3.8374    7.4322    9.7412 H   0  0  0  0  0  0  0  0  0  0  0  0
   -5.3727    6.2622    8.7893 C   0  0  0  0  0  0  0  0  0  0  0  0
   -4.8038    6.1120    7.8846 H   0  0  0  0  0  0  0  0  0  0  0  0
   -6.6354    5.7111    8.9341 C   0  0  0  0  0  0  0  0  0  0  0  0
   -7.0637    5.1379    8.1258 H   0  0  0  0  0  0  0  0  0  0  0  0
   -6.8078    6.6277   11.1425 C   0  0  0  0  0  0  0  0  0  0  0  0
   -7.3570    6.8120   12.0532 H   0  0  0  0  0  0  0  0  0  0  0  0
   -1.4133    6.2921   11.2139 C   0  0  0  0  0  0  0  0  0  0  0  0
   -0.9914    6.2531   10.1939 H   0  0  0  0  0  0  0  0  0  0  0  0
   -1.7444    7.3078   11.4340 H   0  0  0  0  0  0  0  0  0  0  0  0
   -0.6356    6.0003   11.9213 H   0  0  0  0  0  0  0  0  0  0  0  0
   -7.3588    5.8992   10.1026 C   0  0  0  0  0  0  0  0  0  0  0  0
   -8.3494    5.4817   10.2031 H   0  0  0  0  0  0  0  0  0  0  0  0
  1 39  1  0  0  0  0
  1  3  1  0  0  0  0
  2 11  1  0  0  0  0
  2  4  1  0  0  0  0
  4 28  1  1  0  0  0
  4  7  1  0  0  0  0
  5  7  1  0  0  0  0
  5  6  1  0  0  0  0
  7  1  1  0  0  0  0
  8 10  1  0  0  0  0
  8  2  1  0  0  0  0
  9  8  1  0  0  0  0
 11  5  2  0  0  0  0
 12 11  1  0  0  0  0
 13 14  1  0  0  0  0
 13  8  1  0  0  0  0
 13 17  1  0  0  0  0
 15 13  1  0  0  0  0
 17 16  2  0  0  0  0
 17 19  1  0  0  0  0
 18 17  2  0  0  0  0
 19 20  1  0  0  0  0
 20 21  1  0  0  0  0
 20 22  2  0  0  0  0
 22 23  1  0  0  0  0
 24 22  1  0  0  0  0
 24 25  1  0  0  0  0
 26 19  2  0  0  0  0
 26 32  1  0  0  0  0
 27 26  1  0  0  0  0
 28 29  1  0  0  0  0
 30 28  1  0  0  0  0
 31 28  1  0  0  0  0
 32 24  2  0  0  0  0
 33 32  1  0  0  0  0
 34 40  1  0  0  0  0
 35  1  1  0  0  0  0
 36 60  1  6  0  0  0
 36 34  1  0  0  0  0
 37 43  2  0  0  0  0
 38 37  1  0  0  0  0
 39 37  1  0  0  0  0
 39 36  1  0  0  0  0
 40 45  1  0  0  0  0
 40 41  1  0  0  0  0
 42 40  1  0  0  0  0
 43 34  1  0  0  0  0
 43 44  1  0  0  0  0
 45 47  1  0  0  0  0
 46 45  1  0  0  0  0
 48 49  2  0  0  0  0
 49 50  2  0  0  0  0
 49 45  1  0  0  0  0
 51 58  1  0  0  0  0
 51 49  1  0  0  0  0
 52 51  2  0  0  0  0
 53 52  1  0  0  0  0
 54 56  2  0  0  0  0
 54 52  1  0  0  0  0
 55 54  1  0  0  0  0
 56 64  1  0  0  0  0
 57 56  1  0  0  0  0
 58 59  1  0  0  0  0
 60 62  1  0  0  0  0
 60 63  1  0  0  0  0
 61 60  1  0  0  0  0
 64 65  1  0  0  0  0
 64 58  2  0  0  0  0
M  END
$$$$
