CSD_code = MIKJEV | q = 0 | S = 0 | Stoichiometry = C10H10BCl2F3N6O3OsS | MND = 6
 OpenBabel04212202073D

 37 41  0  0  1  0  0  0  0  0999 V2000
    5.8236    1.4661    1.6294 C   0  0  0  0  0  3  0  0  0  0  0  0
    6.6273    1.6350    0.5045 C   0  0  0  0  0  0  0  0  0  0  0  0
    5.8863    1.1222   -0.5398 C   0  0  0  0  0  0  0  0  0  0  0  0
    2.5714   -2.5870    1.4932 C   0  0  0  0  0  3  0  0  0  0  0  0
    2.6905   -3.3970    0.3677 C   0  0  0  0  0  0  0  0  0  0  0  0
    3.1170   -2.5510   -0.6397 C   0  0  0  0  0  0  0  0  0  0  0  0
    0.7397    1.6463    0.8396 C   0  0  0  0  0  3  0  0  0  0  0  0
    0.3614    1.9574   -0.4626 C   0  0  0  0  0  0  0  0  0  0  0  0
    1.3705    1.4468   -1.2572 C   0  0  0  0  0  0  0  0  0  0  0  0
   -0.1707   -0.5313    5.4154 C   0  0  0  0  0  0  0  0  0  0  0  0
    3.5333    0.0377   -0.7918 B   0  0  1  0  0  0  0  0  0  0  0  0
    2.8620    2.2344    3.3584 Cl  0  0  0  0  0  0  0  0  0  0  0  0
    4.3375   -0.8674    3.6967 Cl  0  0  0  0  0  0  0  0  0  0  0  0
   -1.0136   -1.3251    4.7471 F   0  0  0  0  0  0  0  0  0  0  0  0
   -0.3103   -0.7916    6.7153 F   0  0  0  0  0  0  0  0  0  0  0  0
   -0.5610    0.7305    5.2064 F   0  0  0  0  0  0  0  0  0  0  0  0
    1.3424   -0.3254    3.3921 O   0  0  0  0  0  0  0  0  0  0  0  0
    1.8473   -2.1613    4.9039 O   0  0  0  0  0  1  0  0  0  0  0  0
    2.3755    0.1591    5.5454 O   0  0  0  0  0  1  0  0  0  0  0  0
    3.0791    0.3150    2.3603 Os  0  0  0  0  0  0  0  0  0  0  0  0
    1.5836   -0.7611    4.7912 S   0  0  0  0  0  0  0  0  0  0  0  0
    4.6841    0.8929    1.2670 N   0  0  2  0  0  0  0  0  0  0  0  0
    4.7184    0.6796   -0.0550 N   0  0  0  0  0  0  0  0  0  0  0  0
    2.9137   -1.3463    1.1653 N   0  0  1  0  0  0  0  0  0  0  0  0
    3.2459   -1.3215   -0.1310 N   0  0  0  0  0  0  0  0  0  0  0  0
    1.9005    1.0015    0.8113 N   0  0  2  0  0  0  0  0  0  0  0  0
    2.2852    0.8792   -0.4646 N   0  0  0  0  0  0  0  0  0  0  0  0
    6.0138    1.7252    2.6519 H   0  0  0  0  0  0  0  0  0  0  0  0
    7.6047    2.0675    0.4631 H   0  0  0  0  0  0  0  0  0  0  0  0
    6.1192    1.0490   -1.5823 H   0  0  0  0  0  0  0  0  0  0  0  0
    2.2697   -2.8347    2.4945 H   0  0  0  0  0  0  0  0  0  0  0  0
    2.4954   -4.4467    0.3014 H   0  0  0  0  0  0  0  0  0  0  0  0
    3.3307   -2.7532   -1.6696 H   0  0  0  0  0  0  0  0  0  0  0  0
    0.2447    1.8533    1.7682 H   0  0  0  0  0  0  0  0  0  0  0  0
   -0.5185    2.4786   -0.7763 H   0  0  0  0  0  0  0  0  0  0  0  0
    1.4844    1.4550   -2.3219 H   0  0  0  0  0  0  0  0  0  0  0  0
    3.7238   -0.0540   -1.9488 H   0  0  0  0  0  0  0  0  0  0  0  0
  1 28  1  0  0  0  0
  2  1  1  0  0  0  0
  3 23  1  0  0  0  0
  3  2  2  0  0  0  0
  4 31  1  0  0  0  0
  5  4  1  0  0  0  0
  6 25  1  0  0  0  0
  6  5  2  0  0  0  0
  7 34  1  0  0  0  0
  8  7  1  0  0  0  0
  9 27  1  0  0  0  0
  9  8  2  0  0  0  0
 10 15  1  0  0  0  0
 11 37  1  6  0  0  0
 11 27  1  0  0  0  0
 11 25  1  0  0  0  0
 11 23  1  0  0  0  0
 14 10  1  0  0  0  0
 16 10  1  0  0  0  0
 17 21  1  0  0  0  0
 20 12  1  0  0  0  0
 20 17  1  0  0  0  0
 20 13  1  0  0  0  0
 21 18  1  0  0  0  0
 21 10  1  0  0  0  0
 21 19  1  0  0  0  0
 22  1  1  1  0  0  0
 22 20  1  0  0  0  0
 23 22  1  0  0  0  0
 24  4  1  1  0  0  0
 24 20  1  0  0  0  0
 25 24  1  0  0  0  0
 26  7  1  1  0  0  0
 26 20  1  0  0  0  0
 27 26  1  0  0  0  0
 29  2  1  0  0  0  0
 30  3  1  0  0  0  0
 32  5  1  0  0  0  0
 33  6  1  0  0  0  0
 35  8  1  0  0  0  0
 36  9  1  0  0  0  0
M  END
$$$$
