CSD_code = MIKLOK | q = 0 | S = 0 | Stoichiometry = C23H15AuClN | MND = 2
 OpenBabel04212202073D

 41 44  0  0  1  0  0  0  0  0999 V2000
    2.9938   -0.1260    9.2786 C   0  0  0  0  0  0  0  0  0  0  0  0
    1.7730    0.4176    9.8897 C   0  0  1  0  0  3  0  0  0  0  0  0
    1.2563   -0.2189   11.0169 C   0  0  0  0  0  0  0  0  0  0  0  0
    1.7551   -1.1009   11.3922 H   0  0  0  0  0  0  0  0  0  0  0  0
    0.1301    0.2634   11.6519 C   0  0  0  0  0  0  0  0  0  0  0  0
   -0.2574   -0.2426   12.5232 H   0  0  0  0  0  0  0  0  0  0  0  0
   -0.4925    1.4073   11.1727 C   0  0  0  0  0  0  0  0  0  0  0  0
   -1.3655    1.7993   11.6725 H   0  0  0  0  0  0  0  0  0  0  0  0
    0.0058    2.0417   10.0548 C   0  0  0  0  0  0  0  0  0  0  0  0
   -0.4841    2.9269    9.6750 H   0  0  0  0  0  0  0  0  0  0  0  0
    1.1249    1.5489    9.3762 C   0  0  0  0  0  0  0  0  0  0  0  0
    1.5759    2.2521    8.1908 C   0  0  0  0  0  0  0  0  0  0  0  0
    1.3122    3.3026    8.1623 H   0  0  0  0  0  0  0  0  0  0  0  0
    2.1696    1.7280    7.1099 C   0  0  0  0  0  0  0  0  0  0  0  0
    2.3537    2.3859    6.2692 H   0  0  0  0  0  0  0  0  0  0  0  0
    2.5035    0.3375    6.8658 C   0  0  0  0  0  0  0  0  0  0  0  0
    2.4911   -0.1186    5.5442 C   0  0  0  0  0  0  0  0  0  0  0  0
    2.2272    0.5743    4.7579 H   0  0  0  0  0  0  0  0  0  0  0  0
    2.7840   -1.4293    5.2326 C   0  0  0  0  0  0  0  0  0  0  0  0
    2.7538   -1.7605    4.2054 H   0  0  0  0  0  0  0  0  0  0  0  0
    3.1210   -2.3185    6.2421 C   0  0  0  0  0  0  0  0  0  0  0  0
    3.3534   -3.3463    6.0072 H   0  0  0  0  0  0  0  0  0  0  0  0
    3.1723   -1.8792    7.5502 C   0  0  0  0  0  0  0  0  0  0  0  0
    3.4405   -2.5651    8.3408 H   0  0  0  0  0  0  0  0  0  0  0  0
    2.8709   -0.5601    7.8782 C   0  0  0  0  0  0  0  0  0  0  0  0
    4.1308   -0.3558    9.9564 C   0  0  0  0  0  3  0  0  0  0  0  0
    4.9314   -0.8735    9.4416 H   0  0  0  0  0  0  0  0  0  0  0  0
    4.4281    0.0230   11.3266 C   0  0  0  0  0  0  0  0  0  0  0  0
    3.8946    1.1685   11.9275 C   0  0  0  0  0  0  0  0  0  0  0  0
    3.2421    1.8129   11.3607 H   0  0  0  0  0  0  0  0  0  0  0  0
    4.2099    1.5012   13.2254 C   0  0  0  0  0  0  0  0  0  0  0  0
    3.8002    2.3875   13.6853 H   0  0  0  0  0  0  0  0  0  0  0  0
    5.0764    0.6855   13.9553 C   0  0  0  0  0  0  0  0  0  0  0  0
    5.6387   -0.4491   13.3692 C   0  0  0  0  0  0  0  0  0  0  0  0
    6.3173   -1.0641   13.9406 H   0  0  0  0  0  0  0  0  0  0  0  0
    5.3204   -0.7616   12.0668 C   0  0  0  0  0  0  0  0  0  0  0  0
    5.7567   -1.6377   11.6099 H   0  0  0  0  0  0  0  0  0  0  0  0
    5.6560    1.2768   16.3321 C   0  0  0  0  0  0  0  0  0  0  0  0
    5.3856    1.0043   15.2332 N   0  0  0  0  0  2  0  0  0  0  0  0
    6.6543    2.2303   20.1634 Cl  0  0  0  0  0  0  0  0  0  0  0  0
    6.1096    1.7141   18.0894 Au  0  0  0  0  0  0  0  0  0  0  0  0
  1 26  1  0  0  0  0
  2  1  1  1  0  0  0
  2  3  1  0  0  0  0
  3  4  1  0  0  0  0
  3  5  2  0  0  0  0
  5  6  1  0  0  0  0
  7  5  1  0  0  0  0
  7  8  1  0  0  0  0
  9  7  2  0  0  0  0
 10  9  1  0  0  0  0
 11  2  1  0  0  0  0
 11  9  1  0  0  0  0
 12 11  2  0  0  0  0
 13 12  1  0  0  0  0
 14 12  1  0  0  0  0
 15 14  1  0  0  0  0
 16 14  2  0  0  0  0
 16 25  1  0  0  0  0
 17 16  1  0  0  0  0
 18 17  1  0  0  0  0
 19 17  2  0  0  0  0
 19 21  1  0  0  0  0
 20 19  1  0  0  0  0
 21 23  2  0  0  0  0
 22 21  1  0  0  0  0
 23 25  1  0  0  0  0
 23 24  1  0  0  0  0
 25  1  2  0  0  0  0
 26 28  1  0  0  0  0
 27 26  1  0  0  0  0
 28 29  2  0  0  0  0
 28 36  1  0  0  0  0
 29 31  1  0  0  0  0
 30 29  1  0  0  0  0
 31 32  1  0  0  0  0
 31 33  2  0  0  0  0
 33 39  1  0  0  0  0
 34 35  1  0  0  0  0
 34 33  1  0  0  0  0
 36 34  2  0  0  0  0
 37 36  1  0  0  0  0
 38 41  3  0  0  0  0
 39 38  1  0  0  0  0
 41 40  1  0  0  0  0
M  END
$$$$
