CSD_code = MIKPUU | q = 1 | S = 0 | Stoichiometry = C23H21ClN5Ru(1+) | MND = 6
 OpenBabel04212202073D

 51 58  0  0  1  0  0  0  0  0999 V2000
    3.9993    4.3063    8.1337 Ru  0  0  0  0  0  0  0  0  0  0  0  0
    4.3689    2.8215    9.9141 Cl  0  0  0  0  0  0  0  0  0  0  0  0
    3.3693    2.9292    6.8334 N   0  0  0  0  0  0  0  0  0  0  0  0
    3.6576    5.6231    6.6350 N   0  0  1  0  0  4  0  0  0  0  0  0
    2.1491    4.7466    8.6700 N   0  0  0  0  0  0  0  0  0  0  0  0
    5.8092    4.1125    7.3120 N   0  0  0  0  0  0  0  0  0  0  0  0
    4.5208    5.9158    9.1558 N   0  0  0  0  0  0  0  0  0  0  0  0
    2.9175    3.4660    5.6878 C   0  0  2  0  0  3  0  0  0  0  0  0
    6.0055    4.9613    6.2888 C   0  0  2  0  0  3  0  0  0  0  0  0
    2.7947    4.9784    5.6385 C   0  0  0  0  0  0  0  0  0  0  0  0
    3.0200    5.3345    4.6252 H   0  0  0  0  0  0  0  0  0  0  0  0
    1.7483    5.2349    5.8460 H   0  0  0  0  0  0  0  0  0  0  0  0
    7.1335    4.8870    5.4889 C   0  0  0  0  0  0  0  0  0  0  0  0
    7.2630    5.5795    4.6717 H   0  0  0  0  0  0  0  0  0  0  0  0
    5.3176    6.0791   10.2098 C   0  0  0  0  0  3  0  0  0  0  0  0
    5.7577    5.1741   10.6112 H   0  0  0  0  0  0  0  0  0  0  0  0
    2.9835    6.6393    7.4703 C   0  0  1  0  0  0  0  0  0  0  0  0
    2.6645    7.5251    6.9040 H   0  0  0  0  0  0  0  0  0  0  0  0
    2.5331    2.6755    4.6172 C   0  0  0  0  0  0  0  0  0  0  0  0
    2.1754    3.1344    3.7086 H   0  0  0  0  0  0  0  0  0  0  0  0
    1.8253    5.9581    8.1787 C   0  0  2  0  0  3  0  0  0  0  0  0
    5.5397    7.3238   10.7731 C   0  0  0  0  0  0  0  0  0  0  0  0
    6.1819    7.4167   11.6332 H   0  0  0  0  0  0  0  0  0  0  0  0
    6.7275    3.1822    7.5705 C   0  0  0  0  0  0  0  0  0  0  0  0
    6.5093    2.5390    8.4160 H   0  0  0  0  0  0  0  0  0  0  0  0
    3.4428    1.6033    6.9462 C   0  0  0  0  0  0  0  0  0  0  0  0
    3.8077    1.2402    7.9007 H   0  0  0  0  0  0  0  0  0  0  0  0
    0.5799    6.5249    8.3747 C   0  0  0  0  0  0  0  0  0  0  0  0
    0.3530    7.4987    7.9691 H   0  0  0  0  0  0  0  0  0  0  0  0
    4.9548    6.0379    6.0889 C   0  0  0  0  0  0  0  0  0  0  0  0
    5.2960    6.9376    6.6164 H   0  0  0  0  0  0  0  0  0  0  0  0
    4.8797    6.2945    5.0245 H   0  0  0  0  0  0  0  0  0  0  0  0
    4.0879    8.2664    9.1234 C   0  0  0  0  0  0  0  0  0  0  0  0
    3.5859    9.1068    8.6695 H   0  0  0  0  0  0  0  0  0  0  0  0
    4.9192    8.4368   10.2235 C   0  0  0  0  0  0  0  0  0  0  0  0
    5.0724    9.4187   10.6410 H   0  0  0  0  0  0  0  0  0  0  0  0
    3.9164    6.9920    8.6162 C   0  0  0  0  0  0  0  0  0  0  0  0
    3.0684    0.7510    5.9227 C   0  0  0  0  0  0  0  0  0  0  0  0
    3.1381   -0.3155    6.0579 H   0  0  0  0  0  0  0  0  0  0  0  0
    7.8837    3.0544    6.8209 C   0  0  0  0  0  0  0  0  0  0  0  0
    8.6032    2.2914    7.0673 H   0  0  0  0  0  0  0  0  0  0  0  0
    8.0905    3.9178    5.7561 C   0  0  0  0  0  0  0  0  0  0  0  0
    8.9754    3.8434    5.1445 H   0  0  0  0  0  0  0  0  0  0  0  0
   -0.3671    5.8119    9.0995 C   0  0  0  0  0  0  0  0  0  0  0  0
   -1.3477    6.2270    9.2669 H   0  0  0  0  0  0  0  0  0  0  0  0
    1.2428    4.0642    9.3666 C   0  0  0  0  0  0  0  0  0  0  0  0
    1.5709    3.1071    9.7541 H   0  0  0  0  0  0  0  0  0  0  0  0
   -0.0255    4.5650    9.6040 C   0  0  0  0  0  0  0  0  0  0  0  0
   -0.7305    3.9892   10.1803 H   0  0  0  0  0  0  0  0  0  0  0  0
    2.6087    1.2946    4.7329 C   0  0  0  0  0  0  0  0  0  0  0  0
    2.3124    0.6624    3.9113 H   0  0  0  0  0  0  0  0  0  0  0  0
  1  5  1  0  0  0  0
  1  7  1  0  0  0  0
  1  2  1  0  0  0  0
  3 26  1  0  0  0  0
  3  1  1  0  0  0  0
  4 10  1  6  0  0  0
  4 17  1  0  0  0  0
  4  1  1  0  0  0  0
  5 46  1  0  0  0  0
  6 24  1  0  0  0  0
  6  1  1  0  0  0  0
  7 15  1  0  0  0  0
  8 19  1  1  0  0  0
  8  3  1  0  0  0  0
  9 13  1  1  0  0  0
  9  6  1  0  0  0  0
 10  8  1  0  0  0  0
 10 12  1  0  0  0  0
 11 10  1  0  0  0  0
 13 42  2  0  0  0  0
 14 13  1  0  0  0  0
 15 16  1  0  0  0  0
 15 22  1  0  0  0  0
 17 18  1  6  0  0  0
 17 21  1  0  0  0  0
 17 37  1  0  0  0  0
 19 50  2  0  0  0  0
 20 19  1  0  0  0  0
 21 28  1  1  0  0  0
 21  5  1  0  0  0  0
 22 23  1  0  0  0  0
 24 25  1  0  0  0  0
 26 27  1  0  0  0  0
 28 44  2  0  0  0  0
 29 28  1  0  0  0  0
 30  9  1  0  0  0  0
 30 31  1  0  0  0  0
 30  4  1  0  0  0  0
 32 30  1  0  0  0  0
 33 35  1  0  0  0  0
 34 33  1  0  0  0  0
 35 36  1  0  0  0  0
 35 22  2  0  0  0  0
 37 33  2  0  0  0  0
 37  7  1  0  0  0  0
 38 39  1  0  0  0  0
 38 26  2  0  0  0  0
 40 41  1  0  0  0  0
 40 24  2  0  0  0  0
 42 40  1  0  0  0  0
 43 42  1  0  0  0  0
 44 45  1  0  0  0  0
 44 48  1  0  0  0  0
 46 48  2  0  0  0  0
 46 47  1  0  0  0  0
 48 49  1  0  0  0  0
 50 38  1  0  0  0  0
 51 50  1  0  0  0  0
M  END
$$$$
