CSD_code = MIKQAB | q = 1 | S = 0 | Stoichiometry = C30H27ClN5Ru(1+) | MND = 6
 OpenBabel04212202073D

 64 72  0  0  1  0  0  0  0  0999 V2000
   -0.9410    1.0254    9.9813 Ru  0  0  0  0  0  0  0  0  0  0  0  0
   -1.5281   -0.1033    8.0077 Cl  0  0  0  0  0  0  0  0  0  0  0  0
    1.0790    1.0697    9.5678 N   0  0  2  0  0  4  0  0  0  0  0  0
   -0.5949   -0.6798   10.7226 N   0  0  0  0  0  0  0  0  0  0  0  0
    0.3620    3.2857    9.0089 C   0  0  1  0  0  3  0  0  0  0  0  0
   -0.3498    2.0557   11.5635 N   0  0  0  0  0  0  0  0  0  0  0  0
   -1.6040   -1.5481   10.8586 C   0  0  0  0  0  0  0  0  0  0  0  0
    3.7924   -0.2819    8.0387 C   0  0  0  0  0  0  0  0  0  0  0  0
    3.3523   -1.2469    8.2509 H   0  0  0  0  0  0  0  0  0  0  0  0
   -2.9070   -0.8829   10.7822 C   0  0  0  0  0  0  0  0  0  0  0  0
   -2.8603    0.4674   10.6050 N   0  0  0  0  0  0  0  0  0  0  0  0
   -4.1140   -1.5593   10.9166 C   0  0  0  0  0  0  0  0  0  0  0  0
   -4.1220   -2.6296   11.0361 H   0  0  0  0  0  0  0  0  0  0  0  0
   -0.8834    2.7754    8.9289 N   0  0  0  0  0  0  0  0  0  0  0  0
   -1.4215    4.4350    7.3074 C   0  0  0  0  0  0  0  0  0  0  0  0
   -2.1433    4.8390    6.6170 H   0  0  0  0  0  0  0  0  0  0  0  0
    0.7915    2.7256   11.3094 C   0  0  1  0  0  3  0  0  0  0  0  0
    1.6567    0.0924   10.5219 C   0  0  0  0  0  0  0  0  0  0  0  0
    2.6273   -0.2704   10.1700 H   0  0  0  0  0  0  0  0  0  0  0  0
    1.8212    0.5780   11.4919 H   0  0  0  0  0  0  0  0  0  0  0  0
    1.3009    2.4923    9.9072 C   0  0  1  0  0  0  0  0  0  0  0  0
    2.3464    2.8058    9.7912 H   0  0  0  0  0  0  0  0  0  0  0  0
    2.9789    0.8424    7.9367 C   0  0  0  0  0  0  0  0  0  0  0  0
    0.6863   -1.0560   10.7288 C   0  0  0  0  0  0  0  0  0  0  0  0
    0.8077    3.6933   13.4879 C   0  0  0  0  0  0  0  0  0  0  0  0
    1.2530    4.3309   14.2335 H   0  0  0  0  0  0  0  0  0  0  0  0
   -3.9308    2.6507   10.5785 C   0  0  0  0  0  0  0  0  0  0  0  0
   -4.4318    3.0740   11.4479 H   0  0  0  0  0  0  0  0  0  0  0  0
   -2.8929    2.9837   10.5652 H   0  0  0  0  0  0  0  0  0  0  0  0
   -4.4435    3.0219    9.6934 H   0  0  0  0  0  0  0  0  0  0  0  0
    1.4963    0.7410    8.1868 C   0  0  0  0  0  0  0  0  0  0  0  0
    0.9585    1.4040    7.5023 H   0  0  0  0  0  0  0  0  0  0  0  0
    1.1515   -0.2786    7.9899 H   0  0  0  0  0  0  0  0  0  0  0  0
   -0.0073   -3.3097   11.0899 C   0  0  0  0  0  0  0  0  0  0  0  0
    0.2315   -4.3518   11.2303 H   0  0  0  0  0  0  0  0  0  0  0  0
   -3.9991    1.1579   10.6372 C   0  0  0  0  0  0  0  0  0  0  0  0
   -0.1721    5.0179    7.4565 C   0  0  0  0  0  0  0  0  0  0  0  0
    0.0996    5.8992    6.8981 H   0  0  0  0  0  0  0  0  0  0  0  0
    5.7267    1.0327    7.5044 C   0  0  0  0  0  0  0  0  0  0  0  0
    6.7901    1.1073    7.3388 H   0  0  0  0  0  0  0  0  0  0  0  0
    0.7393    4.4240    8.3192 C   0  0  0  0  0  0  0  0  0  0  0  0
    1.7320    4.8293    8.4400 H   0  0  0  0  0  0  0  0  0  0  0  0
    1.0213   -2.3826   10.9177 C   0  0  0  0  0  0  0  0  0  0  0  0
    2.0527   -2.6973   10.9204 H   0  0  0  0  0  0  0  0  0  0  0  0
   -1.7400    3.3241    8.0688 C   0  0  0  0  0  0  0  0  0  0  0  0
   -2.7028    2.8382    7.9871 H   0  0  0  0  0  0  0  0  0  0  0  0
   -1.3289   -2.9007   11.0595 C   0  0  0  0  0  0  0  0  0  0  0  0
   -2.1238   -3.6191   11.1689 H   0  0  0  0  0  0  0  0  0  0  0  0
    4.9223    2.1514    7.3682 C   0  0  0  0  0  0  0  0  0  0  0  0
    5.3563    3.0989    7.0869 H   0  0  0  0  0  0  0  0  0  0  0  0
   -0.3572    2.9850   13.7564 C   0  0  0  0  0  0  0  0  0  0  0  0
   -0.8391    3.0595   14.7173 H   0  0  0  0  0  0  0  0  0  0  0  0
   -0.9016    2.1798   12.7752 C   0  0  0  0  0  0  0  0  0  0  0  0
   -1.8098    1.6156   12.9447 H   0  0  0  0  0  0  0  0  0  0  0  0
    3.5579    2.0552    7.5790 C   0  0  0  0  0  0  0  0  0  0  0  0
    2.9316    2.9238    7.4317 H   0  0  0  0  0  0  0  0  0  0  0  0
    1.3937    3.5545   12.2364 C   0  0  0  0  0  0  0  0  0  0  0  0
    2.3052    4.0744   11.9872 H   0  0  0  0  0  0  0  0  0  0  0  0
    5.1572   -0.1869    7.8276 C   0  0  0  0  0  0  0  0  0  0  0  0
    5.7744   -1.0687    7.9060 H   0  0  0  0  0  0  0  0  0  0  0  0
   -5.2365    0.5308   10.7635 C   0  0  0  0  0  0  0  0  0  0  0  0
   -6.1337    1.1287   10.7616 H   0  0  0  0  0  0  0  0  0  0  0  0
   -5.2994   -0.8457   10.8793 C   0  0  0  0  0  0  0  0  0  0  0  0
   -6.2486   -1.3516   10.9552 H   0  0  0  0  0  0  0  0  0  0  0  0
  1 11  1  0  0  0  0
  1  4  1  0  0  0  0
  1  6  1  0  0  0  0
  2  1  1  0  0  0  0
  3 31  1  6  0  0  0
  3 21  1  0  0  0  0
  3  1  1  0  0  0  0
  3 18  1  0  0  0  0
  4 24  1  0  0  0  0
  4  7  1  0  0  0  0
  5 41  1  6  0  0  0
  5 21  1  0  0  0  0
  6 53  1  0  0  0  0
  7 47  1  0  0  0  0
  8  9  1  0  0  0  0
 10  7  2  0  0  0  0
 10 12  1  0  0  0  0
 11 36  1  0  0  0  0
 11 10  1  0  0  0  0
 12 13  1  0  0  0  0
 14  5  1  0  0  0  0
 14  1  1  0  0  0  0
 15 37  1  0  0  0  0
 15 45  2  0  0  0  0
 16 15  1  0  0  0  0
 17  6  1  0  0  0  0
 17 57  1  6  0  0  0
 18 24  1  0  0  0  0
 18 20  1  0  0  0  0
 19 18  1  0  0  0  0
 21 22  1  6  0  0  0
 21 17  1  0  0  0  0
 23  8  1  0  0  0  0
 23 31  1  0  0  0  0
 24 43  2  0  0  0  0
 25 51  1  0  0  0  0
 25 26  1  0  0  0  0
 27 36  1  0  0  0  0
 27 28  1  0  0  0  0
 29 27  1  0  0  0  0
 30 27  1  0  0  0  0
 32 31  1  0  0  0  0
 33 31  1  0  0  0  0
 34 35  1  0  0  0  0
 36 61  2  0  0  0  0
 37 41  2  0  0  0  0
 38 37  1  0  0  0  0
 39 59  1  0  0  0  0
 40 39  1  0  0  0  0
 41 42  1  0  0  0  0
 43 44  1  0  0  0  0
 43 34  1  0  0  0  0
 45 14  1  0  0  0  0
 46 45  1  0  0  0  0
 47 34  2  0  0  0  0
 47 48  1  0  0  0  0
 49 39  2  0  0  0  0
 49 55  1  0  0  0  0
 50 49  1  0  0  0  0
 51 52  1  0  0  0  0
 53 54  1  0  0  0  0
 53 51  2  0  0  0  0
 55 23  2  0  0  0  0
 56 55  1  0  0  0  0
 57 25  2  0  0  0  0
 58 57  1  0  0  0  0
 59 60  1  0  0  0  0
 59  8  2  0  0  0  0
 61 63  1  0  0  0  0
 62 61  1  0  0  0  0
 63 12  2  0  0  0  0
 63 64  1  0  0  0  0
M  END
$$$$
