CSD_code = MILBOY | q = 0 | S = 0 | Stoichiometry = C10H13ClN4NiS | MND = 4
 OpenBabel04212202073D

 30 32  0  0  0  0  0  0  0  0999 V2000
    3.8114    0.1530    4.9435 Ni  0  0  1  0  0  0  0  0  0  0  0  0
    3.8379   -0.3239    2.9876 Cl  0  0  0  0  0  0  0  0  0  0  0  0
    4.2965    2.2395    4.5946 S   0  0  0  0  0  0  0  0  0  0  0  0
    3.3558   -1.6687    5.5994 N   0  0  0  0  0  0  0  0  0  0  0  0
    3.7919    0.5801    6.7452 N   0  0  0  0  0  0  0  0  0  0  0  0
    4.0347    1.8011    7.2141 N   0  0  0  0  0  0  0  0  0  0  0  0
    4.5498    3.9595    6.6266 N   0  0  0  0  0  0  0  0  0  0  0  0
    3.1392   -2.7901    4.9289 C   0  0  0  0  0  0  0  0  0  0  0  0
    2.8239   -3.9850    5.5570 C   0  0  0  0  0  0  0  0  0  0  0  0
    2.7327   -4.0078    6.9419 C   0  0  0  0  0  0  0  0  0  0  0  0
    2.9581   -2.8431    7.6487 C   0  0  0  0  0  0  0  0  0  0  0  0
    3.2708   -1.6723    6.9524 C   0  0  0  0  0  0  0  0  0  0  0  0
    3.5228   -0.3954    7.5770 C   0  0  0  0  0  0  0  0  0  0  0  0
    3.4766   -0.2062    9.0595 C   0  0  0  0  0  0  0  0  0  0  0  0
    4.2907    2.6955    6.2768 C   0  0  0  0  0  0  0  0  0  0  0  0
    4.8254    4.9998    5.6719 C   0  0  0  0  0  0  0  0  0  0  0  0
    4.5411    4.3702    8.0089 C   0  0  0  0  0  0  0  0  0  0  0  0
    3.2222   -2.7235    3.8514 H   0  0  0  0  0  0  0  0  0  0  0  0
    2.6546   -4.8737    4.9716 H   0  0  0  0  0  0  0  0  0  0  0  0
    2.4887   -4.9223    7.4617 H   0  0  0  0  0  0  0  0  0  0  0  0
    2.8951   -2.8277    8.7245 H   0  0  0  0  0  0  0  0  0  0  0  0
    3.6988    0.8315    9.2907 H   0  0  0  0  0  0  0  0  0  0  0  0
    2.4886   -0.4548    9.4449 H   0  0  0  0  0  0  0  0  0  0  0  0
    4.2097   -0.8466    9.5482 H   0  0  0  0  0  0  0  0  0  0  0  0
    4.8194    4.5898    4.6654 H   0  0  0  0  0  0  0  0  0  0  0  0
    4.0675    5.7839    5.7442 H   0  0  0  0  0  0  0  0  0  0  0  0
    5.8049    5.4398    5.8745 H   0  0  0  0  0  0  0  0  0  0  0  0
    4.3443    3.5059    8.6356 H   0  0  0  0  0  0  0  0  0  0  0  0
    5.5089    4.8022    8.2745 H   0  0  0  0  0  0  0  0  0  0  0  0
    3.7657    5.1231    8.1715 H   0  0  0  0  0  0  0  0  0  0  0  0
  1  2  1  1  0  0  0
  1  4  1  0  0  0  0
  1  5  1  0  0  0  0
  3  1  1  0  0  0  0
  3 15  1  0  0  0  0
  4 12  1  0  0  0  0
  5  6  1  0  0  0  0
  5 13  1  0  0  0  0
  7 17  1  0  0  0  0
  8  9  2  0  0  0  0
  8  4  1  0  0  0  0
  9 10  1  0  0  0  0
 10 20  1  0  0  0  0
 10 11  2  0  0  0  0
 11 21  1  0  0  0  0
 12 13  2  0  0  0  0
 12 11  1  0  0  0  0
 13 14  1  0  0  0  0
 14 22  1  0  0  0  0
 14 23  1  0  0  0  0
 14 24  1  0  0  0  0
 15  7  1  0  0  0  0
 15  6  2  0  0  0  0
 16 26  1  0  0  0  0
 16 27  1  0  0  0  0
 16  7  1  0  0  0  0
 17 30  1  0  0  0  0
 17 29  1  0  0  0  0
 17 28  1  0  0  0  0
 18  8  1  0  0  0  0
 19  9  1  0  0  0  0
 25 16  1  0  0  0  0
M  END
$$$$
