CSD_code = MILKEX | q = 0 | S = 0 | Stoichiometry = C30H28BClN6O3Zn | MND = 4
 OpenBabel04212202073D

 70 77  0  0  1  0  0  0  0  0999 V2000
   -1.3845    4.5649   12.7742 Zn  0  0  2  0  0  0  0  0  0  0  0  0
    0.4530    4.0315   13.7452 Cl  0  0  0  0  0  0  0  0  0  0  0  0
   -0.1877   -0.2746   17.5319 O   0  0  0  0  0  0  0  0  0  0  0  0
    3.5597    1.6849    8.7984 O   0  0  0  0  0  0  0  0  0  0  0  0
    3.8345    8.5160   14.7245 O   0  0  0  0  0  0  0  0  0  0  0  0
   -3.1052    3.8126   13.4956 N   0  0  0  0  0  0  0  0  0  0  0  0
   -4.1648    4.4319   12.9594 N   0  0  2  0  0  0  0  0  0  0  0  0
   -1.9561    4.3258   10.8459 N   0  0  0  0  0  0  0  0  0  0  0  0
   -3.2046    4.7913   10.6928 N   0  0  2  0  0  0  0  0  0  0  0  0
   -1.9255    6.5012   12.7499 N   0  0  0  0  0  0  0  0  0  0  0  0
   -3.2010    6.6372   12.3651 N   0  0  1  0  0  0  0  0  0  0  0  0
   -4.0039    5.4489   11.8250 B   0  0  2  0  0  0  0  0  0  0  0  0
   -5.0619    5.8054   11.4330 H   0  0  0  0  0  0  0  0  0  0  0  0
   -5.2820    4.0248   13.5724 C   0  0  0  0  0  3  0  0  0  0  0  0
   -6.2421    4.4034   13.2845 H   0  0  0  0  0  0  0  0  0  0  0  0
   -4.9397    3.1109   14.5438 C   0  0  0  0  0  0  0  0  0  0  0  0
   -5.5938    2.5813   15.2050 H   0  0  0  0  0  0  0  0  0  0  0  0
   -3.5445    2.9968   14.4573 C   0  0  0  0  0  0  0  0  0  0  0  0
   -2.6597    2.1369   15.2283 C   0  0  0  0  0  0  0  0  0  0  0  0
   -1.5482    1.5449   14.6383 C   0  0  0  0  0  0  0  0  0  0  0  0
   -1.3488    1.7062   13.5887 H   0  0  0  0  0  0  0  0  0  0  0  0
   -0.7000    0.7359   15.3697 C   0  0  0  0  0  0  0  0  0  0  0  0
    0.1572    0.3049   14.8785 H   0  0  0  0  0  0  0  0  0  0  0  0
   -0.9545    0.4984   16.7167 C   0  0  0  0  0  0  0  0  0  0  0  0
   -2.0826    1.0723   17.3083 C   0  0  0  0  0  0  0  0  0  0  0  0
   -2.2698    0.8745   18.3521 H   0  0  0  0  0  0  0  0  0  0  0  0
   -2.9221    1.8781   16.5743 C   0  0  0  0  0  0  0  0  0  0  0  0
   -3.7796    2.3321   17.0484 H   0  0  0  0  0  0  0  0  0  0  0  0
    0.9939   -0.8335   17.0096 C   0  0  0  0  0  0  0  0  0  0  0  0
    1.4615   -1.3614   17.8394 H   0  0  0  0  0  0  0  0  0  0  0  0
    0.7801   -1.5440   16.2044 H   0  0  0  0  0  0  0  0  0  0  0  0
    1.6741   -0.0598   16.6410 H   0  0  0  0  0  0  0  0  0  0  0  0
   -3.6085    4.5873    9.4338 C   0  0  0  0  0  3  0  0  0  0  0  0
   -4.5816    4.8933    9.1067 H   0  0  0  0  0  0  0  0  0  0  0  0
   -2.5947    3.9652    8.7424 C   0  0  0  0  0  0  0  0  0  0  0  0
   -2.5904    3.6798    7.7112 H   0  0  0  0  0  0  0  0  0  0  0  0
   -1.5563    3.8193    9.6753 C   0  0  0  0  0  0  0  0  0  0  0  0
   -0.2394    3.2423    9.4525 C   0  0  0  0  0  0  0  0  0  0  0  0
   -0.0528    2.2905    8.4538 C   0  0  0  0  0  0  0  0  0  0  0  0
   -0.8963    1.9561    7.8685 H   0  0  0  0  0  0  0  0  0  0  0  0
    1.1930    1.7448    8.2056 C   0  0  0  0  0  0  0  0  0  0  0  0
    1.2937    1.0066    7.4253 H   0  0  0  0  0  0  0  0  0  0  0  0
    2.2911    2.1472    8.9597 C   0  0  0  0  0  0  0  0  0  0  0  0
    2.1105    3.1014    9.9640 C   0  0  0  0  0  0  0  0  0  0  0  0
    2.9658    3.4047   10.5457 H   0  0  0  0  0  0  0  0  0  0  0  0
    0.8682    3.6403   10.2035 C   0  0  0  0  0  0  0  0  0  0  0  0
    0.7541    4.3845   10.9765 H   0  0  0  0  0  0  0  0  0  0  0  0
    3.8077    0.7261    7.8000 C   0  0  0  0  0  0  0  0  0  0  0  0
    4.8737    0.5110    7.8561 H   0  0  0  0  0  0  0  0  0  0  0  0
    3.2441   -0.1956    7.9776 H   0  0  0  0  0  0  0  0  0  0  0  0
    3.5695    1.1115    6.8031 H   0  0  0  0  0  0  0  0  0  0  0  0
   -3.5900    7.9053   12.5392 C   0  0  0  0  0  3  0  0  0  0  0  0
   -4.5822    8.2211   12.2866 H   0  0  0  0  0  0  0  0  0  0  0  0
   -2.5326    8.6206   13.0563 C   0  0  0  0  0  0  0  0  0  0  0  0
   -2.5020    9.6629   13.2978 H   0  0  0  0  0  0  0  0  0  0  0  0
   -1.4881    7.6917   13.1662 C   0  0  0  0  0  0  0  0  0  0  0  0
   -0.1163    7.9159   13.5987 C   0  0  0  0  0  0  0  0  0  0  0  0
    0.1667    8.7921   14.6398 C   0  0  0  0  0  0  0  0  0  0  0  0
   -0.6427    9.2929   15.1509 H   0  0  0  0  0  0  0  0  0  0  0  0
    1.4684    9.0168   15.0493 C   0  0  0  0  0  0  0  0  0  0  0  0
    1.6488    9.6963   15.8676 H   0  0  0  0  0  0  0  0  0  0  0  0
    2.5194    8.3654   14.4116 C   0  0  0  0  0  0  0  0  0  0  0  0
    2.2404    7.4942   13.3558 C   0  0  0  0  0  0  0  0  0  0  0  0
    3.0644    6.9986   12.8687 H   0  0  0  0  0  0  0  0  0  0  0  0
    0.9435    7.2742   12.9563 C   0  0  0  0  0  0  0  0  0  0  0  0
    0.7418    6.6165   12.1242 H   0  0  0  0  0  0  0  0  0  0  0  0
    4.1821    9.3659   15.7894 C   0  0  0  0  0  0  0  0  0  0  0  0
    5.2675    9.3179   15.8628 H   0  0  0  0  0  0  0  0  0  0  0  0
    3.8795   10.4004   15.5949 H   0  0  0  0  0  0  0  0  0  0  0  0
    3.7415    9.0294   16.7334 H   0  0  0  0  0  0  0  0  0  0  0  0
  1  6  1  0  0  0  0
  1  2  1  1  0  0  0
  4 43  1  0  0  0  0
  5 67  1  0  0  0  0
  6 18  1  0  0  0  0
  7  6  1  0  0  0  0
  7 14  1  1  0  0  0
  8  1  1  0  0  0  0
  9 33  1  1  0  0  0
  9  8  1  0  0  0  0
  9 12  1  0  0  0  0
 10  1  1  0  0  0  0
 10 56  1  0  0  0  0
 11 52  1  1  0  0  0
 11 10  1  0  0  0  0
 12 13  1  6  0  0  0
 12 11  1  0  0  0  0
 12  7  1  0  0  0  0
 14 16  1  0  0  0  0
 15 14  1  0  0  0  0
 16 17  1  0  0  0  0
 18 16  2  0  0  0  0
 18 19  1  0  0  0  0
 19 27  1  0  0  0  0
 20 19  2  0  0  0  0
 20 22  1  0  0  0  0
 21 20  1  0  0  0  0
 22 24  2  0  0  0  0
 23 22  1  0  0  0  0
 24 25  1  0  0  0  0
 24  3  1  0  0  0  0
 25 26  1  0  0  0  0
 27 28  1  0  0  0  0
 27 25  2  0  0  0  0
 29  3  1  0  0  0  0
 29 30  1  0  0  0  0
 31 29  1  0  0  0  0
 32 29  1  0  0  0  0
 34 33  1  0  0  0  0
 35 33  1  0  0  0  0
 35 37  2  0  0  0  0
 36 35  1  0  0  0  0
 37  8  1  0  0  0  0
 38 37  1  0  0  0  0
 38 46  1  0  0  0  0
 39 38  2  0  0  0  0
 40 39  1  0  0  0  0
 41 39  1  0  0  0  0
 41 43  2  0  0  0  0
 42 41  1  0  0  0  0
 43 44  1  0  0  0  0
 44 46  2  0  0  0  0
 44 45  1  0  0  0  0
 46 47  1  0  0  0  0
 48 49  1  0  0  0  0
 48 50  1  0  0  0  0
 48  4  1  0  0  0  0
 51 48  1  0  0  0  0
 52 54  1  0  0  0  0
 53 52  1  0  0  0  0
 54 56  2  0  0  0  0
 54 55  1  0  0  0  0
 56 57  1  0  0  0  0
 57 58  1  0  0  0  0
 58 60  2  0  0  0  0
 58 59  1  0  0  0  0
 60 61  1  0  0  0  0
 62  5  1  0  0  0  0
 62 60  1  0  0  0  0
 63 62  2  0  0  0  0
 64 63  1  0  0  0  0
 65 63  1  0  0  0  0
 65 57  2  0  0  0  0
 66 65  1  0  0  0  0
 67 68  1  0  0  0  0
 67 70  1  0  0  0  0
 69 67  1  0  0  0  0
M  END
$$$$
