CSD_code = MILPUU | q = 0 | S = 0 | Stoichiometry = C30H31ClN2Pt | MND = 4
 OpenBabel04212202073D

 65 73  0  0  1  0  0  0  0  0999 V2000
    4.1545   11.6138   19.8878 C   0  0  0  0  0  0  0  0  0  0  0  0
    4.9696   12.6963   20.2184 C   0  0  0  0  0  0  0  0  0  0  0  0
    5.5388   12.7234   21.4891 C   0  0  0  0  0  0  0  0  0  0  0  0
    6.1796   13.5349   21.8036 H   0  0  0  0  0  0  0  0  0  0  0  0
    5.2750   11.6814   22.3698 C   0  0  0  0  0  0  0  0  0  0  0  0
    5.7197   11.7080   23.3543 H   0  0  0  0  0  0  0  0  0  0  0  0
    4.4619   10.6060   22.0328 C   0  0  0  0  0  0  0  0  0  0  0  0
    4.2910    9.8224   22.7572 H   0  0  0  0  0  0  0  0  0  0  0  0
    3.8855   10.5641   20.7658 C   0  0  0  0  0  0  0  0  0  0  0  0
    5.0795   13.6450   19.1123 C   0  0  0  0  0  0  0  0  0  0  0  0
    5.8225   14.8211   19.1449 C   0  0  0  0  0  0  0  0  0  0  0  0
    6.3650   15.0790   20.0418 H   0  0  0  0  0  0  0  0  0  0  0  0
    5.8641   15.6532   18.0405 C   0  0  0  0  0  0  0  0  0  0  0  0
    5.1427   15.2773   16.8987 C   0  0  0  0  0  0  0  0  0  0  0  0
    4.4187   14.1008   16.9273 C   0  0  0  0  0  3  0  0  0  0  0  0
    3.8449   13.7792   16.0661 H   0  0  0  0  0  0  0  0  0  0  0  0
    6.6344   16.9436   18.0149 C   0  0  0  0  0  0  0  0  0  0  0  0
    6.2783   17.6034   18.8104 H   0  0  0  0  0  0  0  0  0  0  0  0
    7.6908   16.7399   18.2146 H   0  0  0  0  0  0  0  0  0  0  0  0
    6.4861   17.6092   16.6492 C   0  0  1  0  0  0  0  0  0  0  0  0
    7.0530   18.5390   16.5914 H   0  0  0  0  0  0  0  0  0  0  0  0
    6.7241   16.5431   15.5677 C   0  0  0  0  0  0  0  0  0  0  0  0
    7.4310   15.7517   15.8117 H   0  0  0  0  0  0  0  0  0  0  0  0
    6.9711   16.9564   14.5947 H   0  0  0  0  0  0  0  0  0  0  0  0
    5.2311   16.1888   15.7216 C   0  0  2  0  0  0  0  0  0  0  0  0
    4.6743   15.8305   14.8582 H   0  0  0  0  0  0  0  0  0  0  0  0
    5.0025   17.6502   16.2021 C   0  0  0  0  0  0  0  0  0  0  0  0
    4.7761   18.6120   15.0402 C   0  0  0  0  0  0  0  0  0  0  0  0
    3.7976   18.4366   14.5977 H   0  0  0  0  0  0  0  0  0  0  0  0
    5.5250   18.5001   14.2624 H   0  0  0  0  0  0  0  0  0  0  0  0
    4.8094   19.6394   15.3984 H   0  0  0  0  0  0  0  0  0  0  0  0
    3.9240   17.9025   17.2473 C   0  0  0  0  0  0  0  0  0  0  0  0
    4.0232   18.9118   17.6430 H   0  0  0  0  0  0  0  0  0  0  0  0
    3.9674   17.2024   18.0759 H   0  0  0  0  0  0  0  0  0  0  0  0
    2.9423   17.8114   16.7868 H   0  0  0  0  0  0  0  0  0  0  0  0
    3.0077    9.5659   20.1586 C   0  0  0  0  0  0  0  0  0  0  0  0
    2.5711    8.4038   20.7872 C   0  0  0  0  0  0  0  0  0  0  0  0
    2.8878    8.1990   21.7986 H   0  0  0  0  0  0  0  0  0  0  0  0
    1.7442    7.5167   20.1216 C   0  0  0  0  0  0  0  0  0  0  0  0
    1.3610    7.8241   18.8085 C   0  0  0  0  0  0  0  0  0  0  0  0
    1.8277    8.9917   18.2360 C   0  0  0  0  0  0  0  0  0  0  0  0
    1.5561    9.2618   17.2223 H   0  0  0  0  0  0  0  0  0  0  0  0
    1.2531    6.2356   20.7354 C   0  0  0  0  0  0  0  0  0  0  0  0
    0.6893    6.4616   21.6456 H   0  0  0  0  0  0  0  0  0  0  0  0
    2.1043    5.6161   21.0300 H   0  0  0  0  0  0  0  0  0  0  0  0
    0.3584    5.4952   19.7446 C   0  0  1  0  0  0  0  0  0  0  0  0
   -0.0306    4.5688   20.1687 H   0  0  0  0  0  0  0  0  0  0  0  0
   -0.6420    6.5030   19.1562 C   0  0  0  0  0  0  0  0  0  0  0  0
   -0.9592    7.3129   19.8112 H   0  0  0  0  0  0  0  0  0  0  0  0
   -1.5167    6.0396   18.7103 H   0  0  0  0  0  0  0  0  0  0  0  0
    0.4560    6.8515   18.1310 C   0  0  2  0  0  0  0  0  0  0  0  0
    0.1722    7.1571   17.1260 H   0  0  0  0  0  0  0  0  0  0  0  0
    1.0167    5.4163   18.3435 C   0  0  0  0  0  0  0  0  0  0  0  0
    2.5227    5.2111   18.2471 C   0  0  0  0  0  0  0  0  0  0  0  0
    3.0864    5.9564   18.7996 H   0  0  0  0  0  0  0  0  0  0  0  0
    2.8317    5.2663   17.2051 H   0  0  0  0  0  0  0  0  0  0  0  0
    2.7855    4.2264   18.6295 H   0  0  0  0  0  0  0  0  0  0  0  0
    0.3364    4.3908   17.4425 C   0  0  0  0  0  0  0  0  0  0  0  0
    0.6530    4.5338   16.4114 H   0  0  0  0  0  0  0  0  0  0  0  0
   -0.7460    4.4660   17.4785 H   0  0  0  0  0  0  0  0  0  0  0  0
    0.6172    3.3848   17.7492 H   0  0  0  0  0  0  0  0  0  0  0  0
    2.4123   11.5069   16.0211 Cl  0  0  0  0  0  0  0  0  0  0  0  0
    4.3797   13.3012   17.9911 N   0  0  0  0  0  0  0  0  0  0  0  0
    2.6247    9.8436   18.8775 N   0  0  0  0  0  0  0  0  0  0  0  0
    3.3665   11.5652   18.1376 Pt  0  0  1  0  0  0  0  0  0  0  0  0
  1  2  1  0  0  0  0
  1  9  1  0  0  0  0
  2  3  2  0  0  0  0
  3  4  1  0  0  0  0
  3  5  1  0  0  0  0
  5  6  1  0  0  0  0
  7  5  2  0  0  0  0
  7  8  1  0  0  0  0
  9  7  1  0  0  0  0
 10 11  2  0  0  0  0
 10  2  1  0  0  0  0
 11 12  1  0  0  0  0
 13 11  1  0  0  0  0
 14 15  1  0  0  0  0
 14 13  2  0  0  0  0
 15 63  1  0  0  0  0
 16 15  1  0  0  0  0
 17 13  1  0  0  0  0
 17 19  1  0  0  0  0
 17 18  1  0  0  0  0
 20 21  1  6  0  0  0
 20 17  1  0  0  0  0
 22 25  1  0  0  0  0
 22 23  1  0  0  0  0
 22 20  1  0  0  0  0
 24 22  1  0  0  0  0
 25 26  1  6  0  0  0
 25 27  1  0  0  0  0
 25 14  1  0  0  0  0
 27 20  1  0  0  0  0
 27 32  1  0  0  0  0
 28 31  1  0  0  0  0
 28 27  1  0  0  0  0
 29 28  1  0  0  0  0
 30 28  1  0  0  0  0
 32 33  1  0  0  0  0
 32 34  1  0  0  0  0
 35 32  1  0  0  0  0
 36  9  2  0  0  0  0
 36 37  1  0  0  0  0
 37 38  1  0  0  0  0
 39 43  1  0  0  0  0
 39 37  2  0  0  0  0
 40 39  1  0  0  0  0
 41 40  2  0  0  0  0
 41 64  1  0  0  0  0
 42 41  1  0  0  0  0
 43 45  1  0  0  0  0
 43 44  1  0  0  0  0
 46 47  1  1  0  0  0
 46 43  1  0  0  0  0
 48 46  1  0  0  0  0
 48 49  1  0  0  0  0
 50 48  1  0  0  0  0
 51 52  1  6  0  0  0
 51 53  1  0  0  0  0
 51 40  1  0  0  0  0
 51 48  1  0  0  0  0
 53 46  1  0  0  0  0
 54 53  1  0  0  0  0
 54 57  1  0  0  0  0
 54 55  1  0  0  0  0
 56 54  1  0  0  0  0
 58 60  1  0  0  0  0
 58 61  1  0  0  0  0
 58 53  1  0  0  0  0
 59 58  1  0  0  0  0
 63 65  1  0  0  0  0
 63 10  1  0  0  0  0
 64 36  1  0  0  0  0
 65 62  1  1  0  0  0
 65 64  1  0  0  0  0
 65  1  2  0  0  0  0
M  END
$$$$
