CSD_code = MILYEN | q = 0 | S = 0 | Stoichiometry = C12H24Br3O3V | MND = 6
 OpenBabel04212202073D

 43 42  0  0  0  0  0  0  0  0999 V2000
    6.0364    7.8774    1.6976 Br  0  0  0  0  0  0  0  0  0  0  0  0
    4.3421   10.4376    3.5661 Br  0  0  0  0  0  0  0  0  0  0  0  0
    4.3417    8.1567    3.5675 V   0  0  0  0  0  0  0  0  0  0  0  0
    5.8958    8.1677    5.0292 O   0  0  0  0  0  0  0  0  0  0  0  0
    5.6734    8.6634    6.3580 C   0  0  0  0  0  0  0  0  0  0  0  0
    5.2442    7.8486    6.9528 H   0  0  0  0  0  0  0  0  0  0  0  0
    4.9546    9.4895    6.3241 H   0  0  0  0  0  0  0  0  0  0  0  0
    7.0279    9.1186    6.9052 C   0  0  0  0  0  0  0  0  0  0  0  0
    7.1478   10.1939    6.7702 H   0  0  0  0  0  0  0  0  0  0  0  0
    7.1379    8.8834    7.9611 H   0  0  0  0  0  0  0  0  0  0  0  0
    8.0127    8.3666    6.0149 C   0  0  0  0  0  0  0  0  0  0  0  0
    8.9839    8.8490    5.9444 H   0  0  0  0  0  0  0  0  0  0  0  0
    8.1485    7.3424    6.3681 H   0  0  0  0  0  0  0  0  0  0  0  0
    7.2664    8.3761    4.6886 C   0  0  0  0  0  0  0  0  0  0  0  0
    7.3748    9.3489    4.1862 H   0  0  0  0  0  0  0  0  0  0  0  0
    7.5794    7.5835    4.0054 H   0  0  0  0  0  0  0  0  0  0  0  0
    4.3411    6.1345    3.5668 O   0  0  0  0  0  0  0  0  0  0  0  0
    3.9830    5.3176    2.4586 C   0  0  0  0  0  0  0  0  0  0  0  0
    4.7881    5.3705    1.7105 H   0  0  0  0  0  0  0  0  0  0  0  0
    3.0587    5.7050    2.0149 H   0  0  0  0  0  0  0  0  0  0  0  0
    3.8294    3.9005    3.0025 C   0  0  0  0  0  0  0  0  0  0  0  0
    4.0217    3.1473    2.2427 H   0  0  0  0  0  0  0  0  0  0  0  0
    2.8269    3.7526    3.4075 H   0  0  0  0  0  0  0  0  0  0  0  0
    4.6992    5.3170    4.6746 C   0  0  0  0  0  0  0  0  0  0  0  0
    3.8921    5.3655    5.4207 H   0  0  0  0  0  0  0  0  0  0  0  0
    5.6209    5.7070    5.1214 H   0  0  0  0  0  0  0  0  0  0  0  0
    4.8593    3.9017    4.1281 C   0  0  0  0  0  0  0  0  0  0  0  0
    4.6704    3.1462    4.8865 H   0  0  0  0  0  0  0  0  0  0  0  0
    5.8625    3.7593    3.7229 H   0  0  0  0  0  0  0  0  0  0  0  0
    2.6490    7.8765    5.4385 Br  0  0  0  0  0  0  0  0  0  0  0  0
    2.7866    8.1673    2.1052 O   0  0  0  0  0  0  0  0  0  0  0  0
    3.0099    8.6603    0.7756 C   0  0  0  0  0  0  0  0  0  0  0  0
    3.4385    7.8439    0.1826 H   0  0  0  0  0  0  0  0  0  0  0  0
    3.7295    9.4858    0.8080 H   0  0  0  0  0  0  0  0  0  0  0  0
    1.6560    9.1159    0.2271 C   0  0  0  0  0  0  0  0  0  0  0  0
    1.5384   10.1920    0.3575 H   0  0  0  0  0  0  0  0  0  0  0  0
    1.5451    8.8766   -0.8278 H   0  0  0  0  0  0  0  0  0  0  0  0
    0.6697    8.3698    1.1207 C   0  0  0  0  0  0  0  0  0  0  0  0
   -0.3000    8.8552    1.1904 H   0  0  0  0  0  0  0  0  0  0  0  0
    0.5307    7.3448    0.7711 H   0  0  0  0  0  0  0  0  0  0  0  0
    1.4171    8.3815    2.4463 C   0  0  0  0  0  0  0  0  0  0  0  0
    1.3124    9.3563    2.9455 H   0  0  0  0  0  0  0  0  0  0  0  0
    1.1022    7.5922    3.1324 H   0  0  0  0  0  0  0  0  0  0  0  0
  1  3  1  0  0  0  0
  2  3  1  0  0  0  0
  3 30  1  0  0  0  0
  4  5  1  0  0  0  0
  5  8  1  0  0  0  0
  5  6  1  0  0  0  0
  7  5  1  0  0  0  0
  8 10  1  0  0  0  0
  9  8  1  0  0  0  0
 11 13  1  0  0  0  0
 11  8  1  0  0  0  0
 12 11  1  0  0  0  0
 14  4  1  0  0  0  0
 14 11  1  0  0  0  0
 15 14  1  0  0  0  0
 16 14  1  0  0  0  0
 17 24  1  0  0  0  0
 18 21  1  0  0  0  0
 18 17  1  0  0  0  0
 19 18  1  0  0  0  0
 20 18  1  0  0  0  0
 21 23  1  0  0  0  0
 21 27  1  0  0  0  0
 22 21  1  0  0  0  0
 24 26  1  0  0  0  0
 24 25  1  0  0  0  0
 27 24  1  0  0  0  0
 27 28  1  0  0  0  0
 29 27  1  0  0  0  0
 31 41  1  0  0  0  0
 32 34  1  0  0  0  0
 32 31  1  0  0  0  0
 33 32  1  0  0  0  0
 35 36  1  0  0  0  0
 35 32  1  0  0  0  0
 35 38  1  0  0  0  0
 37 35  1  0  0  0  0
 38 39  1  0  0  0  0
 38 41  1  0  0  0  0
 40 38  1  0  0  0  0
 41 42  1  0  0  0  0
 41 43  1  0  0  0  0
M  END
$$$$
