CSD_code = MIMNUT | q = 0 | S = 0 | Stoichiometry = C28H29Cl2NNiP2S2 | MND = 4
 OpenBabel04212202073D

 65 69  0  0  0  0  0  0  0  0999 V2000
   -1.1350    4.4762    1.9299 Ni  0  0  0  0  0  0  0  0  0  0  0  0
   -0.1197    6.3358    2.1453 P   0  0  0  0  0  4  0  0  0  0  0  0
   -0.1460    5.4369    4.9271 P   0  0  0  0  0  4  0  0  0  0  0  0
   -1.4031    4.1310    4.1390 S   0  0  0  0  0  0  0  0  0  0  0  0
    2.5167    9.3409    6.7017 S   0  0  0  0  0  0  0  0  0  0  0  0
   -0.9997    5.2279   -0.0133 Cl  0  0  0  0  0  0  0  0  0  0  0  0
   -1.9974    2.6873    1.4218 Cl  0  0  0  0  0  0  0  0  0  0  0  0
    0.3433    6.6147    3.8267 N   0  0  0  0  0  0  0  0  0  0  0  0
   -0.9942    7.8824    1.7859 C   0  0  0  0  0  0  0  0  0  0  0  0
   -1.8250    8.4377    2.7548 C   0  0  0  0  0  0  0  0  0  0  0  0
   -1.8949    7.9766    3.7325 H   0  0  0  0  0  0  0  0  0  0  0  0
   -2.5634    9.5707    2.4685 C   0  0  0  0  0  0  0  0  0  0  0  0
   -3.2059    9.9986    3.2241 H   0  0  0  0  0  0  0  0  0  0  0  0
   -2.4867   10.1472    1.2110 C   0  0  0  0  0  0  0  0  0  0  0  0
   -3.0670   11.0299    0.9868 H   0  0  0  0  0  0  0  0  0  0  0  0
   -1.6783    9.5831    0.2367 C   0  0  0  0  0  0  0  0  0  0  0  0
   -1.6323   10.0227   -0.7485 H   0  0  0  0  0  0  0  0  0  0  0  0
   -0.9372    8.4496    0.5162 C   0  0  0  0  0  0  0  0  0  0  0  0
   -0.3300    7.9857   -0.2474 H   0  0  0  0  0  0  0  0  0  0  0  0
    1.5101    6.4855    1.3486 C   0  0  0  0  0  0  0  0  0  0  0  0
    2.1497    7.6930    1.0967 C   0  0  0  0  0  0  0  0  0  0  0  0
    1.6538    8.6294    1.3101 H   0  0  0  0  0  0  0  0  0  0  0  0
    3.4232    7.6952    0.5536 C   0  0  0  0  0  0  0  0  0  0  0  0
    3.9169    8.6348    0.3521 H   0  0  0  0  0  0  0  0  0  0  0  0
    4.0628    6.5009    0.2643 C   0  0  0  0  0  0  0  0  0  0  0  0
    5.0554    6.5113   -0.1609 H   0  0  0  0  0  0  0  0  0  0  0  0
    3.4254    5.2942    0.5076 C   0  0  0  0  0  0  0  0  0  0  0  0
    3.9168    4.3627    0.2701 H   0  0  0  0  0  0  0  0  0  0  0  0
    2.1530    5.2882    1.0465 C   0  0  0  0  0  0  0  0  0  0  0  0
    1.6254    4.3521    1.2154 H   0  0  0  0  0  0  0  0  0  0  0  0
    1.3186    4.5427    5.5250 C   0  0  0  0  0  0  0  0  0  0  0  0
    2.3484    4.2621    4.6349 C   0  0  0  0  0  0  0  0  0  0  0  0
    2.3231    4.6881    3.6396 H   0  0  0  0  0  0  0  0  0  0  0  0
    3.3930    3.4473    5.0283 C   0  0  0  0  0  0  0  0  0  0  0  0
    4.1958    3.2318    4.3392 H   0  0  0  0  0  0  0  0  0  0  0  0
    3.4015    2.9007    6.3023 C   0  0  0  0  0  0  0  0  0  0  0  0
    4.2161    2.2615    6.6078 H   0  0  0  0  0  0  0  0  0  0  0  0
    2.3607    3.1595    7.1801 C   0  0  0  0  0  0  0  0  0  0  0  0
    2.3622    2.7196    8.1661 H   0  0  0  0  0  0  0  0  0  0  0  0
    1.3113    3.9724    6.7919 C   0  0  0  0  0  0  0  0  0  0  0  0
    0.4850    4.1664    7.4622 H   0  0  0  0  0  0  0  0  0  0  0  0
   -0.8700    6.3353    6.3295 C   0  0  0  0  0  0  0  0  0  0  0  0
   -2.2507    6.4893    6.3667 C   0  0  0  0  0  0  0  0  0  0  0  0
   -2.8568    6.0179    5.6044 H   0  0  0  0  0  0  0  0  0  0  0  0
   -2.8325    7.2259    7.3823 C   0  0  0  0  0  0  0  0  0  0  0  0
   -3.9053    7.3429    7.4151 H   0  0  0  0  0  0  0  0  0  0  0  0
   -2.0369    7.8110    8.3548 C   0  0  0  0  0  0  0  0  0  0  0  0
   -2.4916    8.3875    9.1465 H   0  0  0  0  0  0  0  0  0  0  0  0
   -0.6600    7.6568    8.3174 C   0  0  0  0  0  0  0  0  0  0  0  0
   -0.0386    8.1159    9.0709 H   0  0  0  0  0  0  0  0  0  0  0  0
   -0.0710    6.9184    7.3072 C   0  0  0  0  0  0  0  0  0  0  0  0
    1.0026    6.7981    7.2792 H   0  0  0  0  0  0  0  0  0  0  0  0
    1.0105    7.8271    4.2725 C   0  0  0  0  0  0  0  0  0  0  0  0
    0.5411    8.1885    5.1945 H   0  0  0  0  0  0  0  0  0  0  0  0
    0.8611    8.5883    3.5011 H   0  0  0  0  0  0  0  0  0  0  0  0
    2.5060    7.6381    4.5239 C   0  0  0  0  0  0  0  0  0  0  0  0
    2.6546    6.8468    5.2616 H   0  0  0  0  0  0  0  0  0  0  0  0
    2.9998    7.3367    3.5970 H   0  0  0  0  0  0  0  0  0  0  0  0
    3.1441    8.9187    5.0337 C   0  0  0  0  0  0  0  0  0  0  0  0
    2.9201    9.7584    4.3734 H   0  0  0  0  0  0  0  0  0  0  0  0
    4.2251    8.8001    5.1182 H   0  0  0  0  0  0  0  0  0  0  0  0
    3.5195   10.8218    6.9932 C   0  0  0  0  0  0  0  0  0  0  0  0
    4.5733   10.5570    6.9740 H   0  0  0  0  0  0  0  0  0  0  0  0
    3.2481   11.1981    7.9736 H   0  0  0  0  0  0  0  0  0  0  0  0
    3.2960   11.5659    6.2335 H   0  0  0  0  0  0  0  0  0  0  0  0
  1  2  1  0  0  0  0
  1  4  1  0  0  0  0
  2  8  1  0  0  0  0
  3 31  1  0  0  0  0
  3 42  1  0  0  0  0
  4  3  1  0  0  0  0
  5 62  1  0  0  0  0
  6  1  1  0  0  0  0
  7  1  1  0  0  0  0
  8 53  1  0  0  0  0
  8  3  1  0  0  0  0
  9  2  1  0  0  0  0
  9 10  1  0  0  0  0
 10 11  1  0  0  0  0
 12 10  2  0  0  0  0
 12 13  1  0  0  0  0
 14 12  1  0  0  0  0
 15 14  1  0  0  0  0
 16 18  1  0  0  0  0
 16 14  2  0  0  0  0
 17 16  1  0  0  0  0
 18  9  2  0  0  0  0
 19 18  1  0  0  0  0
 20  2  1  0  0  0  0
 21 22  1  0  0  0  0
 21 20  1  0  0  0  0
 23 21  2  0  0  0  0
 24 23  1  0  0  0  0
 25 27  2  0  0  0  0
 25 23  1  0  0  0  0
 26 25  1  0  0  0  0
 27 29  1  0  0  0  0
 28 27  1  0  0  0  0
 29 30  1  0  0  0  0
 29 20  2  0  0  0  0
 31 40  1  0  0  0  0
 32 34  1  0  0  0  0
 32 31  2  0  0  0  0
 33 32  1  0  0  0  0
 34 36  2  0  0  0  0
 35 34  1  0  0  0  0
 36 37  1  0  0  0  0
 36 38  1  0  0  0  0
 38 39  1  0  0  0  0
 40 38  2  0  0  0  0
 40 41  1  0  0  0  0
 42 43  2  0  0  0  0
 42 51  1  0  0  0  0
 43 45  1  0  0  0  0
 44 43  1  0  0  0  0
 45 46  1  0  0  0  0
 45 47  2  0  0  0  0
 47 48  1  0  0  0  0
 49 47  1  0  0  0  0
 49 50  1  0  0  0  0
 51 49  2  0  0  0  0
 52 51  1  0  0  0  0
 53 56  1  0  0  0  0
 53 54  1  0  0  0  0
 55 53  1  0  0  0  0
 56 59  1  0  0  0  0
 56 57  1  0  0  0  0
 58 56  1  0  0  0  0
 59 61  1  0  0  0  0
 59  5  1  0  0  0  0
 60 59  1  0  0  0  0
 62 64  1  0  0  0  0
 63 62  1  0  0  0  0
 65 62  1  0  0  0  0
M  END
$$$$
