CSD_code = MINFAT | q = 0 | S = 0 | Stoichiometry = C11H13Cl2N3PdSe | MND = 4
 OpenBabel04212202073D

 31 32  0  0  1  0  0  0  0  0999 V2000
    4.7995    5.4284    1.7689 Pd  0  0  0  0  0  0  0  0  0  0  0  0
    2.4428    5.2004    1.7201 Se  0  0  0  0  0  0  0  0  0  0  0  0
    7.0417    5.4218    2.0167 Cl  0  0  0  0  0  0  0  0  0  0  0  0
    4.5945    3.3594    2.6605 Cl  0  0  0  0  0  0  0  0  0  0  0  0
    3.9184    7.6770    0.0984 N   0  0  0  0  0  0  0  0  0  0  0  0
    5.2477    8.4611    1.5567 N   0  0  0  0  0  0  0  0  0  0  0  0
    3.8656    9.0134   -0.0513 N   0  0  0  0  0  0  0  0  0  0  0  0
    4.7535    7.2971    1.0738 C   0  0  1  0  0  3  0  0  0  0  0  0
    1.8542    6.3857    0.2052 C   0  0  0  0  0  0  0  0  0  0  0  0
    1.1557    5.8050   -0.3994 H   0  0  0  0  0  0  0  0  0  0  0  0
    1.3489    7.2652    0.6039 H   0  0  0  0  0  0  0  0  0  0  0  0
    3.0572    6.7977   -0.6449 C   0  0  0  0  0  0  0  0  0  0  0  0
    3.6362    5.9067   -0.9364 H   0  0  0  0  0  0  0  0  0  0  0  0
    2.7301    7.3335   -1.5397 H   0  0  0  0  0  0  0  0  0  0  0  0
    4.6852    9.4713    0.8396 C   0  0  0  0  0  0  0  0  0  0  0  0
    4.8941   10.5104    0.9894 H   0  0  0  0  0  0  0  0  0  0  0  0
    0.9000    8.0740    4.3609 C   0  0  0  0  0  0  0  0  0  0  0  0
   -0.0207    8.6280    4.4669 H   0  0  0  0  0  0  0  0  0  0  0  0
    1.9324    8.2597    5.2652 C   0  0  0  0  0  0  0  0  0  0  0  0
    1.8208    8.9661    6.0738 H   0  0  0  0  0  0  0  0  0  0  0  0
    1.0374    7.1673    3.3242 C   0  0  0  0  0  0  0  0  0  0  0  0
    0.2216    7.0048    2.6336 H   0  0  0  0  0  0  0  0  0  0  0  0
    2.2248    6.4619    3.1780 C   0  0  0  0  0  0  0  0  0  0  0  0
    3.2546    6.6233    4.1023 C   0  0  0  0  0  0  0  0  0  0  0  0
    4.1771    6.0290    4.0248 H   0  0  0  0  0  0  0  0  0  0  0  0
    6.1713    8.6010    2.6510 C   0  0  0  0  0  0  0  0  0  0  0  0
    5.6387    8.9181    3.5502 H   0  0  0  0  0  0  0  0  0  0  0  0
    6.9316    9.3397    2.4019 H   0  0  0  0  0  0  0  0  0  0  0  0
    6.6465    7.6281    2.8210 H   0  0  0  0  0  0  0  0  0  0  0  0
    3.1013    7.5256    5.1414 C   0  0  0  0  0  0  0  0  0  0  0  0
    3.8993    7.6524    5.8578 H   0  0  0  0  0  0  0  0  0  0  0  0
  1  3  1  0  0  0  0
  1  4  1  0  0  0  0
  2 23  1  0  0  0  0
  5  8  1  0  0  0  0
  6 26  1  0  0  0  0
  7  5  1  0  0  0  0
  7 15  2  0  0  0  0
  8  6  1  0  0  0  0
  8  1  1  1  0  0  0
  9 11  1  0  0  0  0
  9  2  1  0  0  0  0
 10  9  1  0  0  0  0
 12  5  1  0  0  0  0
 12  9  1  0  0  0  0
 13 12  1  0  0  0  0
 14 12  1  0  0  0  0
 15 16  1  0  0  0  0
 15  6  1  0  0  0  0
 17 18  1  0  0  0  0
 17 19  1  0  0  0  0
 19 20  1  0  0  0  0
 21 17  2  0  0  0  0
 22 21  1  0  0  0  0
 23 21  1  0  0  0  0
 23 24  2  0  0  0  0
 24 30  1  0  0  0  0
 25 24  1  0  0  0  0
 26 29  1  0  0  0  0
 26 27  1  0  0  0  0
 28 26  1  0  0  0  0
 30 19  2  0  0  0  0
 30 31  1  0  0  0  0
M  END
$$$$
