CSD_code = MINWEN | q = 0 | S = 0 | Stoichiometry = C19H27Br2FeN2P | MND = 5
 OpenBabel04212202073D

 52 55  0  0  1  0  0  0  0  0999 V2000
    1.8829    3.4794    1.1284 Br  0  0  0  0  0  0  0  0  0  0  0  0
    3.7292    0.9020    3.3891 Br  0  0  0  0  0  0  0  0  0  0  0  0
    3.4899    3.0551    2.7223 Fe  0  0  0  0  0  0  0  0  0  0  0  0
    2.3391    3.6943    4.5240 P   0  0  0  0  0  4  0  0  0  0  0  0
    4.8415    2.8114    1.3221 N   0  0  0  0  0  0  0  0  0  0  0  0
    4.2234    4.7375    2.7994 N   0  0  0  0  0  0  0  0  0  0  0  0
    4.9636    1.7942    0.4743 C   0  0  0  0  0  3  0  0  0  0  0  0
    4.2157    1.0174    0.5473 H   0  0  0  0  0  0  0  0  0  0  0  0
    5.9816    1.7094   -0.4519 C   0  0  0  0  0  0  0  0  0  0  0  0
    6.0398    0.8597   -1.1117 H   0  0  0  0  0  0  0  0  0  0  0  0
    6.9226    2.7341   -0.5083 C   0  0  0  0  0  0  0  0  0  0  0  0
    7.7391    2.6927   -1.2125 H   0  0  0  0  0  0  0  0  0  0  0  0
    6.7813    3.8129    0.3373 C   0  0  0  0  0  0  0  0  0  0  0  0
    7.4748    4.6369    0.2998 H   0  0  0  0  0  0  0  0  0  0  0  0
    5.7166    3.8389    1.2412 C   0  0  0  0  0  0  0  0  0  0  0  0
    5.3808    4.9385    2.1121 C   0  0  1  0  0  3  0  0  0  0  0  0
    6.1034    6.1260    2.2286 C   0  0  0  0  0  0  0  0  0  0  0  0
    7.0316    6.2414    1.6942 H   0  0  0  0  0  0  0  0  0  0  0  0
    5.6190    7.1403    3.0230 C   0  0  0  0  0  0  0  0  0  0  0  0
    6.1604    8.0659    3.1339 H   0  0  0  0  0  0  0  0  0  0  0  0
    4.3923    6.9565    3.6642 C   0  0  0  0  0  0  0  0  0  0  0  0
    3.9597    7.7456    4.2593 H   0  0  0  0  0  0  0  0  0  0  0  0
    3.7229    5.7613    3.5270 C   0  0  0  0  0  0  0  0  0  0  0  0
    2.3846    5.5042    4.1366 C   0  0  0  0  0  0  0  0  0  0  0  0
    1.6326    5.6493    3.3536 H   0  0  0  0  0  0  0  0  0  0  0  0
    2.1606    6.1686    4.9708 H   0  0  0  0  0  0  0  0  0  0  0  0
    0.5137    3.3467    4.9147 C   0  0  0  0  0  0  0  0  0  0  0  0
    0.0375    3.7522    6.3086 C   0  0  0  0  0  0  0  0  0  0  0  0
   -1.0289    3.5396    6.3823 H   0  0  0  0  0  0  0  0  0  0  0  0
    0.1705    4.8200    6.4725 H   0  0  0  0  0  0  0  0  0  0  0  0
    0.5339    3.1997    7.1002 H   0  0  0  0  0  0  0  0  0  0  0  0
    0.3488    1.8396    4.7003 C   0  0  0  0  0  0  0  0  0  0  0  0
    1.0031    1.2635    5.3508 H   0  0  0  0  0  0  0  0  0  0  0  0
    0.5825    1.5834    3.6676 H   0  0  0  0  0  0  0  0  0  0  0  0
   -0.6793    1.5402    4.8971 H   0  0  0  0  0  0  0  0  0  0  0  0
   -0.3686    4.0820    3.9013 C   0  0  0  0  0  0  0  0  0  0  0  0
   -0.0340    3.9248    2.8803 H   0  0  0  0  0  0  0  0  0  0  0  0
   -0.4090    5.1499    4.1068 H   0  0  0  0  0  0  0  0  0  0  0  0
   -1.3834    3.6939    3.9751 H   0  0  0  0  0  0  0  0  0  0  0  0
    3.4065    3.5909    6.1070 C   0  0  0  0  0  0  0  0  0  0  0  0
    3.2083    2.2331    6.7846 C   0  0  0  0  0  0  0  0  0  0  0  0
    3.3613    1.4188    6.0804 H   0  0  0  0  0  0  0  0  0  0  0  0
    2.2188    2.1344    7.2209 H   0  0  0  0  0  0  0  0  0  0  0  0
    3.9357    2.1174    7.5877 H   0  0  0  0  0  0  0  0  0  0  0  0
    4.8745    3.6826    5.6656 C   0  0  0  0  0  0  0  0  0  0  0  0
    5.5214    3.4962    6.5219 H   0  0  0  0  0  0  0  0  0  0  0  0
    5.1171    4.6704    5.2786 H   0  0  0  0  0  0  0  0  0  0  0  0
    5.1171    2.9395    4.9051 H   0  0  0  0  0  0  0  0  0  0  0  0
    3.1611    4.7205    7.1095 C   0  0  0  0  0  0  0  0  0  0  0  0
    3.7743    4.5400    7.9922 H   0  0  0  0  0  0  0  0  0  0  0  0
    2.1277    4.7766    7.4315 H   0  0  0  0  0  0  0  0  0  0  0  0
    3.4569    5.6840    6.7000 H   0  0  0  0  0  0  0  0  0  0  0  0
  1  3  1  0  0  0  0
  3  6  1  0  0  0  0
  3  2  1  0  0  0  0
  3  4  1  0  0  0  0
  4 27  1  0  0  0  0
  4 40  1  0  0  0  0
  5  3  1  0  0  0  0
  6 23  1  0  0  0  0
  7  8  1  0  0  0  0
  7  5  1  0  0  0  0
  9  7  1  0  0  0  0
 10  9  1  0  0  0  0
 11  9  2  0  0  0  0
 11 13  1  0  0  0  0
 12 11  1  0  0  0  0
 13 15  2  0  0  0  0
 14 13  1  0  0  0  0
 15  5  1  0  0  0  0
 16 15  1  6  0  0  0
 16 17  1  0  0  0  0
 16  6  1  0  0  0  0
 17 19  2  0  0  0  0
 18 17  1  0  0  0  0
 19 20  1  0  0  0  0
 19 21  1  0  0  0  0
 21 22  1  0  0  0  0
 23 21  2  0  0  0  0
 23 24  1  0  0  0  0
 24  4  1  0  0  0  0
 24 26  1  0  0  0  0
 25 24  1  0  0  0  0
 27 28  1  0  0  0  0
 28 29  1  0  0  0  0
 28 30  1  0  0  0  0
 28 31  1  0  0  0  0
 32 35  1  0  0  0  0
 32 27  1  0  0  0  0
 32 33  1  0  0  0  0
 34 32  1  0  0  0  0
 36 39  1  0  0  0  0
 36 38  1  0  0  0  0
 36 27  1  0  0  0  0
 37 36  1  0  0  0  0
 40 41  1  0  0  0  0
 40 49  1  0  0  0  0
 41 43  1  0  0  0  0
 41 44  1  0  0  0  0
 42 41  1  0  0  0  0
 45 40  1  0  0  0  0
 45 46  1  0  0  0  0
 47 45  1  0  0  0  0
 48 45  1  0  0  0  0
 49 51  1  0  0  0  0
 49 50  1  0  0  0  0
 52 49  1  0  0  0  0
M  END
$$$$
