CSD_code = MINZEO | q = 1 | S = 0 | Stoichiometry = C9H22Cl2CoN4(1+) | MND = 6
 OpenBabel04212202073D

 38 41  0  0  1  0  0  0  0  0999 V2000
   -1.2021    7.0767   12.5822 Co  0  0  0  0  0  0  0  0  0  0  0  0
   -1.0218    8.7864   13.9994 Cl  0  0  0  0  0  0  0  0  0  0  0  0
   -1.5142    5.6073   10.9323 Cl  0  0  0  0  0  0  0  0  0  0  0  0
   -3.1632    7.2833   12.7147 N   0  0  0  0  0  4  0  0  0  0  0  0
   -3.5954    6.8025   11.9211 H   0  0  0  0  0  0  0  0  0  0  0  0
   -3.5053    8.2455   12.7164 H   0  0  0  0  0  0  0  0  0  0  0  0
   -1.3732    5.6579   13.9418 N   0  0  2  0  0  4  0  0  0  0  0  0
    0.7185    6.7509   12.5208 N   0  0  2  0  0  4  0  0  0  0  0  0
    0.7579    5.9940   11.8312 H   0  0  0  0  0  0  0  0  0  0  0  0
   -0.8769    8.4386   11.1760 N   0  0  0  0  0  4  0  0  0  0  0  0
   -0.9701    9.3573   11.6174 H   0  0  0  0  0  0  0  0  0  0  0  0
   -1.5161    8.4080   10.3814 H   0  0  0  0  0  0  0  0  0  0  0  0
   -3.5873    6.6201   13.9602 C   0  0  0  0  0  0  0  0  0  0  0  0
   -4.6635    6.4233   13.9685 H   0  0  0  0  0  0  0  0  0  0  0  0
   -3.3367    7.2725   14.8001 H   0  0  0  0  0  0  0  0  0  0  0  0
   -2.7939    5.3238   14.0609 C   0  0  0  0  0  0  0  0  0  0  0  0
   -2.9984    4.8038   15.0017 H   0  0  0  0  0  0  0  0  0  0  0  0
   -3.0511    4.6653   13.2266 H   0  0  0  0  0  0  0  0  0  0  0  0
   -0.6191    5.9607   15.1853 C   0  0  0  0  0  0  0  0  0  0  0  0
   -1.0149    5.3893   16.0270 H   0  0  0  0  0  0  0  0  0  0  0  0
   -0.5490    7.0115   15.4505 H   0  0  0  0  0  0  0  0  0  0  0  0
   -0.4397    4.5257   13.7156 C   0  0  0  0  0  0  0  0  0  0  0  0
   -0.2452    4.2726   12.6767 H   0  0  0  0  0  0  0  0  0  0  0  0
   -0.7937    3.6343   14.2380 H   0  0  0  0  0  0  0  0  0  0  0  0
    0.6060    5.2771   14.5573 C   0  0  2  0  0  0  0  0  0  0  0  0
    1.5052    4.4649   15.4678 C   0  0  0  0  0  0  0  0  0  0  0  0
    2.1944    3.8595   14.8844 H   0  0  0  0  0  0  0  0  0  0  0  0
    0.9188    3.8010   16.0969 H   0  0  0  0  0  0  0  0  0  0  0  0
    2.0827    5.1231   16.1120 H   0  0  0  0  0  0  0  0  0  0  0  0
    1.4212    6.2854   13.7272 C   0  0  0  0  0  0  0  0  0  0  0  0
    1.6351    7.1538   14.3560 H   0  0  0  0  0  0  0  0  0  0  0  0
    2.3744    5.8297   13.4362 H   0  0  0  0  0  0  0  0  0  0  0  0
    1.3639    7.9135   11.8942 C   0  0  0  0  0  0  0  0  0  0  0  0
    2.3917    7.6862   11.5940 H   0  0  0  0  0  0  0  0  0  0  0  0
    1.3752    8.7343   12.6158 H   0  0  0  0  0  0  0  0  0  0  0  0
    0.5057    8.2860   10.6910 C   0  0  0  0  0  0  0  0  0  0  0  0
    0.8708    9.2020   10.2183 H   0  0  0  0  0  0  0  0  0  0  0  0
    0.5266    7.4765    9.9567 H   0  0  0  0  0  0  0  0  0  0  0  0
  1  4  1  0  0  0  0
  1  7  1  0  0  0  0
  1  2  1  0  0  0  0
  3  1  1  0  0  0  0
  4  6  1  0  0  0  0
  4 13  1  0  0  0  0
  5  4  1  0  0  0  0
  7 22  1  6  0  0  0
  7 16  1  0  0  0  0
  7 19  1  0  0  0  0
  8  9  1  6  0  0  0
  8  1  1  0  0  0  0
  8 30  1  0  0  0  0
 10 11  1  0  0  0  0
 10  1  1  0  0  0  0
 12 10  1  0  0  0  0
 13 14  1  0  0  0  0
 13 16  1  0  0  0  0
 13 15  1  0  0  0  0
 16 17  1  0  0  0  0
 18 16  1  0  0  0  0
 19 21  1  0  0  0  0
 19 20  1  0  0  0  0
 22 24  1  0  0  0  0
 22 25  1  0  0  0  0
 23 22  1  0  0  0  0
 25 19  1  0  0  0  0
 25 26  1  1  0  0  0
 26 28  1  0  0  0  0
 26 29  1  0  0  0  0
 27 26  1  0  0  0  0
 30 31  1  0  0  0  0
 30 25  1  0  0  0  0
 32 30  1  0  0  0  0
 33  8  1  0  0  0  0
 33 35  1  0  0  0  0
 34 33  1  0  0  0  0
 36 10  1  0  0  0  0
 36 33  1  0  0  0  0
 37 36  1  0  0  0  0
 38 36  1  0  0  0  0
M  END
$$$$
