CSD_code = MIPBAQ | q = 0 | S = 0 | Stoichiometry = C29H29BrCuN4P | MND = 4
 OpenBabel04212202073D

 65 70  0  0  1  0  0  0  0  0999 V2000
   10.0408   -2.3339   -0.6317 Br  0  0  0  0  0  0  0  0  0  0  0  0
   11.9265   -1.4548    0.2465 Cu  0  0  1  0  0  0  0  0  0  0  0  0
   13.7197   -2.7803    0.6786 P   0  0  0  0  0  4  0  0  0  0  0  0
   12.8581    0.2815   -0.0323 N   0  0  0  0  0  0  0  0  0  0  0  0
   12.2873    1.0895    3.4427 N   0  0  0  0  0  0  0  0  0  0  0  0
   11.5013    0.2688    4.1530 N   0  0  0  0  0  0  0  0  0  0  0  0
   11.2832    0.4857    5.1126 H   0  0  0  0  0  0  0  0  0  0  0  0
   11.6391   -0.6468    2.2103 N   0  0  0  0  0  0  0  0  0  0  0  0
   13.5257    0.6358   -1.1266 C   0  0  0  0  0  3  0  0  0  0  0  0
   13.3134    0.0605   -2.0174 H   0  0  0  0  0  0  0  0  0  0  0  0
   14.4350    1.6743   -1.1468 C   0  0  0  0  0  0  0  0  0  0  0  0
   14.9567    1.9176   -2.0587 H   0  0  0  0  0  0  0  0  0  0  0  0
   14.6507    2.4032    0.0202 C   0  0  0  0  0  0  0  0  0  0  0  0
   15.3470    3.2281    0.0333 H   0  0  0  0  0  0  0  0  0  0  0  0
   13.9542    2.0496    1.1604 C   0  0  0  0  0  0  0  0  0  0  0  0
   14.0751    2.5696    2.0969 H   0  0  0  0  0  0  0  0  0  0  0  0
   13.0710    0.9753    1.0995 C   0  0  0  0  0  0  0  0  0  0  0  0
   12.3482    0.5086    2.2597 C   0  0  0  0  0  0  0  0  0  0  0  0
   11.1064   -0.7813    3.4045 C   0  0  2  0  0  3  0  0  0  0  0  0
   10.1869   -1.8759    3.8343 C   0  0  0  0  0  0  0  0  0  0  0  0
    9.9630   -1.8284    5.3478 C   0  0  0  0  0  0  0  0  0  0  0  0
    9.4457   -0.9168    5.6422 H   0  0  0  0  0  0  0  0  0  0  0  0
   10.9079   -1.8950    5.8857 H   0  0  0  0  0  0  0  0  0  0  0  0
    9.3454   -2.6719    5.6455 H   0  0  0  0  0  0  0  0  0  0  0  0
   10.8072   -3.2184    3.4352 C   0  0  0  0  0  0  0  0  0  0  0  0
   10.1095   -4.0260    3.6390 H   0  0  0  0  0  0  0  0  0  0  0  0
   11.7258   -3.3941    3.9911 H   0  0  0  0  0  0  0  0  0  0  0  0
   11.0376   -3.2224    2.3719 H   0  0  0  0  0  0  0  0  0  0  0  0
    8.8550   -1.6856    3.0937 C   0  0  0  0  0  0  0  0  0  0  0  0
    8.4251   -0.7094    3.3101 H   0  0  0  0  0  0  0  0  0  0  0  0
    8.1509   -2.4522    3.4057 H   0  0  0  0  0  0  0  0  0  0  0  0
    8.9989   -1.7734    2.0203 H   0  0  0  0  0  0  0  0  0  0  0  0
   14.4835   -2.4553    2.2895 C   0  0  0  0  0  0  0  0  0  0  0  0
   15.0364   -1.1946    2.5187 C   0  0  0  0  0  0  0  0  0  0  0  0
   15.1556   -0.5063    1.6920 H   0  0  0  0  0  0  0  0  0  0  0  0
   15.4362   -0.8256    3.7881 C   0  0  0  0  0  0  0  0  0  0  0  0
   15.8625    0.1533    3.9535 H   0  0  0  0  0  0  0  0  0  0  0  0
   15.2805   -1.7057    4.8476 C   0  0  0  0  0  0  0  0  0  0  0  0
   15.5874   -1.4150    5.8415 H   0  0  0  0  0  0  0  0  0  0  0  0
   14.7308   -2.9591    4.6288 C   0  0  0  0  0  0  0  0  0  0  0  0
   14.6115   -3.6473    5.4537 H   0  0  0  0  0  0  0  0  0  0  0  0
   14.3258   -3.3319    3.3604 C   0  0  0  0  0  0  0  0  0  0  0  0
   13.8906   -4.3076    3.1909 H   0  0  0  0  0  0  0  0  0  0  0  0
   13.6588   -4.6020    0.5941 C   0  0  0  0  0  0  0  0  0  0  0  0
   12.4446   -5.2202    0.3192 C   0  0  0  0  0  0  0  0  0  0  0  0
   11.5540   -4.6264    0.1663 H   0  0  0  0  0  0  0  0  0  0  0  0
   12.3819   -6.6005    0.2264 C   0  0  0  0  0  0  0  0  0  0  0  0
   11.4380   -7.0778    0.0111 H   0  0  0  0  0  0  0  0  0  0  0  0
   13.5254   -7.3600    0.4028 C   0  0  0  0  0  0  0  0  0  0  0  0
   13.4770   -8.4366    0.3287 H   0  0  0  0  0  0  0  0  0  0  0  0
   14.7390   -6.7426    0.6692 C   0  0  0  0  0  0  0  0  0  0  0  0
   15.6317   -7.3373    0.8003 H   0  0  0  0  0  0  0  0  0  0  0  0
   14.8107   -5.3667    0.7622 C   0  0  0  0  0  0  0  0  0  0  0  0
   15.7550   -4.8792    0.9651 H   0  0  0  0  0  0  0  0  0  0  0  0
   15.0436   -2.4648   -0.5325 C   0  0  0  0  0  0  0  0  0  0  0  0
   14.6308   -2.4659   -1.8639 C   0  0  0  0  0  0  0  0  0  0  0  0
   13.5892   -2.6629   -2.0902 H   0  0  0  0  0  0  0  0  0  0  0  0
   15.5375   -2.2225   -2.8768 C   0  0  0  0  0  0  0  0  0  0  0  0
   15.2120   -2.2269   -3.9068 H   0  0  0  0  0  0  0  0  0  0  0  0
   16.8642   -1.9678   -2.5664 C   0  0  0  0  0  0  0  0  0  0  0  0
   17.5753   -1.7686   -3.3545 H   0  0  0  0  0  0  0  0  0  0  0  0
   17.2801   -1.9726   -1.2454 C   0  0  0  0  0  0  0  0  0  0  0  0
   18.3163   -1.7825   -1.0046 H   0  0  0  0  0  0  0  0  0  0  0  0
   16.3772   -2.2235   -0.2269 C   0  0  0  0  0  0  0  0  0  0  0  0
   16.7128   -2.2311    0.8011 H   0  0  0  0  0  0  0  0  0  0  0  0
  2  1  1  6  0  0  0
  2  3  1  0  0  0  0
  2  8  1  0  0  0  0
  3 33  1  0  0  0  0
  4  2  1  0  0  0  0
  4 17  1  0  0  0  0
  5  6  1  0  0  0  0
  6  7  1  0  0  0  0
  8 18  1  0  0  0  0
  8 19  1  0  0  0  0
  9  4  1  0  0  0  0
 10  9  1  0  0  0  0
 11  9  1  0  0  0  0
 11 13  2  0  0  0  0
 12 11  1  0  0  0  0
 13 14  1  0  0  0  0
 13 15  1  0  0  0  0
 15 16  1  0  0  0  0
 17 15  2  0  0  0  0
 17 18  1  0  0  0  0
 18  5  2  0  0  0  0
 19 20  1  6  0  0  0
 19  6  1  0  0  0  0
 20 21  1  0  0  0  0
 21 22  1  0  0  0  0
 21 24  1  0  0  0  0
 21 23  1  0  0  0  0
 25 26  1  0  0  0  0
 25 20  1  0  0  0  0
 25 27  1  0  0  0  0
 28 25  1  0  0  0  0
 29 30  1  0  0  0  0
 29 31  1  0  0  0  0
 29 20  1  0  0  0  0
 32 29  1  0  0  0  0
 33 34  2  0  0  0  0
 33 42  1  0  0  0  0
 34 36  1  0  0  0  0
 35 34  1  0  0  0  0
 36 37  1  0  0  0  0
 36 38  2  0  0  0  0
 38 39  1  0  0  0  0
 40 38  1  0  0  0  0
 40 41  1  0  0  0  0
 42 40  2  0  0  0  0
 43 42  1  0  0  0  0
 44  3  1  0  0  0  0
 44 53  1  0  0  0  0
 45 44  2  0  0  0  0
 46 45  1  0  0  0  0
 47 45  1  0  0  0  0
 47 49  2  0  0  0  0
 48 47  1  0  0  0  0
 49 51  1  0  0  0  0
 50 49  1  0  0  0  0
 51 53  2  0  0  0  0
 51 52  1  0  0  0  0
 53 54  1  0  0  0  0
 55 64  1  0  0  0  0
 55  3  1  0  0  0  0
 56 55  2  0  0  0  0
 57 56  1  0  0  0  0
 58 60  2  0  0  0  0
 58 56  1  0  0  0  0
 59 58  1  0  0  0  0
 60 62  1  0  0  0  0
 61 60  1  0  0  0  0
 62 63  1  0  0  0  0
 62 64  2  0  0  0  0
 64 65  1  0  0  0  0
M  END
$$$$
