CSD_code = MIPBEU | q = 0 | S = 0 | Stoichiometry = C29H29ClCuN4P | MND = 4
 OpenBabel04212202073D

 65 70  0  0  1  0  0  0  0  0999 V2000
    1.0827    1.3954    8.2285 Cu  0  0  2  0  0  0  0  0  0  0  0  0
    2.8630    2.3635    9.0175 Cl  0  0  0  0  0  0  0  0  0  0  0  0
   -0.7119    2.7413    7.8591 P   0  0  0  0  0  4  0  0  0  0  0  0
    0.2091   -0.3860    8.4990 N   0  0  0  0  0  0  0  0  0  0  0  0
    0.9620   -1.2140    5.0651 N   0  0  0  0  0  0  0  0  0  0  0  0
    1.7431   -0.3634    4.3836 N   0  0  0  0  0  0  0  0  0  0  0  0
    2.0324   -0.5887    3.4447 H   0  0  0  0  0  0  0  0  0  0  0  0
    1.4334    0.5814    6.2915 N   0  0  0  0  0  0  0  0  0  0  0  0
   -0.4988   -0.7375    9.5690 C   0  0  0  0  0  3  0  0  0  0  0  0
   -0.3212   -0.1571   10.4632 H   0  0  0  0  0  0  0  0  0  0  0  0
   -1.4029   -1.7811    9.5621 C   0  0  0  0  0  0  0  0  0  0  0  0
   -1.9554   -2.0236   10.4559 H   0  0  0  0  0  0  0  0  0  0  0  0
   -1.5710   -2.5192    8.3932 C   0  0  0  0  0  0  0  0  0  0  0  0
   -2.2584   -3.3509    8.3614 H   0  0  0  0  0  0  0  0  0  0  0  0
   -0.8378   -2.1655    7.2763 C   0  0  0  0  0  0  0  0  0  0  0  0
   -0.9217   -2.6929    6.3399 H   0  0  0  0  0  0  0  0  0  0  0  0
    0.0360   -1.0858    7.3628 C   0  0  0  0  0  0  0  0  0  0  0  0
    0.7956   -0.6141    6.2283 C   0  0  0  0  0  0  0  0  0  0  0  0
    2.0310    0.7230    5.1299 C   0  0  1  0  0  3  0  0  0  0  0  0
    2.8964    1.8734    4.7381 C   0  0  0  0  0  0  0  0  0  0  0  0
    4.1442    1.8414    5.6315 C   0  0  0  0  0  0  0  0  0  0  0  0
    4.6829    0.9033    5.5124 H   0  0  0  0  0  0  0  0  0  0  0  0
    3.8622    1.9533    6.6765 H   0  0  0  0  0  0  0  0  0  0  0  0
    4.8074    2.6598    5.3645 H   0  0  0  0  0  0  0  0  0  0  0  0
    3.2920    1.7799    3.2625 C   0  0  0  0  0  0  0  0  0  0  0  0
    3.8969    0.8948    3.0728 H   0  0  0  0  0  0  0  0  0  0  0  0
    3.8835    2.6513    2.9931 H   0  0  0  0  0  0  0  0  0  0  0  0
    2.4122    1.7576    2.6208 H   0  0  0  0  0  0  0  0  0  0  0  0
    2.1161    3.1657    5.0006 C   0  0  0  0  0  0  0  0  0  0  0  0
    1.8056    3.2001    6.0436 H   0  0  0  0  0  0  0  0  0  0  0  0
    1.2311    3.2156    4.3689 H   0  0  0  0  0  0  0  0  0  0  0  0
    2.7461    4.0273    4.7969 H   0  0  0  0  0  0  0  0  0  0  0  0
   -1.5108    2.4193    6.2654 C   0  0  0  0  0  0  0  0  0  0  0  0
   -2.0719    1.1568    6.0672 C   0  0  0  0  0  0  0  0  0  0  0  0
   -2.1490    0.4745    6.9038 H   0  0  0  0  0  0  0  0  0  0  0  0
   -2.5272    0.7820    4.8188 C   0  0  0  0  0  0  0  0  0  0  0  0
   -2.9594   -0.1977    4.6748 H   0  0  0  0  0  0  0  0  0  0  0  0
   -2.4200    1.6589    3.7500 C   0  0  0  0  0  0  0  0  0  0  0  0
   -2.7722    1.3648    2.7723 H   0  0  0  0  0  0  0  0  0  0  0  0
   -1.8576    2.9114    3.9377 C   0  0  0  0  0  0  0  0  0  0  0  0
   -1.7744    3.5954    3.1050 H   0  0  0  0  0  0  0  0  0  0  0  0
   -1.3955    3.2900    5.1852 C   0  0  0  0  0  0  0  0  0  0  0  0
   -0.9479    4.2636    5.3294 H   0  0  0  0  0  0  0  0  0  0  0  0
   -2.0322    2.4832    9.0862 C   0  0  0  0  0  0  0  0  0  0  0  0
   -1.6000    2.4436   10.4107 C   0  0  0  0  0  0  0  0  0  0  0  0
   -0.5425    2.5622   10.6158 H   0  0  0  0  0  0  0  0  0  0  0  0
   -2.5076    2.2556   11.4346 C   0  0  0  0  0  0  0  0  0  0  0  0
   -2.1697    2.2278   12.4602 H   0  0  0  0  0  0  0  0  0  0  0  0
   -3.8537    2.0986   11.1418 C   0  0  0  0  0  0  0  0  0  0  0  0
   -4.5662    1.9467   11.9392 H   0  0  0  0  0  0  0  0  0  0  0  0
   -4.2867    2.1383    9.8268 C   0  0  0  0  0  0  0  0  0  0  0  0
   -5.3369    2.0210    9.6008 H   0  0  0  0  0  0  0  0  0  0  0  0
   -3.3826    2.3325    8.7969 C   0  0  0  0  0  0  0  0  0  0  0  0
   -3.7277    2.3641    7.7727 H   0  0  0  0  0  0  0  0  0  0  0  0
   -0.5573    4.5543    7.9368 C   0  0  0  0  0  0  0  0  0  0  0  0
    0.6882    5.0920    8.2418 C   0  0  0  0  0  0  0  0  0  0  0  0
    1.5297    4.4322    8.4163 H   0  0  0  0  0  0  0  0  0  0  0  0
    0.8351    6.4659    8.3360 C   0  0  0  0  0  0  0  0  0  0  0  0
    1.8011    6.8852    8.5740 H   0  0  0  0  0  0  0  0  0  0  0  0
   -0.2532    7.2966    8.1303 C   0  0  0  0  0  0  0  0  0  0  0  0
   -0.1378    8.3683    8.2050 H   0  0  0  0  0  0  0  0  0  0  0  0
   -1.4973    6.7580    7.8352 C   0  0  0  0  0  0  0  0  0  0  0  0
   -2.3463    7.4091    7.6831 H   0  0  0  0  0  0  0  0  0  0  0  0
   -1.6551    5.3889    7.7417 C   0  0  0  0  0  0  0  0  0  0  0  0
   -2.6237    4.9615    7.5191 H   0  0  0  0  0  0  0  0  0  0  0  0
  1  4  1  0  0  0  0
  1  2  1  1  0  0  0
  3 55  1  0  0  0  0
  3  1  1  0  0  0  0
  3 44  1  0  0  0  0
  4  9  1  0  0  0  0
  5 18  2  0  0  0  0
  6  5  1  0  0  0  0
  6 19  1  0  0  0  0
  7  6  1  0  0  0  0
  8  1  1  0  0  0  0
  9 10  1  0  0  0  0
 11  9  1  0  0  0  0
 11 12  1  0  0  0  0
 13 11  2  0  0  0  0
 14 13  1  0  0  0  0
 15 17  2  0  0  0  0
 15 13  1  0  0  0  0
 16 15  1  0  0  0  0
 17  4  1  0  0  0  0
 18  8  1  0  0  0  0
 18 17  1  0  0  0  0
 19 20  1  1  0  0  0
 19  8  1  0  0  0  0
 20 29  1  0  0  0  0
 20 21  1  0  0  0  0
 21 23  1  0  0  0  0
 22 21  1  0  0  0  0
 24 21  1  0  0  0  0
 25 20  1  0  0  0  0
 26 25  1  0  0  0  0
 27 25  1  0  0  0  0
 28 25  1  0  0  0  0
 29 30  1  0  0  0  0
 31 29  1  0  0  0  0
 32 29  1  0  0  0  0
 33  3  1  0  0  0  0
 34 33  1  0  0  0  0
 34 35  1  0  0  0  0
 36 34  2  0  0  0  0
 37 36  1  0  0  0  0
 38 40  2  0  0  0  0
 38 36  1  0  0  0  0
 39 38  1  0  0  0  0
 40 42  1  0  0  0  0
 41 40  1  0  0  0  0
 42 43  1  0  0  0  0
 42 33  2  0  0  0  0
 44 45  1  0  0  0  0
 45 46  1  0  0  0  0
 45 47  2  0  0  0  0
 47 48  1  0  0  0  0
 49 47  1  0  0  0  0
 49 50  1  0  0  0  0
 51 49  2  0  0  0  0
 52 51  1  0  0  0  0
 53 44  2  0  0  0  0
 53 51  1  0  0  0  0
 54 53  1  0  0  0  0
 55 56  1  0  0  0  0
 56 58  2  0  0  0  0
 56 57  1  0  0  0  0
 58 59  1  0  0  0  0
 60 61  1  0  0  0  0
 60 58  1  0  0  0  0
 62 60  2  0  0  0  0
 63 62  1  0  0  0  0
 64 62  1  0  0  0  0
 64 55  2  0  0  0  0
 65 64  1  0  0  0  0
M  END
$$$$
