CSD_code = MIPDOG | q = 0 | S = 0 | Stoichiometry = C6H16Cl2N2O4Pt | MND = 6
 OpenBabel04212202073D

 31 30  0  0  0  0  0  0  0  0999 V2000
   -8.2552    5.7356    1.6566 Pt  0  0  0  0  0  0  0  0  0  0  0  0
   -9.2425    4.3082    0.1876 Cl  0  0  0  0  0  0  0  0  0  0  0  0
   -9.4430    4.9607    3.4341 Cl  0  0  0  0  0  0  0  0  0  0  0  0
   -6.8561    4.2550    2.0470 O   0  0  0  0  0  0  0  0  0  0  0  0
   -9.8067    7.0616    1.2876 O   0  0  0  0  0  0  0  0  0  0  0  0
   -8.4090    8.7602    1.0644 O   0  0  0  0  0  0  0  0  0  0  0  0
   -5.1738    5.6741    1.8347 O   0  0  0  0  0  0  0  0  0  0  0  0
   -3.2957    3.7817    2.6899 C   0  0  0  0  0  0  0  0  0  0  0  0
   -2.8856    4.4244    1.9152 H   0  0  0  0  0  0  0  0  0  0  0  0
   -2.6584    2.9081    2.7988 H   0  0  0  0  0  0  0  0  0  0  0  0
   -3.2927    4.3348    3.6259 H   0  0  0  0  0  0  0  0  0  0  0  0
   -5.6181    4.5450    2.0483 C   0  0  0  0  0  0  0  0  0  0  0  0
   -7.1085    6.5109   -0.0074 N   0  0  0  0  0  4  0  0  0  0  0  0
   -7.3108    7.5125   -0.0540 H   0  0  0  0  0  0  0  0  0  0  0  0
   -7.3373    6.0518   -0.8856 H   0  0  0  0  0  0  0  0  0  0  0  0
   -6.1239    6.3736    0.2337 H   0  0  0  0  0  0  0  0  0  0  0  0
  -10.4411   10.4975    0.2349 C   0  0  0  0  0  0  0  0  0  0  0  0
   -9.7099   11.0133    0.8519 H   0  0  0  0  0  0  0  0  0  0  0  0
  -11.3356   11.1103    0.1596 H   0  0  0  0  0  0  0  0  0  0  0  0
  -10.0184   10.3731   -0.7589 H   0  0  0  0  0  0  0  0  0  0  0  0
   -7.2812    7.1056    3.0200 N   0  0  0  0  0  4  0  0  0  0  0  0
   -7.4729    8.0467    2.6674 H   0  0  0  0  0  0  0  0  0  0  0  0
   -6.2787    6.9141    2.9507 H   0  0  0  0  0  0  0  0  0  0  0  0
   -7.6068    7.0007    3.9777 H   0  0  0  0  0  0  0  0  0  0  0  0
   -9.5469    8.2880    1.0745 C   0  0  0  0  0  0  0  0  0  0  0  0
  -10.7831    9.1461    0.8435 C   0  0  0  0  0  0  0  0  0  0  0  0
  -11.4705    8.5812    0.2131 H   0  0  0  0  0  0  0  0  0  0  0  0
  -11.2603    9.2721    1.8184 H   0  0  0  0  0  0  0  0  0  0  0  0
   -4.7094    3.3551    2.3254 C   0  0  0  0  0  0  0  0  0  0  0  0
   -4.7067    2.7486    1.4165 H   0  0  0  0  0  0  0  0  0  0  0  0
   -5.1682    2.7595    3.1151 H   0  0  0  0  0  0  0  0  0  0  0  0
  1  4  1  0  0  0  0
  1 21  1  0  0  0  0
  1  3  1  0  0  0  0
  2  1  1  0  0  0  0
  4 12  1  0  0  0  0
  5  1  1  0  0  0  0
  6 25  2  0  0  0  0
  7 12  2  0  0  0  0
  8 10  1  0  0  0  0
  8 11  1  0  0  0  0
  9  8  1  0  0  0  0
 12 29  1  0  0  0  0
 13 16  1  0  0  0  0
 13  1  1  0  0  0  0
 14 13  1  0  0  0  0
 15 13  1  0  0  0  0
 17 26  1  0  0  0  0
 17 18  1  0  0  0  0
 19 17  1  0  0  0  0
 20 17  1  0  0  0  0
 21 24  1  0  0  0  0
 22 21  1  0  0  0  0
 23 21  1  0  0  0  0
 25  5  1  0  0  0  0
 26 25  1  0  0  0  0
 26 28  1  0  0  0  0
 27 26  1  0  0  0  0
 29  8  1  0  0  0  0
 29 31  1  0  0  0  0
 30 29  1  0  0  0  0
M  END
$$$$
