CSD_code = MIPTEN | q = 0 | S = 0 | Stoichiometry = C15H33BrCuP3 | MND = 4
 OpenBabel04212202073D

 53 55  0  0  0  0  0  0  0  0999 V2000
   12.7169   -0.4530    3.9341 C   0  0  0  0  0  0  0  0  0  0  0  0
   13.3958    0.1900    4.5026 H   0  0  0  0  0  0  0  0  0  0  0  0
   13.3184   -1.2086    3.4163 H   0  0  0  0  0  0  0  0  0  0  0  0
   11.9352    0.3835    2.9207 C   0  0  0  0  0  0  0  0  0  0  0  0
   12.5773    0.5727    2.0539 H   0  0  0  0  0  0  0  0  0  0  0  0
   11.0722   -0.1867    2.5631 H   0  0  0  0  0  0  0  0  0  0  0  0
   11.4737    1.7329    3.4729 C   0  0  0  0  0  0  0  0  0  0  0  0
   11.1670    2.3839    2.6467 H   0  0  0  0  0  0  0  0  0  0  0  0
   12.3135    2.2128    3.9866 H   0  0  0  0  0  0  0  0  0  0  0  0
    8.6021    1.9056    3.6001 C   0  0  0  0  0  0  0  0  0  0  0  0
    7.8226    2.3547    4.2236 H   0  0  0  0  0  0  0  0  0  0  0  0
    8.8810    2.6354    2.8312 H   0  0  0  0  0  0  0  0  0  0  0  0
    8.0476    0.6426    2.9400 C   0  0  0  0  0  0  0  0  0  0  0  0
    7.4134    0.9467    2.1005 H   0  0  0  0  0  0  0  0  0  0  0  0
    8.8675    0.0494    2.5239 H   0  0  0  0  0  0  0  0  0  0  0  0
    7.2140   -0.2213    3.8858 C   0  0  0  0  0  0  0  0  0  0  0  0
    6.6125   -0.9350    3.3117 H   0  0  0  0  0  0  0  0  0  0  0  0
    6.5314    0.4136    4.4596 H   0  0  0  0  0  0  0  0  0  0  0  0
    8.6207   -2.6790    4.0880 C   0  0  0  0  0  0  0  0  0  0  0  0
    7.7374   -3.3263    4.1040 H   0  0  0  0  0  0  0  0  0  0  0  0
    8.7850   -2.3589    3.0537 H   0  0  0  0  0  0  0  0  0  0  0  0
    9.8435   -3.4483    4.5912 C   0  0  0  0  0  0  0  0  0  0  0  0
    9.8132   -3.5025    5.6833 H   0  0  0  0  0  0  0  0  0  0  0  0
    9.7960   -4.4726    4.2072 H   0  0  0  0  0  0  0  0  0  0  0  0
   11.1695   -2.8238    4.1555 C   0  0  0  0  0  0  0  0  0  0  0  0
   11.1116   -2.5315    3.1019 H   0  0  0  0  0  0  0  0  0  0  0  0
   11.9785   -3.5544    4.2593 H   0  0  0  0  0  0  0  0  0  0  0  0
   10.2228    3.3677    5.3866 C   0  0  0  0  0  0  0  0  0  0  0  0
   11.2401    3.4546    5.7821 H   0  0  0  0  0  0  0  0  0  0  0  0
   10.0967    4.1082    4.5892 H   0  0  0  0  0  0  0  0  0  0  0  0
    9.2271    3.5913    6.5194 C   0  0  0  0  0  0  0  0  0  0  0  0
    8.2003    3.5545    6.1600 H   0  0  0  0  0  0  0  0  0  0  0  0
    9.3892    4.5628    6.9816 H   0  0  0  0  0  0  0  0  0  0  0  0
    9.3482    2.8271    7.2854 H   0  0  0  0  0  0  0  0  0  0  0  0
    6.8657   -1.7841    6.1839 C   0  0  0  0  0  0  0  0  0  0  0  0
    6.4525   -0.8948    6.6722 H   0  0  0  0  0  0  0  0  0  0  0  0
    6.0805   -2.2391    5.5690 H   0  0  0  0  0  0  0  0  0  0  0  0
    7.3678   -2.7504    7.2498 C   0  0  0  0  0  0  0  0  0  0  0  0
    7.7363   -3.6727    6.8040 H   0  0  0  0  0  0  0  0  0  0  0  0
    6.5640   -3.0032    7.9382 H   0  0  0  0  0  0  0  0  0  0  0  0
    8.1701   -2.2923    7.8260 H   0  0  0  0  0  0  0  0  0  0  0  0
   12.9335   -1.9959    6.2699 C   0  0  0  0  0  0  0  0  0  0  0  0
   13.6931   -2.5252    5.6832 H   0  0  0  0  0  0  0  0  0  0  0  0
   13.4030   -1.1258    6.7414 H   0  0  0  0  0  0  0  0  0  0  0  0
   12.3375   -2.8913    7.3496 C   0  0  0  0  0  0  0  0  0  0  0  0
   11.5718   -2.3526    7.9055 H   0  0  0  0  0  0  0  0  0  0  0  0
   13.1076   -3.2003    8.0533 H   0  0  0  0  0  0  0  0  0  0  0  0
   11.8921   -3.7859    6.9171 H   0  0  0  0  0  0  0  0  0  0  0  0
    9.9020    0.0983    8.5658 Br  0  0  0  0  0  0  0  0  0  0  0  0
    9.9614   -0.0760    6.2872 Cu  0  0  2  0  0  0  0  0  0  0  0  0
   11.6221   -1.3206    5.1566 P   0  0  1  0  0  4  0  0  0  0  0  0
   10.0775    1.6544    4.7030 P   0  0  2  0  0  4  0  0  0  0  0  0
    8.2386   -1.1705    5.1088 P   0  0  2  0  0  4  0  0  0  0  0  0
  1  2  1  0  0  0  0
  1 51  1  0  0  0  0
  3  1  1  0  0  0  0
  4  7  1  0  0  0  0
  4  1  1  0  0  0  0
  5  4  1  0  0  0  0
  6  4  1  0  0  0  0
  7  9  1  0  0  0  0
  7 52  1  0  0  0  0
  8  7  1  0  0  0  0
 10 11  1  0  0  0  0
 10 52  1  0  0  0  0
 12 10  1  0  0  0  0
 13 10  1  0  0  0  0
 13 16  1  0  0  0  0
 14 13  1  0  0  0  0
 15 13  1  0  0  0  0
 16 18  1  0  0  0  0
 16 53  1  0  0  0  0
 17 16  1  0  0  0  0
 19 20  1  0  0  0  0
 19 22  1  0  0  0  0
 19 53  1  0  0  0  0
 21 19  1  0  0  0  0
 22 23  1  0  0  0  0
 24 22  1  0  0  0  0
 25 27  1  0  0  0  0
 25 22  1  0  0  0  0
 25 51  1  0  0  0  0
 26 25  1  0  0  0  0
 28 29  1  0  0  0  0
 28 31  1  0  0  0  0
 30 28  1  0  0  0  0
 31 33  1  0  0  0  0
 31 34  1  0  0  0  0
 32 31  1  0  0  0  0
 35 36  1  0  0  0  0
 35 38  1  0  0  0  0
 37 35  1  0  0  0  0
 38 41  1  0  0  0  0
 38 40  1  0  0  0  0
 39 38  1  0  0  0  0
 42 44  1  0  0  0  0
 42 45  1  0  0  0  0
 43 42  1  0  0  0  0
 45 46  1  0  0  0  0
 45 47  1  0  0  0  0
 48 45  1  0  0  0  0
 50 49  1  1  0  0  0
 51 42  1  1  0  0  0
 51 50  1  0  0  0  0
 52 28  1  1  0  0  0
 52 50  1  0  0  0  0
 53 35  1  1  0  0  0
 53 50  1  0  0  0  0
M  END
$$$$
