CSD_code = MIRPUZ | q = 0 | S = 0 | Stoichiometry = C10H8Br2HgN4O4 | MND = 4
 OpenBabel04212202073D

 29 28  0  0  0  0  0  0  0  0999 V2000
   10.3308    7.0951   16.0170 Hg  0  0  0  0  0  0  0  0  0  0  0  0
   12.6580    7.3552   15.3454 Br  0  0  0  0  0  0  0  0  0  0  0  0
    8.5956    4.4442   14.4934 C   0  0  0  0  0  0  0  0  0  0  0  0
    7.7738    5.1401   14.5856 H   0  0  0  0  0  0  0  0  0  0  0  0
    8.3820    3.0767   14.3347 C   0  0  0  0  0  0  0  0  0  0  0  0
    7.3884    2.6627   14.2539 H   0  0  0  0  0  0  0  0  0  0  0  0
   10.6110    2.7182   14.3993 C   0  0  0  0  0  0  0  0  0  0  0  0
   10.8382    4.0928   14.4586 C   0  0  0  0  0  0  0  0  0  0  0  0
   11.8443    4.4914   14.4510 H   0  0  0  0  0  0  0  0  0  0  0  0
   11.7692    1.7775   14.4974 C   0  0  0  0  0  0  0  0  0  0  0  0
    9.8255    4.9490   14.5520 N   0  0  0  0  0  0  0  0  0  0  0  0
    9.3826    2.2191   14.3260 N   0  0  0  0  0  0  0  0  0  0  0  0
   12.8442    2.1192   14.9198 O   0  0  0  0  0  0  0  0  0  0  0  0
   11.4792    0.5516   14.0976 O   0  0  0  0  0  0  0  0  0  0  0  0
   12.2441   -0.0378   14.2056 H   0  0  0  0  0  0  0  0  0  0  0  0
    8.0037    7.3505   16.6907 Br  0  0  0  0  0  0  0  0  0  0  0  0
   12.0681    4.4419   17.5345 C   0  0  0  0  0  0  0  0  0  0  0  0
   12.8897    5.1380   17.4423 H   0  0  0  0  0  0  0  0  0  0  0  0
   12.2818    3.0742   17.6915 C   0  0  0  0  0  0  0  0  0  0  0  0
   13.2755    2.6602   17.7705 H   0  0  0  0  0  0  0  0  0  0  0  0
   10.0527    2.7159   17.6290 C   0  0  0  0  0  0  0  0  0  0  0  0
    9.8254    4.0904   17.5713 C   0  0  0  0  0  0  0  0  0  0  0  0
    8.8194    4.4892   17.5800 H   0  0  0  0  0  0  0  0  0  0  0  0
    8.8945    1.7750   17.5317 C   0  0  0  0  0  0  0  0  0  0  0  0
   10.8381    4.9467   17.4776 N   0  0  0  0  0  0  0  0  0  0  0  0
   11.2812    2.2166   17.7003 N   0  0  0  0  0  0  0  0  0  0  0  0
    7.8201    2.1156   17.1064 O   0  0  0  0  0  0  0  0  0  0  0  0
    9.1834    0.5506   17.9371 O   0  0  0  0  0  0  0  0  0  0  0  0
    8.4185   -0.0389   17.8302 H   0  0  0  0  0  0  0  0  0  0  0  0
  1 16  1  0  0  0  0
  2  1  1  0  0  0  0
  3 11  1  0  0  0  0
  3  4  1  0  0  0  0
  5  3  2  0  0  0  0
  6  5  1  0  0  0  0
  7  8  1  0  0  0  0
  7 10  1  0  0  0  0
  8 11  2  0  0  0  0
  9  8  1  0  0  0  0
 10 13  2  0  0  0  0
 12  5  1  0  0  0  0
 12  7  2  0  0  0  0
 14 15  1  0  0  0  0
 14 10  1  0  0  0  0
 17 19  1  0  0  0  0
 18 17  1  0  0  0  0
 19 26  2  0  0  0  0
 19 20  1  0  0  0  0
 21 26  1  0  0  0  0
 22 23  1  0  0  0  0
 22 21  2  0  0  0  0
 24 21  1  0  0  0  0
 24 28  1  0  0  0  0
 25 17  2  0  0  0  0
 25 22  1  0  0  0  0
 27 24  2  0  0  0  0
 29 28  1  0  0  0  0
M  END
$$$$
