CSD_code = MIRTUF | q = 0 | S = 0 | Stoichiometry = C15H14ClNOPtS2 | MND = 4
 OpenBabel04212202073D

 35 38  0  0  0  0  0  0  0  0999 V2000
    3.0086   17.8748    2.3068 C   0  0  0  0  0  0  0  0  0  0  0  0
    2.8635   18.9643    3.1569 C   0  0  0  0  0  0  0  0  0  0  0  0
    3.8557   19.0050    4.2007 C   0  0  0  0  0  0  0  0  0  0  0  0
    4.7297   17.9040    4.0872 C   0  0  0  0  0  0  0  0  0  0  0  0
    5.7793   17.6954    4.9668 C   0  0  0  0  0  0  0  0  0  0  0  0
    6.4235   16.8391    4.8431 H   0  0  0  0  0  0  0  0  0  0  0  0
    5.9755   18.5997    5.9895 C   0  0  0  0  0  0  0  0  0  0  0  0
    6.7863   18.4590    6.6878 H   0  0  0  0  0  0  0  0  0  0  0  0
    5.1286   19.6964    6.1211 C   0  0  0  0  0  0  0  0  0  0  0  0
    5.2935   20.3991    6.9246 H   0  0  0  0  0  0  0  0  0  0  0  0
    4.0841   19.9030    5.2453 C   0  0  0  0  0  0  0  0  0  0  0  0
    3.4549   20.7666    5.3835 H   0  0  0  0  0  0  0  0  0  0  0  0
    1.7570   19.8244    2.8288 C   0  0  0  0  0  0  0  0  0  0  0  0
    1.3639   20.9846    3.5056 C   0  0  0  0  0  0  0  0  0  0  0  0
    1.9159   21.3096    4.3689 H   0  0  0  0  0  0  0  0  0  0  0  0
    0.2748   21.7091    3.0729 C   0  0  0  0  0  0  0  0  0  0  0  0
   -0.0271   22.6031    3.5973 H   0  0  0  0  0  0  0  0  0  0  0  0
   -0.4288   21.2749    1.9554 C   0  0  0  0  0  0  0  0  0  0  0  0
   -1.2850   21.8133    1.5851 H   0  0  0  0  0  0  0  0  0  0  0  0
   -0.0053   20.1244    1.3205 C   0  0  0  0  0  0  0  0  0  0  0  0
   -0.5251   19.7503    0.4473 H   0  0  0  0  0  0  0  0  0  0  0  0
    1.1482   14.5667   -0.1598 C   0  0  0  0  0  0  0  0  0  0  0  0
    0.3050   14.9561   -0.7181 H   0  0  0  0  0  0  0  0  0  0  0  0
    0.8580   14.3453    0.8626 H   0  0  0  0  0  0  0  0  0  0  0  0
    1.5681   13.6837   -0.6273 H   0  0  0  0  0  0  0  0  0  0  0  0
    2.7564   16.0081   -1.8839 C   0  0  0  0  0  0  0  0  0  0  0  0
    3.0484   15.0363   -2.2644 H   0  0  0  0  0  0  0  0  0  0  0  0
    3.5677   16.7181   -2.0097 H   0  0  0  0  0  0  0  0  0  0  0  0
    1.8540   16.3731   -2.3603 H   0  0  0  0  0  0  0  0  0  0  0  0
    0.0787   17.6493   -0.8420 Cl  0  0  0  0  0  0  0  0  0  0  0  0
    1.0456   19.4196    1.7352 N   0  0  0  0  0  0  0  0  0  0  0  0
    3.6170   15.2320    0.4826 O   0  0  0  0  0  1  0  0  0  0  0  0
    1.6793   17.7377    0.8372 Pt  0  0  2  0  0  0  0  0  0  0  0  0
    2.4375   15.8479   -0.1011 S   0  0  0  0  0  0  0  0  0  0  0  0
    4.3278   16.8693    2.7314 S   0  0  0  0  0  0  0  0  0  0  0  0
  1 35  1  0  0  0  0
  1  2  1  0  0  0  0
  2  3  1  0  0  0  0
  3 11  1  0  0  0  0
  4  3  2  0  0  0  0
  4  5  1  0  0  0  0
  5  7  2  0  0  0  0
  6  5  1  0  0  0  0
  7  9  1  0  0  0  0
  7  8  1  0  0  0  0
  9 10  1  0  0  0  0
 11 12  1  0  0  0  0
 11  9  2  0  0  0  0
 13  2  2  0  0  0  0
 13 14  1  0  0  0  0
 14 15  1  0  0  0  0
 16 14  2  0  0  0  0
 16 17  1  0  0  0  0
 18 16  1  0  0  0  0
 19 18  1  0  0  0  0
 20 31  1  0  0  0  0
 20 18  2  0  0  0  0
 21 20  1  0  0  0  0
 22 34  1  0  0  0  0
 22 24  1  0  0  0  0
 23 22  1  0  0  0  0
 25 22  1  0  0  0  0
 26 34  1  0  0  0  0
 27 26  1  0  0  0  0
 28 26  1  0  0  0  0
 29 26  1  0  0  0  0
 31 13  1  0  0  0  0
 33 30  1  6  0  0  0
 33 31  1  0  0  0  0
 33  1  2  0  0  0  0
 34 32  1  0  0  0  0
 34 33  1  0  0  0  0
 35  4  1  0  0  0  0
M  END
$$$$
