CSD_code = MIRTOZ | q = 0 | S = 0 | Stoichiometry = C15H14ClNOPtS2 | MND = 4
 OpenBabel04212202073D

 35 38  0  0  0  0  0  0  0  0999 V2000
   22.7034    6.8432   11.0150 C   0  0  0  0  0  0  0  0  0  0  0  0
   21.7828    6.2388   10.1676 C   0  0  0  0  0  0  0  0  0  0  0  0
   22.3938    5.3702    9.1940 C   0  0  0  0  0  0  0  0  0  0  0  0
   21.8611    4.5878    8.1674 C   0  0  0  0  0  0  0  0  0  0  0  0
   20.7999    4.5588    7.9834 H   0  0  0  0  0  0  0  0  0  0  0  0
   22.6939    3.8369    7.3651 C   0  0  0  0  0  0  0  0  0  0  0  0
   22.2677    3.2369    6.5746 H   0  0  0  0  0  0  0  0  0  0  0  0
   24.0729    3.8380    7.5538 C   0  0  0  0  0  0  0  0  0  0  0  0
   24.7040    3.2412    6.9131 H   0  0  0  0  0  0  0  0  0  0  0  0
   24.6315    4.6019    8.5572 C   0  0  0  0  0  0  0  0  0  0  0  0
   25.6975    4.6201    8.7214 H   0  0  0  0  0  0  0  0  0  0  0  0
   23.7941    5.3566    9.3623 C   0  0  0  0  0  0  0  0  0  0  0  0
   19.0471    7.8975   11.8151 C   0  0  0  0  0  0  0  0  0  0  0  0
   18.9948    8.5975   12.6395 H   0  0  0  0  0  0  0  0  0  0  0  0
   17.8993    7.4727   11.1762 C   0  0  0  0  0  0  0  0  0  0  0  0
   16.9366    7.8367   11.4938 H   0  0  0  0  0  0  0  0  0  0  0  0
   18.0239    6.5712   10.1255 C   0  0  0  0  0  0  0  0  0  0  0  0
   17.1492    6.2139    9.6032 H   0  0  0  0  0  0  0  0  0  0  0  0
   19.2784    6.1368    9.7569 C   0  0  0  0  0  0  0  0  0  0  0  0
   19.3879    5.4378    8.9476 H   0  0  0  0  0  0  0  0  0  0  0  0
   20.4141    6.5977   10.4322 C   0  0  0  0  0  0  0  0  0  0  0  0
   24.1031   10.4784   13.3989 C   0  0  0  0  0  0  0  0  0  0  0  0
   25.0250   10.6923   13.9270 H   0  0  0  0  0  0  0  0  0  0  0  0
   23.2450   10.9228   13.8896 H   0  0  0  0  0  0  0  0  0  0  0  0
   24.1732   10.8213   12.3714 H   0  0  0  0  0  0  0  0  0  0  0  0
   23.8605    8.3563   15.1538 C   0  0  0  0  0  0  0  0  0  0  0  0
   23.7562    7.2853   15.2964 H   0  0  0  0  0  0  0  0  0  0  0  0
   23.0175    8.8808   15.5884 H   0  0  0  0  0  0  0  0  0  0  0  0
   24.8033    8.6971   15.5656 H   0  0  0  0  0  0  0  0  0  0  0  0
   20.9809    9.4884   13.9447 Cl  0  0  0  0  0  0  0  0  0  0  0  0
   20.2619    7.4804   11.4633 N   0  0  0  0  0  0  0  0  0  0  0  0
   25.1015    8.1035   12.8420 O   0  0  0  0  0  1  0  0  0  0  0  0
   21.9484    8.0698   12.3827 Pt  0  0  1  0  0  0  0  0  0  0  0  0
   23.8716    8.6750   13.3633 S   0  0  0  0  0  0  0  0  0  0  0  0
   24.3191    6.3881   10.6778 S   0  0  0  0  0  0  0  0  0  0  0  0
  1 33  2  0  0  0  0
  2 21  2  0  0  0  0
  2  1  1  0  0  0  0
  3 12  1  0  0  0  0
  3  2  1  0  0  0  0
  4  3  2  0  0  0  0
  5  4  1  0  0  0  0
  6  8  2  0  0  0  0
  6  4  1  0  0  0  0
  7  6  1  0  0  0  0
  8 10  1  0  0  0  0
  9  8  1  0  0  0  0
 10 11  1  0  0  0  0
 10 12  2  0  0  0  0
 12 35  1  0  0  0  0
 13 14  1  0  0  0  0
 15 16  1  0  0  0  0
 15 13  2  0  0  0  0
 17 15  1  0  0  0  0
 18 17  1  0  0  0  0
 19 17  2  0  0  0  0
 19 21  1  0  0  0  0
 20 19  1  0  0  0  0
 21 31  1  0  0  0  0
 22 24  1  0  0  0  0
 22 23  1  0  0  0  0
 25 22  1  0  0  0  0
 26 27  1  0  0  0  0
 26 29  1  0  0  0  0
 26 28  1  0  0  0  0
 31 13  1  0  0  0  0
 31 33  1  0  0  0  0
 32 34  1  0  0  0  0
 33 34  1  0  0  0  0
 33 30  1  6  0  0  0
 34 22  1  0  0  0  0
 34 26  1  0  0  0  0
 35  1  1  0  0  0  0
M  END
$$$$
