CSD_code = MIRXOA | q = 0 | S = 0 | Stoichiometry = C14H28Cl3N2NbO | MND = 8
 OpenBabel04212202073D

 49 49  0  0  0  0  0  0  0  0999 V2000
    3.7019    2.9193   26.5217 Nb  0  0  0  0  0  0  0  0  0  0  0  0
    3.0346    1.4063   24.8157 Cl  0  0  0  0  0  0  0  0  0  0  0  0
    4.7074    4.7983   27.4865 Cl  0  0  0  0  0  0  0  0  0  0  0  0
    1.7689    4.2022   26.1051 Cl  0  0  0  0  0  0  0  0  0  0  0  0
    5.3538    1.7415   26.7094 N   0  0  0  0  0  0  0  0  0  0  0  0
    3.1522    1.8016   28.0824 N   0  0  0  0  0  0  0  0  0  0  0  0
    4.2915    4.3660   24.3423 O   0  0  0  0  0  0  0  0  0  0  0  0
    4.9013    0.5680   27.1922 C   0  0  0  0  0  0  0  0  0  0  0  0
    5.4595   -0.3527   27.0674 H   0  0  0  0  0  0  0  0  0  0  0  0
    3.7392    0.5917   27.9209 C   0  0  0  0  0  0  0  0  0  0  0  0
    3.3414   -0.2976   28.3916 H   0  0  0  0  0  0  0  0  0  0  0  0
    2.1353    1.9811   29.1142 C   0  0  0  0  0  0  0  0  0  0  0  0
    0.7721    1.6081   28.5115 C   0  0  0  0  0  0  0  0  0  0  0  0
    0.5772    2.2196   27.6295 H   0  0  0  0  0  0  0  0  0  0  0  0
   -0.0203    1.7756   29.2360 H   0  0  0  0  0  0  0  0  0  0  0  0
    0.7632    0.5599   28.2148 H   0  0  0  0  0  0  0  0  0  0  0  0
    2.4240    1.1296   30.3598 C   0  0  0  0  0  0  0  0  0  0  0  0
    3.4656    1.2404   30.6543 H   0  0  0  0  0  0  0  0  0  0  0  0
    2.2145    0.0769   30.1902 H   0  0  0  0  0  0  0  0  0  0  0  0
    1.7938    1.4648   31.1790 H   0  0  0  0  0  0  0  0  0  0  0  0
    2.1497    3.4603   29.5250 C   0  0  0  0  0  0  0  0  0  0  0  0
    3.1474    3.7390   29.8665 H   0  0  0  0  0  0  0  0  0  0  0  0
    1.4415    3.6297   30.3324 H   0  0  0  0  0  0  0  0  0  0  0  0
    1.8721    4.1023   28.6890 H   0  0  0  0  0  0  0  0  0  0  0  0
    6.7080    1.7522   26.1626 C   0  0  0  0  0  0  0  0  0  0  0  0
    7.7176    1.2395   27.2004 C   0  0  0  0  0  0  0  0  0  0  0  0
    7.5745    0.1845   27.4174 H   0  0  0  0  0  0  0  0  0  0  0  0
    7.6050    1.8020   28.1251 H   0  0  0  0  0  0  0  0  0  0  0  0
    8.7296    1.3757   26.8283 H   0  0  0  0  0  0  0  0  0  0  0  0
    6.7360    0.8944   24.8870 C   0  0  0  0  0  0  0  0  0  0  0  0
    6.6116   -0.1613   25.1142 H   0  0  0  0  0  0  0  0  0  0  0  0
    7.6806    1.0248   24.3663 H   0  0  0  0  0  0  0  0  0  0  0  0
    5.9217    1.2010   24.2301 H   0  0  0  0  0  0  0  0  0  0  0  0
    7.0706    3.1934   25.7975 C   0  0  0  0  0  0  0  0  0  0  0  0
    7.0327    3.8253   26.6832 H   0  0  0  0  0  0  0  0  0  0  0  0
    6.3712    3.5760   25.0544 H   0  0  0  0  0  0  0  0  0  0  0  0
    8.0755    3.2304   25.3833 H   0  0  0  0  0  0  0  0  0  0  0  0
    3.5706    4.1124   23.1425 C   0  0  0  0  0  0  0  0  0  0  0  0
    3.7481    3.0742   22.8589 H   0  0  0  0  0  0  0  0  0  0  0  0
    2.4961    4.2660   23.3152 H   0  0  0  0  0  0  0  0  0  0  0  0
    4.1185    5.1348   22.1495 C   0  0  0  0  0  0  0  0  0  0  0  0
    5.0529    4.7707   21.7221 H   0  0  0  0  0  0  0  0  0  0  0  0
    3.4186    5.3360   21.3425 H   0  0  0  0  0  0  0  0  0  0  0  0
    4.3719    6.3591   23.0396 C   0  0  0  0  0  0  0  0  0  0  0  0
    3.5882    7.1047   22.9189 H   0  0  0  0  0  0  0  0  0  0  0  0
    5.3272    6.8276   22.8128 H   0  0  0  0  0  0  0  0  0  0  0  0
    4.3505    5.7863   24.4693 C   0  0  0  0  0  0  0  0  0  0  0  0
    5.2468    6.0251   25.0464 H   0  0  0  0  0  0  0  0  0  0  0  0
    3.4669    6.1394   25.0200 H   0  0  0  0  0  0  0  0  0  0  0  0
  1  5  1  0  0  0  0
  1  3  1  0  0  0  0
  1  6  1  0  0  0  0
  2  1  1  0  0  0  0
  4  1  1  0  0  0  0
  5  8  1  0  0  0  0
  6 12  1  0  0  0  0
  7 47  1  0  0  0  0
  8 10  2  0  0  0  0
  9  8  1  0  0  0  0
 10  6  1  0  0  0  0
 10 11  1  0  0  0  0
 12 21  1  0  0  0  0
 12 17  1  0  0  0  0
 13 12  1  0  0  0  0
 13 15  1  0  0  0  0
 14 13  1  0  0  0  0
 16 13  1  0  0  0  0
 17 18  1  0  0  0  0
 17 20  1  0  0  0  0
 19 17  1  0  0  0  0
 21 22  1  0  0  0  0
 21 23  1  0  0  0  0
 24 21  1  0  0  0  0
 25  5  1  0  0  0  0
 25 26  1  0  0  0  0
 26 27  1  0  0  0  0
 26 28  1  0  0  0  0
 29 26  1  0  0  0  0
 30 31  1  0  0  0  0
 30 25  1  0  0  0  0
 32 30  1  0  0  0  0
 33 30  1  0  0  0  0
 34 25  1  0  0  0  0
 34 35  1  0  0  0  0
 36 34  1  0  0  0  0
 37 34  1  0  0  0  0
 38 40  1  0  0  0  0
 38  7  1  0  0  0  0
 39 38  1  0  0  0  0
 41 44  1  0  0  0  0
 41 38  1  0  0  0  0
 42 41  1  0  0  0  0
 43 41  1  0  0  0  0
 44 47  1  0  0  0  0
 45 44  1  0  0  0  0
 46 44  1  0  0  0  0
 47 49  1  0  0  0  0
 47 48  1  0  0  0  0
M  END
$$$$
