CSD_code = MISRAI | q = 0 | S = 0 | Stoichiometry = C28H30Cl2P2Pd | MND = 4
 OpenBabel04212202073D

 63 68  0  0  1  0  0  0  0  0999 V2000
   -2.9133    3.5703    7.0540 Pd  0  0  0  0  0  0  0  0  0  0  0  0
   -3.5554    3.5948    9.2008 Cl  0  0  0  0  0  0  0  0  0  0  0  0
   -4.9895    3.0504    6.3676 Cl  0  0  0  0  0  0  0  0  0  0  0  0
   -2.1984    3.4304    4.9078 P   0  0  2  0  0  4  0  0  0  0  0  0
   -0.6469    3.8744    7.3145 P   0  0  1  0  0  4  0  0  0  0  0  0
   -1.3162    1.8008    4.7607 C   0  0  2  0  0  0  0  0  0  0  0  0
   -2.0771    1.1182    4.3550 H   0  0  0  0  0  0  0  0  0  0  0  0
    0.0283    2.1814    6.9348 C   0  0  0  0  0  0  0  0  0  0  0  0
    0.9858    2.2851    6.4165 H   0  0  0  0  0  0  0  0  0  0  0  0
    0.2176    1.7291    7.9152 H   0  0  0  0  0  0  0  0  0  0  0  0
   -0.9496    1.2952    6.1632 C   0  0  0  0  0  0  0  0  0  0  0  0
   -1.8822    1.2087    6.7561 H   0  0  0  0  0  0  0  0  0  0  0  0
   -0.5173    0.2936    6.0737 H   0  0  0  0  0  0  0  0  0  0  0  0
   -0.1386    1.8769    3.7953 C   0  0  0  0  0  0  0  0  0  0  0  0
    0.6251    2.5602    4.1598 H   0  0  0  0  0  0  0  0  0  0  0  0
   -0.4741    2.2382    2.8246 H   0  0  0  0  0  0  0  0  0  0  0  0
    0.3080    0.8924    3.6639 H   0  0  0  0  0  0  0  0  0  0  0  0
   -0.9781    4.7566    4.7477 C   0  0  0  0  0  0  0  0  0  0  0  0
   -1.3272    5.5543    3.6932 C   0  0  0  0  0  0  0  0  0  0  0  0
   -2.3976    5.0003    2.8754 C   0  0  0  0  0  0  0  0  0  0  0  0
   -2.9271    3.8281    3.3203 C   0  0  0  0  0  0  0  0  0  0  0  0
   -0.1046    4.8578    5.8798 C   0  0  0  0  0  0  0  0  0  0  0  0
    1.0567    5.5108    6.1701 C   0  0  0  0  0  0  0  0  0  0  0  0
    1.4996    5.3411    7.5446 C   0  0  0  0  0  0  0  0  0  0  0  0
    0.7410    4.4983    8.3015 C   0  0  0  0  0  0  0  0  0  0  0  0
   -0.7907    6.9151    3.3946 C   0  0  0  0  0  0  0  0  0  0  0  0
   -1.5996    7.5699    3.0768 H   0  0  0  0  0  0  0  0  0  0  0  0
   -0.0564    6.8826    2.5885 H   0  0  0  0  0  0  0  0  0  0  0  0
   -0.3290    7.3422    4.2784 H   0  0  0  0  0  0  0  0  0  0  0  0
   -2.8587    5.6853    1.6319 C   0  0  0  0  0  0  0  0  0  0  0  0
   -3.3970    6.5998    1.8815 H   0  0  0  0  0  0  0  0  0  0  0  0
   -3.5294    5.0379    1.0724 H   0  0  0  0  0  0  0  0  0  0  0  0
   -2.0117    5.9542    1.0027 H   0  0  0  0  0  0  0  0  0  0  0  0
   -4.0569    3.0791    2.7571 C   0  0  0  0  0  0  0  0  0  0  0  0
   -3.8614    1.8553    2.1262 C   0  0  0  0  0  0  0  0  0  0  0  0
   -2.8589    1.4664    2.0117 H   0  0  0  0  0  0  0  0  0  0  0  0
   -4.9402    1.1464    1.6292 C   0  0  0  0  0  0  0  0  0  0  0  0
   -4.7783    0.1973    1.1389 H   0  0  0  0  0  0  0  0  0  0  0  0
   -6.2233    1.6476    1.7656 C   0  0  0  0  0  0  0  0  0  0  0  0
   -7.0651    1.0884    1.3851 H   0  0  0  0  0  0  0  0  0  0  0  0
   -6.4249    2.8641    2.3960 C   0  0  0  0  0  0  0  0  0  0  0  0
   -7.4247    3.2548    2.5114 H   0  0  0  0  0  0  0  0  0  0  0  0
   -5.3492    3.5794    2.8872 C   0  0  0  0  0  0  0  0  0  0  0  0
   -5.5023    4.5190    3.3960 H   0  0  0  0  0  0  0  0  0  0  0  0
    1.9102    6.2606    5.1984 C   0  0  0  0  0  0  0  0  0  0  0  0
    1.6217    6.0250    4.1790 H   0  0  0  0  0  0  0  0  0  0  0  0
    2.9542    5.9824    5.3368 H   0  0  0  0  0  0  0  0  0  0  0  0
    1.8346    7.3378    5.3480 H   0  0  0  0  0  0  0  0  0  0  0  0
    2.6773    6.1109    8.0492 C   0  0  0  0  0  0  0  0  0  0  0  0
    2.6463    6.1856    9.1328 H   0  0  0  0  0  0  0  0  0  0  0  0
    2.6761    7.1153    7.6303 H   0  0  0  0  0  0  0  0  0  0  0  0
    3.6126    5.6296    7.7603 H   0  0  0  0  0  0  0  0  0  0  0  0
    0.9197    4.0333    9.6640 C   0  0  0  0  0  0  0  0  0  0  0  0
   -0.2164    3.7089   10.4103 C   0  0  0  0  0  0  0  0  0  0  0  0
   -1.1997    3.8393    9.9712 H   0  0  0  0  0  0  0  0  0  0  0  0
   -0.0993    3.2463   11.7057 C   0  0  0  0  0  0  0  0  0  0  0  0
   -0.9898    3.0105   12.2679 H   0  0  0  0  0  0  0  0  0  0  0  0
    1.1534    3.0809   12.2756 C   0  0  0  0  0  0  0  0  0  0  0  0
    1.2471    2.7192   13.2888 H   0  0  0  0  0  0  0  0  0  0  0  0
    2.2880    3.3654   11.5330 C   0  0  0  0  0  0  0  0  0  0  0  0
    3.2674    3.2151   11.9642 H   0  0  0  0  0  0  0  0  0  0  0  0
    2.1781    3.8335   10.2372 C   0  0  0  0  0  0  0  0  0  0  0  0
    3.0709    4.0089    9.6576 H   0  0  0  0  0  0  0  0  0  0  0  0
  1  5  1  0  0  0  0
  1  2  1  0  0  0  0
  3  1  1  0  0  0  0
  4 21  1  6  0  0  0
  4  1  1  0  0  0  0
  5 22  1  6  0  0  0
  5 25  1  0  0  0  0
  6  7  1  6  0  0  0
  6  4  1  0  0  0  0
  6 11  1  0  0  0  0
  8  5  1  0  0  0  0
  8 10  1  0  0  0  0
  9  8  1  0  0  0  0
 11 12  1  0  0  0  0
 11  8  1  0  0  0  0
 13 11  1  0  0  0  0
 14 15  1  0  0  0  0
 14  6  1  0  0  0  0
 16 14  1  0  0  0  0
 17 14  1  0  0  0  0
 18  4  1  0  0  0  0
 18 22  1  0  0  0  0
 19 18  2  0  0  0  0
 20 21  2  0  0  0  0
 20 19  1  0  0  0  0
 22 23  2  0  0  0  0
 23 24  1  0  0  0  0
 24 49  1  0  0  0  0
 24 25  2  0  0  0  0
 25 53  1  0  0  0  0
 26 19  1  0  0  0  0
 26 29  1  0  0  0  0
 27 26  1  0  0  0  0
 28 26  1  0  0  0  0
 30 31  1  0  0  0  0
 30 20  1  0  0  0  0
 32 30  1  0  0  0  0
 33 30  1  0  0  0  0
 34 43  1  0  0  0  0
 34 21  1  0  0  0  0
 35 34  2  0  0  0  0
 36 35  1  0  0  0  0
 37 39  2  0  0  0  0
 37 35  1  0  0  0  0
 38 37  1  0  0  0  0
 39 41  1  0  0  0  0
 40 39  1  0  0  0  0
 41 42  1  0  0  0  0
 41 43  2  0  0  0  0
 43 44  1  0  0  0  0
 45 47  1  0  0  0  0
 45 48  1  0  0  0  0
 45 23  1  0  0  0  0
 46 45  1  0  0  0  0
 49 50  1  0  0  0  0
 51 49  1  0  0  0  0
 52 49  1  0  0  0  0
 53 62  2  0  0  0  0
 53 54  1  0  0  0  0
 54 56  2  0  0  0  0
 55 54  1  0  0  0  0
 56 57  1  0  0  0  0
 56 58  1  0  0  0  0
 58 59  1  0  0  0  0
 60 61  1  0  0  0  0
 60 58  2  0  0  0  0
 62 60  1  0  0  0  0
 63 62  1  0  0  0  0
M  END
$$$$
