CSD_code = MISVIW | q = -1 | S = 0 | Stoichiometry = C18H14Cl2NO2Zn(1-) | MND = 4
 OpenBabel04212202073D

 38 41  0  0  0  0  0  0  0  0999 V2000
   17.3829   12.0834   14.4632 Zn  0  0  0  0  0  0  0  0  0  0  0  0
   19.1439   13.1044   13.5186 Cl  0  0  0  0  0  0  0  0  0  0  0  0
   15.7069   11.8599   13.4378 O   0  0  0  0  0  0  0  0  0  0  0  0
   17.4930    9.9988   14.2846 N   0  0  0  0  0  0  0  0  0  0  0  0
   16.3295    9.5930   13.7709 C   0  0  0  0  0  0  0  0  0  0  0  0
   17.0195   12.4929   16.6321 Cl  0  0  0  0  0  0  0  0  0  0  0  0
   25.4735   11.2887   17.5991 O   0  0  0  0  0  0  0  0  0  0  0  0
   15.4116   10.6213   13.3334 C   0  0  0  0  0  0  0  0  0  0  0  0
   14.1987   10.1789   12.7842 C   0  0  0  0  0  0  0  0  0  0  0  0
   13.4952   10.9263   12.4488 H   0  0  0  0  0  0  0  0  0  0  0  0
   13.8953    8.8318   12.6730 C   0  0  0  0  0  0  0  0  0  0  0  0
   12.9429    8.5458   12.2442 H   0  0  0  0  0  0  0  0  0  0  0  0
   14.7677    7.8490   13.0916 C   0  0  0  0  0  3  0  0  0  0  0  0
   14.5162    6.8018   12.9983 H   0  0  0  0  0  0  0  0  0  0  0  0
   15.9982    8.2155   13.6459 C   0  0  0  0  0  0  0  0  0  0  0  0
   16.9693    7.2965   14.1051 C   0  0  0  0  0  0  0  0  0  0  0  0
   16.7596    6.2365   14.0367 H   0  0  0  0  0  0  0  0  0  0  0  0
   18.1495    7.7425   14.6211 C   0  0  0  0  0  0  0  0  0  0  0  0
   18.8959    7.0442   14.9670 H   0  0  0  0  0  0  0  0  0  0  0  0
   18.4060    9.1340   14.7043 C   0  0  0  0  0  0  0  0  0  0  0  0
   19.6325    9.7004   15.2086 C   0  0  0  0  0  0  0  0  0  0  0  0
   19.6640   10.7793   15.1468 H   0  0  0  0  0  0  0  0  0  0  0  0
   20.6786    9.0303   15.7177 C   0  0  0  0  0  0  0  0  0  0  0  0
   20.6396    7.9504   15.8041 H   0  0  0  0  0  0  0  0  0  0  0  0
   21.9073    9.6265   16.1986 C   0  0  0  0  0  0  0  0  0  0  0  0
   22.8593    8.8142   16.8158 C   0  0  0  0  0  0  0  0  0  0  0  0
   22.6604    7.7566   16.9278 H   0  0  0  0  0  0  0  0  0  0  0  0
   24.0529    9.3200   17.2968 C   0  0  0  0  0  0  0  0  0  0  0  0
   24.7549    8.6488   17.7691 H   0  0  0  0  0  0  0  0  0  0  0  0
   24.3282   10.6751   17.1651 C   0  0  0  0  0  0  0  0  0  0  0  0
   23.3888   11.5006   16.5433 C   0  0  0  0  0  0  0  0  0  0  0  0
   23.6175   12.5499   16.4437 H   0  0  0  0  0  0  0  0  0  0  0  0
   22.2034   10.9902   16.0693 C   0  0  0  0  0  0  0  0  0  0  0  0
   21.5043   11.6535   15.5863 H   0  0  0  0  0  0  0  0  0  0  0  0
   26.4492   10.5050   18.2323 C   0  0  0  0  0  0  0  0  0  0  0  0
   27.2545   11.1894   18.4975 H   0  0  0  0  0  0  0  0  0  0  0  0
   26.8417    9.7293   17.5646 H   0  0  0  0  0  0  0  0  0  0  0  0
   26.0628   10.0342   19.1433 H   0  0  0  0  0  0  0  0  0  0  0  0
  1  6  1  0  0  0  0
  2  1  1  0  0  0  0
  3  1  1  0  0  0  0
  4  1  1  0  0  0  0
  4 20  1  0  0  0  0
  5  4  1  0  0  0  0
  7 35  1  0  0  0  0
  8  3  1  0  0  0  0
  8  5  2  0  0  0  0
  9  8  1  0  0  0  0
 10  9  1  0  0  0  0
 11  9  2  0  0  0  0
 11 13  1  0  0  0  0
 12 11  1  0  0  0  0
 13 15  1  0  0  0  0
 14 13  1  0  0  0  0
 15  5  1  0  0  0  0
 15 16  2  0  0  0  0
 16 18  1  0  0  0  0
 17 16  1  0  0  0  0
 18 20  2  0  0  0  0
 18 19  1  0  0  0  0
 20 21  1  0  0  0  0
 21 23  2  0  0  0  0
 22 21  1  0  0  0  0
 23 24  1  0  0  0  0
 23 25  1  0  0  0  0
 25 26  1  0  0  0  0
 26 27  1  0  0  0  0
 26 28  2  0  0  0  0
 28 29  1  0  0  0  0
 30 28  1  0  0  0  0
 30  7  1  0  0  0  0
 31 30  2  0  0  0  0
 32 31  1  0  0  0  0
 33 25  2  0  0  0  0
 33 31  1  0  0  0  0
 34 33  1  0  0  0  0
 35 36  1  0  0  0  0
 35 38  1  0  0  0  0
 37 35  1  0  0  0  0
M  END
$$$$
