CSD_code = MITCAV | q = 1 | S = 0 | Stoichiometry = C24H29ClIrSe2(1+) | MND = 8
 OpenBabel04212202073D

 57 57  0  0  1  0  0  0  0  0999 V2000
    6.6035   12.4462    9.6807 C   0  0  0  0  0  0  0  0  0  0  0  0
    6.8593   12.3013    8.3242 C   0  0  0  0  0  0  0  0  0  0  0  0
    6.1827   12.7397    7.6032 H   0  0  0  0  0  0  0  0  0  0  0  0
    7.9835   11.6069    7.9103 C   0  0  0  0  0  0  0  0  0  0  0  0
    8.1883   11.4973    6.8568 H   0  0  0  0  0  0  0  0  0  0  0  0
    8.8447   11.0598    8.8472 C   0  0  0  0  0  0  0  0  0  0  0  0
    9.7215   10.5208    8.5242 H   0  0  0  0  0  0  0  0  0  0  0  0
    8.5827   11.2025   10.2017 C   0  0  0  0  0  0  0  0  0  0  0  0
    9.2519   10.7734   10.9319 H   0  0  0  0  0  0  0  0  0  0  0  0
    7.4595   11.8916   10.6211 C   0  0  0  0  0  0  0  0  0  0  0  0
    7.2484   11.9931   11.6808 H   0  0  0  0  0  0  0  0  0  0  0  0
    5.8457   14.6358   11.5155 C   0  0  0  0  0  0  0  0  0  0  0  0
    6.9160   14.4256   11.4600 H   0  0  0  0  0  0  0  0  0  0  0  0
    5.6574   15.6391   11.1253 H   0  0  0  0  0  0  0  0  0  0  0  0
    5.3247   14.5351   12.9320 C   0  0  0  0  0  0  0  0  0  0  0  0
    4.3101   14.9296   13.0145 H   0  0  0  0  0  0  0  0  0  0  0  0
    5.9859   15.0700   13.6183 H   0  0  0  0  0  0  0  0  0  0  0  0
    4.1575   12.8692   15.1396 C   0  0  0  0  0  0  0  0  0  0  0  0
    2.8754   13.3924   15.0937 C   0  0  0  0  0  0  0  0  0  0  0  0
    2.4379   13.6913   14.1525 H   0  0  0  0  0  0  0  0  0  0  0  0
    2.1583   13.5134   16.2712 C   0  0  0  0  0  0  0  0  0  0  0  0
    1.1606   13.9239   16.2456 H   0  0  0  0  0  0  0  0  0  0  0  0
    2.7141   13.1082   17.4748 C   0  0  0  0  0  0  0  0  0  0  0  0
    2.1484   13.2056   18.3883 H   0  0  0  0  0  0  0  0  0  0  0  0
    3.9931   12.5757   17.5087 C   0  0  0  0  0  0  0  0  0  0  0  0
    4.4251   12.2584   18.4450 H   0  0  0  0  0  0  0  0  0  0  0  0
    4.7218   12.4520   16.3390 C   0  0  0  0  0  0  0  0  0  0  0  0
    5.7229   12.0411   16.3499 H   0  0  0  0  0  0  0  0  0  0  0  0
    2.5329   10.3582   10.5486 C   0  0  0  0  0  0  0  0  0  0  0  0
    2.1721   10.2666   11.9397 C   0  0  0  0  0  0  0  0  0  0  0  0
    3.3320    9.8693   12.6622 C   0  0  2  0  0  0  0  0  0  0  0  0
    4.4079    9.6615   11.7102 C   0  0  0  0  0  0  0  0  0  0  0  0
    3.8933    9.9111   10.4085 C   0  0  0  0  0  0  0  0  0  0  0  0
    4.5815    9.6575    9.1128 C   0  0  0  0  0  0  0  0  0  0  0  0
    4.2664    8.6858    8.7296 H   0  0  0  0  0  0  0  0  0  0  0  0
    5.6623    9.6432    9.2270 H   0  0  0  0  0  0  0  0  0  0  0  0
    4.3192   10.4093    8.3706 H   0  0  0  0  0  0  0  0  0  0  0  0
    1.5766   10.6146    9.4359 C   0  0  0  0  0  0  0  0  0  0  0  0
    2.0894   10.9742    8.5472 H   0  0  0  0  0  0  0  0  0  0  0  0
    0.8288   11.3479    9.7280 H   0  0  0  0  0  0  0  0  0  0  0  0
    1.0582    9.6893    9.1805 H   0  0  0  0  0  0  0  0  0  0  0  0
    0.7982   10.4628   12.4787 C   0  0  0  0  0  0  0  0  0  0  0  0
    0.3555   11.3796   12.0943 H   0  0  0  0  0  0  0  0  0  0  0  0
    0.8004   10.5074   13.5640 H   0  0  0  0  0  0  0  0  0  0  0  0
    0.1658    9.6312   12.1661 H   0  0  0  0  0  0  0  0  0  0  0  0
    3.4041    9.5223   14.1111 C   0  0  0  0  0  0  0  0  0  0  0  0
    3.1831    8.4617   14.2382 H   0  0  0  0  0  0  0  0  0  0  0  0
    2.6843   10.0920   14.6944 H   0  0  0  0  0  0  0  0  0  0  0  0
    4.3999    9.7105   14.5116 H   0  0  0  0  0  0  0  0  0  0  0  0
    5.7332    9.0678   12.0494 C   0  0  0  0  0  0  0  0  0  0  0  0
    5.6251    7.9941   12.2058 H   0  0  0  0  0  0  0  0  0  0  0  0
    6.1310    9.5019   12.9664 H   0  0  0  0  0  0  0  0  0  0  0  0
    6.4524    9.2261   11.2501 H   0  0  0  0  0  0  0  0  0  0  0  0
    2.4501   13.7392   11.6588 Cl  0  0  0  0  0 15  0  0  0  0  0  0
    3.8048   11.7813   11.6747 Ir  0  0  0  0  0  0  0  0  0  0  0  0
    5.0011   13.3887   10.2141 Se  0  0  0  0  0  0  0  0  0  0  0  0
    5.2179   12.6624   13.5428 Se  0  0  0  0  0  0  0  0  0  0  0  0
  1 56  1  0  0  0  0
  1 10  1  0  0  0  0
  2  1  2  0  0  0  0
  3  2  1  0  0  0  0
  4  2  1  0  0  0  0
  4  6  2  0  0  0  0
  5  4  1  0  0  0  0
  6  8  1  0  0  0  0
  7  6  1  0  0  0  0
  8 10  2  0  0  0  0
  8  9  1  0  0  0  0
 10 11  1  0  0  0  0
 12 15  1  0  0  0  0
 13 12  1  0  0  0  0
 14 12  1  0  0  0  0
 15 16  1  0  0  0  0
 15 57  1  0  0  0  0
 15 17  1  0  0  0  0
 18 27  1  0  0  0  0
 19 18  2  0  0  0  0
 19 21  1  0  0  0  0
 20 19  1  0  0  0  0
 21 23  2  0  0  0  0
 22 21  1  0  0  0  0
 23 25  1  0  0  0  0
 23 24  1  0  0  0  0
 25 26  1  0  0  0  0
 27 28  1  0  0  0  0
 27 25  2  0  0  0  0
 29 30  2  0  0  0  0
 30 42  1  0  0  0  0
 30 31  1  0  0  0  0
 31 55  1  1  0  0  0
 31 46  1  0  0  0  0
 32 50  1  0  0  0  0
 32 31  1  0  0  0  0
 33 29  1  0  0  0  0
 33 32  2  0  0  0  0
 34 36  1  0  0  0  0
 34 33  1  0  0  0  0
 35 34  1  0  0  0  0
 37 34  1  0  0  0  0
 38 40  1  0  0  0  0
 38 29  1  0  0  0  0
 39 38  1  0  0  0  0
 41 38  1  0  0  0  0
 42 44  1  0  0  0  0
 43 42  1  0  0  0  0
 45 42  1  0  0  0  0
 46 47  1  0  0  0  0
 46 49  1  0  0  0  0
 46 48  1  0  0  0  0
 50 51  1  0  0  0  0
 50 52  1  0  0  0  0
 53 50  1  0  0  0  0
 56 12  1  0  0  0  0
 57 18  1  0  0  0  0
M  END
$$$$
