CSD_code = MITNEJ | q = 1 | S = 0 | Stoichiometry = C18H29ClN3O2RuS2(1+) | MND = 6
 OpenBabel04212202073D

 56 59  0  0  1  0  0  0  0  0999 V2000
    2.6594    0.1600    2.9367 Ru  0  0  0  0  0  0  0  0  0  0  0  0
    0.9126   -1.3359    2.8048 S   0  0  0  0  0  0  0  0  0  0  0  0
    1.3589    1.6989    2.7079 N   0  0  0  0  0  0  0  0  0  0  0  0
    0.0780   -1.2447    4.0001 O   0  0  0  0  0  1  0  0  0  0  0  0
    1.1279    2.3364    1.5603 C   0  0  0  0  0  3  0  0  0  0  0  0
    1.5582    1.8891    0.6721 H   0  0  0  0  0  0  0  0  0  0  0  0
    2.8880   -0.2539    0.6472 Cl  0  0  0  0  0  0  0  0  0  0  0  0
    4.2334   -1.4970    3.1794 S   0  0  0  0  0  0  0  0  0  0  0  0
    3.8062   -2.4976    4.1471 O   0  0  0  0  0  1  0  0  0  0  0  0
    0.3745    3.4943    1.4983 C   0  0  0  0  0  0  0  0  0  0  0  0
    0.2035    3.9735    0.5487 H   0  0  0  0  0  0  0  0  0  0  0  0
    2.4062    0.6745    5.0200 N   0  0  1  0  0  4  0  0  0  0  0  0
    4.0233    1.6551    3.0166 N   0  0  0  0  0  0  0  0  0  0  0  0
   -0.1475    4.0176    2.6723 C   0  0  0  0  0  0  0  0  0  0  0  0
   -0.7361    4.9211    2.6614 H   0  0  0  0  0  0  0  0  0  0  0  0
    0.1007    3.3546    3.8634 C   0  0  0  0  0  0  0  0  0  0  0  0
   -0.2927    3.7264    4.7961 H   0  0  0  0  0  0  0  0  0  0  0  0
    0.8578    2.1913    3.8470 C   0  0  0  0  0  0  0  0  0  0  0  0
    1.1054    1.3636    5.0713 C   0  0  0  0  0  0  0  0  0  0  0  0
    0.3317    0.5841    5.0882 H   0  0  0  0  0  0  0  0  0  0  0  0
    1.0082    1.9757    5.9748 H   0  0  0  0  0  0  0  0  0  0  0  0
    2.3864   -0.4888    5.9264 C   0  0  0  0  0  0  0  0  0  0  0  0
    3.3331   -1.0204    5.8157 H   0  0  0  0  0  0  0  0  0  0  0  0
    1.5945   -1.1553    5.5794 H   0  0  0  0  0  0  0  0  0  0  0  0
    2.1552   -0.1690    7.4011 C   0  0  0  0  0  0  0  0  0  0  0  0
    2.2142   -1.0976    7.9616 H   0  0  0  0  0  0  0  0  0  0  0  0
    1.1703    0.2557    7.5730 H   0  0  0  0  0  0  0  0  0  0  0  0
    2.9078    0.5074    7.7994 H   0  0  0  0  0  0  0  0  0  0  0  0
    3.4979    1.5954    5.3813 C   0  0  0  0  0  0  0  0  0  0  0  0
    3.1607    2.3420    6.1109 H   0  0  0  0  0  0  0  0  0  0  0  0
    4.2945    1.0120    5.8577 H   0  0  0  0  0  0  0  0  0  0  0  0
    4.1070    2.2915    4.1931 C   0  0  1  0  0  3  0  0  0  0  0  0
    4.7864    3.4948    4.3225 C   0  0  0  0  0  0  0  0  0  0  0  0
    4.8331    3.9843    5.2825 H   0  0  0  0  0  0  0  0  0  0  0  0
    5.4018    4.0508    3.2122 C   0  0  0  0  0  0  0  0  0  0  0  0
    5.9339    4.9852    3.2919 H   0  0  0  0  0  0  0  0  0  0  0  0
    5.3168    3.3790    2.0016 C   0  0  0  0  0  0  0  0  0  0  0  0
    5.7818    3.7704    1.1121 H   0  0  0  0  0  0  0  0  0  0  0  0
    4.6125    2.1906    1.9456 C   0  0  0  0  0  0  0  0  0  0  0  0
    4.5021    1.6389    1.0192 H   0  0  0  0  0  0  0  0  0  0  0  0
    1.2051   -3.0974    2.4997 C   0  0  0  0  0  0  0  0  0  0  0  0
    0.2662   -3.6184    2.6490 H   0  0  0  0  0  0  0  0  0  0  0  0
    1.9465   -3.4444    3.2137 H   0  0  0  0  0  0  0  0  0  0  0  0
    1.5596   -3.2093    1.4813 H   0  0  0  0  0  0  0  0  0  0  0  0
   -0.2066   -1.0221    1.4074 C   0  0  0  0  0  0  0  0  0  0  0  0
   -0.9895   -1.7713    1.4230 H   0  0  0  0  0  0  0  0  0  0  0  0
    0.3668   -1.0627    0.4882 H   0  0  0  0  0  0  0  0  0  0  0  0
   -0.6364   -0.0340    1.5417 H   0  0  0  0  0  0  0  0  0  0  0  0
    5.8760   -0.9066    3.7256 C   0  0  0  0  0  0  0  0  0  0  0  0
    6.5294   -1.7640    3.8418 H   0  0  0  0  0  0  0  0  0  0  0  0
    5.7725   -0.3989    4.6786 H   0  0  0  0  0  0  0  0  0  0  0  0
    6.2577   -0.2257    2.9726 H   0  0  0  0  0  0  0  0  0  0  0  0
    4.8349   -2.4149    1.7348 C   0  0  0  0  0  0  0  0  0  0  0  0
    5.5129   -3.1796    2.0962 H   0  0  0  0  0  0  0  0  0  0  0  0
    5.3260   -1.7240    1.0602 H   0  0  0  0  0  0  0  0  0  0  0  0
    3.9889   -2.8730    1.2348 H   0  0  0  0  0  0  0  0  0  0  0  0
  1 13  1  0  0  0  0
  1  8  1  0  0  0  0
  1 12  1  0  0  0  0
  2  1  1  0  0  0  0
  2  4  1  0  0  0  0
  3  1  1  0  0  0  0
  3 18  1  0  0  0  0
  5  3  1  0  0  0  0
  6  5  1  0  0  0  0
  7  1  1  0  0  0  0
  8 49  1  0  0  0  0
  8  9  1  0  0  0  0
 10  5  1  0  0  0  0
 10 14  2  0  0  0  0
 11 10  1  0  0  0  0
 12 19  1  0  0  0  0
 12 29  1  0  0  0  0
 12 22  1  1  0  0  0
 13 32  1  0  0  0  0
 14 16  1  0  0  0  0
 15 14  1  0  0  0  0
 16 17  1  0  0  0  0
 18 16  2  0  0  0  0
 18 19  1  0  0  0  0
 19 20  1  0  0  0  0
 19 21  1  0  0  0  0
 22 25  1  0  0  0  0
 23 22  1  0  0  0  0
 24 22  1  0  0  0  0
 25 27  1  0  0  0  0
 25 28  1  0  0  0  0
 25 26  1  0  0  0  0
 29 31  1  0  0  0  0
 29 30  1  0  0  0  0
 32 33  1  1  0  0  0
 32 29  1  0  0  0  0
 33 34  1  0  0  0  0
 35 36  1  0  0  0  0
 35 33  2  0  0  0  0
 37 35  1  0  0  0  0
 38 37  1  0  0  0  0
 39 37  2  0  0  0  0
 39 13  1  0  0  0  0
 40 39  1  0  0  0  0
 41 42  1  0  0  0  0
 41  2  1  0  0  0  0
 41 43  1  0  0  0  0
 44 41  1  0  0  0  0
 45 46  1  0  0  0  0
 45 48  1  0  0  0  0
 45  2  1  0  0  0  0
 47 45  1  0  0  0  0
 49 50  1  0  0  0  0
 49 51  1  0  0  0  0
 52 49  1  0  0  0  0
 53 54  1  0  0  0  0
 53  8  1  0  0  0  0
 55 53  1  0  0  0  0
 56 53  1  0  0  0  0
M  END
$$$$
