CSD_code = MITYUL | q = 1 | S = 0 | Stoichiometry = C24H29ClRhSSe(1+) | MND = 8
 OpenBabel04212202073D

 57 58  0  0  1  0  0  0  0  0999 V2000
    0.8482    1.5841    2.6092 Rh  0  0  0  0  0  0  0  0  0  0  0  0
    2.0690    0.1042    1.1667 Se  0  0  0  0  0  0  0  0  0  0  0  0
    2.1724    0.6202    4.3928 S   0  0  0  0  0  0  0  0  0  0  0  0
   -0.4896   -0.3437    2.3797 Cl  0  0  0  0  0 15  0  0  0  0  0  0
    3.7072    1.0319    0.7121 C   0  0  0  0  0  0  0  0  0  0  0  0
    2.8490   -1.1978    2.4444 C   0  0  0  0  0  0  0  0  0  0  0  0
    2.6810   -2.1880    2.0149 H   0  0  0  0  0  0  0  0  0  0  0  0
    3.9201   -0.9861    2.4619 H   0  0  0  0  0  0  0  0  0  0  0  0
    1.1725    0.4389    5.8686 C   0  0  0  0  0  0  0  0  0  0  0  0
    4.5161    1.5836    1.6956 C   0  0  0  0  0  0  0  0  0  0  0  0
    4.2467    1.4874    2.7401 H   0  0  0  0  0  0  0  0  0  0  0  0
    1.8267    0.4022    7.0900 C   0  0  0  0  0  0  0  0  0  0  0  0
    2.9025    0.4774    7.1312 H   0  0  0  0  0  0  0  0  0  0  0  0
    2.2420   -1.1237    3.8263 C   0  0  0  0  0  0  0  0  0  0  0  0
    2.8508   -1.6722    4.5465 H   0  0  0  0  0  0  0  0  0  0  0  0
    1.2183   -1.5002    3.8357 H   0  0  0  0  0  0  0  0  0  0  0  0
    0.3475    3.4599    3.6562 C   0  0  0  0  0  0  0  0  0  0  0  0
   -0.7983    3.0478    2.9275 C   0  0  0  0  0  0  0  0  0  0  0  0
    1.4275    3.6953    2.7132 C   0  0  2  0  0  0  0  0  0  0  0  0
   -0.4281    2.9768    1.5330 C   0  0  1  0  0  0  0  0  0  0  0  0
   -0.2073    0.3563    5.7861 C   0  0  0  0  0  0  0  0  0  0  0  0
   -0.6973    0.3878    4.8222 H   0  0  0  0  0  0  0  0  0  0  0  0
   -0.9417    0.2179    6.9513 C   0  0  0  0  0  0  0  0  0  0  0  0
   -2.0169    0.1440    6.8974 H   0  0  0  0  0  0  0  0  0  0  0  0
    4.0331    1.1708   -0.6301 C   0  0  0  0  0  0  0  0  0  0  0  0
    3.3896    0.7361   -1.3833 H   0  0  0  0  0  0  0  0  0  0  0  0
    5.1833    1.8541   -0.9871 C   0  0  0  0  0  0  0  0  0  0  0  0
    5.4439    1.9582   -2.0289 H   0  0  0  0  0  0  0  0  0  0  0  0
    5.6652    2.2625    1.3315 C   0  0  0  0  0  0  0  0  0  0  0  0
    6.3000    2.6891    2.0933 H   0  0  0  0  0  0  0  0  0  0  0  0
    5.9990    2.3972   -0.0079 C   0  0  0  0  0  0  0  0  0  0  0  0
    6.8964    2.9271   -0.2867 H   0  0  0  0  0  0  0  0  0  0  0  0
    0.9229    3.4576    1.4027 C   0  0  1  0  0  3  0  0  0  0  0  0
   -0.3000    0.1728    8.1789 C   0  0  0  0  0  0  0  0  0  0  0  0
   -0.8775    0.0660    9.0838 H   0  0  0  0  0  0  0  0  0  0  0  0
    1.0809    0.2654    8.2483 C   0  0  0  0  0  0  0  0  0  0  0  0
    1.5806    0.2310    9.2035 H   0  0  0  0  0  0  0  0  0  0  0  0
    2.7310    4.3351    3.0572 C   0  0  0  0  0  0  0  0  0  0  0  0
    3.4796    4.1459    2.2919 H   0  0  0  0  0  0  0  0  0  0  0  0
    3.1077    3.9759    4.0122 H   0  0  0  0  0  0  0  0  0  0  0  0
    2.5886    5.4139    3.1365 H   0  0  0  0  0  0  0  0  0  0  0  0
   -1.3746    2.7161    0.4118 C   0  0  0  0  0  0  0  0  0  0  0  0
   -1.8905    3.6434    0.1575 H   0  0  0  0  0  0  0  0  0  0  0  0
   -2.1236    1.9803    0.6951 H   0  0  0  0  0  0  0  0  0  0  0  0
   -0.8529    2.3613   -0.4740 H   0  0  0  0  0  0  0  0  0  0  0  0
   -2.1763    2.8274    3.4523 C   0  0  0  0  0  0  0  0  0  0  0  0
   -2.8163    3.6485    3.1270 H   0  0  0  0  0  0  0  0  0  0  0  0
   -2.1871    2.7909    4.5381 H   0  0  0  0  0  0  0  0  0  0  0  0
   -2.6006    1.9025    3.0649 H   0  0  0  0  0  0  0  0  0  0  0  0
    1.6093    3.7477    0.1122 C   0  0  0  0  0  0  0  0  0  0  0  0
    1.3712    2.9992   -0.6420 H   0  0  0  0  0  0  0  0  0  0  0  0
    2.6887    3.7929    0.2315 H   0  0  0  0  0  0  0  0  0  0  0  0
    1.2651    4.7156   -0.2555 H   0  0  0  0  0  0  0  0  0  0  0  0
    0.4052    3.8008    5.1073 C   0  0  0  0  0  0  0  0  0  0  0  0
    1.3912    3.6073    5.5236 H   0  0  0  0  0  0  0  0  0  0  0  0
   -0.3294    3.2422    5.6821 H   0  0  0  0  0  0  0  0  0  0  0  0
    0.1937    4.8646    5.2246 H   0  0  0  0  0  0  0  0  0  0  0  0
  1 19  1  0  0  0  0
  2  6  1  0  0  0  0
  3  9  1  0  0  0  0
  5  2  1  0  0  0  0
  5 10  1  0  0  0  0
  6  8  1  0  0  0  0
  6 14  1  0  0  0  0
  7  6  1  0  0  0  0
  9 12  1  0  0  0  0
 10 11  1  0  0  0  0
 12 13  1  0  0  0  0
 12 36  2  0  0  0  0
 14 16  1  0  0  0  0
 14  3  1  0  0  0  0
 14 15  1  0  0  0  0
 17 54  1  0  0  0  0
 18 46  1  0  0  0  0
 18 17  2  0  0  0  0
 19 38  1  1  0  0  0
 19 17  1  0  0  0  0
 20 42  1  6  0  0  0
 20  1  1  0  0  0  0
 20 18  1  0  0  0  0
 21  9  2  0  0  0  0
 21 23  1  0  0  0  0
 22 21  1  0  0  0  0
 23 34  2  0  0  0  0
 24 23  1  0  0  0  0
 25  5  2  0  0  0  0
 26 25  1  0  0  0  0
 27 25  1  0  0  0  0
 27 31  2  0  0  0  0
 28 27  1  0  0  0  0
 29 10  2  0  0  0  0
 29 30  1  0  0  0  0
 31 29  1  0  0  0  0
 32 31  1  0  0  0  0
 33 50  1  6  0  0  0
 33 20  1  0  0  0  0
 33 19  1  0  0  0  0
 34 36  1  0  0  0  0
 34 35  1  0  0  0  0
 36 37  1  0  0  0  0
 38 41  1  0  0  0  0
 38 40  1  0  0  0  0
 39 38  1  0  0  0  0
 42 44  1  0  0  0  0
 43 42  1  0  0  0  0
 45 42  1  0  0  0  0
 46 48  1  0  0  0  0
 47 46  1  0  0  0  0
 49 46  1  0  0  0  0
 50 52  1  0  0  0  0
 51 50  1  0  0  0  0
 53 50  1  0  0  0  0
 54 57  1  0  0  0  0
 54 55  1  0  0  0  0
 54 56  1  0  0  0  0
M  END
$$$$
