CSD_code = MIVHIJ | q = 0 | S = 0 | Stoichiometry = C22H34Cl2Zr | MND = 12
 OpenBabel04212202073D

 59 60  0  0  1  0  0  0  0  0999 V2000
    0.2987   10.8844   12.9338 Zr  0  0  0  0  0  0  0  0  0  0  0  0
   -1.2774   11.4141   14.5920 Cl  0  0  0  0  0  0  0  0  0  0  0  0
   -1.3542   10.1355   11.4599 Cl  0  0  0  0  0  0  0  0  0  0  0  0
    0.8788   12.4124   11.1016 C   0  0  2  0  0  0  0  0  0  0  0  0
    2.0268   12.3335   11.9311 C   0  0  0  0  0  3  0  0  0  0  0  0
    3.0109   11.9986   11.6286 H   0  0  0  0  0  0  0  0  0  0  0  0
    1.7206   12.9433   13.1744 C   0  0  0  0  0  0  0  0  0  0  0  0
    2.4232   13.1471   13.9738 H   0  0  0  0  0  0  0  0  0  0  0  0
    0.3953   13.4172   13.1106 C   0  0  0  0  0  0  0  0  0  0  0  0
   -0.1045   14.0089   13.8672 H   0  0  0  0  0  0  0  0  0  0  0  0
   -0.1338   13.0726   11.8487 C   0  0  0  0  0  3  0  0  0  0  0  0
   -1.1158   13.3454   11.4779 H   0  0  0  0  0  0  0  0  0  0  0  0
    0.7638   11.9750    9.6606 C   0  0  2  0  0  0  0  0  0  0  0  0
   -0.3046   11.8557    9.4358 H   0  0  0  0  0  0  0  0  0  0  0  0
    1.4191   10.5998    9.4774 C   0  0  0  0  0  0  0  0  0  0  0  0
    2.4932   10.6430    9.6457 H   0  0  0  0  0  0  0  0  0  0  0  0
    1.2445   10.2239    8.4732 H   0  0  0  0  0  0  0  0  0  0  0  0
    0.9689    9.8921   10.1826 H   0  0  0  0  0  0  0  0  0  0  0  0
    1.2969   13.0632    8.6803 C   0  0  0  0  0  0  0  0  0  0  0  0
    2.7684   13.3965    8.9301 C   0  0  0  0  0  0  0  0  0  0  0  0
    3.3999   12.5202    8.8082 H   0  0  0  0  0  0  0  0  0  0  0  0
    2.9063   13.7977    9.9305 H   0  0  0  0  0  0  0  0  0  0  0  0
    3.0989   14.1472    8.2158 H   0  0  0  0  0  0  0  0  0  0  0  0
    1.1262   12.5895    7.2335 C   0  0  0  0  0  0  0  0  0  0  0  0
    1.3177   13.4141    6.5503 H   0  0  0  0  0  0  0  0  0  0  0  0
    0.1129   12.2343    7.0606 H   0  0  0  0  0  0  0  0  0  0  0  0
    1.8224   11.7909    6.9923 H   0  0  0  0  0  0  0  0  0  0  0  0
    0.4682   14.3373    8.8737 C   0  0  0  0  0  0  0  0  0  0  0  0
    0.5795   14.7198    9.8849 H   0  0  0  0  0  0  0  0  0  0  0  0
   -0.5857   14.1407    8.6907 H   0  0  0  0  0  0  0  0  0  0  0  0
    0.7963   15.1079    8.1797 H   0  0  0  0  0  0  0  0  0  0  0  0
    0.5390    8.8110   14.2363 C   0  0  1  0  0  0  0  0  0  0  0  0
    0.9851    8.5215   12.9203 C   0  0  0  0  0  0  0  0  0  0  0  0
    0.5631    7.7829   12.2489 H   0  0  0  0  0  0  0  0  0  0  0  0
    2.1771    9.2520   12.6838 C   0  0  0  0  0  0  0  0  0  0  0  0
    2.8337    9.1241   11.8322 H   0  0  0  0  0  0  0  0  0  0  0  0
    2.4721    9.9934   13.8487 C   0  0  0  0  0  0  0  0  0  0  0  0
    3.3819   10.5510   14.0317 H   0  0  0  0  0  0  0  0  0  0  0  0
    1.4531    9.7463   14.7934 C   0  0  0  0  0  0  0  0  0  0  0  0
    1.4299   10.1118   15.8137 H   0  0  0  0  0  0  0  0  0  0  0  0
   -0.5990    8.1583   14.9844 C   0  0  1  0  0  0  0  0  0  0  0  0
   -0.8759    8.8262   15.8115 H   0  0  0  0  0  0  0  0  0  0  0  0
   -1.8280    8.0210   14.0799 C   0  0  0  0  0  0  0  0  0  0  0  0
   -2.1220    9.0080   13.7176 H   0  0  0  0  0  0  0  0  0  0  0  0
   -2.6684    7.6105   14.6319 H   0  0  0  0  0  0  0  0  0  0  0  0
   -1.6305    7.3827   13.2216 H   0  0  0  0  0  0  0  0  0  0  0  0
   -0.1490    6.8154   15.6391 C   0  0  0  0  0  0  0  0  0  0  0  0
   -1.3130    6.2061   16.4272 C   0  0  0  0  0  0  0  0  0  0  0  0
   -0.9536    5.3802   17.0376 H   0  0  0  0  0  0  0  0  0  0  0  0
   -2.0804    5.8182   15.7635 H   0  0  0  0  0  0  0  0  0  0  0  0
   -1.7621    6.9455   17.0865 H   0  0  0  0  0  0  0  0  0  0  0  0
    0.9955    7.1011   16.6173 C   0  0  0  0  0  0  0  0  0  0  0  0
    1.2972    6.1840   17.1187 H   0  0  0  0  0  0  0  0  0  0  0  0
    0.6827    7.8157   17.3755 H   0  0  0  0  0  0  0  0  0  0  0  0
    1.8603    7.5024   16.0954 H   0  0  0  0  0  0  0  0  0  0  0  0
    0.3374    5.8040   14.6003 C   0  0  0  0  0  0  0  0  0  0  0  0
    1.2120    6.1809   14.0765 H   0  0  0  0  0  0  0  0  0  0  0  0
   -0.4399    5.5804   13.8749 H   0  0  0  0  0  0  0  0  0  0  0  0
    0.6121    4.8748   15.0948 H   0  0  0  0  0  0  0  0  0  0  0  0
  1  2  1  0  0  0  0
  3  1  1  0  0  0  0
  4 11  1  0  0  0  0
  4  5  1  0  0  0  0
  4  1  1  1  0  0  0
  5  7  1  0  0  0  0
  6  5  1  0  0  0  0
  7  8  1  0  0  0  0
  9  7  2  0  0  0  0
  9 10  1  0  0  0  0
 11  9  1  0  0  0  0
 12 11  1  0  0  0  0
 13 14  1  6  0  0  0
 13  4  1  0  0  0  0
 15 16  1  0  0  0  0
 15 13  1  0  0  0  0
 15 18  1  0  0  0  0
 17 15  1  0  0  0  0
 19 28  1  0  0  0  0
 19 20  1  0  0  0  0
 19 13  1  0  0  0  0
 20 22  1  0  0  0  0
 21 20  1  0  0  0  0
 23 20  1  0  0  0  0
 24 19  1  0  0  0  0
 25 24  1  0  0  0  0
 26 24  1  0  0  0  0
 27 24  1  0  0  0  0
 28 29  1  0  0  0  0
 30 28  1  0  0  0  0
 31 28  1  0  0  0  0
 32  1  1  6  0  0  0
 32 39  1  0  0  0  0
 32 41  1  0  0  0  0
 33 32  1  0  0  0  0
 34 33  1  0  0  0  0
 35 33  2  0  0  0  0
 35 37  1  0  0  0  0
 36 35  1  0  0  0  0
 37 38  1  0  0  0  0
 37 39  2  0  0  0  0
 39 40  1  0  0  0  0
 41 47  1  0  0  0  0
 41 42  1  1  0  0  0
 43 45  1  0  0  0  0
 43 41  1  0  0  0  0
 44 43  1  0  0  0  0
 46 43  1  0  0  0  0
 47 48  1  0  0  0  0
 47 52  1  0  0  0  0
 48 49  1  0  0  0  0
 48 51  1  0  0  0  0
 50 48  1  0  0  0  0
 52 53  1  0  0  0  0
 52 54  1  0  0  0  0
 55 52  1  0  0  0  0
 56 59  1  0  0  0  0
 56 47  1  0  0  0  0
 57 56  1  0  0  0  0
 58 56  1  0  0  0  0
M  END
$$$$
