CSD_code = MIVJEG | q = 0 | S = 0 | Stoichiometry = C21H26ClHgN3S2 | MND = 5
 OpenBabel04212202073D

 54 56  0  0  0  0  0  0  0  0999 V2000
    3.3016    0.5863    3.1057 Hg  0  0  0  0  0  0  0  0  0  0  0  0
    3.6119    2.8121    2.7065 Cl  0  0  0  0  0  0  0  0  0  0  0  0
    3.3493   -1.6278    1.7772 S   0  0  0  0  0  0  0  0  0  0  0  0
    4.4830   -1.2516    4.4820 S   0  0  0  0  0  0  0  0  0  0  0  0
    4.4692   -3.5507    3.1904 N   0  0  0  0  0  0  0  0  0  0  0  0
    0.8493    0.8545    2.5525 N   0  0  0  0  0  0  0  0  0  0  0  0
    1.8329    1.1595    5.0838 N   0  0  0  0  0  0  0  0  0  0  0  0
    4.1323   -2.2684    3.1541 C   0  0  0  0  0  3  0  0  0  0  0  0
    4.2067   -4.4320    2.0713 C   0  0  0  0  0  0  0  0  0  0  0  0
    4.9668   -5.2165    2.0736 H   0  0  0  0  0  0  0  0  0  0  0  0
    4.2963   -3.8591    1.1449 H   0  0  0  0  0  0  0  0  0  0  0  0
    2.8086   -5.0474    2.1547 C   0  0  0  0  0  0  0  0  0  0  0  0
    2.7027   -5.5843    3.1006 H   0  0  0  0  0  0  0  0  0  0  0  0
    2.0733   -4.2412    2.1408 H   0  0  0  0  0  0  0  0  0  0  0  0
    2.5473   -5.9990    0.9912 C   0  0  0  0  0  0  0  0  0  0  0  0
    3.2906   -6.7999    1.0026 H   0  0  0  0  0  0  0  0  0  0  0  0
    2.6599   -5.4535    0.0524 H   0  0  0  0  0  0  0  0  0  0  0  0
    1.1501   -6.6017    1.0639 C   0  0  0  0  0  0  0  0  0  0  0  0
    0.9812   -7.2765    0.2283 H   0  0  0  0  0  0  0  0  0  0  0  0
    0.3971   -5.8178    1.0310 H   0  0  0  0  0  0  0  0  0  0  0  0
    1.0218   -7.1609    1.9883 H   0  0  0  0  0  0  0  0  0  0  0  0
    5.1293   -4.1280    4.3437 C   0  0  0  0  0  0  0  0  0  0  0  0
    4.8401   -5.1786    4.3989 H   0  0  0  0  0  0  0  0  0  0  0  0
    4.7776   -3.6142    5.2417 H   0  0  0  0  0  0  0  0  0  0  0  0
    6.6500   -3.9862    4.2412 C   0  0  0  0  0  0  0  0  0  0  0  0
    6.8799   -2.9278    4.1060 H   0  0  0  0  0  0  0  0  0  0  0  0
    7.0086   -4.5247    3.3607 H   0  0  0  0  0  0  0  0  0  0  0  0
    7.3731   -4.4959    5.4862 C   0  0  0  0  0  0  0  0  0  0  0  0
    8.4304   -4.2386    5.3962 H   0  0  0  0  0  0  0  0  0  0  0  0
    6.9804   -3.9785    6.3634 H   0  0  0  0  0  0  0  0  0  0  0  0
    7.2477   -6.0026    5.6813 C   0  0  0  0  0  0  0  0  0  0  0  0
    7.8636   -6.3243    6.5177 H   0  0  0  0  0  0  0  0  0  0  0  0
    7.5801   -6.5321    4.7907 H   0  0  0  0  0  0  0  0  0  0  0  0
    6.2205   -6.2890    5.8920 H   0  0  0  0  0  0  0  0  0  0  0  0
    0.3797    0.6989    1.3354 C   0  0  0  0  0  0  0  0  0  0  0  0
    0.9264    0.0151    0.6977 H   0  0  0  0  0  0  0  0  0  0  0  0
   -0.7597    1.3594    0.8647 C   0  0  0  0  0  0  0  0  0  0  0  0
   -1.0948    1.1973   -0.1476 H   0  0  0  0  0  0  0  0  0  0  0  0
   -1.4242    2.2133    1.7092 C   0  0  0  0  0  0  0  0  0  0  0  0
   -2.3040    2.7511    1.3850 H   0  0  0  0  0  0  0  0  0  0  0  0
   -0.9496    2.3913    3.0196 C   0  0  0  0  0  0  0  0  0  0  0  0
   -1.5877    3.2561    3.9541 C   0  0  0  0  0  0  0  0  0  0  0  0
   -2.4683    3.7926    3.6319 H   0  0  0  0  0  0  0  0  0  0  0  0
   -1.1023    3.4050    5.2088 C   0  0  0  0  0  0  0  0  0  0  0  0
   -1.5845    4.0635    5.9165 H   0  0  0  0  0  0  0  0  0  0  0  0
    0.0619    2.7023    5.6321 C   0  0  0  0  0  0  0  0  0  0  0  0
    0.5954    2.8346    6.9252 C   0  0  0  0  0  0  0  0  0  0  0  0
    0.1139    3.4938    7.6337 H   0  0  0  0  0  0  0  0  0  0  0  0
    1.7201    2.1242    7.2632 C   0  0  0  0  0  0  0  0  0  0  0  0
    2.1576    2.1999    8.2461 H   0  0  0  0  0  0  0  0  0  0  0  0
    2.3071    1.2956    6.3016 C   0  0  0  0  0  0  0  0  0  0  0  0
    3.1936    0.7188    6.5349 H   0  0  0  0  0  0  0  0  0  0  0  0
    0.7284    1.8393    4.7331 C   0  0  0  0  0  0  0  0  0  0  0  0
    0.2108    1.6797    3.3988 C   0  0  0  0  0  0  0  0  0  0  0  0
  1  4  1  0  0  0  0
  2  1  1  0  0  0  0
  3  1  1  0  0  0  0
  3  8  1  0  0  0  0
  5 22  1  0  0  0  0
  6 54  1  0  0  0  0
  7 51  1  0  0  0  0
  8  5  1  0  0  0  0
  8  4  1  0  0  0  0
  9 10  1  0  0  0  0
  9 12  1  0  0  0  0
  9  5  1  0  0  0  0
 11  9  1  0  0  0  0
 12 13  1  0  0  0  0
 14 12  1  0  0  0  0
 15 16  1  0  0  0  0
 15 18  1  0  0  0  0
 15 12  1  0  0  0  0
 17 15  1  0  0  0  0
 18 21  1  0  0  0  0
 19 18  1  0  0  0  0
 20 18  1  0  0  0  0
 22 23  1  0  0  0  0
 22 24  1  0  0  0  0
 25 22  1  0  0  0  0
 25 28  1  0  0  0  0
 26 25  1  0  0  0  0
 27 25  1  0  0  0  0
 28 31  1  0  0  0  0
 28 30  1  0  0  0  0
 29 28  1  0  0  0  0
 31 34  1  0  0  0  0
 31 32  1  0  0  0  0
 33 31  1  0  0  0  0
 35  6  2  0  0  0  0
 36 35  1  0  0  0  0
 37 35  1  0  0  0  0
 37 39  2  0  0  0  0
 38 37  1  0  0  0  0
 39 41  1  0  0  0  0
 40 39  1  0  0  0  0
 41 54  2  0  0  0  0
 41 42  1  0  0  0  0
 42 44  2  0  0  0  0
 43 42  1  0  0  0  0
 44 46  1  0  0  0  0
 44 45  1  0  0  0  0
 46 47  2  0  0  0  0
 47 49  1  0  0  0  0
 47 48  1  0  0  0  0
 49 50  1  0  0  0  0
 51 52  1  0  0  0  0
 51 49  2  0  0  0  0
 53  7  2  0  0  0  0
 53 46  1  0  0  0  0
 54 53  1  0  0  0  0
M  END
$$$$
