CSD_code = MIVRUG | q = 0 | S = 0 | Stoichiometry = C32H21IN4Pt | MND = 4
 OpenBabel04212202073D

 59 67  0  0  1  0  0  0  0  0999 V2000
    0.1835    5.2515    6.8630 Pt  0  0  1  0  0  0  0  0  0  0  0  0
   -2.2499    5.8075    6.1965 I   0  0  0  0  0  0  0  0  0  0  0  0
    1.0686    7.1105    6.6511 N   0  0  0  0  0  0  0  0  0  0  0  0
    2.9054    8.3471    6.9222 N   0  0  0  0  0  0  0  0  0  0  0  0
    0.0131    3.2309    7.2751 N   0  0  0  0  0  0  0  0  0  0  0  0
    1.0644    1.3360    7.8041 N   0  0  0  0  0  0  0  0  0  0  0  0
    2.0169    4.8321    7.3562 C   0  0  0  0  0  0  0  0  0  0  0  0
    2.9712    5.8529    7.3826 C   0  0  0  0  0  0  0  0  0  0  0  0
    4.2905    5.5443    7.7078 C   0  0  0  0  0  0  0  0  0  0  0  0
    5.0636    6.2980    7.7037 H   0  0  0  0  0  0  0  0  0  0  0  0
    4.6121    4.2365    8.0420 C   0  0  0  0  0  0  0  0  0  0  0  0
    5.6318    4.0026    8.3108 H   0  0  0  0  0  0  0  0  0  0  0  0
    3.6684    3.2192    8.0431 C   0  0  0  0  0  0  0  0  0  0  0  0
    3.9627    2.2203    8.3286 H   0  0  0  0  0  0  0  0  0  0  0  0
    2.3577    3.5143    7.6739 C   0  0  0  0  0  0  0  0  0  0  0  0
    2.3583    7.1070    7.0143 C   0  0  2  0  0  3  0  0  0  0  0  0
    0.7595    8.4040    6.2961 C   0  0  0  0  0  0  0  0  0  0  0  0
   -0.4117    9.0013    5.8353 C   0  0  0  0  0  0  0  0  0  0  0  0
   -1.3103    8.4287    5.6891 H   0  0  0  0  0  0  0  0  0  0  0  0
   -0.3861   10.3543    5.5739 C   0  0  0  0  0  0  0  0  0  0  0  0
   -1.2840   10.8340    5.2163 H   0  0  0  0  0  0  0  0  0  0  0  0
    0.7627   11.1241    5.7625 C   0  0  0  0  0  0  0  0  0  0  0  0
    0.7320   12.1825    5.5526 H   0  0  0  0  0  0  0  0  0  0  0  0
    1.9361   10.5557    6.2127 C   0  0  0  0  0  0  0  0  0  0  0  0
    2.8300   11.1406    6.3680 H   0  0  0  0  0  0  0  0  0  0  0  0
    1.9185    9.1930    6.4635 C   0  0  0  0  0  0  0  0  0  0  0  0
    4.1991    8.7649    7.2973 C   0  0  0  0  0  0  0  0  0  0  0  0
    5.0305    9.3531    6.3530 C   0  0  0  0  0  0  0  0  0  0  0  0
    4.6917    9.4551    5.3328 H   0  0  0  0  0  0  0  0  0  0  0  0
    6.2877    9.7923    6.7291 C   0  0  0  0  0  0  0  0  0  0  0  0
    6.9365   10.2460    5.9953 H   0  0  0  0  0  0  0  0  0  0  0  0
    6.7130    9.6482    8.0391 C   0  0  0  0  0  0  0  0  0  0  0  0
    7.6949    9.9906    8.3281 H   0  0  0  0  0  0  0  0  0  0  0  0
    5.8782    9.0668    8.9800 C   0  0  0  0  0  0  0  0  0  0  0  0
    6.2061    8.9589   10.0027 H   0  0  0  0  0  0  0  0  0  0  0  0
    4.6183    8.6281    8.6156 C   0  0  0  0  0  0  0  0  0  0  0  0
    3.9580    8.1774    9.3416 H   0  0  0  0  0  0  0  0  0  0  0  0
    1.1915    2.6692    7.5770 C   0  0  0  0  0  0  0  0  0  0  0  0
   -0.2695    1.0238    7.6525 C   0  0  0  0  0  0  0  0  0  0  0  0
   -0.9350   -0.1871    7.7563 C   0  0  0  0  0  0  0  0  0  0  0  0
   -0.4058   -1.0963    7.9988 H   0  0  0  0  0  0  0  0  0  0  0  0
   -2.2961   -0.1740    7.5330 C   0  0  0  0  0  0  0  0  0  0  0  0
   -2.8548   -1.0947    7.6058 H   0  0  0  0  0  0  0  0  0  0  0  0
   -2.9636    1.0095    7.2141 C   0  0  0  0  0  0  0  0  0  0  0  0
   -4.0295    0.9807    7.0492 H   0  0  0  0  0  0  0  0  0  0  0  0
   -2.3035    2.2138    7.0980 C   0  0  0  0  0  0  0  0  0  0  0  0
   -2.8370    3.1127    6.8451 H   0  0  0  0  0  0  0  0  0  0  0  0
   -0.9274    2.2267    7.3151 C   0  0  0  0  0  0  0  0  0  0  0  0
    2.0769    0.3874    8.0584 C   0  0  0  0  0  0  0  0  0  0  0  0
    3.0733    0.1652    7.1150 C   0  0  0  0  0  0  0  0  0  0  0  0
    3.0824    0.7426    6.2023 H   0  0  0  0  0  0  0  0  0  0  0  0
    4.0427   -0.7905    7.3590 C   0  0  0  0  0  0  0  0  0  0  0  0
    4.8179   -0.9635    6.6279 H   0  0  0  0  0  0  0  0  0  0  0  0
    4.0152   -1.5276    8.5319 C   0  0  0  0  0  0  0  0  0  0  0  0
    4.7725   -2.2740    8.7173 H   0  0  0  0  0  0  0  0  0  0  0  0
    3.0159   -1.3092    9.4655 C   0  0  0  0  0  0  0  0  0  0  0  0
    2.9932   -1.8832   10.3794 H   0  0  0  0  0  0  0  0  0  0  0  0
    2.0429   -0.3532    9.2328 C   0  0  0  0  0  0  0  0  0  0  0  0
    1.2624   -0.1715    9.9565 H   0  0  0  0  0  0  0  0  0  0  0  0
  1  2  1  6  0  0  0
  1  5  1  0  0  0  0
  1  7  2  0  0  0  0
  3  1  1  0  0  0  0
  3 16  1  0  0  0  0
  4 16  1  0  0  0  0
  4 27  1  0  0  0  0
  5 48  1  0  0  0  0
  5 38  1  0  0  0  0
  6 49  1  0  0  0  0
  7  8  1  0  0  0  0
  7 15  1  0  0  0  0
  8  9  2  0  0  0  0
  9 11  1  0  0  0  0
 10  9  1  0  0  0  0
 11 13  2  0  0  0  0
 11 12  1  0  0  0  0
 13 14  1  0  0  0  0
 15 13  1  0  0  0  0
 16  8  1  6  0  0  0
 17 26  1  0  0  0  0
 17  3  1  0  0  0  0
 18 17  2  0  0  0  0
 19 18  1  0  0  0  0
 20 22  2  0  0  0  0
 20 18  1  0  0  0  0
 21 20  1  0  0  0  0
 22 24  1  0  0  0  0
 23 22  1  0  0  0  0
 24 25  1  0  0  0  0
 24 26  2  0  0  0  0
 26  4  1  0  0  0  0
 27 36  1  0  0  0  0
 28 30  1  0  0  0  0
 28 27  2  0  0  0  0
 29 28  1  0  0  0  0
 30 32  2  0  0  0  0
 31 30  1  0  0  0  0
 32 33  1  0  0  0  0
 32 34  1  0  0  0  0
 34 35  1  0  0  0  0
 36 34  2  0  0  0  0
 36 37  1  0  0  0  0
 38 15  2  0  0  0  0
 38  6  1  0  0  0  0
 39 40  1  0  0  0  0
 39  6  1  0  0  0  0
 40 41  1  0  0  0  0
 42 43  1  0  0  0  0
 42 40  2  0  0  0  0
 44 42  1  0  0  0  0
 45 44  1  0  0  0  0
 46 44  2  0  0  0  0
 46 48  1  0  0  0  0
 47 46  1  0  0  0  0
 48 39  2  0  0  0  0
 49 58  1  0  0  0  0
 50 52  1  0  0  0  0
 50 49  2  0  0  0  0
 51 50  1  0  0  0  0
 52 54  2  0  0  0  0
 53 52  1  0  0  0  0
 54 55  1  0  0  0  0
 54 56  1  0  0  0  0
 56 57  1  0  0  0  0
 58 56  2  0  0  0  0
 58 59  1  0  0  0  0
M  END
$$$$
