CSD_code = MIVROA | q = 0 | S = 0 | Stoichiometry = C32H21ClN4Pt | MND = 4
 OpenBabel04212202073D

 59 67  0  0  1  0  0  0  0  0999 V2000
    3.6947    1.7396    7.3869 Pt  0  0  1  0  0  0  0  0  0  0  0  0
    5.8528    1.1584    6.8552 Cl  0  0  0  0  0  0  0  0  0  0  0  0
    3.1659    2.7018    5.6913 N   0  0  0  0  0  0  0  0  0  0  0  0
    1.6109    3.8161    4.5498 N   0  0  0  0  0  0  0  0  0  0  0  0
    3.5570    0.9213    9.2277 N   0  0  0  0  0  0  0  0  0  0  0  0
    2.3202    0.5105   11.0341 N   0  0  0  0  0  0  0  0  0  0  0  0
    1.8661    2.2035    7.8232 C   0  0  0  0  0  0  0  0  0  0  0  0
    1.0929    2.8797    6.8711 C   0  0  0  0  0  0  0  0  0  0  0  0
   -0.2560    3.1045    7.1384 C   0  0  0  0  0  0  0  0  0  0  0  0
   -0.9005    3.5982    6.4261 H   0  0  0  0  0  0  0  0  0  0  0  0
   -0.7844    2.6578    8.3428 C   0  0  0  0  0  0  0  0  0  0  0  0
   -1.8331    2.8239    8.5416 H   0  0  0  0  0  0  0  0  0  0  0  0
   -0.0223    1.9963    9.2975 C   0  0  0  0  0  0  0  0  0  0  0  0
   -0.4920    1.6553   10.2083 H   0  0  0  0  0  0  0  0  0  0  0  0
    1.3283    1.7686    9.0412 C   0  0  0  0  0  0  0  0  0  0  0  0
    1.9089    3.1701    5.7111 C   0  0  1  0  0  3  0  0  0  0  0  0
    3.7070    3.0430    4.4800 C   0  0  0  0  0  0  0  0  0  0  0  0
    4.9687    2.8086    3.9410 C   0  0  0  0  0  0  0  0  0  0  0  0
    5.7084    2.2671    4.5093 H   0  0  0  0  0  0  0  0  0  0  0  0
    5.2156    3.2951    2.6754 C   0  0  0  0  0  0  0  0  0  0  0  0
    6.1821    3.1301    2.2243 H   0  0  0  0  0  0  0  0  0  0  0  0
    4.2490    4.0049    1.9584 C   0  0  0  0  0  0  0  0  0  0  0  0
    4.4909    4.3749    0.9734 H   0  0  0  0  0  0  0  0  0  0  0  0
    2.9931    4.2471    2.4782 C   0  0  0  0  0  0  0  0  0  0  0  0
    2.2498    4.8039    1.9280 H   0  0  0  0  0  0  0  0  0  0  0  0
    2.7303    3.7469    3.7442 C   0  0  0  0  0  0  0  0  0  0  0  0
    0.4359    4.5250    4.2303 C   0  0  0  0  0  0  0  0  0  0  0  0
   -0.2651    4.2116    3.0726 C   0  0  0  0  0  0  0  0  0  0  0  0
    0.0769    3.4030    2.4442 H   0  0  0  0  0  0  0  0  0  0  0  0
   -1.4006    4.9313    2.7451 C   0  0  0  0  0  0  0  0  0  0  0  0
   -1.9476    4.6865    1.8472 H   0  0  0  0  0  0  0  0  0  0  0  0
   -1.8363    5.9581    3.5660 C   0  0  0  0  0  0  0  0  0  0  0  0
   -2.7229    6.5166    3.3072 H   0  0  0  0  0  0  0  0  0  0  0  0
   -1.1333    6.2700    4.7185 C   0  0  0  0  0  0  0  0  0  0  0  0
   -1.4688    7.0728    5.3575 H   0  0  0  0  0  0  0  0  0  0  0  0
    0.0055    5.5602    5.0527 C   0  0  0  0  0  0  0  0  0  0  0  0
    0.5655    5.7990    5.9444 H   0  0  0  0  0  0  0  0  0  0  0  0
    2.3551    1.0868    9.8007 C   0  0  0  0  0  0  0  0  0  0  0  0
    3.5594   -0.0568   11.2562 C   0  0  0  0  0  0  0  0  0  0  0  0
    4.0837   -0.7403   12.3426 C   0  0  0  0  0  0  0  0  0  0  0  0
    3.4941   -0.9271   13.2273 H   0  0  0  0  0  0  0  0  0  0  0  0
    5.3941   -1.1633   12.2418 C   0  0  0  0  0  0  0  0  0  0  0  0
    5.8380   -1.7013   13.0659 H   0  0  0  0  0  0  0  0  0  0  0  0
    6.1612   -0.9105   11.1017 C   0  0  0  0  0  0  0  0  0  0  0  0
    7.1807   -1.2633   11.0710 H   0  0  0  0  0  0  0  0  0  0  0  0
    5.6528   -0.2192   10.0233 C   0  0  0  0  0  0  0  0  0  0  0  0
    6.2362   -0.0099    9.1405 H   0  0  0  0  0  0  0  0  0  0  0  0
    4.3329    0.2146   10.1080 C   0  0  0  0  0  0  0  0  0  0  0  0
    1.2695    0.5282   11.9729 C   0  0  0  0  0  0  0  0  0  0  0  0
    0.7580    1.7400   12.4229 C   0  0  0  0  0  0  0  0  0  0  0  0
    1.1581    2.6641   12.0333 H   0  0  0  0  0  0  0  0  0  0  0  0
   -0.2563    1.7464   13.3631 C   0  0  0  0  0  0  0  0  0  0  0  0
   -0.6556    2.6869   13.7114 H   0  0  0  0  0  0  0  0  0  0  0  0
   -0.7531    0.5528   13.8614 C   0  0  0  0  0  0  0  0  0  0  0  0
   -1.5430    0.5624   14.5969 H   0  0  0  0  0  0  0  0  0  0  0  0
   -0.2350   -0.6525   13.4176 C   0  0  0  0  0  0  0  0  0  0  0  0
   -0.6210   -1.5834   13.8045 H   0  0  0  0  0  0  0  0  0  0  0  0
    0.7763   -0.6702   12.4736 C   0  0  0  0  0  0  0  0  0  0  0  0
    1.1802   -1.6047   12.1141 H   0  0  0  0  0  0  0  0  0  0  0  0
  1  2  1  1  0  0  0
  1  7  2  0  0  0  0
  1  5  1  0  0  0  0
  3 16  1  0  0  0  0
  3  1  1  0  0  0  0
  4 16  1  0  0  0  0
  5 38  1  0  0  0  0
  5 48  1  0  0  0  0
  6 39  1  0  0  0  0
  6 49  1  0  0  0  0
  7 15  1  0  0  0  0
  8  9  2  0  0  0  0
  8  7  1  0  0  0  0
  9 11  1  0  0  0  0
 10  9  1  0  0  0  0
 11 12  1  0  0  0  0
 11 13  2  0  0  0  0
 13 14  1  0  0  0  0
 15 13  1  0  0  0  0
 15 38  2  0  0  0  0
 16  8  1  6  0  0  0
 17  3  1  0  0  0  0
 18 17  1  0  0  0  0
 18 19  1  0  0  0  0
 20 18  2  0  0  0  0
 21 20  1  0  0  0  0
 22 24  2  0  0  0  0
 22 20  1  0  0  0  0
 23 22  1  0  0  0  0
 24 26  1  0  0  0  0
 25 24  1  0  0  0  0
 26 17  2  0  0  0  0
 26  4  1  0  0  0  0
 27  4  1  0  0  0  0
 27 36  1  0  0  0  0
 28 27  2  0  0  0  0
 29 28  1  0  0  0  0
 30 28  1  0  0  0  0
 30 32  2  0  0  0  0
 31 30  1  0  0  0  0
 32 34  1  0  0  0  0
 33 32  1  0  0  0  0
 34 36  2  0  0  0  0
 34 35  1  0  0  0  0
 36 37  1  0  0  0  0
 38  6  1  0  0  0  0
 39 40  1  0  0  0  0
 40 41  1  0  0  0  0
 42 40  2  0  0  0  0
 42 43  1  0  0  0  0
 44 42  1  0  0  0  0
 45 44  1  0  0  0  0
 46 48  1  0  0  0  0
 46 44  2  0  0  0  0
 47 46  1  0  0  0  0
 48 39  2  0  0  0  0
 49 50  2  0  0  0  0
 49 58  1  0  0  0  0
 50 52  1  0  0  0  0
 51 50  1  0  0  0  0
 52 53  1  0  0  0  0
 52 54  2  0  0  0  0
 54 55  1  0  0  0  0
 56 57  1  0  0  0  0
 56 54  1  0  0  0  0
 58 56  2  0  0  0  0
 59 58  1  0  0  0  0
M  END
$$$$
