CSD_code = MIVSOZ | q = -1 | S = 0 | Stoichiometry = C6H6Cl3N2O2Ru(1-) | MND = 6
 OpenBabel04212202073D

 20 20  0  0  1  0  0  0  0  0999 V2000
   11.4654    5.8722    2.0249 Ru  0  0  0  0  0  0  0  0  0  0  0  0
   12.8713    4.4154    0.7184 Cl  0  0  0  0  0  0  0  0  0  0  0  0
   12.5695    7.7719    1.1430 Cl  0  0  0  0  0  0  0  0  0  0  0  0
    9.9622    7.3673    3.1938 Cl  0  0  0  0  0  0  0  0  0  0  0  0
   13.5445    6.1803    4.1417 O   0  0  0  0  0  1  0  0  0  0  0  0
   10.1335    3.4768    3.2101 O   0  0  0  0  0  1  0  0  0  0  0  0
   10.2047    5.9739    0.3310 N   0  0  0  0  0  0  0  0  0  0  0  0
    8.5589    6.2175   -1.0802 N   0  0  0  0  0  0  0  0  0  0  0  0
    7.6214    6.2879   -1.4398 H   0  0  0  0  0  0  0  0  0  0  0  0
   12.7232    6.0123    3.3636 C   0  0  0  0  0  2  0  0  0  0  0  0
   10.6281    4.4009    2.7342 C   0  0  0  0  0  2  0  0  0  0  0  0
   10.7308    6.2404   -0.8996 C   0  0  0  0  0  0  0  0  0  0  0  0
   11.7926    6.2980   -1.0508 H   0  0  0  0  0  0  0  0  0  0  0  0
    9.7178    6.3986   -1.7911 C   0  0  0  0  0  0  0  0  0  0  0  0
    9.7189    6.6214   -2.8377 H   0  0  0  0  0  0  0  0  0  0  0  0
    8.8949    5.9631    0.2052 C   0  0  1  0  0  3  0  0  0  0  0  0
    7.8981    5.6892    1.2668 C   0  0  0  0  0  0  0  0  0  0  0  0
    8.1315    6.3048    2.1400 H   0  0  0  0  0  0  0  0  0  0  0  0
    7.9513    4.6443    1.5734 H   0  0  0  0  0  0  0  0  0  0  0  0
    6.8932    5.9098    0.9129 H   0  0  0  0  0  0  0  0  0  0  0  0
  1 11  1  0  0  0  0
  1  4  1  0  0  0  0
  1 10  1  0  0  0  0
  2  1  1  0  0  0  0
  3  1  1  0  0  0  0
  7  1  1  0  0  0  0
  8 16  1  0  0  0  0
  9  8  1  0  0  0  0
 10  5  1  0  0  0  0
 11  6  1  0  0  0  0
 12  7  1  0  0  0  0
 13 12  1  0  0  0  0
 14  8  1  0  0  0  0
 14 12  2  0  0  0  0
 15 14  1  0  0  0  0
 16  7  1  0  0  0  0
 16 17  1  6  0  0  0
 17 19  1  0  0  0  0
 17 18  1  0  0  0  0
 20 17  1  0  0  0  0
M  END
$$$$
