CSD_code = MIXJEL | q = 0 | S = 0 | Stoichiometry = C34H27Br2NOP2Pt | MND = 4
 OpenBabel04212202073D

 68 73  0  0  1  0  0  0  0  0999 V2000
    2.9509    3.9929   12.6139 Pt  0  0  0  0  0  0  0  0  0  0  0  0
    1.1935    2.6841   11.5756 Br  0  0  0  0  0  0  0  0  0  0  0  0
    4.1411    1.9760   13.2387 Br  0  0  0  0  0  0  0  0  0  0  0  0
    1.6511    5.8146   12.1941 P   0  0  0  0  0  4  0  0  0  0  0  0
    3.6870    6.6985   14.0976 P   0  0  0  0  0  4  0  0  0  0  0  0
    4.2746    6.7523   11.9367 O   0  0  0  0  0  0  0  0  0  0  0  0
    8.4434    2.4227    7.4357 N   0  0  0  0  0  0  0  0  0  0  0  0
    4.4608    5.1808   13.5322 C   0  0  2  0  0  0  0  0  0  0  0  0
    5.1104    4.6206   14.1997 H   0  0  0  0  0  0  0  0  0  0  0  0
    4.7630    5.6011   12.1938 C   0  0  0  0  0  0  0  0  0  0  0  0
    5.5721    4.8822   11.2038 C   0  0  0  0  0  0  0  0  0  0  0  0
    6.4307    3.8361   11.5551 C   0  0  0  0  0  0  0  0  0  0  0  0
    6.5204    3.5199   12.5820 H   0  0  0  0  0  0  0  0  0  0  0  0
    7.1689    3.1926   10.5847 C   0  0  0  0  0  0  0  0  0  0  0  0
    7.8207    2.3747   10.8513 H   0  0  0  0  0  0  0  0  0  0  0  0
    7.0692    3.5934    9.2508 C   0  0  0  0  0  0  0  0  0  0  0  0
    6.2377    4.6589    8.8978 C   0  0  0  0  0  0  0  0  0  0  0  0
    6.1764    4.9718    7.8659 H   0  0  0  0  0  0  0  0  0  0  0  0
    5.5056    5.3014    9.8707 C   0  0  0  0  0  0  0  0  0  0  0  0
    4.8621    6.1324    9.6234 H   0  0  0  0  0  0  0  0  0  0  0  0
    7.8260    2.9376    8.2528 C   0  0  0  0  0  0  0  0  0  0  0  0
    4.8714    8.0367   14.3323 C   0  0  0  0  0  0  0  0  0  0  0  0
    4.8862    9.1904   13.5618 C   0  0  0  0  0  0  0  0  0  0  0  0
    4.1597    9.3252   12.7752 H   0  0  0  0  0  0  0  0  0  0  0  0
    5.8555   10.1504   13.7931 C   0  0  0  0  0  0  0  0  0  0  0  0
    5.8703   11.0512   13.1979 H   0  0  0  0  0  0  0  0  0  0  0  0
    6.8085    9.9568   14.7801 C   0  0  0  0  0  0  0  0  0  0  0  0
    7.5627   10.7092   14.9548 H   0  0  0  0  0  0  0  0  0  0  0  0
    6.8017    8.7967   15.5393 C   0  0  0  0  0  0  0  0  0  0  0  0
    7.5499    8.6430   16.3023 H   0  0  0  0  0  0  0  0  0  0  0  0
    5.8349    7.8348   15.3166 C   0  0  0  0  0  0  0  0  0  0  0  0
    5.8129    6.9256   15.9040 H   0  0  0  0  0  0  0  0  0  0  0  0
    3.0888    6.3027   15.7737 C   0  0  0  0  0  0  0  0  0  0  0  0
    2.8971    7.3173   16.7064 C   0  0  0  0  0  0  0  0  0  0  0  0
    3.1872    8.3300   16.4565 H   0  0  0  0  0  0  0  0  0  0  0  0
    2.3502    7.0295   17.9429 C   0  0  0  0  0  0  0  0  0  0  0  0
    2.2100    7.8192   18.6661 H   0  0  0  0  0  0  0  0  0  0  0  0
    1.9789    5.7298   18.2517 C   0  0  0  0  0  0  0  0  0  0  0  0
    1.5517    5.5073   19.2178 H   0  0  0  0  0  0  0  0  0  0  0  0
    2.1510    4.7181   17.3215 C   0  0  0  0  0  0  0  0  0  0  0  0
    1.8568    3.7063   17.5558 H   0  0  0  0  0  0  0  0  0  0  0  0
    2.7015    5.0031   16.0844 C   0  0  0  0  0  0  0  0  0  0  0  0
    2.8256    4.2042   15.3580 H   0  0  0  0  0  0  0  0  0  0  0  0
    2.1162    7.2316   13.3175 C   0  0  0  0  0  0  0  0  0  0  0  0
    2.2936    8.1355   12.7336 H   0  0  0  0  0  0  0  0  0  0  0  0
    1.3535    7.4005   14.0823 H   0  0  0  0  0  0  0  0  0  0  0  0
   -0.1090    5.6436   12.5994 C   0  0  0  0  0  0  0  0  0  0  0  0
   -1.1109    5.6973   11.6391 C   0  0  0  0  0  0  0  0  0  0  0  0
   -0.8608    5.8949   10.6066 H   0  0  0  0  0  0  0  0  0  0  0  0
   -2.4266    5.4801   12.0084 C   0  0  0  0  0  0  0  0  0  0  0  0
   -3.2042    5.5208   11.2606 H   0  0  0  0  0  0  0  0  0  0  0  0
   -2.7448    5.1960   13.3255 C   0  0  0  0  0  0  0  0  0  0  0  0
   -3.7720    5.0185   13.6062 H   0  0  0  0  0  0  0  0  0  0  0  0
   -1.7442    5.1203   14.2821 C   0  0  0  0  0  0  0  0  0  0  0  0
   -1.9880    4.8791   15.3060 H   0  0  0  0  0  0  0  0  0  0  0  0
   -0.4298    5.3383   13.9205 C   0  0  0  0  0  0  0  0  0  0  0  0
    0.3592    5.2530   14.6599 H   0  0  0  0  0  0  0  0  0  0  0  0
    1.6762    6.4924   10.5200 C   0  0  0  0  0  0  0  0  0  0  0  0
    1.1698    7.7558   10.2300 C   0  0  0  0  0  0  0  0  0  0  0  0
    0.7374    8.3621   11.0153 H   0  0  0  0  0  0  0  0  0  0  0  0
    1.2054    8.2240    8.9301 C   0  0  0  0  0  0  0  0  0  0  0  0
    0.8139    9.2047    8.7019 H   0  0  0  0  0  0  0  0  0  0  0  0
    1.7371    7.4374    7.9190 C   0  0  0  0  0  0  0  0  0  0  0  0
    1.7627    7.8106    6.9061 H   0  0  0  0  0  0  0  0  0  0  0  0
    2.2286    6.1747    8.2042 C   0  0  0  0  0  0  0  0  0  0  0  0
    2.6357    5.5582    7.4168 H   0  0  0  0  0  0  0  0  0  0  0  0
    2.1980    5.7010    9.5039 C   0  0  0  0  0  0  0  0  0  0  0  0
    2.5774    4.7125    9.7357 H   0  0  0  0  0  0  0  0  0  0  0  0
  1  3  1  0  0  0  0
  1  8  1  0  0  0  0
  2  1  1  0  0  0  0
  4 47  1  0  0  0  0
  4  1  1  0  0  0  0
  4 44  1  0  0  0  0
  5 22  1  0  0  0  0
  5 33  1  0  0  0  0
  6 10  2  0  0  0  0
  7 21  3  0  0  0  0
  8  5  1  0  0  0  0
  8  9  1  1  0  0  0
 10  8  1  0  0  0  0
 11 12  1  0  0  0  0
 11 10  1  0  0  0  0
 12 13  1  0  0  0  0
 14 15  1  0  0  0  0
 14 12  2  0  0  0  0
 16 14  1  0  0  0  0
 17 16  2  0  0  0  0
 17 19  1  0  0  0  0
 18 17  1  0  0  0  0
 19 11  2  0  0  0  0
 20 19  1  0  0  0  0
 21 16  1  0  0  0  0
 22 31  1  0  0  0  0
 23 25  1  0  0  0  0
 23 22  2  0  0  0  0
 24 23  1  0  0  0  0
 25 27  2  0  0  0  0
 26 25  1  0  0  0  0
 27 28  1  0  0  0  0
 27 29  1  0  0  0  0
 29 30  1  0  0  0  0
 31 29  2  0  0  0  0
 31 32  1  0  0  0  0
 33 42  2  0  0  0  0
 33 34  1  0  0  0  0
 34 36  2  0  0  0  0
 35 34  1  0  0  0  0
 36 38  1  0  0  0  0
 36 37  1  0  0  0  0
 38 39  1  0  0  0  0
 40 41  1  0  0  0  0
 40 38  2  0  0  0  0
 42 40  1  0  0  0  0
 43 42  1  0  0  0  0
 44 46  1  0  0  0  0
 44  5  1  0  0  0  0
 45 44  1  0  0  0  0
 47 56  1  0  0  0  0
 48 50  1  0  0  0  0
 48 47  2  0  0  0  0
 49 48  1  0  0  0  0
 50 52  2  0  0  0  0
 51 50  1  0  0  0  0
 52 53  1  0  0  0  0
 52 54  1  0  0  0  0
 54 55  1  0  0  0  0
 56 54  2  0  0  0  0
 56 57  1  0  0  0  0
 58  4  1  0  0  0  0
 59 58  1  0  0  0  0
 59 60  1  0  0  0  0
 61 59  2  0  0  0  0
 62 61  1  0  0  0  0
 63 65  2  0  0  0  0
 63 61  1  0  0  0  0
 64 63  1  0  0  0  0
 65 67  1  0  0  0  0
 66 65  1  0  0  0  0
 67 68  1  0  0  0  0
 67 58  2  0  0  0  0
M  END
$$$$
