CSD_code = MIXQOC | q = 1 | S = 0 | Stoichiometry = C12H9ClHgN3(1+) | MND = 2
 OpenBabel04212202073D

 26 28  0  0  1  0  0  0  0  0999 V2000
   -0.9210    0.6095   16.1709 Hg  0  0  0  0  0  0  0  0  0  0  0  0
   -2.8282    1.4722   16.9400 Cl  0  0  0  0  0  0  0  0  0  0  0  0
    1.8629   -1.2905   15.7161 N   0  0  0  0  0  0  0  0  0  0  0  0
    1.7366   -1.9129   16.5026 H   0  0  0  0  0  0  0  0  0  0  0  0
    1.6163    0.3916   14.3657 N   0  0  0  0  0  0  0  0  0  0  0  0
   -0.1796    1.8512   14.1182 N   0  0  0  0  0  0  0  0  0  0  0  0
    1.1364   -0.1944   15.4887 C   0  0  1  0  0  3  0  0  0  0  0  0
    2.8266   -1.4463   14.7434 C   0  0  0  0  0  0  0  0  0  0  0  0
    3.7911   -2.4256   14.5524 C   0  0  0  0  0  0  0  0  0  0  0  0
    3.9064   -3.2426   15.2456 H   0  0  0  0  0  0  0  0  0  0  0  0
    4.5806   -2.3093   13.4269 C   0  0  0  0  0  0  0  0  0  0  0  0
    5.3435   -3.0463   13.2344 H   0  0  0  0  0  0  0  0  0  0  0  0
    4.3960   -1.2672   12.5158 C   0  0  0  0  0  0  0  0  0  0  0  0
    5.0138   -1.2311   11.6327 H   0  0  0  0  0  0  0  0  0  0  0  0
    3.4421   -0.2858   12.7045 C   0  0  0  0  0  0  0  0  0  0  0  0
    3.2994    0.4841   11.9654 H   0  0  0  0  0  0  0  0  0  0  0  0
    2.6658   -0.3669   13.8551 C   0  0  0  0  0  0  0  0  0  0  0  0
    1.1083    1.6059   13.8572 C   0  0  0  0  0  0  0  0  0  0  0  0
    1.9111    2.4999   13.1609 C   0  0  0  0  0  0  0  0  0  0  0  0
    2.9661    2.3196   13.0412 H   0  0  0  0  0  0  0  0  0  0  0  0
    1.3290    3.6577   12.6660 C   0  0  0  0  0  0  0  0  0  0  0  0
    1.9269    4.3713   12.1207 H   0  0  0  0  0  0  0  0  0  0  0  0
   -0.0198    3.8858   12.8896 C   0  0  0  0  0  0  0  0  0  0  0  0
   -0.5086    4.7668   12.5080 H   0  0  0  0  0  0  0  0  0  0  0  0
   -0.7297    2.9636   13.6415 C   0  0  0  0  0  0  0  0  0  0  0  0
   -1.7766    3.1074   13.8700 H   0  0  0  0  0  0  0  0  0  0  0  0
  1  2  1  0  0  0  0
  3  4  1  0  0  0  0
  5  7  1  0  0  0  0
  7  3  1  0  0  0  0
  7  1  1  6  0  0  0
  8  3  1  0  0  0  0
  9  8  1  0  0  0  0
  9 10  1  0  0  0  0
 11  9  2  0  0  0  0
 12 11  1  0  0  0  0
 13 15  2  0  0  0  0
 13 11  1  0  0  0  0
 14 13  1  0  0  0  0
 15 17  1  0  0  0  0
 16 15  1  0  0  0  0
 17  5  1  0  0  0  0
 17  8  2  0  0  0  0
 18  6  1  0  0  0  0
 18  5  1  0  0  0  0
 19 18  2  0  0  0  0
 20 19  1  0  0  0  0
 21 23  2  0  0  0  0
 21 19  1  0  0  0  0
 22 21  1  0  0  0  0
 23 25  1  0  0  0  0
 24 23  1  0  0  0  0
 25 26  1  0  0  0  0
 25  6  2  0  0  0  0
M  END
$$$$
