CSD_code = MIYHUY | q = 0 | S = 0 | Stoichiometry = C15H24CdCl2N6 | MND = 5
 OpenBabel04212202073D

 48 50  0  0  0  0  0  0  0  0999 V2000
   -0.1060    0.7443    3.2614 Cd  0  0  0  0  0  0  0  0  0  0  0  0
    2.0387    1.3228    2.2312 Cl  0  0  0  0  0  0  0  0  0  0  0  0
   -2.2132    0.1595    4.2816 Cl  0  0  0  0  0  0  0  0  0  0  0  0
    0.8993    1.0100    5.3280 N   0  0  0  0  0  0  0  0  0  0  0  0
    2.4574    1.4924    6.7957 N   0  0  0  0  0  0  0  0  0  0  0  0
   -1.1124    2.6083    2.3301 N   0  0  0  0  0  0  0  0  0  0  0  0
   -2.7146    4.0378    1.8777 N   0  0  0  0  0  0  0  0  0  0  0  0
   -0.0998   -1.1991    2.0078 N   0  0  0  0  0  0  0  0  0  0  0  0
    0.5473   -2.6533    0.4973 N   0  0  0  0  0  0  0  0  0  0  0  0
    2.1473    1.3791    5.4924 C   0  0  0  0  0  3  0  0  0  0  0  0
    2.8316    1.5741    4.6879 H   0  0  0  0  0  0  0  0  0  0  0  0
    1.3323    1.1632    7.4985 C   0  0  0  0  0  0  0  0  0  0  0  0
    1.3082    1.1730    8.5690 H   0  0  0  0  0  0  0  0  0  0  0  0
    0.3730    0.8704    6.5755 C   0  0  0  0  0  0  0  0  0  0  0  0
   -0.6490    0.5734    6.7117 H   0  0  0  0  0  0  0  0  0  0  0  0
    3.7486    1.8155    7.3445 C   0  0  0  0  0  0  0  0  0  0  0  0
    3.6034    2.3804    8.2698 H   0  0  0  0  0  0  0  0  0  0  0  0
    4.2761    2.4477    6.6259 H   0  0  0  0  0  0  0  0  0  0  0  0
    4.5603    0.5521    7.6215 C   0  0  0  0  0  0  0  0  0  0  0  0
    5.5322    0.8163    8.0287 H   0  0  0  0  0  0  0  0  0  0  0  0
    4.7063   -0.0084    6.7013 H   0  0  0  0  0  0  0  0  0  0  0  0
    4.0426   -0.0840    8.3357 H   0  0  0  0  0  0  0  0  0  0  0  0
   -2.3862    2.8828    2.4826 C   0  0  0  0  0  3  0  0  0  0  0  0
   -3.0776    2.2604    3.0196 H   0  0  0  0  0  0  0  0  0  0  0  0
   -1.5693    4.5280    1.3157 C   0  0  0  0  0  0  0  0  0  0  0  0
   -1.5541    5.4477    0.7674 H   0  0  0  0  0  0  0  0  0  0  0  0
   -0.5848    3.6293    1.6010 C   0  0  0  0  0  0  0  0  0  0  0  0
    0.4548    3.6373    1.3363 H   0  0  0  0  0  0  0  0  0  0  0  0
   -4.0039    4.6783    1.8964 C   0  0  0  0  0  0  0  0  0  0  0  0
   -4.1356    5.2243    0.9578 H   0  0  0  0  0  0  0  0  0  0  0  0
   -4.7705    3.9020    1.9624 H   0  0  0  0  0  0  0  0  0  0  0  0
   -4.1254    5.6323    3.0827 C   0  0  0  0  0  0  0  0  0  0  0  0
   -5.1056    6.1009    3.0844 H   0  0  0  0  0  0  0  0  0  0  0  0
   -3.3661    6.4089    3.0258 H   0  0  0  0  0  0  0  0  0  0  0  0
   -3.9952    5.0881    4.0149 H   0  0  0  0  0  0  0  0  0  0  0  0
    0.8406   -1.5145    1.1494 C   0  0  0  0  0  3  0  0  0  0  0  0
    1.7338   -0.9397    0.9913 H   0  0  0  0  0  0  0  0  0  0  0  0
   -0.6631   -3.0769    0.9695 C   0  0  0  0  0  0  0  0  0  0  0  0
   -1.1312   -3.9716    0.6129 H   0  0  0  0  0  0  0  0  0  0  0  0
   -1.0509   -2.1677    1.9081 C   0  0  0  0  0  0  0  0  0  0  0  0
   -1.9334   -2.1366    2.5174 H   0  0  0  0  0  0  0  0  0  0  0  0
    1.3170   -3.2565   -0.5593 C   0  0  0  0  0  0  0  0  0  0  0  0
    1.1717   -4.3397   -0.5216 H   0  0  0  0  0  0  0  0  0  0  0  0
    2.3730   -3.0370   -0.3822 H   0  0  0  0  0  0  0  0  0  0  0  0
    0.8945   -2.7152   -1.9233 C   0  0  0  0  0  0  0  0  0  0  0  0
    1.4887   -3.1764   -2.7072 H   0  0  0  0  0  0  0  0  0  0  0  0
    1.0406   -1.6384   -1.9599 H   0  0  0  0  0  0  0  0  0  0  0  0
   -0.1558   -2.9286   -2.1084 H   0  0  0  0  0  0  0  0  0  0  0  0
  1  3  1  0  0  0  0
  1  4  1  0  0  0  0
  2  1  1  0  0  0  0
  4 10  1  0  0  0  0
  4 14  1  0  0  0  0
  5 16  1  0  0  0  0
  5 12  1  0  0  0  0
  6 23  1  0  0  0  0
  6  1  1  0  0  0  0
  7 29  1  0  0  0  0
  7 23  1  0  0  0  0
  8  1  1  0  0  0  0
  9 38  1  0  0  0  0
  9 36  1  0  0  0  0
 10  5  1  0  0  0  0
 11 10  1  0  0  0  0
 12 13  1  0  0  0  0
 14 15  1  0  0  0  0
 14 12  2  0  0  0  0
 16 19  1  0  0  0  0
 16 17  1  0  0  0  0
 18 16  1  0  0  0  0
 19 20  1  0  0  0  0
 19 22  1  0  0  0  0
 21 19  1  0  0  0  0
 23 24  1  0  0  0  0
 25 27  2  0  0  0  0
 25  7  1  0  0  0  0
 26 25  1  0  0  0  0
 27  6  1  0  0  0  0
 28 27  1  0  0  0  0
 29 31  1  0  0  0  0
 29 32  1  0  0  0  0
 30 29  1  0  0  0  0
 32 33  1  0  0  0  0
 32 35  1  0  0  0  0
 34 32  1  0  0  0  0
 36  8  1  0  0  0  0
 37 36  1  0  0  0  0
 38 40  2  0  0  0  0
 39 38  1  0  0  0  0
 40  8  1  0  0  0  0
 40 41  1  0  0  0  0
 42 43  1  0  0  0  0
 42 44  1  0  0  0  0
 42  9  1  0  0  0  0
 45 42  1  0  0  0  0
 46 45  1  0  0  0  0
 47 45  1  0  0  0  0
 48 45  1  0  0  0  0
M  END
$$$$
