CSD_code = MIYQIU | q = 0 | S = 0 | Stoichiometry = C24H23ClN2NiO2 | MND = 4
 OpenBabel04212202073D

 53 54  0  0  0  0  0  0  0  0999 V2000
   -0.8422    1.6832    4.1043 Ni  0  0  0  0  0  0  0  0  0  0  0  0
   -2.0074    1.8576    5.9184 Cl  0  0  0  0  0 15  0  0  0  0  0  0
   -3.2579   -2.8386    2.7365 O   0  0  0  0  0  0  0  0  0  0  0  0
   -1.7904    3.9163    1.0854 O   0  0  0  0  0  0  0  0  0  0  0  0
   -1.0977   -0.0612    3.5863 N   0  0  0  0  0  4  0  0  0  0  0  0
   -0.5893   -0.7075    4.1912 H   0  0  0  0  0  0  0  0  0  0  0  0
   -0.0642    3.4537    3.8889 N   0  0  0  0  0  0  0  0  0  0  0  0
   -0.3115    0.6085    2.6591 C   0  0  0  0  0  3  0  0  0  0  0  0
   -0.8271    0.8779    1.7360 H   0  0  0  0  0  0  0  0  0  0  0  0
    1.1187    0.3682    2.5165 C   0  0  0  0  0  0  0  0  0  0  0  0
    1.8374    1.1564    1.6077 C   0  0  0  0  0  0  0  0  0  0  0  0
    1.3089    1.9102    1.0409 H   0  0  0  0  0  0  0  0  0  0  0  0
    3.1967    0.9981    1.4476 C   0  0  0  0  0  0  0  0  0  0  0  0
    3.7310    1.6242    0.7479 H   0  0  0  0  0  0  0  0  0  0  0  0
    3.8787    0.0370    2.1777 C   0  0  0  0  0  0  0  0  0  0  0  0
    4.9435   -0.0883    2.0535 H   0  0  0  0  0  0  0  0  0  0  0  0
    3.1808   -0.7656    3.0636 C   0  0  0  0  0  0  0  0  0  0  0  0
    3.7014   -1.5261    3.6273 H   0  0  0  0  0  0  0  0  0  0  0  0
    1.8204   -0.6056    3.2355 C   0  0  0  0  0  0  0  0  0  0  0  0
    1.3083   -1.2556    3.9327 H   0  0  0  0  0  0  0  0  0  0  0  0
   -2.3987   -0.5995    3.2200 C   0  0  0  0  0  0  0  0  0  0  0  0
   -3.0228   -0.6904    4.1154 H   0  0  0  0  0  0  0  0  0  0  0  0
   -2.8893    0.1065    2.5394 H   0  0  0  0  0  0  0  0  0  0  0  0
   -2.2607   -1.9442    2.5740 C   0  0  0  0  0  0  0  0  0  0  0  0
   -1.2627   -2.4876    1.8178 C   0  0  0  0  0  0  0  0  0  0  0  0
   -0.3438   -2.0219    1.5224 H   0  0  0  0  0  0  0  0  0  0  0  0
   -1.6855   -3.8021    1.4960 C   0  0  0  0  0  0  0  0  0  0  0  0
   -1.1512   -4.5228    0.9124 H   0  0  0  0  0  0  0  0  0  0  0  0
   -2.9033   -3.9560    2.0787 C   0  0  0  0  0  0  0  0  0  0  0  0
   -3.5922   -4.7763    2.1001 H   0  0  0  0  0  0  0  0  0  0  0  0
   -0.9807    4.4398    3.3434 C   0  0  0  0  0  0  0  0  0  0  0  0
   -1.5444    4.8597    4.1856 H   0  0  0  0  0  0  0  0  0  0  0  0
   -0.4489    5.2436    2.8178 H   0  0  0  0  0  0  0  0  0  0  0  0
    1.1589    3.7787    4.0594 C   0  0  0  0  0  0  0  0  0  0  0  0
    1.5143    4.7663    3.7523 H   0  0  0  0  0  0  0  0  0  0  0  0
    2.1433    2.8907    4.6456 C   0  0  0  0  0  0  0  0  0  0  0  0
    3.5048    3.1312    4.4531 C   0  0  0  0  0  0  0  0  0  0  0  0
    3.8179    3.9810    3.8636 H   0  0  0  0  0  0  0  0  0  0  0  0
    4.4465    2.2798    4.9961 C   0  0  0  0  0  0  0  0  0  0  0  0
    5.4977    2.4666    4.8341 H   0  0  0  0  0  0  0  0  0  0  0  0
    4.0456    1.1923    5.7559 C   0  0  0  0  0  0  0  0  0  0  0  0
    4.7852    0.5347    6.1878 H   0  0  0  0  0  0  0  0  0  0  0  0
    2.6964    0.9547    5.9687 C   0  0  0  0  0  0  0  0  0  0  0  0
    2.3869    0.1175    6.5766 H   0  0  0  0  0  0  0  0  0  0  0  0
    1.7484    1.7904    5.4134 C   0  0  0  0  0  0  0  0  0  0  0  0
    0.6809    1.6274    5.6176 H   0  0  0  0  0  0  0  0  0  0  0  0
   -1.9354    3.7583    2.4170 C   0  0  0  0  0  0  0  0  0  0  0  0
   -2.9711    2.9029    2.6860 C   0  0  0  0  0  0  0  0  0  0  0  0
   -3.3479    2.6352    3.6592 H   0  0  0  0  0  0  0  0  0  0  0  0
   -3.4933    2.5234    1.4214 C   0  0  0  0  0  0  0  0  0  0  0  0
   -4.3241    1.8731    1.2339 H   0  0  0  0  0  0  0  0  0  0  0  0
   -2.7385    3.1690    0.4925 C   0  0  0  0  0  0  0  0  0  0  0  0
   -2.7740    3.1820   -0.5789 H   0  0  0  0  0  0  0  0  0  0  0  0
  4 47  1  0  0  0  0
  5  1  1  0  0  0  0
  5  6  1  0  0  0  0
  7 34  2  0  0  0  0
  8  5  1  0  0  0  0
  9  8  1  0  0  0  0
 10  8  1  0  0  0  0
 10 19  1  0  0  0  0
 11 10  2  0  0  0  0
 12 11  1  0  0  0  0
 13 11  1  0  0  0  0
 13 15  2  0  0  0  0
 14 13  1  0  0  0  0
 15 17  1  0  0  0  0
 16 15  1  0  0  0  0
 17 19  2  0  0  0  0
 17 18  1  0  0  0  0
 19 20  1  0  0  0  0
 21  5  1  0  0  0  0
 21 22  1  0  0  0  0
 23 21  1  0  0  0  0
 24  3  1  0  0  0  0
 24 21  1  0  0  0  0
 25 24  2  0  0  0  0
 26 25  1  0  0  0  0
 27 25  1  0  0  0  0
 27 29  2  0  0  0  0
 28 27  1  0  0  0  0
 29 30  1  0  0  0  0
 29  3  1  0  0  0  0
 31  7  1  0  0  0  0
 31 32  1  0  0  0  0
 33 31  1  0  0  0  0
 34 36  1  0  0  0  0
 35 34  1  0  0  0  0
 36 45  1  0  0  0  0
 37 36  2  0  0  0  0
 37 39  1  0  0  0  0
 38 37  1  0  0  0  0
 39 41  2  0  0  0  0
 40 39  1  0  0  0  0
 41 43  1  0  0  0  0
 41 42  1  0  0  0  0
 43 44  1  0  0  0  0
 45 46  1  0  0  0  0
 45 43  2  0  0  0  0
 47 48  2  0  0  0  0
 47 31  1  0  0  0  0
 48 49  1  0  0  0  0
 50 48  1  0  0  0  0
 51 50  1  0  0  0  0
 52  4  1  0  0  0  0
 52 50  2  0  0  0  0
 53 52  1  0  0  0  0
M  END
$$$$
