CSD_code = MIZDII | q = 0 | S = 0 | Stoichiometry = C18H27ClN2Pt | MND = 4
 OpenBabel04212202073D

 49 53  0  0  0  0  0  0  0  0999 V2000
    5.0114    5.6639   13.9361 Pt  0  0  0  0  0  0  0  0  0  0  0  0
    4.7200    6.8588   15.9722 Cl  0  0  0  0  0  0  0  0  0  0  0  0
    5.1227    7.3234   12.6422 N   0  0  0  0  0  4  0  0  0  0  0  0
    4.9735    3.7101   14.7281 N   0  0  0  0  0  4  0  0  0  0  0  0
    5.2369    4.6977   12.2787 C   0  0  0  0  0  0  0  0  0  0  0  0
    5.4234    3.3238   12.3217 C   0  0  0  0  0  0  0  0  0  0  0  0
    5.5703    2.6302   11.1304 C   0  0  0  0  0  0  0  0  0  0  0  0
    5.7123    1.5580   11.1264 H   0  0  0  0  0  0  0  0  0  0  0  0
    5.5402    3.3286    9.9303 C   0  0  0  0  0  0  0  0  0  0  0  0
    5.6599    2.7877    9.0028 H   0  0  0  0  0  0  0  0  0  0  0  0
    5.3589    4.7050    9.8934 C   0  0  0  0  0  0  0  0  0  0  0  0
    5.3387    5.2204    8.9427 H   0  0  0  0  0  0  0  0  0  0  0  0
    5.1978    5.3993   11.0825 C   0  0  0  0  0  0  0  0  0  0  0  0
    4.9220    6.8769   11.2290 C   0  0  0  0  0  0  0  0  0  0  0  0
    3.8757    7.0589   10.9626 H   0  0  0  0  0  0  0  0  0  0  0  0
    5.5442    7.4635   10.5470 H   0  0  0  0  0  0  0  0  0  0  0  0
    6.5013    7.7963   12.8674 C   0  0  0  0  0  0  0  0  0  0  0  0
    7.1890    7.0164   12.5232 H   0  0  0  0  0  0  0  0  0  0  0  0
    6.6269    7.9237   13.9491 H   0  0  0  0  0  0  0  0  0  0  0  0
    6.8247    9.1265   12.1821 C   0  0  0  0  0  0  0  0  0  0  0  0
    7.8336    9.4256   12.4707 H   0  0  0  0  0  0  0  0  0  0  0  0
    6.8174    9.0166   11.0955 H   0  0  0  0  0  0  0  0  0  0  0  0
    5.8160   10.1935   12.5952 C   0  0  0  0  0  0  0  0  0  0  0  0
    5.9099   10.3863   13.6658 H   0  0  0  0  0  0  0  0  0  0  0  0
    6.0134   11.1273   12.0653 H   0  0  0  0  0  0  0  0  0  0  0  0
    4.4054    9.6957   12.2972 C   0  0  0  0  0  0  0  0  0  0  0  0
    4.2749    9.5686   11.2201 H   0  0  0  0  0  0  0  0  0  0  0  0
    3.6673   10.4225   12.6390 H   0  0  0  0  0  0  0  0  0  0  0  0
    4.1694    8.3741   13.0261 C   0  0  0  0  0  0  0  0  0  0  0  0
    4.2804    8.5374   14.1028 H   0  0  0  0  0  0  0  0  0  0  0  0
    3.1558    8.0037   12.8447 H   0  0  0  0  0  0  0  0  0  0  0  0
    5.4952    2.7426   13.7137 C   0  0  0  0  0  0  0  0  0  0  0  0
    6.5456    2.5409   13.9478 H   0  0  0  0  0  0  0  0  0  0  0  0
    4.9548    1.7934   13.7721 H   0  0  0  0  0  0  0  0  0  0  0  0
    3.5339    3.5071   14.9756 C   0  0  0  0  0  0  0  0  0  0  0  0
    3.0178    3.5218   14.0097 H   0  0  0  0  0  0  0  0  0  0  0  0
    3.1854    4.3574   15.5735 H   0  0  0  0  0  0  0  0  0  0  0  0
    3.2056    2.2166   15.7309 C   0  0  0  0  0  0  0  0  0  0  0  0
    2.1333    2.1992   15.9317 H   0  0  0  0  0  0  0  0  0  0  0  0
    3.4358    1.3396   15.1218 H   0  0  0  0  0  0  0  0  0  0  0  0
    3.9912    2.1524   17.0369 C   0  0  0  0  0  0  0  0  0  0  0  0
    3.8000    1.2069   17.5480 H   0  0  0  0  0  0  0  0  0  0  0  0
    3.6694    2.9627   17.6942 H   0  0  0  0  0  0  0  0  0  0  0  0
    5.4787    2.3093   16.7386 C   0  0  0  0  0  0  0  0  0  0  0  0
    5.8298    1.4645   16.1417 H   0  0  0  0  0  0  0  0  0  0  0  0
    6.0518    2.3225   17.6668 H   0  0  0  0  0  0  0  0  0  0  0  0
    5.7115    3.6243   15.9962 C   0  0  0  0  0  0  0  0  0  0  0  0
    5.3750    4.4532   16.6268 H   0  0  0  0  0  0  0  0  0  0  0  0
    6.7757    3.7704   15.7870 H   0  0  0  0  0  0  0  0  0  0  0  0
  1  4  1  0  0  0  0
  1  2  1  0  0  0  0
  3 17  1  0  0  0  0
  3 29  1  0  0  0  0
  3  1  1  0  0  0  0
  4 35  1  0  0  0  0
  4 47  1  0  0  0  0
  5  6  1  0  0  0  0
  5  1  1  0  0  0  0
  6 32  1  0  0  0  0
  7  6  2  0  0  0  0
  8  7  1  0  0  0  0
  9  7  1  0  0  0  0
 10  9  1  0  0  0  0
 11  9  2  0  0  0  0
 11 13  1  0  0  0  0
 12 11  1  0  0  0  0
 13 14  1  0  0  0  0
 13  5  2  0  0  0  0
 14  3  1  0  0  0  0
 15 14  1  0  0  0  0
 16 14  1  0  0  0  0
 17 19  1  0  0  0  0
 18 17  1  0  0  0  0
 20 21  1  0  0  0  0
 20 23  1  0  0  0  0
 20 17  1  0  0  0  0
 22 20  1  0  0  0  0
 23 24  1  0  0  0  0
 25 23  1  0  0  0  0
 26 23  1  0  0  0  0
 26 28  1  0  0  0  0
 26 29  1  0  0  0  0
 27 26  1  0  0  0  0
 29 30  1  0  0  0  0
 31 29  1  0  0  0  0
 32 34  1  0  0  0  0
 32 33  1  0  0  0  0
 32  4  1  0  0  0  0
 35 37  1  0  0  0  0
 35 38  1  0  0  0  0
 36 35  1  0  0  0  0
 38 39  1  0  0  0  0
 38 41  1  0  0  0  0
 40 38  1  0  0  0  0
 41 42  1  0  0  0  0
 41 43  1  0  0  0  0
 44 41  1  0  0  0  0
 44 46  1  0  0  0  0
 45 44  1  0  0  0  0
 47 48  1  0  0  0  0
 47 44  1  0  0  0  0
 49 47  1  0  0  0  0
M  END
$$$$
