CSD_code = MOBMOG | q = 0 | S = 0 | Stoichiometry = C17H34B8I2N2Pt | MND = 7
 OpenBabel04212202073D

 64 63  0  0  1  0  0  0  0  0999 V2000
    7.2799  -10.4519   -4.3855 Pt  0  0  0  0  0  0  0  0  0  0  0  0
    7.2162   -8.8279   -6.6901 I   0  0  0  0  0 15  0  0  0  0  0  0
    4.5315  -10.5779   -3.7771 I   0  0  0  0  0 15  0  0  0  0  0  0
    6.4775  -12.6047   -6.3979 N   0  0  0  0  0  2  0  0  0  0  0  0
    6.9476   -7.7093   -3.0820 N   0  0  0  0  0  2  0  0  0  0  0  0
    9.7327   -9.4435   -1.5422 C   0  0  1  0  0  0  0  0  0  0  0  0
    6.9179  -11.9079   -5.5839 C   0  0  0  0  0  2  0  0  0  0  0  0
    5.8305  -13.3374   -7.4108 C   0  0  0  0  0  0  0  0  0  0  0  0
    5.3809  -14.6717   -6.8123 C   0  0  0  0  0  0  0  0  0  0  0  0
    6.2374  -15.2403   -6.4553 H   0  0  0  0  0  0  0  0  0  0  0  0
    4.8644  -15.2548   -7.5696 H   0  0  0  0  0  0  0  0  0  0  0  0
    4.7024  -14.5029   -5.9788 H   0  0  0  0  0  0  0  0  0  0  0  0
    4.6314  -12.5017   -7.8679 C   0  0  0  0  0  0  0  0  0  0  0  0
    3.9542  -12.3210   -7.0356 H   0  0  0  0  0  0  0  0  0  0  0  0
    4.0930  -13.0280   -8.6510 H   0  0  0  0  0  0  0  0  0  0  0  0
    4.9639  -11.5407   -8.2548 H   0  0  0  0  0  0  0  0  0  0  0  0
    6.8297  -13.5433   -8.5511 C   0  0  0  0  0  0  0  0  0  0  0  0
    7.1701  -12.5833   -8.9333 H   0  0  0  0  0  0  0  0  0  0  0  0
    6.3525  -14.0909   -9.3590 H   0  0  0  0  0  0  0  0  0  0  0  0
    7.6940  -14.1078   -8.2068 H   0  0  0  0  0  0  0  0  0  0  0  0
    7.2479   -8.7784   -3.4309 C   0  0  0  0  0  2  0  0  0  0  0  0
    6.4245   -6.4292   -2.8143 C   0  0  0  0  0  0  0  0  0  0  0  0
    5.0047   -6.3948   -3.3860 C   0  0  0  0  0  0  0  0  0  0  0  0
    5.0267   -6.5566   -4.4618 H   0  0  0  0  0  0  0  0  0  0  0  0
    4.5531   -5.4275   -3.1855 H   0  0  0  0  0  0  0  0  0  0  0  0
    4.3895   -7.1713   -2.9358 H   0  0  0  0  0  0  0  0  0  0  0  0
    7.3211   -5.4041   -3.5133 C   0  0  0  0  0  0  0  0  0  0  0  0
    8.3259   -5.4158   -3.0944 H   0  0  0  0  0  0  0  0  0  0  0  0
    6.9042   -4.4097   -3.3822 H   0  0  0  0  0  0  0  0  0  0  0  0
    7.3817   -5.6187   -4.5788 H   0  0  0  0  0  0  0  0  0  0  0  0
    6.4225   -6.2293   -1.2967 C   0  0  0  0  0  0  0  0  0  0  0  0
    5.7952   -6.9778   -0.8160 H   0  0  0  0  0  0  0  0  0  0  0  0
    6.0280   -5.2448   -1.0616 H   0  0  0  0  0  0  0  0  0  0  0  0
    7.4312   -6.3051   -0.8918 H   0  0  0  0  0  0  0  0  0  0  0  0
   10.2557   -8.4489   -0.5581 C   0  0  0  0  0  0  0  0  0  0  0  0
   10.6871   -8.7882    0.7197 C   0  0  0  0  0  0  0  0  0  0  0  0
   10.6619   -9.8191    1.0364 H   0  0  0  0  0  0  0  0  0  0  0  0
   11.1392   -7.8169    1.5953 C   0  0  0  0  0  0  0  0  0  0  0  0
   11.4684   -8.1018    2.5837 H   0  0  0  0  0  0  0  0  0  0  0  0
   11.1683   -6.4864    1.2149 C   0  0  0  0  0  0  0  0  0  0  0  0
   11.5197   -5.7304    1.9006 H   0  0  0  0  0  0  0  0  0  0  0  0
   10.7415   -6.1322   -0.0536 C   0  0  0  0  0  0  0  0  0  0  0  0
   10.7595   -5.0972   -0.3632 H   0  0  0  0  0  0  0  0  0  0  0  0
   10.2900   -7.1040   -0.9259 C   0  0  0  0  0  0  0  0  0  0  0  0
    9.9695   -6.8163   -1.9196 H   0  0  0  0  0  0  0  0  0  0  0  0
    9.5397  -12.2659   -2.0343 B   0  0  2  0  0  0  0  0  0  0  0  0
    9.6809  -13.3369   -1.5744 H   0  0  0  0  0  0  0  0  0  0  0  0
   10.5801  -10.9207   -1.6467 B   0  0  1  0  0  0  0  0  0  0  0  0
   11.4724  -10.9669   -0.8879 H   0  0  0  0  0  0  0  0  0  0  0  0
   10.6564  -11.5647   -3.2699 B   0  0  1  0  0  0  0  0  0  0  0  0
   11.5969  -12.1349   -3.6805 H   0  0  0  0  0  0  0  0  0  0  0  0
    9.0425  -12.0840   -3.7055 B   0  0  2  0  0  0  0  0  0  0  0  0
    8.8956  -13.0401   -4.3835 H   0  0  0  0  0  0  0  0  0  0  0  0
    8.9192  -10.8686   -1.0397 B   0  0  0  0  0  2  0  0  0  0  0  0
   10.6815   -9.7735   -2.9770 B   0  0  0  0  0  1  0  0  0  0  0  0
    9.6646  -10.6066   -4.4260 B   0  0  0  0  0  0  0  0  0  0  0  0
    7.8674  -11.7335   -2.4533 B   0  0  0  0  0  0  0  0  0  0  0  0
    8.9225   -8.9356   -2.0580 H   0  0  0  0  0  0  0  0  0  0  0  0
    6.9560  -12.4386   -2.2178 H   0  0  0  0  0  0  0  0  0  0  0  0
    8.6366  -10.9679    0.0960 H   0  0  0  0  0  0  0  0  0  0  0  0
   11.6209   -9.0906   -3.1519 H   0  0  0  0  0  0  0  0  0  0  0  0
    9.8179   -9.4280   -3.9261 H   0  0  0  0  0  0  0  0  0  0  0  0
    9.9947  -10.5321   -5.5525 H   0  0  0  0  0  0  0  0  0  0  0  0
    7.7552  -10.7202   -1.6672 H   0  0  0  0  0  0  0  0  0  0  0  0
  1 21  1  0  0  0  0
  4  7  1  0  0  0  0
  5 22  1  0  0  0  0
  6 58  1  6  0  0  0
  6 54  1  0  0  0  0
  6 35  1  0  0  0  0
  7  1  1  0  0  0  0
  8  9  1  0  0  0  0
  8  4  1  0  0  0  0
  9 10  1  0  0  0  0
  9 12  1  0  0  0  0
 11  9  1  0  0  0  0
 13  8  1  0  0  0  0
 13 14  1  0  0  0  0
 15 13  1  0  0  0  0
 16 13  1  0  0  0  0
 17 20  1  0  0  0  0
 17  8  1  0  0  0  0
 18 17  1  0  0  0  0
 19 17  1  0  0  0  0
 21  5  1  0  0  0  0
 22 31  1  0  0  0  0
 23 25  1  0  0  0  0
 23 26  1  0  0  0  0
 23 22  1  0  0  0  0
 24 23  1  0  0  0  0
 27 29  1  0  0  0  0
 27 28  1  0  0  0  0
 27 22  1  0  0  0  0
 30 27  1  0  0  0  0
 31 33  1  0  0  0  0
 31 34  1  0  0  0  0
 31 32  1  0  0  0  0
 35 36  1  0  0  0  0
 36 37  1  0  0  0  0
 36 38  2  0  0  0  0
 38 39  1  0  0  0  0
 40 38  1  0  0  0  0
 40 41  1  0  0  0  0
 42 40  2  0  0  0  0
 43 42  1  0  0  0  0
 44 35  2  0  0  0  0
 44 42  1  0  0  0  0
 45 44  1  0  0  0  0
 46 48  1  0  0  0  0
 46 47  1  1  0  0  0
 48  6  1  0  0  0  0
 48 49  1  1  0  0  0
 50 51  1  6  0  0  0
 50 48  1  0  0  0  0
 52 53  1  6  0  0  0
 52 50  1  0  0  0  0
 52 57  1  0  0  0  0
 52 46  1  0  0  0  0
 54 60  1  0  0  0  0
 56  1  1  0  0  0  0
 56 62  1  0  0  0  0
 56 50  1  0  0  0  0
 57 59  1  0  0  0  0
 57 46  1  0  0  0  0
 57 64  1  0  0  0  0
 61 55  1  0  0  0  0
 63 56  1  0  0  0  0
M  END
$$$$
