CSD_code = MOBSIH | q = 0 | S = 0 | Stoichiometry = C21H15Cl2N3Pd | MND = 4
 OpenBabel04212202073D

 42 47  0  0  0  0  0  0  0  0999 V2000
    9.0153    2.1074   10.1930 Pd  0  0  0  0  0  0  0  0  0  0  0  0
    8.7576    3.8927    8.9075 Cl  0  0  0  0  0  0  0  0  0  0  0  0
   10.8956    1.6690    9.1083 Cl  0  0  0  0  0  0  0  0  0  0  0  0
    7.2446    2.2953   11.2922 N   0  0  0  0  0  0  0  0  0  0  0  0
    9.0100    0.3398   11.1651 N   0  0  0  0  0  0  0  0  0  0  0  0
    5.4496    1.0300   11.6590 N   0  0  0  0  0  0  0  0  0  0  0  0
    7.5776   -1.2328   12.2651 C   0  0  0  0  0  0  0  0  0  0  0  0
    6.6195   -1.4776   12.6921 H   0  0  0  0  0  0  0  0  0  0  0  0
    3.7365    2.9423   11.7286 C   0  0  0  0  0  0  0  0  0  0  0  0
    5.0247    2.3400   11.6088 C   0  0  0  0  0  0  0  0  0  0  0  0
    7.7831   -0.0083   11.6275 C   0  0  0  0  0  0  0  0  0  0  0  0
    6.8066    1.0522   11.4944 C   0  0  0  0  0  0  0  0  0  0  0  0
    3.6653    4.3481   11.5131 C   0  0  0  0  0  0  0  0  0  0  0  0
    1.2556    4.2161   11.8013 C   0  0  0  0  0  0  0  0  0  0  0  0
    0.2935    4.7059   11.8044 H   0  0  0  0  0  0  0  0  0  0  0  0
    7.3146    5.2880   11.3236 C   0  0  0  0  0  0  0  0  0  0  0  0
    8.2672    4.7719   11.3756 H   0  0  0  0  0  0  0  0  0  0  0  0
    9.8736   -1.7616   11.8682 C   0  0  0  0  0  0  0  0  0  0  0  0
   10.7166   -2.4293   11.9355 H   0  0  0  0  0  0  0  0  0  0  0  0
    8.6331   -2.1186   12.3821 C   0  0  0  0  0  0  0  0  0  0  0  0
    8.4914   -3.0690   12.8733 H   0  0  0  0  0  0  0  0  0  0  0  0
    2.5699    2.2372   12.0604 C   0  0  0  0  0  0  0  0  0  0  0  0
    2.6234    1.1931   12.3180 H   0  0  0  0  0  0  0  0  0  0  0  0
    6.1370    4.5343   11.3412 C   0  0  0  0  0  0  0  0  0  0  0  0
    4.8657    5.1502   11.3434 C   0  0  0  0  0  0  0  0  0  0  0  0
    2.3941    4.9387   11.5327 C   0  0  0  0  0  0  0  0  0  0  0  0
    2.2927    5.9931   11.3363 H   0  0  0  0  0  0  0  0  0  0  0  0
    1.3462    2.8608   12.0973 C   0  0  0  0  0  0  0  0  0  0  0  0
    0.4602    2.2990   12.3528 H   0  0  0  0  0  0  0  0  0  0  0  0
    6.1676    3.1112   11.3913 C   0  0  0  0  0  0  0  0  0  0  0  0
   10.0201   -0.5181   11.2805 C   0  0  0  0  0  0  0  0  0  0  0  0
   10.9677   -0.1842   10.8729 H   0  0  0  0  0  0  0  0  0  0  0  0
    4.6311   -0.1507   11.5710 C   0  0  0  0  0  0  0  0  0  0  0  0
    4.2919   -0.4775   12.5575 H   0  0  0  0  0  0  0  0  0  0  0  0
    5.2028   -0.9506   11.1019 H   0  0  0  0  0  0  0  0  0  0  0  0
    3.7658    0.0578   10.9416 H   0  0  0  0  0  0  0  0  0  0  0  0
    7.2495    6.6568   11.2338 C   0  0  0  0  0  0  0  0  0  0  0  0
    8.1533    7.2450   11.2075 H   0  0  0  0  0  0  0  0  0  0  0  0
    6.0058    7.2810   11.1717 C   0  0  0  0  0  0  0  0  0  0  0  0
    5.9513    8.3564   11.0860 H   0  0  0  0  0  0  0  0  0  0  0  0
    4.8424    6.5491   11.2392 C   0  0  0  0  0  0  0  0  0  0  0  0
    3.9049    7.0810   11.2186 H   0  0  0  0  0  0  0  0  0  0  0  0
  1  5  1  0  0  0  0
  1  4  1  0  0  0  0
  2  1  1  0  0  0  0
  3  1  1  0  0  0  0
  4 30  1  0  0  0  0
  4 12  1  0  0  0  0
  5 31  1  0  0  0  0
  5 11  1  0  0  0  0
  7 20  2  0  0  0  0
  7  8  1  0  0  0  0
  9 22  1  0  0  0  0
 10  6  1  0  0  0  0
 10  9  1  0  0  0  0
 11  7  1  0  0  0  0
 12 11  2  0  0  0  0
 12  6  1  0  0  0  0
 13 26  1  0  0  0  0
 13  9  2  0  0  0  0
 14 15  1  0  0  0  0
 14 28  1  0  0  0  0
 16 24  1  0  0  0  0
 16 17  1  0  0  0  0
 18 19  1  0  0  0  0
 18 20  1  0  0  0  0
 20 21  1  0  0  0  0
 22 28  2  0  0  0  0
 22 23  1  0  0  0  0
 24 25  2  0  0  0  0
 24 30  1  0  0  0  0
 25 13  1  0  0  0  0
 26 14  2  0  0  0  0
 27 26  1  0  0  0  0
 28 29  1  0  0  0  0
 30 10  2  0  0  0  0
 31 18  2  0  0  0  0
 32 31  1  0  0  0  0
 33  6  1  0  0  0  0
 33 34  1  0  0  0  0
 35 33  1  0  0  0  0
 36 33  1  0  0  0  0
 37 16  2  0  0  0  0
 38 37  1  0  0  0  0
 39 37  1  0  0  0  0
 39 41  2  0  0  0  0
 40 39  1  0  0  0  0
 41 25  1  0  0  0  0
 42 41  1  0  0  0  0
M  END
$$$$
