CSD_code = MOBSED | q = 0 | S = 0 | Stoichiometry = C21H17Cl2N3Pd | MND = 4
 OpenBabel04212202073D

 44 48  0  0  0  0  0  0  0  0999 V2000
   13.0998    1.4060   12.9652 Pd  0  0  0  0  0  0  0  0  0  0  0  0
   14.2571    1.7931   14.8136 Cl  0  0  0  0  0  0  0  0  0  0  0  0
   14.8876    1.9870   11.7846 Cl  0  0  0  0  0  0  0  0  0  0  0  0
   11.6034    0.3666   13.9152 N   0  0  0  0  0  0  0  0  0  0  0  0
   11.8409    1.0469   11.4125 N   0  0  0  0  0  0  0  0  0  0  0  0
   10.1360   -0.0939   10.6059 N   0  0  0  0  0  0  0  0  0  0  0  0
   11.5898    0.0671   15.2112 C   0  0  0  0  0  0  0  0  0  0  0  0
   12.2308    0.6770   15.8387 H   0  0  0  0  0  0  0  0  0  0  0  0
   10.8219   -0.9599   15.7306 C   0  0  0  0  0  0  0  0  0  0  0  0
   10.8358   -1.1618   16.7889 H   0  0  0  0  0  0  0  0  0  0  0  0
   10.0557   -1.7281   14.8632 C   0  0  0  0  0  0  0  0  0  0  0  0
    9.4672   -2.5549   15.2302 H   0  0  0  0  0  0  0  0  0  0  0  0
   10.0620   -1.4250   13.5141 C   0  0  0  0  0  0  0  0  0  0  0  0
    9.4990   -2.0306   12.8249 H   0  0  0  0  0  0  0  0  0  0  0  0
   10.8300   -0.3525   13.0586 C   0  0  0  0  0  0  0  0  0  0  0  0
   10.9197    0.1268   11.6996 C   0  0  0  0  0  0  0  0  0  0  0  0
   11.6437    1.4615   10.1384 C   0  0  0  0  0  0  0  0  0  0  0  0
   10.5844    0.7405    9.6104 C   0  0  0  0  0  0  0  0  0  0  0  0
    8.9560   -0.9107   10.5279 C   0  0  0  0  0  0  0  0  0  0  0  0
    8.3211   -0.7321   11.3970 H   0  0  0  0  0  0  0  0  0  0  0  0
    9.2141   -1.9711   10.4792 H   0  0  0  0  0  0  0  0  0  0  0  0
    8.4029   -0.6437    9.6281 H   0  0  0  0  0  0  0  0  0  0  0  0
   12.4106    2.5651    9.5717 C   0  0  0  0  0  0  0  0  0  0  0  0
   12.8231    2.5705    8.2434 C   0  0  0  0  0  0  0  0  0  0  0  0
   12.6002    1.7247    7.6096 H   0  0  0  0  0  0  0  0  0  0  0  0
   13.5375    3.6454    7.7482 C   0  0  0  0  0  0  0  0  0  0  0  0
   13.8654    3.6413    6.7191 H   0  0  0  0  0  0  0  0  0  0  0  0
   13.8424    4.7178    8.5699 C   0  0  0  0  0  0  0  0  0  0  0  0
   14.4058    5.5523    8.1799 H   0  0  0  0  0  0  0  0  0  0  0  0
   13.4325    4.7177    9.8934 C   0  0  0  0  0  0  0  0  0  0  0  0
   13.6769    5.5491   10.5365 H   0  0  0  0  0  0  0  0  0  0  0  0
   12.7187    3.6476   10.3974 C   0  0  0  0  0  0  0  0  0  0  0  0
   12.3920    3.6455   11.4397 H   0  0  0  0  0  0  0  0  0  0  0  0
    9.9976    0.8176    8.2773 C   0  0  0  0  0  0  0  0  0  0  0  0
    9.7932   -0.3293    7.5120 C   0  0  0  0  0  0  0  0  0  0  0  0
   10.0850   -1.2946    7.9001 H   0  0  0  0  0  0  0  0  0  0  0  0
    9.2549   -0.2322    6.2418 C   0  0  0  0  0  0  0  0  0  0  0  0
    9.1056   -1.1262    5.6548 H   0  0  0  0  0  0  0  0  0  0  0  0
    8.9154    1.0054    5.7222 C   0  0  0  0  0  0  0  0  0  0  0  0
    8.4952    1.0782    4.7306 H   0  0  0  0  0  0  0  0  0  0  0  0
    9.1238    2.1504    6.4747 C   0  0  0  0  0  0  0  0  0  0  0  0
    8.8659    3.1173    6.0700 H   0  0  0  0  0  0  0  0  0  0  0  0
    9.6618    2.0613    7.7439 C   0  0  0  0  0  0  0  0  0  0  0  0
    9.8265    2.9511    8.3322 H   0  0  0  0  0  0  0  0  0  0  0  0
  1  4  1  0  0  0  0
  1  2  1  0  0  0  0
  3  1  1  0  0  0  0
  4  7  1  0  0  0  0
  5 16  1  0  0  0  0
  5  1  1  0  0  0  0
  6 16  1  0  0  0  0
  7  9  2  0  0  0  0
  7  8  1  0  0  0  0
  9 10  1  0  0  0  0
 11 12  1  0  0  0  0
 11  9  1  0  0  0  0
 13 11  2  0  0  0  0
 14 13  1  0  0  0  0
 15 13  1  0  0  0  0
 15  4  1  0  0  0  0
 16 15  2  0  0  0  0
 17  5  1  0  0  0  0
 18 17  2  0  0  0  0
 18  6  1  0  0  0  0
 19  6  1  0  0  0  0
 19 20  1  0  0  0  0
 21 19  1  0  0  0  0
 22 19  1  0  0  0  0
 23 17  1  0  0  0  0
 23 32  1  0  0  0  0
 24 23  2  0  0  0  0
 25 24  1  0  0  0  0
 26 24  1  0  0  0  0
 26 28  2  0  0  0  0
 27 26  1  0  0  0  0
 28 30  1  0  0  0  0
 29 28  1  0  0  0  0
 30 32  2  0  0  0  0
 30 31  1  0  0  0  0
 32 33  1  0  0  0  0
 34 18  1  0  0  0  0
 35 36  1  0  0  0  0
 35 34  2  0  0  0  0
 37 35  1  0  0  0  0
 38 37  1  0  0  0  0
 39 37  2  0  0  0  0
 39 41  1  0  0  0  0
 40 39  1  0  0  0  0
 41 43  2  0  0  0  0
 42 41  1  0  0  0  0
 43 34  1  0  0  0  0
 43 44  1  0  0  0  0
M  END
$$$$
