CSD_code = MOCGAO | q = 0 | S = 0 | Stoichiometry = C13H8AuCl2NS | MND = 4
 OpenBabel04212202073D

 26 29  0  0  0  0  0  0  0  0999 V2000
    0.4061    8.2812    4.3088 Au  0  0  0  0  0  0  0  0  0  0  0  0
   -0.9472    7.7223    2.6519 Cl  0  0  0  0  0  0  0  0  0  0  0  0
    1.6879    9.5054    2.8312 Cl  0  0  0  0  0  0  0  0  0  0  0  0
   -0.6963    6.6229    8.2829 S   0  0  0  0  0  0  0  0  0  0  0  0
    1.6347    8.7755    5.8712 N   0  0  0  0  0  0  0  0  0  0  0  0
    2.7183    9.5407    5.8081 C   0  0  0  0  0  0  0  0  0  0  0  0
    3.4799    9.8137    6.9270 C   0  0  0  0  0  0  0  0  0  0  0  0
    3.1002    9.2699    8.1505 C   0  0  0  0  0  0  0  0  0  0  0  0
    1.9748    8.4750    8.2132 C   0  0  0  0  0  0  0  0  0  0  0  0
    1.2463    8.2385    7.0459 C   0  0  0  0  0  0  0  0  0  0  0  0
    0.0657    7.4466    6.9470 C   0  0  0  0  0  0  0  0  0  0  0  0
   -0.5739    7.2778    5.7455 C   0  0  0  0  0  0  0  0  0  0  0  0
   -1.7279    6.4572    5.8682 C   0  0  0  0  0  0  0  0  0  0  0  0
   -2.6498    6.0403    4.8997 C   0  0  0  0  0  0  0  0  0  0  0  0
   -3.7041    5.2362    5.2646 C   0  0  0  0  0  0  0  0  0  0  0  0
   -3.8762    4.8244    6.5871 C   0  0  0  0  0  0  0  0  0  0  0  0
   -2.9866    5.2152    7.5657 C   0  0  0  0  0  0  0  0  0  0  0  0
   -1.9218    6.0251    7.2038 C   0  0  0  0  0  0  0  0  0  0  0  0
    2.9595    9.9309    4.8283 H   0  0  0  0  0  0  0  0  0  0  0  0
    4.3522   10.4398    6.8389 H   0  0  0  0  0  0  0  0  0  0  0  0
    3.6785    9.4671    9.0402 H   0  0  0  0  0  0  0  0  0  0  0  0
    1.6397    8.0303    9.1369 H   0  0  0  0  0  0  0  0  0  0  0  0
   -2.5168    6.3586    3.8793 H   0  0  0  0  0  0  0  0  0  0  0  0
   -4.4120    4.9170    4.5154 H   0  0  0  0  0  0  0  0  0  0  0  0
   -4.7127    4.1942    6.8480 H   0  0  0  0  0  0  0  0  0  0  0  0
   -3.1064    4.9045    8.5919 H   0  0  0  0  0  0  0  0  0  0  0  0
  1 12  2  0  0  0  0
  1  5  1  0  0  0  0
  2  1  1  0  0  0  0
  3  1  1  0  0  0  0
  5 10  1  0  0  0  0
  6  5  1  0  0  0  0
  6  7  2  0  0  0  0
  7  8  1  0  0  0  0
  8  9  2  0  0  0  0
  8 21  1  0  0  0  0
  9 22  1  0  0  0  0
 10  9  1  0  0  0  0
 11 10  2  0  0  0  0
 11  4  1  0  0  0  0
 12 13  1  0  0  0  0
 12 11  1  0  0  0  0
 13 18  1  0  0  0  0
 14 15  1  0  0  0  0
 14 13  2  0  0  0  0
 15 16  2  0  0  0  0
 16 25  1  0  0  0  0
 16 17  1  0  0  0  0
 17 26  1  0  0  0  0
 18 17  2  0  0  0  0
 18  4  1  0  0  0  0
 19  6  1  0  0  0  0
 20  7  1  0  0  0  0
 23 14  1  0  0  0  0
 24 15  1  0  0  0  0
M  END
$$$$
