CSD_code = MOCGAM | q = 0 | S = 0 | Stoichiometry = C10H28BClN2P2Pd | MND = 4
 OpenBabel04212202073D

 45 45  0  0  0  0  0  0  0  0999 V2000
   10.2309    9.9190    3.3492 Pd  0  0  0  0  0  0  0  0  0  0  0  0
    7.8685   10.2752    3.3489 Cl  0  0  0  0  0  0  0  0  0  0  0  0
   10.0032    7.6874    3.3490 P   0  0  0  0  0  4  0  0  0  0  0  0
   10.3754   12.1560    3.3490 P   0  0  0  0  0  4  0  0  0  0  0  0
   13.0714    9.7000    4.4819 N   0  0  0  0  0  0  0  0  0  0  0  0
   12.7102    9.7841    5.8650 C   0  0  0  0  0  0  0  0  0  0  0  0
   14.4725    9.6397    4.1198 C   0  0  0  0  0  0  0  0  0  0  0  0
   10.7372    6.7813    4.7671 C   0  0  0  0  0  0  0  0  0  0  0  0
    8.2945    7.0333    3.3490 C   0  0  0  0  0  0  0  0  0  0  0  0
    9.5206   12.9245    1.9246 C   0  0  0  0  0  0  0  0  0  0  0  0
   11.9736   13.0658    3.3490 C   0  0  0  0  0  0  0  0  0  0  0  0
   12.2363    9.7416    3.3490 B   0  0  0  0  0  0  0  0  0  0  0  0
   13.1463   10.6714    6.3438 H   0  0  0  0  0  0  0  0  0  0  0  0
   11.6160    9.8521    5.9202 H   0  0  0  0  0  0  0  0  0  0  0  0
   13.0429    8.9025    6.4288 H   0  0  0  0  0  0  0  0  0  0  0  0
   15.0180   10.5043    4.5248 H   0  0  0  0  0  0  0  0  0  0  0  0
   14.9438    8.7325    4.5246 H   0  0  0  0  0  0  0  0  0  0  0  0
   10.5519    5.7114    4.6780 H   0  0  0  0  0  0  0  0  0  0  0  0
   11.8081    6.9714    4.7912 H   0  0  0  0  0  0  0  0  0  0  0  0
   10.2953    7.1494    5.6924 H   0  0  0  0  0  0  0  0  0  0  0  0
    8.2937    5.9431    3.3490 H   0  0  0  0  0  0  0  0  0  0  0  0
    7.7736    7.4112    4.2280 H   0  0  0  0  0  0  0  0  0  0  0  0
    9.5134   14.0104    2.0188 H   0  0  0  0  0  0  0  0  0  0  0  0
   10.0256   12.6381    1.0019 H   0  0  0  0  0  0  0  0  0  0  0  0
    8.4999   12.5436    1.9015 H   0  0  0  0  0  0  0  0  0  0  0  0
   11.8050   14.1421    3.3490 H   0  0  0  0  0  0  0  0  0  0  0  0
   12.5453   12.7856    2.4670 H   0  0  0  0  0  0  0  0  0  0  0  0
   10.7372    6.7813    1.9309 C   0  0  0  0  0  0  0  0  0  0  0  0
   10.5519    5.7114    2.0200 H   0  0  0  0  0  0  0  0  0  0  0  0
   11.8081    6.9713    1.9068 H   0  0  0  0  0  0  0  0  0  0  0  0
   10.2953    7.1493    1.0056 H   0  0  0  0  0  0  0  0  0  0  0  0
    7.7736    7.4112    2.4700 H   0  0  0  0  0  0  0  0  0  0  0  0
    9.5206   12.9245    4.7733 C   0  0  0  0  0  0  0  0  0  0  0  0
    9.5134   14.0104    4.6792 H   0  0  0  0  0  0  0  0  0  0  0  0
   10.0256   12.6380    5.6961 H   0  0  0  0  0  0  0  0  0  0  0  0
    8.4999   12.5435    4.7965 H   0  0  0  0  0  0  0  0  0  0  0  0
   12.5453   12.7856    4.2310 H   0  0  0  0  0  0  0  0  0  0  0  0
   14.4725    9.6397    2.5781 C   0  0  0  0  0  0  0  0  0  0  0  0
   13.0713    9.7000    2.2161 N   0  0  0  0  0  0  0  0  0  0  0  0
   12.7102    9.7841    0.8330 C   0  0  0  0  0  0  0  0  0  0  0  0
   13.1462   10.6714    0.3542 H   0  0  0  0  0  0  0  0  0  0  0  0
   11.6160    9.8521    0.7778 H   0  0  0  0  0  0  0  0  0  0  0  0
   13.0428    8.9025    0.2692 H   0  0  0  0  0  0  0  0  0  0  0  0
   15.0180   10.5043    2.1731 H   0  0  0  0  0  0  0  0  0  0  0  0
   14.9438    8.7325    2.1734 H   0  0  0  0  0  0  0  0  0  0  0  0
  2  1  1  0  0  0  0
  3  9  1  0  0  0  0
  3  1  1  0  0  0  0
  3  8  1  0  0  0  0
  4 11  1  0  0  0  0
  4  1  1  0  0  0  0
  4 33  1  0  0  0  0
  5  6  1  0  0  0  0
  6 14  1  0  0  0  0
  6 13  1  0  0  0  0
  6 15  1  0  0  0  0
  7  5  1  0  0  0  0
  7 17  1  0  0  0  0
  7 16  1  0  0  0  0
  8 19  1  0  0  0  0
  8 20  1  0  0  0  0
  9 21  1  0  0  0  0
  9 22  1  0  0  0  0
 10 23  1  0  0  0  0
 10  4  1  0  0  0  0
 11 26  1  0  0  0  0
 11 37  1  0  0  0  0
 12  1  2  0  0  0  0
 12  5  1  0  0  0  0
 18  8  1  0  0  0  0
 24 10  1  0  0  0  0
 25 10  1  0  0  0  0
 27 11  1  0  0  0  0
 28 29  1  0  0  0  0
 28  3  1  0  0  0  0
 30 28  1  0  0  0  0
 31 28  1  0  0  0  0
 32  9  1  0  0  0  0
 33 36  1  0  0  0  0
 33 35  1  0  0  0  0
 34 33  1  0  0  0  0
 38  7  1  0  0  0  0
 39 38  1  0  0  0  0
 39 12  1  0  0  0  0
 40 39  1  0  0  0  0
 41 40  1  0  0  0  0
 42 40  1  0  0  0  0
 43 40  1  0  0  0  0
 44 38  1  0  0  0  0
 45 38  1  0  0  0  0
M  END
$$$$
