CSD_code = MODKAS | q = -1 | S = 0 | Stoichiometry = C7H5ClHgNO6(1-) | MND = 5
 OpenBabel04212202073D

 21 22  0  0  1  0  0  0  0  0999 V2000
    5.4307    4.6240   11.8085 Hg  0  0  1  0  0  0  0  0  0  0  0  0
    5.8052    5.6218   13.7866 Cl  0  0  0  0  0  0  0  0  0  0  0  0
    7.2808    4.7092   10.5288 O   0  0  0  0  0  0  0  0  0  0  0  0
    8.0599    4.4558    8.4540 O   0  0  0  0  0  0  0  0  0  0  0  0
    3.7728    3.2077    5.8902 O   0  0  0  0  0  0  0  0  0  0  0  0
    4.5532    3.2359    5.3211 H   0  0  0  0  0  0  0  0  0  0  0  0
    3.0618    4.2015   11.7447 O   0  0  0  0  0  0  0  0  0  0  0  0
    1.3904    3.5514   10.4199 O   0  0  0  0  0  0  0  0  0  0  0  0
    4.8000    4.1324    9.7479 N   0  0  0  0  0  0  0  0  0  0  0  0
    5.7425    4.1167    8.8171 C   0  0  2  0  0  3  0  0  0  0  0  0
    5.4485    3.8114    7.5006 C   0  0  0  0  0  0  0  0  0  0  0  0
    6.2485    3.8118    6.7735 H   0  0  0  0  0  0  0  0  0  0  0  0
    4.1309    3.5131    7.1604 C   0  0  0  0  0  0  0  0  0  0  0  0
    3.1568    3.5278    8.1582 C   0  0  0  0  0  0  0  0  0  0  0  0
    2.1263    3.2969    7.9436 H   0  0  0  0  0  0  0  0  0  0  0  0
    3.5391    3.8453    9.4490 C   0  0  0  0  0  0  0  0  0  0  0  0
    7.1746    4.4571    9.2951 C   0  0  0  0  0  0  0  0  0  0  0  0
    2.5489    3.8676   10.6395 C   0  0  0  0  0  0  0  0  0  0  0  0
    4.5643    2.5685   13.3823 O   0  0  0  0  0  0  0  0  0  0  0  0
    3.6981    2.8229   13.0228 H   0  0  0  0  0  0  0  0  0  0  0  0
    4.6437    3.0564   14.2106 H   0  0  0  0  0  0  0  0  0  0  0  0
  1  2  1  6  0  0  0
  3  1  1  0  0  0  0
  4 17  2  0  0  0  0
  5 13  1  0  0  0  0
  6  5  1  0  0  0  0
  7  1  1  0  0  0  0
  8 18  2  0  0  0  0
  9  1  1  0  0  0  0
 10 11  1  1  0  0  0
 10 17  1  0  0  0  0
 10  9  1  0  0  0  0
 12 11  1  0  0  0  0
 13 11  2  0  0  0  0
 13 14  1  0  0  0  0
 14 16  2  0  0  0  0
 15 14  1  0  0  0  0
 16  9  1  0  0  0  0
 16 18  1  0  0  0  0
 17  3  1  0  0  0  0
 18  7  1  0  0  0  0
 19 21  1  0  0  0  0
 20 19  1  0  0  0  0
M  END
$$$$
