CSD_code = MODTAD | q = 0 | S = 0 | Stoichiometry = C26H20BrN2O3PRu | MND = 6
 OpenBabel04212202073D

 54 58  0  0  1  0  0  0  0  0999 V2000
    4.2153    8.3844    1.8315 Br  0  0  0  0  0  0  0  0  0  0  0  0
    5.2920   10.1713    4.1673 C   0  0  0  0  0  2  0  0  0  0  0  0
    3.0615   11.6403    4.4419 C   0  0  0  0  0  2  0  0  0  0  0  0
    4.0521   11.4085    1.9701 C   0  0  0  0  0  0  0  0  0  0  0  0
    1.8073   10.8637    1.2842 C   0  0  2  0  0  3  0  0  0  0  0  0
    0.7336   10.9167    0.3847 C   0  0  0  0  0  0  0  0  0  0  0  0
    0.8562   11.4296   -0.5557 H   0  0  0  0  0  0  0  0  0  0  0  0
   -0.4486   10.3007    0.7228 C   0  0  0  0  0  0  0  0  0  0  0  0
   -1.2869   10.3173    0.0440 H   0  0  0  0  0  0  0  0  0  0  0  0
   -0.5488    9.6614    1.9566 C   0  0  0  0  0  0  0  0  0  0  0  0
   -1.4616    9.1783    2.2625 H   0  0  0  0  0  0  0  0  0  0  0  0
    0.5503    9.6484    2.7861 C   0  0  0  0  0  0  0  0  0  0  0  0
    0.5083    9.1647    3.7561 H   0  0  0  0  0  0  0  0  0  0  0  0
    1.8711    9.2672    6.4154 C   0  0  0  0  0  0  0  0  0  0  0  0
    2.4884   10.2947    7.1290 C   0  0  0  0  0  0  0  0  0  0  0  0
    3.5294   10.5262    6.9286 H   0  0  0  0  0  0  0  0  0  0  0  0
    1.7840   11.0048    8.0805 C   0  0  0  0  0  0  0  0  0  0  0  0
    2.2713   11.7934    8.6343 H   0  0  0  0  0  0  0  0  0  0  0  0
    0.4493   10.7097    8.3160 C   0  0  0  0  0  0  0  0  0  0  0  0
   -0.1042   11.2683    9.0556 H   0  0  0  0  0  0  0  0  0  0  0  0
   -0.1738    9.7038    7.5980 C   0  0  0  0  0  0  0  0  0  0  0  0
   -1.2151    9.4775    7.7755 H   0  0  0  0  0  0  0  0  0  0  0  0
    0.5308    8.9832    6.6482 C   0  0  0  0  0  0  0  0  0  0  0  0
    0.0370    8.1953    6.0951 H   0  0  0  0  0  0  0  0  0  0  0  0
    4.2674    7.7490    6.0309 C   0  0  0  0  0  0  0  0  0  0  0  0
    4.3828    7.7516    7.4164 C   0  0  0  0  0  0  0  0  0  0  0  0
    3.6215    8.2128    8.0300 H   0  0  0  0  0  0  0  0  0  0  0  0
    5.4846    7.1668    8.0159 C   0  0  0  0  0  0  0  0  0  0  0  0
    5.5726    7.1777    9.0927 H   0  0  0  0  0  0  0  0  0  0  0  0
    6.4685    6.5714    7.2449 C   0  0  0  0  0  0  0  0  0  0  0  0
    7.3276    6.1219    7.7200 H   0  0  0  0  0  0  0  0  0  0  0  0
    6.3479    6.5516    5.8647 C   0  0  0  0  0  0  0  0  0  0  0  0
    7.1088    6.0841    5.2583 H   0  0  0  0  0  0  0  0  0  0  0  0
    5.2527    7.1363    5.2584 C   0  0  0  0  0  0  0  0  0  0  0  0
    5.1590    7.1141    4.1801 H   0  0  0  0  0  0  0  0  0  0  0  0
    1.9458    6.9115    4.7992 C   0  0  0  0  0  0  0  0  0  0  0  0
    1.6607    6.0736    5.8766 C   0  0  0  0  0  0  0  0  0  0  0  0
    1.9712    6.3570    6.8731 H   0  0  0  0  0  0  0  0  0  0  0  0
    0.9855    4.8876    5.6682 C   0  0  0  0  0  0  0  0  0  0  0  0
    0.7634    4.2423    6.5056 H   0  0  0  0  0  0  0  0  0  0  0  0
    0.5994    4.5222    4.3868 C   0  0  0  0  0  0  0  0  0  0  0  0
    0.0754    3.5914    4.2277 H   0  0  0  0  0  0  0  0  0  0  0  0
    0.8953    5.3441    3.3140 C   0  0  0  0  0  0  0  0  0  0  0  0
    0.6103    5.0566    2.3132 H   0  0  0  0  0  0  0  0  0  0  0  0
    1.5674    6.5380    3.5160 C   0  0  0  0  0  0  0  0  0  0  0  0
    1.8137    7.1611    2.6682 H   0  0  0  0  0  0  0  0  0  0  0  0
    1.7125   10.2184    2.4614 N   0  0  0  0  0  0  0  0  0  0  0  0
    2.9963   11.4693    1.0370 N   0  0  0  0  0  0  0  0  0  0  0  0
    3.1343   11.9898    0.1767 H   0  0  0  0  0  0  0  0  0  0  0  0
    6.3594   10.1937    4.5688 O   0  0  0  0  0  1  0  0  0  0  0  0
    2.7483   12.6109    4.9650 O   0  0  0  0  0  1  0  0  0  0  0  0
    5.0609   12.0214    1.7498 O   0  0  0  0  0  0  0  0  0  0  0  0
    2.8579    8.4644    5.1135 P   0  0  0  0  0  4  0  0  0  0  0  0
    3.5620   10.1514    3.4775 Ru  0  0  0  0  0  0  0  0  0  0  0  0
  1 54  1  0  0  0  0
  2 50  1  0  0  0  0
  3 51  1  0  0  0  0
  4 54  1  0  0  0  0
  5  6  1  1  0  0  0
  5 47  1  0  0  0  0
  6  8  2  0  0  0  0
  7  6  1  0  0  0  0
  8 10  1  0  0  0  0
  9  8  1  0  0  0  0
 10 11  1  0  0  0  0
 10 12  2  0  0  0  0
 12 13  1  0  0  0  0
 14 23  2  0  0  0  0
 14 15  1  0  0  0  0
 15 17  2  0  0  0  0
 16 15  1  0  0  0  0
 17 19  1  0  0  0  0
 17 18  1  0  0  0  0
 19 20  1  0  0  0  0
 21 22  1  0  0  0  0
 21 19  2  0  0  0  0
 23 21  1  0  0  0  0
 24 23  1  0  0  0  0
 25 26  1  0  0  0  0
 26 28  2  0  0  0  0
 26 27  1  0  0  0  0
 28 29  1  0  0  0  0
 30 31  1  0  0  0  0
 30 28  1  0  0  0  0
 32 30  2  0  0  0  0
 33 32  1  0  0  0  0
 34 32  1  0  0  0  0
 34 25  2  0  0  0  0
 35 34  1  0  0  0  0
 36 53  1  0  0  0  0
 36 37  1  0  0  0  0
 37 38  1  0  0  0  0
 39 37  2  0  0  0  0
 39 40  1  0  0  0  0
 41 39  1  0  0  0  0
 42 41  1  0  0  0  0
 43 45  1  0  0  0  0
 43 41  2  0  0  0  0
 44 43  1  0  0  0  0
 45 36  2  0  0  0  0
 46 45  1  0  0  0  0
 47 12  1  0  0  0  0
 47 54  1  0  0  0  0
 48  5  1  0  0  0  0
 48  4  1  0  0  0  0
 49 48  1  0  0  0  0
 52  4  2  0  0  0  0
 53 25  1  0  0  0  0
 53 14  1  0  0  0  0
 54  2  1  0  0  0  0
 54  3  1  0  0  0  0
 54 53  1  0  0  0  0
M  END
$$$$
