CSD_code = MODVEI | q = 0 | S = 0 | Stoichiometry = C24H29ClCuN2P | MND = 3
 OpenBabel04212202073D

 58 61  0  0  0  0  0  0  0  0999 V2000
    6.2033    5.9680    5.4784 C   0  0  0  0  0  0  0  0  0  0  0  0
    5.3535    6.2435    4.8699 H   0  0  0  0  0  0  0  0  0  0  0  0
    7.4035    9.0653    4.2845 C   0  0  0  0  0  0  0  0  0  0  0  0
    7.3800   10.3673    3.7607 C   0  0  0  0  0  0  0  0  0  0  0  0
    7.9948   10.6240    2.5437 C   0  0  0  0  0  0  0  0  0  0  0  0
    7.9625   11.6253    2.1363 H   0  0  0  0  0  0  0  0  0  0  0  0
    8.6528    9.6263    1.8452 C   0  0  0  0  0  0  0  0  0  0  0  0
    9.1257    9.8491    0.9004 H   0  0  0  0  0  0  0  0  0  0  0  0
    8.7073    8.3503    2.3739 C   0  0  0  0  0  0  0  0  0  0  0  0
    9.2278    7.5636    1.8477 H   0  0  0  0  0  0  0  0  0  0  0  0
    8.0896    8.0781    3.5818 C   0  0  0  0  0  0  0  0  0  0  0  0
    8.1394    7.0762    3.9825 H   0  0  0  0  0  0  0  0  0  0  0  0
    6.7113   11.5019    4.4919 C   0  0  0  0  0  0  0  0  0  0  0  0
    6.5723   12.3477    3.7983 H   0  0  0  0  0  0  0  0  0  0  0  0
    5.7222   11.1824    4.8391 H   0  0  0  0  0  0  0  0  0  0  0  0
    8.7993   12.4185    5.2965 C   0  0  0  0  0  0  0  0  0  0  0  0
    9.3438   11.6334    4.7743 H   0  0  0  0  0  0  0  0  0  0  0  0
    9.3437   12.6737    6.2042 H   0  0  0  0  0  0  0  0  0  0  0  0
    8.7413   13.3047    4.6499 H   0  0  0  0  0  0  0  0  0  0  0  0
    6.7529   12.9808    6.3815 C   0  0  0  0  0  0  0  0  0  0  0  0
    6.6511   13.8918    5.7764 H   0  0  0  0  0  0  0  0  0  0  0  0
    7.2942   13.2174    7.2964 H   0  0  0  0  0  0  0  0  0  0  0  0
    5.7577   12.6248    6.6478 H   0  0  0  0  0  0  0  0  0  0  0  0
    4.8883    8.8740    5.4508 C   0  0  0  0  0  0  0  0  0  0  0  0
    3.9834    9.2351    6.4524 C   0  0  0  0  0  0  0  0  0  0  0  0
    2.6506    9.4372    6.1391 C   0  0  0  0  0  0  0  0  0  0  0  0
    1.9536    9.7177    6.9161 H   0  0  0  0  0  0  0  0  0  0  0  0
    2.2110    9.2783    4.8343 C   0  0  0  0  0  0  0  0  0  0  0  0
    1.1700    9.4351    4.5946 H   0  0  0  0  0  0  0  0  0  0  0  0
    3.1040    8.9119    3.8413 C   0  0  0  0  0  0  0  0  0  0  0  0
    2.7592    8.7791    2.8264 H   0  0  0  0  0  0  0  0  0  0  0  0
    4.4410    8.7184    4.1437 C   0  0  0  0  0  0  0  0  0  0  0  0
    5.1391    8.4504    3.3629 H   0  0  0  0  0  0  0  0  0  0  0  0
    4.5358    9.3450    7.8423 C   0  0  0  0  0  0  0  0  0  0  0  0
    5.1398   10.2586    7.9230 H   0  0  0  0  0  0  0  0  0  0  0  0
    3.7335    9.3902    8.5931 H   0  0  0  0  0  0  0  0  0  0  0  0
    4.6600    6.9830    8.1534 C   0  0  0  0  0  0  0  0  0  0  0  0
    3.9925    7.0016    9.0249 H   0  0  0  0  0  0  0  0  0  0  0  0
    5.3379    6.1372    8.2517 H   0  0  0  0  0  0  0  0  0  0  0  0
    4.0570    6.8425    7.2574 H   0  0  0  0  0  0  0  0  0  0  0  0
    6.2589    8.3837    9.2252 C   0  0  0  0  0  0  0  0  0  0  0  0
    6.9182    9.2438    9.0871 H   0  0  0  0  0  0  0  0  0  0  0  0
    6.8761    7.4972    9.3574 H   0  0  0  0  0  0  0  0  0  0  0  0
    5.6583    8.5360   10.1290 H   0  0  0  0  0  0  0  0  0  0  0  0
    6.9772    6.9529    6.0805 C   0  0  0  0  0  0  0  0  0  0  0  0
    8.0724    6.5953    6.8600 C   0  0  0  0  0  0  0  0  0  0  0  0
    8.6602    7.3785    7.3222 H   0  0  0  0  0  0  0  0  0  0  0  0
    8.3957    5.2621    7.0334 C   0  0  0  0  0  0  0  0  0  0  0  0
    9.2475    4.9857    7.6374 H   0  0  0  0  0  0  0  0  0  0  0  0
    7.6218    4.2811    6.4335 C   0  0  0  0  0  0  0  0  0  0  0  0
    7.8699    3.2387    6.5701 H   0  0  0  0  0  0  0  0  0  0  0  0
    6.5292    4.6352    5.6579 C   0  0  0  0  0  0  0  0  0  0  0  0
    5.9288    3.8681    5.1903 H   0  0  0  0  0  0  0  0  0  0  0  0
    8.8046   11.1227    8.7277 Cl  0  0  0  0  0  0  0  0  0  0  0  0
    7.7109   10.3085    7.0505 Cu  0  0  0  0  0  0  0  0  0  0  0  0
    7.4743   11.9375    5.6653 N   0  0  0  0  0  4  0  0  0  0  0  0
    5.4279    8.2122    8.0461 N   0  0  0  0  0  0  0  0  0  0  0  0
    6.6412    8.7347    5.9414 P   0  0  1  0  0  4  0  0  0  0  0  0
  1 52  2  0  0  0  0
  1 45  1  0  0  0  0
  2  1  1  0  0  0  0
  3 58  1  0  0  0  0
  4  3  1  0  0  0  0
  4 13  1  0  0  0  0
  5  4  2  0  0  0  0
  6  5  1  0  0  0  0
  7  9  2  0  0  0  0
  7  5  1  0  0  0  0
  8  7  1  0  0  0  0
  9 11  1  0  0  0  0
 10  9  1  0  0  0  0
 11 12  1  0  0  0  0
 11  3  2  0  0  0  0
 13 15  1  0  0  0  0
 13 56  1  0  0  0  0
 14 13  1  0  0  0  0
 16 56  1  0  0  0  0
 16 18  1  0  0  0  0
 17 16  1  0  0  0  0
 19 16  1  0  0  0  0
 20 23  1  0  0  0  0
 20 22  1  0  0  0  0
 21 20  1  0  0  0  0
 24 25  1  0  0  0  0
 25 34  1  0  0  0  0
 26 25  2  0  0  0  0
 26 27  1  0  0  0  0
 28 26  1  0  0  0  0
 29 28  1  0  0  0  0
 30 32  1  0  0  0  0
 30 28  2  0  0  0  0
 31 30  1  0  0  0  0
 32 24  2  0  0  0  0
 33 32  1  0  0  0  0
 34 35  1  0  0  0  0
 34 57  1  0  0  0  0
 34 36  1  0  0  0  0
 37 39  1  0  0  0  0
 37 38  1  0  0  0  0
 40 37  1  0  0  0  0
 41 43  1  0  0  0  0
 41 44  1  0  0  0  0
 42 41  1  0  0  0  0
 45 46  2  0  0  0  0
 46 48  1  0  0  0  0
 46 47  1  0  0  0  0
 48 49  1  0  0  0  0
 50 51  1  0  0  0  0
 50 48  2  0  0  0  0
 52 50  1  0  0  0  0
 53 52  1  0  0  0  0
 55 54  1  0  0  0  0
 56 20  1  0  0  0  0
 56 55  1  0  0  0  0
 57 37  1  0  0  0  0
 57 41  1  0  0  0  0
 58 24  1  6  0  0  0
 58 45  1  0  0  0  0
 58 55  1  0  0  0  0
M  END
$$$$
