CSD_code = MODXUB | q = 0 | S = 0 | Stoichiometry = C16H12Cl2N4O2Pt | MND = 4
 OpenBabel04212202073D

 37 40  0  0  0  0  0  0  0  0999 V2000
   -0.0001    0.0002    0.0001 Pt  0  0  0  0  0  0  0  0  0  0  0  0
   -0.7019    0.7526    3.0722 N   0  0  0  0  0  0  0  0  0  0  0  0
   -0.7479    1.4720    2.3485 H   0  0  0  0  0  0  0  0  0  0  0  0
   -0.7478   -2.0544   -0.7630 Cl  0  0  0  0  0  0  0  0  0  0  0  0
   -0.2713   -1.4500    7.0884 O   0  0  0  0  0  0  0  0  0  0  0  0
    0.4639   -0.8747    1.7249 N   0  0  0  0  0  0  0  0  0  0  0  0
    1.3186   -2.7354    2.9775 C   0  0  0  0  0  0  0  0  0  0  0  0
    1.8732   -3.6591    2.9434 H   0  0  0  0  0  0  0  0  0  0  0  0
    1.1385   -2.0238    1.7952 C   0  0  0  0  0  3  0  0  0  0  0  0
    1.5392   -2.4032    0.8646 H   0  0  0  0  0  0  0  0  0  0  0  0
    0.7871   -2.2798    4.1709 C   0  0  0  0  0  0  0  0  0  0  0  0
    0.8950   -2.8200    5.0974 H   0  0  0  0  0  0  0  0  0  0  0  0
   -1.0078    0.8694    4.3845 C   0  0  0  0  0  0  0  0  0  0  0  0
   -1.5362    1.7269    4.7551 H   0  0  0  0  0  0  0  0  0  0  0  0
   -0.5563   -0.2305    5.0861 C   0  0  0  0  0  0  0  0  0  0  0  0
   -0.6980   -0.4841    6.5040 C   0  0  0  0  0  0  0  0  0  0  0  0
   -1.2523    0.3126    7.0391 H   0  0  0  0  0  0  0  0  0  0  0  0
    0.1030   -1.0709    4.1267 C   0  0  0  0  0  0  0  0  0  0  0  0
   -0.0162   -0.4075    2.8807 C   0  0  0  0  0  0  0  0  0  0  0  0
    0.7019   -0.7526   -3.0722 N   0  0  0  0  0  0  0  0  0  0  0  0
    0.7479   -1.4720   -2.3485 H   0  0  0  0  0  0  0  0  0  0  0  0
    0.7480    2.0545    0.7631 Cl  0  0  0  0  0  0  0  0  0  0  0  0
    0.2713    1.4500   -7.0884 O   0  0  0  0  0  0  0  0  0  0  0  0
   -0.4640    0.8746   -1.7249 N   0  0  0  0  0  0  0  0  0  0  0  0
   -1.3186    2.7354   -2.9775 C   0  0  0  0  0  0  0  0  0  0  0  0
   -1.8731    3.6592   -2.9434 H   0  0  0  0  0  0  0  0  0  0  0  0
   -1.1385    2.0238   -1.7952 C   0  0  0  0  0  3  0  0  0  0  0  0
   -1.5392    2.4032   -0.8647 H   0  0  0  0  0  0  0  0  0  0  0  0
   -0.7871    2.2797   -4.1709 C   0  0  0  0  0  0  0  0  0  0  0  0
   -0.8949    2.8200   -5.0975 H   0  0  0  0  0  0  0  0  0  0  0  0
    1.0078   -0.8694   -4.3845 C   0  0  0  0  0  0  0  0  0  0  0  0
    1.5362   -1.7269   -4.7551 H   0  0  0  0  0  0  0  0  0  0  0  0
    0.5563    0.2305   -5.0861 C   0  0  0  0  0  0  0  0  0  0  0  0
    0.6980    0.4841   -6.5040 C   0  0  0  0  0  0  0  0  0  0  0  0
    1.2523   -0.3127   -7.0391 H   0  0  0  0  0  0  0  0  0  0  0  0
   -0.1030    1.0709   -4.1267 C   0  0  0  0  0  0  0  0  0  0  0  0
    0.0162    0.4075   -2.8807 C   0  0  0  0  0  0  0  0  0  0  0  0
  1 22  1  0  0  0  0
  1  6  1  0  0  0  0
  2 13  1  0  0  0  0
  3  2  1  0  0  0  0
  4  1  1  0  0  0  0
  6  9  1  0  0  0  0
  6 19  1  0  0  0  0
  7 11  2  0  0  0  0
  8  7  1  0  0  0  0
  9  7  1  0  0  0  0
 10  9  1  0  0  0  0
 11 12  1  0  0  0  0
 13 14  1  0  0  0  0
 13 15  2  0  0  0  0
 15 16  1  0  0  0  0
 16 17  1  0  0  0  0
 16  5  2  0  0  0  0
 18 11  1  0  0  0  0
 18 15  1  0  0  0  0
 19  2  1  0  0  0  0
 19 18  2  0  0  0  0
 20 37  1  0  0  0  0
 20 21  1  0  0  0  0
 23 34  2  0  0  0  0
 24  1  1  0  0  0  0
 25 26  1  0  0  0  0
 25 27  1  0  0  0  0
 27 24  1  0  0  0  0
 27 28  1  0  0  0  0
 29 36  1  0  0  0  0
 29 25  2  0  0  0  0
 30 29  1  0  0  0  0
 31 20  1  0  0  0  0
 32 31  1  0  0  0  0
 33 31  2  0  0  0  0
 33 36  1  0  0  0  0
 34 33  1  0  0  0  0
 35 34  1  0  0  0  0
 36 37  2  0  0  0  0
 37 24  1  0  0  0  0
M  END
$$$$
