CSD_code = MOFHEW | q = 0 | S = 0 | Stoichiometry = C10H23BrF2O3SiZn | MND = 5
 OpenBabel04212202073D

 41 39  0  0  0  0  0  0  0  0999 V2000
    2.1855    4.6891    2.6590 Br  0  0  0  0  0  0  0  0  0  0  0  0
    1.5912    3.9781    4.8176 Zn  0  0  0  0  0  0  0  0  0  0  0  0
    1.3570    2.6059    8.0058 Si  0  0  0  0  0  0  0  0  0  0  0  0
    3.3133    2.2234    6.1823 F   0  0  0  0  0  0  0  0  0  0  0  0
    3.2781    4.2392    7.0373 F   0  0  0  0  0  0  0  0  0  0  0  0
    0.4411    1.9296    4.1029 O   0  0  0  0  0  0  0  0  0  0  0  0
   -0.6665    4.4166    4.3622 O   0  0  0  0  0  0  0  0  0  0  0  0
    0.9668    6.2005    5.6387 O   0  0  0  0  0  0  0  0  0  0  0  0
    2.4242    3.2491    6.5304 C   0  0  0  0  0  0  0  0  0  0  0  0
    2.4992    2.3467    9.5051 C   0  0  0  0  0  0  0  0  0  0  0  0
    1.9454    1.9672   10.3587 H   0  0  0  0  0  0  0  0  0  0  0  0
    2.9745    3.2776    9.8002 H   0  0  0  0  0  0  0  0  0  0  0  0
    3.2875    1.6358    9.2757 H   0  0  0  0  0  0  0  0  0  0  0  0
    0.5476    0.9763    7.4403 C   0  0  0  0  0  0  0  0  0  0  0  0
   -0.2187    0.6562    8.1394 H   0  0  0  0  0  0  0  0  0  0  0  0
    1.2840    0.1817    7.3711 H   0  0  0  0  0  0  0  0  0  0  0  0
    0.0899    1.0815    6.4612 H   0  0  0  0  0  0  0  0  0  0  0  0
    0.0408    3.9442    8.3587 C   0  0  0  0  0  0  0  0  0  0  0  0
   -0.1773    4.0062    9.4198 H   0  0  0  0  0  0  0  0  0  0  0  0
   -0.8935    3.7235    7.8501 H   0  0  0  0  0  0  0  0  0  0  0  0
    0.3785    4.9232    8.0315 H   0  0  0  0  0  0  0  0  0  0  0  0
    1.2465    1.0073    3.3926 C   0  0  0  0  0  0  0  0  0  0  0  0
    0.7039    0.0687    3.2388 H   0  0  0  0  0  0  0  0  0  0  0  0
    2.1261    0.8291    4.0075 H   0  0  0  0  0  0  0  0  0  0  0  0
    1.5508    1.4141    2.4228 H   0  0  0  0  0  0  0  0  0  0  0  0
   -0.7541    2.2559    3.4276 C   0  0  0  0  0  0  0  0  0  0  0  0
   -1.3731    1.3570    3.2977 H   0  0  0  0  0  0  0  0  0  0  0  0
   -0.5261    2.6842    2.4415 H   0  0  0  0  0  0  0  0  0  0  0  0
   -1.5010    3.2873    4.2641 C   0  0  0  0  0  0  0  0  0  0  0  0
   -2.4452    3.5537    3.7699 H   0  0  0  0  0  0  0  0  0  0  0  0
   -1.7148    2.8803    5.2626 H   0  0  0  0  0  0  0  0  0  0  0  0
   -1.2254    5.5338    5.0134 C   0  0  0  0  0  0  0  0  0  0  0  0
   -1.4587    5.2911    6.0588 H   0  0  0  0  0  0  0  0  0  0  0  0
   -2.1423    5.8531    4.4993 H   0  0  0  0  0  0  0  0  0  0  0  0
   -0.1864    6.6463    4.9581 C   0  0  0  0  0  0  0  0  0  0  0  0
    0.0555    6.8684    3.9092 H   0  0  0  0  0  0  0  0  0  0  0  0
   -0.5820    7.5523    5.4380 H   0  0  0  0  0  0  0  0  0  0  0  0
    2.0108    7.1563    5.6400 C   0  0  0  0  0  0  0  0  0  0  0  0
    1.6815    8.0771    6.1332 H   0  0  0  0  0  0  0  0  0  0  0  0
    2.3359    7.3876    4.6204 H   0  0  0  0  0  0  0  0  0  0  0  0
    2.8341    6.7141    6.1968 H   0  0  0  0  0  0  0  0  0  0  0  0
  1  2  1  0  0  0  0
  2  9  1  0  0  0  0
  3 18  1  0  0  0  0
  3 10  1  0  0  0  0
  4  9  1  0  0  0  0
  7 32  1  0  0  0  0
  8 38  1  0  0  0  0
  9  5  1  0  0  0  0
  9  3  1  0  0  0  0
 10 12  1  0  0  0  0
 10 11  1  0  0  0  0
 13 10  1  0  0  0  0
 14  3  1  0  0  0  0
 14 15  1  0  0  0  0
 16 14  1  0  0  0  0
 17 14  1  0  0  0  0
 18 19  1  0  0  0  0
 20 18  1  0  0  0  0
 21 18  1  0  0  0  0
 22 24  1  0  0  0  0
 22  6  1  0  0  0  0
 23 22  1  0  0  0  0
 25 22  1  0  0  0  0
 26  6  1  0  0  0  0
 26 29  1  0  0  0  0
 27 26  1  0  0  0  0
 28 26  1  0  0  0  0
 29  7  1  0  0  0  0
 29 31  1  0  0  0  0
 30 29  1  0  0  0  0
 32 33  1  0  0  0  0
 34 32  1  0  0  0  0
 35 32  1  0  0  0  0
 35 37  1  0  0  0  0
 35  8  1  0  0  0  0
 36 35  1  0  0  0  0
 38 39  1  0  0  0  0
 38 41  1  0  0  0  0
 40 38  1  0  0  0  0
M  END
$$$$
