CSD_code = MOGRUW | q = 1 | S = 0 | Stoichiometry = C14H18ClN4O2Ru(1+) | MND = 6
 OpenBabel04212202073D

 40 43  0  0  1  0  0  0  0  0999 V2000
    1.1852    6.9341    7.0449 Ru  0  0  0  0  0  0  0  0  0  0  0  0
    2.5631    7.8891    5.4067 Cl  0  0  0  0  0  0  0  0  0  0  0  0
   -0.6688    8.9309    6.2929 O   0  0  0  0  0  1  0  0  0  0  0  0
    2.5950    5.6315    7.3014 O   0  0  0  0  0  0  0  0  0  0  0  0
    0.0285    8.1025    6.6927 N   0  0  0  0  0  2  0  0  0  0  0  0
    0.2296    5.8161    8.5597 N   0  0  1  0  0  4  0  0  0  0  0  0
    0.3377    5.5619    5.7919 N   0  0  0  0  0  0  0  0  0  0  0  0
    2.0433    7.9107    8.6132 N   0  0  0  0  0  0  0  0  0  0  0  0
   -1.1247    6.2432    8.9564 C   0  0  0  0  0  0  0  0  0  0  0  0
   -1.1925    7.6245    9.5940 C   0  0  0  0  0  0  0  0  0  0  0  0
    0.1538    4.4687    7.9602 C   0  0  0  0  0  0  0  0  0  0  0  0
    1.1695    5.9009    9.6932 C   0  0  0  0  0  0  0  0  0  0  0  0
   -0.1445    4.5167    6.4791 C   0  0  2  0  0  3  0  0  0  0  0  0
   -0.8045    3.4824    5.8302 C   0  0  0  0  0  0  0  0  0  0  0  0
   -0.9505    3.5299    4.4514 C   0  0  0  0  0  0  0  0  0  0  0  0
   -0.4305    4.6119    3.7579 C   0  0  0  0  0  0  0  0  0  0  0  0
    0.2044    5.6153    4.4705 C   0  0  0  0  0  0  0  0  0  0  0  0
    1.8682    7.2411    9.7615 C   0  0  1  0  0  3  0  0  0  0  0  0
    2.3888    7.7268   10.9534 C   0  0  0  0  0  0  0  0  0  0  0  0
    3.1051    8.9143   10.9495 C   0  0  0  0  0  0  0  0  0  0  0  0
    3.2821    9.5868    9.7500 C   0  0  0  0  0  0  0  0  0  0  0  0
    2.7292    9.0499    8.6000 C   0  0  0  0  0  0  0  0  0  0  0  0
   -1.5305    5.5117    9.6696 H   0  0  0  0  0  0  0  0  0  0  0  0
   -1.7530    6.2235    8.0594 H   0  0  0  0  0  0  0  0  0  0  0  0
   -0.7258    8.3865    8.9715 H   0  0  0  0  0  0  0  0  0  0  0  0
   -0.7232    7.6431   10.5738 H   0  0  0  0  0  0  0  0  0  0  0  0
   -2.2372    7.8954    9.7222 H   0  0  0  0  0  0  0  0  0  0  0  0
   -0.5775    3.8401    8.4825 H   0  0  0  0  0  0  0  0  0  0  0  0
    1.1417    3.9981    8.0454 H   0  0  0  0  0  0  0  0  0  0  0  0
    0.6707    5.6707   10.6414 H   0  0  0  0  0  0  0  0  0  0  0  0
    1.9663    5.1629    9.5364 H   0  0  0  0  0  0  0  0  0  0  0  0
   -1.1891    2.6489    6.3964 H   0  0  0  0  0  0  0  0  0  0  0  0
   -1.4565    2.7323    3.9306 H   0  0  0  0  0  0  0  0  0  0  0  0
   -0.5122    4.6818    2.6858 H   0  0  0  0  0  0  0  0  0  0  0  0
    0.6328    6.4819    3.9799 H   0  0  0  0  0  0  0  0  0  0  0  0
    2.2424    7.1759   11.8692 H   0  0  0  0  0  0  0  0  0  0  0  0
    3.5206    9.3020   11.8663 H   0  0  0  0  0  0  0  0  0  0  0  0
    3.8394   10.5076    9.7009 H   0  0  0  0  0  0  0  0  0  0  0  0
    2.8440    9.5289    7.6341 H   0  0  0  0  0  0  0  0  0  0  0  0
    3.3592    5.7151    6.7203 H   0  0  0  0  0  0  0  0  0  0  0  0
  1  4  1  0  0  0  0
  1  6  1  0  0  0  0
  1  8  1  0  0  0  0
  2  1  1  0  0  0  0
  3  5  1  0  0  0  0
  5  1  1  0  0  0  0
  6  9  1  1  0  0  0
  6 12  1  0  0  0  0
  7 13  1  0  0  0  0
  7  1  1  0  0  0  0
  8 18  1  0  0  0  0
  9 10  1  0  0  0  0
  9 23  1  0  0  0  0
 10 27  1  0  0  0  0
 10 26  1  0  0  0  0
 11 29  1  0  0  0  0
 11 28  1  0  0  0  0
 11  6  1  0  0  0  0
 12 18  1  0  0  0  0
 12 30  1  0  0  0  0
 13 14  1  6  0  0  0
 13 11  1  0  0  0  0
 14 32  1  0  0  0  0
 15 14  2  0  0  0  0
 16 15  1  0  0  0  0
 16 17  2  0  0  0  0
 17  7  1  0  0  0  0
 18 19  1  6  0  0  0
 19 36  1  0  0  0  0
 20 19  2  0  0  0  0
 20 37  1  0  0  0  0
 21 20  1  0  0  0  0
 22  8  1  0  0  0  0
 22 21  2  0  0  0  0
 24  9  1  0  0  0  0
 25 10  1  0  0  0  0
 31 12  1  0  0  0  0
 33 15  1  0  0  0  0
 34 16  1  0  0  0  0
 35 17  1  0  0  0  0
 38 21  1  0  0  0  0
 39 22  1  0  0  0  0
 40  4  1  0  0  0  0
M  END
$$$$
