CSD_code = MOGROQ | q = 1 | S = 0 | Stoichiometry = C14H17Cl2N4ORu(1+) | MND = 6
 OpenBabel04212202073D

 39 42  0  0  1  0  0  0  0  0999 V2000
    3.3246    4.6539    1.8263 Ru  0  0  0  0  0  0  0  0  0  0  0  0
    2.2884    2.8127    2.7900 Cl  0  0  0  0  0  0  0  0  0  0  0  0
    1.3145    5.1982    0.7716 Cl  0  0  0  0  0  0  0  0  0  0  0  0
    2.7204    6.4935    3.8705 O   0  0  0  0  0  1  0  0  0  0  0  0
    2.9760    5.7345    3.0562 N   0  0  0  0  0  2  0  0  0  0  0  0
    5.2665    3.9824    2.5050 N   0  0  2  0  0  4  0  0  0  0  0  0
    4.4887    5.9321    0.6528 N   0  0  0  0  0  0  0  0  0  0  0  0
    3.7966    3.3350    0.2988 N   0  0  0  0  0  0  0  0  0  0  0  0
    5.3103    3.9225    3.9854 C   0  0  0  0  0  0  0  0  0  0  0  0
    6.5910    3.3330    4.5686 C   0  0  0  0  0  0  0  0  0  0  0  0
    6.2763    4.9195    1.9722 C   0  0  0  0  0  0  0  0  0  0  0  0
    5.4193    2.6328    1.9399 C   0  0  0  0  0  0  0  0  0  0  0  0
    5.8049    5.7443    0.7978 C   0  0  2  0  0  3  0  0  0  0  0  0
    6.7108    6.3630   -0.0548 C   0  0  0  0  0  0  0  0  0  0  0  0
    6.2381    7.1935   -1.0592 C   0  0  0  0  0  0  0  0  0  0  0  0
    4.8695    7.3839   -1.1847 C   0  0  0  0  0  0  0  0  0  0  0  0
    4.0243    6.7249   -0.3097 C   0  0  0  0  0  0  0  0  0  0  0  0
    4.8325    2.5267    0.5612 C   0  0  1  0  0  3  0  0  0  0  0  0
    5.2770    1.5844   -0.3554 C   0  0  0  0  0  0  0  0  0  0  0  0
    4.6217    1.4621   -1.5701 C   0  0  0  0  0  0  0  0  0  0  0  0
    3.5455    2.2969   -1.8300 C   0  0  0  0  0  0  0  0  0  0  0  0
    3.1694    3.2232   -0.8740 C   0  0  0  0  0  0  0  0  0  0  0  0
    4.4512    3.3260    4.3087 H   0  0  0  0  0  0  0  0  0  0  0  0
    5.1808    4.9409    4.3654 H   0  0  0  0  0  0  0  0  0  0  0  0
    7.4758    3.8723    4.2394 H   0  0  0  0  0  0  0  0  0  0  0  0
    6.7034    2.2815    4.3224 H   0  0  0  0  0  0  0  0  0  0  0  0
    6.5398    3.4109    5.6509 H   0  0  0  0  0  0  0  0  0  0  0  0
    6.5374    5.6324    2.7644 H   0  0  0  0  0  0  0  0  0  0  0  0
    7.1951    4.3878    1.6971 H   0  0  0  0  0  0  0  0  0  0  0  0
    6.4674    2.3122    1.9395 H   0  0  0  0  0  0  0  0  0  0  0  0
    4.8394    1.9482    2.5743 H   0  0  0  0  0  0  0  0  0  0  0  0
    7.7695    6.2023    0.0748 H   0  0  0  0  0  0  0  0  0  0  0  0
    6.9276    7.6845   -1.7278 H   0  0  0  0  0  0  0  0  0  0  0  0
    4.4614    8.0286   -1.9454 H   0  0  0  0  0  0  0  0  0  0  0  0
    2.9453    6.8188   -0.3621 H   0  0  0  0  0  0  0  0  0  0  0  0
    6.1111    0.9465   -0.1093 H   0  0  0  0  0  0  0  0  0  0  0  0
    4.9403    0.7268   -2.2920 H   0  0  0  0  0  0  0  0  0  0  0  0
    2.9975    2.2310   -2.7553 H   0  0  0  0  0  0  0  0  0  0  0  0
    2.3275    3.8886   -1.0305 H   0  0  0  0  0  0  0  0  0  0  0  0
  1  6  1  0  0  0  0
  1  2  1  0  0  0  0
  1  5  1  0  0  0  0
  3  1  1  0  0  0  0
  5  4  1  0  0  0  0
  6  9  1  1  0  0  0
  7 13  1  0  0  0  0
  7  1  1  0  0  0  0
  8 18  1  0  0  0  0
  8  1  1  0  0  0  0
  9 23  1  0  0  0  0
  9 24  1  0  0  0  0
  9 10  1  0  0  0  0
 10 27  1  0  0  0  0
 11  6  1  0  0  0  0
 11 28  1  0  0  0  0
 12  6  1  0  0  0  0
 12 31  1  0  0  0  0
 13 14  1  1  0  0  0
 13 11  1  0  0  0  0
 14 32  1  0  0  0  0
 15 14  2  0  0  0  0
 16 15  1  0  0  0  0
 16 17  2  0  0  0  0
 17  7  1  0  0  0  0
 18 19  1  1  0  0  0
 18 12  1  0  0  0  0
 19 36  1  0  0  0  0
 20 19  2  0  0  0  0
 21 20  1  0  0  0  0
 21 22  2  0  0  0  0
 22  8  1  0  0  0  0
 25 10  1  0  0  0  0
 26 10  1  0  0  0  0
 29 11  1  0  0  0  0
 30 12  1  0  0  0  0
 33 15  1  0  0  0  0
 34 16  1  0  0  0  0
 35 17  1  0  0  0  0
 37 20  1  0  0  0  0
 38 21  1  0  0  0  0
 39 22  1  0  0  0  0
M  END
$$$$
