CSD_code = MOHGIB | q = 0 | S = 0 | Stoichiometry = C22H20ClN2O2PPd | MND = 4
 OpenBabel04212202073D

 49 53  0  0  0  0  0  0  0  0999 V2000
   13.9198    1.6983    9.5801 Pd  0  0  2  0  0  0  0  0  0  0  0  0
   12.8377   -0.1881   10.0742 Cl  0  0  0  0  0  0  0  0  0  0  0  0
   12.0022    2.7347    9.8067 P   0  0  0  0  0  4  0  0  0  0  0  0
   15.7808    0.8080    9.2108 O   0  0  0  0  0  0  0  0  0  0  0  0
   17.8596    1.5003    8.7343 O   0  0  0  0  0  0  0  0  0  0  0  0
   14.9680    3.3046    9.1516 N   0  0  0  0  0  0  0  0  0  0  0  0
   16.2585    3.0405    8.9070 N   0  0  0  0  0  0  0  0  0  0  0  0
   13.3402    5.1744    9.2695 C   0  0  0  0  0  0  0  0  0  0  0  0
   12.1264    4.5360    9.5952 C   0  0  0  0  0  0  0  0  0  0  0  0
   10.9601    5.2834    9.7334 C   0  0  0  0  0  0  0  0  0  0  0  0
   10.0426    4.7717    9.9879 H   0  0  0  0  0  0  0  0  0  0  0  0
   10.9579    6.6536    9.5651 C   0  0  0  0  0  0  0  0  0  0  0  0
   10.0432    7.2150    9.6784 H   0  0  0  0  0  0  0  0  0  0  0  0
   12.1468    7.2977    9.2506 C   0  0  0  0  0  0  0  0  0  0  0  0
   12.1633    8.3691    9.1186 H   0  0  0  0  0  0  0  0  0  0  0  0
   13.3077    6.5714    9.1073 C   0  0  0  0  0  0  0  0  0  0  0  0
   14.2267    7.0836    8.8623 H   0  0  0  0  0  0  0  0  0  0  0  0
   14.6285    4.5557    9.0833 C   0  0  0  0  0  3  0  0  0  0  0  0
   15.4417    5.2389    8.8419 H   0  0  0  0  0  0  0  0  0  0  0  0
   16.5724    1.7530    8.9696 C   0  0  0  0  0  0  0  0  0  0  0  0
   18.2387    0.1258    8.7875 C   0  0  0  0  0  0  0  0  0  0  0  0
   17.6681   -0.4337    8.0364 H   0  0  0  0  0  0  0  0  0  0  0  0
   17.9860   -0.2799    9.7745 H   0  0  0  0  0  0  0  0  0  0  0  0
   19.7296    0.0393    8.5223 C   0  0  0  0  0  0  0  0  0  0  0  0
   20.0450   -0.9998    8.5482 H   0  0  0  0  0  0  0  0  0  0  0  0
   20.2755    0.5985    9.2770 H   0  0  0  0  0  0  0  0  0  0  0  0
   19.9590    0.4596    7.5470 H   0  0  0  0  0  0  0  0  0  0  0  0
   10.9798    2.4997   11.2799 C   0  0  0  0  0  0  0  0  0  0  0  0
   11.0927    3.3794   12.3539 C   0  0  0  0  0  0  0  0  0  0  0  0
   11.7457    4.2389   12.2771 H   0  0  0  0  0  0  0  0  0  0  0  0
   10.3712    3.1493   13.5108 C   0  0  0  0  0  0  0  0  0  0  0  0
   10.4568    3.8331   14.3425 H   0  0  0  0  0  0  0  0  0  0  0  0
    9.5473    2.0390   13.6059 C   0  0  0  0  0  0  0  0  0  0  0  0
    8.9869    1.8612   14.5117 H   0  0  0  0  0  0  0  0  0  0  0  0
    9.4534    1.1497   12.5470 C   0  0  0  0  0  0  0  0  0  0  0  0
    8.8251    0.2756   12.6296 H   0  0  0  0  0  0  0  0  0  0  0  0
   10.1715    1.3706   11.3862 C   0  0  0  0  0  0  0  0  0  0  0  0
   10.1323    0.6659   10.5684 H   0  0  0  0  0  0  0  0  0  0  0  0
   10.9905    2.2396    8.3765 C   0  0  0  0  0  0  0  0  0  0  0  0
    9.6073    2.3693    8.3235 C   0  0  0  0  0  0  0  0  0  0  0  0
    9.0648    2.7489    9.1776 H   0  0  0  0  0  0  0  0  0  0  0  0
    8.9224    1.9864    7.1835 C   0  0  0  0  0  0  0  0  0  0  0  0
    7.8469    2.0789    7.1481 H   0  0  0  0  0  0  0  0  0  0  0  0
    9.6103    1.4799    6.0935 C   0  0  0  0  0  0  0  0  0  0  0  0
    9.0705    1.1773    5.2087 H   0  0  0  0  0  0  0  0  0  0  0  0
   10.9899    1.3502    6.1401 C   0  0  0  0  0  0  0  0  0  0  0  0
   11.5232    0.9465    5.2927 H   0  0  0  0  0  0  0  0  0  0  0  0
   11.6798    1.7276    7.2770 C   0  0  0  0  0  0  0  0  0  0  0  0
   12.7725    1.6084    7.3317 H   0  0  0  0  0  0  0  0  0  0  0  0
  1  3  1  0  0  0  0
  1  2  1  1  0  0  0
  3 28  1  0  0  0  0
  4  1  1  0  0  0  0
  5 21  1  0  0  0  0
  5 20  1  0  0  0  0
  6  1  1  0  0  0  0
  7 20  2  0  0  0  0
  7  6  1  0  0  0  0
  8  9  1  0  0  0  0
  9 10  2  0  0  0  0
  9  3  1  0  0  0  0
 10 11  1  0  0  0  0
 12 13  1  0  0  0  0
 12 10  1  0  0  0  0
 14 12  2  0  0  0  0
 15 14  1  0  0  0  0
 16 14  1  0  0  0  0
 16  8  2  0  0  0  0
 17 16  1  0  0  0  0
 18  6  1  0  0  0  0
 18  8  1  0  0  0  0
 19 18  1  0  0  0  0
 20  4  1  0  0  0  0
 21 23  1  0  0  0  0
 22 21  1  0  0  0  0
 24 25  1  0  0  0  0
 24 21  1  0  0  0  0
 24 26  1  0  0  0  0
 27 24  1  0  0  0  0
 28 37  2  0  0  0  0
 28 29  1  0  0  0  0
 29 31  2  0  0  0  0
 30 29  1  0  0  0  0
 31 33  1  0  0  0  0
 31 32  1  0  0  0  0
 33 34  1  0  0  0  0
 35 36  1  0  0  0  0
 35 33  2  0  0  0  0
 37 35  1  0  0  0  0
 38 37  1  0  0  0  0
 39  3  1  0  0  0  0
 40 39  1  0  0  0  0
 40 41  1  0  0  0  0
 42 40  2  0  0  0  0
 43 42  1  0  0  0  0
 44 46  2  0  0  0  0
 44 42  1  0  0  0  0
 45 44  1  0  0  0  0
 46 48  1  0  0  0  0
 47 46  1  0  0  0  0
 48 49  1  0  0  0  0
 48 39  2  0  0  0  0
M  END
$$$$
