CSD_code = MOHPOQ | q = 0 | S = 0 | Stoichiometry = C15H13BrClN3OPdS | MND = 4
 OpenBabel04212202073D

 36 39  0  0  0  0  0  0  0  0999 V2000
    8.6620    3.0442    1.2035 Pd  0  0  2  0  0  0  0  0  0  0  0  0
    8.8361    5.0782    2.1043 Cl  0  0  0  0  0  0  0  0  0  0  0  0
    3.3797    0.4865   -3.4005 Br  0  0  0  0  0  0  0  0  0  0  0  0
   10.6082    2.3999    2.1722 S   0  0  2  0  0  3  0  0  0  0  0  0
    6.8988    3.5432    0.3753 O   0  0  0  0  0  0  0  0  0  0  0  0
    8.5197    1.1736    0.5042 N   0  0  0  0  0  0  0  0  0  0  0  0
    9.4595    0.2614    0.8906 N   0  0  0  0  0  0  0  0  0  0  0  0
   11.4226   -0.1465    2.0820 N   0  0  0  0  0  0  0  0  0  0  0  0
   12.1522    0.3386    2.5880 H   0  0  0  0  0  0  0  0  0  0  0  0
    7.5952    0.7236   -0.2950 C   0  0  0  0  0  0  0  0  0  0  0  0
    7.6762   -0.3183   -0.6040 H   0  0  0  0  0  0  0  0  0  0  0  0
    6.4937    1.4607   -0.7901 C   0  0  0  0  0  0  0  0  0  0  0  0
    6.2089    2.8225   -0.4216 C   0  0  0  0  0  0  0  0  0  0  0  0
    5.0412    3.4132   -0.9892 C   0  0  0  0  0  0  0  0  0  0  0  0
    4.8319    4.4331   -0.7064 H   0  0  0  0  0  0  0  0  0  0  0  0
    4.2247    2.7424   -1.8504 C   0  0  0  0  0  0  0  0  0  0  0  0
    3.3506    3.2200   -2.2664 H   0  0  0  0  0  0  0  0  0  0  0  0
    4.5268    1.4186   -2.1967 C   0  0  0  0  0  0  0  0  0  0  0  0
    5.6254    0.7931   -1.6819 C   0  0  0  0  0  3  0  0  0  0  0  0
    5.8462   -0.2282   -1.9556 H   0  0  0  0  0  0  0  0  0  0  0  0
   10.4278    0.6303    1.6227 C   0  0  0  0  0  0  0  0  0  0  0  0
    9.8402    2.2289    3.8265 C   0  0  0  0  0  0  0  0  0  0  0  0
    8.8631    1.7438    3.7454 H   0  0  0  0  0  0  0  0  0  0  0  0
    9.7223    3.2490    4.1920 H   0  0  0  0  0  0  0  0  0  0  0  0
   10.5016    1.6628    4.4776 H   0  0  0  0  0  0  0  0  0  0  0  0
   11.6417   -1.5144    1.8929 C   0  0  0  0  0  0  0  0  0  0  0  0
   10.7535   -2.3331    1.2041 C   0  0  0  0  0  0  0  0  0  0  0  0
    9.8583   -1.9067    0.7856 H   0  0  0  0  0  0  0  0  0  0  0  0
   11.0338   -3.6803    1.0644 C   0  0  0  0  0  0  0  0  0  0  0  0
   10.3418   -4.3114    0.5279 H   0  0  0  0  0  0  0  0  0  0  0  0
   12.1880   -4.2221    1.6043 C   0  0  0  0  0  0  0  0  0  0  0  0
   12.3994   -5.2739    1.4904 H   0  0  0  0  0  0  0  0  0  0  0  0
   13.0713   -3.4062    2.2923 C   0  0  0  0  0  0  0  0  0  0  0  0
   13.9737   -3.8190    2.7169 H   0  0  0  0  0  0  0  0  0  0  0  0
   12.8025   -2.0593    2.4387 C   0  0  0  0  0  0  0  0  0  0  0  0
   13.4933   -1.4235    2.9746 H   0  0  0  0  0  0  0  0  0  0  0  0
  1  2  1  1  0  0  0
  1  4  1  0  0  0  0
  3 18  1  0  0  0  0
  4 22  1  1  0  0  0
  5  1  1  0  0  0  0
  6  7  1  0  0  0  0
  6  1  1  0  0  0  0
  7 21  2  0  0  0  0
  8  9  1  0  0  0  0
 10  6  1  0  0  0  0
 11 10  1  0  0  0  0
 12 13  1  0  0  0  0
 12 10  2  0  0  0  0
 13  5  1  0  0  0  0
 14 15  1  0  0  0  0
 14 13  2  0  0  0  0
 16 14  1  0  0  0  0
 17 16  1  0  0  0  0
 18 16  2  0  0  0  0
 18 19  1  0  0  0  0
 19 12  1  0  0  0  0
 20 19  1  0  0  0  0
 21  8  1  0  0  0  0
 21  4  1  0  0  0  0
 22 24  1  0  0  0  0
 22 25  1  0  0  0  0
 23 22  1  0  0  0  0
 26  8  1  0  0  0  0
 26 35  1  0  0  0  0
 27 26  2  0  0  0  0
 28 27  1  0  0  0  0
 29 27  1  0  0  0  0
 29 31  2  0  0  0  0
 30 29  1  0  0  0  0
 31 33  1  0  0  0  0
 32 31  1  0  0  0  0
 33 35  2  0  0  0  0
 33 34  1  0  0  0  0
 35 36  1  0  0  0  0
M  END
$$$$
