CSD_code = MOHPUW | q = 0 | S = 0 | Stoichiometry = C15H22ClN3OPdS | MND = 4
 OpenBabel04212202073D

 44 46  0  0  0  0  0  0  0  0999 V2000
   -1.1294   -4.4810   11.6288 Pd  0  0  1  0  0  0  0  0  0  0  0  0
   -2.9346   -5.4807   12.5897 S   0  0  2  0  0  3  0  0  0  0  0  0
    0.2455   -5.3644   13.1633 Cl  0  0  0  0  0  0  0  0  0  0  0  0
    0.4224   -3.5547   10.7408 O   0  0  0  0  0  0  0  0  0  0  0  0
   -2.4099   -3.6805   10.3217 N   0  0  0  0  0  0  0  0  0  0  0  0
   -3.7482   -3.8618   10.5379 N   0  0  0  0  0  0  0  0  0  0  0  0
   -5.4231   -4.7115   11.8753 N   0  0  0  0  0  0  0  0  0  0  0  0
   -6.1120   -4.3835   11.2163 H   0  0  0  0  0  0  0  0  0  0  0  0
   -5.6668   -5.5267   12.4136 H   0  0  0  0  0  0  0  0  0  0  0  0
   -2.0983   -2.9756    9.2716 C   0  0  0  0  0  0  0  0  0  0  0  0
   -2.9264   -2.6318    8.6516 H   0  0  0  0  0  0  0  0  0  0  0  0
   -0.7949   -2.6082    8.8734 C   0  0  0  0  0  0  0  0  0  0  0  0
    0.3868   -2.9128    9.6360 C   0  0  0  0  0  0  0  0  0  0  0  0
    1.6256   -2.4371    9.1178 C   0  0  0  0  0  0  0  0  0  0  0  0
    2.5069   -2.6654    9.6977 H   0  0  0  0  0  0  0  0  0  0  0  0
    1.7041   -1.7407    7.9477 C   0  0  0  0  0  0  0  0  0  0  0  0
    2.6650   -1.4053    7.5854 H   0  0  0  0  0  0  0  0  0  0  0  0
    0.5477   -1.4542    7.2061 C   0  0  0  0  0  0  0  0  0  0  0  0
    0.6224   -0.9030    6.2816 H   0  0  0  0  0  0  0  0  0  0  0  0
   -0.6640   -1.8780    7.6686 C   0  0  0  0  0  3  0  0  0  0  0  0
   -1.5634   -1.6617    7.1088 H   0  0  0  0  0  0  0  0  0  0  0  0
   -4.1259   -4.5726   11.5156 C   0  0  0  0  0  0  0  0  0  0  0  0
   -3.0500   -4.4570   14.1042 C   0  0  0  0  0  0  0  0  0  0  0  0
   -4.0806   -4.5084   14.4588 H   0  0  0  0  0  0  0  0  0  0  0  0
   -2.3888   -4.9674   14.8065 H   0  0  0  0  0  0  0  0  0  0  0  0
   -2.5975   -3.0182   13.8910 C   0  0  0  0  0  0  0  0  0  0  0  0
   -3.2232   -2.5383   13.1278 H   0  0  0  0  0  0  0  0  0  0  0  0
   -1.5385   -3.0159   13.5510 H   0  0  0  0  0  0  0  0  0  0  0  0
   -2.6923   -2.2202   15.1913 C   0  0  0  0  0  0  0  0  0  0  0  0
   -3.7280   -2.2109   15.5408 H   0  0  0  0  0  0  0  0  0  0  0  0
   -2.0845   -2.7085   15.9551 H   0  0  0  0  0  0  0  0  0  0  0  0
   -2.2060   -0.7853   15.0021 C   0  0  0  0  0  0  0  0  0  0  0  0
   -2.8256   -0.2863   14.2530 H   0  0  0  0  0  0  0  0  0  0  0  0
   -1.1808   -0.8017   14.6265 H   0  0  0  0  0  0  0  0  0  0  0  0
   -2.2532    0.0058   16.3069 C   0  0  0  0  0  0  0  0  0  0  0  0
   -1.6261   -0.4907   17.0507 H   0  0  0  0  0  0  0  0  0  0  0  0
   -3.2767    0.0143   16.6900 H   0  0  0  0  0  0  0  0  0  0  0  0
   -1.7721    1.4432   16.1240 C   0  0  0  0  0  0  0  0  0  0  0  0
   -2.4068    1.9462   15.3907 H   0  0  0  0  0  0  0  0  0  0  0  0
   -0.7541    1.4335   15.7289 H   0  0  0  0  0  0  0  0  0  0  0  0
   -1.7989    2.2193   17.4349 C   0  0  0  0  0  0  0  0  0  0  0  0
   -2.8093    2.2565   17.8368 H   0  0  0  0  0  0  0  0  0  0  0  0
   -1.4522    3.2387   17.2834 H   0  0  0  0  0  0  0  0  0  0  0  0
   -1.1554    1.7441   18.1719 H   0  0  0  0  0  0  0  0  0  0  0  0
  1  2  1  0  0  0  0
  1  3  1  1  0  0  0
  2 23  1  1  0  0  0
  4  1  1  0  0  0  0
  5  6  1  0  0  0  0
  5  1  1  0  0  0  0
  6 22  2  0  0  0  0
  7  9  1  0  0  0  0
  8  7  1  0  0  0  0
 10  5  1  0  0  0  0
 11 10  1  0  0  0  0
 12 10  2  0  0  0  0
 12 13  1  0  0  0  0
 13  4  1  0  0  0  0
 14 13  2  0  0  0  0
 14 15  1  0  0  0  0
 16 14  1  0  0  0  0
 17 16  1  0  0  0  0
 18 20  1  0  0  0  0
 18 16  2  0  0  0  0
 19 18  1  0  0  0  0
 20 12  1  0  0  0  0
 21 20  1  0  0  0  0
 22  7  1  0  0  0  0
 22  2  1  0  0  0  0
 23 24  1  0  0  0  0
 23 25  1  0  0  0  0
 26 23  1  0  0  0  0
 26 29  1  0  0  0  0
 27 26  1  0  0  0  0
 28 26  1  0  0  0  0
 29 30  1  0  0  0  0
 29 31  1  0  0  0  0
 32 29  1  0  0  0  0
 32 35  1  0  0  0  0
 33 32  1  0  0  0  0
 34 32  1  0  0  0  0
 35 37  1  0  0  0  0
 35 36  1  0  0  0  0
 38 35  1  0  0  0  0
 38 41  1  0  0  0  0
 39 38  1  0  0  0  0
 40 38  1  0  0  0  0
 41 42  1  0  0  0  0
 41 44  1  0  0  0  0
 43 41  1  0  0  0  0
M  END
$$$$
