CSD_code = MOHWIR | q = 0 | S = 0 | Stoichiometry = C20H28ClIrNOP | MND = 5
 OpenBabel04212202073D

 53 56  0  0  1  0  0  0  0  0999 V2000
    2.3116    9.0939    1.0172 Ir  0  0  0  0  0  0  0  0  0  0  0  0
    2.2628    8.6122   -0.4236 H   0  0  0  0  0  0  0  0  0  0  0  0
    4.5479    9.2308    1.8081 Cl  0  0  0  0  0  0  0  0  0  0  0  0
    1.7271    7.1489    1.7013 N   0  0  0  0  0  0  0  0  0  0  0  0
    0.5324   11.5288    0.2559 O   0  0  0  0  0  0  0  0  0  0  0  0
    2.1393   11.3249    0.4876 P   0  0  0  0  0  4  0  0  0  0  0  0
    0.3516    9.2818    1.0257 C   0  0  0  0  0  0  0  0  0  0  0  0
   -0.2653   10.4944    0.7207 C   0  0  0  0  0  0  0  0  0  0  0  0
   -1.6201   10.6696    0.9209 C   0  0  0  0  0  0  0  0  0  0  0  0
   -2.0921   11.6071    0.6689 H   0  0  0  0  0  0  0  0  0  0  0  0
   -2.3578    9.6236    1.4712 C   0  0  0  0  0  0  0  0  0  0  0  0
   -3.4173    9.7569    1.6292 H   0  0  0  0  0  0  0  0  0  0  0  0
   -1.7546    8.4400    1.8444 C   0  0  0  0  0  0  0  0  0  0  0  0
   -2.3494    7.6677    2.3077 H   0  0  0  0  0  0  0  0  0  0  0  0
   -0.3848    8.2598    1.6279 C   0  0  0  0  0  0  0  0  0  0  0  0
    0.4009    7.0854    1.9882 C   0  0  1  0  0  3  0  0  0  0  0  0
   -0.1521    5.9522    2.5792 C   0  0  0  0  0  0  0  0  0  0  0  0
   -1.2051    5.9265    2.8051 H   0  0  0  0  0  0  0  0  0  0  0  0
    0.6547    4.8698    2.8689 C   0  0  0  0  0  0  0  0  0  0  0  0
    0.2470    3.9889    3.3419 H   0  0  0  0  0  0  0  0  0  0  0  0
    1.9902    4.9279    2.5149 C   0  0  0  0  0  0  0  0  0  0  0  0
    2.6466    4.0912    2.6941 H   0  0  0  0  0  0  0  0  0  0  0  0
    2.4951    6.0765    1.9114 C   0  0  0  0  0  0  0  0  0  0  0  0
    3.9151    6.1138    1.4673 C   0  0  0  0  0  0  0  0  0  0  0  0
    3.9826    6.5603    0.4757 H   0  0  0  0  0  0  0  0  0  0  0  0
    4.3443    5.1158    1.4539 H   0  0  0  0  0  0  0  0  0  0  0  0
    4.5035    6.7420    2.1355 H   0  0  0  0  0  0  0  0  0  0  0  0
    2.7915   12.0556   -1.1124 C   0  0  0  0  0  0  0  0  0  0  0  0
    2.0519   11.3078   -2.2228 C   0  0  0  0  0  0  0  0  0  0  0  0
    0.9967   11.5694   -2.2268 H   0  0  0  0  0  0  0  0  0  0  0  0
    2.1409   10.2320   -2.0754 H   0  0  0  0  0  0  0  0  0  0  0  0
    2.4770   11.5645   -3.1913 H   0  0  0  0  0  0  0  0  0  0  0  0
    2.5393   13.5525   -1.2524 C   0  0  0  0  0  0  0  0  0  0  0  0
    3.1693   14.1278   -0.5789 H   0  0  0  0  0  0  0  0  0  0  0  0
    1.4947   13.7826   -1.0548 H   0  0  0  0  0  0  0  0  0  0  0  0
    2.7707   13.8640   -2.2707 H   0  0  0  0  0  0  0  0  0  0  0  0
    4.2794   11.7255   -1.1871 C   0  0  0  0  0  0  0  0  0  0  0  0
    4.6683   11.9606   -2.1764 H   0  0  0  0  0  0  0  0  0  0  0  0
    4.4311   10.6641   -0.9960 H   0  0  0  0  0  0  0  0  0  0  0  0
    4.8519   12.2865   -0.4538 H   0  0  0  0  0  0  0  0  0  0  0  0
    2.4101   12.4332    1.9954 C   0  0  0  0  0  0  0  0  0  0  0  0
    1.5979   13.7254    1.9548 C   0  0  0  0  0  0  0  0  0  0  0  0
    0.5705   13.5292    1.6545 H   0  0  0  0  0  0  0  0  0  0  0  0
    2.0270   14.4520    1.2722 H   0  0  0  0  0  0  0  0  0  0  0  0
    1.5814   14.1701    2.9498 H   0  0  0  0  0  0  0  0  0  0  0  0
    3.8963   12.7129    2.1797 C   0  0  0  0  0  0  0  0  0  0  0  0
    4.2667   13.4031    1.4249 H   0  0  0  0  0  0  0  0  0  0  0  0
    4.4661   11.7870    2.1201 H   0  0  0  0  0  0  0  0  0  0  0  0
    4.0721   13.1595    3.1583 H   0  0  0  0  0  0  0  0  0  0  0  0
    1.9076   11.5683    3.1576 C   0  0  0  0  0  0  0  0  0  0  0  0
    2.0662   12.0782    4.1078 H   0  0  0  0  0  0  0  0  0  0  0  0
    2.4548   10.6236    3.1969 H   0  0  0  0  0  0  0  0  0  0  0  0
    0.8410   11.3590    3.0594 H   0  0  0  0  0  0  0  0  0  0  0  0
  1  7  1  0  0  0  0
  1  4  1  0  0  0  0
  1  3  1  0  0  0  0
  2  1  1  0  0  0  0
  4 23  1  0  0  0  0
  4 16  1  0  0  0  0
  5  6  1  0  0  0  0
  5  8  1  0  0  0  0
  6  1  1  0  0  0  0
  6 41  1  0  0  0  0
  7 15  1  0  0  0  0
  8  9  1  0  0  0  0
  8  7  2  0  0  0  0
  9 11  2  0  0  0  0
 10  9  1  0  0  0  0
 11 12  1  0  0  0  0
 11 13  1  0  0  0  0
 13 14  1  0  0  0  0
 15 13  2  0  0  0  0
 16 15  1  6  0  0  0
 16 17  1  0  0  0  0
 17 18  1  0  0  0  0
 17 19  2  0  0  0  0
 19 20  1  0  0  0  0
 21 22  1  0  0  0  0
 21 19  1  0  0  0  0
 23 21  2  0  0  0  0
 24 23  1  0  0  0  0
 24 27  1  0  0  0  0
 25 24  1  0  0  0  0
 26 24  1  0  0  0  0
 28  6  1  0  0  0  0
 29 31  1  0  0  0  0
 29 28  1  0  0  0  0
 30 29  1  0  0  0  0
 32 29  1  0  0  0  0
 33 28  1  0  0  0  0
 33 35  1  0  0  0  0
 33 34  1  0  0  0  0
 36 33  1  0  0  0  0
 37 28  1  0  0  0  0
 37 39  1  0  0  0  0
 37 40  1  0  0  0  0
 38 37  1  0  0  0  0
 41 46  1  0  0  0  0
 41 50  1  0  0  0  0
 42 41  1  0  0  0  0
 42 45  1  0  0  0  0
 43 42  1  0  0  0  0
 44 42  1  0  0  0  0
 46 49  1  0  0  0  0
 47 46  1  0  0  0  0
 48 46  1  0  0  0  0
 50 52  1  0  0  0  0
 50 51  1  0  0  0  0
 53 50  1  0  0  0  0
M  END
$$$$
