CSD_code = MOHWEN | q = 0 | S = 0 | Stoichiometry = C19H28ClIrNO2P | MND = 6
 OpenBabel04212202073D

 53 55  0  0  0  0  0  0  0  0999 V2000
    3.5291    4.8303    4.7529 Ir  0  0  0  0  0  0  0  0  0  0  0  0
    4.6838    5.6623    4.2425 H   0  0  0  0  0  0  0  0  0  0  0  0
    2.7156    6.4374    6.4322 Cl  0  0  0  0  0  0  0  0  0  0  0  0
    4.8255    3.8130    5.9767 N   0  0  0  0  0  0  0  0  0  0  0  0
    2.7465    4.2473    1.7859 O   0  0  0  0  0  0  0  0  0  0  0  0
    1.9253    3.6525    6.1177 O   0  0  0  0  0  0  0  0  0  0  0  0
    1.8012    4.5424    6.5188 H   0  0  0  0  0  0  0  0  0  0  0  0
    2.3034    3.0997    6.8051 H   0  0  0  0  0  0  0  0  0  0  0  0
    2.2068    5.3393    2.8854 P   0  0  0  0  0  4  0  0  0  0  0  0
    5.1400    4.1535    7.2210 C   0  0  0  0  0  3  0  0  0  0  0  0
    4.7126    5.0808    7.5805 H   0  0  0  0  0  0  0  0  0  0  0  0
    5.9573    3.3834    8.0276 C   0  0  0  0  0  0  0  0  0  0  0  0
    6.1829    3.7033    9.0319 H   0  0  0  0  0  0  0  0  0  0  0  0
    6.4754    2.2029    7.5111 C   0  0  0  0  0  0  0  0  0  0  0  0
    7.1196    1.5766    8.1096 H   0  0  0  0  0  0  0  0  0  0  0  0
    6.1528    1.8438    6.2168 C   0  0  0  0  0  0  0  0  0  0  0  0
    6.5388    0.9332    5.7881 H   0  0  0  0  0  0  0  0  0  0  0  0
    5.3229    2.6628    5.4521 C   0  0  0  0  0  0  0  0  0  0  0  0
    4.9097    2.3870    4.0845 C   0  0  0  0  0  0  0  0  0  0  0  0
    5.2500    1.2805    3.3009 C   0  0  0  0  0  0  0  0  0  0  0  0
    5.8935    0.5039    3.6862 H   0  0  0  0  0  0  0  0  0  0  0  0
    4.7543    1.1819    2.0166 C   0  0  0  0  0  0  0  0  0  0  0  0
    5.0168    0.3300    1.4075 H   0  0  0  0  0  0  0  0  0  0  0  0
    3.9139    2.1572    1.4825 C   0  0  0  0  0  0  0  0  0  0  0  0
    3.5298    2.0628    0.4781 H   0  0  0  0  0  0  0  0  0  0  0  0
    3.5777    3.2494    2.2596 C   0  0  0  0  0  0  0  0  0  0  0  0
    4.0735    3.3712    3.5531 C   0  0  0  0  0  0  0  0  0  0  0  0
    2.4363    6.9099    1.8619 C   0  0  0  0  0  0  0  0  0  0  0  0
    3.9297    7.2290    1.9604 C   0  0  0  0  0  0  0  0  0  0  0  0
    4.1722    8.0852    1.3328 H   0  0  0  0  0  0  0  0  0  0  0  0
    4.5265    6.3791    1.6334 H   0  0  0  0  0  0  0  0  0  0  0  0
    4.1999    7.4666    2.9859 H   0  0  0  0  0  0  0  0  0  0  0  0
    2.0822    6.7384    0.3859 C   0  0  0  0  0  0  0  0  0  0  0  0
    1.0115    6.7197    0.2168 H   0  0  0  0  0  0  0  0  0  0  0  0
    2.5176    5.8224   -0.0047 H   0  0  0  0  0  0  0  0  0  0  0  0
    2.4910    7.5757   -0.1785 H   0  0  0  0  0  0  0  0  0  0  0  0
    1.6455    8.0425    2.5078 C   0  0  0  0  0  0  0  0  0  0  0  0
    1.9759    9.0015    2.1116 H   0  0  0  0  0  0  0  0  0  0  0  0
    1.8088    8.0427    3.5841 H   0  0  0  0  0  0  0  0  0  0  0  0
    0.5797    7.9499    2.3138 H   0  0  0  0  0  0  0  0  0  0  0  0
    0.3804    4.8456    2.9844 C   0  0  0  0  0  0  0  0  0  0  0  0
    0.3877    3.3587    3.3483 C   0  0  0  0  0  0  0  0  0  0  0  0
   -0.6320    3.0129    3.5142 H   0  0  0  0  0  0  0  0  0  0  0  0
    0.9539    3.1825    4.2580 H   0  0  0  0  0  0  0  0  0  0  0  0
    0.8204    2.7634    2.5462 H   0  0  0  0  0  0  0  0  0  0  0  0
   -0.2756    5.6453    4.1068 C   0  0  0  0  0  0  0  0  0  0  0  0
   -0.4763    6.6688    3.8024 H   0  0  0  0  0  0  0  0  0  0  0  0
    0.3670    5.6772    4.9834 H   0  0  0  0  0  0  0  0  0  0  0  0
   -1.2212    5.1861    4.3918 H   0  0  0  0  0  0  0  0  0  0  0  0
   -0.3822    5.0137    1.6746 C   0  0  0  0  0  0  0  0  0  0  0  0
   -1.3453    4.5090    1.7536 H   0  0  0  0  0  0  0  0  0  0  0  0
    0.1688    4.5658    0.8507 H   0  0  0  0  0  0  0  0  0  0  0  0
   -0.5771    6.0595    1.4537 H   0  0  0  0  0  0  0  0  0  0  0  0
  1  4  1  0  0  0  0
  1  3  1  0  0  0  0
  2  1  1  0  0  0  0
  4 10  1  0  0  0  0
  5 26  1  0  0  0  0
  5  9  1  0  0  0  0
  6  7  1  0  0  0  0
  6  8  1  0  0  0  0
  9 41  1  0  0  0  0
  9  1  1  0  0  0  0
 10 11  1  0  0  0  0
 10 12  1  0  0  0  0
 12 13  1  0  0  0  0
 14 12  2  0  0  0  0
 14 15  1  0  0  0  0
 16 14  1  0  0  0  0
 17 16  1  0  0  0  0
 18  4  1  0  0  0  0
 18 16  2  0  0  0  0
 19 18  1  0  0  0  0
 20 21  1  0  0  0  0
 20 19  2  0  0  0  0
 22 20  1  0  0  0  0
 23 22  1  0  0  0  0
 24 22  2  0  0  0  0
 24 26  1  0  0  0  0
 25 24  1  0  0  0  0
 26 27  2  0  0  0  0
 27 19  1  0  0  0  0
 27  1  1  0  0  0  0
 28 29  1  0  0  0  0
 28 37  1  0  0  0  0
 28  9  1  0  0  0  0
 29 32  1  0  0  0  0
 30 29  1  0  0  0  0
 31 29  1  0  0  0  0
 33 28  1  0  0  0  0
 34 33  1  0  0  0  0
 35 33  1  0  0  0  0
 36 33  1  0  0  0  0
 37 39  1  0  0  0  0
 38 37  1  0  0  0  0
 40 37  1  0  0  0  0
 41 42  1  0  0  0  0
 41 46  1  0  0  0  0
 42 43  1  0  0  0  0
 42 44  1  0  0  0  0
 45 42  1  0  0  0  0
 46 49  1  0  0  0  0
 46 48  1  0  0  0  0
 47 46  1  0  0  0  0
 50 51  1  0  0  0  0
 50 41  1  0  0  0  0
 52 50  1  0  0  0  0
 53 50  1  0  0  0  0
M  END
$$$$
