CSD_code = MOJHEA | q = 0 | S = 0 | Stoichiometry = C25H23ClN2Pd | MND = 4
 OpenBabel04212202073D

 52 56  0  0  0  0  0  0  0  0999 V2000
    9.0804    1.6066    2.6722 Pd  0  0  1  0  0  0  0  0  0  0  0  0
    9.3476   -0.2527    1.5219 Cl  0  0  0  0  0  0  0  0  0  0  0  0
    7.1071    1.2072    3.5892 N   0  0  0  0  0  0  0  0  0  0  0  0
    8.9559    2.9769    4.1090 N   0  0  0  0  0  0  0  0  0  0  0  0
   10.6506    2.3924    1.6037 C   0  0  0  0  0  0  0  0  0  0  0  0
   11.5906    1.8913    1.8536 H   0  0  0  0  0  0  0  0  0  0  0  0
   10.7469    3.4672    1.8020 H   0  0  0  0  0  0  0  0  0  0  0  0
   10.4481    2.2381    0.5385 H   0  0  0  0  0  0  0  0  0  0  0  0
    5.5258    2.1439    5.2416 C   0  0  0  0  0  0  0  0  0  0  0  0
    5.5547    1.6510    6.2135 H   0  0  0  0  0  0  0  0  0  0  0  0
    4.7530    1.6680    4.6410 H   0  0  0  0  0  0  0  0  0  0  0  0
    5.2661    3.1882    5.4012 H   0  0  0  0  0  0  0  0  0  0  0  0
    6.8542    2.0317    4.5537 C   0  0  0  0  0  0  0  0  0  0  0  0
    7.9452    2.9040    4.9290 C   0  0  0  0  0  0  0  0  0  0  0  0
    7.8861    3.6508    6.2297 C   0  0  0  0  0  0  0  0  0  0  0  0
    8.8828    3.9591    6.5383 H   0  0  0  0  0  0  0  0  0  0  0  0
    7.4488    3.0288    7.0074 H   0  0  0  0  0  0  0  0  0  0  0  0
    7.2706    4.5453    6.1270 H   0  0  0  0  0  0  0  0  0  0  0  0
    6.2270    0.2827    3.0516 C   0  0  0  0  0  0  0  0  0  0  0  0
    5.6599   -0.7101    3.8236 C   0  0  0  0  0  0  0  0  0  0  0  0
    5.8654   -0.7432    4.8842 H   0  0  0  0  0  0  0  0  0  0  0  0
    4.8882   -1.7165    3.2344 C   0  0  0  0  0  0  0  0  0  0  0  0
    4.4710   -2.4902    3.8621 H   0  0  0  0  0  0  0  0  0  0  0  0
    4.6737   -1.7268    1.8844 C   0  0  0  0  0  0  0  0  0  0  0  0
    4.0853   -2.5088    1.4274 H   0  0  0  0  0  0  0  0  0  0  0  0
    5.2257   -0.7236    1.0595 C   0  0  0  0  0  0  0  0  0  0  0  0
    5.0196   -0.7176   -0.3357 C   0  0  0  0  0  0  0  0  0  0  0  0
    4.4267   -1.5089   -0.7721 H   0  0  0  0  0  0  0  0  0  0  0  0
    5.5597    0.2619   -1.1205 C   0  0  0  0  0  0  0  0  0  0  0  0
    5.4050    0.2522   -2.1895 H   0  0  0  0  0  0  0  0  0  0  0  0
    6.3168    1.2912   -0.5436 C   0  0  0  0  0  0  0  0  0  0  0  0
    6.7312    2.0634   -1.1747 H   0  0  0  0  0  0  0  0  0  0  0  0
    6.5317    1.3218    0.8080 C   0  0  0  0  0  0  0  0  0  0  0  0
    7.1070    2.1506    1.2417 H   0  0  0  0  0  0  0  0  0  0  0  0
    6.0098    0.3058    1.6391 C   0  0  0  0  0  0  0  0  0  0  0  0
   10.0794    3.7581    4.4014 C   0  0  0  0  0  0  0  0  0  0  0  0
   10.0199    5.1313    4.3308 C   0  0  0  0  0  0  0  0  0  0  0  0
    9.0859    5.6082    4.0699 H   0  0  0  0  0  0  0  0  0  0  0  0
   11.1627    5.9083    4.5555 C   0  0  0  0  0  0  0  0  0  0  0  0
   11.0865    6.9829    4.4833 H   0  0  0  0  0  0  0  0  0  0  0  0
   12.3546    5.3148    4.8612 C   0  0  0  0  0  0  0  0  0  0  0  0
   13.2377    5.9113    5.0353 H   0  0  0  0  0  0  0  0  0  0  0  0
   12.4564    3.9098    4.9519 C   0  0  0  0  0  0  0  0  0  0  0  0
   13.6773    3.2764    5.2659 C   0  0  0  0  0  0  0  0  0  0  0  0
   14.5481    3.8931    5.4364 H   0  0  0  0  0  0  0  0  0  0  0  0
   13.7613    1.9151    5.3483 C   0  0  0  0  0  0  0  0  0  0  0  0
   14.7021    1.4397    5.5833 H   0  0  0  0  0  0  0  0  0  0  0  0
   12.6254    1.1227    5.1256 C   0  0  0  0  0  0  0  0  0  0  0  0
   12.7062    0.0481    5.1918 H   0  0  0  0  0  0  0  0  0  0  0  0
   11.4228    1.7013    4.8230 C   0  0  0  0  0  0  0  0  0  0  0  0
   10.5463    1.0635    4.6609 H   0  0  0  0  0  0  0  0  0  0  0  0
   11.3091    3.1073    4.7227 C   0  0  0  0  0  0  0  0  0  0  0  0
  1  2  1  1  0  0  0
  1  3  1  0  0  0  0
  1  4  1  0  0  0  0
  3 13  1  0  0  0  0
  4 36  1  0  0  0  0
  4 14  1  0  0  0  0
  5  7  1  0  0  0  0
  5  6  1  0  0  0  0
  5  1  1  0  0  0  0
  8  5  1  0  0  0  0
  9 12  1  0  0  0  0
  9 10  1  0  0  0  0
 11  9  1  0  0  0  0
 13 14  2  0  0  0  0
 13  9  1  0  0  0  0
 14 15  1  0  0  0  0
 15 16  1  0  0  0  0
 15 17  1  0  0  0  0
 18 15  1  0  0  0  0
 19  3  1  0  0  0  0
 19 20  1  0  0  0  0
 20 21  1  0  0  0  0
 22 20  2  0  0  0  0
 22 23  1  0  0  0  0
 24 22  1  0  0  0  0
 25 24  1  0  0  0  0
 26 35  1  0  0  0  0
 26 24  2  0  0  0  0
 27 26  1  0  0  0  0
 28 27  1  0  0  0  0
 29 31  1  0  0  0  0
 29 27  2  0  0  0  0
 30 29  1  0  0  0  0
 31 33  2  0  0  0  0
 32 31  1  0  0  0  0
 33 34  1  0  0  0  0
 33 35  1  0  0  0  0
 35 19  2  0  0  0  0
 36 52  1  0  0  0  0
 37 36  2  0  0  0  0
 37 39  1  0  0  0  0
 38 37  1  0  0  0  0
 39 41  2  0  0  0  0
 40 39  1  0  0  0  0
 41 43  1  0  0  0  0
 41 42  1  0  0  0  0
 43 44  1  0  0  0  0
 44 46  2  0  0  0  0
 44 45  1  0  0  0  0
 46 47  1  0  0  0  0
 48 49  1  0  0  0  0
 48 46  1  0  0  0  0
 50 48  2  0  0  0  0
 51 50  1  0  0  0  0
 52 50  1  0  0  0  0
 52 43  2  0  0  0  0
M  END
$$$$
