CSD_code = MOJYEP | q = 0 | S = 0 | Stoichiometry = C26H27ClNPPdSi | MND = 4
 OpenBabel04212202073D

 58 62  0  0  1  0  0  0  0  0999 V2000
    7.5394    9.2417   -1.8770 Pd  0  0  1  0  0  0  0  0  0  0  0  0
    6.7204   10.2521   -3.8231 Cl  0  0  0  0  0  0  0  0  0  0  0  0
    8.5782   11.0854   -1.2122 P   0  0  0  0  0  4  0  0  0  0  0  0
    9.0092    6.8632   -1.6782 Si  0  0  0  0  0  0  0  0  0  0  0  0
    6.5155    7.5758   -2.3863 N   0  0  0  0  0  0  0  0  0  0  0  0
    8.4462    8.1057   -0.3766 C   0  0  0  0  0  0  0  0  0  0  0  0
    9.9886    7.7430   -3.0789 C   0  0  0  0  0  0  0  0  0  0  0  0
    9.8827    5.2482   -1.1689 C   0  0  0  0  0  0  0  0  0  0  0  0
    7.2801    6.4796   -2.4169 C   0  0  2  0  0  3  0  0  0  0  0  0
    6.7813    5.2885   -2.9228 C   0  0  0  0  0  0  0  0  0  0  0  0
    5.4799    5.2347   -3.3937 C   0  0  0  0  0  0  0  0  0  0  0  0
    4.7065    6.3844   -3.3450 C   0  0  0  0  0  0  0  0  0  0  0  0
    5.2679    7.5436   -2.8359 C   0  0  0  0  0  0  0  0  0  0  0  0
    8.0369   12.6709   -1.9234 C   0  0  0  0  0  0  0  0  0  0  0  0
    6.6568   12.8384   -2.0046 C   0  0  0  0  0  0  0  0  0  0  0  0
    6.1297   14.0195   -2.4873 C   0  0  0  0  0  0  0  0  0  0  0  0
    6.9780   15.0418   -2.8843 C   0  0  0  0  0  0  0  0  0  0  0  0
    8.3498   14.8828   -2.7897 C   0  0  0  0  0  0  0  0  0  0  0  0
    8.8849   13.7007   -2.3058 C   0  0  0  0  0  0  0  0  0  0  0  0
    8.2259   11.4941    0.5265 C   0  0  0  0  0  0  0  0  0  0  0  0
    8.9295   12.4648    1.2304 C   0  0  0  0  0  0  0  0  0  0  0  0
    8.5518   12.7862    2.5215 C   0  0  0  0  0  0  0  0  0  0  0  0
    7.4619   12.1595    3.1052 C   0  0  0  0  0  0  0  0  0  0  0  0
    6.7390   11.2145    2.3949 C   0  0  0  0  0  0  0  0  0  0  0  0
    7.1189   10.8838    1.1069 C   0  0  0  0  0  0  0  0  0  0  0  0
   10.3779   11.0554   -1.4154 C   0  0  0  0  0  0  0  0  0  0  0  0
   10.8539   11.1465   -2.7235 C   0  0  0  0  0  0  0  0  0  0  0  0
   12.2061   11.0285   -2.9812 C   0  0  0  0  0  0  0  0  0  0  0  0
   13.0910   10.8001   -1.9380 C   0  0  0  0  0  0  0  0  0  0  0  0
   12.6193   10.6801   -0.6413 C   0  0  0  0  0  0  0  0  0  0  0  0
   11.2658   10.8009   -0.3770 C   0  0  0  0  0  0  0  0  0  0  0  0
    7.7061    7.7013    0.3194 H   0  0  0  0  0  0  0  0  0  0  0  0
    9.2449    8.5795    0.1958 H   0  0  0  0  0  0  0  0  0  0  0  0
    9.3689    8.5290   -3.5359 H   0  0  0  0  0  0  0  0  0  0  0  0
   10.2912    7.0570   -3.8651 H   0  0  0  0  0  0  0  0  0  0  0  0
   10.8868    8.2137   -2.6876 H   0  0  0  0  0  0  0  0  0  0  0  0
   10.8349    5.4690   -0.7014 H   0  0  0  0  0  0  0  0  0  0  0  0
    9.2895    4.6824   -0.4592 H   0  0  0  0  0  0  0  0  0  0  0  0
   10.0774    4.6123   -2.0257 H   0  0  0  0  0  0  0  0  0  0  0  0
    7.4168    4.4168   -2.9451 H   0  0  0  0  0  0  0  0  0  0  0  0
    5.0736    4.3166   -3.7933 H   0  0  0  0  0  0  0  0  0  0  0  0
    3.6881    6.3887   -3.7005 H   0  0  0  0  0  0  0  0  0  0  0  0
    4.7080    8.4725   -2.7998 H   0  0  0  0  0  0  0  0  0  0  0  0
    6.0095   12.0181   -1.7088 H   0  0  0  0  0  0  0  0  0  0  0  0
    5.0597   14.1437   -2.5637 H   0  0  0  0  0  0  0  0  0  0  0  0
    6.5684   15.9636   -3.2709 H   0  0  0  0  0  0  0  0  0  0  0  0
    9.0093   15.6816   -3.0972 H   0  0  0  0  0  0  0  0  0  0  0  0
    9.9572   13.5801   -2.2368 H   0  0  0  0  0  0  0  0  0  0  0  0
    9.7669   12.9658    0.7644 H   0  0  0  0  0  0  0  0  0  0  0  0
    9.1042   13.5326    3.0736 H   0  0  0  0  0  0  0  0  0  0  0  0
    7.1711   12.4155    4.1134 H   0  0  0  0  0  0  0  0  0  0  0  0
    5.8809   10.7393    2.8473 H   0  0  0  0  0  0  0  0  0  0  0  0
    6.5629   10.1431    0.5250 H   0  0  0  0  0  0  0  0  0  0  0  0
   10.1462   11.3028   -3.5290 H   0  0  0  0  0  0  0  0  0  0  0  0
   12.5724   11.1064   -3.9943 H   0  0  0  0  0  0  0  0  0  0  0  0
   14.1482   10.7065   -2.1380 H   0  0  0  0  0  0  0  0  0  0  0  0
   13.3086   10.4874    0.1679 H   0  0  0  0  0  0  0  0  0  0  0  0
   10.8978   10.6970    0.6342 H   0  0  0  0  0  0  0  0  0  0  0  0
  1  2  1  6  0  0  0
  1  3  1  0  0  0  0
  1  6  1  0  0  0  0
  3 20  1  0  0  0  0
  4  8  1  0  0  0  0
  4  6  1  0  0  0  0
  5  1  1  0  0  0  0
  6 33  1  0  0  0  0
  6 32  1  0  0  0  0
  7 36  1  0  0  0  0
  7  4  1  0  0  0  0
  8 37  1  0  0  0  0
  8 38  1  0  0  0  0
  9 10  1  1  0  0  0
  9  5  1  0  0  0  0
  9  4  1  0  0  0  0
 11 12  1  0  0  0  0
 11 10  2  0  0  0  0
 12 13  2  0  0  0  0
 13 43  1  0  0  0  0
 13  5  1  0  0  0  0
 14  3  1  0  0  0  0
 15 14  1  0  0  0  0
 15 44  1  0  0  0  0
 16 15  2  0  0  0  0
 17 18  2  0  0  0  0
 17 16  1  0  0  0  0
 18 19  1  0  0  0  0
 19 48  1  0  0  0  0
 19 14  2  0  0  0  0
 20 25  2  0  0  0  0
 20 21  1  0  0  0  0
 21 22  2  0  0  0  0
 22 50  1  0  0  0  0
 22 23  1  0  0  0  0
 23 51  1  0  0  0  0
 24 52  1  0  0  0  0
 24 23  2  0  0  0  0
 25 24  1  0  0  0  0
 26  3  1  0  0  0  0
 26 31  1  0  0  0  0
 27 26  2  0  0  0  0
 28 27  1  0  0  0  0
 28 29  2  0  0  0  0
 29 30  1  0  0  0  0
 30 31  2  0  0  0  0
 30 57  1  0  0  0  0
 31 58  1  0  0  0  0
 34  7  1  0  0  0  0
 35  7  1  0  0  0  0
 39  8  1  0  0  0  0
 40 10  1  0  0  0  0
 41 11  1  0  0  0  0
 42 12  1  0  0  0  0
 45 16  1  0  0  0  0
 46 17  1  0  0  0  0
 47 18  1  0  0  0  0
 49 21  1  0  0  0  0
 53 25  1  0  0  0  0
 54 27  1  0  0  0  0
 55 28  1  0  0  0  0
 56 29  1  0  0  0  0
M  END
$$$$
