CSD_code = MOJYIV | q = 0 | S = 0 | Stoichiometry = C13H11BrN4OPt | MND = 4
 OpenBabel04212202073D

 31 34  0  0  0  0  0  0  0  0999 V2000
    4.4925    1.5022   -1.0068 Pt  0  0  1  0  0  0  0  0  0  0  0  0
    2.9778    0.5690   -2.4907 Br  0  0  0  0  0  0  0  0  0  0  0  0
    5.9440    2.8609    2.4629 O   0  0  0  0  0  0  0  0  0  0  0  0
    3.1172    1.3776    0.7761 N   0  0  0  0  0  0  0  0  0  0  0  0
    6.8475    2.7514    0.4587 N   0  0  0  0  0  0  0  0  0  0  0  0
    5.6091    2.2553    0.3789 N   0  0  0  0  0  0  0  0  0  0  0  0
    5.9063    1.7221   -2.4582 C   0  0  0  0  0  0  0  0  0  0  0  0
    6.8149    2.1645   -2.0521 H   0  0  0  0  0  0  0  0  0  0  0  0
    5.5157    2.3625   -3.2543 H   0  0  0  0  0  0  0  0  0  0  0  0
    6.1408    0.7461   -2.8924 H   0  0  0  0  0  0  0  0  0  0  0  0
    3.7419    1.8736    1.8648 C   0  0  0  0  0  0  0  0  0  0  0  0
    3.1295    1.9285    3.1195 C   0  0  0  0  0  0  0  0  0  0  0  0
    3.6694    2.3348    3.9600 H   0  0  0  0  0  0  0  0  0  0  0  0
    1.8387    1.4541    3.2370 C   0  0  0  0  0  0  0  0  0  0  0  0
    1.3330    1.4802    4.1903 H   0  0  0  0  0  0  0  0  0  0  0  0
    1.2009    0.9432    2.1108 C   0  0  0  0  0  0  0  0  0  0  0  0
    0.1937    0.5645    2.1680 H   0  0  0  0  0  0  0  0  0  0  0  0
    1.8807    0.9264    0.9028 C   0  0  0  0  0  0  0  0  0  0  0  0
    1.4232    0.5387    0.0020 H   0  0  0  0  0  0  0  0  0  0  0  0
    5.0673    2.3238    1.5914 C   0  0  0  0  0  0  0  0  0  0  0  0
    7.0348    3.1053    1.6913 C   0  0  0  0  0  0  0  0  0  0  0  0
    8.2281    3.6955    2.2665 C   0  0  0  0  0  0  0  0  0  0  0  0
    9.2408    3.9137    1.4333 N   0  0  0  0  0  0  0  0  0  0  0  0
   10.3408    4.4480    1.9177 C   0  0  0  0  0  0  0  0  0  0  0  0
   11.1343    4.6050    1.1999 H   0  0  0  0  0  0  0  0  0  0  0  0
   10.4992    4.7961    3.2552 C   0  0  0  0  0  0  0  0  0  0  0  0
   11.4218    5.2322    3.6040 H   0  0  0  0  0  0  0  0  0  0  0  0
    9.4433    4.5678    4.1232 C   0  0  0  0  0  0  0  0  0  0  0  0
    9.5229    4.8225    5.1698 H   0  0  0  0  0  0  0  0  0  0  0  0
    8.2794    4.0060    3.6264 C   0  0  0  0  0  0  0  0  0  0  0  0
    7.4319    3.8100    4.2644 H   0  0  0  0  0  0  0  0  0  0  0  0
  1  2  1  1  0  0  0
  1  6  1  0  0  0  0
  1  4  1  0  0  0  0
  4 18  1  0  0  0  0
  4 11  1  0  0  0  0
  5 21  2  0  0  0  0
  6  5  1  0  0  0  0
  6 20  1  0  0  0  0
  7  8  1  0  0  0  0
  7  1  1  0  0  0  0
  9  7  1  0  0  0  0
 10  7  1  0  0  0  0
 11 12  1  0  0  0  0
 12 14  2  0  0  0  0
 12 13  1  0  0  0  0
 14 15  1  0  0  0  0
 16 17  1  0  0  0  0
 16 14  1  0  0  0  0
 18 16  2  0  0  0  0
 19 18  1  0  0  0  0
 20 11  2  0  0  0  0
 20  3  1  0  0  0  0
 21 22  1  0  0  0  0
 21  3  1  0  0  0  0
 22 30  1  0  0  0  0
 23 24  1  0  0  0  0
 23 22  2  0  0  0  0
 24 26  2  0  0  0  0
 25 24  1  0  0  0  0
 26 27  1  0  0  0  0
 26 28  1  0  0  0  0
 28 29  1  0  0  0  0
 30 28  2  0  0  0  0
 30 31  1  0  0  0  0
M  END
$$$$
