CSD_code = MOKROT | q = 0 | S = 0 | Stoichiometry = C17H18BrMnO2 | MND = 9
 OpenBabel04212202073D

 39 42  0  0  1  0  0  0  0  0999 V2000
    5.8483    1.1659   11.7330 Mn  0  0  0  0  0  0  0  0  0  0  0  0
    6.4573   -0.9904   12.2365 Br  0  0  0  0  0  0  0  0  0  0  0  0
    5.9391    3.4531   12.6926 C   0  0  0  0  0  0  0  0  0  0  0  0
    6.7520    3.4629   11.5294 C   0  0  1  0  0  0  0  0  0  0  0  0
    7.9251    2.7098   11.4947 C   0  0  2  0  0  3  0  0  0  0  0  0
    6.3159    2.6914   13.7978 C   0  0  0  0  0  0  0  0  0  0  0  0
    6.2328    4.4833   10.5540 C   0  0  0  0  0  0  0  0  0  0  0  0
    7.4899    1.9151   13.7463 C   0  0  0  0  0  0  0  0  0  0  0  0
    7.7078    1.2068   15.0490 C   0  0  0  0  0  0  0  0  0  0  0  0
    5.4437    1.0732    8.8387 O   0  0  0  0  0  1  0  0  0  0  0  0
    5.5888    1.0855    9.9850 C   0  0  0  0  0  2  0  0  0  0  0  0
    2.9516    1.1362   12.1330 O   0  0  0  0  0  1  0  0  0  0  0  0
    4.8366    4.4662   12.5518 C   0  0  0  0  0  0  0  0  0  0  0  0
    4.0946    1.1247   11.9636 C   0  0  0  0  0  2  0  0  0  0  0  0
    8.2855    1.9228   12.6059 C   0  0  0  0  0  0  0  0  0  0  0  0
    4.7924    4.7162   11.0363 C   0  0  0  0  0  0  0  0  0  0  0  0
    9.5891    1.2267   12.3543 C   0  0  0  0  0  0  0  0  0  0  0  0
    5.6980    2.6006   15.1635 C   0  0  0  0  0  0  0  0  0  0  0  0
    8.9967    2.6388   10.4449 C   0  0  0  0  0  0  0  0  0  0  0  0
    6.3463    1.3365   15.7531 C   0  0  0  0  0  0  0  0  0  0  0  0
    9.7774    1.3723   10.8346 C   0  0  0  0  0  0  0  0  0  0  0  0
    6.2782    4.1506    9.5175 H   0  0  0  0  0  0  0  0  0  0  0  0
    6.8300    5.3968   10.6450 H   0  0  0  0  0  0  0  0  0  0  0  0
    8.5005    1.7119   15.6104 H   0  0  0  0  0  0  0  0  0  0  0  0
    8.0028    0.1654   14.9097 H   0  0  0  0  0  0  0  0  0  0  0  0
    5.1199    5.3758   13.0919 H   0  0  0  0  0  0  0  0  0  0  0  0
    3.8813    4.1216   12.9468 H   0  0  0  0  0  0  0  0  0  0  0  0
    4.4239    5.7090   10.7872 H   0  0  0  0  0  0  0  0  0  0  0  0
    4.1401    3.9704   10.5736 H   0  0  0  0  0  0  0  0  0  0  0  0
    9.5693    0.1825   12.6707 H   0  0  0  0  0  0  0  0  0  0  0  0
   10.3858    1.7337   12.9081 H   0  0  0  0  0  0  0  0  0  0  0  0
    4.6097    2.5409   15.1365 H   0  0  0  0  0  0  0  0  0  0  0  0
    5.9718    3.4912   15.7392 H   0  0  0  0  0  0  0  0  0  0  0  0
    9.6278    3.5311   10.5184 H   0  0  0  0  0  0  0  0  0  0  0  0
    8.5992    2.5919    9.4308 H   0  0  0  0  0  0  0  0  0  0  0  0
    6.4427    1.3869   16.8359 H   0  0  0  0  0  0  0  0  0  0  0  0
    5.7327    0.4675   15.5050 H   0  0  0  0  0  0  0  0  0  0  0  0
    9.3323    0.5084   10.3358 H   0  0  0  0  0  0  0  0  0  0  0  0
   10.8261    1.4272   10.5495 H   0  0  0  0  0  0  0  0  0  0  0  0
  1 14  1  0  0  0  0
  1  2  1  0  0  0  0
  3  6  2  0  0  0  0
  4  1  1  6  0  0  0
  4  3  1  0  0  0  0
  5  4  1  0  0  0  0
  5 15  1  1  0  0  0
  6 18  1  0  0  0  0
  7 23  1  0  0  0  0
  7 16  1  0  0  0  0
  7  4  1  0  0  0  0
  8  6  1  0  0  0  0
  8  9  1  0  0  0  0
  9 24  1  0  0  0  0
  9 20  1  0  0  0  0
 10 11  1  0  0  0  0
 11  1  1  0  0  0  0
 13  3  1  0  0  0  0
 13 27  1  0  0  0  0
 13 26  1  0  0  0  0
 14 12  1  0  0  0  0
 15  8  2  0  0  0  0
 16 13  1  0  0  0  0
 17 15  1  0  0  0  0
 17 30  1  0  0  0  0
 17 31  1  0  0  0  0
 18 33  1  0  0  0  0
 18 20  1  0  0  0  0
 19 34  1  0  0  0  0
 19 21  1  0  0  0  0
 19  5  1  0  0  0  0
 20 36  1  0  0  0  0
 21 17  1  0  0  0  0
 22  7  1  0  0  0  0
 25  9  1  0  0  0  0
 28 16  1  0  0  0  0
 29 16  1  0  0  0  0
 32 18  1  0  0  0  0
 35 19  1  0  0  0  0
 37 20  1  0  0  0  0
 38 21  1  0  0  0  0
 39 21  1  0  0  0  0
M  END
$$$$
