CSD_code = MOLPEJ | q = 0 | S = 0 | Stoichiometry = C17H21ClO2Ti | MND = 12
 OpenBabel04212202073D

 42 43  0  0  1  0  0  0  0  0999 V2000
    6.2805    1.7725   15.8707 Ti  0  0  0  0  0  0  0  0  0  0  0  0
    8.1792    2.6361   16.6574 Cl  0  0  0  0  0  0  0  0  0  0  0  0
    7.0754    0.4362   15.0700 O   0  0  0  0  0  0  0  0  0  0  0  0
    8.9480    0.7927   13.9559 O   0  0  0  0  0  0  0  0  0  0  0  0
    7.7797    0.4865   13.9739 C   0  0  0  0  0  0  0  0  0  0  0  0
    6.9674    0.1762   12.7042 C   0  0  0  0  0  0  0  0  0  0  0  0
    6.4383    1.5883   12.2601 C   0  0  0  0  0  0  0  0  0  0  0  0
    5.8316   -0.7914   13.0551 C   0  0  0  0  0  0  0  0  0  0  0  0
    7.8803   -0.4781   11.6664 C   0  0  0  0  0  0  0  0  0  0  0  0
    7.5629    2.3810   11.5769 C   0  0  0  0  0  0  0  0  0  0  0  0
    5.2782    1.4720   11.2612 C   0  0  0  0  0  0  0  0  0  0  0  0
    5.9746    2.3640   13.4845 C   0  0  0  0  0  0  0  0  0  0  0  0
    4.6995    2.3140   14.0982 C   0  0  0  0  0  0  0  0  0  0  0  0
    4.6319    3.3221   15.0882 C   0  0  0  0  0  0  0  0  0  0  0  0
    5.8875    3.9458   15.1585 C   0  0  2  0  0  0  0  0  0  0  0  0
    6.7175    3.3497   14.1716 C   0  0  0  0  0  0  0  0  0  0  0  0
    6.0071    1.5337   18.2318 C   0  0  0  0  0  0  0  0  0  0  0  0
    4.7985    2.0064   17.6920 C   0  0  0  0  0  0  0  0  0  0  0  0
    4.2718    0.9935   16.8540 C   0  0  0  0  0  0  0  0  0  0  0  0
    5.1623   -0.0967   16.8774 C   0  0  0  0  0  0  0  0  0  0  0  0
    6.2434    0.2412   17.7181 C   0  0  0  0  0  3  0  0  0  0  0  0
    5.3298   -1.1273   12.1510 H   0  0  0  0  0  0  0  0  0  0  0  0
    6.2458   -1.6654   13.5569 H   0  0  0  0  0  0  0  0  0  0  0  0
    5.1026   -0.3318   13.7245 H   0  0  0  0  0  0  0  0  0  0  0  0
    8.0833   -1.5054   11.9621 H   0  0  0  0  0  0  0  0  0  0  0  0
    7.4112   -0.4916   10.6860 H   0  0  0  0  0  0  0  0  0  0  0  0
    8.8305    0.0430   11.6075 H   0  0  0  0  0  0  0  0  0  0  0  0
    7.7743    1.9710   10.5933 H   0  0  0  0  0  0  0  0  0  0  0  0
    7.2556    3.4173   11.4514 H   0  0  0  0  0  0  0  0  0  0  0  0
    8.4753    2.3528   12.1668 H   0  0  0  0  0  0  0  0  0  0  0  0
    4.4180    0.9629   11.6827 H   0  0  0  0  0  0  0  0  0  0  0  0
    5.5959    0.9321   10.3728 H   0  0  0  0  0  0  0  0  0  0  0  0
    4.9680    2.4703   10.9604 H   0  0  0  0  0  0  0  0  0  0  0  0
    3.8478    1.7438   13.7533 H   0  0  0  0  0  0  0  0  0  0  0  0
    3.7296    3.6425   15.5927 H   0  0  0  0  0  0  0  0  0  0  0  0
    6.1429    4.8210   15.7449 H   0  0  0  0  0  0  0  0  0  0  0  0
    7.7182    3.6838   13.9332 H   0  0  0  0  0  0  0  0  0  0  0  0
    6.6087    2.0367   18.9764 H   0  0  0  0  0  0  0  0  0  0  0  0
    4.2904    2.9132   17.9955 H   0  0  0  0  0  0  0  0  0  0  0  0
    3.2871    0.9915   16.4050 H   0  0  0  0  0  0  0  0  0  0  0  0
    5.0032   -1.0609   16.4115 H   0  0  0  0  0  0  0  0  0  0  0  0
    7.0673   -0.4078   17.9865 H   0  0  0  0  0  0  0  0  0  0  0  0
  1  2  1  0  0  0  0
  3  1  1  0  0  0  0
  4  5  2  0  0  0  0
  5  3  1  0  0  0  0
  6  8  1  0  0  0  0
  6  5  1  0  0  0  0
  7  6  1  0  0  0  0
  7 12  1  0  0  0  0
  8 23  1  0  0  0  0
  8 24  1  0  0  0  0
  9 25  1  0  0  0  0
  9  6  1  0  0  0  0
 10 30  1  0  0  0  0
 10  7  1  0  0  0  0
 11 31  1  0  0  0  0
 11  7  1  0  0  0  0
 12 13  1  0  0  0  0
 12 16  2  0  0  0  0
 13 14  2  0  0  0  0
 14 15  1  0  0  0  0
 14 35  1  0  0  0  0
 15 36  1  1  0  0  0
 15  1  1  0  0  0  0
 16 15  1  0  0  0  0
 17 38  1  0  0  0  0
 18 39  1  0  0  0  0
 18 17  2  0  0  0  0
 19 20  2  0  0  0  0
 19 18  1  0  0  0  0
 20 21  1  0  0  0  0
 21 42  1  0  0  0  0
 21 17  1  0  0  0  0
 22  8  1  0  0  0  0
 26  9  1  0  0  0  0
 27  9  1  0  0  0  0
 28 10  1  0  0  0  0
 29 10  1  0  0  0  0
 32 11  1  0  0  0  0
 33 11  1  0  0  0  0
 34 13  1  0  0  0  0
 37 16  1  0  0  0  0
 40 19  1  0  0  0  0
 41 20  1  0  0  0  0
M  END
$$$$
