CSD_code = MOMDAV | q = 0 | S = 0 | Stoichiometry = C19H27ClN2PRh | MND = 4
 OpenBabel04212202073D

 51 54  0  0  0  0  0  0  0  0999 V2000
    2.9180    1.0495    4.9912 Rh  0  0  1  0  0  0  0  0  0  0  0  0
    2.7506   -0.8599    6.1362 Cl  0  0  0  0  0  0  0  0  0  0  0  0
    4.6569    1.9028    6.0909 P   0  0  0  0  0  4  0  0  0  0  0  0
    3.0517    2.5753    3.8902 N   0  0  0  0  0  0  0  0  0  0  0  0
    1.4240    0.5995    3.7599 N   0  0  0  0  0  0  0  0  0  0  0  0
    4.5421    2.2217    7.9457 C   0  0  0  0  0  0  0  0  0  0  0  0
    3.0616    2.5665    8.1488 C   0  0  0  0  0  0  0  0  0  0  0  0
    2.8244    2.6129    9.2104 H   0  0  0  0  0  0  0  0  0  0  0  0
    2.4366    1.7942    7.6888 H   0  0  0  0  0  0  0  0  0  0  0  0
    2.8052    3.5279    7.7049 H   0  0  0  0  0  0  0  0  0  0  0  0
    4.8336    0.9117    8.6754 C   0  0  0  0  0  0  0  0  0  0  0  0
    4.4856    0.9707    9.7060 H   0  0  0  0  0  0  0  0  0  0  0  0
    5.8998    0.6994    8.6953 H   0  0  0  0  0  0  0  0  0  0  0  0
    4.3130    0.0901    8.1846 H   0  0  0  0  0  0  0  0  0  0  0  0
    5.4194    3.3466    8.4891 C   0  0  0  0  0  0  0  0  0  0  0  0
    5.2222    4.2927    7.9901 H   0  0  0  0  0  0  0  0  0  0  0  0
    6.4756    3.1173    8.3869 H   0  0  0  0  0  0  0  0  0  0  0  0
    5.2079    3.4798    9.5498 H   0  0  0  0  0  0  0  0  0  0  0  0
    6.3447    1.2452    5.5550 C   0  0  0  0  0  0  0  0  0  0  0  0
    6.4054   -0.2411    5.9103 C   0  0  0  0  0  0  0  0  0  0  0  0
    7.2113   -0.7258    5.3604 H   0  0  0  0  0  0  0  0  0  0  0  0
    5.4656   -0.7262    5.6454 H   0  0  0  0  0  0  0  0  0  0  0  0
    6.5812   -0.3970    6.9700 H   0  0  0  0  0  0  0  0  0  0  0  0
    6.3137    1.3579    4.0265 C   0  0  0  0  0  0  0  0  0  0  0  0
    6.3364    2.3933    3.6917 H   0  0  0  0  0  0  0  0  0  0  0  0
    5.4029    0.8835    3.6432 H   0  0  0  0  0  0  0  0  0  0  0  0
    7.1712    0.8439    3.5941 H   0  0  0  0  0  0  0  0  0  0  0  0
    7.5577    1.9798    6.1153 C   0  0  0  0  0  0  0  0  0  0  0  0
    7.6845    1.7726    7.1748 H   0  0  0  0  0  0  0  0  0  0  0  0
    7.4815    3.0563    5.9750 H   0  0  0  0  0  0  0  0  0  0  0  0
    8.4559    1.6381    5.6014 H   0  0  0  0  0  0  0  0  0  0  0  0
    4.6460    3.6282    5.3861 C   0  0  0  0  0  0  0  0  0  0  0  0
    4.0573    4.2469    6.0702 H   0  0  0  0  0  0  0  0  0  0  0  0
    5.6335    4.0820    5.2878 H   0  0  0  0  0  0  0  0  0  0  0  0
    3.9209    3.5904    4.0759 C   0  0  0  0  0  0  0  0  0  0  0  0
    4.1003    4.5703    3.1223 C   0  0  0  0  0  0  0  0  0  0  0  0
    4.8103    5.3646    3.2963 H   0  0  0  0  0  0  0  0  0  0  0  0
    3.3610    4.5336    1.9401 C   0  0  0  0  0  0  0  0  0  0  0  0
    3.5007    5.2888    1.1830 H   0  0  0  0  0  0  0  0  0  0  0  0
    2.4429    3.5198    1.7693 C   0  0  0  0  0  0  0  0  0  0  0  0
    1.8490    3.4708    0.8713 H   0  0  0  0  0  0  0  0  0  0  0  0
    2.2967    2.5498    2.7604 C   0  0  0  0  0  0  0  0  0  0  0  0
    1.3495    1.4534    2.7101 C   0  0  0  0  0  0  0  0  0  0  0  0
    0.3992    1.2725    1.7020 C   0  0  0  0  0  0  0  0  0  0  0  0
    0.3542    1.9580    0.8711 H   0  0  0  0  0  0  0  0  0  0  0  0
   -0.4826    0.2145    1.7784 C   0  0  0  0  0  0  0  0  0  0  0  0
   -1.2231    0.0612    1.0079 H   0  0  0  0  0  0  0  0  0  0  0  0
   -0.3994   -0.6470    2.8670 C   0  0  0  0  0  0  0  0  0  0  0  0
   -1.0700   -1.4852    2.9662 H   0  0  0  0  0  0  0  0  0  0  0  0
    0.5660   -0.4163    3.8274 C   0  0  0  0  0  0  0  0  0  0  0  0
    0.6713   -1.0726    4.6820 H   0  0  0  0  0  0  0  0  0  0  0  0
  1  3  1  0  0  0  0
  1  2  1  6  0  0  0
  3  6  1  0  0  0  0
  4 35  1  0  0  0  0
  4  1  1  0  0  0  0
  5 50  1  0  0  0  0
  5  1  1  0  0  0  0
  6  7  1  0  0  0  0
  6 15  1  0  0  0  0
  6 11  1  0  0  0  0
  7  8  1  0  0  0  0
  9  7  1  0  0  0  0
 10  7  1  0  0  0  0
 11 13  1  0  0  0  0
 11 12  1  0  0  0  0
 14 11  1  0  0  0  0
 15 18  1  0  0  0  0
 16 15  1  0  0  0  0
 17 15  1  0  0  0  0
 19 20  1  0  0  0  0
 19  3  1  0  0  0  0
 19 28  1  0  0  0  0
 20 23  1  0  0  0  0
 21 20  1  0  0  0  0
 22 20  1  0  0  0  0
 24 19  1  0  0  0  0
 25 24  1  0  0  0  0
 26 24  1  0  0  0  0
 27 24  1  0  0  0  0
 28 29  1  0  0  0  0
 30 28  1  0  0  0  0
 31 28  1  0  0  0  0
 32 33  1  0  0  0  0
 32  3  1  0  0  0  0
 34 32  1  0  0  0  0
 35 32  1  0  0  0  0
 36 37  1  0  0  0  0
 36 35  2  0  0  0  0
 38 36  1  0  0  0  0
 39 38  1  0  0  0  0
 40 38  2  0  0  0  0
 40 42  1  0  0  0  0
 41 40  1  0  0  0  0
 42  4  1  0  0  0  0
 43 42  2  0  0  0  0
 43  5  1  0  0  0  0
 44 46  2  0  0  0  0
 44 43  1  0  0  0  0
 45 44  1  0  0  0  0
 46 48  1  0  0  0  0
 47 46  1  0  0  0  0
 48 49  1  0  0  0  0
 48 50  2  0  0  0  0
 50 51  1  0  0  0  0
M  END
$$$$
