CSD_code = MOMFEZ | q = 0 | S = 0 | Stoichiometry = C8H4BrN2O5Re | MND = 6
 OpenBabel04212202073D

 21 22  0  0  1  0  0  0  0  0999 V2000
    2.4086    8.8833    1.0412 Re  0  0  0  0  0  0  0  0  0  0  0  0
    1.5984   10.3444   -0.8481 Br  0  0  0  0  0  0  0  0  0  0  0  0
   -0.6308    8.2657    1.2063 O   0  0  0  0  0  1  0  0  0  0  0  0
    0.4927    8.3519    1.1616 C   0  0  0  0  0  2  0  0  0  0  0  0
    3.0489    7.0390   -1.3784 O   0  0  0  0  0  1  0  0  0  0  0  0
    2.8132    7.6366   -0.4414 C   0  0  0  0  0  2  0  0  0  0  0  0
    3.0217    7.8460    2.3300 N   0  0  0  0  0  2  0  0  0  0  0  0
    3.4194    7.1114    3.1275 O   0  0  0  0  0  1  0  0  0  0  0  0
    4.2691   10.0360    0.9489 N   0  0  0  0  0  0  0  0  0  0  0  0
    2.9424   11.3991    2.5013 C   0  0  0  0  0  0  0  0  0  0  0  0
    4.2100   11.1691    1.6549 C   0  0  2  0  0  3  0  0  0  0  0  0
    5.2277   12.1105    1.6386 C   0  0  0  0  0  0  0  0  0  0  0  0
    5.1017   13.0001    2.2361 H   0  0  0  0  0  0  0  0  0  0  0  0
    6.3439   11.8737    0.8581 C   0  0  0  0  0  0  0  0  0  0  0  0
    7.1502   12.5895    0.8134 H   0  0  0  0  0  0  0  0  0  0  0  0
    6.4024   10.6933    0.1286 C   0  0  0  0  0  0  0  0  0  0  0  0
    7.2511   10.4629   -0.4947 H   0  0  0  0  0  0  0  0  0  0  0  0
    5.3474    9.8037    0.2010 C   0  0  0  0  0  0  0  0  0  0  0  0
    5.3616    8.8769   -0.3583 H   0  0  0  0  0  0  0  0  0  0  0  0
    2.0537   10.4984    2.3690 O   0  0  0  0  0  0  0  0  0  0  0  0
    2.8856   12.3761    3.2143 O   0  0  0  0  0  0  0  0  0  0  0  0
  1  4  1  0  0  0  0
  1  7  1  0  0  0  0
  1 20  1  0  0  0  0
  2  1  1  0  0  0  0
  4  3  1  0  0  0  0
  5  6  1  0  0  0  0
  6  1  1  0  0  0  0
  7  8  1  0  0  0  0
  9  1  1  0  0  0  0
  9 11  1  0  0  0  0
 10 21  2  0  0  0  0
 11 12  1  6  0  0  0
 11 10  1  0  0  0  0
 12 13  1  0  0  0  0
 14 12  2  0  0  0  0
 15 14  1  0  0  0  0
 16 18  2  0  0  0  0
 16 14  1  0  0  0  0
 17 16  1  0  0  0  0
 18  9  1  0  0  0  0
 19 18  1  0  0  0  0
 20 10  1  0  0  0  0
M  END
$$$$
