CSD_code = MOMTIR | q = 0 | S = 0 | Stoichiometry = C16H25ClNO2PPd | MND = 4
 OpenBabel04212202073D

 47 49  0  0  1  0  0  0  0  0999 V2000
   -3.0759    6.9571   10.6356 Pd  0  0  2  0  0  0  0  0  0  0  0  0
   -1.5643    7.9911    9.3555 Cl  0  0  0  0  0  0  0  0  0  0  0  0
   -4.2747    6.4491    8.8215 P   0  0  0  0  0  4  0  0  0  0  0  0
   -4.6167    5.3964   13.9939 O   0  0  0  0  0  0  0  0  0  0  0  0
   -4.4276    6.0859   11.9015 O   0  0  0  0  0  0  0  0  0  0  0  0
   -2.0429    7.2866   12.4507 N   0  0  2  0  0  4  0  0  0  0  0  0
   -2.4271    8.1223   12.9099 H   0  0  0  0  0  0  0  0  0  0  0  0
   -0.5822    7.4143   12.4218 C   0  0  0  0  0  0  0  0  0  0  0  0
   -0.3166    8.3547   11.9272 H   0  0  0  0  0  0  0  0  0  0  0  0
   -0.1816    6.5968   11.8022 H   0  0  0  0  0  0  0  0  0  0  0  0
   -2.4396    6.1163   13.2524 C   0  0  1  0  0  0  0  0  0  0  0  0
   -1.9027    5.2406   12.8509 H   0  0  0  0  0  0  0  0  0  0  0  0
   -2.0764    6.3307   14.7180 C   0  0  0  0  0  0  0  0  0  0  0  0
   -2.7715    7.0579   15.1545 H   0  0  0  0  0  0  0  0  0  0  0  0
   -2.2218    5.3993   15.2673 H   0  0  0  0  0  0  0  0  0  0  0  0
   -0.6647    6.8249   14.8772 C   0  0  0  0  0  0  0  0  0  0  0  0
    0.0374    7.3532   13.7968 C   0  0  0  0  0  0  0  0  0  0  0  0
    1.3369    7.8115   13.9773 C   0  0  0  0  0  0  0  0  0  0  0  0
    1.8739    8.2154   13.1309 H   0  0  0  0  0  0  0  0  0  0  0  0
    1.9386    7.7548   15.2194 C   0  0  0  0  0  0  0  0  0  0  0  0
    2.9480    8.1156   15.3477 H   0  0  0  0  0  0  0  0  0  0  0  0
    1.2400    7.2365   16.2980 C   0  0  0  0  0  0  0  0  0  0  0  0
    1.7026    7.1902   17.2725 H   0  0  0  0  0  0  0  0  0  0  0  0
   -0.0507    6.7762   16.1237 C   0  0  0  0  0  0  0  0  0  0  0  0
   -0.5991    6.3687   16.9607 H   0  0  0  0  0  0  0  0  0  0  0  0
   -3.9726    5.8373   13.0639 C   0  0  0  0  0  0  0  0  0  0  0  0
   -6.0428    6.6992    9.2493 C   0  0  0  0  0  0  0  0  0  0  0  0
   -6.7019    6.4774    8.4077 H   0  0  0  0  0  0  0  0  0  0  0  0
   -6.2578    6.0087   10.0685 H   0  0  0  0  0  0  0  0  0  0  0  0
   -6.1992    8.1371    9.7383 C   0  0  0  0  0  0  0  0  0  0  0  0
   -7.1725    8.2885   10.1995 H   0  0  0  0  0  0  0  0  0  0  0  0
   -6.0894    8.8464    8.9193 H   0  0  0  0  0  0  0  0  0  0  0  0
   -5.4223    8.3483   10.4903 H   0  0  0  0  0  0  0  0  0  0  0  0
   -4.0634    4.6604    8.3998 C   0  0  0  0  0  0  0  0  0  0  0  0
   -5.0372    4.1980    8.2235 H   0  0  0  0  0  0  0  0  0  0  0  0
   -3.4637    4.5874    7.4884 H   0  0  0  0  0  0  0  0  0  0  0  0
   -3.3392    3.9731    9.5577 C   0  0  0  0  0  0  0  0  0  0  0  0
   -3.1194    2.9337    9.3203 H   0  0  0  0  0  0  0  0  0  0  0  0
   -3.9574    4.0022   10.4561 H   0  0  0  0  0  0  0  0  0  0  0  0
   -2.3899    4.4953    9.7627 H   0  0  0  0  0  0  0  0  0  0  0  0
   -4.0012    7.3410    7.2355 C   0  0  0  0  0  0  0  0  0  0  0  0
   -4.0349    8.4120    7.4520 H   0  0  0  0  0  0  0  0  0  0  0  0
   -2.9742    7.1132    6.9377 H   0  0  0  0  0  0  0  0  0  0  0  0
   -4.9825    6.9741    6.1300 C   0  0  0  0  0  0  0  0  0  0  0  0
   -4.6768    7.4429    5.1971 H   0  0  0  0  0  0  0  0  0  0  0  0
   -5.9863    7.3193    6.3641 H   0  0  0  0  0  0  0  0  0  0  0  0
   -5.0139    5.8979    5.9746 H   0  0  0  0  0  0  0  0  0  0  0  0
  1  2  1  1  0  0  0
  1  5  1  0  0  0  0
  1  6  1  0  0  0  0
  3 27  1  0  0  0  0
  3  1  1  0  0  0  0
  5 26  1  0  0  0  0
  6  7  1  1  0  0  0
  6 11  1  0  0  0  0
  8  6  1  0  0  0  0
  8 17  1  0  0  0  0
  9  8  1  0  0  0  0
 10  8  1  0  0  0  0
 11 12  1  6  0  0  0
 11 13  1  0  0  0  0
 13 16  1  0  0  0  0
 13 14  1  0  0  0  0
 13 15  1  0  0  0  0
 16 24  1  0  0  0  0
 17 18  1  0  0  0  0
 17 16  2  0  0  0  0
 18 20  2  0  0  0  0
 19 18  1  0  0  0  0
 20 21  1  0  0  0  0
 20 22  1  0  0  0  0
 22 23  1  0  0  0  0
 24 22  2  0  0  0  0
 24 25  1  0  0  0  0
 26 11  1  0  0  0  0
 26  4  2  0  0  0  0
 27 30  1  0  0  0  0
 27 29  1  0  0  0  0
 28 27  1  0  0  0  0
 30 31  1  0  0  0  0
 30 33  1  0  0  0  0
 32 30  1  0  0  0  0
 34  3  1  0  0  0  0
 34 37  1  0  0  0  0
 35 34  1  0  0  0  0
 36 34  1  0  0  0  0
 37 40  1  0  0  0  0
 37 39  1  0  0  0  0
 38 37  1  0  0  0  0
 41 42  1  0  0  0  0
 41  3  1  0  0  0  0
 43 41  1  0  0  0  0
 44 46  1  0  0  0  0
 44 41  1  0  0  0  0
 45 44  1  0  0  0  0
 47 44  1  0  0  0  0
M  END
$$$$
