CSD_code = MONFEB | q = 0 | S = 0 | Stoichiometry = C20H17ClN7O5Re | MND = 6
 OpenBabel04212202073D

 51 54  0  0  0  0  0  0  0  0999 V2000
    2.2080    1.7964    1.3256 Re  0  0  0  0  0  0  0  0  0  0  0  0
    1.4564    4.0161    1.0337 Cl  0  0  0  0  0  0  0  0  0  0  0  0
    0.1902   -0.7470   -7.3849 N   0  0  0  0  0  0  0  0  0  0  0  0
   -1.4938    0.2822   -8.5097 O   0  0  0  0  0  0  0  0  0  0  0  0
    1.8723   -1.7992   -6.2956 O   0  0  0  0  0  0  0  0  0  0  0  0
    2.8572    2.1700   -1.5935 N   0  0  0  0  0  0  0  0  0  0  0  0
    0.0809    2.3176   -4.7280 N   0  0  0  0  0  0  0  0  0  0  0  0
   -0.1557    0.7950   -0.3904 O   0  0  0  0  0  1  0  0  0  0  0  0
    3.3828    2.2921   -0.4115 N   0  0  0  0  0  0  0  0  0  0  0  0
   -0.7235    1.2841   -6.6311 N   0  0  0  0  0  0  0  0  0  0  0  0
    3.5508   -0.9703    1.6429 O   0  0  0  0  0  1  0  0  0  0  0  0
    1.8535    0.2449   -4.3385 N   0  0  0  0  0  0  0  0  0  0  0  0
    3.9504    2.8175    2.1185 N   0  0  0  0  0  0  0  0  0  0  0  0
    4.1889    3.1190    3.3890 C   0  0  0  0  0  3  0  0  0  0  0  0
    1.0480    0.2409   -5.3839 C   0  0  0  0  0  0  0  0  0  0  0  0
    0.1299    1.2900   -5.5745 C   0  0  0  0  0  0  0  0  0  0  0  0
    0.6272    1.7595    3.9794 O   0  0  0  0  0  1  0  0  0  0  0  0
    5.8703    4.1195    1.5027 C   0  0  0  0  0  0  0  0  0  0  0  0
    1.1120   -0.8633   -6.3493 C   0  0  0  0  0  0  0  0  0  0  0  0
    0.2108   -1.8220   -8.3653 C   0  0  0  0  0  0  0  0  0  0  0  0
   -0.5591   -1.6259   -9.1063 H   0  0  0  0  0  0  0  0  0  0  0  0
    0.0264   -2.7713   -7.8635 H   0  0  0  0  0  0  0  0  0  0  0  0
    1.1925   -1.8635   -8.8365 H   0  0  0  0  0  0  0  0  0  0  0  0
    4.7745    3.3164    1.1748 C   0  0  0  0  0  0  0  0  0  0  0  0
    5.2458    3.9168    3.7903 C   0  0  0  0  0  0  0  0  0  0  0  0
    1.8003    1.2561   -3.4795 C   0  0  0  0  0  0  0  0  0  0  0  0
    0.8987    2.3345   -3.6884 C   0  0  0  0  0  0  0  0  0  0  0  0
    3.3262   -0.1774   -2.0468 C   0  0  0  0  0  0  0  0  0  0  0  0
    4.3388   -0.0517   -1.6683 H   0  0  0  0  0  0  0  0  0  0  0  0
    3.3261   -0.7879   -2.9443 H   0  0  0  0  0  0  0  0  0  0  0  0
    2.7391   -0.6803   -1.2746 H   0  0  0  0  0  0  0  0  0  0  0  0
    6.1067    4.4265    2.8263 C   0  0  0  0  0  0  0  0  0  0  0  0
    0.7952    3.5213   -2.8049 C   0  0  0  0  0  0  0  0  0  0  0  0
   -0.0095    4.1601   -3.1584 H   0  0  0  0  0  0  0  0  0  0  0  0
    1.7307    4.0782   -2.8085 H   0  0  0  0  0  0  0  0  0  0  0  0
    0.6027    3.2285   -1.7737 H   0  0  0  0  0  0  0  0  0  0  0  0
    4.4419    3.0003   -0.1870 C   0  0  0  0  0  3  0  0  0  0  0  0
   -0.7286    0.2693   -7.5743 C   0  0  0  0  0  0  0  0  0  0  0  0
    2.6891    1.1443   -2.3287 C   0  0  0  0  0  0  0  0  0  0  0  0
    3.0317    0.0499    1.5364 C   0  0  0  0  0  2  0  0  0  0  0  0
   -1.6638    2.3786   -6.7752 C   0  0  0  0  0  0  0  0  0  0  0  0
   -2.2663    2.1872   -7.6600 H   0  0  0  0  0  0  0  0  0  0  0  0
   -1.1206    3.3167   -6.8810 H   0  0  0  0  0  0  0  0  0  0  0  0
   -2.2948    2.4357   -5.8895 H   0  0  0  0  0  0  0  0  0  0  0  0
    0.6983    1.1128    0.3045 C   0  0  0  0  0  2  0  0  0  0  0  0
    1.2084    1.6949    2.9977 C   0  0  0  0  0  2  0  0  0  0  0  0
    3.5058    2.7039    4.1186 H   0  0  0  0  0  0  0  0  0  0  0  0
    6.5048    4.4966    0.7158 H   0  0  0  0  0  0  0  0  0  0  0  0
    6.9400    5.0528    3.1057 H   0  0  0  0  0  0  0  0  0  0  0  0
    5.3882    4.1344    4.8362 H   0  0  0  0  0  0  0  0  0  0  0  0
    5.0499    3.3848   -0.9995 H   0  0  0  0  0  0  0  0  0  0  0  0
  1 40  1  0  0  0  0
  1 13  1  0  0  0  0
  1 46  1  0  0  0  0
  2  1  1  0  0  0  0
  3 19  1  0  0  0  0
  4 38  2  0  0  0  0
  6  9  1  0  0  0  0
  7 27  1  0  0  0  0
  8 45  1  0  0  0  0
  9 37  1  0  0  0  0
  9  1  1  0  0  0  0
 10 16  1  0  0  0  0
 12 26  1  0  0  0  0
 13 14  1  0  0  0  0
 14 25  1  0  0  0  0
 14 47  1  0  0  0  0
 15 12  2  0  0  0  0
 16 15  1  0  0  0  0
 16  7  2  0  0  0  0
 18 32  1  0  0  0  0
 19  5  2  0  0  0  0
 19 15  1  0  0  0  0
 20 22  1  0  0  0  0
 20  3  1  0  0  0  0
 21 20  1  0  0  0  0
 23 20  1  0  0  0  0
 24 18  2  0  0  0  0
 24 13  1  0  0  0  0
 25 50  1  0  0  0  0
 26 39  1  0  0  0  0
 27 26  2  0  0  0  0
 27 33  1  0  0  0  0
 28 29  1  0  0  0  0
 28 31  1  0  0  0  0
 30 28  1  0  0  0  0
 32 49  1  0  0  0  0
 32 25  2  0  0  0  0
 33 36  1  0  0  0  0
 34 33  1  0  0  0  0
 35 33  1  0  0  0  0
 37 24  1  0  0  0  0
 38  3  1  0  0  0  0
 38 10  1  0  0  0  0
 39 28  1  0  0  0  0
 39  6  2  0  0  0  0
 40 11  1  0  0  0  0
 41 10  1  0  0  0  0
 41 44  1  0  0  0  0
 42 41  1  0  0  0  0
 43 41  1  0  0  0  0
 45  1  1  0  0  0  0
 46 17  1  0  0  0  0
 48 18  1  0  0  0  0
 51 37  1  0  0  0  0
M  END
$$$$
