CSD_code = MONPOU | q = 0 | S = 0 | Stoichiometry = C26H24Cl4P2Ti | MND = 6
 OpenBabel04212202073D

 57 61  0  0  0  0  0  0  0  0999 V2000
    7.8186    9.4054    1.7683 Ti  0  0  0  0  0  0  0  0  0  0  0  0
    7.1321    7.3964    2.5393 Cl  0  0  0  0  0  0  0  0  0  0  0  0
    8.1399   11.6424    1.7996 Cl  0  0  0  0  0  0  0  0  0  0  0  0
    9.8799    8.8600    1.3659 Cl  0  0  0  0  0  0  0  0  0  0  0  0
    6.9708    9.2432   -0.2236 Cl  0  0  0  0  0  0  0  0  0  0  0  0
    5.6145   10.3808    2.5901 P   0  0  0  0  0  4  0  0  0  0  0  0
    8.2422    9.4907    4.2690 P   0  0  0  0  0  4  0  0  0  0  0  0
    5.9182   10.9062    4.3392 C   0  0  0  0  0  0  0  0  0  0  0  0
    6.6064   11.7602    4.3225 H   0  0  0  0  0  0  0  0  0  0  0  0
    4.9834   11.1973    4.8280 H   0  0  0  0  0  0  0  0  0  0  0  0
    6.5820    9.7246    5.0482 C   0  0  0  0  0  0  0  0  0  0  0  0
    6.0019    8.8096    4.8710 H   0  0  0  0  0  0  0  0  0  0  0  0
    6.6700    9.8960    6.1252 H   0  0  0  0  0  0  0  0  0  0  0  0
    5.0385   13.1523    2.2653 C   0  0  0  0  0  0  0  0  0  0  0  0
    5.4720   13.3385    3.2363 H   0  0  0  0  0  0  0  0  0  0  0  0
    4.5486   14.2111    1.5198 C   0  0  0  0  0  0  0  0  0  0  0  0
    4.5922   15.2124    1.9227 H   0  0  0  0  0  0  0  0  0  0  0  0
    4.0136   13.9948    0.2614 C   0  0  0  0  0  0  0  0  0  0  0  0
    3.6393   14.8270   -0.3160 H   0  0  0  0  0  0  0  0  0  0  0  0
    3.9683   12.7118   -0.2617 C   0  0  0  0  0  0  0  0  0  0  0  0
    3.5617   12.5424   -1.2476 H   0  0  0  0  0  0  0  0  0  0  0  0
    4.4520   11.6499    0.4773 C   0  0  0  0  0  0  0  0  0  0  0  0
    4.4360   10.6437    0.0751 H   0  0  0  0  0  0  0  0  0  0  0  0
    4.9846   11.8645    1.7476 C   0  0  0  0  0  0  0  0  0  0  0  0
    3.9207    8.2605    2.0047 C   0  0  0  0  0  0  0  0  0  0  0  0
    4.7749    7.8747    1.4615 H   0  0  0  0  0  0  0  0  0  0  0  0
    2.7200    7.5712    2.0072 C   0  0  0  0  0  0  0  0  0  0  0  0
    2.6334    6.6414    1.4653 H   0  0  0  0  0  0  0  0  0  0  0  0
    1.6323    8.0749    2.7001 C   0  0  0  0  0  0  0  0  0  0  0  0
    0.6960    7.5368    2.7034 H   0  0  0  0  0  0  0  0  0  0  0  0
    1.7392    9.2783    3.3800 C   0  0  0  0  0  0  0  0  0  0  0  0
    0.8853    9.6796    3.9062 H   0  0  0  0  0  0  0  0  0  0  0  0
    2.9340    9.9729    3.3778 C   0  0  0  0  0  0  0  0  0  0  0  0
    3.0032   10.9255    3.8851 H   0  0  0  0  0  0  0  0  0  0  0  0
    4.0384    9.4567    2.7049 C   0  0  0  0  0  0  0  0  0  0  0  0
    8.2502    7.2020    5.9651 C   0  0  0  0  0  0  0  0  0  0  0  0
    7.2213    7.4081    6.2184 H   0  0  0  0  0  0  0  0  0  0  0  0
    8.8805    6.0962    6.5102 C   0  0  0  0  0  0  0  0  0  0  0  0
    8.3398    5.4566    7.1924 H   0  0  0  0  0  0  0  0  0  0  0  0
   10.1923    5.8025    6.1797 C   0  0  0  0  0  0  0  0  0  0  0  0
   10.6745    4.9349    6.6050 H   0  0  0  0  0  0  0  0  0  0  0  0
   10.8830    6.6158    5.2946 C   0  0  0  0  0  0  0  0  0  0  0  0
   11.9028    6.3822    5.0271 H   0  0  0  0  0  0  0  0  0  0  0  0
   10.2617    7.7214    4.7474 C   0  0  0  0  0  0  0  0  0  0  0  0
   10.7845    8.3552    4.0407 H   0  0  0  0  0  0  0  0  0  0  0  0
    8.9431    8.0230    5.0845 C   0  0  0  0  0  0  0  0  0  0  0  0
    9.1825   11.1524    6.3803 C   0  0  0  0  0  0  0  0  0  0  0  0
    8.4250   10.7161    7.0156 H   0  0  0  0  0  0  0  0  0  0  0  0
   10.0577   12.0847    6.9072 C   0  0  0  0  0  0  0  0  0  0  0  0
    9.9664   12.3801    7.9423 H   0  0  0  0  0  0  0  0  0  0  0  0
   11.0528   12.6340    6.1148 C   0  0  0  0  0  0  0  0  0  0  0  0
   11.7322   13.3625    6.5318 H   0  0  0  0  0  0  0  0  0  0  0  0
   11.1795   12.2429    4.7922 C   0  0  0  0  0  0  0  0  0  0  0  0
   11.9600   12.6630    4.1758 H   0  0  0  0  0  0  0  0  0  0  0  0
   10.3036   11.3149    4.2580 C   0  0  0  0  0  0  0  0  0  0  0  0
   10.3931   11.0089    3.2217 H   0  0  0  0  0  0  0  0  0  0  0  0
    9.2907   10.7738    5.0459 C   0  0  0  0  0  0  0  0  0  0  0  0
  1  3  1  0  0  0  0
  1  2  1  0  0  0  0
  1  6  1  0  0  0  0
  1  7  1  0  0  0  0
  4  1  1  0  0  0  0
  5  1  1  0  0  0  0
  6 35  1  0  0  0  0
  6  8  1  0  0  0  0
  7 57  1  0  0  0  0
  7 11  1  0  0  0  0
  7 46  1  0  0  0  0
  8 10  1  0  0  0  0
  8 11  1  0  0  0  0
  9  8  1  0  0  0  0
 11 13  1  0  0  0  0
 12 11  1  0  0  0  0
 14 15  1  0  0  0  0
 16 17  1  0  0  0  0
 16 14  2  0  0  0  0
 18 16  1  0  0  0  0
 19 18  1  0  0  0  0
 20 18  2  0  0  0  0
 20 22  1  0  0  0  0
 21 20  1  0  0  0  0
 22 24  2  0  0  0  0
 23 22  1  0  0  0  0
 24 14  1  0  0  0  0
 24  6  1  0  0  0  0
 25 27  2  0  0  0  0
 25 35  1  0  0  0  0
 26 25  1  0  0  0  0
 27 29  1  0  0  0  0
 28 27  1  0  0  0  0
 29 30  1  0  0  0  0
 29 31  2  0  0  0  0
 31 32  1  0  0  0  0
 33 31  1  0  0  0  0
 33 34  1  0  0  0  0
 35 33  2  0  0  0  0
 36 37  1  0  0  0  0
 36 38  1  0  0  0  0
 38 39  1  0  0  0  0
 40 38  2  0  0  0  0
 40 41  1  0  0  0  0
 42 40  1  0  0  0  0
 43 42  1  0  0  0  0
 44 46  1  0  0  0  0
 44 42  2  0  0  0  0
 45 44  1  0  0  0  0
 46 36  2  0  0  0  0
 47 49  1  0  0  0  0
 47 48  1  0  0  0  0
 49 50  1  0  0  0  0
 51 52  1  0  0  0  0
 51 49  2  0  0  0  0
 53 51  1  0  0  0  0
 54 53  1  0  0  0  0
 55 53  2  0  0  0  0
 55 57  1  0  0  0  0
 56 55  1  0  0  0  0
 57 47  2  0  0  0  0
M  END
$$$$
