CSD_code = MONSUF | q = 0 | S = 0 | Stoichiometry = C17H14Cl2FeN4 | MND = 5
 OpenBabel04212202073D

 38 43  0  0  1  0  0  0  0  0999 V2000
    7.1671    2.0426    2.5978 Fe  0  0  0  0  0  0  0  0  0  0  0  0
    8.8098    1.8123    1.3177 Cl  0  0  0  0  0  0  0  0  0  0  0  0
    6.3814    3.0536    4.2550 Cl  0  0  0  0  0  0  0  0  0  0  0  0
    6.9101   -0.6151    3.5103 N   0  0  0  0  0  0  0  0  0  0  0  0
    5.9482    0.8366    2.1045 N   0  0  0  0  0  0  0  0  0  0  0  0
    7.6981    0.4760    3.7043 N   0  0  0  0  0  0  0  0  0  0  0  0
    7.3342   -1.6457    4.2927 C   0  0  1  0  0  3  0  0  0  0  0  0
    4.0022    0.3779    0.7074 C   0  0  0  0  0  0  0  0  0  0  0  0
    6.2239    3.2043    1.3236 N   0  0  0  0  0  0  0  0  0  0  0  0
    4.9078   -1.3178    2.1687 C   0  0  0  0  0  0  0  0  0  0  0  0
    4.8745   -2.3163    2.5678 H   0  0  0  0  0  0  0  0  0  0  0  0
    6.7112   -2.9923    4.3305 C   0  0  0  0  0  0  0  0  0  0  0  0
    7.2628   -3.6169    5.0280 H   0  0  0  0  0  0  0  0  0  0  0  0
    6.7391   -3.4628    3.3478 H   0  0  0  0  0  0  0  0  0  0  0  0
    5.6749   -2.9349    4.6632 H   0  0  0  0  0  0  0  0  0  0  0  0
    3.9633   -0.9259    1.2307 C   0  0  0  0  0  0  0  0  0  0  0  0
    3.2045   -1.6197    0.9069 H   0  0  0  0  0  0  0  0  0  0  0  0
    5.8889   -0.4258    2.5908 C   0  0  0  0  0  0  0  0  0  0  0  0
    5.0226    1.2125    1.1873 C   0  0  0  0  0  0  0  0  0  0  0  0
    3.1212    0.9486   -0.2562 C   0  0  0  0  0  0  0  0  0  0  0  0
    2.3237    0.3328   -0.6454 H   0  0  0  0  0  0  0  0  0  0  0  0
    4.3027    3.0832   -0.2011 C   0  0  0  0  0  0  0  0  0  0  0  0
    8.4201   -1.1758    4.9988 C   0  0  0  0  0  0  0  0  0  0  0  0
    9.0036   -1.7224    5.7110 H   0  0  0  0  0  0  0  0  0  0  0  0
    5.1832    2.5383    0.7544 C   0  0  0  0  0  0  0  0  0  0  0  0
    8.6139    0.1568    4.6014 C   0  0  0  0  0  0  0  0  0  0  0  0
    4.5358    4.4118   -0.5803 C   0  0  0  0  0  0  0  0  0  0  0  0
    3.9003    4.8929   -1.3085 H   0  0  0  0  0  0  0  0  0  0  0  0
    3.2662    2.2328   -0.6862 C   0  0  0  0  0  0  0  0  0  0  0  0
    2.5833    2.6382   -1.4186 H   0  0  0  0  0  0  0  0  0  0  0  0
    5.5945    5.0861   -0.0018 C   0  0  0  0  0  0  0  0  0  0  0  0
    5.8040    6.1094   -0.2708 H   0  0  0  0  0  0  0  0  0  0  0  0
    9.6255    1.1442    5.0491 C   0  0  0  0  0  0  0  0  0  0  0  0
    9.6653    1.9637    4.3308 H   0  0  0  0  0  0  0  0  0  0  0  0
   10.6060    0.6815    5.1306 H   0  0  0  0  0  0  0  0  0  0  0  0
    9.3483    1.5497    6.0217 H   0  0  0  0  0  0  0  0  0  0  0  0
    6.4094    4.4563    0.9383 C   0  0  0  0  0  0  0  0  0  0  0  0
    7.2384    4.9803    1.3940 H   0  0  0  0  0  0  0  0  0  0  0  0
  1  6  1  0  0  0  0
  1  3  1  0  0  0  0
  2  1  1  0  0  0  0
  4  6  1  0  0  0  0
  4  7  1  0  0  0  0
  5 18  1  0  0  0  0
  5  1  1  0  0  0  0
  6 26  1  0  0  0  0
  7 12  1  6  0  0  0
  7 23  1  0  0  0  0
  8 19  1  0  0  0  0
  8 16  2  0  0  0  0
  9  1  1  0  0  0  0
 10 11  1  0  0  0  0
 10 18  2  0  0  0  0
 12 15  1  0  0  0  0
 12 13  1  0  0  0  0
 14 12  1  0  0  0  0
 16 10  1  0  0  0  0
 17 16  1  0  0  0  0
 18  4  1  0  0  0  0
 19  5  1  0  0  0  0
 20  8  1  0  0  0  0
 21 20  1  0  0  0  0
 22 25  1  0  0  0  0
 23 24  1  0  0  0  0
 25 19  2  0  0  0  0
 25  9  1  0  0  0  0
 26 23  2  0  0  0  0
 26 33  1  0  0  0  0
 27 22  2  0  0  0  0
 27 31  1  0  0  0  0
 28 27  1  0  0  0  0
 29 20  2  0  0  0  0
 29 22  1  0  0  0  0
 30 29  1  0  0  0  0
 31 37  2  0  0  0  0
 32 31  1  0  0  0  0
 33 35  1  0  0  0  0
 33 36  1  0  0  0  0
 34 33  1  0  0  0  0
 37  9  1  0  0  0  0
 37 38  1  0  0  0  0
M  END
$$$$
