CSD_code = MONSIT | q = 1 | S = 0 | Stoichiometry = C19H17ClF3FeN4O2(1+) | MND = 6
 OpenBabel04212202073D

 47 52  0  0  1  0  0  0  0  0999 V2000
    3.0876    2.5434    2.1216 Fe  0  0  0  0  0  0  0  0  0  0  0  0
    3.1897    0.4583    2.0601 Cl  0  0  0  0  0  0  0  0  0  0  0  0
    4.8625    2.8117    1.3436 N   0  0  0  0  0  0  0  0  0  0  0  0
    3.0273    4.4515    2.1662 N   0  0  0  0  0  0  0  0  0  0  0  0
    1.0482    3.1157    3.0240 N   0  0  0  0  0  0  0  0  0  0  0  0
    0.9142    4.4585    3.0168 N   0  0  0  0  0  0  0  0  0  0  0  0
    2.3382    2.6815    0.5196 O   0  0  0  0  0  0  0  0  0  0  0  0
    3.7878    2.6565    3.7452 O   0  0  0  0  0  0  0  0  0  0  0  0
   -0.3827    0.5452    2.3652 F   0  0  0  0  0  0  0  0  0  0  0  0
    0.6624    0.5617    4.2471 F   0  0  0  0  0  0  0  0  0  0  0  0
   -1.4668    0.8791    4.1939 F   0  0  0  0  0  0  0  0  0  0  0  0
    5.7713    1.9546    0.9194 C   0  0  0  0  0  0  0  0  0  0  0  0
    5.5159    0.9063    0.9861 H   0  0  0  0  0  0  0  0  0  0  0  0
    7.0075    2.3625    0.4092 C   0  0  0  0  0  0  0  0  0  0  0  0
    7.7086    1.6133    0.0780 H   0  0  0  0  0  0  0  0  0  0  0  0
    7.3183    3.7027    0.3361 C   0  0  0  0  0  0  0  0  0  0  0  0
    8.2688    4.0356   -0.0522 H   0  0  0  0  0  0  0  0  0  0  0  0
    6.3700    4.6391    0.7786 C   0  0  0  0  0  0  0  0  0  0  0  0
    5.1518    4.1297    1.2732 C   0  0  0  0  0  0  0  0  0  0  0  0
    6.5536    6.0555    0.7617 C   0  0  0  0  0  0  0  0  0  0  0  0
    7.4892    6.4378    0.3827 H   0  0  0  0  0  0  0  0  0  0  0  0
    5.5934    6.9085    1.2048 C   0  0  0  0  0  0  0  0  0  0  0  0
    5.7537    7.9754    1.1848 H   0  0  0  0  0  0  0  0  0  0  0  0
    4.3518    6.4194    1.7053 C   0  0  0  0  0  0  0  0  0  0  0  0
    4.1531    5.0249    1.7268 C   0  0  0  0  0  0  0  0  0  0  0  0
    3.2932    7.2015    2.1937 C   0  0  0  0  0  0  0  0  0  0  0  0
    3.3845    8.2765    2.2200 H   0  0  0  0  0  0  0  0  0  0  0  0
    2.1362    6.5984    2.6440 C   0  0  0  0  0  0  0  0  0  0  0  0
    1.3391    7.2085    3.0265 H   0  0  0  0  0  0  0  0  0  0  0  0
    2.0267    5.2014    2.6067 C   0  0  0  0  0  0  0  0  0  0  0  0
   -0.8823    6.1955    3.5087 C   0  0  0  0  0  0  0  0  0  0  0  0
   -0.3907    6.7593    4.3009 H   0  0  0  0  0  0  0  0  0  0  0  0
   -1.9404    6.1348    3.7505 H   0  0  0  0  0  0  0  0  0  0  0  0
   -0.7771    6.7316    2.5668 H   0  0  0  0  0  0  0  0  0  0  0  0
   -0.3433    4.8209    3.4113 C   0  0  1  0  0  3  0  0  0  0  0  0
   -1.0222    3.6502    3.6846 C   0  0  0  0  0  0  0  0  0  0  0  0
   -2.0319    3.5429    4.0227 H   0  0  0  0  0  0  0  0  0  0  0  0
   -0.1097    2.6220    3.4282 C   0  0  0  0  0  0  0  0  0  0  0  0
   -0.3241    1.1445    3.5605 C   0  0  0  0  0  0  0  0  0  0  0  0
    3.5877    1.7874    4.7936 C   0  0  0  0  0  0  0  0  0  0  0  0
    2.5572    1.8175    5.1632 H   0  0  0  0  0  0  0  0  0  0  0  0
    4.2741    2.0416    5.6080 H   0  0  0  0  0  0  0  0  0  0  0  0
    3.7649    0.7552    4.4501 H   0  0  0  0  0  0  0  0  0  0  0  0
    1.4299    1.8186   -0.0523 C   0  0  0  0  0  0  0  0  0  0  0  0
    1.8110    0.7874    0.0217 H   0  0  0  0  0  0  0  0  0  0  0  0
    1.2829    2.0952   -1.1015 H   0  0  0  0  0  0  0  0  0  0  0  0
    0.4636    1.8307    0.4635 H   0  0  0  0  0  0  0  0  0  0  0  0
  1  4  1  0  0  0  0
  1  5  1  0  0  0  0
  1  8  1  0  0  0  0
  2  1  1  0  0  0  0
  3  1  1  0  0  0  0
  4 30  1  0  0  0  0
  5 38  1  0  0  0  0
  6  5  1  0  0  0  0
  6 35  1  0  0  0  0
  7  1  1  0  0  0  0
  8 40  1  0  0  0  0
  9 39  1  0  0  0  0
 12 13  1  0  0  0  0
 12  3  1  0  0  0  0
 14 12  2  0  0  0  0
 15 14  1  0  0  0  0
 16 14  1  0  0  0  0
 16 18  2  0  0  0  0
 17 16  1  0  0  0  0
 18 19  1  0  0  0  0
 19  3  1  0  0  0  0
 19 25  2  0  0  0  0
 20 18  1  0  0  0  0
 20 22  2  0  0  0  0
 21 20  1  0  0  0  0
 22 24  1  0  0  0  0
 23 22  1  0  0  0  0
 24 25  1  0  0  0  0
 24 26  2  0  0  0  0
 25  4  1  0  0  0  0
 26 27  1  0  0  0  0
 26 28  1  0  0  0  0
 28 29  1  0  0  0  0
 30 28  2  0  0  0  0
 30  6  1  0  0  0  0
 31 33  1  0  0  0  0
 31 32  1  0  0  0  0
 34 31  1  0  0  0  0
 35 31  1  6  0  0  0
 35 36  1  0  0  0  0
 36 37  1  0  0  0  0
 38 39  1  0  0  0  0
 38 36  2  0  0  0  0
 39 11  1  0  0  0  0
 39 10  1  0  0  0  0
 40 41  1  0  0  0  0
 40 42  1  0  0  0  0
 43 40  1  0  0  0  0
 44 45  1  0  0  0  0
 44 47  1  0  0  0  0
 44  7  1  0  0  0  0
 46 44  1  0  0  0  0
M  END
$$$$
