CSD_code = MONTEQ | q = 0 | S = 0 | Stoichiometry = C16H12Cl2FeN4 | MND = 5
 OpenBabel04212202073D

 35 40  0  0  0  0  0  0  0  0999 V2000
    0.5996    1.1798    8.1140 Fe  0  0  0  0  0  0  0  0  0  0  0  0
    1.3836    2.1782    6.4517 Cl  0  0  0  0  0  0  0  0  0  0  0  0
   -0.2190    1.4279   10.0219 Cl  0  0  0  0  0  0  0  0  0  0  0  0
    2.3874    0.7540    8.8287 N   0  0  0  0  0  0  0  0  0  0  0  0
    0.5693   -0.5606    7.7202 N   0  0  0  0  0  0  0  0  0  0  0  0
   -1.2109    1.0021    7.2529 N   0  0  0  0  0  0  0  0  0  0  0  0
   -1.4678   -0.2640    6.8497 N   0  0  0  0  0  0  0  0  0  0  0  0
    3.3225    1.4883    9.4086 C   0  0  0  0  0  0  0  0  0  0  0  0
    3.0975    2.5384    9.5361 H   0  0  0  0  0  0  0  0  0  0  0  0
    4.5388    0.9599    9.8404 C   0  0  0  0  0  0  0  0  0  0  0  0
    5.2561    1.6171   10.3062 H   0  0  0  0  0  0  0  0  0  0  0  0
    4.8228   -0.3827    9.6759 C   0  0  0  0  0  0  0  0  0  0  0  0
    5.7623   -0.7982   10.0078 H   0  0  0  0  0  0  0  0  0  0  0  0
    3.8608   -1.1985    9.0656 C   0  0  0  0  0  0  0  0  0  0  0  0
    2.6659   -0.5683    8.6658 C   0  0  0  0  0  0  0  0  0  0  0  0
    3.9704   -2.5970    8.8103 C   0  0  0  0  0  0  0  0  0  0  0  0
    4.8812   -3.0937    9.1116 H   0  0  0  0  0  0  0  0  0  0  0  0
    2.9750   -3.3061    8.2082 C   0  0  0  0  0  0  0  0  0  0  0  0
    3.0941   -4.3649    8.0313 H   0  0  0  0  0  0  0  0  0  0  0  0
    1.7591   -2.6883    7.7948 C   0  0  0  0  0  0  0  0  0  0  0  0
    1.6505   -1.3124    8.0459 C   0  0  0  0  0  0  0  0  0  0  0  0
    0.6616   -3.3038    7.1646 C   0  0  0  0  0  0  0  0  0  0  0  0
    0.6823   -4.3589    6.9452 H   0  0  0  0  0  0  0  0  0  0  0  0
   -0.4468   -2.5418    6.8265 C   0  0  0  0  0  0  0  0  0  0  0  0
   -1.2956   -2.9975    6.3422 H   0  0  0  0  0  0  0  0  0  0  0  0
   -0.4668   -1.1811    7.1121 C   0  0  0  0  0  0  0  0  0  0  0  0
   -2.6813   -0.3329    6.2582 C   0  0  0  0  0  3  0  0  0  0  0  0
   -3.0757   -1.2489    5.8690 H   0  0  0  0  0  0  0  0  0  0  0  0
   -3.2132    0.9341    6.2857 C   0  0  0  0  0  0  0  0  0  0  0  0
   -4.1638    1.2444    5.9039 H   0  0  0  0  0  0  0  0  0  0  0  0
   -2.2549    1.7442    6.9200 C   0  0  0  0  0  0  0  0  0  0  0  0
   -2.2822    3.1976    7.2107 C   0  0  0  0  0  0  0  0  0  0  0  0
   -1.6772    3.3970    8.0950 H   0  0  0  0  0  0  0  0  0  0  0  0
   -3.3002    3.5399    7.3753 H   0  0  0  0  0  0  0  0  0  0  0  0
   -1.8548    3.7515    6.3748 H   0  0  0  0  0  0  0  0  0  0  0  0
  1  4  1  0  0  0  0
  1  3  1  0  0  0  0
  2  1  1  0  0  0  0
  4  8  1  0  0  0  0
  5 21  1  0  0  0  0
  5  1  1  0  0  0  0
  6  1  1  0  0  0  0
  7 26  1  0  0  0  0
  7  6  1  0  0  0  0
  8  9  1  0  0  0  0
  8 10  2  0  0  0  0
 10 11  1  0  0  0  0
 12 10  1  0  0  0  0
 12 13  1  0  0  0  0
 14 12  2  0  0  0  0
 15  4  1  0  0  0  0
 15 14  1  0  0  0  0
 16 14  1  0  0  0  0
 16 17  1  0  0  0  0
 18 16  2  0  0  0  0
 19 18  1  0  0  0  0
 20 21  1  0  0  0  0
 20 18  1  0  0  0  0
 21 15  2  0  0  0  0
 22 20  2  0  0  0  0
 23 22  1  0  0  0  0
 24 26  2  0  0  0  0
 24 22  1  0  0  0  0
 25 24  1  0  0  0  0
 26  5  1  0  0  0  0
 27 29  1  0  0  0  0
 27  7  1  0  0  0  0
 28 27  1  0  0  0  0
 29 31  2  0  0  0  0
 30 29  1  0  0  0  0
 31 32  1  0  0  0  0
 31  6  1  0  0  0  0
 32 34  1  0  0  0  0
 32 33  1  0  0  0  0
 35 32  1  0  0  0  0
M  END
$$$$
