CSD_code = MONTIU | q = 0 | S = 0 | Stoichiometry = C15H10Cl2FeN4 | MND = 5
 OpenBabel04212202073D

 32 37  0  0  1  0  0  0  0  0999 V2000
   -0.0424   16.4860    5.5051 Fe  0  0  0  0  0  0  0  0  0  0  0  0
   -0.2453   16.2178    3.4461 Cl  0  0  0  0  0  0  0  0  0  0  0  0
    1.0020   15.8415    7.1928 Cl  0  0  0  0  0  0  0  0  0  0  0  0
   -1.1444   17.7952    6.0008 N   0  0  0  0  0  0  0  0  0  0  0  0
   -1.6031   15.3373    5.9086 N   0  0  0  0  0  0  0  0  0  0  0  0
   -2.4048   17.4709    6.3862 C   0  0  0  0  0  0  0  0  0  0  0  0
   -0.8008   19.1030    6.0158 C   0  0  0  0  0  0  0  0  0  0  0  0
   -3.3685   18.4033    6.7972 C   0  0  0  0  0  0  0  0  0  0  0  0
   -3.9170   15.5853    6.6972 C   0  0  0  0  0  0  0  0  0  0  0  0
   -2.6539   16.0912    6.3311 C   0  0  0  0  0  0  0  0  0  0  0  0
   -2.9775   19.7559    6.8016 C   0  0  0  0  0  0  0  0  0  0  0  0
   -3.6722   20.5213    7.1071 H   0  0  0  0  0  0  0  0  0  0  0  0
   -1.6917   20.0957    6.4091 C   0  0  0  0  0  0  0  0  0  0  0  0
   -1.3774   21.1272    6.4067 H   0  0  0  0  0  0  0  0  0  0  0  0
   -1.7996   14.0314    5.8420 C   0  0  0  0  0  0  0  0  0  0  0  0
   -0.9619   13.4360    5.5059 H   0  0  0  0  0  0  0  0  0  0  0  0
    2.3666   18.4314    4.8949 C   0  0  0  0  0  3  0  0  0  0  0  0
    3.0687   17.6826    4.5878 H   0  0  0  0  0  0  0  0  0  0  0  0
   -4.6384   17.8707    7.1639 C   0  0  0  0  0  0  0  0  0  0  0  0
   -5.4057   18.5591    7.4862 H   0  0  0  0  0  0  0  0  0  0  0  0
    1.3270   20.3071    5.4245 C   0  0  0  0  0  0  0  0  0  0  0  0
    1.0104   21.3092    5.6282 H   0  0  0  0  0  0  0  0  0  0  0  0
   -3.0128   13.4321    6.1816 C   0  0  0  0  0  0  0  0  0  0  0  0
   -3.1044   12.3602    6.1031 H   0  0  0  0  0  0  0  0  0  0  0  0
    2.5312   19.8182    4.9750 C   0  0  0  0  0  0  0  0  0  0  0  0
    3.4106   20.3788    4.7358 H   0  0  0  0  0  0  0  0  0  0  0  0
   -4.0810   14.1963    6.6113 C   0  0  0  0  0  0  0  0  0  0  0  0
   -5.0225   13.7387    6.8756 H   0  0  0  0  0  0  0  0  0  0  0  0
   -4.8959   16.5336    7.1155 C   0  0  0  0  0  0  0  0  0  0  0  0
   -5.8691   16.1606    7.3996 H   0  0  0  0  0  0  0  0  0  0  0  0
    0.5094   19.2442    5.5941 N   0  0  0  0  0  0  0  0  0  0  0  0
    1.1449   18.0956    5.2699 N   0  0  1  0  0  0  0  0  0  0  0  0
  1  5  1  0  0  0  0
  1  4  1  0  0  0  0
  1  3  1  0  0  0  0
  2  1  1  0  0  0  0
  4  7  1  0  0  0  0
  4  6  1  0  0  0  0
  5 10  1  0  0  0  0
  6  8  1  0  0  0  0
  7 13  2  0  0  0  0
  8 11  2  0  0  0  0
  8 19  1  0  0  0  0
  9 29  1  0  0  0  0
 10  6  2  0  0  0  0
 10  9  1  0  0  0  0
 11 12  1  0  0  0  0
 13 11  1  0  0  0  0
 14 13  1  0  0  0  0
 15  5  1  0  0  0  0
 15 23  2  0  0  0  0
 16 15  1  0  0  0  0
 17 25  1  0  0  0  0
 18 17  1  0  0  0  0
 19 20  1  0  0  0  0
 21 31  1  0  0  0  0
 21 22  1  0  0  0  0
 23 27  1  0  0  0  0
 24 23  1  0  0  0  0
 25 21  2  0  0  0  0
 26 25  1  0  0  0  0
 27  9  2  0  0  0  0
 27 28  1  0  0  0  0
 29 19  2  0  0  0  0
 29 30  1  0  0  0  0
 31  7  1  0  0  0  0
 32 17  1  6  0  0  0
 32  1  1  0  0  0  0
 32 31  1  0  0  0  0
M  END
$$$$
