CSD_code = MONVIW | q = 0 | S = 0 | Stoichiometry = C30H22Cl2N2O4Pt | MND = 4
 OpenBabel04212202073D

 61 66  0  0  0  0  0  0  0  0999 V2000
    1.2311    4.9199    5.4857 Pt  0  0  0  0  0  0  0  0  0  0  0  0
    1.5144    8.3163    3.4785 C   0  0  0  0  0  0  0  0  0  0  0  0
    0.4270    7.8757    4.2301 C   0  0  0  0  0  0  0  0  0  0  0  0
    0.3647    6.8381    4.5554 H   0  0  0  0  0  0  0  0  0  0  0  0
   -0.6124    8.7385    4.5228 C   0  0  0  0  0  0  0  0  0  0  0  0
   -1.4479    8.3816    5.1047 H   0  0  0  0  0  0  0  0  0  0  0  0
   -0.5793   10.0480    4.0723 C   0  0  0  0  0  0  0  0  0  0  0  0
   -1.3880   10.7230    4.3088 H   0  0  0  0  0  0  0  0  0  0  0  0
    0.4894   10.4880    3.3073 C   0  0  0  0  0  0  0  0  0  0  0  0
    0.5131   11.5049    2.9444 H   0  0  0  0  0  0  0  0  0  0  0  0
    1.5275    9.6284    3.0040 C   0  0  0  0  0  0  0  0  0  0  0  0
    2.3610    9.9685    2.4080 H   0  0  0  0  0  0  0  0  0  0  0  0
    2.6349    7.4248    3.1406 C   0  0  0  0  0  0  0  0  0  0  0  0
    3.2132    6.5225    3.9794 C   0  0  0  0  0  0  0  0  0  0  0  0
    4.3696    5.7181    3.5698 C   0  0  0  0  0  0  0  0  0  0  0  0
    4.7437    5.8791    2.1701 C   0  0  0  0  0  0  0  0  0  0  0  0
    4.0770    6.8322    1.3919 C   0  0  0  0  0  0  0  0  0  0  0  0
    5.7570    5.1099    1.5905 C   0  0  0  0  0  0  0  0  0  0  0  0
    6.2510    4.3795    2.2125 H   0  0  0  0  0  0  0  0  0  0  0  0
    6.0958    5.2875    0.2700 C   0  0  0  0  0  0  0  0  0  0  0  0
    6.8752    4.6896   -0.1765 H   0  0  0  0  0  0  0  0  0  0  0  0
    5.4299    6.2421   -0.4968 C   0  0  0  0  0  0  0  0  0  0  0  0
    5.6971    6.3782   -1.5338 H   0  0  0  0  0  0  0  0  0  0  0  0
    4.4301    7.0125    0.0531 C   0  0  0  0  0  0  0  0  0  0  0  0
    3.9011    7.7515   -0.5277 H   0  0  0  0  0  0  0  0  0  0  0  0
    1.5641    3.9804    3.3657 Cl  0  0  0  0  0  0  0  0  0  0  0  0
    2.8082    6.2488    5.3130 N   0  0  0  0  0  4  0  0  0  0  0  0
    2.5459    7.0732    5.8630 H   0  0  0  0  0  0  0  0  0  0  0  0
    3.6101    5.7580    5.7497 H   0  0  0  0  0  0  0  0  0  0  0  0
    3.0921    7.6156    1.8856 O   0  0  0  0  0  0  0  0  0  0  0  0
    4.9548    5.0146    4.3840 O   0  0  0  0  0  0  0  0  0  0  0  0
    0.9425    1.5239    7.4903 C   0  0  0  0  0  0  0  0  0  0  0  0
    2.0305    1.9630    6.7388 C   0  0  0  0  0  0  0  0  0  0  0  0
    2.0941    3.0004    6.4132 H   0  0  0  0  0  0  0  0  0  0  0  0
    3.0689    1.0989    6.4464 C   0  0  0  0  0  0  0  0  0  0  0  0
    3.9049    1.4546    5.8645 H   0  0  0  0  0  0  0  0  0  0  0  0
    3.0342   -0.2104    6.8972 C   0  0  0  0  0  0  0  0  0  0  0  0
    3.8422   -0.8864    6.6610 H   0  0  0  0  0  0  0  0  0  0  0  0
    1.9650   -0.6490    7.6623 C   0  0  0  0  0  0  0  0  0  0  0  0
    1.9401   -1.6657    8.0255 H   0  0  0  0  0  0  0  0  0  0  0  0
    0.9278    0.2119    7.9652 C   0  0  0  0  0  0  0  0  0  0  0  0
    0.0938   -0.1271    8.5611 H   0  0  0  0  0  0  0  0  0  0  0  0
   -0.1771    2.4166    7.8277 C   0  0  0  0  0  0  0  0  0  0  0  0
   -0.7538    3.3197    6.9886 C   0  0  0  0  0  0  0  0  0  0  0  0
   -1.9090    4.1259    7.3979 C   0  0  0  0  0  0  0  0  0  0  0  0
   -2.2841    3.9652    8.7974 C   0  0  0  0  0  0  0  0  0  0  0  0
   -1.6192    3.0109    9.5757 C   0  0  0  0  0  0  0  0  0  0  0  0
   -3.2966    4.7357    9.3766 C   0  0  0  0  0  0  0  0  0  0  0  0
   -3.7892    5.4671    8.7545 H   0  0  0  0  0  0  0  0  0  0  0  0
   -3.6365    4.5582   10.6968 C   0  0  0  0  0  0  0  0  0  0  0  0
   -4.4153    5.1572   11.1430 H   0  0  0  0  0  0  0  0  0  0  0  0
   -2.9725    3.6024   11.4638 C   0  0  0  0  0  0  0  0  0  0  0  0
   -3.2406    3.4664   12.5006 H   0  0  0  0  0  0  0  0  0  0  0  0
   -1.9735    2.8307   10.9143 C   0  0  0  0  0  0  0  0  0  0  0  0
   -1.4459    2.0908   11.4952 H   0  0  0  0  0  0  0  0  0  0  0  0
    0.8965    5.8618    7.6042 Cl  0  0  0  0  0  0  0  0  0  0  0  0
   -0.3477    3.5927    5.6552 N   0  0  0  0  0  4  0  0  0  0  0  0
   -0.0860    2.7680    5.1054 H   0  0  0  0  0  0  0  0  0  0  0  0
   -1.1487    4.0846    5.2179 H   0  0  0  0  0  0  0  0  0  0  0  0
   -0.6351    2.2263    9.0825 O   0  0  0  0  0  0  0  0  0  0  0  0
   -2.4927    4.8305    6.5835 O   0  0  0  0  0  0  0  0  0  0  0  0
  1 57  1  0  0  0  0
  1 56  1  0  0  0  0
  2  3  1  0  0  0  0
  3  5  2  0  0  0  0
  3  4  1  0  0  0  0
  5  6  1  0  0  0  0
  7  8  1  0  0  0  0
  7  5  1  0  0  0  0
  9  7  2  0  0  0  0
 10  9  1  0  0  0  0
 11  9  1  0  0  0  0
 11  2  2  0  0  0  0
 12 11  1  0  0  0  0
 13  2  1  0  0  0  0
 13 14  2  0  0  0  0
 14 27  1  0  0  0  0
 15 14  1  0  0  0  0
 15 31  2  0  0  0  0
 16 15  1  0  0  0  0
 17 30  1  0  0  0  0
 17 16  2  0  0  0  0
 18 16  1  0  0  0  0
 18 19  1  0  0  0  0
 20 18  2  0  0  0  0
 21 20  1  0  0  0  0
 22 24  2  0  0  0  0
 22 20  1  0  0  0  0
 23 22  1  0  0  0  0
 24 17  1  0  0  0  0
 25 24  1  0  0  0  0
 26  1  1  0  0  0  0
 27  1  1  0  0  0  0
 27 29  1  0  0  0  0
 27 28  1  0  0  0  0
 30 13  1  0  0  0  0
 32 43  1  0  0  0  0
 32 41  1  0  0  0  0
 33 32  2  0  0  0  0
 34 33  1  0  0  0  0
 35 33  1  0  0  0  0
 35 37  2  0  0  0  0
 36 35  1  0  0  0  0
 37 39  1  0  0  0  0
 38 37  1  0  0  0  0
 39 41  2  0  0  0  0
 39 40  1  0  0  0  0
 41 42  1  0  0  0  0
 43 60  1  0  0  0  0
 44 45  1  0  0  0  0
 44 43  2  0  0  0  0
 45 46  1  0  0  0  0
 46 48  2  0  0  0  0
 46 47  1  0  0  0  0
 47 54  2  0  0  0  0
 48 50  1  0  0  0  0
 49 48  1  0  0  0  0
 50 51  1  0  0  0  0
 50 52  2  0  0  0  0
 52 53  1  0  0  0  0
 54 52  1  0  0  0  0
 54 55  1  0  0  0  0
 57 44  1  0  0  0  0
 58 57  1  0  0  0  0
 59 57  1  0  0  0  0
 60 47  1  0  0  0  0
 61 45  2  0  0  0  0
M  END
$$$$
