CSD_code = MONVAN | q = 0 | S = 0 | Stoichiometry = C27H25Cl2N5Ti | MND = 6
 OpenBabel04212202073D

 60 64  0  0  0  0  0  0  0  0999 V2000
    6.5153   13.5862    7.0648 Ti  0  0  0  0  0  0  0  0  0  0  0  0
    7.5912   13.0728    5.0470 Cl  0  0  0  0  0  0  0  0  0  0  0  0
    6.5149   15.2893    7.0648 N   0  0  0  0  0  2  0  0  0  0  0  0
    6.5169   16.5971    7.0656 N   0  0  0  0  0  0  0  0  0  0  0  0
    4.6241   13.7981    6.1262 N   0  0  0  0  0  0  0  0  0  0  0  0
    6.5175   11.4154    7.0655 N   0  0  0  0  0  0  0  0  0  0  0  0
    7.2859   17.2767    6.1089 C   0  0  0  0  0  0  0  0  0  0  0  0
    7.5245   16.6657    4.8752 C   0  0  0  0  0  0  0  0  0  0  0  0
    8.3245   17.2881    3.9389 C   0  0  0  0  0  0  0  0  0  0  0  0
    8.8979   18.5206    4.2133 C   0  0  0  0  0  0  0  0  0  0  0  0
    8.6747   19.1213    5.4427 C   0  0  0  0  0  0  0  0  0  0  0  0
    7.8808   18.5079    6.3919 C   0  0  0  0  0  0  0  0  0  0  0  0
    3.6562   14.4464    6.7942 C   0  0  0  0  0  3  0  0  0  0  0  0
    2.5744   15.0393    6.1741 C   0  0  0  0  0  0  0  0  0  0  0  0
    2.4589   14.9676    4.7904 C   0  0  0  0  0  0  0  0  0  0  0  0
    3.4377   14.2738    4.0964 C   0  0  0  0  0  0  0  0  0  0  0  0
    4.4879   13.7026    4.7948 C   0  0  0  0  0  0  0  0  0  0  0  0
    7.6419   10.7340    7.2536 C   0  0  0  0  0  3  0  0  0  0  0  0
    7.6918    9.3492    7.2652 C   0  0  0  0  0  0  0  0  0  0  0  0
    6.5195    8.6385    7.0632 C   0  0  0  0  0  0  0  0  0  0  0  0
    7.0764   15.6993    4.6778 H   0  0  0  0  0  0  0  0  0  0  0  0
    8.4998   16.8085    2.9875 H   0  0  0  0  0  0  0  0  0  0  0  0
    9.5208   19.0071    3.4779 H   0  0  0  0  0  0  0  0  0  0  0  0
    9.1329   20.0733    5.6690 H   0  0  0  0  0  0  0  0  0  0  0  0
    7.7333   18.9684    7.3576 H   0  0  0  0  0  0  0  0  0  0  0  0
    3.7659   14.4920    7.8731 H   0  0  0  0  0  0  0  0  0  0  0  0
    1.8343   15.5533    6.7672 H   0  0  0  0  0  0  0  0  0  0  0  0
    1.6313   15.4309    4.2754 H   0  0  0  0  0  0  0  0  0  0  0  0
    3.3917   14.1712    3.0231 H   0  0  0  0  0  0  0  0  0  0  0  0
    5.2607   13.1533    4.2662 H   0  0  0  0  0  0  0  0  0  0  0  0
    8.5461   11.3213    7.3898 H   0  0  0  0  0  0  0  0  0  0  0  0
    8.6303    8.8419    7.4260 H   0  0  0  0  0  0  0  0  0  0  0  0
    6.5203    7.5586    7.0622 H   0  0  0  0  0  0  0  0  0  0  0  0
    5.4383   13.0721    9.0818 Cl  0  0  0  0  0  0  0  0  0  0  0  0
    8.4056   13.8000    8.0032 N   0  0  0  0  0  0  0  0  0  0  0  0
    5.7494   17.2777    8.0228 C   0  0  0  0  0  0  0  0  0  0  0  0
    5.5089   16.6662    9.2558 C   0  0  0  0  0  0  0  0  0  0  0  0
    4.7100   17.2897   10.1924 C   0  0  0  0  0  0  0  0  0  0  0  0
    4.1395   18.5237    9.9189 C   0  0  0  0  0  0  0  0  0  0  0  0
    4.3647   19.1250    8.6902 C   0  0  0  0  0  0  0  0  0  0  0  0
    5.1575   18.5106    7.7408 C   0  0  0  0  0  0  0  0  0  0  0  0
    9.3740   14.4471    7.3346 C   0  0  0  0  0  3  0  0  0  0  0  0
   10.4554   15.0412    7.9542 C   0  0  0  0  0  0  0  0  0  0  0  0
   10.5701   14.9721    9.3381 C   0  0  0  0  0  0  0  0  0  0  0  0
    9.5909   14.2797   10.0328 C   0  0  0  0  0  0  0  0  0  0  0  0
    8.5411   13.7070    9.3350 C   0  0  0  0  0  0  0  0  0  0  0  0
    5.3940   10.7327    6.8763 C   0  0  0  0  0  0  0  0  0  0  0  0
    5.3461    9.3478    6.8623 C   0  0  0  0  0  0  0  0  0  0  0  0
    5.9546   15.6985    9.4525 H   0  0  0  0  0  0  0  0  0  0  0  0
    4.5332   16.8095   11.1433 H   0  0  0  0  0  0  0  0  0  0  0  0
    3.5175   19.0110   10.6545 H   0  0  0  0  0  0  0  0  0  0  0  0
    3.9087   20.0783    8.4645 H   0  0  0  0  0  0  0  0  0  0  0  0
    5.3065   18.9717    6.7755 H   0  0  0  0  0  0  0  0  0  0  0  0
    9.2650   14.4904    6.2555 H   0  0  0  0  0  0  0  0  0  0  0  0
   11.1959   15.5540    7.3605 H   0  0  0  0  0  0  0  0  0  0  0  0
   11.3973   15.4366    9.8526 H   0  0  0  0  0  0  0  0  0  0  0  0
    9.6363   14.1792   11.1063 H   0  0  0  0  0  0  0  0  0  0  0  0
    7.7680   13.1587    9.8641 H   0  0  0  0  0  0  0  0  0  0  0  0
    4.4890   11.3190    6.7410 H   0  0  0  0  0  0  0  0  0  0  0  0
    4.4083    8.8394    6.7006 H   0  0  0  0  0  0  0  0  0  0  0  0
  1  3  1  0  0  0  0
  1  6  1  0  0  0  0
  1 35  1  0  0  0  0
  1 34  1  0  0  0  0
  2  1  1  0  0  0  0
  3  4  1  0  0  0  0
  4 36  1  0  0  0  0
  5 13  1  0  0  0  0
  5  1  1  0  0  0  0
  6 18  1  0  0  0  0
  7 12  1  0  0  0  0
  7  4  1  0  0  0  0
  8  7  2  0  0  0  0
  9 10  2  0  0  0  0
  9  8  1  0  0  0  0
 10 11  1  0  0  0  0
 11 24  1  0  0  0  0
 11 12  2  0  0  0  0
 12 25  1  0  0  0  0
 13 26  1  0  0  0  0
 14 27  1  0  0  0  0
 14 13  1  0  0  0  0
 15 14  2  0  0  0  0
 16 15  1  0  0  0  0
 16 17  2  0  0  0  0
 17  5  1  0  0  0  0
 18 19  1  0  0  0  0
 18 31  1  0  0  0  0
 19 32  1  0  0  0  0
 20 19  2  0  0  0  0
 21  8  1  0  0  0  0
 22  9  1  0  0  0  0
 23 10  1  0  0  0  0
 28 15  1  0  0  0  0
 29 16  1  0  0  0  0
 30 17  1  0  0  0  0
 33 20  1  0  0  0  0
 35 46  1  0  0  0  0
 36 37  1  0  0  0  0
 37 49  1  0  0  0  0
 37 38  2  0  0  0  0
 38 50  1  0  0  0  0
 39 38  1  0  0  0  0
 39 51  1  0  0  0  0
 40 39  2  0  0  0  0
 41 36  2  0  0  0  0
 41 40  1  0  0  0  0
 42 43  1  0  0  0  0
 42 35  1  0  0  0  0
 43 44  2  0  0  0  0
 44 56  1  0  0  0  0
 44 45  1  0  0  0  0
 45 57  1  0  0  0  0
 46 58  1  0  0  0  0
 46 45  2  0  0  0  0
 47  6  1  0  0  0  0
 48 47  2  0  0  0  0
 48 20  1  0  0  0  0
 52 40  1  0  0  0  0
 53 41  1  0  0  0  0
 54 42  1  0  0  0  0
 55 43  1  0  0  0  0
 59 47  1  0  0  0  0
 60 48  1  0  0  0  0
M  END
$$$$
