CSD_code = MONXES | q = 0 | S = 0 | Stoichiometry = C26H31ClN2OPRh | MND = 4
 OpenBabel04212202073D

 63 66  0  0  1  0  0  0  0  0999 V2000
    3.4911   19.5789    7.1572 Rh  0  0  2  0  0  0  0  0  0  0  0  0
    4.5134   20.8572    5.5927 Cl  0  0  0  0  0  0  0  0  0  0  0  0
    2.1345   18.8008    8.7698 P   0  0  1  0  0  4  0  0  0  0  0  0
    3.6680   21.2703    8.4532 N   0  0  0  0  0  4  0  0  0  0  0  0
    3.1268   22.0101    7.9923 H   0  0  0  0  0  0  0  0  0  0  0  0
    3.2877   17.2700    5.2974 O   0  0  0  0  0  1  0  0  0  0  0  0
    3.9788   17.8951   10.4423 N   0  0  0  0  0  0  0  0  0  0  0  0
    1.8027   20.3437    9.7521 C   0  0  0  0  0  0  0  0  0  0  0  0
    1.0613   20.9329    9.2032 H   0  0  0  0  0  0  0  0  0  0  0  0
    1.4116   20.1352   10.7504 H   0  0  0  0  0  0  0  0  0  0  0  0
    3.1390   21.0805    9.8251 C   0  0  2  0  0  0  0  0  0  0  0  0
    3.8500   20.4279   10.3467 H   0  0  0  0  0  0  0  0  0  0  0  0
    3.3699   18.1637    6.0142 C   0  0  0  0  0  2  0  0  0  0  0  0
    3.0480   22.4022   10.5491 C   0  0  0  0  0  0  0  0  0  0  0  0
    3.8528   22.6501   11.6532 C   0  0  0  0  0  0  0  0  0  0  0  0
    4.5239   21.8799   12.0062 H   0  0  0  0  0  0  0  0  0  0  0  0
    3.8064   23.8729   12.2987 C   0  0  0  0  0  0  0  0  0  0  0  0
    4.4399   24.0527   13.1545 H   0  0  0  0  0  0  0  0  0  0  0  0
    2.9550   24.8650   11.8446 C   0  0  0  0  0  0  0  0  0  0  0  0
    2.9200   25.8210   12.3449 H   0  0  0  0  0  0  0  0  0  0  0  0
    2.1494   24.6282   10.7437 C   0  0  0  0  0  0  0  0  0  0  0  0
    1.4843   25.3990   10.3835 H   0  0  0  0  0  0  0  0  0  0  0  0
    2.1966   23.4054   10.0995 C   0  0  0  0  0  0  0  0  0  0  0  0
    1.5623   23.2371    9.2395 H   0  0  0  0  0  0  0  0  0  0  0  0
    5.0405   21.6911    8.4938 C   0  0  0  0  0  0  0  0  0  0  0  0
    6.0196   20.7306    8.7168 C   0  0  0  0  0  0  0  0  0  0  0  0
    5.7204   19.6897    8.8005 H   0  0  0  0  0  0  0  0  0  0  0  0
    7.3481   21.1022    8.7859 C   0  0  0  0  0  0  0  0  0  0  0  0
    8.1096   20.3525    8.9431 H   0  0  0  0  0  0  0  0  0  0  0  0
    7.7046   22.4334    8.6379 C   0  0  0  0  0  0  0  0  0  0  0  0
    8.7437   22.7227    8.6843 H   0  0  0  0  0  0  0  0  0  0  0  0
    6.7296   23.3888    8.4123 C   0  0  0  0  0  0  0  0  0  0  0  0
    7.0059   24.4245    8.2828 H   0  0  0  0  0  0  0  0  0  0  0  0
    5.3960   23.0230    8.3467 C   0  0  0  0  0  0  0  0  0  0  0  0
    4.6376   23.7701    8.1578 H   0  0  0  0  0  0  0  0  0  0  0  0
    0.4406   18.3220    8.3002 C   0  0  0  0  0  0  0  0  0  0  0  0
   -0.4209   17.5640    9.0843 C   0  0  0  0  0  0  0  0  0  0  0  0
   -0.1021   17.1924   10.0470 H   0  0  0  0  0  0  0  0  0  0  0  0
   -1.6965   17.2780    8.6287 C   0  0  0  0  0  0  0  0  0  0  0  0
   -2.3627   16.6852    9.2387 H   0  0  0  0  0  0  0  0  0  0  0  0
   -2.1207   17.7461    7.3963 C   0  0  0  0  0  0  0  0  0  0  0  0
   -3.1163   17.5168    7.0467 H   0  0  0  0  0  0  0  0  0  0  0  0
   -1.2663   18.5036    6.6103 C   0  0  0  0  0  0  0  0  0  0  0  0
   -1.5937   18.8654    5.6470 H   0  0  0  0  0  0  0  0  0  0  0  0
    0.0089   18.7861    7.0603 C   0  0  0  0  0  0  0  0  0  0  0  0
    0.7029   19.3635    6.4523 H   0  0  0  0  0  0  0  0  0  0  0  0
    2.5887   17.6109   10.1232 C   0  0  0  0  0  0  0  0  0  0  0  0
    1.9572   17.7976   10.9964 H   0  0  0  0  0  0  0  0  0  0  0  0
    2.4185   16.5783    9.7888 H   0  0  0  0  0  0  0  0  0  0  0  0
    4.9012   17.1561    9.5914 C   0  0  0  0  0  0  0  0  0  0  0  0
    5.8934   17.5958    9.7123 H   0  0  0  0  0  0  0  0  0  0  0  0
    4.5788   17.3353    8.5548 H   0  0  0  0  0  0  0  0  0  0  0  0
    5.0041   15.6488    9.8405 C   0  0  0  0  0  0  0  0  0  0  0  0
    5.6700   15.2128    9.1011 H   0  0  0  0  0  0  0  0  0  0  0  0
    4.0367   15.1600    9.7513 H   0  0  0  0  0  0  0  0  0  0  0  0
    5.4084   15.4411   10.8288 H   0  0  0  0  0  0  0  0  0  0  0  0
    4.2720   17.8431   11.8674 C   0  0  0  0  0  0  0  0  0  0  0  0
    4.1877   16.8227   12.2759 H   0  0  0  0  0  0  0  0  0  0  0  0
    3.5194   18.4608   12.3689 H   0  0  0  0  0  0  0  0  0  0  0  0
    5.6501   18.4096   12.1941 C   0  0  0  0  0  0  0  0  0  0  0  0
    5.7305   18.5715   13.2663 H   0  0  0  0  0  0  0  0  0  0  0  0
    5.7985   19.3597   11.6856 H   0  0  0  0  0  0  0  0  0  0  0  0
    6.4425   17.7292   11.8956 H   0  0  0  0  0  0  0  0  0  0  0  0
  1  2  1  6  0  0  0
  1  4  1  0  0  0  0
  1  3  1  0  0  0  0
  3  8  1  0  0  0  0
  3 47  1  1  0  0  0
  4 25  1  0  0  0  0
  4 11  1  0  0  0  0
  5  4  1  0  0  0  0
  6 13  1  0  0  0  0
  7 57  1  0  0  0  0
  8 11  1  0  0  0  0
  8 10  1  0  0  0  0
  9  8  1  0  0  0  0
 11 12  1  1  0  0  0
 11 14  1  0  0  0  0
 13  1  1  0  0  0  0
 14 15  1  0  0  0  0
 15 16  1  0  0  0  0
 15 17  2  0  0  0  0
 17 18  1  0  0  0  0
 19 17  1  0  0  0  0
 19 20  1  0  0  0  0
 21 19  2  0  0  0  0
 22 21  1  0  0  0  0
 23 14  2  0  0  0  0
 23 21  1  0  0  0  0
 24 23  1  0  0  0  0
 25 26  1  0  0  0  0
 26 28  2  0  0  0  0
 26 27  1  0  0  0  0
 28 29  1  0  0  0  0
 30 31  1  0  0  0  0
 30 28  1  0  0  0  0
 32 30  2  0  0  0  0
 33 32  1  0  0  0  0
 34 32  1  0  0  0  0
 34 25  2  0  0  0  0
 35 34  1  0  0  0  0
 36  3  1  0  0  0  0
 36 37  1  0  0  0  0
 37 38  1  0  0  0  0
 39 37  2  0  0  0  0
 39 40  1  0  0  0  0
 41 39  1  0  0  0  0
 42 41  1  0  0  0  0
 43 45  1  0  0  0  0
 43 41  2  0  0  0  0
 44 43  1  0  0  0  0
 45 36  2  0  0  0  0
 46 45  1  0  0  0  0
 47  7  1  0  0  0  0
 47 48  1  0  0  0  0
 49 47  1  0  0  0  0
 50 51  1  0  0  0  0
 50 53  1  0  0  0  0
 50  7  1  0  0  0  0
 52 50  1  0  0  0  0
 53 56  1  0  0  0  0
 54 53  1  0  0  0  0
 55 53  1  0  0  0  0
 57 60  1  0  0  0  0
 57 58  1  0  0  0  0
 57 59  1  0  0  0  0
 60 61  1  0  0  0  0
 62 60  1  0  0  0  0
 63 60  1  0  0  0  0
M  END
$$$$
