CSD_code = MOPSAN | q = 0 | S = 0 | Stoichiometry = C8H22CdI2N2O2 | MND = 6
 OpenBabel04212202073D

 37 36  0  0  0  0  0  0  0  0999 V2000
    2.3070    7.6486   18.5145 Cd  0  0  0  0  0  0  0  0  0  0  0  0
    3.2691    6.4216   16.2835 I   0  0  0  0  0  0  0  0  0  0  0  0
    1.3068    9.8261   19.7272 O   0  0  0  0  0  0  0  0  0  0  0  0
    0.9703    9.3451   20.5004 H   0  0  0  0  0  0  0  0  0  0  0  0
    0.0238    8.3068   17.5309 N   0  0  0  0  0  4  0  0  0  0  0  0
    0.2026   10.3166   19.0006 C   0  0  0  0  0  0  0  0  0  0  0  0
    0.6255   10.9130   18.1901 H   0  0  0  0  0  0  0  0  0  0  0  0
   -0.4087   10.9719   19.6358 H   0  0  0  0  0  0  0  0  0  0  0  0
   -0.6850    9.1931   18.4560 C   0  0  0  0  0  0  0  0  0  0  0  0
   -1.0319    8.5921   19.3041 H   0  0  0  0  0  0  0  0  0  0  0  0
   -1.5683    9.6417   17.9728 H   0  0  0  0  0  0  0  0  0  0  0  0
    0.2081    8.9547   16.2342 C   0  0  0  0  0  0  0  0  0  0  0  0
    0.6836    8.2575   15.5455 H   0  0  0  0  0  0  0  0  0  0  0  0
    0.8503    9.8275   16.3368 H   0  0  0  0  0  0  0  0  0  0  0  0
   -0.7545    9.2651   15.8035 H   0  0  0  0  0  0  0  0  0  0  0  0
   -0.7496    7.0795   17.3401 C   0  0  0  0  0  0  0  0  0  0  0  0
   -1.7387    7.2915   16.9113 H   0  0  0  0  0  0  0  0  0  0  0  0
   -0.8874    6.5676   18.2934 H   0  0  0  0  0  0  0  0  0  0  0  0
   -0.2149    6.4129   16.6620 H   0  0  0  0  0  0  0  0  0  0  0  0
    1.3447    6.4219   20.7460 I   0  0  0  0  0  0  0  0  0  0  0  0
    3.3072    9.8261   17.3018 O   0  0  0  0  0  0  0  0  0  0  0  0
    3.6436    9.3451   16.5286 H   0  0  0  0  0  0  0  0  0  0  0  0
    4.5902    8.3068   19.4980 N   0  0  0  0  0  4  0  0  0  0  0  0
    4.4113   10.3166   18.0284 C   0  0  0  0  0  0  0  0  0  0  0  0
    3.9885   10.9130   18.8389 H   0  0  0  0  0  0  0  0  0  0  0  0
    5.0226   10.9720   17.3932 H   0  0  0  0  0  0  0  0  0  0  0  0
    5.2990    9.1931   18.5729 C   0  0  0  0  0  0  0  0  0  0  0  0
    5.6459    8.5922   17.7248 H   0  0  0  0  0  0  0  0  0  0  0  0
    6.1823    9.6417   19.0561 H   0  0  0  0  0  0  0  0  0  0  0  0
    4.4059    8.9546   20.7948 C   0  0  0  0  0  0  0  0  0  0  0  0
    3.9305    8.2574   21.4835 H   0  0  0  0  0  0  0  0  0  0  0  0
    3.7638    9.8274   20.6923 H   0  0  0  0  0  0  0  0  0  0  0  0
    5.3686    9.2651   21.2255 H   0  0  0  0  0  0  0  0  0  0  0  0
    5.3637    7.0795   19.6888 C   0  0  0  0  0  0  0  0  0  0  0  0
    6.3527    7.2915   20.1176 H   0  0  0  0  0  0  0  0  0  0  0  0
    5.5015    6.5676   18.7355 H   0  0  0  0  0  0  0  0  0  0  0  0
    4.8289    6.4129   20.3669 H   0  0  0  0  0  0  0  0  0  0  0  0
  1 23  1  0  0  0  0
  1 20  1  0  0  0  0
  2  1  1  0  0  0  0
  3  4  1  0  0  0  0
  5  9  1  0  0  0  0
  5  1  1  0  0  0  0
  6  8  1  0  0  0  0
  6  3  1  0  0  0  0
  7  6  1  0  0  0  0
  9  6  1  0  0  0  0
  9 10  1  0  0  0  0
 11  9  1  0  0  0  0
 12 14  1  0  0  0  0
 12  5  1  0  0  0  0
 13 12  1  0  0  0  0
 15 12  1  0  0  0  0
 16  5  1  0  0  0  0
 16 18  1  0  0  0  0
 17 16  1  0  0  0  0
 19 16  1  0  0  0  0
 21 24  1  0  0  0  0
 22 21  1  0  0  0  0
 23 34  1  0  0  0  0
 23 30  1  0  0  0  0
 24 27  1  0  0  0  0
 24 25  1  0  0  0  0
 26 24  1  0  0  0  0
 27 29  1  0  0  0  0
 27 23  1  0  0  0  0
 28 27  1  0  0  0  0
 30 33  1  0  0  0  0
 30 31  1  0  0  0  0
 32 30  1  0  0  0  0
 34 35  1  0  0  0  0
 34 37  1  0  0  0  0
 36 34  1  0  0  0  0
M  END
$$$$
