CSD_code = MOPSIU | q = 0 | S = 0 | Stoichiometry = C22H21BrN2O4Pt | MND = 6
 OpenBabel04212202073D

 51 54  0  0  1  0  0  0  0  0999 V2000
    2.7103    2.3379    5.2868 C   0  0  0  0  0  0  0  0  0  0  0  0
    1.3806    1.7004    5.5855 C   0  0  0  0  0  0  0  0  0  0  0  0
    1.4570    0.6677    5.9083 H   0  0  0  0  0  0  0  0  0  0  0  0
    0.8035    1.7054    4.6589 H   0  0  0  0  0  0  0  0  0  0  0  0
    0.8525    2.3005    6.3260 H   0  0  0  0  0  0  0  0  0  0  0  0
    4.5092    0.0708    6.0050 C   0  0  0  0  0  0  0  0  0  0  0  0
    3.8718    0.3357    7.3480 C   0  0  0  0  0  0  0  0  0  0  0  0
    3.6369    1.3842    7.5070 H   0  0  0  0  0  0  0  0  0  0  0  0
    4.5457   -0.0214    8.1263 H   0  0  0  0  0  0  0  0  0  0  0  0
    2.9544   -0.2492    7.4090 H   0  0  0  0  0  0  0  0  0  0  0  0
    5.7227    2.4303    5.2175 C   0  0  0  0  0  0  0  0  0  0  0  0
    5.3283    3.0747    6.0032 H   0  0  0  0  0  0  0  0  0  0  0  0
    6.4805    1.7545    5.6238 H   0  0  0  0  0  0  0  0  0  0  0  0
    6.2442    3.2026    4.0904 C   0  0  0  0  0  0  0  0  0  0  0  0
    5.6806    4.4400    3.7433 C   0  0  0  0  0  0  0  0  0  0  0  0
    4.8947    4.8468    4.3625 H   0  0  0  0  0  0  0  0  0  0  0  0
    6.0916    5.1097    2.6158 C   0  0  0  0  0  0  0  0  0  0  0  0
    5.6437    6.0501    2.3311 H   0  0  0  0  0  0  0  0  0  0  0  0
    7.0986    4.5797    1.8039 C   0  0  0  0  0  0  0  0  0  0  0  0
    7.7203    3.3879    2.1798 C   0  0  0  0  0  0  0  0  0  0  0  0
    8.5221    2.9941    1.5739 H   0  0  0  0  0  0  0  0  0  0  0  0
    7.3012    2.7176    3.3060 C   0  0  0  0  0  0  0  0  0  0  0  0
    7.7880    1.7950    3.5915 H   0  0  0  0  0  0  0  0  0  0  0  0
    7.4507    5.2822    0.5655 C   0  0  0  0  0  0  0  0  0  0  0  0
    6.2720   -0.8410    3.0081 C   0  0  0  0  0  3  0  0  0  0  0  0
    6.3832   -1.1721    4.0312 H   0  0  0  0  0  0  0  0  0  0  0  0
    6.7851   -1.5926    1.9633 C   0  0  0  0  0  0  0  0  0  0  0  0
    7.3129   -2.5104    2.1654 H   0  0  0  0  0  0  0  0  0  0  0  0
    6.5793   -1.1464    0.6693 C   0  0  0  0  0  0  0  0  0  0  0  0
    6.9327   -1.7151   -0.1777 H   0  0  0  0  0  0  0  0  0  0  0  0
    5.9006    0.0434    0.4786 C   0  0  0  0  0  0  0  0  0  0  0  0
    5.7011    0.3977   -0.5193 H   0  0  0  0  0  0  0  0  0  0  0  0
    5.4414    0.7564    1.5853 C   0  0  0  0  0  0  0  0  0  0  0  0
    4.7137    2.0249    1.4164 C   0  0  1  0  0  3  0  0  0  0  0  0
    4.8650    2.7989    0.2659 C   0  0  0  0  0  0  0  0  0  0  0  0
    5.5835    2.5195   -0.4873 H   0  0  0  0  0  0  0  0  0  0  0  0
    4.1101    3.9462    0.1128 C   0  0  0  0  0  0  0  0  0  0  0  0
    4.2228    4.5644   -0.7642 H   0  0  0  0  0  0  0  0  0  0  0  0
    3.2141    4.2867    1.1124 C   0  0  0  0  0  0  0  0  0  0  0  0
    2.5880    5.1598    1.0306 H   0  0  0  0  0  0  0  0  0  0  0  0
    3.1565    3.4919    2.2438 C   0  0  0  0  0  0  0  0  0  0  0  0
    2.4929    3.7520    3.0562 H   0  0  0  0  0  0  0  0  0  0  0  0
    5.6130    0.2932    2.8292 N   0  0  0  0  0  0  0  0  0  0  0  0
    3.8923    2.4012    2.4023 N   0  0  0  0  0  0  0  0  0  0  0  0
    2.8961    3.5166    5.4079 O   0  0  0  0  0  0  0  0  0  0  0  0
    5.2716   -0.8364    5.8352 O   0  0  0  0  0  0  0  0  0  0  0  0
    8.5144    4.7562   -0.0755 O   0  0  0  0  0  0  0  0  0  0  0  0
    8.6945    5.2756   -0.8741 H   0  0  0  0  0  0  0  0  0  0  0  0
    6.8509    6.2299    0.1120 O   0  0  0  0  0  0  0  0  0  0  0  0
    2.5234   -0.4661    3.4033 Br  0  0  0  0  0  0  0  0  0  0  0  0
    4.1522    1.2339    4.3989 Pt  0  0  0  0  0  0  0  0  0  0  0  0
  1 45  2  0  0  0  0
  1  2  1  0  0  0  0
  2  3  1  0  0  0  0
  2  5  1  0  0  0  0
  4  2  1  0  0  0  0
  6  7  1  0  0  0  0
  7 10  1  0  0  0  0
  7  8  1  0  0  0  0
  7  9  1  0  0  0  0
 11 13  1  0  0  0  0
 11 12  1  0  0  0  0
 14 11  1  0  0  0  0
 15 14  1  0  0  0  0
 15 16  1  0  0  0  0
 17 15  2  0  0  0  0
 18 17  1  0  0  0  0
 19 20  2  0  0  0  0
 19 17  1  0  0  0  0
 20 22  1  0  0  0  0
 21 20  1  0  0  0  0
 22 23  1  0  0  0  0
 22 14  2  0  0  0  0
 24 19  1  0  0  0  0
 25 26  1  0  0  0  0
 27 28  1  0  0  0  0
 27 25  1  0  0  0  0
 29 27  2  0  0  0  0
 30 29  1  0  0  0  0
 31 29  1  0  0  0  0
 31 33  2  0  0  0  0
 32 31  1  0  0  0  0
 33 43  1  0  0  0  0
 34 35  1  6  0  0  0
 34 33  1  0  0  0  0
 34 44  1  0  0  0  0
 36 35  1  0  0  0  0
 37 35  2  0  0  0  0
 37 39  1  0  0  0  0
 38 37  1  0  0  0  0
 39 41  2  0  0  0  0
 40 39  1  0  0  0  0
 41 44  1  0  0  0  0
 41 42  1  0  0  0  0
 43 25  1  0  0  0  0
 43 51  1  0  0  0  0
 44 51  1  0  0  0  0
 46  6  2  0  0  0  0
 47 24  1  0  0  0  0
 48 47  1  0  0  0  0
 49 24  2  0  0  0  0
 50 51  1  0  0  0  0
 51 11  1  0  0  0  0
 51  1  1  0  0  0  0
 51  6  1  0  0  0  0
M  END
$$$$
