CSD_code = MOPVUK | q = 0 | S = 0 | Stoichiometry = C24H33ClHf | MND = 14
 OpenBabel04212202073D

 59 59  0  0  1  0  0  0  0  0999 V2000
    3.3416    7.2537    9.0806 C   0  0  0  0  0  0  0  0  0  0  0  0
    2.4659    8.1005    9.7457 C   0  0  0  0  0  0  0  0  0  0  0  0
    1.3263    7.3542   10.2599 C   0  0  2  0  0  3  0  0  0  0  0  0
    1.5090    5.9882    9.7416 C   0  0  1  0  0  0  0  0  0  0  0  0
    1.2548    4.6895   10.3825 C   0  0  2  0  0  3  0  0  0  0  0  0
    2.3751    3.8534    9.9850 C   0  0  0  0  0  0  0  0  0  0  0  0
    3.2974    4.5940    9.2504 C   0  0  0  0  0  0  0  0  0  0  0  0
    2.8110    5.9309    9.1683 C   0  0  2  0  0  3  0  0  0  0  0  0
    4.6499    7.6253    8.4632 C   0  0  0  0  0  0  0  0  0  0  0  0
    2.6035    9.5915    9.8465 C   0  0  0  0  0  0  0  0  0  0  0  0
   -0.0319    7.9939   10.4293 C   0  0  0  0  0  0  0  0  0  0  0  0
   -0.1358    4.1406   10.5965 C   0  0  0  0  0  0  0  0  0  0  0  0
    2.4594    2.3737   10.2309 C   0  0  0  0  0  0  0  0  0  0  0  0
    4.6035    4.1122    8.7100 C   0  0  0  0  0  0  0  0  0  0  0  0
    1.3429    7.2258   13.6198 C   0  0  0  0  0  0  0  0  0  0  0  0
    2.6869    6.8574   13.9260 C   0  0  2  0  0  3  0  0  0  0  0  0
    2.7456    5.4328   13.9895 C   0  0  0  0  0  0  0  0  0  0  0  0
    1.4396    4.9280   13.7225 C   0  0  0  0  0  0  0  0  0  0  0  0
    0.5693    6.0344   13.5137 C   0  0  0  0  0  0  0  0  0  0  0  0
    0.8200    8.6301   13.7269 C   0  0  0  0  0  0  0  0  0  0  0  0
    3.7814    7.8270   14.2645 C   0  0  0  0  0  0  0  0  0  0  0  0
    3.9120    4.5914   14.4181 C   0  0  0  0  0  0  0  0  0  0  0  0
    1.0536    3.4895   13.9229 C   0  0  0  0  0  0  0  0  0  0  0  0
   -0.9308    5.9802   13.5370 C   0  0  0  0  0  0  0  0  0  0  0  0
    4.6680    6.0946   11.6151 Cl  0  0  0  0  0 15  0  0  0  0  0  0
    2.3726    6.0503   11.7613 Hf  0  0  0  0  0  0  0  0  0  0  0  0
   -0.8254    4.9373   10.8668 H   0  0  0  0  0  0  0  0  0  0  0  0
   -0.1640    3.3692   11.3638 H   0  0  0  0  0  0  0  0  0  0  0  0
   -0.4966    3.6928    9.6669 H   0  0  0  0  0  0  0  0  0  0  0  0
    3.4081    2.1096   10.6992 H   0  0  0  0  0  0  0  0  0  0  0  0
    1.6505    2.0372   10.8749 H   0  0  0  0  0  0  0  0  0  0  0  0
    2.3898    1.8265    9.2895 H   0  0  0  0  0  0  0  0  0  0  0  0
    5.4265    4.5758    9.2557 H   0  0  0  0  0  0  0  0  0  0  0  0
    4.6910    3.0328    8.8011 H   0  0  0  0  0  0  0  0  0  0  0  0
    4.7027    4.3839    7.6599 H   0  0  0  0  0  0  0  0  0  0  0  0
    5.4558    7.5010    9.1892 H   0  0  0  0  0  0  0  0  0  0  0  0
    4.8613    6.9811    7.6132 H   0  0  0  0  0  0  0  0  0  0  0  0
    4.6453    8.6599    8.1273 H   0  0  0  0  0  0  0  0  0  0  0  0
    2.0848    9.9745   10.7238 H   0  0  0  0  0  0  0  0  0  0  0  0
    3.6511    9.8767    9.9158 H   0  0  0  0  0  0  0  0  0  0  0  0
    2.1768   10.0769    8.9663 H   0  0  0  0  0  0  0  0  0  0  0  0
   -0.7263    7.3178   10.9246 H   0  0  0  0  0  0  0  0  0  0  0  0
    0.0230    8.9241   10.9909 H   0  0  0  0  0  0  0  0  0  0  0  0
   -0.4459    8.2291    9.4453 H   0  0  0  0  0  0  0  0  0  0  0  0
    1.6546    2.8203   13.3049 H   0  0  0  0  0  0  0  0  0  0  0  0
    1.2175    3.2079   14.9652 H   0  0  0  0  0  0  0  0  0  0  0  0
    0.0029    3.3256   13.6982 H   0  0  0  0  0  0  0  0  0  0  0  0
   -1.3763    6.7859   12.9575 H   0  0  0  0  0  0  0  0  0  0  0  0
   -1.2810    6.0867   14.5667 H   0  0  0  0  0  0  0  0  0  0  0  0
   -1.3070    5.0339   13.1577 H   0  0  0  0  0  0  0  0  0  0  0  0
    1.4299    9.3313   13.1561 H   0  0  0  0  0  0  0  0  0  0  0  0
    0.8450    8.9512   14.7709 H   0  0  0  0  0  0  0  0  0  0  0  0
   -0.2089    8.6981   13.3842 H   0  0  0  0  0  0  0  0  0  0  0  0
    4.7590    7.3564   14.1896 H   0  0  0  0  0  0  0  0  0  0  0  0
    3.6566    8.1951   15.2858 H   0  0  0  0  0  0  0  0  0  0  0  0
    3.7652    8.6868   13.5929 H   0  0  0  0  0  0  0  0  0  0  0  0
    4.8526    5.1157   14.2661 H   0  0  0  0  0  0  0  0  0  0  0  0
    3.8267    4.3438   15.4791 H   0  0  0  0  0  0  0  0  0  0  0  0
    3.9480    3.6568   13.8570 H   0  0  0  0  0  0  0  0  0  0  0  0
  1  2  2  0  0  0  0
  2 10  1  0  0  0  0
  2  3  1  0  0  0  0
  3 11  1  6  0  0  0
  4  3  1  0  0  0  0
  4  5  1  0  0  0  0
  4 26  1  1  0  0  0
  5 12  1  6  0  0  0
  6 13  1  0  0  0  0
  6  5  1  0  0  0  0
  7  6  2  0  0  0  0
  8  1  1  1  0  0  0
  8  7  1  0  0  0  0
  8  4  1  0  0  0  0
  9  1  1  0  0  0  0
  9 36  1  0  0  0  0
 10 40  1  0  0  0  0
 10 39  1  0  0  0  0
 11 42  1  0  0  0  0
 11 43  1  0  0  0  0
 12 27  1  0  0  0  0
 12 28  1  0  0  0  0
 13 30  1  0  0  0  0
 13 31  1  0  0  0  0
 14 34  1  0  0  0  0
 14  7  1  0  0  0  0
 14 33  1  0  0  0  0
 15 20  1  0  0  0  0
 15 16  1  0  0  0  0
 16 17  1  0  0  0  0
 16 21  1  1  0  0  0
 17 22  1  0  0  0  0
 18 23  1  0  0  0  0
 18 17  2  0  0  0  0
 19 24  1  0  0  0  0
 19 15  2  0  0  0  0
 19 18  1  0  0  0  0
 20 52  1  0  0  0  0
 21 55  1  0  0  0  0
 22 58  1  0  0  0  0
 23 46  1  0  0  0  0
 24 49  1  0  0  0  0
 29 12  1  0  0  0  0
 32 13  1  0  0  0  0
 35 14  1  0  0  0  0
 37  9  1  0  0  0  0
 38  9  1  0  0  0  0
 41 10  1  0  0  0  0
 44 11  1  0  0  0  0
 45 23  1  0  0  0  0
 47 23  1  0  0  0  0
 48 24  1  0  0  0  0
 50 24  1  0  0  0  0
 51 20  1  0  0  0  0
 53 20  1  0  0  0  0
 54 21  1  0  0  0  0
 56 21  1  0  0  0  0
 57 22  1  0  0  0  0
 59 22  1  0  0  0  0
M  END
$$$$
