CSD_code = MOPVOE | q = 0 | S = 0 | Stoichiometry = C24H33ClZr | MND = 14
 OpenBabel04212202073D

 59 59  0  0  1  0  0  0  0  0999 V2000
    3.5215    9.8841   11.4524 Cl  0  0  0  0  0 15  0  0  0  0  0  0
    5.1683   11.3029   13.6138 C   0  0  0  0  0  0  0  0  0  0  0  0
    6.1802   12.0722   13.0056 C   0  0  0  0  0  0  0  0  0  0  0  0
    7.3729   11.2873   12.8290 C   0  0  2  0  0  3  0  0  0  0  0  0
    7.0955    9.9846   13.4117 C   0  0  1  0  0  0  0  0  0  0  0  0
    7.3776    8.6431   12.9287 C   0  0  2  0  0  3  0  0  0  0  0  0
    6.2031    7.8549   13.2061 C   0  0  0  0  0  0  0  0  0  0  0  0
    5.1933    8.6549   13.7686 C   0  0  0  0  0  0  0  0  0  0  0  0
    5.7042    9.9944   13.8417 C   0  0  2  0  0  3  0  0  0  0  0  0
    3.8096   11.8146   13.9870 C   0  0  0  0  0  0  0  0  0  0  0  0
    6.0502   13.5487   12.7422 C   0  0  0  0  0  0  0  0  0  0  0  0
    8.7471   11.8850   12.6550 C   0  0  0  0  0  0  0  0  0  0  0  0
    8.7589    8.0616   12.7616 C   0  0  0  0  0  0  0  0  0  0  0  0
    6.1093    6.3578   13.0669 C   0  0  0  0  0  0  0  0  0  0  0  0
    3.8551    8.1769   14.2487 C   0  0  0  0  0  0  0  0  0  0  0  0
    6.8747   10.9669    9.5281 C   0  0  0  0  0  0  0  0  0  0  0  0
    5.5459   10.5462    9.2358 C   0  0  0  0  0  0  0  0  0  0  0  0
    5.5192    9.1230    9.2770 C   0  0  0  0  0  0  0  0  0  0  0  0
    6.8289    8.6686    9.6018 C   0  0  0  0  0  0  0  0  0  0  0  0
    7.6766    9.8068    9.7402 C   0  0  1  0  0  3  0  0  0  0  0  0
    7.3519   12.3844    9.3566 C   0  0  0  0  0  0  0  0  0  0  0  0
    4.4355   11.4890    8.8591 C   0  0  0  0  0  0  0  0  0  0  0  0
    4.3790    8.2017    8.9395 C   0  0  0  0  0  0  0  0  0  0  0  0
    7.2286    7.2183    9.5511 C   0  0  0  0  0  0  0  0  0  0  0  0
    9.1807    9.7901    9.7352 C   0  0  0  0  0  0  0  0  0  0  0  0
    5.9037    9.9056   11.5313 Zr  0  0  0  0  0  0  0  0  0  0  0  0
    3.1684   10.9985   14.3095 H   0  0  0  0  0  0  0  0  0  0  0  0
    3.8826   12.5412   14.8008 H   0  0  0  0  0  0  0  0  0  0  0  0
    3.3330   12.3088   13.1378 H   0  0  0  0  0  0  0  0  0  0  0  0
    6.9616   13.9574   12.3105 H   0  0  0  0  0  0  0  0  0  0  0  0
    5.8527   14.0786   13.6759 H   0  0  0  0  0  0  0  0  0  0  0  0
    5.2137   13.7562   12.0689 H   0  0  0  0  0  0  0  0  0  0  0  0
    9.4984   11.1016   12.5769 H   0  0  0  0  0  0  0  0  0  0  0  0
    9.0028   12.4936   13.5278 H   0  0  0  0  0  0  0  0  0  0  0  0
    8.8139   12.5293   11.7785 H   0  0  0  0  0  0  0  0  0  0  0  0
    8.7805    7.2573   12.0269 H   0  0  0  0  0  0  0  0  0  0  0  0
    9.1084    7.6457   13.7116 H   0  0  0  0  0  0  0  0  0  0  0  0
    9.4678    8.8305   12.4611 H   0  0  0  0  0  0  0  0  0  0  0  0
    5.2226    6.0714   12.4962 H   0  0  0  0  0  0  0  0  0  0  0  0
    6.0328    5.8919   14.0515 H   0  0  0  0  0  0  0  0  0  0  0  0
    6.9905    5.9504   12.5759 H   0  0  0  0  0  0  0  0  0  0  0  0
    3.5870    8.6858   15.1740 H   0  0  0  0  0  0  0  0  0  0  0  0
    3.8748    7.1051   14.4400 H   0  0  0  0  0  0  0  0  0  0  0  0
    3.0720    8.3781   13.5133 H   0  0  0  0  0  0  0  0  0  0  0  0
    8.4243   12.4587    9.5218 H   0  0  0  0  0  0  0  0  0  0  0  0
    6.8375   13.0717   10.0328 H   0  0  0  0  0  0  0  0  0  0  0  0
    7.1508   12.7181    8.3358 H   0  0  0  0  0  0  0  0  0  0  0  0
    3.4786   10.9729    8.8210 H   0  0  0  0  0  0  0  0  0  0  0  0
    4.3528   12.3037    9.5860 H   0  0  0  0  0  0  0  0  0  0  0  0
    4.6272   11.9300    7.8773 H   0  0  0  0  0  0  0  0  0  0  0  0
    4.2217    7.4642    9.7331 H   0  0  0  0  0  0  0  0  0  0  0  0
    3.4526    8.7560    8.8079 H   0  0  0  0  0  0  0  0  0  0  0  0
    4.5914    7.6625    8.0127 H   0  0  0  0  0  0  0  0  0  0  0  0
    8.2806    7.0864    9.7931 H   0  0  0  0  0  0  0  0  0  0  0  0
    6.6281    6.6135   10.2355 H   0  0  0  0  0  0  0  0  0  0  0  0
    7.0706    6.8274    8.5430 H   0  0  0  0  0  0  0  0  0  0  0  0
    9.5686    8.8353   10.0797 H   0  0  0  0  0  0  0  0  0  0  0  0
    9.5991   10.5782   10.3568 H   0  0  0  0  0  0  0  0  0  0  0  0
    9.5416    9.9450    8.7149 H   0  0  0  0  0  0  0  0  0  0  0  0
  2 10  1  0  0  0  0
  3  2  2  0  0  0  0
  4 12  1  1  0  0  0
  4  3  1  0  0  0  0
  4  5  1  0  0  0  0
  5 26  1  6  0  0  0
  5  9  1  0  0  0  0
  6 13  1  1  0  0  0
  6  7  1  0  0  0  0
  6  5  1  0  0  0  0
  7  8  2  0  0  0  0
  8  9  1  0  0  0  0
  8 15  1  0  0  0  0
  9  2  1  6  0  0  0
 10 27  1  0  0  0  0
 10 28  1  0  0  0  0
 11  3  1  0  0  0  0
 11 31  1  0  0  0  0
 12 34  1  0  0  0  0
 13 37  1  0  0  0  0
 14  7  1  0  0  0  0
 14 40  1  0  0  0  0
 15 43  1  0  0  0  0
 15 42  1  0  0  0  0
 16 20  1  0  0  0  0
 17 18  1  0  0  0  0
 17 16  2  0  0  0  0
 18 19  2  0  0  0  0
 19 20  1  0  0  0  0
 20 25  1  6  0  0  0
 21 45  1  0  0  0  0
 21 16  1  0  0  0  0
 21 46  1  0  0  0  0
 22 17  1  0  0  0  0
 22 49  1  0  0  0  0
 23 18  1  0  0  0  0
 23 51  1  0  0  0  0
 24 19  1  0  0  0  0
 24 54  1  0  0  0  0
 24 55  1  0  0  0  0
 25 57  1  0  0  0  0
 25 58  1  0  0  0  0
 29 10  1  0  0  0  0
 30 11  1  0  0  0  0
 32 11  1  0  0  0  0
 33 12  1  0  0  0  0
 35 12  1  0  0  0  0
 36 13  1  0  0  0  0
 38 13  1  0  0  0  0
 39 14  1  0  0  0  0
 41 14  1  0  0  0  0
 44 15  1  0  0  0  0
 47 21  1  0  0  0  0
 48 22  1  0  0  0  0
 50 22  1  0  0  0  0
 52 23  1  0  0  0  0
 53 23  1  0  0  0  0
 56 24  1  0  0  0  0
 59 25  1  0  0  0  0
M  END
$$$$
