CSD_code = MOQJEJ | q = 0 | S = 0 | Stoichiometry = C17H27ClN3O2PRu | MND = 6
 OpenBabel04212202073D

 52 55  0  0  1  0  0  0  0  0999 V2000
   -1.1036    3.1974    5.4596 N   0  0  0  0  0  0  0  0  0  0  0  0
    1.3177    5.3641    6.9610 O   0  0  0  0  0  0  0  0  0  0  0  0
   -2.6730    1.8214    4.5073 N   0  0  0  0  0  0  0  0  0  0  0  0
   -3.4934    1.2388    4.6248 H   0  0  0  0  0  0  0  0  0  0  0  0
    1.0970    4.3794    4.9566 N   0  0  1  0  0  0  0  0  0  0  0  0
    2.0397    2.8103    1.6240 O   0  0  0  0  0  1  0  0  0  0  0  0
   -2.2588    2.5363    5.6022 C   0  0  2  0  0  3  0  0  0  0  0  0
   -1.1071   -0.6471    4.9229 C   0  0  0  0  0  0  0  0  0  0  0  0
   -2.0610   -0.5886    5.4471 H   0  0  0  0  0  0  0  0  0  0  0  0
   -0.4029    0.0466    5.3784 H   0  0  0  0  0  0  0  0  0  0  0  0
   -0.7094   -1.6510    5.0626 H   0  0  0  0  0  0  0  0  0  0  0  0
   -0.6378    3.9430    6.4831 C   0  0  0  0  0  0  0  0  0  0  0  0
   -1.2618   -0.3676    3.4254 C   0  0  0  0  0  0  0  0  0  0  0  0
    1.2660    2.8838    2.4721 C   0  0  0  0  0  2  0  0  0  0  0  0
    0.6119    4.5674    6.1379 C   0  0  2  0  0  3  0  0  0  0  0  0
   -4.0771    1.2276    1.8145 C   0  0  0  0  0  0  0  0  0  0  0  0
   -4.6201    1.6084    2.6772 H   0  0  0  0  0  0  0  0  0  0  0  0
   -4.0735    0.1458    1.8446 H   0  0  0  0  0  0  0  0  0  0  0  0
   -4.6291    1.5264    0.9237 H   0  0  0  0  0  0  0  0  0  0  0  0
   -2.6765    1.8372    1.7427 C   0  0  0  0  0  0  0  0  0  0  0  0
    2.3593    5.0755    4.8602 C   0  0  0  0  0  0  0  0  0  0  0  0
    2.3265    5.7909    4.0328 H   0  0  0  0  0  0  0  0  0  0  0  0
    3.1579    4.3523    4.6643 H   0  0  0  0  0  0  0  0  0  0  0  0
   -2.3282   -1.3162    2.8816 C   0  0  0  0  0  0  0  0  0  0  0  0
   -2.4314   -1.2458    1.8028 H   0  0  0  0  0  0  0  0  0  0  0  0
   -3.2941   -1.1505    3.3552 H   0  0  0  0  0  0  0  0  0  0  0  0
   -2.0238   -2.3371    3.1131 H   0  0  0  0  0  0  0  0  0  0  0  0
    0.0701   -0.6260    2.7200 C   0  0  0  0  0  0  0  0  0  0  0  0
    0.0145   -0.3754    1.6624 H   0  0  0  0  0  0  0  0  0  0  0  0
    0.3483   -1.6747    2.8128 H   0  0  0  0  0  0  0  0  0  0  0  0
    0.8543   -0.0246    3.1777 H   0  0  0  0  0  0  0  0  0  0  0  0
   -1.9169    1.3701    0.5032 C   0  0  0  0  0  0  0  0  0  0  0  0
   -0.8882    1.7322    0.5548 H   0  0  0  0  0  0  0  0  0  0  0  0
   -2.3789    1.7757   -0.3955 H   0  0  0  0  0  0  0  0  0  0  0  0
   -1.9058    0.2868    0.4154 H   0  0  0  0  0  0  0  0  0  0  0  0
   -1.3138    4.0591    7.6942 C   0  0  0  0  0  0  0  0  0  0  0  0
   -0.8945    4.6614    8.4823 H   0  0  0  0  0  0  0  0  0  0  0  0
   -2.8545    3.3540    1.6583 C   0  0  0  0  0  0  0  0  0  0  0  0
   -3.2211    3.7548    2.6022 H   0  0  0  0  0  0  0  0  0  0  0  0
   -3.5726    3.5984    0.8771 H   0  0  0  0  0  0  0  0  0  0  0  0
   -1.9098    3.8364    1.4244 H   0  0  0  0  0  0  0  0  0  0  0  0
   -2.9912    2.6088    6.7873 C   0  0  0  0  0  0  0  0  0  0  0  0
   -3.9175    2.0632    6.8801 H   0  0  0  0  0  0  0  0  0  0  0  0
   -2.5086    3.3765    7.8380 C   0  0  0  0  0  0  0  0  0  0  0  0
   -3.0628    3.4333    8.7617 H   0  0  0  0  0  0  0  0  0  0  0  0
    2.4937    5.7510    6.2448 C   0  0  0  0  0  0  0  0  0  0  0  0
    3.3657    5.4016    6.8034 H   0  0  0  0  0  0  0  0  0  0  0  0
    2.5136    6.8425    6.1859 H   0  0  0  0  0  0  0  0  0  0  0  0
   -0.6621    4.1433    3.1645 H   0  0  0  0  0  0  0  0  0  0  0  0
    0.0699    3.0170    3.8757 Ru  0  0  0  0  0  0  0  0  0  0  0  0
   -1.5640    1.5079    3.2430 P   0  0  0  0  0  4  0  0  0  0  0  0
    1.3960    1.5371    5.1960 Cl  0  0  0  0  0  0  0  0  0  0  0  0
  1  7  1  0  0  0  0
  1 12  1  0  0  0  0
  3  4  1  0  0  0  0
  3  7  1  0  0  0  0
  5 21  1  1  0  0  0
  5 15  1  0  0  0  0
  6 14  1  0  0  0  0
  7 42  1  6  0  0  0
  8 11  1  0  0  0  0
  8 10  1  0  0  0  0
  8  9  1  0  0  0  0
 12 36  2  0  0  0  0
 13  8  1  0  0  0  0
 14 50  1  0  0  0  0
 15 12  1  6  0  0  0
 15  2  1  0  0  0  0
 16 18  1  0  0  0  0
 16 17  1  0  0  0  0
 19 16  1  0  0  0  0
 20 16  1  0  0  0  0
 20 51  1  0  0  0  0
 21 46  1  0  0  0  0
 22 21  1  0  0  0  0
 23 21  1  0  0  0  0
 24 27  1  0  0  0  0
 24 26  1  0  0  0  0
 24 13  1  0  0  0  0
 25 24  1  0  0  0  0
 28 30  1  0  0  0  0
 28 31  1  0  0  0  0
 28 13  1  0  0  0  0
 29 28  1  0  0  0  0
 32 33  1  0  0  0  0
 32 20  1  0  0  0  0
 34 32  1  0  0  0  0
 35 32  1  0  0  0  0
 36 44  1  0  0  0  0
 36 37  1  0  0  0  0
 38 20  1  0  0  0  0
 38 39  1  0  0  0  0
 40 38  1  0  0  0  0
 41 38  1  0  0  0  0
 42 43  1  0  0  0  0
 42 44  2  0  0  0  0
 44 45  1  0  0  0  0
 46 47  1  0  0  0  0
 46  2  1  0  0  0  0
 48 46  1  0  0  0  0
 49 50  1  0  0  0  0
 50  5  1  0  0  0  0
 50 52  1  0  0  0  0
 50  1  1  0  0  0  0
 51 13  1  0  0  0  0
 51 50  1  0  0  0  0
 51  3  1  0  0  0  0
M  END
$$$$
