CSD_code = MOQWOG | q = 1 | S = 0 | Stoichiometry = C19H17ClNO2RuS(1+) | MND = 9
 OpenBabel04212202073D

 42 43  0  0  1  0  0  0  0  0999 V2000
    1.7066    3.8470    6.5521 Ru  0  0  0  0  0  0  0  0  0  0  0  0
   -0.1189    2.7937    5.4725 S   0  0  0  0  0  0  0  0  0  0  0  0
   -1.0248    4.8781    6.2556 O   0  0  0  0  0  0  0  0  0  0  0  0
   -2.4764    5.3357    7.8868 O   0  0  0  0  0  0  0  0  0  0  0  0
   -2.2738    6.2609    7.6726 H   0  0  0  0  0  0  0  0  0  0  0  0
    2.8756   -0.6682    7.5651 C   0  0  0  0  0  0  0  0  0  0  0  0
    3.1278   -1.6874    7.8096 H   0  0  0  0  0  0  0  0  0  0  0  0
    1.7600    0.9355    6.1761 C   0  0  1  0  0  3  0  0  0  0  0  0
   -3.0379    1.2979    8.6481 C   0  0  0  0  0  0  0  0  0  0  0  0
   -3.7353    0.9602    9.3978 H   0  0  0  0  0  0  0  0  0  0  0  0
   -2.2620    0.3820    7.9561 C   0  0  0  0  0  0  0  0  0  0  0  0
   -2.3569   -0.6726    8.1639 H   0  0  0  0  0  0  0  0  0  0  0  0
    1.9722    6.2011    6.6635 C   0  0  0  0  0  0  0  0  0  0  0  0
    1.4387    6.9616    7.2206 H   0  0  0  0  0  0  0  0  0  0  0  0
   -2.0056    3.0770    7.4109 C   0  0  0  0  0  0  0  0  0  0  0  0
    3.3334    0.3862    8.3406 C   0  0  0  0  0  0  0  0  0  0  0  0
    3.9485    0.2159    9.2085 H   0  0  0  0  0  0  0  0  0  0  0  0
   -2.9085    2.6464    8.3782 C   0  0  0  0  0  0  0  0  0  0  0  0
   -3.4898    3.3814    8.9111 H   0  0  0  0  0  0  0  0  0  0  0  0
    2.2178    1.9501    6.9303 N   0  0  0  0  0  0  0  0  0  0  0  0
    2.0739   -0.3838    6.4715 C   0  0  0  0  0  0  0  0  0  0  0  0
    1.6946   -1.1752    5.8443 H   0  0  0  0  0  0  0  0  0  0  0  0
   -1.2193    2.1487    6.7142 C   0  0  0  0  0  0  0  0  0  0  0  0
   -1.3572    0.7990    6.9921 C   0  0  0  0  0  0  0  0  0  0  0  0
   -0.7710    0.0570    6.4780 H   0  0  0  0  0  0  0  0  0  0  0  0
    2.3248    4.9166    4.6253 C   0  0  0  0  0  3  0  0  0  0  0  0
    2.0540    4.7159    3.5947 H   0  0  0  0  0  0  0  0  0  0  0  0
    3.8772    4.6800    6.4937 C   0  0  0  0  0  0  0  0  0  0  0  0
    4.8054    4.2861    6.8930 H   0  0  0  0  0  0  0  0  0  0  0  0
    3.1144    5.5829    7.2437 C   0  0  0  0  0  0  0  0  0  0  0  0
    3.4395    5.8817    8.2347 H   0  0  0  0  0  0  0  0  0  0  0  0
    2.9789    1.6753    7.9903 C   0  0  0  0  0  0  0  0  0  0  0  0
    3.2910    2.5221    8.5907 H   0  0  0  0  0  0  0  0  0  0  0  0
    0.8939    1.3143    5.0196 C   0  0  0  0  0  0  0  0  0  0  0  0
    0.2710    0.4992    4.6583 H   0  0  0  0  0  0  0  0  0  0  0  0
    1.5012    1.6810    4.1865 H   0  0  0  0  0  0  0  0  0  0  0  0
    3.4713    4.3275    5.1805 C   0  0  1  0  0  0  0  0  0  0  0  0
    4.0965    3.6752    4.5817 H   0  0  0  0  0  0  0  0  0  0  0  0
    1.5969    5.8884    5.3597 C   0  0  0  0  0  0  0  0  0  0  0  0
    0.7638    6.3969    4.8917 H   0  0  0  0  0  0  0  0  0  0  0  0
   -1.7882    4.5022    7.1360 C   0  0  0  0  0  0  0  0  0  0  0  0
    0.6776    3.7204    8.6477 Cl  0  0  0  0  0 15  0  0  0  0  0  0
  1 20  1  0  0  0  0
  2 23  1  0  0  0  0
  3 41  2  0  0  0  0
  5  4  1  0  0  0  0
  6  7  1  0  0  0  0
  6 16  1  0  0  0  0
  8 34  1  1  0  0  0
  8 21  1  0  0  0  0
  8 20  1  0  0  0  0
  9 10  1  0  0  0  0
 11 12  1  0  0  0  0
 11  9  2  0  0  0  0
 13 14  1  0  0  0  0
 13 30  1  0  0  0  0
 15 18  2  0  0  0  0
 16 17  1  0  0  0  0
 18  9  1  0  0  0  0
 18 19  1  0  0  0  0
 20 32  1  0  0  0  0
 21  6  2  0  0  0  0
 22 21  1  0  0  0  0
 23 24  2  0  0  0  0
 23 15  1  0  0  0  0
 24 11  1  0  0  0  0
 25 24  1  0  0  0  0
 26 37  1  0  0  0  0
 26 39  1  0  0  0  0
 27 26  1  0  0  0  0
 28 29  1  0  0  0  0
 28 30  2  0  0  0  0
 30 31  1  0  0  0  0
 32 16  2  0  0  0  0
 32 33  1  0  0  0  0
 34  2  1  0  0  0  0
 35 34  1  0  0  0  0
 36 34  1  0  0  0  0
 37 38  1  6  0  0  0
 37 28  1  0  0  0  0
 37  1  1  0  0  0  0
 39 13  2  0  0  0  0
 40 39  1  0  0  0  0
 41 15  1  0  0  0  0
 41  4  1  0  0  0  0
M  END
$$$$
