CSD_code = MOSPUF | q = 0 | S = 0 | Stoichiometry = C23H35ClOTi | MND = 12
 OpenBabel04212202073D

 61 63  0  0  1  0  0  0  0  0999 V2000
    3.7431    1.9567   -3.5651 Ti  0  0  1  0  0  0  0  0  0  0  0  0
    4.8194    3.6933   -4.5380 Cl  0  0  0  0  0  0  0  0  0  0  0  0
    2.2583    2.7990   -3.3592 O   0  0  0  0  0  0  0  0  0  0  0  0
    2.2606    1.0811   -5.1565 C   0  0  1  0  0  3  0  0  0  0  0  0
    3.3775    1.5276   -5.8898 C   0  0  0  0  0  3  0  0  0  0  0  0
    3.4019    2.2966   -6.6480 H   0  0  0  0  0  0  0  0  0  0  0  0
    4.4930    0.7371   -5.5296 C   0  0  0  0  0  0  0  0  0  0  0  0
    5.4677    0.7846   -6.0001 H   0  0  0  0  0  0  0  0  0  0  0  0
    4.0709   -0.2079   -4.5859 C   0  0  0  0  0  0  0  0  0  0  0  0
    4.6501   -1.0512   -4.2395 H   0  0  0  0  0  0  0  0  0  0  0  0
    2.7038    0.0271   -4.3189 C   0  0  1  0  0  0  0  0  0  0  0  0
    2.0558   -0.5982   -3.7176 H   0  0  0  0  0  0  0  0  0  0  0  0
    0.9082    1.7291   -4.9960 C   0  0  1  0  0  0  0  0  0  0  0  0
    0.3604    1.1009   -4.2773 H   0  0  0  0  0  0  0  0  0  0  0  0
    1.1708    3.0658   -4.1916 C   0  0  0  0  0  0  0  0  0  0  0  0
    1.5188    4.2961   -5.0410 C   0  0  0  0  0  0  0  0  0  0  0  0
    2.3669    4.0876   -5.6880 H   0  0  0  0  0  0  0  0  0  0  0  0
    1.8129    5.0982   -4.3637 H   0  0  0  0  0  0  0  0  0  0  0  0
    0.6676    4.6282   -5.6275 H   0  0  0  0  0  0  0  0  0  0  0  0
   -0.0185    3.4133   -3.2752 C   0  0  0  0  0  0  0  0  0  0  0  0
   -0.2767    2.5555   -2.6567 H   0  0  0  0  0  0  0  0  0  0  0  0
   -0.8889    3.7226   -3.8417 H   0  0  0  0  0  0  0  0  0  0  0  0
    0.2783    4.2308   -2.6201 H   0  0  0  0  0  0  0  0  0  0  0  0
    0.0516    1.6842   -6.2937 C   0  0  0  0  0  0  0  0  0  0  0  0
   -0.2159    0.1940   -6.5646 C   0  0  0  0  0  0  0  0  0  0  0  0
    0.7215   -0.3521   -6.6439 H   0  0  0  0  0  0  0  0  0  0  0  0
   -0.7642    0.0731   -7.4962 H   0  0  0  0  0  0  0  0  0  0  0  0
   -0.8056   -0.2482   -5.7641 H   0  0  0  0  0  0  0  0  0  0  0  0
    0.7343    2.2555   -7.5384 C   0  0  0  0  0  0  0  0  0  0  0  0
    1.5955    1.6536   -7.8120 H   0  0  0  0  0  0  0  0  0  0  0  0
    1.0491    3.2829   -7.3980 H   0  0  0  0  0  0  0  0  0  0  0  0
    0.0329    2.2298   -8.3708 H   0  0  0  0  0  0  0  0  0  0  0  0
   -1.3019    2.3749   -6.1076 C   0  0  0  0  0  0  0  0  0  0  0  0
   -1.8018    2.0170   -5.2109 H   0  0  0  0  0  0  0  0  0  0  0  0
   -1.9420    2.1546   -6.9601 H   0  0  0  0  0  0  0  0  0  0  0  0
   -1.1928    3.4536   -6.0460 H   0  0  0  0  0  0  0  0  0  0  0  0
    3.5215    1.7222   -1.2697 C   0  0  0  0  0  0  0  0  0  0  0  0
    4.1869    0.5285   -1.6620 C   0  0  0  0  0  0  0  0  0  0  0  0
    5.4669    0.8854   -2.1645 C   0  0  0  0  0  0  0  0  0  0  0  0
    5.5914    2.2884   -2.0985 C   0  0  0  0  0  0  0  0  0  0  0  0
    4.3802    2.8194   -1.5578 C   0  0  1  0  0  0  0  0  0  0  0  0
    2.2179    1.7989   -0.5315 C   0  0  0  0  0  0  0  0  0  0  0  0
    1.5604    0.9737   -0.8042 H   0  0  0  0  0  0  0  0  0  0  0  0
    1.7060    2.7340   -0.7532 H   0  0  0  0  0  0  0  0  0  0  0  0
    2.3945    1.7516    0.5461 H   0  0  0  0  0  0  0  0  0  0  0  0
    3.7346   -0.8567   -1.3013 C   0  0  0  0  0  0  0  0  0  0  0  0
    4.1093   -1.6064   -1.9956 H   0  0  0  0  0  0  0  0  0  0  0  0
    2.6484   -0.9256   -1.2750 H   0  0  0  0  0  0  0  0  0  0  0  0
    4.1058   -1.1107   -0.3050 H   0  0  0  0  0  0  0  0  0  0  0  0
    6.6035   -0.0355   -2.5050 C   0  0  0  0  0  0  0  0  0  0  0  0
    6.3044   -1.0795   -2.4429 H   0  0  0  0  0  0  0  0  0  0  0  0
    7.4221    0.1195   -1.7989 H   0  0  0  0  0  0  0  0  0  0  0  0
    6.9933    0.1594   -3.5063 H   0  0  0  0  0  0  0  0  0  0  0  0
    6.8690    3.0358   -2.3340 C   0  0  0  0  0  0  0  0  0  0  0  0
    6.6892    4.1030   -2.4371 H   0  0  0  0  0  0  0  0  0  0  0  0
    7.3698    2.6858   -3.2366 H   0  0  0  0  0  0  0  0  0  0  0  0
    7.5428    2.8790   -1.4872 H   0  0  0  0  0  0  0  0  0  0  0  0
    4.1268    4.2573   -1.2138 C   0  0  0  0  0  0  0  0  0  0  0  0
    3.0581    4.4718   -1.2388 H   0  0  0  0  0  0  0  0  0  0  0  0
    4.6231    4.9133   -1.9295 H   0  0  0  0  0  0  0  0  0  0  0  0
    4.5038    4.4854   -0.2137 H   0  0  0  0  0  0  0  0  0  0  0  0
  1  2  1  6  0  0  0
  1  3  1  0  0  0  0
  1 41  1  0  0  0  0
  4  5  1  1  0  0  0
  4 13  1  0  0  0  0
  4 11  1  0  0  0  0
  5  7  1  0  0  0  0
  6  5  1  0  0  0  0
  7  9  2  0  0  0  0
  8  7  1  0  0  0  0
  9 11  1  0  0  0  0
  9 10  1  0  0  0  0
 11 12  1  1  0  0  0
 11  1  1  0  0  0  0
 13 14  1  1  0  0  0
 13 15  1  0  0  0  0
 15  3  1  0  0  0  0
 15 20  1  0  0  0  0
 16 18  1  0  0  0  0
 16 15  1  0  0  0  0
 17 16  1  0  0  0  0
 19 16  1  0  0  0  0
 20 21  1  0  0  0  0
 20 23  1  0  0  0  0
 22 20  1  0  0  0  0
 24 33  1  0  0  0  0
 24 13  1  0  0  0  0
 25 24  1  0  0  0  0
 25 28  1  0  0  0  0
 26 25  1  0  0  0  0
 27 25  1  0  0  0  0
 29 31  1  0  0  0  0
 29 24  1  0  0  0  0
 30 29  1  0  0  0  0
 32 29  1  0  0  0  0
 33 36  1  0  0  0  0
 33 34  1  0  0  0  0
 35 33  1  0  0  0  0
 37 42  1  0  0  0  0
 38 46  1  0  0  0  0
 38 37  2  0  0  0  0
 39 40  2  0  0  0  0
 39 38  1  0  0  0  0
 40 41  1  0  0  0  0
 41 37  1  0  0  0  0
 41 58  1  1  0  0  0
 42 45  1  0  0  0  0
 43 42  1  0  0  0  0
 44 42  1  0  0  0  0
 46 48  1  0  0  0  0
 46 49  1  0  0  0  0
 47 46  1  0  0  0  0
 50 51  1  0  0  0  0
 50 39  1  0  0  0  0
 50 52  1  0  0  0  0
 53 50  1  0  0  0  0
 54 40  1  0  0  0  0
 54 57  1  0  0  0  0
 55 54  1  0  0  0  0
 56 54  1  0  0  0  0
 58 61  1  0  0  0  0
 59 58  1  0  0  0  0
 60 58  1  0  0  0  0
M  END
$$$$
