CSD_code = MOTCIH | q = 0 | S = 0 | Stoichiometry = C12H16BrFN2Pd | MND = 4
 OpenBabel04212202073D

 33 34  0  0  0  0  0  0  0  0999 V2000
    5.5608    5.9559   10.9588 Pd  0  0  2  0  0  0  0  0  0  0  0  0
    6.5219    5.1350   12.6287 N   0  0  0  0  0  4  0  0  0  0  0  0
    5.8729    5.3330   13.4003 H   0  0  0  0  0  0  0  0  0  0  0  0
    7.4127    5.5826   12.8655 H   0  0  0  0  0  0  0  0  0  0  0  0
    6.5598    8.1309   11.4336 Br  0  0  0  0  0  0  0  0  0  0  0  0
    2.3592    1.8133    9.4085 F   0  0  0  0  0  0  0  0  0  0  0  0
    6.6690    3.6779   12.4633 C   0  0  0  0  0  0  0  0  0  0  0  0
    6.7473    3.1662   13.4334 H   0  0  0  0  0  0  0  0  0  0  0  0
    7.5959    3.4870   11.9070 H   0  0  0  0  0  0  0  0  0  0  0  0
    4.8447    4.0626   10.8043 C   0  0  0  0  0  0  0  0  0  0  0  0
    5.4951    3.1588   11.6638 C   0  0  0  0  0  0  0  0  0  0  0  0
    5.0930    1.8349   11.7603 C   0  0  0  0  0  0  0  0  0  0  0  0
    5.6099    1.1625   12.4305 H   0  0  0  0  0  0  0  0  0  0  0  0
    4.0348    1.3670   11.0018 C   0  0  0  0  0  0  0  0  0  0  0  0
    3.7064    0.3417   11.0601 H   0  0  0  0  0  0  0  0  0  0  0  0
    3.3971    2.2552   10.1581 C   0  0  0  0  0  0  0  0  0  0  0  0
    3.7763    3.5822   10.0499 C   0  0  0  0  0  0  0  0  0  0  0  0
    3.2296    4.2212    9.3692 H   0  0  0  0  0  0  0  0  0  0  0  0
    4.2488    7.3834    8.6463 N   0  0  0  0  0  2  0  0  0  0  0  0
    4.6868    6.7006    9.4790 C   0  0  0  0  0  2  0  0  0  0  0  0
    3.8193    8.3459    7.7101 C   0  0  0  0  0  0  0  0  0  0  0  0
    2.8005    7.6912    6.7752 C   0  0  0  0  0  0  0  0  0  0  0  0
    3.2508    6.8538    6.2468 H   0  0  0  0  0  0  0  0  0  0  0  0
    2.4526    8.4177    6.0462 H   0  0  0  0  0  0  0  0  0  0  0  0
    1.9451    7.3261    7.3395 H   0  0  0  0  0  0  0  0  0  0  0  0
    5.0562    8.8207    6.9420 C   0  0  0  0  0  0  0  0  0  0  0  0
    5.7907    9.2298    7.6321 H   0  0  0  0  0  0  0  0  0  0  0  0
    4.7731    9.5917    6.2309 H   0  0  0  0  0  0  0  0  0  0  0  0
    5.5107    7.9932    6.4018 H   0  0  0  0  0  0  0  0  0  0  0  0
    3.1925    9.4998    8.4983 C   0  0  0  0  0  0  0  0  0  0  0  0
    2.3252    9.1537    9.0562 H   0  0  0  0  0  0  0  0  0  0  0  0
    2.8806   10.2847    7.8150 H   0  0  0  0  0  0  0  0  0  0  0  0
    3.9149    9.9096    9.2007 H   0  0  0  0  0  0  0  0  0  0  0  0
  1  5  1  1  0  0  0
  1  2  1  0  0  0  0
  2  4  1  0  0  0  0
  2  3  1  0  0  0  0
  6 16  1  0  0  0  0
  7  2  1  0  0  0  0
  7  8  1  0  0  0  0
  9  7  1  0  0  0  0
 10  1  1  0  0  0  0
 10 11  1  0  0  0  0
 11 12  2  0  0  0  0
 11  7  1  0  0  0  0
 12 13  1  0  0  0  0
 14 15  1  0  0  0  0
 14 12  1  0  0  0  0
 16 14  2  0  0  0  0
 17 16  1  0  0  0  0
 17 10  2  0  0  0  0
 18 17  1  0  0  0  0
 19 20  1  0  0  0  0
 20  1  1  0  0  0  0
 21 30  1  0  0  0  0
 21 19  1  0  0  0  0
 22 25  1  0  0  0  0
 22 21  1  0  0  0  0
 23 22  1  0  0  0  0
 24 22  1  0  0  0  0
 26 27  1  0  0  0  0
 26 21  1  0  0  0  0
 28 26  1  0  0  0  0
 29 26  1  0  0  0  0
 30 31  1  0  0  0  0
 30 33  1  0  0  0  0
 32 30  1  0  0  0  0
M  END
$$$$
