CSD_code = MOTGAF | q = 0 | S = 0 | Stoichiometry = C25H28Cl2N2Ni | MND = 4
 OpenBabel04212202073D

 58 62  0  0  1  0  0  0  0  0999 V2000
    2.7073    2.7848    8.4762 Ni  0  0  0  0  0  0  0  0  0  0  0  0
    3.9324    1.8426    9.8391 Cl  0  0  0  0  0  0  0  0  0  0  0  0
    0.9553    3.4308    7.6131 Cl  0  0  0  0  0  0  0  0  0  0  0  0
    4.0269    4.6023    7.9060 N   0  0  0  0  0  0  0  0  0  0  0  0
    3.4841    2.1466    6.9851 N   0  0  0  0  0  0  0  0  0  0  0  0
    3.5088   -0.9834    5.0528 C   0  0  0  0  0  3  0  0  0  0  0  0
    3.9967   -1.4008    4.1846 H   0  0  0  0  0  0  0  0  0  0  0  0
    2.2575    0.1131    7.2925 C   0  0  0  0  0  0  0  0  0  0  0  0
    1.7730    0.5601    8.1638 H   0  0  0  0  0  0  0  0  0  0  0  0
    3.1941    0.8880    6.5787 C   0  0  0  0  0  0  0  0  0  0  0  0
    3.8280    0.3345    5.4348 C   0  0  0  0  0  0  0  0  0  0  0  0
    4.3542    2.9002    6.3170 C   0  0  0  0  0  0  0  0  0  0  0  0
    4.5986    4.2571    6.8157 C   0  0  2  0  0  3  0  0  0  0  0  0
    5.5116    5.1420    6.0206 C   0  0  0  0  0  0  0  0  0  0  0  0
    5.9198    5.9142    6.6763 H   0  0  0  0  0  0  0  0  0  0  0  0
    4.9196    5.6409    5.2469 H   0  0  0  0  0  0  0  0  0  0  0  0
    5.0210    2.4147    5.1654 C   0  0  0  0  0  0  0  0  0  0  0  0
    4.7533    1.1384    4.7421 C   0  0  0  0  0  0  0  0  0  0  0  0
    5.2510    0.7372    3.8709 H   0  0  0  0  0  0  0  0  0  0  0  0
    2.6026   -1.7159    5.7691 C   0  0  0  0  0  0  0  0  0  0  0  0
    2.3654   -2.7261    5.4719 H   0  0  0  0  0  0  0  0  0  0  0  0
    1.9714   -1.1634    6.8954 C   0  0  0  0  0  0  0  0  0  0  0  0
    1.2549   -1.7540    7.4448 H   0  0  0  0  0  0  0  0  0  0  0  0
    5.9923    3.2924    4.4330 C   0  0  0  0  0  0  0  0  0  0  0  0
    5.4570    3.8103    3.6299 H   0  0  0  0  0  0  0  0  0  0  0  0
    6.7623    2.6739    3.9685 H   0  0  0  0  0  0  0  0  0  0  0  0
    6.6171    4.3226    5.3656 C   0  0  0  0  0  0  0  0  0  0  0  0
    7.2869    4.9770    4.8060 H   0  0  0  0  0  0  0  0  0  0  0  0
    7.2020    3.8147    6.1354 H   0  0  0  0  0  0  0  0  0  0  0  0
    4.1865    5.8799    8.4677 C   0  0  0  0  0  0  0  0  0  0  0  0
    5.1001    6.0396    9.5186 C   0  0  0  0  0  0  0  0  0  0  0  0
    5.2307    7.2906   10.1010 C   0  0  0  0  0  0  0  0  0  0  0  0
    5.9411    7.4320   10.9010 H   0  0  0  0  0  0  0  0  0  0  0  0
    2.3692    6.7819    6.9336 C   0  0  0  0  0  0  0  0  0  0  0  0
    2.4110    5.7556    6.5569 H   0  0  0  0  0  0  0  0  0  0  0  0
    4.4649    8.3583    9.6728 C   0  0  0  0  0  0  0  0  0  0  0  0
    4.5760    9.3264   10.1384 H   0  0  0  0  0  0  0  0  0  0  0  0
    3.5515    8.1810    8.6520 C   0  0  0  0  0  0  0  0  0  0  0  0
    2.9481    9.0159    8.3299 H   0  0  0  0  0  0  0  0  0  0  0  0
    5.9431    4.8777    9.9915 C   0  0  0  0  0  0  0  0  0  0  0  0
    5.6117    3.9715    9.4755 H   0  0  0  0  0  0  0  0  0  0  0  0
    3.3979    6.9511    8.0281 C   0  0  0  0  0  0  0  0  0  0  0  0
    2.6392    7.7383    5.7693 C   0  0  0  0  0  0  0  0  0  0  0  0
    3.6640    7.6429    5.4142 H   0  0  0  0  0  0  0  0  0  0  0  0
    2.4827    8.7707    6.0717 H   0  0  0  0  0  0  0  0  0  0  0  0
    1.9641    7.5200    4.9447 H   0  0  0  0  0  0  0  0  0  0  0  0
    5.7569    4.6391   11.4903 C   0  0  0  0  0  0  0  0  0  0  0  0
    4.7024    4.5026   11.7160 H   0  0  0  0  0  0  0  0  0  0  0  0
    6.1343    5.4725   12.0781 H   0  0  0  0  0  0  0  0  0  0  0  0
    6.2864    3.7371   11.7872 H   0  0  0  0  0  0  0  0  0  0  0  0
    0.9620    7.0004    7.4930 C   0  0  0  0  0  0  0  0  0  0  0  0
    0.7631    6.2851    8.2862 H   0  0  0  0  0  0  0  0  0  0  0  0
    0.2239    6.8491    6.7089 H   0  0  0  0  0  0  0  0  0  0  0  0
    0.8482    8.0055    7.8921 H   0  0  0  0  0  0  0  0  0  0  0  0
    7.4184    5.1105    9.6574 C   0  0  0  0  0  0  0  0  0  0  0  0
    7.5546    5.2654    8.5881 H   0  0  0  0  0  0  0  0  0  0  0  0
    8.0088    4.2479    9.9580 H   0  0  0  0  0  0  0  0  0  0  0  0
    7.7986    5.9861   10.1793 H   0  0  0  0  0  0  0  0  0  0  0  0
  1  2  1  0  0  0  0
  3  1  1  0  0  0  0
  4 30  1  0  0  0  0
  4  1  1  0  0  0  0
  5  1  1  0  0  0  0
  6 11  1  0  0  0  0
  6 20  1  0  0  0  0
  7  6  1  0  0  0  0
  8  9  1  0  0  0  0
 10  5  1  0  0  0  0
 10  8  2  0  0  0  0
 11 10  1  0  0  0  0
 12  5  1  0  0  0  0
 13 12  1  1  0  0  0
 13  4  1  0  0  0  0
 14 15  1  0  0  0  0
 14 13  1  0  0  0  0
 16 14  1  0  0  0  0
 17 12  2  0  0  0  0
 18 17  1  0  0  0  0
 18 11  2  0  0  0  0
 19 18  1  0  0  0  0
 20 22  2  0  0  0  0
 21 20  1  0  0  0  0
 22  8  1  0  0  0  0
 22 23  1  0  0  0  0
 24 17  1  0  0  0  0
 24 27  1  0  0  0  0
 25 24  1  0  0  0  0
 26 24  1  0  0  0  0
 27 14  1  0  0  0  0
 27 29  1  0  0  0  0
 28 27  1  0  0  0  0
 30 31  1  0  0  0  0
 31 40  1  0  0  0  0
 31 32  2  0  0  0  0
 32 33  1  0  0  0  0
 34 51  1  0  0  0  0
 34 42  1  0  0  0  0
 35 34  1  0  0  0  0
 36 32  1  0  0  0  0
 36 37  1  0  0  0  0
 38 36  2  0  0  0  0
 39 38  1  0  0  0  0
 40 47  1  0  0  0  0
 41 40  1  0  0  0  0
 42 30  2  0  0  0  0
 42 38  1  0  0  0  0
 43 45  1  0  0  0  0
 43 34  1  0  0  0  0
 44 43  1  0  0  0  0
 46 43  1  0  0  0  0
 47 48  1  0  0  0  0
 47 50  1  0  0  0  0
 47 49  1  0  0  0  0
 51 54  1  0  0  0  0
 51 52  1  0  0  0  0
 53 51  1  0  0  0  0
 55 57  1  0  0  0  0
 55 40  1  0  0  0  0
 55 58  1  0  0  0  0
 56 55  1  0  0  0  0
M  END
$$$$
