CSD_code = MOTWOI | q = 0 | S = 0 | Stoichiometry = C20H32Br2N2Ni | MND = 4
 OpenBabel04212202073D

 57 59  0  0  0  0  0  0  0  0999 V2000
    2.4342    2.4161   16.0146 Br  0  0  0  0  0  0  0  0  0  0  0  0
    4.7855    0.2647   15.1494 Br  0  0  0  0  0  0  0  0  0  0  0  0
    4.6057    2.4140   15.4306 Ni  0  0  0  0  0  0  0  0  0  0  0  0
    4.7746    4.2884   15.1575 N   0  0  0  0  0  0  0  0  0  0  0  0
    6.4315    2.8215   16.7157 N   0  0  0  0  0  4  0  0  0  0  0  0
    5.9300    4.7633   15.3787 C   0  0  0  0  0  3  0  0  0  0  0  0
    6.1853    5.7838   15.0881 H   0  0  0  0  0  0  0  0  0  0  0  0
    7.0396    3.9156   15.9402 C   0  0  0  0  0  0  0  0  0  0  0  0
    7.7520    3.3256   14.7073 C   0  0  0  0  0  0  0  0  0  0  0  0
    7.1093    2.5921   14.2167 H   0  0  0  0  0  0  0  0  0  0  0  0
    8.6810    2.8401   14.9940 H   0  0  0  0  0  0  0  0  0  0  0  0
    7.9814    4.1135   13.9921 H   0  0  0  0  0  0  0  0  0  0  0  0
    8.0175    4.8060   16.7217 C   0  0  0  0  0  0  0  0  0  0  0  0
    7.4979    5.4085   17.4639 H   0  0  0  0  0  0  0  0  0  0  0  0
    8.5245    5.4776   16.0329 H   0  0  0  0  0  0  0  0  0  0  0  0
    8.7724    4.2056   17.2230 H   0  0  0  0  0  0  0  0  0  0  0  0
    5.8607    3.2100   18.0150 C   0  0  0  0  0  0  0  0  0  0  0  0
    5.0186    3.8966   17.9042 H   0  0  0  0  0  0  0  0  0  0  0  0
    6.6224    3.6738   18.6569 H   0  0  0  0  0  0  0  0  0  0  0  0
    7.3299    1.7092   17.0625 C   0  0  0  0  0  0  0  0  0  0  0  0
    8.2995    2.0884   17.4113 H   0  0  0  0  0  0  0  0  0  0  0  0
    7.4964    1.0662   16.1984 H   0  0  0  0  0  0  0  0  0  0  0  0
    5.4494    1.8619   18.5941 C   0  0  0  0  0  0  0  0  0  0  0  0
    5.2845    1.9034   19.6681 H   0  0  0  0  0  0  0  0  0  0  0  0
    4.5248    1.5257   18.1159 H   0  0  0  0  0  0  0  0  0  0  0  0
    6.6194    0.9513   18.1971 C   0  0  0  0  0  0  0  0  0  0  0  0
    6.2628   -0.0181   17.8559 H   0  0  0  0  0  0  0  0  0  0  0  0
    7.2989    0.7916   19.0333 H   0  0  0  0  0  0  0  0  0  0  0  0
    3.7642    5.0916   14.5931 C   0  0  0  0  0  0  0  0  0  0  0  0
    3.2853    6.2139   15.2812 C   0  0  0  0  0  0  0  0  0  0  0  0
    2.2799    6.9623   14.6846 C   0  0  0  0  0  0  0  0  0  0  0  0
    1.8819    7.8203   15.2029 H   0  0  0  0  0  0  0  0  0  0  0  0
    1.7794    6.6287   13.4424 C   0  0  0  0  0  0  0  0  0  0  0  0
    1.0090    7.2350   12.9908 H   0  0  0  0  0  0  0  0  0  0  0  0
    2.2480    5.5064   12.7859 C   0  0  0  0  0  0  0  0  0  0  0  0
    1.8383    5.2435   11.8243 H   0  0  0  0  0  0  0  0  0  0  0  0
    3.2275    4.7088   13.3546 C   0  0  0  0  0  0  0  0  0  0  0  0
    3.7466    6.5697   16.6759 C   0  0  0  0  0  0  0  0  0  0  0  0
    4.6059    5.9487   16.9516 H   0  0  0  0  0  0  0  0  0  0  0  0
    3.7310    3.4793   12.6310 C   0  0  0  0  0  0  0  0  0  0  0  0
    4.2335    2.8038   13.3630 H   0  0  0  0  0  0  0  0  0  0  0  0
    4.1950    8.0291   16.7741 C   0  0  0  0  0  0  0  0  0  0  0  0
    4.9606    8.2495   16.0318 H   0  0  0  0  0  0  0  0  0  0  0  0
    4.6055    8.2252   17.7625 H   0  0  0  0  0  0  0  0  0  0  0  0
    3.3615    8.7072   16.6151 H   0  0  0  0  0  0  0  0  0  0  0  0
    2.6201    6.2649   17.6679 C   0  0  0  0  0  0  0  0  0  0  0  0
    2.3145    5.2241   17.5826 H   0  0  0  0  0  0  0  0  0  0  0  0
    1.7535    6.8892   17.4684 H   0  0  0  0  0  0  0  0  0  0  0  0
    2.9545    6.4507   18.6866 H   0  0  0  0  0  0  0  0  0  0  0  0
    4.7725    3.8807   11.5843 C   0  0  0  0  0  0  0  0  0  0  0  0
    5.6018    4.4177   12.0441 H   0  0  0  0  0  0  0  0  0  0  0  0
    4.3211    4.5293   10.8363 H   0  0  0  0  0  0  0  0  0  0  0  0
    5.1662    2.9979   11.0851 H   0  0  0  0  0  0  0  0  0  0  0  0
    2.6000    2.6654   12.0048 C   0  0  0  0  0  0  0  0  0  0  0  0
    1.8218    2.4784   12.7411 H   0  0  0  0  0  0  0  0  0  0  0  0
    2.9851    1.7074   11.6619 H   0  0  0  0  0  0  0  0  0  0  0  0
    2.1634    3.1786   11.1520 H   0  0  0  0  0  0  0  0  0  0  0  0
  2  3  1  0  0  0  0
  3  1  1  0  0  0  0
  3  5  1  0  0  0  0
  4  6  1  0  0  0  0
  4  3  1  0  0  0  0
  5 20  1  0  0  0  0
  5 17  1  0  0  0  0
  6  8  1  0  0  0  0
  7  6  1  0  0  0  0
  8  5  1  0  0  0  0
  8 13  1  0  0  0  0
  9 11  1  0  0  0  0
  9  8  1  0  0  0  0
 10  9  1  0  0  0  0
 12  9  1  0  0  0  0
 13 16  1  0  0  0  0
 13 14  1  0  0  0  0
 15 13  1  0  0  0  0
 17 23  1  0  0  0  0
 17 19  1  0  0  0  0
 18 17  1  0  0  0  0
 20 21  1  0  0  0  0
 20 26  1  0  0  0  0
 22 20  1  0  0  0  0
 23 24  1  0  0  0  0
 25 23  1  0  0  0  0
 26 23  1  0  0  0  0
 26 28  1  0  0  0  0
 27 26  1  0  0  0  0
 29  4  1  0  0  0  0
 29 30  1  0  0  0  0
 30 38  1  0  0  0  0
 31 32  1  0  0  0  0
 31 30  2  0  0  0  0
 33 31  1  0  0  0  0
 34 33  1  0  0  0  0
 35 37  1  0  0  0  0
 35 33  2  0  0  0  0
 36 35  1  0  0  0  0
 37 29  2  0  0  0  0
 38 42  1  0  0  0  0
 38 39  1  0  0  0  0
 38 46  1  0  0  0  0
 40 37  1  0  0  0  0
 40 41  1  0  0  0  0
 42 44  1  0  0  0  0
 43 42  1  0  0  0  0
 45 42  1  0  0  0  0
 46 49  1  0  0  0  0
 47 46  1  0  0  0  0
 48 46  1  0  0  0  0
 50 51  1  0  0  0  0
 50 40  1  0  0  0  0
 52 50  1  0  0  0  0
 53 50  1  0  0  0  0
 54 40  1  0  0  0  0
 54 55  1  0  0  0  0
 56 54  1  0  0  0  0
 57 54  1  0  0  0  0
M  END
$$$$
