CSD_code = MOWDEI | q = 0 | S = 0 | Stoichiometry = C23H24Br2N2OPtS | MND = 4
 OpenBabel04212202073D

 54 57  0  0  0  0  0  0  0  0999 V2000
    4.7919    4.7130   20.2589 Pt  0  0  0  0  0  0  0  0  0  0  0  0
    4.7891    4.0198   17.9459 Br  0  0  0  0  0  0  0  0  0  0  0  0
    6.6612    3.3150   20.8944 Br  0  0  0  0  0  0  0  0  0  0  0  0
    3.9206    6.5082   22.7062 O   0  0  0  0  0  1  0  0  0  0  0  0
    4.9907    5.5709   22.3692 S   0  0  0  0  0  0  0  0  0  0  0  0
    2.0181    5.9057   20.2749 N   0  0  0  0  0  0  0  0  0  0  0  0
    3.4452    7.1604   19.2201 N   0  0  0  0  0  0  0  0  0  0  0  0
    3.2961    5.9971   19.8710 C   0  0  0  0  0  0  0  0  0  0  0  0
    1.3308    7.0381   19.8985 C   0  0  0  0  0  0  0  0  0  0  0  0
    0.0174    7.4470   20.0762 C   0  0  0  0  0  0  0  0  0  0  0  0
   -0.7015    6.8412   20.6049 H   0  0  0  0  0  0  0  0  0  0  0  0
   -0.3369    8.6751   19.5519 C   0  0  0  0  0  0  0  0  0  0  0  0
   -1.3503    9.0260   19.6719 H   0  0  0  0  0  0  0  0  0  0  0  0
    0.5814    9.4769   18.8749 C   0  0  0  0  0  0  0  0  0  0  0  0
    0.2589   10.4302   18.4861 H   0  0  0  0  0  0  0  0  0  0  0  0
    1.8922    9.0809   18.6947 C   0  0  0  0  0  0  0  0  0  0  0  0
    2.6053    9.7044   18.1800 H   0  0  0  0  0  0  0  0  0  0  0  0
    2.2533    7.8478   19.2149 C   0  0  0  0  0  0  0  0  0  0  0  0
    1.4649    4.7981   21.0283 C   0  0  0  0  0  0  0  0  0  0  0  0
    0.3781    4.8337   20.9201 H   0  0  0  0  0  0  0  0  0  0  0  0
    1.7208    4.9303   22.0861 H   0  0  0  0  0  0  0  0  0  0  0  0
    1.9995    3.4878   20.5064 C   0  0  0  0  0  0  0  0  0  0  0  0
    1.6110    3.0316   19.2521 C   0  0  0  0  0  0  0  0  0  0  0  0
    0.9105    3.6097   18.6664 H   0  0  0  0  0  0  0  0  0  0  0  0
    2.1361    1.8575   18.7420 C   0  0  0  0  0  0  0  0  0  0  0  0
    1.8435    1.5239   17.7587 H   0  0  0  0  0  0  0  0  0  0  0  0
    3.0502    1.1249   19.4802 C   0  0  0  0  0  0  0  0  0  0  0  0
    3.4735    0.2204   19.0723 H   0  0  0  0  0  0  0  0  0  0  0  0
    3.4327    1.5604   20.7375 C   0  0  0  0  0  0  0  0  0  0  0  0
    4.1440    0.9910   21.3165 H   0  0  0  0  0  0  0  0  0  0  0  0
    2.9147    2.7425   21.2492 C   0  0  0  0  0  0  0  0  0  0  0  0
    3.1640    3.0515   22.2567 H   0  0  0  0  0  0  0  0  0  0  0  0
    4.6717    7.6558   18.6493 C   0  0  0  0  0  0  0  0  0  0  0  0
    4.5230    7.8303   17.5788 H   0  0  0  0  0  0  0  0  0  0  0  0
    5.4310    6.8657   18.7531 H   0  0  0  0  0  0  0  0  0  0  0  0
    5.1459    8.9173   19.3264 C   0  0  0  0  0  0  0  0  0  0  0  0
    5.8682    9.8576   18.6027 C   0  0  0  0  0  0  0  0  0  0  0  0
    6.0720    9.6825   17.5562 H   0  0  0  0  0  0  0  0  0  0  0  0
    6.3289   11.0095   19.2145 C   0  0  0  0  0  0  0  0  0  0  0  0
    6.8896   11.7332   18.6421 H   0  0  0  0  0  0  0  0  0  0  0  0
    6.0677   11.2358   20.5555 C   0  0  0  0  0  0  0  0  0  0  0  0
    6.4236   12.1366   21.0325 H   0  0  0  0  0  0  0  0  0  0  0  0
    5.3481   10.3027   21.2814 C   0  0  0  0  0  0  0  0  0  0  0  0
    5.1401   10.4710   22.3276 H   0  0  0  0  0  0  0  0  0  0  0  0
    4.8896    9.1471   20.6727 C   0  0  0  0  0  0  0  0  0  0  0  0
    4.3299    8.4286   21.2548 H   0  0  0  0  0  0  0  0  0  0  0  0
    5.2336    4.5218   23.8430 C   0  0  0  0  0  0  0  0  0  0  0  0
    5.5069    5.1728   24.6643 H   0  0  0  0  0  0  0  0  0  0  0  0
    6.0113    3.7972   23.6319 H   0  0  0  0  0  0  0  0  0  0  0  0
    4.2959    4.0241   24.0647 H   0  0  0  0  0  0  0  0  0  0  0  0
    6.5544    6.4957   22.4846 C   0  0  0  0  0  0  0  0  0  0  0  0
    6.6026    7.1956   21.6550 H   0  0  0  0  0  0  0  0  0  0  0  0
    7.3747    5.7887   22.4317 H   0  0  0  0  0  0  0  0  0  0  0  0
    6.5569    7.0377   23.4232 H   0  0  0  0  0  0  0  0  0  0  0  0
  1  3  1  0  0  0  0
  1  5  1  0  0  0  0
  2  1  1  0  0  0  0
  5 51  1  0  0  0  0
  5  4  1  0  0  0  0
  5 47  1  0  0  0  0
  6 19  1  0  0  0  0
  7  8  1  0  0  0  0
  8  1  2  0  0  0  0
  8  6  1  0  0  0  0
  9 10  1  0  0  0  0
  9  6  1  0  0  0  0
 10 11  1  0  0  0  0
 12 13  1  0  0  0  0
 12 10  2  0  0  0  0
 14 12  1  0  0  0  0
 15 14  1  0  0  0  0
 16 14  2  0  0  0  0
 16 18  1  0  0  0  0
 17 16  1  0  0  0  0
 18  7  1  0  0  0  0
 18  9  2  0  0  0  0
 19 21  1  0  0  0  0
 20 19  1  0  0  0  0
 22 19  1  0  0  0  0
 22 31  1  0  0  0  0
 23 22  2  0  0  0  0
 24 23  1  0  0  0  0
 25 23  1  0  0  0  0
 25 27  2  0  0  0  0
 26 25  1  0  0  0  0
 27 29  1  0  0  0  0
 28 27  1  0  0  0  0
 29 31  2  0  0  0  0
 29 30  1  0  0  0  0
 31 32  1  0  0  0  0
 33 35  1  0  0  0  0
 33  7  1  0  0  0  0
 33 36  1  0  0  0  0
 34 33  1  0  0  0  0
 36 45  1  0  0  0  0
 37 39  1  0  0  0  0
 37 36  2  0  0  0  0
 38 37  1  0  0  0  0
 39 41  2  0  0  0  0
 40 39  1  0  0  0  0
 41 42  1  0  0  0  0
 41 43  1  0  0  0  0
 43 44  1  0  0  0  0
 45 46  1  0  0  0  0
 45 43  2  0  0  0  0
 47 50  1  0  0  0  0
 47 48  1  0  0  0  0
 49 47  1  0  0  0  0
 51 54  1  0  0  0  0
 52 51  1  0  0  0  0
 53 51  1  0  0  0  0
M  END
$$$$
