CSD_code = MOWDOS | q = 0 | S = 0 | Stoichiometry = C11H22Br2N2OPtS | MND = 4
 OpenBabel04212202073D

 40 40  0  0  0  0  0  0  0  0999 V2000
   10.3845    3.7905    3.2947 Pt  0  0  0  0  0  0  0  0  0  0  0  0
   12.7977    3.7307    3.4481 Br  0  0  0  0  0  0  0  0  0  0  0  0
   10.2176    6.1940    3.3498 Br  0  0  0  0  0  0  0  0  0  0  0  0
   10.5638    1.5253    3.0889 S   0  0  0  0  0  0  0  0  0  0  0  0
    9.2738    0.8613    2.9198 O   0  0  0  0  0  1  0  0  0  0  0  0
    7.6827    3.3548    2.0434 N   0  0  0  0  0  0  0  0  0  0  0  0
    7.4777    3.7849    4.1383 N   0  0  0  0  0  0  0  0  0  0  0  0
    8.3725    3.6719    3.1463 C   0  0  0  0  0  0  0  0  0  0  0  0
    6.3533    3.2464    2.3429 C   0  0  0  0  0  0  0  0  0  0  0  0
    5.6177    2.9955    1.6073 H   0  0  0  0  0  0  0  0  0  0  0  0
    6.2253    3.5174    3.6641 C   0  0  0  0  0  0  0  0  0  0  0  0
    5.3560    3.5485    4.2875 H   0  0  0  0  0  0  0  0  0  0  0  0
    8.2586    3.1351    0.7460 C   0  0  0  0  0  0  0  0  0  0  0  0
    9.2009    3.6841    0.6776 H   0  0  0  0  0  0  0  0  0  0  0  0
    7.5805    3.4952   -0.0266 H   0  0  0  0  0  0  0  0  0  0  0  0
    8.4461    2.0694    0.5962 H   0  0  0  0  0  0  0  0  0  0  0  0
    7.8203    4.1154    5.4994 C   0  0  0  0  0  0  0  0  0  0  0  0
    6.9262    4.4891    6.0014 H   0  0  0  0  0  0  0  0  0  0  0  0
    8.5602    4.9207    5.4679 H   0  0  0  0  0  0  0  0  0  0  0  0
    8.3971    2.9043    6.2452 C   0  0  0  0  0  0  0  0  0  0  0  0
    8.9345    2.2754    5.5283 H   0  0  0  0  0  0  0  0  0  0  0  0
    7.5812    2.3067    6.6562 H   0  0  0  0  0  0  0  0  0  0  0  0
    9.3589    3.3269    7.3641 C   0  0  0  0  0  0  0  0  0  0  0  0
    8.9406    4.2100    7.8588 H   0  0  0  0  0  0  0  0  0  0  0  0
   10.7323    3.6795    6.7976 C   0  0  0  0  0  0  0  0  0  0  0  0
   11.3307    4.2092    7.5337 H   0  0  0  0  0  0  0  0  0  0  0  0
   10.6507    4.3220    5.9173 H   0  0  0  0  0  0  0  0  0  0  0  0
   11.2702    2.7758    6.5184 H   0  0  0  0  0  0  0  0  0  0  0  0
    9.4918    2.2129    8.4008 C   0  0  0  0  0  0  0  0  0  0  0  0
    9.8378    1.2936    7.9318 H   0  0  0  0  0  0  0  0  0  0  0  0
    8.5369    2.0132    8.8819 H   0  0  0  0  0  0  0  0  0  0  0  0
   10.2087    2.4948    9.1676 H   0  0  0  0  0  0  0  0  0  0  0  0
   11.4660    0.5871    4.3655 C   0  0  0  0  0  0  0  0  0  0  0  0
   10.8892    0.6300    5.2832 H   0  0  0  0  0  0  0  0  0  0  0  0
   12.4426    1.0365    4.5040 H   0  0  0  0  0  0  0  0  0  0  0  0
   11.5448   -0.4388    4.0268 H   0  0  0  0  0  0  0  0  0  0  0  0
   11.5846    1.0274    1.6638 C   0  0  0  0  0  0  0  0  0  0  0  0
   11.4649   -0.0421    1.5359 H   0  0  0  0  0  0  0  0  0  0  0  0
   12.6165    1.2933    1.8605 H   0  0  0  0  0  0  0  0  0  0  0  0
   11.2261    1.5500    0.7826 H   0  0  0  0  0  0  0  0  0  0  0  0
  1  3  1  0  0  0  0
  1  2  1  0  0  0  0
  4  1  1  0  0  0  0
  4 33  1  0  0  0  0
  5  4  1  0  0  0  0
  6  9  1  0  0  0  0
  6  8  1  0  0  0  0
  7 17  1  0  0  0  0
  8  1  2  0  0  0  0
  8  7  1  0  0  0  0
  9 11  2  0  0  0  0
 10  9  1  0  0  0  0
 11  7  1  0  0  0  0
 11 12  1  0  0  0  0
 13  6  1  0  0  0  0
 14 13  1  0  0  0  0
 15 13  1  0  0  0  0
 16 13  1  0  0  0  0
 17 18  1  0  0  0  0
 17 20  1  0  0  0  0
 19 17  1  0  0  0  0
 20 22  1  0  0  0  0
 20 23  1  0  0  0  0
 21 20  1  0  0  0  0
 23 24  1  0  0  0  0
 23 29  1  0  0  0  0
 25 23  1  0  0  0  0
 25 26  1  0  0  0  0
 27 25  1  0  0  0  0
 28 25  1  0  0  0  0
 29 31  1  0  0  0  0
 29 32  1  0  0  0  0
 30 29  1  0  0  0  0
 33 35  1  0  0  0  0
 33 34  1  0  0  0  0
 36 33  1  0  0  0  0
 37 39  1  0  0  0  0
 37  4  1  0  0  0  0
 38 37  1  0  0  0  0
 40 37  1  0  0  0  0
M  END
$$$$
