CSD_code = MOWFAG | q = 0 | S = 0 | Stoichiometry = C21H20Br2N4Pt | MND = 4
 OpenBabel04212202073D

 48 52  0  0  1  0  0  0  0  0999 V2000
    5.8470    3.2046   15.1953 Pt  0  0  0  0  0  0  0  0  0  0  0  0
    7.8643    1.9916   14.4975 Br  0  0  0  0  0  0  0  0  0  0  0  0
    4.4080    1.2882   14.7794 Br  0  0  0  0  0  0  0  0  0  0  0  0
    7.9259    5.0786   16.4275 N   0  0  0  0  0  0  0  0  0  0  0  0
    6.6478    6.0094   14.9655 N   0  0  0  0  0  0  0  0  0  0  0  0
    4.3364    5.6520   14.7462 N   0  0  0  0  0  0  0  0  0  0  0  0
    3.0633    4.3965   15.9435 N   0  0  0  0  0  0  0  0  0  0  0  0
    6.9375    4.8287   15.5581 C   0  0  0  0  0  0  0  0  0  0  0  0
    8.2624    6.4043   16.3813 C   0  0  0  0  0  0  0  0  0  0  0  0
    9.0408    6.8197   16.9878 H   0  0  0  0  0  0  0  0  0  0  0  0
    7.4590    6.9973   15.4668 C   0  0  0  0  0  0  0  0  0  0  0  0
    7.4098    8.0117   15.1293 H   0  0  0  0  0  0  0  0  0  0  0  0
    5.5236    6.1278   14.0741 C   0  0  0  0  0  0  0  0  0  0  0  0
    5.3853    7.1719   13.7813 H   0  0  0  0  0  0  0  0  0  0  0  0
    5.7070    5.5139   13.1775 H   0  0  0  0  0  0  0  0  0  0  0  0
    4.2801    4.4536   15.3857 C   0  0  1  0  0  3  0  0  0  0  0  0
    3.1527    6.3276   14.9052 C   0  0  0  0  0  0  0  0  0  0  0  0
    2.9769    7.2903   14.4717 H   0  0  0  0  0  0  0  0  0  0  0  0
    2.3534    5.5320   15.6508 C   0  0  0  0  0  0  0  0  0  0  0  0
    1.3525    5.6812   15.9991 H   0  0  0  0  0  0  0  0  0  0  0  0
    8.4138    4.0946   17.3743 C   0  0  0  0  0  0  0  0  0  0  0  0
    8.8766    3.2702   16.8247 H   0  0  0  0  0  0  0  0  0  0  0  0
    9.1603    4.5730   18.0116 H   0  0  0  0  0  0  0  0  0  0  0  0
    7.2378    3.5937   18.1829 C   0  0  0  0  0  0  0  0  0  0  0  0
    6.6760    2.3431   17.9330 C   0  0  0  0  0  0  0  0  0  0  0  0
    7.1623    1.6480   17.2625 H   0  0  0  0  0  0  0  0  0  0  0  0
    5.5457    1.9383   18.6312 C   0  0  0  0  0  0  0  0  0  0  0  0
    5.1218    0.9648   18.4360 H   0  0  0  0  0  0  0  0  0  0  0  0
    4.9709    2.7734   19.5737 C   0  0  0  0  0  0  0  0  0  0  0  0
    4.0893    2.4603   20.1131 H   0  0  0  0  0  0  0  0  0  0  0  0
    5.5351    4.0113   19.8332 C   0  0  0  0  0  0  0  0  0  0  0  0
    5.0993    4.6567   20.5813 H   0  0  0  0  0  0  0  0  0  0  0  0
    6.6556    4.4230   19.1336 C   0  0  0  0  0  0  0  0  0  0  0  0
    7.0874    5.3952   19.3323 H   0  0  0  0  0  0  0  0  0  0  0  0
    2.5694    3.3427   16.7944 C   0  0  0  0  0  0  0  0  0  0  0  0
    3.3967    2.6439   16.9649 H   0  0  0  0  0  0  0  0  0  0  0  0
    1.7792    2.7948   16.2716 H   0  0  0  0  0  0  0  0  0  0  0  0
    2.0664    3.8638   18.1135 C   0  0  0  0  0  0  0  0  0  0  0  0
    1.0212    3.2138   18.7571 C   0  0  0  0  0  0  0  0  0  0  0  0
    0.5664    2.3510   18.2932 H   0  0  0  0  0  0  0  0  0  0  0  0
    0.5682    3.6590   19.9861 C   0  0  0  0  0  0  0  0  0  0  0  0
   -0.2428    3.1431   20.4780 H   0  0  0  0  0  0  0  0  0  0  0  0
    1.1489    4.7661   20.5816 C   0  0  0  0  0  0  0  0  0  0  0  0
    0.7921    5.1176   21.5380 H   0  0  0  0  0  0  0  0  0  0  0  0
    2.1906    5.4188   19.9458 C   0  0  0  0  0  0  0  0  0  0  0  0
    2.6494    6.2819   20.4058 H   0  0  0  0  0  0  0  0  0  0  0  0
    2.6516    4.9668   18.7220 C   0  0  0  0  0  0  0  0  0  0  0  0
    3.4777    5.4731   18.2427 H   0  0  0  0  0  0  0  0  0  0  0  0
  1 16  1  0  0  0  0
  1  8  2  0  0  0  0
  2  1  1  0  0  0  0
  3  1  1  0  0  0  0
  4 21  1  0  0  0  0
  5 11  1  0  0  0  0
  5  8  1  0  0  0  0
  6 17  1  0  0  0  0
  7 35  1  0  0  0  0
  8  4  1  0  0  0  0
  9  4  1  0  0  0  0
  9 10  1  0  0  0  0
 11  9  2  0  0  0  0
 12 11  1  0  0  0  0
 13  6  1  0  0  0  0
 13  5  1  0  0  0  0
 14 13  1  0  0  0  0
 15 13  1  0  0  0  0
 16  6  1  6  0  0  0
 16  7  1  0  0  0  0
 17 19  2  0  0  0  0
 18 17  1  0  0  0  0
 19  7  1  0  0  0  0
 19 20  1  0  0  0  0
 21 23  1  0  0  0  0
 21 24  1  0  0  0  0
 22 21  1  0  0  0  0
 24 33  1  0  0  0  0
 25 24  2  0  0  0  0
 25 27  1  0  0  0  0
 26 25  1  0  0  0  0
 27 29  2  0  0  0  0
 28 27  1  0  0  0  0
 29 31  1  0  0  0  0
 29 30  1  0  0  0  0
 31 32  1  0  0  0  0
 33 34  1  0  0  0  0
 33 31  2  0  0  0  0
 35 36  1  0  0  0  0
 35 38  1  0  0  0  0
 37 35  1  0  0  0  0
 38 47  2  0  0  0  0
 38 39  1  0  0  0  0
 39 41  2  0  0  0  0
 40 39  1  0  0  0  0
 41 42  1  0  0  0  0
 41 43  1  0  0  0  0
 43 44  1  0  0  0  0
 45 46  1  0  0  0  0
 45 43  2  0  0  0  0
 47 45  1  0  0  0  0
 48 47  1  0  0  0  0
M  END
$$$$
