CSD_code = MOWGIO | q = 0 | S = 0 | Stoichiometry = C18H18I2N2Zr | MND = 9
 OpenBabel04212202073D

 41 41  0  0  0  0  0  0  0  0999 V2000
    2.5547   13.5615   -0.1365 Zr  0  0  0  0  0  0  0  0  0  0  0  0
    0.8897   11.4492    0.7318 I   0  0  0  0  0 15  0  0  0  0  0  0
    3.3681   13.5503   -2.0357 N   0  0  0  0  0  0  0  0  0  0  0  0
    3.9333   13.6285    1.2901 N   0  0  0  0  0  0  0  0  0  0  0  0
    2.6062   12.4443   -2.3665 C   0  0  0  0  0  0  0  0  0  0  0  0
    1.3789   12.8440   -2.8991 C   0  0  0  0  0  0  0  0  0  0  0  0
    3.0760   11.0889   -2.0834 C   0  0  0  0  0  0  0  0  0  0  0  0
    3.9995   10.8691   -1.0525 C   0  0  0  0  0  0  0  0  0  0  0  0
    4.4080    9.5861   -0.7395 C   0  0  0  0  0  0  0  0  0  0  0  0
    3.9019    8.5030   -1.4410 C   0  0  0  0  0  0  0  0  0  0  0  0
    2.9923    8.7105   -2.4644 C   0  0  0  0  0  0  0  0  0  0  0  0
    2.5819    9.9901   -2.7873 C   0  0  0  0  0  0  0  0  0  0  0  0
    5.3739   13.4813    1.2278 C   0  0  0  0  0  0  0  0  0  0  0  0
    3.4672   13.4981    2.6605 C   0  0  0  0  0  0  0  0  0  0  0  0
    0.5881   12.2038   -3.2511 H   0  0  0  0  0  0  0  0  0  0  0  0
    4.3996   11.7208   -0.4957 H   0  0  0  0  0  0  0  0  0  0  0  0
    5.1152    9.4277    0.0617 H   0  0  0  0  0  0  0  0  0  0  0  0
    4.2136    7.5019   -1.1869 H   0  0  0  0  0  0  0  0  0  0  0  0
    2.5965    7.8696   -3.0131 H   0  0  0  0  0  0  0  0  0  0  0  0
    1.8757   10.1452   -3.5890 H   0  0  0  0  0  0  0  0  0  0  0  0
    5.6953   12.5034    1.6295 H   0  0  0  0  0  0  0  0  0  0  0  0
    5.7372   13.5727    0.1959 H   0  0  0  0  0  0  0  0  0  0  0  0
    2.3899   13.7002    2.7313 H   0  0  0  0  0  0  0  0  0  0  0  0
    3.6591   12.4847    3.0554 H   0  0  0  0  0  0  0  0  0  0  0  0
    0.7678   15.6143    0.6309 I   0  0  0  0  0 15  0  0  0  0  0  0
    5.8699   14.2569    1.8344 H   0  0  0  0  0  0  0  0  0  0  0  0
    3.9868   14.2129    3.3167 H   0  0  0  0  0  0  0  0  0  0  0  0
    2.6094   14.6520   -2.3845 C   0  0  0  0  0  0  0  0  0  0  0  0
    1.3821   14.2473   -2.9125 C   0  0  0  0  0  0  0  0  0  0  0  0
    0.5927   14.8845   -3.2728 H   0  0  0  0  0  0  0  0  0  0  0  0
    3.0714   16.0123   -2.1099 C   0  0  0  0  0  0  0  0  0  0  0  0
    3.9609   16.2553   -1.0545 C   0  0  0  0  0  0  0  0  0  0  0  0
    4.3539   17.5466   -0.7543 C   0  0  0  0  0  0  0  0  0  0  0  0
    3.8667   18.6140   -1.4923 C   0  0  0  0  0  0  0  0  0  0  0  0
    2.9902   18.3832   -2.5394 C   0  0  0  0  0  0  0  0  0  0  0  0
    2.5953   17.0957   -2.8496 C   0  0  0  0  0  0  0  0  0  0  0  0
    1.9152   16.9216   -3.6698 H   0  0  0  0  0  0  0  0  0  0  0  0
    2.6081   19.2117   -3.1161 H   0  0  0  0  0  0  0  0  0  0  0  0
    4.1665   19.6211   -1.2477 H   0  0  0  0  0  0  0  0  0  0  0  0
    5.0339   17.7227    0.0664 H   0  0  0  0  0  0  0  0  0  0  0  0
    4.3457   15.4195   -0.4617 H   0  0  0  0  0  0  0  0  0  0  0  0
  1  4  1  0  0  0  0
  3  1  1  0  0  0  0
  4 14  1  0  0  0  0
  5  7  1  0  0  0  0
  5  3  1  0  0  0  0
  6  5  2  0  0  0  0
  7  8  1  0  0  0  0
  8  9  2  0  0  0  0
  8 16  1  0  0  0  0
  9 17  1  0  0  0  0
 10 18  1  0  0  0  0
 10  9  1  0  0  0  0
 11 10  2  0  0  0  0
 12 11  1  0  0  0  0
 12  7  2  0  0  0  0
 13  4  1  0  0  0  0
 13 21  1  0  0  0  0
 13 26  1  0  0  0  0
 14 23  1  0  0  0  0
 14 24  1  0  0  0  0
 14 27  1  0  0  0  0
 15  6  1  0  0  0  0
 19 11  1  0  0  0  0
 20 12  1  0  0  0  0
 22 13  1  0  0  0  0
 28 31  1  0  0  0  0
 28  3  1  0  0  0  0
 29  6  1  0  0  0  0
 29 28  2  0  0  0  0
 30 29  1  0  0  0  0
 31 32  1  0  0  0  0
 32 33  2  0  0  0  0
 32 41  1  0  0  0  0
 33 40  1  0  0  0  0
 34 39  1  0  0  0  0
 34 33  1  0  0  0  0
 35 34  2  0  0  0  0
 36 35  1  0  0  0  0
 36 31  2  0  0  0  0
 37 36  1  0  0  0  0
 38 35  1  0  0  0  0
M  END
$$$$
