CSD_code = MOWGIQ | q = 0 | S = 0 | Stoichiometry = C15H28ClCuN2 | MND = 2
 OpenBabel04212202073D

 47 47  0  0  1  0  0  0  0  0999 V2000
    5.8928    8.0553    5.2940 Cu  0  0  0  0  0  0  0  0  0  0  0  0
    6.4317    6.1644    5.9577 Cl  0  0  0  0  0  0  0  0  0  0  0  0
    3.9741   10.6715    2.7126 N   0  0  0  0  0  0  0  0  0  0  0  0
    5.8781   12.1935    5.5192 N   0  0  0  0  0  0  0  0  0  0  0  0
    5.4050    9.7551    4.7008 C   0  0  2  0  0  3  0  0  0  0  0  0
    4.7308   10.5869    3.7874 C   0  0  0  0  0  0  0  0  0  0  0  0
    5.4419   11.1555    4.8357 C   0  0  0  0  0  0  0  0  0  0  0  0
    3.5925    9.4268    2.0388 C   0  0  0  0  0  0  0  0  0  0  0  0
    2.7520    8.5495    2.9636 C   0  0  0  0  0  0  0  0  0  0  0  0
    4.8294    8.6768    1.5492 C   0  0  0  0  0  0  0  0  0  0  0  0
    3.5335   11.9525    2.1784 C   0  0  0  0  0  0  0  0  0  0  0  0
    2.0081   12.0608    2.1687 C   0  0  0  0  0  0  0  0  0  0  0  0
    4.1284   12.2127    0.7938 C   0  0  0  0  0  0  0  0  0  0  0  0
    5.5611   13.5609    5.1315 C   0  0  0  0  0  0  0  0  0  0  0  0
    4.7072   14.2567    6.1926 C   0  0  0  0  0  0  0  0  0  0  0  0
    6.8248   14.3594    4.8091 C   0  0  0  0  0  0  0  0  0  0  0  0
    6.6986   11.9408    6.7074 C   0  0  0  0  0  0  0  0  0  0  0  0
    5.9172   11.1345    7.7423 C   0  0  0  0  0  0  0  0  0  0  0  0
    7.9945   11.2293    6.3252 C   0  0  0  0  0  0  0  0  0  0  0  0
    2.9874    9.7124    1.1744 H   0  0  0  0  0  0  0  0  0  0  0  0
    3.3475    8.2207    3.8122 H   0  0  0  0  0  0  0  0  0  0  0  0
    2.4058    7.6722    2.4244 H   0  0  0  0  0  0  0  0  0  0  0  0
    1.8863    9.0952    3.3320 H   0  0  0  0  0  0  0  0  0  0  0  0
    5.4265    8.3444    2.3953 H   0  0  0  0  0  0  0  0  0  0  0  0
    5.4419    9.3144    0.9155 H   0  0  0  0  0  0  0  0  0  0  0  0
    4.5275    7.8046    0.9762 H   0  0  0  0  0  0  0  0  0  0  0  0
    3.9178   12.7169    2.8617 H   0  0  0  0  0  0  0  0  0  0  0  0
    1.5640   11.3685    1.4587 H   0  0  0  0  0  0  0  0  0  0  0  0
    1.7153   13.0691    1.8878 H   0  0  0  0  0  0  0  0  0  0  0  0
    1.6093   11.8475    3.1578 H   0  0  0  0  0  0  0  0  0  0  0  0
    3.7477   11.5063    0.0611 H   0  0  0  0  0  0  0  0  0  0  0  0
    5.2123   12.1268    0.8278 H   0  0  0  0  0  0  0  0  0  0  0  0
    3.8706   13.2162    0.4654 H   0  0  0  0  0  0  0  0  0  0  0  0
    4.9685   13.4887    4.2136 H   0  0  0  0  0  0  0  0  0  0  0  0
    5.2616   14.3970    7.1165 H   0  0  0  0  0  0  0  0  0  0  0  0
    3.8190   13.6665    6.4072 H   0  0  0  0  0  0  0  0  0  0  0  0
    4.3953   15.2331    5.8310 H   0  0  0  0  0  0  0  0  0  0  0  0
    7.4235   13.8337    4.0686 H   0  0  0  0  0  0  0  0  0  0  0  0
    7.4317   14.5196    5.6960 H   0  0  0  0  0  0  0  0  0  0  0  0
    6.5503   15.3306    4.4056 H   0  0  0  0  0  0  0  0  0  0  0  0
    6.9424   12.9182    7.1320 H   0  0  0  0  0  0  0  0  0  0  0  0
    5.7064   10.1378    7.3612 H   0  0  0  0  0  0  0  0  0  0  0  0
    4.9767   11.6246    7.9837 H   0  0  0  0  0  0  0  0  0  0  0  0
    6.5029   11.0391    8.6522 H   0  0  0  0  0  0  0  0  0  0  0  0
    8.5350   11.7919    5.5674 H   0  0  0  0  0  0  0  0  0  0  0  0
    7.7768   10.2366    5.9375 H   0  0  0  0  0  0  0  0  0  0  0  0
    8.6297   11.1263    7.2004 H   0  0  0  0  0  0  0  0  0  0  0  0
  1  2  1  0  0  0  0
  3  6  1  0  0  0  0
  4 17  1  0  0  0  0
  5  7  1  0  0  0  0
  5  1  1  6  0  0  0
  6  5  1  0  0  0  0
  6  7  2  0  0  0  0
  7  4  1  0  0  0  0
  8  3  1  0  0  0  0
  8  9  1  0  0  0  0
  9 23  1  0  0  0  0
  9 21  1  0  0  0  0
 10  8  1  0  0  0  0
 10 24  1  0  0  0  0
 11  3  1  0  0  0  0
 11 27  1  0  0  0  0
 12 11  1  0  0  0  0
 12 30  1  0  0  0  0
 13 32  1  0  0  0  0
 13 11  1  0  0  0  0
 14  4  1  0  0  0  0
 14 15  1  0  0  0  0
 15 36  1  0  0  0  0
 15 35  1  0  0  0  0
 16 14  1  0  0  0  0
 16 39  1  0  0  0  0
 17 41  1  0  0  0  0
 17 18  1  0  0  0  0
 18 43  1  0  0  0  0
 18 44  1  0  0  0  0
 19 17  1  0  0  0  0
 19 47  1  0  0  0  0
 20  8  1  0  0  0  0
 22  9  1  0  0  0  0
 25 10  1  0  0  0  0
 26 10  1  0  0  0  0
 28 12  1  0  0  0  0
 29 12  1  0  0  0  0
 31 13  1  0  0  0  0
 33 13  1  0  0  0  0
 34 14  1  0  0  0  0
 37 15  1  0  0  0  0
 38 16  1  0  0  0  0
 40 16  1  0  0  0  0
 42 18  1  0  0  0  0
 45 19  1  0  0  0  0
 46 19  1  0  0  0  0
M  END
$$$$
