CSD_code = MOWRUN | q = 0 | S = 0 | Stoichiometry = C29H30ClN2Rh | MND = 6
 OpenBabel04212202073D

 63 66  0  0  1  0  0  0  0  0999 V2000
   -1.7306   12.6077   14.0160 Cl  0  0  0  0  0 15  0  0  0  0  0  0
   -1.9947   10.3627   14.4617 Rh  0  0  0  0  0  0  0  0  0  0  0  0
   -0.0507   10.2570   14.2141 C   0  0  0  0  0  3  0  0  0  0  0  0
    0.8706   10.4902   15.1784 N   0  0  0  0  0  0  0  0  0  0  0  0
    2.1276   10.5778   14.6224 C   0  0  0  0  0  0  0  0  0  0  0  0
    3.3686   10.8752   15.1606 C   0  0  0  0  0  0  0  0  0  0  0  0
    3.4859   11.0872   16.2121 H   0  0  0  0  0  0  0  0  0  0  0  0
    4.4411   10.9188   14.2876 C   0  0  0  0  0  0  0  0  0  0  0  0
    5.4240   11.1479   14.6702 H   0  0  0  0  0  0  0  0  0  0  0  0
    4.2803   10.6942   12.9227 C   0  0  0  0  0  0  0  0  0  0  0  0
    5.1418   10.7546   12.2754 H   0  0  0  0  0  0  0  0  0  0  0  0
    3.0409   10.4150   12.3746 C   0  0  0  0  0  0  0  0  0  0  0  0
    2.9102   10.2795   11.3122 H   0  0  0  0  0  0  0  0  0  0  0  0
    1.9655   10.3481   13.2447 C   0  0  0  0  0  0  0  0  0  0  0  0
    0.6194   10.1320   13.0443 N   0  0  0  0  0  0  0  0  0  0  0  0
    0.5366   10.5277   16.5552 C   0  0  0  0  0  0  0  0  0  0  0  0
    1.0089    9.5303   17.4122 C   0  0  0  0  0  0  0  0  0  0  0  0
    0.6213    9.5810   18.7449 C   0  0  0  0  0  0  0  0  0  0  0  0
    0.9773    8.8186   19.4231 H   0  0  0  0  0  0  0  0  0  0  0  0
   -0.2238   10.5727   19.2106 C   0  0  0  0  0  0  0  0  0  0  0  0
   -0.5153   10.5828   20.2504 H   0  0  0  0  0  0  0  0  0  0  0  0
   -0.7009   11.5406   18.3440 C   0  0  0  0  0  0  0  0  0  0  0  0
   -1.3654   12.3128   18.7004 H   0  0  0  0  0  0  0  0  0  0  0  0
   -0.3203   11.5211   17.0136 C   0  0  0  0  0  0  0  0  0  0  0  0
   -0.6643   12.2819   16.3277 H   0  0  0  0  0  0  0  0  0  0  0  0
    1.8723    8.4119   16.9097 C   0  0  0  0  0  0  0  0  0  0  0  0
    1.5007    8.0368   15.9563 H   0  0  0  0  0  0  0  0  0  0  0  0
    1.8835    7.5928   17.6246 H   0  0  0  0  0  0  0  0  0  0  0  0
    2.8988    8.7445   16.7564 H   0  0  0  0  0  0  0  0  0  0  0  0
   -0.0119    9.7412   11.8376 C   0  0  0  0  0  0  0  0  0  0  0  0
    0.3163    8.5201   11.2428 C   0  0  0  0  0  0  0  0  0  0  0  0
   -0.3563    8.1609   10.0818 C   0  0  0  0  0  0  0  0  0  0  0  0
   -0.1147    7.2207    9.6069 H   0  0  0  0  0  0  0  0  0  0  0  0
   -1.3376    8.9711    9.5387 C   0  0  0  0  0  0  0  0  0  0  0  0
   -1.8495    8.6624    8.6392 H   0  0  0  0  0  0  0  0  0  0  0  0
   -1.6688   10.1657   10.1543 C   0  0  0  0  0  0  0  0  0  0  0  0
   -2.4402   10.7974    9.7415 H   0  0  0  0  0  0  0  0  0  0  0  0
   -1.0050   10.5539   11.3044 C   0  0  0  0  0  0  0  0  0  0  0  0
   -1.2367   11.4923   11.7870 H   0  0  0  0  0  0  0  0  0  0  0  0
    1.3299    7.5961   11.8496 C   0  0  0  0  0  0  0  0  0  0  0  0
    1.1922    6.5859   11.4714 H   0  0  0  0  0  0  0  0  0  0  0  0
    1.2373    7.5770   12.9350 H   0  0  0  0  0  0  0  0  0  0  0  0
    2.3449    7.9127   11.6103 H   0  0  0  0  0  0  0  0  0  0  0  0
   -2.2955    8.3127   14.0762 C   0  0  1  0  0  0  0  0  0  0  0  0
   -1.4294    7.8638   13.5883 H   0  0  0  0  0  0  0  0  0  0  0  0
   -2.2277    8.5017   15.4591 C   0  0  0  0  0  3  0  0  0  0  0  0
   -1.2969    8.2228   15.9523 H   0  0  0  0  0  0  0  0  0  0  0  0
   -3.4361    8.4591   16.3707 C   0  0  0  0  0  0  0  0  0  0  0  0
   -3.1343    8.0545   17.3392 H   0  0  0  0  0  0  0  0  0  0  0  0
   -4.1760    7.7748   15.9523 H   0  0  0  0  0  0  0  0  0  0  0  0
   -4.0519    9.8533   16.5921 C   0  0  0  0  0  0  0  0  0  0  0  0
   -5.1168    9.7602   16.8332 H   0  0  0  0  0  0  0  0  0  0  0  0
   -3.5627   10.3193   17.4516 H   0  0  0  0  0  0  0  0  0  0  0  0
   -3.8867   10.7764   15.4070 C   0  0  0  0  0  3  0  0  0  0  0  0
   -3.8799   11.8339   15.6721 H   0  0  0  0  0  0  0  0  0  0  0  0
   -4.1375   10.4422   14.0951 C   0  0  0  0  0  3  0  0  0  0  0  0
   -4.2825   11.2546   13.3829 H   0  0  0  0  0  0  0  0  0  0  0  0
   -4.6853    9.1026   13.6567 C   0  0  0  0  0  0  0  0  0  0  0  0
   -5.3273    9.2483   12.7853 H   0  0  0  0  0  0  0  0  0  0  0  0
   -5.3099    8.6936   14.4523 H   0  0  0  0  0  0  0  0  0  0  0  0
   -3.5671    8.1114   13.2850 C   0  0  0  0  0  0  0  0  0  0  0  0
   -3.9188    7.0813   13.4159 H   0  0  0  0  0  0  0  0  0  0  0  0
   -3.3184    8.2366   12.2271 H   0  0  0  0  0  0  0  0  0  0  0  0
  3  2  1  0  0  0  0
  3  4  1  0  0  0  0
  4 16  1  0  0  0  0
  5  6  1  0  0  0  0
  5  4  1  0  0  0  0
  6  7  1  0  0  0  0
  8  9  1  0  0  0  0
  8  6  2  0  0  0  0
 10  8  1  0  0  0  0
 11 10  1  0  0  0  0
 12 10  2  0  0  0  0
 12 14  1  0  0  0  0
 13 12  1  0  0  0  0
 14  5  2  0  0  0  0
 15 14  1  0  0  0  0
 15  3  1  0  0  0  0
 16 24  2  0  0  0  0
 16 17  1  0  0  0  0
 17 18  2  0  0  0  0
 18 20  1  0  0  0  0
 18 19  1  0  0  0  0
 20 21  1  0  0  0  0
 22 23  1  0  0  0  0
 22 20  2  0  0  0  0
 24 22  1  0  0  0  0
 25 24  1  0  0  0  0
 26 17  1  0  0  0  0
 26 28  1  0  0  0  0
 27 26  1  0  0  0  0
 29 26  1  0  0  0  0
 30 15  1  0  0  0  0
 31 30  2  0  0  0  0
 31 40  1  0  0  0  0
 32 31  1  0  0  0  0
 33 32  1  0  0  0  0
 34 32  2  0  0  0  0
 34 36  1  0  0  0  0
 35 34  1  0  0  0  0
 36 38  2  0  0  0  0
 37 36  1  0  0  0  0
 38 39  1  0  0  0  0
 38 30  1  0  0  0  0
 40 42  1  0  0  0  0
 41 40  1  0  0  0  0
 43 40  1  0  0  0  0
 44 45  1  6  0  0  0
 44  2  1  0  0  0  0
 44 46  1  0  0  0  0
 46 47  1  0  0  0  0
 46 48  1  0  0  0  0
 48 51  1  0  0  0  0
 48 49  1  0  0  0  0
 50 48  1  0  0  0  0
 51 52  1  0  0  0  0
 51 53  1  0  0  0  0
 54 55  1  0  0  0  0
 54 51  1  0  0  0  0
 56 54  1  0  0  0  0
 57 56  1  0  0  0  0
 58 56  1  0  0  0  0
 58 60  1  0  0  0  0
 59 58  1  0  0  0  0
 61 62  1  0  0  0  0
 61 58  1  0  0  0  0
 61 44  1  0  0  0  0
 63 61  1  0  0  0  0
M  END
$$$$
