CSD_code = MOWSIA | q = 0 | S = 0 | Stoichiometry = C21H37ClSi2Zr | MND = 12
 OpenBabel04212202073D

 62 62  0  0  1  0  0  0  0  0999 V2000
    3.5539    2.9833   12.8077 Zr  0  0  0  0  0  0  0  0  0  0  0  0
    2.9297    3.6867   14.9896 Cl  0  0  0  0  0  0  0  0  0  0  0  0
    1.8009    6.4334   13.2126 Si  0  0  0  0  0  0  0  0  0  0  0  0
    6.8943    4.2193   11.3008 Si  0  0  0  0  0  0  0  0  0  0  0  0
    1.5526    1.8409   11.7837 C   0  0  0  0  0  0  0  0  0  0  0  0
    2.7041    1.2440   11.1852 C   0  0  0  0  0  0  0  0  0  0  0  0
    3.4138    0.5461   12.2000 C   0  0  0  0  0  0  0  0  0  0  0  0
    2.7172    0.7260   13.4260 C   0  0  0  0  0  0  0  0  0  0  0  0
    1.5624    1.5124   13.1694 C   0  0  2  0  0  3  0  0  0  0  0  0
    3.0350    5.3439   12.3023 C   0  0  2  0  0  0  0  0  0  0  0  0
    2.7978    4.6163   11.1010 C   0  0  0  0  0  0  0  0  0  0  0  0
    4.0301    4.1314   10.6218 C   0  0  0  0  0  0  0  0  0  0  0  0
    5.0579    4.5556   11.5054 C   0  0  0  0  0  0  0  0  0  0  0  0
    4.4305    5.2941   12.5367 C   0  0  0  0  0  0  0  0  0  0  0  0
    0.3531    2.3875   11.0519 C   0  0  0  0  0  0  0  0  0  0  0  0
    2.9775    1.1223    9.7090 C   0  0  0  0  0  0  0  0  0  0  0  0
    4.5984   -0.3602   12.0039 C   0  0  0  0  0  0  0  0  0  0  0  0
    3.0842    0.1428   14.7614 C   0  0  0  0  0  0  0  0  0  0  0  0
    0.4351    1.7046   14.1474 C   0  0  0  0  0  0  0  0  0  0  0  0
    0.2161    5.4476   13.6300 C   0  0  0  0  0  0  0  0  0  0  0  0
    2.5843    7.1926   14.7751 C   0  0  0  0  0  0  0  0  0  0  0  0
    1.3105    7.8496   12.0175 C   0  0  0  0  0  0  0  0  0  0  0  0
    7.6495    5.4008   10.0016 C   0  0  0  0  0  0  0  0  0  0  0  0
    7.0660    2.4145   10.6786 C   0  0  0  0  0  0  0  0  0  0  0  0
    7.7778    4.4466   12.9769 C   0  0  0  0  0  0  0  0  0  0  0  0
    1.8618    4.6167   10.5567 H   0  0  0  0  0  0  0  0  0  0  0  0
    4.2017    3.6608    9.6620 H   0  0  0  0  0  0  0  0  0  0  0  0
    4.9446    5.7997   13.3468 H   0  0  0  0  0  0  0  0  0  0  0  0
   -0.0494    3.2768   11.5376 H   0  0  0  0  0  0  0  0  0  0  0  0
   -0.4375    1.6330   11.0333 H   0  0  0  0  0  0  0  0  0  0  0  0
    0.5925    2.6320   10.0189 H   0  0  0  0  0  0  0  0  0  0  0  0
    2.4901    1.9159    9.1448 H   0  0  0  0  0  0  0  0  0  0  0  0
    2.5931    0.1691    9.3365 H   0  0  0  0  0  0  0  0  0  0  0  0
    4.0470    1.1535    9.4963 H   0  0  0  0  0  0  0  0  0  0  0  0
    5.3860   -0.1477   12.7304 H   0  0  0  0  0  0  0  0  0  0  0  0
    5.0116   -0.2565   11.0022 H   0  0  0  0  0  0  0  0  0  0  0  0
    4.2957   -1.4017   12.1354 H   0  0  0  0  0  0  0  0  0  0  0  0
    2.4803   -0.7426   14.9757 H   0  0  0  0  0  0  0  0  0  0  0  0
    4.1346   -0.1473   14.7821 H   0  0  0  0  0  0  0  0  0  0  0  0
    2.9092    0.8717   15.5563 H   0  0  0  0  0  0  0  0  0  0  0  0
   -0.3664    2.2960   13.7104 H   0  0  0  0  0  0  0  0  0  0  0  0
    0.7768    2.1920   15.0621 H   0  0  0  0  0  0  0  0  0  0  0  0
    0.0243    0.7307   14.4234 H   0  0  0  0  0  0  0  0  0  0  0  0
   -0.3696    5.2298   12.7406 H   0  0  0  0  0  0  0  0  0  0  0  0
    0.4680    4.5136   14.1238 H   0  0  0  0  0  0  0  0  0  0  0  0
   -0.4220    6.0136   14.3010 H   0  0  0  0  0  0  0  0  0  0  0  0
    3.4552    7.7940   14.5323 H   0  0  0  0  0  0  0  0  0  0  0  0
    1.8763    7.8355   15.2881 H   0  0  0  0  0  0  0  0  0  0  0  0
    2.8906    6.4158   15.4677 H   0  0  0  0  0  0  0  0  0  0  0  0
    0.5803    8.5051   12.4797 H   0  0  0  0  0  0  0  0  0  0  0  0
    2.1691    8.4541   11.7444 H   0  0  0  0  0  0  0  0  0  0  0  0
    0.8747    7.4693   11.0992 H   0  0  0  0  0  0  0  0  0  0  0  0
    7.1538    5.3094    9.0408 H   0  0  0  0  0  0  0  0  0  0  0  0
    7.5680    6.4365   10.3142 H   0  0  0  0  0  0  0  0  0  0  0  0
    8.7016    5.1837    9.8517 H   0  0  0  0  0  0  0  0  0  0  0  0
    6.7021    2.3028    9.6605 H   0  0  0  0  0  0  0  0  0  0  0  0
    8.0992    2.0816   10.6898 H   0  0  0  0  0  0  0  0  0  0  0  0
    6.4926    1.7483   11.3209 H   0  0  0  0  0  0  0  0  0  0  0  0
    7.2614    3.8869   13.7530 H   0  0  0  0  0  0  0  0  0  0  0  0
    7.8011    5.4899   13.2773 H   0  0  0  0  0  0  0  0  0  0  0  0
    8.8043    4.0952   12.9384 H   0  0  0  0  0  0  0  0  0  0  0  0
    5.0969    2.4395   13.4309 H   0  0  0  0  0  0  0  0  0  0  0  0
  1 62  1  0  0  0  0
  1  2  1  0  0  0  0
  3 20  1  0  0  0  0
  3 21  1  0  0  0  0
  4 13  1  0  0  0  0
  4 25  1  0  0  0  0
  5  9  1  0  0  0  0
  6  5  2  0  0  0  0
  6  7  1  0  0  0  0
  7  8  2  0  0  0  0
  8 18  1  0  0  0  0
  9  8  1  0  0  0  0
  9 19  1  6  0  0  0
 10 14  1  0  0  0  0
 10  1  1  1  0  0  0
 10  3  1  0  0  0  0
 11 10  1  0  0  0  0
 12 11  2  0  0  0  0
 12 13  1  0  0  0  0
 13 14  2  0  0  0  0
 14 28  1  0  0  0  0
 15 29  1  0  0  0  0
 15  5  1  0  0  0  0
 16  6  1  0  0  0  0
 17 37  1  0  0  0  0
 17  7  1  0  0  0  0
 17 35  1  0  0  0  0
 18 39  1  0  0  0  0
 18 38  1  0  0  0  0
 18 40  1  0  0  0  0
 19 43  1  0  0  0  0
 19 42  1  0  0  0  0
 20 45  1  0  0  0  0
 20 46  1  0  0  0  0
 21 48  1  0  0  0  0
 21 49  1  0  0  0  0
 22 50  1  0  0  0  0
 22  3  1  0  0  0  0
 23 54  1  0  0  0  0
 23  4  1  0  0  0  0
 24 57  1  0  0  0  0
 24  4  1  0  0  0  0
 24 58  1  0  0  0  0
 25 60  1  0  0  0  0
 25 59  1  0  0  0  0
 26 11  1  0  0  0  0
 27 12  1  0  0  0  0
 30 15  1  0  0  0  0
 31 15  1  0  0  0  0
 32 16  1  0  0  0  0
 33 16  1  0  0  0  0
 34 16  1  0  0  0  0
 36 17  1  0  0  0  0
 41 19  1  0  0  0  0
 44 20  1  0  0  0  0
 47 21  1  0  0  0  0
 51 22  1  0  0  0  0
 52 22  1  0  0  0  0
 53 23  1  0  0  0  0
 55 23  1  0  0  0  0
 56 24  1  0  0  0  0
 61 25  1  0  0  0  0
M  END
$$$$
