CSD_code = MOWSIB | q = 0 | S = 0 | Stoichiometry = C10H10F2N2Pd | MND = 4
 OpenBabel04212202073D

 25 26  0  0  0  0  0  0  0  0999 V2000
   -5.0350   10.7665   -5.2494 Pd  0  0  0  0  0  0  0  0  0  0  0  0
   -5.5443   12.1741   -6.5221 F   0  0  0  0  0  0  0  0  0  0  0  0
   -4.0356   12.0651   -4.2171 N   0  0  0  0  0  0  0  0  0  0  0  0
   -4.5935   13.2218   -3.8535 C   0  0  0  0  0  3  0  0  0  0  0  0
   -5.6175   13.3843   -4.1758 H   0  0  0  0  0  0  0  0  0  0  0  0
   -4.5252    9.3590   -3.9769 F   0  0  0  0  0  0  0  0  0  0  0  0
   -3.9058   14.1784   -3.1280 C   0  0  0  0  0  0  0  0  0  0  0  0
   -4.3934   15.1011   -2.8556 H   0  0  0  0  0  0  0  0  0  0  0  0
   -6.0264    9.4662   -6.2879 N   0  0  0  0  0  0  0  0  0  0  0  0
   -2.5906   13.9314   -2.7635 C   0  0  0  0  0  0  0  0  0  0  0  0
   -2.0277   14.6584   -2.1983 H   0  0  0  0  0  0  0  0  0  0  0  0
   -2.0162   12.7274   -3.1434 C   0  0  0  0  0  0  0  0  0  0  0  0
   -0.9969   12.4914   -2.8814 H   0  0  0  0  0  0  0  0  0  0  0  0
   -2.7704   11.8219   -3.8682 C   0  0  0  0  0  0  0  0  0  0  0  0
   -2.3653   10.8601   -4.1679 H   0  0  0  0  0  0  0  0  0  0  0  0
   -5.8338    9.3659   -7.6049 C   0  0  0  0  0  3  0  0  0  0  0  0
   -5.1267   10.0644   -8.0421 H   0  0  0  0  0  0  0  0  0  0  0  0
   -6.5111    8.4441   -8.3831 C   0  0  0  0  0  0  0  0  0  0  0  0
   -6.3266    8.3966   -9.4447 H   0  0  0  0  0  0  0  0  0  0  0  0
   -7.4233    7.5922   -7.7781 C   0  0  0  0  0  0  0  0  0  0  0  0
   -7.9668    6.8622   -8.3583 H   0  0  0  0  0  0  0  0  0  0  0  0
   -7.6200    7.7013   -6.4095 C   0  0  0  0  0  0  0  0  0  0  0  0
   -8.3184    7.0595   -5.8962 H   0  0  0  0  0  0  0  0  0  0  0  0
   -6.9035    8.6493   -5.7007 C   0  0  0  0  0  0  0  0  0  0  0  0
   -7.0127    8.7536   -4.6256 H   0  0  0  0  0  0  0  0  0  0  0  0
  1  3  1  0  0  0  0
  1  6  1  0  0  0  0
  2  1  1  0  0  0  0
  3 14  1  0  0  0  0
  3  4  1  0  0  0  0
  4  7  1  0  0  0  0
  5  4  1  0  0  0  0
  7  8  1  0  0  0  0
  7 10  2  0  0  0  0
  9 24  1  0  0  0  0
  9  1  1  0  0  0  0
 10 11  1  0  0  0  0
 12 13  1  0  0  0  0
 12 10  1  0  0  0  0
 14 12  2  0  0  0  0
 15 14  1  0  0  0  0
 16  9  1  0  0  0  0
 17 16  1  0  0  0  0
 18 20  2  0  0  0  0
 18 16  1  0  0  0  0
 19 18  1  0  0  0  0
 20 22  1  0  0  0  0
 21 20  1  0  0  0  0
 22 23  1  0  0  0  0
 22 24  2  0  0  0  0
 24 25  1  0  0  0  0
M  END
$$$$
