CSD_code = MOWSOH | q = 0 | S = 0 | Stoichiometry = C16H15FN2Pd | MND = 4
 OpenBabel04212202073D

 35 37  0  0  0  0  0  0  0  0999 V2000
   -0.4480    6.2728    5.1579 Pd  0  0  1  0  0  0  0  0  0  0  0  0
   -2.1443    7.0654    6.0328 F   0  0  0  0  0  0  0  0  0  0  0  0
   -0.2328    7.9835    4.2898 N   0  0  0  0  0  0  0  0  0  0  0  0
    1.1941    5.5002    4.3158 C   0  0  0  0  0  0  0  0  0  0  0  0
   -0.8484    4.6506    6.1223 N   0  0  0  0  0  0  0  0  0  0  0  0
    2.4637    5.7614    4.8322 C   0  0  0  0  0  0  0  0  0  0  0  0
    2.5689    6.4043    5.7056 H   0  0  0  0  0  0  0  0  0  0  0  0
    3.6024    5.2214    4.2553 C   0  0  0  0  0  0  0  0  0  0  0  0
    4.5763    5.4379    4.6737 H   0  0  0  0  0  0  0  0  0  0  0  0
    3.4958    4.4049    3.1427 C   0  0  0  0  0  0  0  0  0  0  0  0
    4.3824    3.9825    2.6912 H   0  0  0  0  0  0  0  0  0  0  0  0
    2.2468    4.1324    2.6121 C   0  0  0  0  0  0  0  0  0  0  0  0
    2.1579    3.4944    1.7430 H   0  0  0  0  0  0  0  0  0  0  0  0
    1.1117    4.6743    3.1942 C   0  0  0  0  0  0  0  0  0  0  0  0
    0.1373    4.4451    2.7634 H   0  0  0  0  0  0  0  0  0  0  0  0
    0.0658    9.0207    5.0734 C   0  0  0  0  0  3  0  0  0  0  0  0
    0.4544    8.7809    6.0619 H   0  0  0  0  0  0  0  0  0  0  0  0
   -0.1205   10.3310    4.6727 C   0  0  0  0  0  0  0  0  0  0  0  0
    0.1261   11.1413    5.3404 H   0  0  0  0  0  0  0  0  0  0  0  0
   -0.6383   10.5799    3.4101 C   0  0  0  0  0  0  0  0  0  0  0  0
   -0.8005   11.5910    3.0691 H   0  0  0  0  0  0  0  0  0  0  0  0
   -0.9502    9.4987    2.5998 C   0  0  0  0  0  0  0  0  0  0  0  0
   -1.3632    9.6450    1.6142 H   0  0  0  0  0  0  0  0  0  0  0  0
   -0.7329    8.2184    3.0772 C   0  0  0  0  0  0  0  0  0  0  0  0
   -0.9630    7.3448    2.4722 H   0  0  0  0  0  0  0  0  0  0  0  0
   -1.9006    3.9397    5.7155 C   0  0  0  0  0  3  0  0  0  0  0  0
   -2.2644    4.1500    4.7112 H   0  0  0  0  0  0  0  0  0  0  0  0
   -2.5146    2.9972    6.5199 C   0  0  0  0  0  0  0  0  0  0  0  0
   -3.3686    2.4485    6.1555 H   0  0  0  0  0  0  0  0  0  0  0  0
   -2.0214    2.7817    7.7984 C   0  0  0  0  0  0  0  0  0  0  0  0
   -2.4807    2.0565    8.4527 H   0  0  0  0  0  0  0  0  0  0  0  0
   -0.9298    3.5264    8.2188 C   0  0  0  0  0  0  0  0  0  0  0  0
   -0.5192    3.3990    9.2081 H   0  0  0  0  0  0  0  0  0  0  0  0
   -0.3739    4.4495    7.3511 C   0  0  0  0  0  0  0  0  0  0  0  0
    0.4826    5.0529    7.6425 H   0  0  0  0  0  0  0  0  0  0  0  0
  1  2  1  1  0  0  0
  1  5  1  0  0  0  0
  3 16  1  0  0  0  0
  3  1  1  0  0  0  0
  4  6  1  0  0  0  0
  4  1  1  0  0  0  0
  5 34  1  0  0  0  0
  6  7  1  0  0  0  0
  8  9  1  0  0  0  0
  8  6  2  0  0  0  0
 10  8  1  0  0  0  0
 11 10  1  0  0  0  0
 12 10  2  0  0  0  0
 12 14  1  0  0  0  0
 13 12  1  0  0  0  0
 14  4  2  0  0  0  0
 15 14  1  0  0  0  0
 16 17  1  0  0  0  0
 18 16  1  0  0  0  0
 18 19  1  0  0  0  0
 20 18  2  0  0  0  0
 21 20  1  0  0  0  0
 22 24  2  0  0  0  0
 22 20  1  0  0  0  0
 23 22  1  0  0  0  0
 24  3  1  0  0  0  0
 25 24  1  0  0  0  0
 26  5  1  0  0  0  0
 26 28  1  0  0  0  0
 27 26  1  0  0  0  0
 28 30  2  0  0  0  0
 29 28  1  0  0  0  0
 30 32  1  0  0  0  0
 30 31  1  0  0  0  0
 32 33  1  0  0  0  0
 34 35  1  0  0  0  0
 34 32  2  0  0  0  0
M  END
$$$$
