CSD_code = MOWWUS | q = 0 | S = 0 | Stoichiometry = C31H23ClNO2P2Rh | MND = 4
 OpenBabel04212202073D

 61 67  0  0  1  0  0  0  0  0999 V2000
    9.0387   12.4508    5.4484 Rh  0  0  2  0  0  0  0  0  0  0  0  0
    8.7134   10.3435    4.8708 Cl  0  0  0  0  0  0  0  0  0  0  0  0
    6.9211   12.7464    6.1486 P   0  0  0  0  0  4  0  0  0  0  0  0
   10.9286   12.6926    4.2704 P   0  0  0  0  0  4  0  0  0  0  0  0
    6.3728   14.6811    7.9946 O   0  0  0  0  0  0  0  0  0  0  0  0
   12.7410   14.6013    4.9996 O   0  0  0  0  0  0  0  0  0  0  0  0
    9.3639   14.2262    6.0958 N   0  0  0  0  0  0  0  0  0  0  0  0
    5.9818   13.5618    4.8161 C   0  0  0  0  0  0  0  0  0  0  0  0
    6.5525   13.6321    3.5495 C   0  0  0  0  0  0  0  0  0  0  0  0
    7.5193   13.1607    3.3760 H   0  0  0  0  0  0  0  0  0  0  0  0
    5.8853   14.2810    2.5263 C   0  0  0  0  0  0  0  0  0  0  0  0
    6.3295   14.3319    1.5430 H   0  0  0  0  0  0  0  0  0  0  0  0
    4.6504   14.8609    2.7678 C   0  0  0  0  0  0  0  0  0  0  0  0
    4.1267   15.3664    1.9699 H   0  0  0  0  0  0  0  0  0  0  0  0
    4.0832   14.7962    4.0321 C   0  0  0  0  0  0  0  0  0  0  0  0
    3.1221   15.2535    4.2161 H   0  0  0  0  0  0  0  0  0  0  0  0
    4.7452   14.1520    5.0605 C   0  0  0  0  0  0  0  0  0  0  0  0
    4.3147   14.1049    6.0511 H   0  0  0  0  0  0  0  0  0  0  0  0
    5.6770   11.7786    7.0359 C   0  0  0  0  0  0  0  0  0  0  0  0
    5.8017   11.6058    8.4115 C   0  0  0  0  0  0  0  0  0  0  0  0
    6.6044   12.0982    8.9436 H   0  0  0  0  0  0  0  0  0  0  0  0
    4.8926   10.8160    9.0900 C   0  0  0  0  0  0  0  0  0  0  0  0
    4.9802   10.6917   10.1594 H   0  0  0  0  0  0  0  0  0  0  0  0
    3.8744   10.1790    8.3987 C   0  0  0  0  0  0  0  0  0  0  0  0
    3.1674    9.5599    8.9310 H   0  0  0  0  0  0  0  0  0  0  0  0
    3.7671   10.3258    7.0248 C   0  0  0  0  0  0  0  0  0  0  0  0
    2.9810    9.8169    6.4863 H   0  0  0  0  0  0  0  0  0  0  0  0
    4.6679   11.1193    6.3394 C   0  0  0  0  0  0  0  0  0  0  0  0
    4.5965   11.2319    5.2660 H   0  0  0  0  0  0  0  0  0  0  0  0
    7.1680   14.2604    7.1800 C   0  0  0  0  0  0  0  0  0  0  0  0
    8.4621   14.8885    6.8771 C   0  0  1  0  0  3  0  0  0  0  0  0
    8.7070   16.1445    7.4220 C   0  0  0  0  0  0  0  0  0  0  0  0
    7.9300   16.5827    8.0303 H   0  0  0  0  0  0  0  0  0  0  0  0
    9.9103   16.7880    7.1930 C   0  0  0  0  0  0  0  0  0  0  0  0
   10.1171   17.7607    7.6082 H   0  0  0  0  0  0  0  0  0  0  0  0
   10.8418   16.1189    6.4189 C   0  0  0  0  0  0  0  0  0  0  0  0
   11.8154   16.5355    6.2079 H   0  0  0  0  0  0  0  0  0  0  0  0
   10.5525   14.8651    5.8913 C   0  0  0  0  0  0  0  0  0  0  0  0
   11.5923   14.2156    5.0789 C   0  0  0  0  0  0  0  0  0  0  0  0
   10.5088   13.3119    2.6065 C   0  0  0  0  0  0  0  0  0  0  0  0
    9.7093   12.4730    1.8315 C   0  0  0  0  0  0  0  0  0  0  0  0
    9.4002   11.5178    2.2384 H   0  0  0  0  0  0  0  0  0  0  0  0
    9.3172   12.8664    0.5661 C   0  0  0  0  0  0  0  0  0  0  0  0
    8.6977   12.2153   -0.0329 H   0  0  0  0  0  0  0  0  0  0  0  0
    9.7156   14.0986    0.0704 C   0  0  0  0  0  0  0  0  0  0  0  0
    9.4070   14.4092   -0.9171 H   0  0  0  0  0  0  0  0  0  0  0  0
   10.5091   14.9332    0.8393 C   0  0  0  0  0  0  0  0  0  0  0  0
   10.8199   15.8922    0.4510 H   0  0  0  0  0  0  0  0  0  0  0  0
   10.9079   14.5464    2.1078 C   0  0  0  0  0  0  0  0  0  0  0  0
   11.5292   15.2019    2.7015 H   0  0  0  0  0  0  0  0  0  0  0  0
   12.3947   11.6726    3.9722 C   0  0  0  0  0  0  0  0  0  0  0  0
   12.4863   10.4526    4.6335 C   0  0  0  0  0  0  0  0  0  0  0  0
   11.6678   10.1299    5.2641 H   0  0  0  0  0  0  0  0  0  0  0  0
   13.6112    9.6658    4.4641 C   0  0  0  0  0  0  0  0  0  0  0  0
   13.6863    8.7152    4.9710 H   0  0  0  0  0  0  0  0  0  0  0  0
   14.6407   10.1003    3.6451 C   0  0  0  0  0  0  0  0  0  0  0  0
   15.5209    9.4874    3.5159 H   0  0  0  0  0  0  0  0  0  0  0  0
   14.5472   11.3178    2.9879 C   0  0  0  0  0  0  0  0  0  0  0  0
   15.3542   11.6508    2.3516 H   0  0  0  0  0  0  0  0  0  0  0  0
   13.4237   12.1077    3.1433 C   0  0  0  0  0  0  0  0  0  0  0  0
   13.3428   13.0568    2.6335 H   0  0  0  0  0  0  0  0  0  0  0  0
  1  2  1  1  0  0  0
  1  7  1  0  0  0  0
  1  3  1  0  0  0  0
  3 19  1  0  0  0  0
  3 30  1  0  0  0  0
  4 39  1  0  0  0  0
  4  1  1  0  0  0  0
  6 39  2  0  0  0  0
  7 31  1  0  0  0  0
  8 17  1  0  0  0  0
  8  3  1  0  0  0  0
  9  8  2  0  0  0  0
 10  9  1  0  0  0  0
 11 13  2  0  0  0  0
 11  9  1  0  0  0  0
 12 11  1  0  0  0  0
 13 15  1  0  0  0  0
 14 13  1  0  0  0  0
 15 16  1  0  0  0  0
 15 17  2  0  0  0  0
 17 18  1  0  0  0  0
 19 20  1  0  0  0  0
 20 21  1  0  0  0  0
 20 22  2  0  0  0  0
 22 23  1  0  0  0  0
 24 25  1  0  0  0  0
 24 22  1  0  0  0  0
 26 24  2  0  0  0  0
 27 26  1  0  0  0  0
 28 26  1  0  0  0  0
 28 19  2  0  0  0  0
 29 28  1  0  0  0  0
 30  5  2  0  0  0  0
 31 30  1  1  0  0  0
 31 32  1  0  0  0  0
 32 33  1  0  0  0  0
 34 32  2  0  0  0  0
 34 35  1  0  0  0  0
 36 34  1  0  0  0  0
 37 36  1  0  0  0  0
 38  7  1  0  0  0  0
 38 36  2  0  0  0  0
 39 38  1  0  0  0  0
 40  4  1  0  0  0  0
 41 42  1  0  0  0  0
 41 40  2  0  0  0  0
 43 41  1  0  0  0  0
 44 43  1  0  0  0  0
 45 43  2  0  0  0  0
 45 47  1  0  0  0  0
 46 45  1  0  0  0  0
 47 49  2  0  0  0  0
 48 47  1  0  0  0  0
 49 40  1  0  0  0  0
 49 50  1  0  0  0  0
 51  4  1  0  0  0  0
 51 52  1  0  0  0  0
 52 53  1  0  0  0  0
 54 52  2  0  0  0  0
 54 55  1  0  0  0  0
 56 54  1  0  0  0  0
 57 56  1  0  0  0  0
 58 60  1  0  0  0  0
 58 56  2  0  0  0  0
 59 58  1  0  0  0  0
 60 51  2  0  0  0  0
 61 60  1  0  0  0  0
M  END
$$$$
