CSD_code = MOWYUT | q = 0 | S = 0 | Stoichiometry = C17H24BrN4O3Re | MND = 6
 OpenBabel04212202073D

 50 51  0  0  1  0  0  0  0  0999 V2000
    2.1257    3.3568    2.6049 Re  0  0  0  0  0  0  0  0  0  0  0  0
   -0.0687    2.1790    3.4364 Br  0  0  0  0  0  0  0  0  0  0  0  0
    1.8770    4.3655    6.8160 C   0  0  1  0  0  3  0  0  0  0  0  0
    3.0441    5.0642    6.5588 C   0  0  0  0  0  0  0  0  0  0  0  0
    3.6075    5.6730    7.2338 H   0  0  0  0  0  0  0  0  0  0  0  0
    3.3451    4.8096    5.2213 C   0  0  0  0  0  0  0  0  0  0  0  0
    4.1758    5.1635    4.6412 H   0  0  0  0  0  0  0  0  0  0  0  0
   -0.8378    6.5249    2.8187 C   0  0  2  0  0  3  0  0  0  0  0  0
    0.2559    7.3499    2.6194 C   0  0  0  0  0  0  0  0  0  0  0  0
    0.2746    8.4186    2.5834 H   0  0  0  0  0  0  0  0  0  0  0  0
    1.3474    6.4948    2.4710 C   0  0  0  0  0  0  0  0  0  0  0  0
    2.3761    6.7443    2.2939 H   0  0  0  0  0  0  0  0  0  0  0  0
    1.6131    2.8769    0.7890 C   0  0  0  0  0  2  0  0  0  0  0  0
    3.0508    1.6646    2.8744 C   0  0  0  0  0  2  0  0  0  0  0  0
    3.7408    4.2373    1.9953 C   0  0  0  0  0  2  0  0  0  0  0  0
    1.0267    4.2250    8.0430 C   0  0  0  0  0  0  0  0  0  0  0  0
    0.9920    2.7483    8.4591 C   0  0  0  0  0  0  0  0  0  0  0  0
    1.9987    2.3844    8.6529 H   0  0  0  0  0  0  0  0  0  0  0  0
    0.5446    2.1301    7.6844 H   0  0  0  0  0  0  0  0  0  0  0  0
    0.4044    2.6334    9.3665 H   0  0  0  0  0  0  0  0  0  0  0  0
   -0.3945    4.7075    7.7192 C   0  0  0  0  0  0  0  0  0  0  0  0
   -0.8570    4.0902    6.9524 H   0  0  0  0  0  0  0  0  0  0  0  0
   -0.3754    5.7389    7.3717 H   0  0  0  0  0  0  0  0  0  0  0  0
   -1.0139    4.6585    8.6110 H   0  0  0  0  0  0  0  0  0  0  0  0
    1.6093    5.0665    9.1796 C   0  0  0  0  0  0  0  0  0  0  0  0
    1.6454    6.1172    8.9012 H   0  0  0  0  0  0  0  0  0  0  0  0
    2.6153    4.7352    9.4251 H   0  0  0  0  0  0  0  0  0  0  0  0
    0.9905    4.9684   10.0680 H   0  0  0  0  0  0  0  0  0  0  0  0
   -2.2930    6.8029    3.0495 C   0  0  0  0  0  0  0  0  0  0  0  0
   -2.7155    6.1700    4.3830 C   0  0  0  0  0  0  0  0  0  0  0  0
   -2.6068    5.0881    4.3605 H   0  0  0  0  0  0  0  0  0  0  0  0
   -3.7581    6.4000    4.5867 H   0  0  0  0  0  0  0  0  0  0  0  0
   -2.1128    6.5628    5.1995 H   0  0  0  0  0  0  0  0  0  0  0  0
   -2.5345    8.3125    3.0964 C   0  0  0  0  0  0  0  0  0  0  0  0
   -1.9645    8.7687    3.9024 H   0  0  0  0  0  0  0  0  0  0  0  0
   -3.5893    8.5136    3.2663 H   0  0  0  0  0  0  0  0  0  0  0  0
   -2.2448    8.7768    2.1570 H   0  0  0  0  0  0  0  0  0  0  0  0
   -3.1041    6.1860    1.9019 C   0  0  0  0  0  0  0  0  0  0  0  0
   -4.1607    6.4023    2.0377 H   0  0  0  0  0  0  0  0  0  0  0  0
   -2.9803    5.1062    1.8676 H   0  0  0  0  0  0  0  0  0  0  0  0
   -2.7879    6.6003    0.9470 H   0  0  0  0  0  0  0  0  0  0  0  0
    2.4278    4.0129    4.6920 N   0  0  0  0  0  0  0  0  0  0  0  0
    1.5526    3.7563    5.6651 N   0  0  0  0  0  0  0  0  0  0  0  0
    0.7633    3.1395    5.4749 H   0  0  0  0  0  0  0  0  0  0  0  0
    0.9544    5.2333    2.5737 N   0  0  0  0  0  0  0  0  0  0  0  0
   -0.3628    5.2705    2.7795 N   0  0  0  0  0  0  0  0  0  0  0  0
   -0.8729    4.3977    2.9055 H   0  0  0  0  0  0  0  0  0  0  0  0
    1.2484    2.5931   -0.2596 O   0  0  0  0  0  1  0  0  0  0  0  0
    3.5451    0.6512    3.0761 O   0  0  0  0  0  1  0  0  0  0  0  0
    4.7017    4.7369    1.6168 O   0  0  0  0  0  1  0  0  0  0  0  0
  1 14  1  0  0  0  0
  1  2  1  0  0  0  0
  1 42  1  0  0  0  0
  3 16  1  6  0  0  0
  4  3  1  0  0  0  0
  4  5  1  0  0  0  0
  6  4  2  0  0  0  0
  7  6  1  0  0  0  0
  8 29  1  1  0  0  0
  9  8  1  0  0  0  0
 10  9  1  0  0  0  0
 11 45  1  0  0  0  0
 11  9  2  0  0  0  0
 12 11  1  0  0  0  0
 13  1  1  0  0  0  0
 14 49  1  0  0  0  0
 15  1  1  0  0  0  0
 16 17  1  0  0  0  0
 16 25  1  0  0  0  0
 17 18  1  0  0  0  0
 17 20  1  0  0  0  0
 19 17  1  0  0  0  0
 21 16  1  0  0  0  0
 21 24  1  0  0  0  0
 22 21  1  0  0  0  0
 23 21  1  0  0  0  0
 25 27  1  0  0  0  0
 25 28  1  0  0  0  0
 26 25  1  0  0  0  0
 29 34  1  0  0  0  0
 29 30  1  0  0  0  0
 30 32  1  0  0  0  0
 30 33  1  0  0  0  0
 31 30  1  0  0  0  0
 34 36  1  0  0  0  0
 34 35  1  0  0  0  0
 37 34  1  0  0  0  0
 38 39  1  0  0  0  0
 38 29  1  0  0  0  0
 40 38  1  0  0  0  0
 41 38  1  0  0  0  0
 42  6  1  0  0  0  0
 42 43  1  0  0  0  0
 43  3  1  0  0  0  0
 44 43  1  0  0  0  0
 45  1  1  0  0  0  0
 45 46  1  0  0  0  0
 46  8  1  0  0  0  0
 46 47  1  0  0  0  0
 48 13  1  0  0  0  0
 50 15  1  0  0  0  0
M  END
$$$$
