CSD_code = MOWZON | q = 0 | S = 0 | Stoichiometry = C28H29Cl2O2P2ReS | MND = 6
 OpenBabel04212202073D

 65 69  0  0  0  0  0  0  0  0999 V2000
    1.8773    3.4482    4.2361 Re  0  0  0  0  0  0  0  0  0  0  0  0
    1.6680    4.7653    6.2228 Cl  0  0  0  0  0  0  0  0  0  0  0  0
    3.4653    4.8271    3.0967 Cl  0  0  0  0  0  0  0  0  0  0  0  0
   -0.2889    0.3612    2.9341 S   0  0  0  0  0  0  0  0  0  0  0  0
    2.0635    2.2032    2.1282 P   0  0  0  0  0  4  0  0  0  0  0  0
    0.1442    2.1662    5.4105 P   0  0  0  0  0  4  0  0  0  0  0  0
    3.0597    2.4898    4.9085 O   0  0  0  0  0  1  0  0  0  0  0  0
    0.5799    4.4000    3.4955 O   0  0  0  0  0  0  0  0  0  0  0  0
    1.4067    0.4761    2.2784 C   0  0  0  0  0  0  0  0  0  0  0  0
   -0.0422    0.4492    4.7367 C   0  0  0  0  0  0  0  0  0  0  0  0
   -0.2284    5.3943    3.0235 C   0  0  0  0  0  0  0  0  0  0  0  0
    0.2098    6.7532    3.5738 C   0  0  0  0  0  0  0  0  0  0  0  0
    1.1907    2.9615    0.7424 C   0  0  0  0  0  0  0  0  0  0  0  0
    1.7649    4.1178    0.2119 C   0  0  0  0  0  0  0  0  0  0  0  0
    1.1277    4.7936   -0.8113 C   0  0  0  0  0  0  0  0  0  0  0  0
   -0.0819    4.3280   -1.3051 C   0  0  0  0  0  0  0  0  0  0  0  0
   -0.6568    3.1870   -0.7703 C   0  0  0  0  0  0  0  0  0  0  0  0
   -0.0286    2.5023    0.2560 C   0  0  0  0  0  0  0  0  0  0  0  0
    3.7283    1.8502    1.5087 C   0  0  0  0  0  0  0  0  0  0  0  0
    4.7933    1.8352    2.4028 C   0  0  0  0  0  0  0  0  0  0  0  0
    6.0668    1.5488    1.9458 C   0  0  0  0  0  0  0  0  0  0  0  0
    6.2776    1.2752    0.6039 C   0  0  0  0  0  0  0  0  0  0  0  0
    5.2149    1.2857   -0.2857 C   0  0  0  0  0  0  0  0  0  0  0  0
    3.9382    1.5719    0.1613 C   0  0  0  0  0  0  0  0  0  0  0  0
   -1.4890    2.9291    5.3303 C   0  0  0  0  0  0  0  0  0  0  0  0
   -1.6693    4.0805    6.0985 C   0  0  0  0  0  0  0  0  0  0  0  0
   -2.8650    4.7697    6.0327 C   0  0  0  0  0  0  0  0  0  0  0  0
   -3.8814    4.3217    5.2019 C   0  0  0  0  0  0  0  0  0  0  0  0
   -3.6991    3.1835    4.4338 C   0  0  0  0  0  0  0  0  0  0  0  0
   -2.5044    2.4861    4.4893 C   0  0  0  0  0  0  0  0  0  0  0  0
    0.4216    1.7850    7.1585 C   0  0  0  0  0  0  0  0  0  0  0  0
   -0.6479    1.5131    8.0061 C   0  0  0  0  0  0  0  0  0  0  0  0
   -0.4058    1.2019    9.3315 C   0  0  0  0  0  0  0  0  0  0  0  0
    0.8940    1.1603    9.8103 C   0  0  0  0  0  0  0  0  0  0  0  0
    1.9582    1.4285    8.9644 C   0  0  0  0  0  0  0  0  0  0  0  0
    1.7266    1.7399    7.6372 C   0  0  0  0  0  0  0  0  0  0  0  0
    1.3833   -0.0036    1.2971 H   0  0  0  0  0  0  0  0  0  0  0  0
    2.0706   -0.0832    2.9422 H   0  0  0  0  0  0  0  0  0  0  0  0
    0.8601   -0.1139    4.9880 H   0  0  0  0  0  0  0  0  0  0  0  0
   -0.9120   -0.0377    5.1839 H   0  0  0  0  0  0  0  0  0  0  0  0
    2.6953    4.4830    0.6275 H   0  0  0  0  0  0  0  0  0  0  0  0
    1.5720    5.6888   -1.2202 H   0  0  0  0  0  0  0  0  0  0  0  0
   -0.5803    4.8587   -2.1030 H   0  0  0  0  0  0  0  0  0  0  0  0
   -1.6022    2.8279   -1.1498 H   0  0  0  0  0  0  0  0  0  0  0  0
   -0.4927    1.6204    0.6737 H   0  0  0  0  0  0  0  0  0  0  0  0
    4.6140    2.0724    3.4442 H   0  0  0  0  0  0  0  0  0  0  0  0
    6.8970    1.5480    2.6355 H   0  0  0  0  0  0  0  0  0  0  0  0
    7.2736    1.0588    0.2470 H   0  0  0  0  0  0  0  0  0  0  0  0
    5.3819    1.0756   -1.3319 H   0  0  0  0  0  0  0  0  0  0  0  0
    3.1084    1.5925   -0.5323 H   0  0  0  0  0  0  0  0  0  0  0  0
   -0.8558    4.4314    6.7205 H   0  0  0  0  0  0  0  0  0  0  0  0
   -3.0026    5.6622    6.6246 H   0  0  0  0  0  0  0  0  0  0  0  0
   -4.8139    4.8639    5.1477 H   0  0  0  0  0  0  0  0  0  0  0  0
   -4.4878    2.8380    3.7816 H   0  0  0  0  0  0  0  0  0  0  0  0
   -2.3680    1.6080    3.8744 H   0  0  0  0  0  0  0  0  0  0  0  0
   -1.2725    5.1817    3.3152 H   0  0  0  0  0  0  0  0  0  0  0  0
   -0.1810    5.4004    1.9201 H   0  0  0  0  0  0  0  0  0  0  0  0
   -1.6617    1.5579    7.6314 H   0  0  0  0  0  0  0  0  0  0  0  0
   -1.2341    0.9969    9.9938 H   0  0  0  0  0  0  0  0  0  0  0  0
    1.0759    0.9244   10.8484 H   0  0  0  0  0  0  0  0  0  0  0  0
    2.9692    1.4038    9.3416 H   0  0  0  0  0  0  0  0  0  0  0  0
    2.5445    1.9750    6.9672 H   0  0  0  0  0  0  0  0  0  0  0  0
    0.1599    6.7407    4.6607 H   0  0  0  0  0  0  0  0  0  0  0  0
   -0.4343    7.5371    3.1853 H   0  0  0  0  0  0  0  0  0  0  0  0
    1.2395    6.9453    3.2785 H   0  0  0  0  0  0  0  0  0  0  0  0
  1  7  1  0  0  0  0
  1  6  1  0  0  0  0
  1  2  1  0  0  0  0
  3  1  1  0  0  0  0
  4 10  1  0  0  0  0
  5  9  1  0  0  0  0
  5  1  1  0  0  0  0
  6 31  1  0  0  0  0
  8  1  1  0  0  0  0
  9  4  1  0  0  0  0
  9 38  1  0  0  0  0
 10 39  1  0  0  0  0
 10 40  1  0  0  0  0
 10  6  1  0  0  0  0
 11 56  1  0  0  0  0
 11  8  1  0  0  0  0
 11 12  1  0  0  0  0
 12 63  1  0  0  0  0
 13  5  1  0  0  0  0
 14 41  1  0  0  0  0
 14 13  2  0  0  0  0
 15 14  1  0  0  0  0
 16 15  2  0  0  0  0
 16 17  1  0  0  0  0
 17 18  2  0  0  0  0
 18 45  1  0  0  0  0
 18 13  1  0  0  0  0
 19  5  1  0  0  0  0
 19 20  1  0  0  0  0
 20 46  1  0  0  0  0
 21 20  2  0  0  0  0
 21 47  1  0  0  0  0
 22 21  1  0  0  0  0
 23 24  1  0  0  0  0
 23 22  2  0  0  0  0
 24 19  2  0  0  0  0
 25  6  1  0  0  0  0
 25 26  1  0  0  0  0
 26 51  1  0  0  0  0
 27 26  2  0  0  0  0
 27 52  1  0  0  0  0
 28 27  1  0  0  0  0
 29 30  1  0  0  0  0
 29 28  2  0  0  0  0
 30 25  2  0  0  0  0
 31 36  2  0  0  0  0
 31 32  1  0  0  0  0
 32 33  2  0  0  0  0
 33 34  1  0  0  0  0
 33 59  1  0  0  0  0
 34 60  1  0  0  0  0
 35 61  1  0  0  0  0
 35 34  2  0  0  0  0
 36 35  1  0  0  0  0
 37  9  1  0  0  0  0
 42 15  1  0  0  0  0
 43 16  1  0  0  0  0
 44 17  1  0  0  0  0
 48 22  1  0  0  0  0
 49 23  1  0  0  0  0
 50 24  1  0  0  0  0
 53 28  1  0  0  0  0
 54 29  1  0  0  0  0
 55 30  1  0  0  0  0
 57 11  1  0  0  0  0
 58 32  1  0  0  0  0
 62 36  1  0  0  0  0
 64 12  1  0  0  0  0
 65 12  1  0  0  0  0
M  END
$$$$
