CSD_code = MOXZEE | q = 0 | S = 0 | Stoichiometry = C14H21IN4SZn | MND = 4
 OpenBabel04212202073D

 42 45  0  0  1  0  0  0  0  0999 V2000
    0.3516    2.6556    2.2819 Zn  0  0  2  0  0  0  0  0  0  0  0  0
    0.8338    4.8537    1.8279 S   0  0  0  0  0  0  0  0  0  0  0  0
    0.8975    0.7320    3.7901 I   0  0  0  0  0  0  0  0  0  0  0  0
    0.5163    2.1012    0.2516 N   0  0  0  0  0  0  0  0  0  0  0  0
   -0.1737    2.8817   -0.5959 N   0  0  2  0  0  0  0  0  0  0  0  0
   -1.7217    2.7758    1.9376 N   0  0  0  0  0  0  0  0  0  0  0  0
   -2.0588    3.3291    0.7615 N   0  0  1  0  0  0  0  0  0  0  0  0
   -0.5041    3.2247   -3.0626 C   0  0  0  0  0  0  0  0  0  0  0  0
    0.1110    2.5664   -1.8821 C   0  0  2  0  0  3  0  0  0  0  0  0
    1.0354    1.5453   -1.8374 C   0  0  0  0  0  0  0  0  0  0  0  0
    1.2625    1.2853   -0.4798 C   0  0  0  0  0  0  0  0  0  0  0  0
    2.1682    0.2783    0.1237 C   0  0  0  0  0  0  0  0  0  0  0  0
   -4.0964    3.8302   -0.6162 C   0  0  0  0  0  0  0  0  0  0  0  0
   -3.4015    3.3068    0.5872 C   0  0  1  0  0  3  0  0  0  0  0  0
   -3.9321    2.7143    1.7123 C   0  0  0  0  0  0  0  0  0  0  0  0
   -2.8428    2.3969    2.5345 C   0  0  0  0  0  0  0  0  0  0  0  0
   -2.8564    1.7424    3.8645 C   0  0  0  0  0  0  0  0  0  0  0  0
   -1.0752    3.9020   -0.1225 C   0  0  1  0  0  0  0  0  0  0  0  0
   -0.3640    5.1574    0.4690 C   0  0  0  0  0  0  0  0  0  0  0  0
    0.4206    5.8262   -0.6604 C   0  0  0  0  0  0  0  0  0  0  0  0
   -1.4363    6.1118    0.9945 C   0  0  0  0  0  0  0  0  0  0  0  0
   -0.2619    4.2860   -3.0977 H   0  0  0  0  0  0  0  0  0  0  0  0
   -1.5894    3.1164   -3.0538 H   0  0  0  0  0  0  0  0  0  0  0  0
   -0.1224    2.7560   -3.9653 H   0  0  0  0  0  0  0  0  0  0  0  0
    1.4878    1.0509   -2.6720 H   0  0  0  0  0  0  0  0  0  0  0  0
    2.8395    0.7509    0.8390 H   0  0  0  0  0  0  0  0  0  0  0  0
    2.7561   -0.2055   -0.6514 H   0  0  0  0  0  0  0  0  0  0  0  0
    1.5963   -0.4778    0.6603 H   0  0  0  0  0  0  0  0  0  0  0  0
   -3.9001    4.8925   -0.7588 H   0  0  0  0  0  0  0  0  0  0  0  0
   -5.1670    3.6944   -0.4924 H   0  0  0  0  0  0  0  0  0  0  0  0
   -3.7852    3.2943   -1.5135 H   0  0  0  0  0  0  0  0  0  0  0  0
   -4.9669    2.5322    1.9165 H   0  0  0  0  0  0  0  0  0  0  0  0
   -2.2047    2.2716    4.5571 H   0  0  0  0  0  0  0  0  0  0  0  0
   -2.4921    0.7183    3.7882 H   0  0  0  0  0  0  0  0  0  0  0  0
   -3.8674    1.7265    4.2617 H   0  0  0  0  0  0  0  0  0  0  0  0
   -1.6263    4.2551   -1.0025 H   0  0  0  0  0  0  0  0  0  0  0  0
    0.9392    6.6935   -0.2608 H   0  0  0  0  0  0  0  0  0  0  0  0
   -0.2411    6.1542   -1.4630 H   0  0  0  0  0  0  0  0  0  0  0  0
    1.1713    5.1477   -1.0608 H   0  0  0  0  0  0  0  0  0  0  0  0
   -1.9832    5.6681    1.8242 H   0  0  0  0  0  0  0  0  0  0  0  0
   -2.1401    6.3891    0.2089 H   0  0  0  0  0  0  0  0  0  0  0  0
   -0.9517    7.0123    1.3619 H   0  0  0  0  0  0  0  0  0  0  0  0
  1  3  1  1  0  0  0
  2  1  1  0  0  0  0
  4  1  1  0  0  0  0
  5 18  1  0  0  0  0
  5  4  1  1  0  0  0
  6  1  1  0  0  0  0
  6 16  1  0  0  0  0
  7  6  1  1  0  0  0
  8 23  1  0  0  0  0
  9  8  1  1  0  0  0
  9 10  1  0  0  0  0
  9  5  1  0  0  0  0
 10 11  2  0  0  0  0
 11 12  1  0  0  0  0
 11  4  1  0  0  0  0
 12 28  1  0  0  0  0
 12 26  1  0  0  0  0
 13 30  1  0  0  0  0
 14 13  1  6  0  0  0
 14  7  1  0  0  0  0
 14 15  1  0  0  0  0
 15 32  1  0  0  0  0
 15 16  2  0  0  0  0
 16 17  1  0  0  0  0
 17 35  1  0  0  0  0
 17 33  1  0  0  0  0
 18 36  1  6  0  0  0
 18 19  1  0  0  0  0
 18  7  1  0  0  0  0
 19 21  1  0  0  0  0
 19  2  1  0  0  0  0
 20 37  1  0  0  0  0
 20 19  1  0  0  0  0
 21 42  1  0  0  0  0
 21 40  1  0  0  0  0
 22  8  1  0  0  0  0
 24  8  1  0  0  0  0
 25 10  1  0  0  0  0
 27 12  1  0  0  0  0
 29 13  1  0  0  0  0
 31 13  1  0  0  0  0
 34 17  1  0  0  0  0
 38 20  1  0  0  0  0
 39 20  1  0  0  0  0
 41 21  1  0  0  0  0
M  END
$$$$
