CSD_code = MOYQIC | q = 0 | S = 0 | Stoichiometry = C21H37Cl2NO2P2Pd | MND = 4
 OpenBabel04212202073D

 66 68  0  0  1  0  0  0  0  0999 V2000
    2.6622   17.1572   13.7894 Pd  0  0  0  0  0  0  0  0  0  0  0  0
    0.4677   16.6786   13.6215 P   0  0  1  0  0  4  0  0  0  0  0  0
    1.0731   19.4896   14.2913 P   0  0  0  0  0  4  0  0  0  0  0  0
    4.8262   17.7978   13.6732 Cl  0  0  0  0  0  0  0  0  0  0  0  0
    3.3084   15.1109   14.3775 Cl  0  0  0  0  0  0  0  0  0  0  0  0
    0.8466   15.6666   10.4617 N   0  0  0  0  0  0  0  0  0  0  0  0
    2.0488   19.1104   13.2323 O   0  0  0  0  0  0  0  0  0  0  0  0
   -1.4240   18.5697   13.5296 O   0  0  0  0  0  0  0  0  0  0  0  0
   -0.3300   18.2054   14.3395 C   0  0  1  0  0  0  0  0  0  0  0  0
   -0.7054   18.0848   15.3606 H   0  0  0  0  0  0  0  0  0  0  0  0
   -1.3542   18.0069   12.2860 C   0  0  0  0  0  0  0  0  0  0  0  0
   -2.2835   18.3435   11.3201 C   0  0  0  0  0  0  0  0  0  0  0  0
   -3.0611   19.0560   11.5398 H   0  0  0  0  0  0  0  0  0  0  0  0
   -2.1809   17.7222   10.0842 C   0  0  0  0  0  0  0  0  0  0  0  0
   -2.9005   17.9575    9.3149 H   0  0  0  0  0  0  0  0  0  0  0  0
   -1.1583   16.8429    9.8062 C   0  0  0  0  0  0  0  0  0  0  0  0
   -1.0887   16.4276    8.8148 H   0  0  0  0  0  0  0  0  0  0  0  0
   -0.1829   16.5117   10.7655 C   0  0  0  0  0  0  0  0  0  0  0  0
   -0.3378   17.0742   12.0502 C   0  0  0  0  0  0  0  0  0  0  0  0
    2.1860   15.8714   10.9772 C   0  0  0  0  0  0  0  0  0  0  0  0
    2.3235   16.9192   11.3065 H   0  0  0  0  0  0  0  0  0  0  0  0
    2.9028   15.6928   10.1728 H   0  0  0  0  0  0  0  0  0  0  0  0
    2.4192   15.1766   11.8001 H   0  0  0  0  0  0  0  0  0  0  0  0
    0.7714   14.7964    9.3135 C   0  0  0  0  0  0  0  0  0  0  0  0
    1.0760   15.2930    8.3843 H   0  0  0  0  0  0  0  0  0  0  0  0
   -0.2418   14.4147    9.1965 H   0  0  0  0  0  0  0  0  0  0  0  0
    1.4340   13.9479    9.4846 H   0  0  0  0  0  0  0  0  0  0  0  0
   -0.4941   15.1974   14.2642 C   0  0  0  0  0  0  0  0  0  0  0  0
   -2.0015   15.3696   14.1046 C   0  0  0  0  0  0  0  0  0  0  0  0
   -2.5093   14.4963   14.5111 H   0  0  0  0  0  0  0  0  0  0  0  0
   -2.2762   15.4642   13.0554 H   0  0  0  0  0  0  0  0  0  0  0  0
   -2.3656   16.2478   14.6358 H   0  0  0  0  0  0  0  0  0  0  0  0
    0.0087   14.0107   13.4426 C   0  0  0  0  0  0  0  0  0  0  0  0
   -0.2137   14.1503   12.3857 H   0  0  0  0  0  0  0  0  0  0  0  0
   -0.4720   13.0932   13.7772 H   0  0  0  0  0  0  0  0  0  0  0  0
    1.0855   13.9043   13.5755 H   0  0  0  0  0  0  0  0  0  0  0  0
   -0.1102   15.0069   15.7301 C   0  0  0  0  0  0  0  0  0  0  0  0
   -0.4957   14.0561   16.0932 H   0  0  0  0  0  0  0  0  0  0  0  0
   -0.5261   15.7963   16.3561 H   0  0  0  0  0  0  0  0  0  0  0  0
    0.9765   14.9931   15.8292 H   0  0  0  0  0  0  0  0  0  0  0  0
    0.3486   21.1452   13.7526 C   0  0  0  0  0  0  0  0  0  0  0  0
    1.4051   22.2243   13.9853 C   0  0  0  0  0  0  0  0  0  0  0  0
    1.1168   23.1351   13.4615 H   0  0  0  0  0  0  0  0  0  0  0  0
    2.3649   21.8964   13.5887 H   0  0  0  0  0  0  0  0  0  0  0  0
    1.5158   22.4722   15.0379 H   0  0  0  0  0  0  0  0  0  0  0  0
   -0.9662   21.5009   14.4365 C   0  0  0  0  0  0  0  0  0  0  0  0
   -1.3593   22.4141   13.9909 H   0  0  0  0  0  0  0  0  0  0  0  0
   -0.8412   21.6774   15.5002 H   0  0  0  0  0  0  0  0  0  0  0  0
   -1.7021   20.7139   14.2963 H   0  0  0  0  0  0  0  0  0  0  0  0
    0.1332   21.0305   12.2416 C   0  0  0  0  0  0  0  0  0  0  0  0
    1.0506   20.7114   11.7511 H   0  0  0  0  0  0  0  0  0  0  0  0
   -0.1481   22.0029   11.8397 H   0  0  0  0  0  0  0  0  0  0  0  0
   -0.6558   20.3268   11.9957 H   0  0  0  0  0  0  0  0  0  0  0  0
    1.8416   19.4989   16.0368 C   0  0  0  0  0  0  0  0  0  0  0  0
    2.0019   18.0793   16.6027 C   0  0  0  0  0  0  0  0  0  0  0  0
    2.3028   18.1585   17.6475 H   0  0  0  0  0  0  0  0  0  0  0  0
    2.8075   17.5233   16.0845 H   0  0  0  0  0  0  0  0  0  0  0  0
    1.0747   17.5061   16.5706 H   0  0  0  0  0  0  0  0  0  0  0  0
    3.2375   20.1063   15.9174 C   0  0  0  0  0  0  0  0  0  0  0  0
    3.7641   19.9996   16.8648 H   0  0  0  0  0  0  0  0  0  0  0  0
    3.2106   21.1618   15.6645 H   0  0  0  0  0  0  0  0  0  0  0  0
    3.8139   19.5777   15.1524 H   0  0  0  0  0  0  0  0  0  0  0  0
    0.9573   20.2934   16.9968 C   0  0  0  0  0  0  0  0  0  0  0  0
    0.9294   21.3480   16.7401 H   0  0  0  0  0  0  0  0  0  0  0  0
    1.3578   20.2148   18.0067 H   0  0  0  0  0  0  0  0  0  0  0  0
   -0.0603   19.9057   17.0065 H   0  0  0  0  0  0  0  0  0  0  0  0
  1  5  1  0  0  0  0
  2  1  1  0  0  0  0
  2 28  1  1  0  0  0
  2  9  1  0  0  0  0
  3  9  1  0  0  0  0
  3 54  1  0  0  0  0
  4  1  1  0  0  0  0
  6 18  1  0  0  0  0
  6 20  1  0  0  0  0
  7  1  1  0  0  0  0
  7  3  1  0  0  0  0
  8  9  1  0  0  0  0
  9 10  1  1  0  0  0
 11  8  1  0  0  0  0
 12 13  1  0  0  0  0
 12 11  2  0  0  0  0
 14 12  1  0  0  0  0
 15 14  1  0  0  0  0
 16 14  2  0  0  0  0
 16 18  1  0  0  0  0
 17 16  1  0  0  0  0
 18 19  2  0  0  0  0
 19 11  1  0  0  0  0
 19  2  1  0  0  0  0
 20 21  1  0  0  0  0
 20 23  1  0  0  0  0
 22 20  1  0  0  0  0
 24 27  1  0  0  0  0
 24  6  1  0  0  0  0
 25 24  1  0  0  0  0
 26 24  1  0  0  0  0
 28 37  1  0  0  0  0
 29 28  1  0  0  0  0
 29 30  1  0  0  0  0
 29 32  1  0  0  0  0
 31 29  1  0  0  0  0
 33 36  1  0  0  0  0
 33 35  1  0  0  0  0
 33 28  1  0  0  0  0
 34 33  1  0  0  0  0
 37 40  1  0  0  0  0
 37 38  1  0  0  0  0
 37 39  1  0  0  0  0
 41 42  1  0  0  0  0
 41  3  1  0  0  0  0
 41 46  1  0  0  0  0
 42 45  1  0  0  0  0
 43 42  1  0  0  0  0
 44 42  1  0  0  0  0
 46 48  1  0  0  0  0
 47 46  1  0  0  0  0
 49 46  1  0  0  0  0
 50 41  1  0  0  0  0
 51 50  1  0  0  0  0
 52 50  1  0  0  0  0
 53 50  1  0  0  0  0
 54 55  1  0  0  0  0
 54 63  1  0  0  0  0
 55 56  1  0  0  0  0
 57 55  1  0  0  0  0
 58 55  1  0  0  0  0
 59 54  1  0  0  0  0
 59 60  1  0  0  0  0
 61 59  1  0  0  0  0
 62 59  1  0  0  0  0
 63 66  1  0  0  0  0
 63 65  1  0  0  0  0
 64 63  1  0  0  0  0
M  END
$$$$
