CSD_code = MOYWIG | q = 0 | S = 0 | Stoichiometry = C18H24Cl2N2Pd | MND = 4
 OpenBabel04212202073D

 47 49  0  0  0  0  0  0  0  0999 V2000
    3.7882   11.1575   14.5751 Pd  0  0  0  0  0  0  0  0  0  0  0  0
    3.8340   13.3705   14.6765 Cl  0  0  0  0  0  0  0  0  0  0  0  0
    3.4286   11.0886   16.7604 Cl  0  0  0  0  0  0  0  0  0  0  0  0
    3.7718    9.1641   14.3360 N   0  0  0  0  0  0  0  0  0  0  0  0
    3.5860    8.2509   15.2882 C   0  0  0  0  0  0  0  0  0  0  0  0
    3.4308    8.6405   16.2886 H   0  0  0  0  0  0  0  0  0  0  0  0
    3.5884    6.8966   15.0301 C   0  0  0  0  0  0  0  0  0  0  0  0
    3.4314    6.2149   15.8494 H   0  0  0  0  0  0  0  0  0  0  0  0
    3.7909    6.4274   13.7288 C   0  0  0  0  0  0  0  0  0  0  0  0
    3.9842    7.3905   12.7489 C   0  0  0  0  0  0  0  0  0  0  0  0
    4.1462    7.0985   11.7266 H   0  0  0  0  0  0  0  0  0  0  0  0
    3.9716    8.7481   13.0674 C   0  0  0  0  0  0  0  0  0  0  0  0
    4.1644    9.8202   12.0887 C   0  0  0  0  0  0  0  0  0  0  0  0
    4.3871    9.6037   10.7292 C   0  0  0  0  0  0  0  0  0  0  0  0
    4.4253    8.5929   10.3637 H   0  0  0  0  0  0  0  0  0  0  0  0
    4.5571   10.6693    9.8570 C   0  0  0  0  0  0  0  0  0  0  0  0
    4.4907   11.9482   10.4179 C   0  0  0  0  0  0  0  0  0  0  0  0
    4.6092   12.8295    9.8096 H   0  0  0  0  0  0  0  0  0  0  0  0
    4.2710   12.1038   11.7700 C   0  0  0  0  0  0  0  0  0  0  0  0
    4.2178   13.0847   12.2299 H   0  0  0  0  0  0  0  0  0  0  0  0
    4.1107   11.0703   12.5954 N   0  0  0  0  0  0  0  0  0  0  0  0
    3.7916    4.9380   13.4463 C   0  0  0  0  0  0  0  0  0  0  0  0
    2.4326    4.3578   13.8632 C   0  0  0  0  0  0  0  0  0  0  0  0
    2.4057    3.2913   13.6531 H   0  0  0  0  0  0  0  0  0  0  0  0
    1.6292    4.8384   13.3089 H   0  0  0  0  0  0  0  0  0  0  0  0
    2.2479    4.4993   14.9241 H   0  0  0  0  0  0  0  0  0  0  0  0
    4.0216    4.6193   11.9669 C   0  0  0  0  0  0  0  0  0  0  0  0
    4.9879    4.9885   11.6305 H   0  0  0  0  0  0  0  0  0  0  0  0
    3.2362    5.0451   11.3462 H   0  0  0  0  0  0  0  0  0  0  0  0
    4.0098    3.5411   11.8255 H   0  0  0  0  0  0  0  0  0  0  0  0
    4.9128    4.2831   14.2656 C   0  0  0  0  0  0  0  0  0  0  0  0
    5.8773    4.7081   13.9956 H   0  0  0  0  0  0  0  0  0  0  0  0
    4.9399    3.2144   14.0672 H   0  0  0  0  0  0  0  0  0  0  0  0
    4.7626    4.4269   15.3316 H   0  0  0  0  0  0  0  0  0  0  0  0
    4.7970   10.4999    8.3697 C   0  0  0  0  0  0  0  0  0  0  0  0
    6.1253   11.1761    8.0018 C   0  0  0  0  0  0  0  0  0  0  0  0
    6.9454   10.7291    8.5596 H   0  0  0  0  0  0  0  0  0  0  0  0
    6.1046   12.2401    8.2183 H   0  0  0  0  0  0  0  0  0  0  0  0
    6.3223   11.0501    6.9400 H   0  0  0  0  0  0  0  0  0  0  0  0
    3.6422   11.1689    7.6104 C   0  0  0  0  0  0  0  0  0  0  0  0
    2.6938   10.7102    7.8824 H   0  0  0  0  0  0  0  0  0  0  0  0
    3.7866   11.0517    6.5392 H   0  0  0  0  0  0  0  0  0  0  0  0
    3.5839   12.2307    7.8319 H   0  0  0  0  0  0  0  0  0  0  0  0
    4.8695    9.0301    7.9485 C   0  0  0  0  0  0  0  0  0  0  0  0
    3.9342    8.5144    8.1549 H   0  0  0  0  0  0  0  0  0  0  0  0
    5.6843    8.5164    8.4540 H   0  0  0  0  0  0  0  0  0  0  0  0
    5.0519    8.9716    6.8780 H   0  0  0  0  0  0  0  0  0  0  0  0
  1  2  1  0  0  0  0
  1  3  1  0  0  0  0
  4  1  1  0  0  0  0
  4  5  1  0  0  0  0
  5  6  1  0  0  0  0
  7  5  2  0  0  0  0
  7  8  1  0  0  0  0
  9  7  1  0  0  0  0
 10 12  1  0  0  0  0
 10  9  2  0  0  0  0
 11 10  1  0  0  0  0
 12  4  1  0  0  0  0
 13 21  1  0  0  0  0
 13 12  2  0  0  0  0
 14 13  1  0  0  0  0
 15 14  1  0  0  0  0
 16 17  1  0  0  0  0
 16 14  2  0  0  0  0
 17 19  2  0  0  0  0
 18 17  1  0  0  0  0
 19 20  1  0  0  0  0
 19 21  1  0  0  0  0
 21  1  1  0  0  0  0
 22  9  1  0  0  0  0
 22 23  1  0  0  0  0
 22 31  1  0  0  0  0
 23 26  1  0  0  0  0
 24 23  1  0  0  0  0
 25 23  1  0  0  0  0
 27 22  1  0  0  0  0
 28 27  1  0  0  0  0
 29 27  1  0  0  0  0
 30 27  1  0  0  0  0
 31 34  1  0  0  0  0
 32 31  1  0  0  0  0
 33 31  1  0  0  0  0
 35 16  1  0  0  0  0
 36 38  1  0  0  0  0
 36 35  1  0  0  0  0
 36 37  1  0  0  0  0
 39 36  1  0  0  0  0
 40 43  1  0  0  0  0
 40 41  1  0  0  0  0
 40 35  1  0  0  0  0
 42 40  1  0  0  0  0
 44 45  1  0  0  0  0
 44 35  1  0  0  0  0
 44 46  1  0  0  0  0
 47 44  1  0  0  0  0
M  END
$$$$
