CSD_code = MOZXOO | q = 0 | S = 0 | Stoichiometry = C26H23ClNPPd | MND = 4
 OpenBabel04212202073D

 53 57  0  0  0  0  0  0  0  0999 V2000
    2.6018    2.3197    2.9605 Pd  0  0  2  0  0  0  0  0  0  0  0  0
    4.3282    1.2277    3.0849 C   0  0  0  0  0  0  0  0  0  0  0  0
    4.4487    0.7294    4.0542 H   0  0  0  0  0  0  0  0  0  0  0  0
    5.2089    1.8441    2.8873 H   0  0  0  0  0  0  0  0  0  0  0  0
    4.2394    0.4734    2.2896 H   0  0  0  0  0  0  0  0  0  0  0  0
    1.7171    1.8789    4.9901 P   0  0  0  0  0  4  0  0  0  0  0  0
    0.6252    3.3568    2.7838 N   0  0  0  0  0  0  0  0  0  0  0  0
    0.6103    3.3320    5.1515 C   0  0  0  0  0  0  0  0  0  0  0  0
    0.2283    3.8604    6.3761 C   0  0  0  0  0  0  0  0  0  0  0  0
    0.5269    3.3606    7.2872 H   0  0  0  0  0  0  0  0  0  0  0  0
   -0.5154    5.0265    6.4286 C   0  0  0  0  0  0  0  0  0  0  0  0
   -0.8062    5.4378    7.3835 H   0  0  0  0  0  0  0  0  0  0  0  0
   -0.8647    5.6805    5.2564 C   0  0  0  0  0  0  0  0  0  0  0  0
   -1.4205    6.6052    5.3015 H   0  0  0  0  0  0  0  0  0  0  0  0
   -0.5046    5.1610    4.0275 C   0  0  0  0  0  0  0  0  0  0  0  0
   -0.7572    5.6911    3.1209 H   0  0  0  0  0  0  0  0  0  0  0  0
    0.2251    3.9738    3.9610 C   0  0  0  0  0  0  0  0  0  0  0  0
    0.0098    3.4440    1.6684 C   0  0  0  0  0  3  0  0  0  0  0  0
   -0.8809    4.0681    1.5418 H   0  0  0  0  0  0  0  0  0  0  0  0
    0.4773    2.6976    0.5143 C   0  0  0  0  0  0  0  0  0  0  0  0
    0.3500    3.2374   -0.7655 C   0  0  0  0  0  0  0  0  0  0  0  0
   -0.1273    4.1986   -0.8922 H   0  0  0  0  0  0  0  0  0  0  0  0
    0.8828    2.5769   -1.8554 C   0  0  0  0  0  0  0  0  0  0  0  0
    0.8066    3.0160   -2.8390 H   0  0  0  0  0  0  0  0  0  0  0  0
    1.5231    1.3597   -1.6864 C   0  0  0  0  0  0  0  0  0  0  0  0
    1.9481    0.8515   -2.5389 H   0  0  0  0  0  0  0  0  0  0  0  0
    1.6084    0.7871   -0.4266 C   0  0  0  0  0  0  0  0  0  0  0  0
    2.0830   -0.1754   -0.3020 H   0  0  0  0  0  0  0  0  0  0  0  0
    1.0941    1.4462    0.6758 C   0  0  0  0  0  0  0  0  0  0  0  0
    1.0885    0.9468    1.6558 H   0  0  0  0  0  0  0  0  0  0  0  0
    2.9318    2.3213    6.2741 C   0  0  0  0  0  0  0  0  0  0  0  0
    2.9060    1.8630    7.5855 C   0  0  0  0  0  0  0  0  0  0  0  0
    2.1508    1.1555    7.9001 H   0  0  0  0  0  0  0  0  0  0  0  0
    3.8593    2.3072    8.4860 C   0  0  0  0  0  0  0  0  0  0  0  0
    3.8426    1.9459    9.5042 H   0  0  0  0  0  0  0  0  0  0  0  0
    4.8296    3.2109    8.0868 C   0  0  0  0  0  0  0  0  0  0  0  0
    5.5705    3.5521    8.7947 H   0  0  0  0  0  0  0  0  0  0  0  0
    4.8545    3.6739    6.7797 C   0  0  0  0  0  0  0  0  0  0  0  0
    5.6138    4.3760    6.4690 H   0  0  0  0  0  0  0  0  0  0  0  0
    3.9113    3.2296    5.8731 C   0  0  0  0  0  0  0  0  0  0  0  0
    3.9294    3.5733    4.8320 H   0  0  0  0  0  0  0  0  0  0  0  0
    0.7690    0.5165    5.7303 C   0  0  0  0  0  0  0  0  0  0  0  0
    1.4579   -0.6666    5.9938 C   0  0  0  0  0  0  0  0  0  0  0  0
    2.5212   -0.7108    5.7947 H   0  0  0  0  0  0  0  0  0  0  0  0
    0.7896   -1.7616    6.5053 C   0  0  0  0  0  0  0  0  0  0  0  0
    1.3289   -2.6732    6.7177 H   0  0  0  0  0  0  0  0  0  0  0  0
   -0.5755   -1.6910    6.7401 C   0  0  0  0  0  0  0  0  0  0  0  0
   -1.0993   -2.5471    7.1387 H   0  0  0  0  0  0  0  0  0  0  0  0
   -1.2687   -0.5263    6.4557 C   0  0  0  0  0  0  0  0  0  0  0  0
   -2.3337   -0.4751    6.6301 H   0  0  0  0  0  0  0  0  0  0  0  0
   -0.6030    0.5752    5.9469 C   0  0  0  0  0  0  0  0  0  0  0  0
   -1.1462    1.4834    5.7230 H   0  0  0  0  0  0  0  0  0  0  0  0
    3.5399    3.5302    1.3096 Cl  0  0  0  0  0  0  0  0  0  0  0  0
  1 53  1  1  0  0  0
  1  2  1  0  0  0  0
  1  6  1  0  0  0  0
  2  3  1  0  0  0  0
  4  2  1  0  0  0  0
  5  2  1  0  0  0  0
  6  8  1  0  0  0  0
  6 42  1  0  0  0  0
  6 31  1  0  0  0  0
  7  1  1  0  0  0  0
  7 17  1  0  0  0  0
  8  9  1  0  0  0  0
  9 11  2  0  0  0  0
  9 10  1  0  0  0  0
 11 12  1  0  0  0  0
 13 14  1  0  0  0  0
 13 11  1  0  0  0  0
 15 13  2  0  0  0  0
 16 15  1  0  0  0  0
 17 15  1  0  0  0  0
 17  8  2  0  0  0  0
 18  7  1  0  0  0  0
 19 18  1  0  0  0  0
 20 29  1  0  0  0  0
 20 18  1  0  0  0  0
 21 20  2  0  0  0  0
 22 21  1  0  0  0  0
 23 25  2  0  0  0  0
 23 21  1  0  0  0  0
 24 23  1  0  0  0  0
 25 27  1  0  0  0  0
 26 25  1  0  0  0  0
 27 28  1  0  0  0  0
 27 29  2  0  0  0  0
 29 30  1  0  0  0  0
 31 32  1  0  0  0  0
 32 33  1  0  0  0  0
 32 34  2  0  0  0  0
 34 35  1  0  0  0  0
 36 34  1  0  0  0  0
 36 37  1  0  0  0  0
 38 36  2  0  0  0  0
 39 38  1  0  0  0  0
 40 31  2  0  0  0  0
 40 38  1  0  0  0  0
 41 40  1  0  0  0  0
 42 51  2  0  0  0  0
 42 43  1  0  0  0  0
 43 45  2  0  0  0  0
 44 43  1  0  0  0  0
 45 46  1  0  0  0  0
 45 47  1  0  0  0  0
 47 48  1  0  0  0  0
 49 50  1  0  0  0  0
 49 47  2  0  0  0  0
 51 49  1  0  0  0  0
 52 51  1  0  0  0  0
M  END
$$$$
