CSD_code = MOZYUX | q = 0 | S = 0 | Stoichiometry = C19H14Br3N2O3Re | MND = 6
 OpenBabel04212202073D

 42 44  0  0  0  0  0  0  0  0999 V2000
   13.7048    5.0109   -0.9488 Re  0  0  0  0  0  0  0  0  0  0  0  0
   13.8669    2.4415   -0.8438 Br  0  0  0  0  0  0  0  0  0  0  0  0
   18.3692    4.9363    4.6473 Br  0  0  0  0  0  0  0  0  0  0  0  0
    8.2560    3.8947   -5.6642 Br  0  0  0  0  0  0  0  0  0  0  0  0
   16.7894    5.0172   -0.7067 O   0  0  0  0  0  1  0  0  0  0  0  0
   13.5528    4.6810   -4.0215 O   0  0  0  0  0  1  0  0  0  0  0  0
   13.4385    8.0854   -1.0032 O   0  0  0  0  0  1  0  0  0  0  0  0
   13.4155    4.8443    1.1501 N   0  0  0  0  0  0  0  0  0  0  0  0
   11.6263    4.6578   -0.6801 N   0  0  0  0  0  0  0  0  0  0  0  0
   15.6597    5.0759   -0.8626 C   0  0  0  0  0  2  0  0  0  0  0  0
   13.6685    4.8685   -2.9011 C   0  0  0  0  0  2  0  0  0  0  0  0
   13.5524    6.9444   -0.9976 C   0  0  0  0  0  2  0  0  0  0  0  0
   12.2353    4.4910    1.5592 C   0  0  0  0  0  0  0  0  0  0  0  0
   11.2223    4.3864    0.5233 C   0  0  0  0  0  0  0  0  0  0  0  0
   11.8870    4.1958    2.9807 C   0  0  0  0  0  0  0  0  0  0  0  0
   12.7146    4.4371    3.6438 H   0  0  0  0  0  0  0  0  0  0  0  0
   11.6429    3.1398    3.0966 H   0  0  0  0  0  0  0  0  0  0  0  0
   11.0153    4.7747    3.2822 H   0  0  0  0  0  0  0  0  0  0  0  0
    9.8280    3.9859    0.8767 C   0  0  0  0  0  0  0  0  0  0  0  0
    9.4489    4.6150    1.6807 H   0  0  0  0  0  0  0  0  0  0  0  0
    9.8098    2.9530    1.2241 H   0  0  0  0  0  0  0  0  0  0  0  0
    9.1662    4.0768    0.0186 H   0  0  0  0  0  0  0  0  0  0  0  0
   14.5244    4.8667    2.0122 C   0  0  0  0  0  0  0  0  0  0  0  0
   14.9865    3.6911    2.6029 C   0  0  0  0  0  0  0  0  0  0  0  0
   14.4753    2.7584    2.4149 H   0  0  0  0  0  0  0  0  0  0  0  0
   16.1338    3.7089    3.3716 C   0  0  0  0  0  0  0  0  0  0  0  0
   16.5049    2.7969    3.8122 H   0  0  0  0  0  0  0  0  0  0  0  0
   16.8031    4.9054    3.5676 C   0  0  0  0  0  0  0  0  0  0  0  0
   16.3543    6.0822    2.9873 C   0  0  0  0  0  0  0  0  0  0  0  0
   16.8911    7.0049    3.1422 H   0  0  0  0  0  0  0  0  0  0  0  0
   15.2220    6.0597    2.1994 C   0  0  0  0  0  0  0  0  0  0  0  0
   14.8686    6.9635    1.7239 H   0  0  0  0  0  0  0  0  0  0  0  0
   10.7958    4.4799   -1.7991 C   0  0  0  0  0  0  0  0  0  0  0  0
   10.3337    3.2105   -2.1445 C   0  0  0  0  0  0  0  0  0  0  0  0
   10.5991    2.3582   -1.5364 H   0  0  0  0  0  0  0  0  0  0  0  0
    9.5942    3.0345   -3.2977 C   0  0  0  0  0  0  0  0  0  0  0  0
    9.2528    2.0502   -3.5775 H   0  0  0  0  0  0  0  0  0  0  0  0
    9.2983    4.1309   -4.0904 C   0  0  0  0  0  0  0  0  0  0  0  0
    9.7515    5.3989   -3.7592 C   0  0  0  0  0  0  0  0  0  0  0  0
    9.5205    6.2419   -4.3913 H   0  0  0  0  0  0  0  0  0  0  0  0
   10.5108    5.5706   -2.6202 C   0  0  0  0  0  0  0  0  0  0  0  0
   10.8877    6.5484   -2.3564 H   0  0  0  0  0  0  0  0  0  0  0  0
  1 10  1  0  0  0  0
  1  2  1  0  0  0  0
  1  9  1  0  0  0  0
  1  8  1  0  0  0  0
  4 38  1  0  0  0  0
  6 11  1  0  0  0  0
  7 12  1  0  0  0  0
  8 13  1  0  0  0  0
  8 23  1  0  0  0  0
  9 14  1  0  0  0  0
 10  5  1  0  0  0  0
 11  1  1  0  0  0  0
 12  1  1  0  0  0  0
 13 15  1  0  0  0  0
 14 19  1  0  0  0  0
 14 13  2  0  0  0  0
 15 17  1  0  0  0  0
 15 18  1  0  0  0  0
 15 16  1  0  0  0  0
 19 21  1  0  0  0  0
 19 20  1  0  0  0  0
 22 19  1  0  0  0  0
 23 31  2  0  0  0  0
 23 24  1  0  0  0  0
 24 26  2  0  0  0  0
 25 24  1  0  0  0  0
 26 28  1  0  0  0  0
 26 27  1  0  0  0  0
 28  3  1  0  0  0  0
 29 30  1  0  0  0  0
 29 28  2  0  0  0  0
 31 29  1  0  0  0  0
 32 31  1  0  0  0  0
 33  9  1  0  0  0  0
 34 33  1  0  0  0  0
 34 35  1  0  0  0  0
 36 34  2  0  0  0  0
 37 36  1  0  0  0  0
 38 39  2  0  0  0  0
 38 36  1  0  0  0  0
 39 41  1  0  0  0  0
 40 39  1  0  0  0  0
 41 42  1  0  0  0  0
 41 33  2  0  0  0  0
M  END
$$$$
