CSD_code = MOZZEI | q = 0 | S = 0 | Stoichiometry = C19H14Br3MnN2O3 | MND = 6
 OpenBabel04212202073D

 42 44  0  0  0  0  0  0  0  0999 V2000
    3.6158    3.7211    0.9091 Br  0  0  0  0  0  0  0  0  0  0  0  0
    8.7925    1.0326    5.6899 Br  0  0  0  0  0  0  0  0  0  0  0  0
   -1.3616    2.2023   -4.5457 Br  0  0  0  0  0  0  0  0  0  0  0  0
    3.2923    1.2689    0.9524 Mn  0  0  0  0  0  0  0  0  0  0  0  0
    3.4059    1.4466    3.8839 O   0  0  0  0  0  1  0  0  0  0  0  0
    0.4053    1.8108    0.8544 O   0  0  0  0  0  1  0  0  0  0  0  0
    2.8152   -1.6123    1.0991 O   0  0  0  0  0  1  0  0  0  0  0  0
    5.2658    1.1444    0.7526 N   0  0  0  0  0  0  0  0  0  0  0  0
    3.5055    1.3464   -1.0238 N   0  0  0  0  0  0  0  0  0  0  0  0
    3.3484    1.3626    2.7433 C   0  0  0  0  0  2  0  0  0  0  0  0
    1.5257    1.5803    0.9051 C   0  0  0  0  0  2  0  0  0  0  0  0
    3.0131   -0.4816    1.0291 C   0  0  0  0  0  2  0  0  0  0  0  0
    5.7383    1.3043   -0.4474 C   0  0  0  0  0  0  0  0  0  0  0  0
    4.7230    1.4205   -1.4720 C   0  0  0  0  0  0  0  0  0  0  0  0
    7.1895    1.3748   -0.7925 C   0  0  0  0  0  0  0  0  0  0  0  0
    7.4424    2.3790   -1.1330 H   0  0  0  0  0  0  0  0  0  0  0  0
    7.4190    0.6809   -1.5996 H   0  0  0  0  0  0  0  0  0  0  0  0
    7.8090    1.1323    0.0676 H   0  0  0  0  0  0  0  0  0  0  0  0
    5.0970    1.6125   -2.9050 C   0  0  0  0  0  0  0  0  0  0  0  0
    4.2252    1.5399   -3.5508 H   0  0  0  0  0  0  0  0  0  0  0  0
    5.8243    0.8609   -3.2081 H   0  0  0  0  0  0  0  0  0  0  0  0
    5.5529    2.5930   -3.0425 H   0  0  0  0  0  0  0  0  0  0  0  0
    6.1204    1.1111    1.8704 C   0  0  0  0  0  0  0  0  0  0  0  0
    6.8285    2.2513    2.2500 C   0  0  0  0  0  0  0  0  0  0  0  0
    6.7263    3.1613    1.6769 H   0  0  0  0  0  0  0  0  0  0  0  0
    7.6089    2.2324    3.3895 C   0  0  0  0  0  0  0  0  0  0  0  0
    8.1430    3.1184    3.6950 H   0  0  0  0  0  0  0  0  0  0  0  0
    7.6974    1.0683    4.1349 C   0  0  0  0  0  0  0  0  0  0  0  0
    7.0009   -0.0730    3.7682 C   0  0  0  0  0  0  0  0  0  0  0  0
    7.0748   -0.9704    4.3622 H   0  0  0  0  0  0  0  0  0  0  0  0
    6.2043   -0.0476    2.6413 C   0  0  0  0  0  0  0  0  0  0  0  0
    5.6447   -0.9255    2.3501 H   0  0  0  0  0  0  0  0  0  0  0  0
    2.4040    1.5383   -1.8783 C   0  0  0  0  0  0  0  0  0  0  0  0
    2.1727    2.7842   -2.4612 C   0  0  0  0  0  0  0  0  0  0  0  0
    2.8486    3.6030   -2.2619 H   0  0  0  0  0  0  0  0  0  0  0  0
    1.0497    2.9850   -3.2399 C   0  0  0  0  0  0  0  0  0  0  0  0
    0.8593    3.9527   -3.6768 H   0  0  0  0  0  0  0  0  0  0  0  0
    0.1718    1.9349   -3.4524 C   0  0  0  0  0  0  0  0  0  0  0  0
    0.3900    0.6907   -2.8809 C   0  0  0  0  0  0  0  0  0  0  0  0
   -0.3061   -0.1159   -3.0500 H   0  0  0  0  0  0  0  0  0  0  0  0
    1.5011    0.4961   -2.0856 C   0  0  0  0  0  0  0  0  0  0  0  0
    1.6778   -0.4646   -1.6224 H   0  0  0  0  0  0  0  0  0  0  0  0
  1  4  1  0  0  0  0
  3 38  1  0  0  0  0
  4 12  1  0  0  0  0
  4 10  1  0  0  0  0
  6 11  1  0  0  0  0
  8  4  1  0  0  0  0
  8 23  1  0  0  0  0
  9  4  1  0  0  0  0
 10  5  1  0  0  0  0
 11  4  1  0  0  0  0
 12  7  1  0  0  0  0
 13  8  1  0  0  0  0
 14  9  1  0  0  0  0
 14 13  2  0  0  0  0
 15 13  1  0  0  0  0
 15 18  1  0  0  0  0
 16 15  1  0  0  0  0
 17 15  1  0  0  0  0
 19 14  1  0  0  0  0
 20 19  1  0  0  0  0
 21 19  1  0  0  0  0
 22 19  1  0  0  0  0
 23 24  2  0  0  0  0
 23 31  1  0  0  0  0
 24 26  1  0  0  0  0
 25 24  1  0  0  0  0
 26 27  1  0  0  0  0
 26 28  2  0  0  0  0
 28  2  1  0  0  0  0
 29 28  1  0  0  0  0
 29 30  1  0  0  0  0
 31 29  2  0  0  0  0
 32 31  1  0  0  0  0
 33  9  1  0  0  0  0
 34 35  1  0  0  0  0
 34 33  2  0  0  0  0
 36 34  1  0  0  0  0
 37 36  1  0  0  0  0
 38 36  2  0  0  0  0
 38 39  1  0  0  0  0
 39 41  2  0  0  0  0
 40 39  1  0  0  0  0
 41 33  1  0  0  0  0
 41 42  1  0  0  0  0
M  END
$$$$
