CSD_code = MPSOPD | q = 0 | S = 0 | Stoichiometry = C15H19ClO2PdS | MND = 6
 OpenBabel04212202073D

 39 39  0  0  1  0  0  0  0  0999 V2000
    3.3073    3.3710  -10.6294 Pd  0  0  0  0  0  0  0  0  0  0  0  0
    5.4158    3.7630  -11.2694 Cl  0  0  0  0  0 15  0  0  0  0  0  0
    3.1416    3.3315  -13.4833 S   0  0  0  0  0  0  0  0  0  0  0  0
    3.0628    2.0243  -12.8421 O   0  0  0  0  0  0  0  0  0  0  0  0
    4.3023    3.6249  -14.2720 O   0  0  0  0  0  0  0  0  0  0  0  0
    1.4765    3.6250   -9.4397 C   0  0  0  0  0  3  0  0  0  0  0  0
    1.2724    2.6368  -10.3734 C   0  0  2  0  0  0  0  0  0  0  0  0
    1.4005    1.1466  -10.1766 C   0  0  0  0  0  0  0  0  0  0  0  0
    2.5182    0.7087   -9.2103 C   0  0  0  0  0  0  0  0  0  0  0  0
    3.7807    1.5175   -9.3922 C   0  0  0  0  0  0  0  0  0  0  0  0
    4.1010    2.6263   -8.6698 C   0  0  0  0  0  0  0  0  0  0  0  0
    3.2431    3.2941   -7.6207 C   0  0  0  0  0  0  0  0  0  0  0  0
    1.7429    3.3763   -7.9693 C   0  0  0  0  0  0  0  0  0  0  0  0
    2.8296    4.5747  -12.2217 C   0  0  0  0  0  0  0  0  0  0  0  0
    1.7094    3.4409  -14.5795 C   0  0  0  0  0  0  0  0  0  0  0  0
    0.6278    2.6044  -14.3808 C   0  0  0  0  0  0  0  0  0  0  0  0
   -0.4867    2.7244  -15.1944 C   0  0  0  0  0  0  0  0  0  0  0  0
   -0.5079    3.6811  -16.1968 C   0  0  0  0  0  0  0  0  0  0  0  0
    0.5833    4.5131  -16.3939 C   0  0  0  0  0  0  0  0  0  0  0  0
    1.6975    4.3947  -15.5799 C   0  0  0  0  0  0  0  0  0  0  0  0
    1.0963    4.6223   -9.6707 H   0  0  0  0  0  0  0  0  0  0  0  0
    0.7185    2.9003  -11.2755 H   0  0  0  0  0  0  0  0  0  0  0  0
    0.4393    0.7386   -9.8438 H   0  0  0  0  0  0  0  0  0  0  0  0
    1.6209    0.7202  -11.1610 H   0  0  0  0  0  0  0  0  0  0  0  0
    2.7431   -0.3404   -9.4131 H   0  0  0  0  0  0  0  0  0  0  0  0
    2.1876    0.7733   -8.1732 H   0  0  0  0  0  0  0  0  0  0  0  0
    4.5626    1.0488   -9.9950 H   0  0  0  0  0  0  0  0  0  0  0  0
    5.1384    2.9641   -8.6782 H   0  0  0  0  0  0  0  0  0  0  0  0
    3.3698    2.7732   -6.6657 H   0  0  0  0  0  0  0  0  0  0  0  0
    3.6243    4.3112   -7.4875 H   0  0  0  0  0  0  0  0  0  0  0  0
    1.3084    4.1970   -7.3944 H   0  0  0  0  0  0  0  0  0  0  0  0
    1.2254    2.4663   -7.6642 H   0  0  0  0  0  0  0  0  0  0  0  0
    1.7765    4.8559  -12.3175 H   0  0  0  0  0  0  0  0  0  0  0  0
    3.4781    5.4261  -12.4256 H   0  0  0  0  0  0  0  0  0  0  0  0
    0.6864    1.8560  -13.6055 H   0  0  0  0  0  0  0  0  0  0  0  0
   -1.3347    2.0716  -15.0502 H   0  0  0  0  0  0  0  0  0  0  0  0
   -1.3762    3.7736  -16.8323 H   0  0  0  0  0  0  0  0  0  0  0  0
    0.5658    5.2503  -17.1822 H   0  0  0  0  0  0  0  0  0  0  0  0
    2.5690    5.0152  -15.7160 H   0  0  0  0  0  0  0  0  0  0  0  0
  1  7  1  0  0  0  0
  3  4  2  0  0  0  0
  3 14  1  0  0  0  0
  5  3  2  0  0  0  0
  6 13  1  0  0  0  0
  7 22  1  6  0  0  0
  7  8  1  0  0  0  0
  7  6  1  0  0  0  0
  8 23  1  0  0  0  0
  8  9  1  0  0  0  0
  9 26  1  0  0  0  0
 10  9  1  0  0  0  0
 10 11  2  0  0  0  0
 11 12  1  0  0  0  0
 12 30  1  0  0  0  0
 12 29  1  0  0  0  0
 13 32  1  0  0  0  0
 13 12  1  0  0  0  0
 13 31  1  0  0  0  0
 14  1  1  0  0  0  0
 15 16  1  0  0  0  0
 15  3  1  0  0  0  0
 16 35  1  0  0  0  0
 17 36  1  0  0  0  0
 17 16  2  0  0  0  0
 18 17  1  0  0  0  0
 19 18  2  0  0  0  0
 19 20  1  0  0  0  0
 20 15  2  0  0  0  0
 21  6  1  0  0  0  0
 24  8  1  0  0  0  0
 25  9  1  0  0  0  0
 27 10  1  0  0  0  0
 28 11  1  0  0  0  0
 33 14  1  0  0  0  0
 34 14  1  0  0  0  0
 37 18  1  0  0  0  0
 38 19  1  0  0  0  0
 39 20  1  0  0  0  0
M  END
$$$$
