CSD_code = MPYCPD | q = 1 | S = 0 | Stoichiometry = C15H19ClN3Pd(1+) | MND = 4
 OpenBabel04212202073D

 39 42  0  0  1  0  0  0  0  0999 V2000
    0.0000    1.3248   -2.0192 Cl  0  0  0  0  0  0  0  0  0  0  0  0
    2.8939    1.1294    0.0632 C   0  0  1  0  0  3  0  0  0  0  0  0
    4.2447    1.3454    0.3317 C   0  0  0  0  0  0  0  0  0  0  0  0
    4.6412    2.5132    0.9538 C   0  0  0  0  0  0  0  0  0  0  0  0
    3.6729    3.4336    1.3357 C   0  0  0  0  0  0  0  0  0  0  0  0
    2.3503    3.1785    1.0202 C   0  0  0  0  0  0  0  0  0  0  0  0
    1.2350    4.1384    1.3832 C   0  0  0  0  0  0  0  0  0  0  0  0
    2.4059   -0.1515   -0.5201 C   0  0  0  0  0  0  0  0  0  0  0  0
    0.0000    2.9635    3.1117 C   0  0  0  0  0  0  0  0  0  0  0  0
    4.9657    0.5928    0.0571 H   0  0  0  0  0  0  0  0  0  0  0  0
    0.8855    2.3570    3.3053 H   0  0  0  0  0  0  0  0  0  0  0  0
    5.6821    2.6985    1.1656 H   0  0  0  0  0  0  0  0  0  0  0  0
    3.9424    4.3333    1.8648 H   0  0  0  0  0  0  0  0  0  0  0  0
    1.5485    4.7924    2.2079 H   0  0  0  0  0  0  0  0  0  0  0  0
    1.0478    4.7684    0.5010 H   0  0  0  0  0  0  0  0  0  0  0  0
    3.0801   -0.9674   -0.2750 H   0  0  0  0  0  0  0  0  0  0  0  0
    1.3958   -0.3734   -0.1497 H   0  0  0  0  0  0  0  0  0  0  0  0
    2.3448   -0.0678   -1.6061 H   0  0  0  0  0  0  0  0  0  0  0  0
    0.0000    3.8169    3.8013 H   0  0  0  0  0  0  0  0  0  0  0  0
    1.9884    2.0655    0.3590 N   0  0  0  0  0  0  0  0  0  0  0  0
    0.0000    3.4038    1.7223 N   0  0  2  0  0  4  0  0  0  0  0  0
   -0.0000    1.9814    0.1310 Pd  0  0  1  0  0  0  0  0  0  0  0  0
   -1.9884    2.0655    0.3590 N   0  0  0  0  0  0  0  0  0  0  0  0
   -1.2350    4.1384    1.3832 C   0  0  0  0  0  0  0  0  0  0  0  0
   -0.8855    2.3570    3.3053 H   0  0  0  0  0  0  0  0  0  0  0  0
   -2.8939    1.1294    0.0632 C   0  0  2  0  0  3  0  0  0  0  0  0
   -2.3503    3.1785    1.0202 C   0  0  0  0  0  0  0  0  0  0  0  0
   -1.5485    4.7924    2.2079 H   0  0  0  0  0  0  0  0  0  0  0  0
   -1.0478    4.7684    0.5010 H   0  0  0  0  0  0  0  0  0  0  0  0
   -4.2447    1.3454    0.3317 C   0  0  0  0  0  0  0  0  0  0  0  0
   -2.4059   -0.1515   -0.5201 C   0  0  0  0  0  0  0  0  0  0  0  0
   -3.6729    3.4336    1.3357 C   0  0  0  0  0  0  0  0  0  0  0  0
   -4.6412    2.5132    0.9538 C   0  0  0  0  0  0  0  0  0  0  0  0
   -4.9657    0.5928    0.0571 H   0  0  0  0  0  0  0  0  0  0  0  0
   -3.0801   -0.9674   -0.2750 H   0  0  0  0  0  0  0  0  0  0  0  0
   -1.3958   -0.3734   -0.1497 H   0  0  0  0  0  0  0  0  0  0  0  0
   -2.3448   -0.0678   -1.6061 H   0  0  0  0  0  0  0  0  0  0  0  0
   -3.9424    4.3333    1.8648 H   0  0  0  0  0  0  0  0  0  0  0  0
   -5.6821    2.6985    1.1656 H   0  0  0  0  0  0  0  0  0  0  0  0
  2  8  1  1  0  0  0
  2  3  1  0  0  0  0
  2 20  1  0  0  0  0
  3  4  2  0  0  0  0
  4 12  1  0  0  0  0
  4  5  1  0  0  0  0
  5 13  1  0  0  0  0
  6  5  2  0  0  0  0
  6  7  1  0  0  0  0
  7 21  1  0  0  0  0
  7 14  1  0  0  0  0
  8 16  1  0  0  0  0
  8 17  1  0  0  0  0
  9 11  1  0  0  0  0
  9 25  1  0  0  0  0
  9 19  1  0  0  0  0
 10  3  1  0  0  0  0
 15  7  1  0  0  0  0
 18  8  1  0  0  0  0
 20  6  1  0  0  0  0
 21  9  1  1  0  0  0
 22  1  1  6  0  0  0
 22 20  1  0  0  0  0
 22 23  1  0  0  0  0
 22 21  1  0  0  0  0
 23 27  1  0  0  0  0
 24 21  1  0  0  0  0
 24 28  1  0  0  0  0
 26 31  1  1  0  0  0
 26 30  1  0  0  0  0
 26 23  1  0  0  0  0
 27 32  2  0  0  0  0
 27 24  1  0  0  0  0
 29 24  1  0  0  0  0
 30 33  2  0  0  0  0
 31 35  1  0  0  0  0
 31 36  1  0  0  0  0
 32 38  1  0  0  0  0
 33 39  1  0  0  0  0
 33 32  1  0  0  0  0
 34 30  1  0  0  0  0
 37 31  1  0  0  0  0
M  END
$$$$
