CSD_code = MPYPZN | q = -1 | S = 0 | Stoichiometry = C18H15Br3PZn(1-) | MND = 4
 OpenBabel04212202073D

 38 40  0  0  0  0  0  0  0  0999 V2000
   -0.1850    0.8188    2.9231 Br  0  0  0  0  0  0  0  0  0  0  0  0
    3.8208    0.0374    4.1523 Br  0  0  0  0  0  0  0  0  0  0  0  0
    1.6301    3.3675    5.8201 Br  0  0  0  0  0  0  0  0  0  0  0  0
    4.5750    3.5188    2.8429 C   0  0  0  0  0  0  0  0  0  0  0  0
    0.7288    6.9999    1.3854 C   0  0  0  0  0  0  0  0  0  0  0  0
    0.0424    5.8008    1.4846 C   0  0  0  0  0  0  0  0  0  0  0  0
    0.7256    4.6375    1.7839 C   0  0  0  0  0  0  0  0  0  0  0  0
    3.1392    2.4367    0.6574 C   0  0  0  0  0  0  0  0  0  0  0  0
    2.9500    1.0839    0.4029 C   0  0  0  0  0  0  0  0  0  0  0  0
    3.1355    0.5828   -0.8736 C   0  0  0  0  0  0  0  0  0  0  0  0
    3.5070    1.4306   -1.9022 C   0  0  0  0  0  0  0  0  0  0  0  0
    3.6943    2.7817   -1.6535 C   0  0  0  0  0  0  0  0  0  0  0  0
    3.5108    3.2860   -0.3805 C   0  0  0  0  0  0  0  0  0  0  0  0
    5.6935    2.9487    2.2453 C   0  0  0  0  0  0  0  0  0  0  0  0
    6.9581    3.2556    2.7132 C   0  0  0  0  0  0  0  0  0  0  0  0
    7.1161    4.1190    3.7837 C   0  0  0  0  0  0  0  0  0  0  0  0
    6.0027    4.6681    4.3996 C   0  0  0  0  0  0  0  0  0  0  0  0
    4.7360    4.3643    3.9396 C   0  0  0  0  0  0  0  0  0  0  0  0
    2.1033    4.6627    1.9830 C   0  0  0  0  0  0  0  0  0  0  0  0
    2.7877    5.8684    1.8833 C   0  0  0  0  0  0  0  0  0  0  0  0
    2.0989    7.0302    1.5850 C   0  0  0  0  0  0  0  0  0  0  0  0
    5.5732    2.2565    1.4239 H   0  0  0  0  0  0  0  0  0  0  0  0
    0.1889    3.7019    1.8686 H   0  0  0  0  0  0  0  0  0  0  0  0
    2.6597    0.4181    1.2026 H   0  0  0  0  0  0  0  0  0  0  0  0
    2.9863   -0.4699   -1.0634 H   0  0  0  0  0  0  0  0  0  0  0  0
    3.6494    1.0415   -2.9009 H   0  0  0  0  0  0  0  0  0  0  0  0
    3.9841    3.4447   -2.4575 H   0  0  0  0  0  0  0  0  0  0  0  0
    3.6549    4.3403   -0.1870 H   0  0  0  0  0  0  0  0  0  0  0  0
    7.8240    2.8081    2.2456 H   0  0  0  0  0  0  0  0  0  0  0  0
    8.1066    4.3531    4.1481 H   0  0  0  0  0  0  0  0  0  0  0  0
    6.1199    5.3249    5.2496 H   0  0  0  0  0  0  0  0  0  0  0  0
    3.8663    4.7721    4.4374 H   0  0  0  0  0  0  0  0  0  0  0  0
    3.8568    5.9014    2.0435 H   0  0  0  0  0  0  0  0  0  0  0  0
    2.6363    7.9658    1.5097 H   0  0  0  0  0  0  0  0  0  0  0  0
    0.1960    7.9126    1.1575 H   0  0  0  0  0  0  0  0  0  0  0  0
   -1.0274    5.7732    1.3363 H   0  0  0  0  0  0  0  0  0  0  0  0
    2.8834    3.0533    2.3613 P   0  0  0  0  0  4  0  0  0  0  0  0
    1.7946    1.4659    4.2521 Zn  0  0  0  0  0  0  0  0  0  0  0  0
  1 38  1  0  0  0  0
  2 38  1  0  0  0  0
  4 18  1  0  0  0  0
  5  6  2  0  0  0  0
  5 21  1  0  0  0  0
  6  7  1  0  0  0  0
  7 23  1  0  0  0  0
  7 19  2  0  0  0  0
  8 37  1  0  0  0  0
  9  8  1  0  0  0  0
  9 24  1  0  0  0  0
 10  9  2  0  0  0  0
 11 12  2  0  0  0  0
 11 10  1  0  0  0  0
 12 13  1  0  0  0  0
 13 28  1  0  0  0  0
 13  8  2  0  0  0  0
 14 15  1  0  0  0  0
 14  4  2  0  0  0  0
 15 16  2  0  0  0  0
 16 30  1  0  0  0  0
 16 17  1  0  0  0  0
 17 31  1  0  0  0  0
 18 17  2  0  0  0  0
 18 32  1  0  0  0  0
 19 37  1  0  0  0  0
 20 19  1  0  0  0  0
 20 33  1  0  0  0  0
 21 20  2  0  0  0  0
 22 14  1  0  0  0  0
 25 10  1  0  0  0  0
 26 11  1  0  0  0  0
 27 12  1  0  0  0  0
 29 15  1  0  0  0  0
 34 21  1  0  0  0  0
 35  5  1  0  0  0  0
 36  6  1  0  0  0  0
 37  4  1  0  0  0  0
 37 38  1  0  0  0  0
 38  3  1  0  0  0  0
M  END
$$$$
