CSD_code = MUBQUX | q = 0 | S = 0 | Stoichiometry = C19H22BrN3Pd | MND = 4
 OpenBabel04212202073D

 46 49  0  0  1  0  0  0  0  0999 V2000
   20.7455    3.9697    5.4964 Pd  0  0  2  0  0  0  0  0  0  0  0  0
   20.5398    2.4853    7.4602 Br  0  0  0  0  0  0  0  0  0  0  0  0
   19.6431    5.5304    6.2233 N   0  0  0  0  0  0  0  0  0  0  0  0
   23.2258    2.6012    4.6571 N   0  0  0  0  0  0  0  0  0  0  0  0
   21.5093    1.3820    4.2064 N   0  0  0  0  0  0  0  0  0  0  0  0
   19.0526    5.5844    7.4119 C   0  0  0  0  0  0  0  0  0  0  0  0
   19.1220    4.7013    8.0368 H   0  0  0  0  0  0  0  0  0  0  0  0
   18.3712    6.7013    7.8632 C   0  0  0  0  0  0  0  0  0  0  0  0
   17.9103    6.6948    8.8375 H   0  0  0  0  0  0  0  0  0  0  0  0
   18.3050    7.8127    7.0374 C   0  0  0  0  0  0  0  0  0  0  0  0
   17.7881    8.7067    7.3539 H   0  0  0  0  0  0  0  0  0  0  0  0
   18.9128    7.7576    5.7986 C   0  0  0  0  0  0  0  0  0  0  0  0
   18.8734    8.6108    5.1410 H   0  0  0  0  0  0  0  0  0  0  0  0
   19.5822    6.5992    5.4005 C   0  0  0  0  0  0  0  0  0  0  0  0
   20.2484    6.4278    4.1106 C   0  0  0  0  0  0  0  0  0  0  0  0
   20.2366    7.4031    3.1124 C   0  0  0  0  0  0  0  0  0  0  0  0
   19.7319    8.3454    3.2691 H   0  0  0  0  0  0  0  0  0  0  0  0
   20.8670    7.1723    1.9070 C   0  0  0  0  0  0  0  0  0  0  0  0
   20.8543    7.9295    1.1363 H   0  0  0  0  0  0  0  0  0  0  0  0
   21.5109    5.9651    1.6892 C   0  0  0  0  0  0  0  0  0  0  0  0
   22.0003    5.7793    0.7428 H   0  0  0  0  0  0  0  0  0  0  0  0
   21.5296    4.9948    2.6787 C   0  0  0  0  0  0  0  0  0  0  0  0
   22.0416    4.0611    2.4702 H   0  0  0  0  0  0  0  0  0  0  0  0
   20.9074    5.1961    3.9088 C   0  0  0  0  0  0  0  0  0  0  0  0
   21.8829    2.5717    4.7130 C   0  0  1  0  0  3  0  0  0  0  0  0
   24.0336    3.6857    5.1491 C   0  0  0  0  0  0  0  0  0  0  0  0
   24.7493    3.3184    5.8866 H   0  0  0  0  0  0  0  0  0  0  0  0
   23.3644    4.4208    5.6267 H   0  0  0  0  0  0  0  0  0  0  0  0
   24.5729    4.1687    4.3313 H   0  0  0  0  0  0  0  0  0  0  0  0
   23.6992    1.4370    4.1098 C   0  0  0  0  0  0  0  0  0  0  0  0
   24.7443    1.2508    3.9720 H   0  0  0  0  0  0  0  0  0  0  0  0
   22.6195    0.6710    3.8300 C   0  0  0  0  0  0  0  0  0  0  0  0
   22.5546   -0.3092    3.4045 H   0  0  0  0  0  0  0  0  0  0  0  0
   20.1617    0.8524    4.2025 C   0  0  0  0  0  0  0  0  0  0  0  0
   19.9323    0.4819    5.2102 H   0  0  0  0  0  0  0  0  0  0  0  0
   20.1381    0.0089    3.5064 H   0  0  0  0  0  0  0  0  0  0  0  0
   19.1145    1.8924    3.8008 C   0  0  0  0  0  0  0  0  0  0  0  0
   19.4091    2.3632    2.8571 H   0  0  0  0  0  0  0  0  0  0  0  0
   19.0583    2.6797    4.5855 H   0  0  0  0  0  0  0  0  0  0  0  0
   17.7295    1.2681    3.6566 C   0  0  0  0  0  0  0  0  0  0  0  0
   17.4673    0.7566    4.5849 H   0  0  0  0  0  0  0  0  0  0  0  0
   17.7410    0.5248    2.8554 H   0  0  0  0  0  0  0  0  0  0  0  0
   16.6839    2.3332    3.3515 C   0  0  0  0  0  0  0  0  0  0  0  0
   15.6975    1.8872    3.2533 H   0  0  0  0  0  0  0  0  0  0  0  0
   16.9234    2.8493    2.4242 H   0  0  0  0  0  0  0  0  0  0  0  0
   16.6510    3.0688    4.1526 H   0  0  0  0  0  0  0  0  0  0  0  0
  1  3  1  0  0  0  0
  1  2  1  6  0  0  0
  3  6  1  0  0  0  0
  4 25  1  0  0  0  0
  4 26  1  0  0  0  0
  6  8  2  0  0  0  0
  6  7  1  0  0  0  0
  8  9  1  0  0  0  0
 10 11  1  0  0  0  0
 10  8  1  0  0  0  0
 12 10  2  0  0  0  0
 13 12  1  0  0  0  0
 14 12  1  0  0  0  0
 14  3  1  0  0  0  0
 15 14  2  0  0  0  0
 16 17  1  0  0  0  0
 16 15  1  0  0  0  0
 18 16  2  0  0  0  0
 19 18  1  0  0  0  0
 20 18  1  0  0  0  0
 20 22  2  0  0  0  0
 21 20  1  0  0  0  0
 22 24  1  0  0  0  0
 23 22  1  0  0  0  0
 24 15  1  0  0  0  0
 24  1  2  0  0  0  0
 25  5  1  1  0  0  0
 25  1  1  0  0  0  0
 26 28  1  0  0  0  0
 26 27  1  0  0  0  0
 29 26  1  0  0  0  0
 30  4  1  0  0  0  0
 31 30  1  0  0  0  0
 32 30  2  0  0  0  0
 32  5  1  0  0  0  0
 33 32  1  0  0  0  0
 34  5  1  0  0  0  0
 34 35  1  0  0  0  0
 36 34  1  0  0  0  0
 37 34  1  0  0  0  0
 37 39  1  0  0  0  0
 38 37  1  0  0  0  0
 40 37  1  0  0  0  0
 40 41  1  0  0  0  0
 42 40  1  0  0  0  0
 43 40  1  0  0  0  0
 43 46  1  0  0  0  0
 44 43  1  0  0  0  0
 45 43  1  0  0  0  0
M  END
$$$$
