CSD_code = MUBTOS | q = 0 | S = 0 | Stoichiometry = C26H30ClNRuS3 | MND = 5
 OpenBabel04212202073D

 62 64  0  0  0  0  0  0  0  0999 V2000
    8.3340   12.8223    7.8302 C   0  0  0  0  0  0  0  0  0  0  0  0
    9.2643   11.8352    7.4844 C   0  0  0  0  0  0  0  0  0  0  0  0
    9.8363   11.8751    6.2201 C   0  0  0  0  0  0  0  0  0  0  0  0
   10.5504   11.1135    5.9425 H   0  0  0  0  0  0  0  0  0  0  0  0
    9.5143   12.8790    5.3253 C   0  0  0  0  0  0  0  0  0  0  0  0
    9.9696   12.8970    4.3457 H   0  0  0  0  0  0  0  0  0  0  0  0
    8.6232   13.8720    5.6940 C   0  0  0  0  0  0  0  0  0  0  0  0
    8.3905   14.6700    5.0036 H   0  0  0  0  0  0  0  0  0  0  0  0
    8.0274   13.8663    6.9464 C   0  0  0  0  0  0  0  0  0  0  0  0
    9.6820   10.7780    8.4575 C   0  0  0  0  0  0  0  0  0  0  0  0
    8.8866   10.5543    9.1664 H   0  0  0  0  0  0  0  0  0  0  0  0
   10.5382   11.1327    9.0325 H   0  0  0  0  0  0  0  0  0  0  0  0
    9.9733    9.8666    7.9406 H   0  0  0  0  0  0  0  0  0  0  0  0
    7.0839   14.9546    7.3449 C   0  0  0  0  0  0  0  0  0  0  0  0
    6.9635   15.6758    6.5408 H   0  0  0  0  0  0  0  0  0  0  0  0
    7.4606   15.4708    8.2275 H   0  0  0  0  0  0  0  0  0  0  0  0
    6.1018   14.5412    7.5962 H   0  0  0  0  0  0  0  0  0  0  0  0
    3.4118   14.1667   10.6303 C   0  0  0  0  0  0  0  0  0  0  0  0
    4.1016   15.2289   11.2228 C   0  0  0  0  0  0  0  0  0  0  0  0
    3.6896   15.6609   12.4734 C   0  0  0  0  0  0  0  0  0  0  0  0
    4.2165   16.4751   12.9491 H   0  0  0  0  0  0  0  0  0  0  0  0
    2.6275   15.0535   13.1188 C   0  0  0  0  0  0  0  0  0  0  0  0
    2.3203   15.4010   14.0940 H   0  0  0  0  0  0  0  0  0  0  0  0
    1.9737   13.9865   12.5290 C   0  0  0  0  0  0  0  0  0  0  0  0
    1.1634   13.4960   13.0484 H   0  0  0  0  0  0  0  0  0  0  0  0
    2.3539   13.5231   11.2798 C   0  0  0  0  0  0  0  0  0  0  0  0
    5.2904   15.8284   10.5447 C   0  0  0  0  0  0  0  0  0  0  0  0
    5.7047   16.6424   11.1335 H   0  0  0  0  0  0  0  0  0  0  0  0
    5.0278   16.2004    9.5541 H   0  0  0  0  0  0  0  0  0  0  0  0
    6.0577   15.0567   10.4253 H   0  0  0  0  0  0  0  0  0  0  0  0
    1.7046   12.3281   10.6613 C   0  0  0  0  0  0  0  0  0  0  0  0
    1.2896   12.5725    9.6831 H   0  0  0  0  0  0  0  0  0  0  0  0
    0.9128   11.9428   11.2980 H   0  0  0  0  0  0  0  0  0  0  0  0
    2.4574   11.5454   10.5256 H   0  0  0  0  0  0  0  0  0  0  0  0
    4.5727    9.2942    7.7526 C   0  0  0  0  0  0  0  0  0  0  0  0
    3.4225    9.5316    6.9913 C   0  0  0  0  0  0  0  0  0  0  0  0
    3.3320    8.9558    5.7321 C   0  0  0  0  0  0  0  0  0  0  0  0
    2.4479    9.1286    5.1358 H   0  0  0  0  0  0  0  0  0  0  0  0
    4.3527    8.1631    5.2375 C   0  0  0  0  0  0  0  0  0  0  0  0
    4.2621    7.7142    4.2590 H   0  0  0  0  0  0  0  0  0  0  0  0
    5.4917    7.9484    5.9947 C   0  0  0  0  0  0  0  0  0  0  0  0
    6.2920    7.3359    5.6050 H   0  0  0  0  0  0  0  0  0  0  0  0
    5.6187    8.5075    7.2571 C   0  0  0  0  0  0  0  0  0  0  0  0
    2.3350   10.4100    7.5166 C   0  0  0  0  0  0  0  0  0  0  0  0
    1.9320   10.0035    8.4434 H   0  0  0  0  0  0  0  0  0  0  0  0
    1.5292   10.5072    6.7939 H   0  0  0  0  0  0  0  0  0  0  0  0
    2.7365   11.4051    7.7359 H   0  0  0  0  0  0  0  0  0  0  0  0
    6.8527    8.3048    8.0748 C   0  0  0  0  0  0  0  0  0  0  0  0
    7.6277    7.8049    7.4998 H   0  0  0  0  0  0  0  0  0  0  0  0
    6.6288    7.7085    8.9592 H   0  0  0  0  0  0  0  0  0  0  0  0
    7.2269    9.2717    8.4180 H   0  0  0  0  0  0  0  0  0  0  0  0
    5.7576   11.7631    6.1614 C   0  0  0  0  0  2  0  0  0  0  0  0
    5.9825   11.5301    4.7689 C   0  0  0  0  0  0  0  0  0  0  0  0
    5.7500   10.4902    4.5377 H   0  0  0  0  0  0  0  0  0  0  0  0
    7.0277   11.7351    4.5351 H   0  0  0  0  0  0  0  0  0  0  0  0
    5.3427   12.1853    4.1786 H   0  0  0  0  0  0  0  0  0  0  0  0
    5.4306   12.0700   11.5270 Cl  0  0  0  0  0  0  0  0  0  0  0  0
    5.5750   11.9501    7.2818 N   0  0  0  0  0  2  0  0  0  0  0  0
    5.4499   12.0712    9.2143 Ru  0  0  0  0  0  0  0  0  0  0  0  0
    7.5874   12.7746    9.4315 S   0  0  0  0  0  0  0  0  0  0  0  0
    3.8553   13.6633    9.0018 S   0  0  0  0  0  0  0  0  0  0  0  0
    4.7029    9.9511    9.3873 S   0  0  0  0  0  0  0  0  0  0  0  0
  1 60  1  0  0  0  0
  2  1  1  0  0  0  0
  2 10  1  0  0  0  0
  3  2  2  0  0  0  0
  4  3  1  0  0  0  0
  5  7  2  0  0  0  0
  5  3  1  0  0  0  0
  6  5  1  0  0  0  0
  7  9  1  0  0  0  0
  8  7  1  0  0  0  0
  9 14  1  0  0  0  0
  9  1  2  0  0  0  0
 10 12  1  0  0  0  0
 10 11  1  0  0  0  0
 13 10  1  0  0  0  0
 14 17  1  0  0  0  0
 14 16  1  0  0  0  0
 15 14  1  0  0  0  0
 18 19  2  0  0  0  0
 18 26  1  0  0  0  0
 19 20  1  0  0  0  0
 20 21  1  0  0  0  0
 20 22  2  0  0  0  0
 22 23  1  0  0  0  0
 24 25  1  0  0  0  0
 24 22  1  0  0  0  0
 26 24  2  0  0  0  0
 27 28  1  0  0  0  0
 27 19  1  0  0  0  0
 29 27  1  0  0  0  0
 30 27  1  0  0  0  0
 31 26  1  0  0  0  0
 31 33  1  0  0  0  0
 32 31  1  0  0  0  0
 34 31  1  0  0  0  0
 35 62  1  0  0  0  0
 36 44  1  0  0  0  0
 36 35  2  0  0  0  0
 37 36  1  0  0  0  0
 38 37  1  0  0  0  0
 39 37  2  0  0  0  0
 39 41  1  0  0  0  0
 40 39  1  0  0  0  0
 41 43  2  0  0  0  0
 42 41  1  0  0  0  0
 43 35  1  0  0  0  0
 43 48  1  0  0  0  0
 44 47  1  0  0  0  0
 44 45  1  0  0  0  0
 46 44  1  0  0  0  0
 48 51  1  0  0  0  0
 48 50  1  0  0  0  0
 49 48  1  0  0  0  0
 52 58  1  0  0  0  0
 53 52  1  0  0  0  0
 54 53  1  0  0  0  0
 55 53  1  0  0  0  0
 56 53  1  0  0  0  0
 58 59  1  0  0  0  0
 59 62  1  0  0  0  0
 59 60  1  0  0  0  0
 59 57  1  0  0  0  0
 61 59  1  0  0  0  0
 61 18  1  0  0  0  0
M  END
$$$$
