CSD_code = MUCGEW | q = 0 | S = 0 | Stoichiometry = C20H12BrClN4Pd | MND = 4
 OpenBabel04212202073D

 39 45  0  0  1  0  0  0  0  0999 V2000
   -0.1319    5.7108    7.4437 Pd  0  0  1  0  0  0  0  0  0  0  0  0
   -3.4119    0.9161   10.8558 Br  0  0  0  0  0  0  0  0  0  0  0  0
    0.9988    7.3639    6.2999 Cl  0  0  0  0  0  0  0  0  0  0  0  0
   -1.8097    6.7917    7.3309 N   0  0  0  0  0  0  0  0  0  0  0  0
   -1.9832    7.7800    6.4522 C   0  0  0  0  0  3  0  0  0  0  0  0
   -2.6479    5.9038    9.4232 N   0  0  0  0  0  0  0  0  0  0  0  0
   -2.8155    8.8729    6.6867 C   0  0  0  0  0  0  0  0  0  0  0  0
    1.5517    4.6310    7.5392 N   0  0  0  0  0  0  0  0  0  0  0  0
   -3.4997    8.9970    7.8802 C   0  0  0  0  0  0  0  0  0  0  0  0
    0.3266    2.5411    7.5552 N   0  0  0  0  0  0  0  0  0  0  0  0
   -3.3832    7.9502    8.7893 C   0  0  0  0  0  0  0  0  0  0  0  0
   -3.9386    7.6385   10.0607 C   0  0  0  0  0  0  0  0  0  0  0  0
   -3.4820    6.4037   10.3978 C   0  0  0  0  0  0  0  0  0  0  0  0
   -2.5455    6.8553    8.4443 C   0  0  0  0  0  0  0  0  0  0  0  0
    2.7641    5.1478    7.3345 C   0  0  0  0  0  3  0  0  0  0  0  0
    3.8299    4.4140    6.8172 C   0  0  0  0  0  0  0  0  0  0  0  0
    3.6703    3.0882    6.4642 C   0  0  0  0  0  0  0  0  0  0  0  0
    2.4333    2.5075    6.7258 C   0  0  0  0  0  0  0  0  0  0  0  0
    1.8690    1.2090    6.5929 C   0  0  0  0  0  0  0  0  0  0  0  0
    0.6138    1.2706    7.1101 C   0  0  0  0  0  0  0  0  0  0  0  0
    1.4186    3.3241    7.2944 C   0  0  0  0  0  0  0  0  0  0  0  0
   -0.7679    2.9167    8.3605 C   0  0  2  0  0  3  0  0  0  0  0  0
   -1.1251    4.2690    8.4608 C   0  0  0  0  0  0  0  0  0  0  0  0
   -2.2009    4.5715    9.3084 C   0  0  0  0  0  0  0  0  0  0  0  0
   -2.8993    3.5844   10.0013 C   0  0  0  0  0  0  0  0  0  0  0  0
   -2.4871    2.2727    9.8855 C   0  0  0  0  0  0  0  0  0  0  0  0
   -1.4215    1.9202    9.0829 C   0  0  0  0  0  0  0  0  0  0  0  0
   -1.4190    7.7151    5.5310 H   0  0  0  0  0  0  0  0  0  0  0  0
   -2.8908    9.6357    5.9289 H   0  0  0  0  0  0  0  0  0  0  0  0
   -4.1102    9.8597    8.0973 H   0  0  0  0  0  0  0  0  0  0  0  0
   -4.5962    8.2582   10.6356 H   0  0  0  0  0  0  0  0  0  0  0  0
   -3.6745    5.8492   11.2946 H   0  0  0  0  0  0  0  0  0  0  0  0
    2.8904    6.1968    7.5684 H   0  0  0  0  0  0  0  0  0  0  0  0
    4.7748    4.9112    6.6694 H   0  0  0  0  0  0  0  0  0  0  0  0
    4.4708    2.5193    6.0173 H   0  0  0  0  0  0  0  0  0  0  0  0
    2.3477    0.3487    6.1715 H   0  0  0  0  0  0  0  0  0  0  0  0
   -0.1188    0.4901    7.1663 H   0  0  0  0  0  0  0  0  0  0  0  0
   -3.7572    3.8232   10.6082 H   0  0  0  0  0  0  0  0  0  0  0  0
   -1.1024    0.8918    9.0380 H   0  0  0  0  0  0  0  0  0  0  0  0
  1  3  1  1  0  0  0
  1  8  1  0  0  0  0
  1 23  2  0  0  0  0
  4  1  1  0  0  0  0
  4 14  1  0  0  0  0
  5  7  1  0  0  0  0
  5  4  1  0  0  0  0
  6 13  1  0  0  0  0
  7  9  2  0  0  0  0
  9 30  1  0  0  0  0
  9 11  1  0  0  0  0
 10 22  1  0  0  0  0
 11 12  1  0  0  0  0
 12 13  2  0  0  0  0
 12 31  1  0  0  0  0
 13 32  1  0  0  0  0
 14 11  2  0  0  0  0
 14  6  1  0  0  0  0
 15  8  1  0  0  0  0
 15 33  1  0  0  0  0
 16 15  1  0  0  0  0
 17 18  1  0  0  0  0
 17 16  2  0  0  0  0
 18 21  2  0  0  0  0
 19 18  1  0  0  0  0
 19 20  2  0  0  0  0
 20 37  1  0  0  0  0
 20 10  1  0  0  0  0
 21  8  1  0  0  0  0
 21 10  1  0  0  0  0
 22 23  1  1  0  0  0
 22 27  1  0  0  0  0
 23 24  1  0  0  0  0
 24  6  1  0  0  0  0
 24 25  2  0  0  0  0
 25 38  1  0  0  0  0
 26 25  1  0  0  0  0
 26  2  1  0  0  0  0
 27 26  2  0  0  0  0
 28  5  1  0  0  0  0
 29  7  1  0  0  0  0
 34 16  1  0  0  0  0
 35 17  1  0  0  0  0
 36 19  1  0  0  0  0
 39 27  1  0  0  0  0
M  END
$$$$
