CSD_code = MUDVAI | q = 0 | S = 0 | Stoichiometry = C14H24Cl2FeN2 | MND = 4
 OpenBabel04212202073D

 43 45  0  0  0  0  0  0  0  0999 V2000
    7.7704    0.9709    9.8331 Fe  0  0  0  0  0  0  0  0  0  0  0  0
    9.0120    1.7137   11.2795 Cl  0  0  0  0  0  0  0  0  0  0  0  0
    7.2677   -1.6208   10.3120 C   0  0  0  0  0  0  0  0  0  0  0  0
    6.8212   -2.5079   10.7398 H   0  0  0  0  0  0  0  0  0  0  0  0
    6.8931   -0.4008   10.6643 N   0  0  0  0  0  0  0  0  0  0  0  0
    5.9058   -0.2293   11.7068 C   0  0  0  0  0  0  0  0  0  0  0  0
    5.1526   -1.0270   11.6279 H   0  0  0  0  0  0  0  0  0  0  0  0
    6.5865   -0.3160   13.0813 C   0  0  0  0  0  0  0  0  0  0  0  0
    7.3758    0.4366   13.1218 H   0  0  0  0  0  0  0  0  0  0  0  0
    7.0539   -1.2970   13.1897 H   0  0  0  0  0  0  0  0  0  0  0  0
    5.5796   -0.0791   14.2011 C   0  0  0  0  0  0  0  0  0  0  0  0
    4.8192   -0.8640   14.1826 H   0  0  0  0  0  0  0  0  0  0  0  0
    6.0901   -0.1300   15.1643 H   0  0  0  0  0  0  0  0  0  0  0  0
    4.9089    1.2806   14.0363 C   0  0  0  0  0  0  0  0  0  0  0  0
    5.6638    2.0660   14.1076 H   0  0  0  0  0  0  0  0  0  0  0  0
    4.1820    1.4377   14.8354 H   0  0  0  0  0  0  0  0  0  0  0  0
    4.2169    1.3641   12.6797 C   0  0  0  0  0  0  0  0  0  0  0  0
    3.7505    2.3429   12.5562 H   0  0  0  0  0  0  0  0  0  0  0  0
    3.4288    0.6090   12.6263 H   0  0  0  0  0  0  0  0  0  0  0  0
    5.2161    1.1298   11.5517 C   0  0  0  0  0  0  0  0  0  0  0  0
    4.7113    1.1712   10.5848 H   0  0  0  0  0  0  0  0  0  0  0  0
    5.9808    1.9174   11.5735 H   0  0  0  0  0  0  0  0  0  0  0  0
    6.5287    1.7138    8.3867 Cl  0  0  0  0  0  0  0  0  0  0  0  0
    8.2728   -1.6208    9.3540 C   0  0  0  0  0  0  0  0  0  0  0  0
    8.7193   -2.5079    8.9261 H   0  0  0  0  0  0  0  0  0  0  0  0
    8.6475   -0.4008    9.0017 N   0  0  0  0  0  0  0  0  0  0  0  0
    9.6348   -0.2293    7.9593 C   0  0  0  0  0  0  0  0  0  0  0  0
   10.3879   -1.0270    8.0381 H   0  0  0  0  0  0  0  0  0  0  0  0
    8.9540   -0.3161    6.5847 C   0  0  0  0  0  0  0  0  0  0  0  0
    8.1648    0.4366    6.5443 H   0  0  0  0  0  0  0  0  0  0  0  0
    8.4866   -1.2970    6.4764 H   0  0  0  0  0  0  0  0  0  0  0  0
    9.9609   -0.0791    5.4650 C   0  0  0  0  0  0  0  0  0  0  0  0
   10.7213   -0.8640    5.4834 H   0  0  0  0  0  0  0  0  0  0  0  0
    9.4504   -0.1300    4.5018 H   0  0  0  0  0  0  0  0  0  0  0  0
   10.6316    1.2806    5.6298 C   0  0  0  0  0  0  0  0  0  0  0  0
    9.8767    2.0660    5.5585 H   0  0  0  0  0  0  0  0  0  0  0  0
   11.3585    1.4377    4.8306 H   0  0  0  0  0  0  0  0  0  0  0  0
   11.3237    1.3641    6.9863 C   0  0  0  0  0  0  0  0  0  0  0  0
   11.7901    2.3429    7.1099 H   0  0  0  0  0  0  0  0  0  0  0  0
   12.1118    0.6090    7.0397 H   0  0  0  0  0  0  0  0  0  0  0  0
   10.3245    1.1297    8.1144 C   0  0  0  0  0  0  0  0  0  0  0  0
   10.8294    1.1712    9.0813 H   0  0  0  0  0  0  0  0  0  0  0  0
    9.5598    1.9174    8.0926 H   0  0  0  0  0  0  0  0  0  0  0  0
  1  5  1  0  0  0  0
  1  2  1  0  0  0  0
  3  5  1  0  0  0  0
  3  4  1  0  0  0  0
  5  6  1  0  0  0  0
  6  8  1  0  0  0  0
  7  6  1  0  0  0  0
  8  9  1  0  0  0  0
  8 10  1  0  0  0  0
  8 11  1  0  0  0  0
 11 13  1  0  0  0  0
 12 11  1  0  0  0  0
 14 15  1  0  0  0  0
 14 11  1  0  0  0  0
 14 16  1  0  0  0  0
 17 14  1  0  0  0  0
 18 17  1  0  0  0  0
 19 17  1  0  0  0  0
 20 22  1  0  0  0  0
 20  6  1  0  0  0  0
 20 17  1  0  0  0  0
 21 20  1  0  0  0  0
 23  1  1  0  0  0  0
 24  3  2  0  0  0  0
 25 24  1  0  0  0  0
 26 24  1  0  0  0  0
 26  1  1  0  0  0  0
 27 28  1  0  0  0  0
 27 41  1  0  0  0  0
 27 26  1  0  0  0  0
 29 27  1  0  0  0  0
 30 29  1  0  0  0  0
 31 29  1  0  0  0  0
 32 33  1  0  0  0  0
 32 35  1  0  0  0  0
 32 29  1  0  0  0  0
 34 32  1  0  0  0  0
 35 38  1  0  0  0  0
 36 35  1  0  0  0  0
 37 35  1  0  0  0  0
 38 40  1  0  0  0  0
 38 39  1  0  0  0  0
 38 41  1  0  0  0  0
 41 42  1  0  0  0  0
 43 41  1  0  0  0  0
M  END
$$$$
