CSD_code = MUFFIE | q = -1 | S = 0 | Stoichiometry = C4H12Cl4IrO2S2(1-) | MND = 6
 OpenBabel04212202073D

 25 24  0  0  0  0  0  0  0  0999 V2000
    2.6359   -0.9582   21.2676 C   0  0  0  0  0  0  0  0  0  0  0  0
    2.2978   -1.5781   20.4455 H   0  0  0  0  0  0  0  0  0  0  0  0
    2.8001   -1.5252   22.1759 H   0  0  0  0  0  0  0  0  0  0  0  0
    3.5352   -0.4105   21.0071 H   0  0  0  0  0  0  0  0  0  0  0  0
   -0.0033   -0.8794   22.0298 C   0  0  0  0  0  0  0  0  0  0  0  0
   -0.8877   -0.2855   22.2342 H   0  0  0  0  0  0  0  0  0  0  0  0
    0.2938   -1.4221   22.9196 H   0  0  0  0  0  0  0  0  0  0  0  0
   -0.1643   -1.5316   21.1795 H   0  0  0  0  0  0  0  0  0  0  0  0
    1.2648    4.2473   25.4797 C   0  0  0  0  0  0  0  0  0  0  0  0
    1.4582    4.7196   26.4356 H   0  0  0  0  0  0  0  0  0  0  0  0
    0.2270    3.9610   25.3592 H   0  0  0  0  0  0  0  0  0  0  0  0
    1.5701    4.8824   24.6550 H   0  0  0  0  0  0  0  0  0  0  0  0
    1.5389    1.8548   26.8045 C   0  0  0  0  0  0  0  0  0  0  0  0
    2.0752    0.9189   26.9176 H   0  0  0  0  0  0  0  0  0  0  0  0
    0.4988    1.6612   26.5691 H   0  0  0  0  0  0  0  0  0  0  0  0
    1.6569    2.4764   27.6842 H   0  0  0  0  0  0  0  0  0  0  0  0
    2.1272   -0.4842   24.5538 Cl  0  0  0  0  0  0  0  0  0  0  0  0
   -0.3837    1.6648   24.0925 Cl  0  0  0  0  0  0  0  0  0  0  0  0
    1.6321    3.5827   22.3282 Cl  0  0  0  0  0  0  0  0  0  0  0  0
    4.0928    1.4941   22.7990 Cl  0  0  0  0  0  0  0  0  0  0  0  0
    1.8712    1.5683   23.4425 Ir  0  0  0  0  0  0  0  0  0  0  0  0
    0.9904    0.8672   20.3439 O   0  0  0  0  0  1  0  0  0  0  0  0
    3.6083    3.1033   25.7844 O   0  0  0  0  0  1  0  0  0  0  0  0
    1.3460    0.2716   21.6162 S   0  0  0  0  0  0  0  0  0  0  0  0
    2.2651    2.7346   25.3848 S   0  0  0  0  0  0  0  0  0  0  0  0
  1 24  1  0  0  0  0
  1  3  1  0  0  0  0
  2  1  1  0  0  0  0
  4  1  1  0  0  0  0
  5  6  1  0  0  0  0
  5  7  1  0  0  0  0
  8  5  1  0  0  0  0
  9 10  1  0  0  0  0
 11  9  1  0  0  0  0
 12  9  1  0  0  0  0
 13 14  1  0  0  0  0
 13 16  1  0  0  0  0
 15 13  1  0  0  0  0
 19 21  1  0  0  0  0
 20 21  1  0  0  0  0
 21 18  1  0  0  0  0
 21 17  1  0  0  0  0
 21 25  1  0  0  0  0
 22 24  1  0  0  0  0
 24  5  1  0  0  0  0
 24 21  1  0  0  0  0
 25  9  1  0  0  0  0
 25 23  1  0  0  0  0
 25 13  1  0  0  0  0
M  END
$$$$
