CSD_code = MUGCUM | q = 0 | S = 0 | Stoichiometry = C21H22Cl4NO2PPt | MND = 6
 OpenBabel04212202073D

 52 54  0  0  1  0  0  0  0  0999 V2000
    2.5854   14.5860   12.2023 Cl  0  0  0  0  0  0  0  0  0  0  0  0
    5.8776   14.8044   12.4940 Cl  0  0  0  0  0  0  0  0  0  0  0  0
    3.1360   12.3820    9.5465 Cl  0  0  0  0  0  0  0  0  0  0  0  0
    4.4693   15.4428    9.5878 Cl  0  0  0  0  0  0  0  0  0  0  0  0
    4.3451   12.1319   12.5524 N   0  0  0  0  0  4  0  0  0  0  0  0
    3.6500   11.4191   12.3408 H   0  0  0  0  0  0  0  0  0  0  0  0
    4.0809   12.6129   13.4128 H   0  0  0  0  0  0  0  0  0  0  0  0
    5.2713   11.7075   12.6594 H   0  0  0  0  0  0  0  0  0  0  0  0
    5.5765   11.3489    8.9831 P   0  0  0  0  0  4  0  0  0  0  0  0
    6.0530   12.8000    9.9712 C   0  0  2  0  0  0  0  0  0  0  0  0
    6.4280   13.5473    9.2599 H   0  0  0  0  0  0  0  0  0  0  0  0
    7.1137   12.4449   10.9413 C   0  0  0  0  0  0  0  0  0  0  0  0
    8.1849   13.2144   10.8278 O   0  0  0  0  0  0  0  0  0  0  0  0
    7.0179   11.5449   11.7604 O   0  0  0  0  0  0  0  0  0  0  0  0
    9.1834   13.0692   11.8286 C   0  0  0  0  0  0  0  0  0  0  0  0
    8.7947   13.4234   12.7851 H   0  0  0  0  0  0  0  0  0  0  0  0
   10.0226   13.6808   11.5095 H   0  0  0  0  0  0  0  0  0  0  0  0
    9.4777   12.0215   11.9208 H   0  0  0  0  0  0  0  0  0  0  0  0
    4.6566    9.9304    9.6552 C   0  0  0  0  0  0  0  0  0  0  0  0
    3.6099    9.3877    8.9162 C   0  0  0  0  0  0  0  0  0  0  0  0
    3.3159    9.8472    7.9844 H   0  0  0  0  0  0  0  0  0  0  0  0
    2.9309    8.2842    9.3964 C   0  0  0  0  0  0  0  0  0  0  0  0
    2.1175    7.8665    8.8228 H   0  0  0  0  0  0  0  0  0  0  0  0
    3.2841    7.7210   10.6132 C   0  0  0  0  0  0  0  0  0  0  0  0
    2.7458    6.8637   10.9880 H   0  0  0  0  0  0  0  0  0  0  0  0
    4.3257    8.2613   11.3480 C   0  0  0  0  0  0  0  0  0  0  0  0
    4.6048    7.8249   12.2957 H   0  0  0  0  0  0  0  0  0  0  0  0
    5.0213    9.3600   10.8700 C   0  0  0  0  0  0  0  0  0  0  0  0
    5.8453    9.7731   11.4325 H   0  0  0  0  0  0  0  0  0  0  0  0
    5.1148   11.7758    7.2884 C   0  0  0  0  0  0  0  0  0  0  0  0
    4.7412   13.0596    6.9133 C   0  0  0  0  0  0  0  0  0  0  0  0
    4.6594   13.8503    7.6466 H   0  0  0  0  0  0  0  0  0  0  0  0
    4.4500   13.3172    5.5844 C   0  0  0  0  0  0  0  0  0  0  0  0
    4.1575   14.3136    5.2909 H   0  0  0  0  0  0  0  0  0  0  0  0
    4.5258   12.3069    4.6399 C   0  0  0  0  0  0  0  0  0  0  0  0
    4.2895   12.5139    3.6070 H   0  0  0  0  0  0  0  0  0  0  0  0
    4.9079   11.0285    5.0168 C   0  0  0  0  0  0  0  0  0  0  0  0
    4.9723   10.2410    4.2808 H   0  0  0  0  0  0  0  0  0  0  0  0
    5.2119   10.7619    6.3382 C   0  0  0  0  0  0  0  0  0  0  0  0
    5.5275    9.7716    6.6405 H   0  0  0  0  0  0  0  0  0  0  0  0
    7.2390   10.6307    8.6638 C   0  0  0  0  0  0  0  0  0  0  0  0
    8.1732   11.4734    8.0633 C   0  0  0  0  0  0  0  0  0  0  0  0
    7.8875   12.4796    7.7877 H   0  0  0  0  0  0  0  0  0  0  0  0
    9.4572   11.0311    7.8130 C   0  0  0  0  0  0  0  0  0  0  0  0
   10.1741   11.6944    7.3531 H   0  0  0  0  0  0  0  0  0  0  0  0
    9.8233    9.7383    8.1544 C   0  0  0  0  0  0  0  0  0  0  0  0
   10.8285    9.3928    7.9657 H   0  0  0  0  0  0  0  0  0  0  0  0
    8.8949    8.8900    8.7312 C   0  0  0  0  0  0  0  0  0  0  0  0
    9.1718    7.8786    8.9894 H   0  0  0  0  0  0  0  0  0  0  0  0
    7.6060    9.3306    8.9834 C   0  0  0  0  0  0  0  0  0  0  0  0
    6.8908    8.6557    9.4296 H   0  0  0  0  0  0  0  0  0  0  0  0
    4.4357   13.6814   11.0473 Pt  0  0  0  0  0  0  0  0  0  0  0  0
  3 52  1  0  0  0  0
  4 52  1  0  0  0  0
  5  8  1  0  0  0  0
  5  7  1  0  0  0  0
  6  5  1  0  0  0  0
  9 19  1  0  0  0  0
  9 10  1  0  0  0  0
 10 11  1  6  0  0  0
 10 12  1  0  0  0  0
 10 52  1  0  0  0  0
 12 14  2  0  0  0  0
 13 12  1  0  0  0  0
 13 15  1  0  0  0  0
 15 18  1  0  0  0  0
 15 16  1  0  0  0  0
 17 15  1  0  0  0  0
 19 28  1  0  0  0  0
 20 22  1  0  0  0  0
 20 19  2  0  0  0  0
 21 20  1  0  0  0  0
 22 24  2  0  0  0  0
 23 22  1  0  0  0  0
 24 25  1  0  0  0  0
 24 26  1  0  0  0  0
 26 27  1  0  0  0  0
 28 26  2  0  0  0  0
 28 29  1  0  0  0  0
 30  9  1  0  0  0  0
 31 30  1  0  0  0  0
 31 32  1  0  0  0  0
 33 31  2  0  0  0  0
 34 33  1  0  0  0  0
 35 37  2  0  0  0  0
 35 33  1  0  0  0  0
 36 35  1  0  0  0  0
 37 39  1  0  0  0  0
 38 37  1  0  0  0  0
 39 40  1  0  0  0  0
 39 30  2  0  0  0  0
 41  9  1  0  0  0  0
 41 50  1  0  0  0  0
 42 41  2  0  0  0  0
 43 42  1  0  0  0  0
 44 42  1  0  0  0  0
 44 46  2  0  0  0  0
 45 44  1  0  0  0  0
 46 48  1  0  0  0  0
 47 46  1  0  0  0  0
 48 50  2  0  0  0  0
 48 49  1  0  0  0  0
 50 51  1  0  0  0  0
 52  1  1  0  0  0  0
 52  2  1  0  0  0  0
 52  5  1  0  0  0  0
M  END
$$$$
