CSD_code = MUKWUL | q = 0 | S = 0 | Stoichiometry = C18H24Br2N4Ni | MND = 4
 OpenBabel04212202073D

 49 52  0  0  1  0  0  0  0  0999 V2000
   -0.3369   -2.2324   18.9468 Br  0  0  0  0  0  0  0  0  0  0  0  0
   -1.1447    0.9432   18.1696 Br  0  0  0  0  0  0  0  0  0  0  0  0
    0.8357   -1.4005   21.9384 C   0  0  2  0  0  3  0  0  0  0  0  0
    1.6759   -2.4510   22.4237 C   0  0  0  0  0  0  0  0  0  0  0  0
    2.7189   -2.4333   22.1543 H   0  0  0  0  0  0  0  0  0  0  0  0
    1.1698   -3.4992   23.1248 C   0  0  0  0  0  0  0  0  0  0  0  0
    1.8157   -4.3011   23.4484 H   0  0  0  0  0  0  0  0  0  0  0  0
   -0.2078   -3.5509   23.4099 C   0  0  0  0  0  0  0  0  0  0  0  0
   -0.6339   -4.3785   23.9493 H   0  0  0  0  0  0  0  0  0  0  0  0
   -0.9948   -2.5348   22.9644 C   0  0  0  0  0  0  0  0  0  0  0  0
   -2.0604   -2.5271   23.1380 H   0  0  0  0  0  0  0  0  0  0  0  0
   -1.3918   -0.4218   21.8773 C   0  0  0  0  0  0  0  0  0  0  0  0
   -1.6444   -0.5147   20.8100 H   0  0  0  0  0  0  0  0  0  0  0  0
   -0.9051    0.5439   22.0374 H   0  0  0  0  0  0  0  0  0  0  0  0
   -2.3135   -0.4672   22.4529 H   0  0  0  0  0  0  0  0  0  0  0  0
    2.6085   -0.0237   21.1135 C   0  0  2  0  0  0  0  0  0  0  0  0
    3.1949   -0.8571   20.6912 H   0  0  0  0  0  0  0  0  0  0  0  0
    3.1774    0.3620   22.4866 C   0  0  0  0  0  0  0  0  0  0  0  0
    2.6378    1.2404   22.8519 H   0  0  0  0  0  0  0  0  0  0  0  0
    3.0171   -0.4429   23.2067 H   0  0  0  0  0  0  0  0  0  0  0  0
    4.6655    0.6755   22.3773 C   0  0  0  0  0  0  0  0  0  0  0  0
    5.2011   -0.2215   22.0561 H   0  0  0  0  0  0  0  0  0  0  0  0
    5.0537    0.9634   23.3566 H   0  0  0  0  0  0  0  0  0  0  0  0
    4.9055    1.7957   21.3707 C   0  0  0  0  0  0  0  0  0  0  0  0
    4.4601    2.7212   21.7453 H   0  0  0  0  0  0  0  0  0  0  0  0
    5.9774    1.9664   21.2507 H   0  0  0  0  0  0  0  0  0  0  0  0
    4.2860    1.4477   20.0215 C   0  0  0  0  0  0  0  0  0  0  0  0
    4.7546    0.5466   19.6168 H   0  0  0  0  0  0  0  0  0  0  0  0
    4.4640    2.2558   19.3098 H   0  0  0  0  0  0  0  0  0  0  0  0
    2.7805    1.1860   20.1735 C   0  0  1  0  0  0  0  0  0  0  0  0
    2.3018    2.0573   20.6531 H   0  0  0  0  0  0  0  0  0  0  0  0
    2.1735    1.7606   17.9264 C   0  0  1  0  0  3  0  0  0  0  0  0
    2.4653    3.1588   18.0484 C   0  0  0  0  0  0  0  0  0  0  0  0
    2.6541    3.5499   19.0348 H   0  0  0  0  0  0  0  0  0  0  0  0
    2.4251    3.9951   16.9801 C   0  0  0  0  0  0  0  0  0  0  0  0
    2.6186    5.0499   17.1043 H   0  0  0  0  0  0  0  0  0  0  0  0
    2.1071    3.4857   15.7053 C   0  0  0  0  0  0  0  0  0  0  0  0
    2.0619    4.1285   14.8437 H   0  0  0  0  0  0  0  0  0  0  0  0
    1.8292    2.1595   15.5989 C   0  0  0  0  0  0  0  0  0  0  0  0
    1.5532    1.7108   14.6563 H   0  0  0  0  0  0  0  0  0  0  0  0
    1.5823   -0.0778   16.3919 C   0  0  0  0  0  0  0  0  0  0  0  0
    0.5354   -0.1977   16.1034 H   0  0  0  0  0  0  0  0  0  0  0  0
    1.7711   -0.6659   17.2963 H   0  0  0  0  0  0  0  0  0  0  0  0
    2.2191   -0.4479   15.5875 H   0  0  0  0  0  0  0  0  0  0  0  0
    1.2042   -0.3749   21.2040 N   0  0  1  0  0  0  0  0  0  0  0  0
   -0.5004   -1.4807   22.2897 N   0  0  0  0  0  0  0  0  0  0  0  0
    2.1563    0.8846   18.9011 N   0  0  2  0  0  0  0  0  0  0  0  0
    1.8793    1.3166   16.6485 N   0  0  0  0  0  0  0  0  0  0  0  0
    0.3691   -0.1497   19.3596 Ni  0  0  0  0  0  0  0  0  0  0  0  0
  1 49  1  0  0  0  0
  2 49  1  0  0  0  0
  3 46  1  0  0  0  0
  3  4  1  1  0  0  0
  4  6  2  0  0  0  0
  5  4  1  0  0  0  0
  6  8  1  0  0  0  0
  6  7  1  0  0  0  0
  8  9  1  0  0  0  0
 10 11  1  0  0  0  0
 10  8  2  0  0  0  0
 12 14  1  0  0  0  0
 12 46  1  0  0  0  0
 12 15  1  0  0  0  0
 13 12  1  0  0  0  0
 16 17  1  6  0  0  0
 16 45  1  0  0  0  0
 16 18  1  0  0  0  0
 18 19  1  0  0  0  0
 18 20  1  0  0  0  0
 21 18  1  0  0  0  0
 21 23  1  0  0  0  0
 22 21  1  0  0  0  0
 24 25  1  0  0  0  0
 24 21  1  0  0  0  0
 26 24  1  0  0  0  0
 27 30  1  0  0  0  0
 27 24  1  0  0  0  0
 28 27  1  0  0  0  0
 29 27  1  0  0  0  0
 30 31  1  1  0  0  0
 30 16  1  0  0  0  0
 32 33  1  1  0  0  0
 33 34  1  0  0  0  0
 35 36  1  0  0  0  0
 35 33  2  0  0  0  0
 37 35  1  0  0  0  0
 38 37  1  0  0  0  0
 39 37  2  0  0  0  0
 39 48  1  0  0  0  0
 40 39  1  0  0  0  0
 41 48  1  0  0  0  0
 41 43  1  0  0  0  0
 42 41  1  0  0  0  0
 44 41  1  0  0  0  0
 45 49  1  6  0  0  0
 45  3  1  0  0  0  0
 46 10  1  0  0  0  0
 47 32  1  1  0  0  0
 47 49  1  0  0  0  0
 47 30  1  0  0  0  0
 48 32  1  0  0  0  0
M  END
$$$$
