CSD_code = MUKZIC | q = 0 | S = 0 | Stoichiometry = C11H17Cl2N3Zn | MND = 5
 OpenBabel04212202073D

 34 37  0  0  1  0  0  0  0  0999 V2000
   -0.2308    0.5996    3.8309 Zn  0  0  0  0  0  0  0  0  0  0  0  0
   -1.7529    1.6478    5.1320 Cl  0  0  0  0  0  0  0  0  0  0  0  0
    1.9782    0.7082    3.6001 Cl  0  0  0  0  0  0  0  0  0  0  0  0
   -0.7358    1.9388    2.1327 N   0  0  0  0  0  0  0  0  0  0  0  0
   -1.2577   -0.8678    2.6070 N   0  0  1  0  0  4  0  0  0  0  0  0
   -0.2338   -1.2091    5.1839 N   0  0  0  0  0  4  0  0  0  0  0  0
   -0.4243   -0.9201    6.1380 H   0  0  0  0  0  0  0  0  0  0  0  0
    0.6761   -1.6624    5.1678 H   0  0  0  0  0  0  0  0  0  0  0  0
   -0.2749    3.1673    2.3145 C   0  0  0  0  0  3  0  0  0  0  0  0
    0.4839    3.2781    3.0771 H   0  0  0  0  0  0  0  0  0  0  0  0
   -0.7184    4.2539    1.5808 C   0  0  0  0  0  0  0  0  0  0  0  0
   -0.3160    5.2369    1.7637 H   0  0  0  0  0  0  0  0  0  0  0  0
   -1.6922    4.0379    0.6218 C   0  0  0  0  0  0  0  0  0  0  0  0
   -2.0794    4.8553    0.0316 H   0  0  0  0  0  0  0  0  0  0  0  0
   -2.1646    2.7507    0.4234 C   0  0  0  0  0  0  0  0  0  0  0  0
   -2.9180    2.5682   -0.3241 H   0  0  0  0  0  0  0  0  0  0  0  0
   -1.6596    1.7118    1.1971 C   0  0  0  0  0  0  0  0  0  0  0  0
   -2.1052    0.2792    1.0375 C   0  0  2  0  0  0  0  0  0  0  0  0
   -2.5998   -0.3118    2.3766 C   0  0  0  0  0  0  0  0  0  0  0  0
   -2.9251    0.3915    3.1415 H   0  0  0  0  0  0  0  0  0  0  0  0
   -3.3557   -1.0902    2.2306 H   0  0  0  0  0  0  0  0  0  0  0  0
   -0.9198   -0.6983    1.1884 C   0  0  0  0  0  0  0  0  0  0  0  0
   -1.0639   -1.6163    0.6101 H   0  0  0  0  0  0  0  0  0  0  0  0
    0.0809   -0.3026    1.0199 H   0  0  0  0  0  0  0  0  0  0  0  0
   -3.0112    0.0339   -0.1577 C   0  0  0  0  0  0  0  0  0  0  0  0
   -3.9510    0.5692   -0.0443 H   0  0  0  0  0  0  0  0  0  0  0  0
   -3.2380   -1.0272   -0.2378 H   0  0  0  0  0  0  0  0  0  0  0  0
   -2.5271    0.3473   -1.0800 H   0  0  0  0  0  0  0  0  0  0  0  0
   -1.1544   -2.1962    3.1724 C   0  0  0  0  0  0  0  0  0  0  0  0
   -0.1688   -2.5920    2.9115 H   0  0  0  0  0  0  0  0  0  0  0  0
   -1.9272   -2.8682    2.7711 H   0  0  0  0  0  0  0  0  0  0  0  0
   -1.2748   -2.1026    4.6930 C   0  0  0  0  0  0  0  0  0  0  0  0
   -2.2411   -1.6610    4.9468 H   0  0  0  0  0  0  0  0  0  0  0  0
   -1.2157   -3.1070    5.1329 H   0  0  0  0  0  0  0  0  0  0  0  0
  1  2  1  0  0  0  0
  1  6  1  0  0  0  0
  3  1  1  0  0  0  0
  4  9  1  0  0  0  0
  4  1  1  0  0  0  0
  5 22  1  6  0  0  0
  5 29  1  0  0  0  0
  5  1  1  0  0  0  0
  6  7  1  0  0  0  0
  8  6  1  0  0  0  0
  9 10  1  0  0  0  0
 11 12  1  0  0  0  0
 11  9  1  0  0  0  0
 13 11  2  0  0  0  0
 14 13  1  0  0  0  0
 15 13  1  0  0  0  0
 15 17  2  0  0  0  0
 16 15  1  0  0  0  0
 17  4  1  0  0  0  0
 18 25  1  6  0  0  0
 18 22  1  0  0  0  0
 18 17  1  0  0  0  0
 18 19  1  0  0  0  0
 19  5  1  0  0  0  0
 19 20  1  0  0  0  0
 21 19  1  0  0  0  0
 23 22  1  0  0  0  0
 24 22  1  0  0  0  0
 25 26  1  0  0  0  0
 27 25  1  0  0  0  0
 28 25  1  0  0  0  0
 29 32  1  0  0  0  0
 30 29  1  0  0  0  0
 31 29  1  0  0  0  0
 32 33  1  0  0  0  0
 32 34  1  0  0  0  0
 32  6  1  0  0  0  0
M  END
$$$$
