CSD_code = MULBAX | q = 1 | S = 0 | Stoichiometry = C17H22ClN4Zn(1+) | MND = 5
 OpenBabel04212202073D

 45 50  0  0  1  0  0  0  0  0999 V2000
    5.7000    7.9780    9.0756 Zn  0  0  0  0  0  0  0  0  0  0  0  0
    3.9545    8.8786    8.2073 Cl  0  0  0  0  0  0  0  0  0  0  0  0
    5.0342    7.6545   11.0997 N   0  0  0  0  0  0  0  0  0  0  0  0
    7.4265    8.8527    9.9852 N   0  0  2  0  0  4  0  0  0  0  0  0
    7.0188    8.2370    7.3166 N   0  0  1  0  0  4  0  0  0  0  0  0
    6.7906    9.1000    6.8291 H   0  0  0  0  0  0  0  0  0  0  0  0
    6.0424    5.9744    8.4505 N   0  0  0  0  0  0  0  0  0  0  0  0
    3.7988    7.1630   11.1770 C   0  0  0  0  0  3  0  0  0  0  0  0
    3.3441    6.8767   10.2384 H   0  0  0  0  0  0  0  0  0  0  0  0
    3.1106    7.0348   12.3688 C   0  0  0  0  0  0  0  0  0  0  0  0
    2.1104    6.6343   12.3790 H   0  0  0  0  0  0  0  0  0  0  0  0
    3.7388    7.4440   13.5334 C   0  0  0  0  0  0  0  0  0  0  0  0
    3.2408    7.3689   14.4876 H   0  0  0  0  0  0  0  0  0  0  0  0
    5.0219    7.9603   13.4545 C   0  0  0  0  0  0  0  0  0  0  0  0
    5.5190    8.2871   14.3512 H   0  0  0  0  0  0  0  0  0  0  0  0
    5.6516    8.0568   12.2183 C   0  0  0  0  0  0  0  0  0  0  0  0
    7.0365    8.6394   12.0628 C   0  0  1  0  0  0  0  0  0  0  0  0
    7.8701    7.8859   11.0049 C   0  0  0  0  0  0  0  0  0  0  0  0
    8.9432    7.9564   11.2033 H   0  0  0  0  0  0  0  0  0  0  0  0
    7.6007    6.8512   10.7997 H   0  0  0  0  0  0  0  0  0  0  0  0
    7.0353    9.8017   11.0426 C   0  0  0  0  0  0  0  0  0  0  0  0
    6.0898   10.3115   10.8589 H   0  0  0  0  0  0  0  0  0  0  0  0
    7.8185   10.5326   11.2587 H   0  0  0  0  0  0  0  0  0  0  0  0
    7.7472    8.9270   13.3747 C   0  0  0  0  0  0  0  0  0  0  0  0
    7.2193    9.6900   13.9410 H   0  0  0  0  0  0  0  0  0  0  0  0
    8.7510    9.2959   13.1784 H   0  0  0  0  0  0  0  0  0  0  0  0
    7.8316    8.0255   13.9765 H   0  0  0  0  0  0  0  0  0  0  0  0
    8.3962    9.2960    8.9984 C   0  0  0  0  0  0  0  0  0  0  0  0
    9.4042    9.3654    9.4264 H   0  0  0  0  0  0  0  0  0  0  0  0
    8.0936   10.2880    8.6521 H   0  0  0  0  0  0  0  0  0  0  0  0
    8.3861    8.3226    7.8213 C   0  0  0  0  0  0  0  0  0  0  0  0
    9.0950    8.6526    7.0524 H   0  0  0  0  0  0  0  0  0  0  0  0
    8.6856    7.3303    8.1686 H   0  0  0  0  0  0  0  0  0  0  0  0
    6.7711    7.1095    6.4303 C   0  0  0  0  0  0  0  0  0  0  0  0
    7.6007    6.9423    5.7307 H   0  0  0  0  0  0  0  0  0  0  0  0
    5.8721    7.3274    5.8438 H   0  0  0  0  0  0  0  0  0  0  0  0
    6.4949    5.8479    7.2041 C   0  0  2  0  0  3  0  0  0  0  0  0
    6.6667    4.6014    6.6113 C   0  0  0  0  0  0  0  0  0  0  0  0
    7.0348    4.5349    5.5995 H   0  0  0  0  0  0  0  0  0  0  0  0
    6.3529    3.4618    7.3294 C   0  0  0  0  0  0  0  0  0  0  0  0
    6.4712    2.4846    6.8881 H   0  0  0  0  0  0  0  0  0  0  0  0
    5.8847    3.6028    8.6289 C   0  0  0  0  0  0  0  0  0  0  0  0
    5.6298    2.7435    9.2267 H   0  0  0  0  0  0  0  0  0  0  0  0
    5.7490    4.8766    9.1454 C   0  0  0  0  0  0  0  0  0  0  0  0
    5.3928    5.0332   10.1540 H   0  0  0  0  0  0  0  0  0  0  0  0
  1  4  1  0  0  0  0
  1  3  1  0  0  0  0
  2  1  1  0  0  0  0
  3  8  1  0  0  0  0
  3 16  1  0  0  0  0
  4 28  1  6  0  0  0
  4 18  1  0  0  0  0
  4 21  1  0  0  0  0
  5  6  1  6  0  0  0
  5 31  1  0  0  0  0
  5  1  1  0  0  0  0
  7  1  1  0  0  0  0
  7 44  1  0  0  0  0
  8 10  1  0  0  0  0
  9  8  1  0  0  0  0
 10 11  1  0  0  0  0
 10 12  2  0  0  0  0
 12 13  1  0  0  0  0
 14 12  1  0  0  0  0
 14 15  1  0  0  0  0
 16 14  2  0  0  0  0
 17 16  1  0  0  0  0
 17 24  1  1  0  0  0
 18 19  1  0  0  0  0
 18 17  1  0  0  0  0
 20 18  1  0  0  0  0
 21 23  1  0  0  0  0
 21 17  1  0  0  0  0
 22 21  1  0  0  0  0
 24 25  1  0  0  0  0
 24 27  1  0  0  0  0
 26 24  1  0  0  0  0
 28 29  1  0  0  0  0
 30 28  1  0  0  0  0
 31 33  1  0  0  0  0
 31 28  1  0  0  0  0
 32 31  1  0  0  0  0
 34 37  1  0  0  0  0
 34  5  1  0  0  0  0
 35 34  1  0  0  0  0
 36 34  1  0  0  0  0
 37 38  1  6  0  0  0
 37  7  1  0  0  0  0
 38 40  2  0  0  0  0
 39 38  1  0  0  0  0
 40 42  1  0  0  0  0
 41 40  1  0  0  0  0
 42 44  2  0  0  0  0
 42 43  1  0  0  0  0
 44 45  1  0  0  0  0
M  END
$$$$
