CSD_code = MULYUN | q = 0 | S = 0 | Stoichiometry = C29H28Cl2NPPtSe | MND = 4
 OpenBabel04212202073D

 63 67  0  0  0  0  0  0  0  0999 V2000
    3.1575    6.3131    2.9173 Pt  0  0  0  0  0  0  0  0  0  0  0  0
    4.7283    4.9367    1.9632 Cl  0  0  0  0  0  0  0  0  0  0  0  0
    1.5998    4.7027    2.6241 Cl  0  0  0  0  0  0  0  0  0  0  0  0
    1.5081    7.7313    3.5409 P   0  0  0  0  0  4  0  0  0  0  0  0
    1.2196    8.0207    5.3097 C   0  0  0  0  0  0  0  0  0  0  0  0
    0.6208    9.1763    5.7980 C   0  0  0  0  0  0  0  0  0  0  0  0
    0.3360    9.9648    5.1158 H   0  0  0  0  0  0  0  0  0  0  0  0
    0.3943    9.3055    7.1567 C   0  0  0  0  0  0  0  0  0  0  0  0
   -0.0760   10.1995    7.5405 H   0  0  0  0  0  0  0  0  0  0  0  0
    0.7692    8.2929    8.0267 C   0  0  0  0  0  0  0  0  0  0  0  0
    0.5956    8.4038    9.0867 H   0  0  0  0  0  0  0  0  0  0  0  0
    1.3662    7.1407    7.5405 C   0  0  0  0  0  0  0  0  0  0  0  0
    1.6538    6.3530    8.2204 H   0  0  0  0  0  0  0  0  0  0  0  0
    1.5879    7.0020    6.1826 C   0  0  0  0  0  0  0  0  0  0  0  0
    2.0408    6.1049    5.7743 H   0  0  0  0  0  0  0  0  0  0  0  0
   -0.1340    7.4028    2.8529 C   0  0  0  0  0  0  0  0  0  0  0  0
   -0.2047    7.2491    1.4692 C   0  0  0  0  0  0  0  0  0  0  0  0
    0.6984    7.3553    0.8803 H   0  0  0  0  0  0  0  0  0  0  0  0
   -1.4092    6.9434    0.8695 C   0  0  0  0  0  0  0  0  0  0  0  0
   -1.4632    6.8181   -0.2015 H   0  0  0  0  0  0  0  0  0  0  0  0
   -2.5467    6.7809    1.6471 C   0  0  0  0  0  0  0  0  0  0  0  0
   -3.4877    6.5330    1.1790 H   0  0  0  0  0  0  0  0  0  0  0  0
   -2.4755    6.9208    3.0223 C   0  0  0  0  0  0  0  0  0  0  0  0
   -3.3597    6.7816    3.6267 H   0  0  0  0  0  0  0  0  0  0  0  0
   -1.2702    7.2279    3.6316 C   0  0  0  0  0  0  0  0  0  0  0  0
   -1.2125    7.3229    4.7069 H   0  0  0  0  0  0  0  0  0  0  0  0
    1.9273    9.3622    2.8548 C   0  0  0  0  0  0  0  0  0  0  0  0
    0.9135   10.2245    2.4492 C   0  0  0  0  0  0  0  0  0  0  0  0
   -0.1162    9.9105    2.5539 H   0  0  0  0  0  0  0  0  0  0  0  0
    1.2003   11.4601    1.8993 C   0  0  0  0  0  0  0  0  0  0  0  0
    0.3986   12.1098    1.5823 H   0  0  0  0  0  0  0  0  0  0  0  0
    2.5217   11.8546    1.7540 C   0  0  0  0  0  0  0  0  0  0  0  0
    2.7568   12.8133    1.3166 H   0  0  0  0  0  0  0  0  0  0  0  0
    3.5367   11.0206    2.1730 C   0  0  0  0  0  0  0  0  0  0  0  0
    4.5649   11.3316    2.0586 H   0  0  0  0  0  0  0  0  0  0  0  0
    3.2703    9.7590    2.7192 C   0  0  0  0  0  0  0  0  0  0  0  0
    4.4176    8.9861    3.1512 C   0  0  0  0  0  3  0  0  0  0  0  0
    5.2960    9.6022    3.3606 H   0  0  0  0  0  0  0  0  0  0  0  0
    4.5267    7.7161    3.2991 N   0  0  0  0  0  0  0  0  0  0  0  0
    5.7652    7.1884    3.8119 C   0  0  0  0  0  0  0  0  0  0  0  0
    6.4903    7.9925    3.9862 H   0  0  0  0  0  0  0  0  0  0  0  0
    6.1549    6.4919    3.0577 H   0  0  0  0  0  0  0  0  0  0  0  0
    5.5106    6.3903    5.0959 C   0  0  0  0  0  0  0  0  0  0  0  0
    4.7573    5.6244    4.8662 H   0  0  0  0  0  0  0  0  0  0  0  0
    6.4307    5.8787    5.3811 H   0  0  0  0  0  0  0  0  0  0  0  0
    5.0146    7.2664    6.2462 C   0  0  0  0  0  0  0  0  0  0  0  0
    4.2534    7.9588    5.8709 H   0  0  0  0  0  0  0  0  0  0  0  0
    4.5380    6.6417    7.0034 H   0  0  0  0  0  0  0  0  0  0  0  0
    6.1369    8.0513    6.9034 C   0  0  0  0  0  0  0  0  0  0  0  0
    6.7403    8.5981    6.1783 H   0  0  0  0  0  0  0  0  0  0  0  0
    6.7899    7.4025    7.4886 H   0  0  0  0  0  0  0  0  0  0  0  0
    5.4155    9.3858    8.1690 Se  0  0  0  0  0  0  0  0  0  0  0  0
    4.7385   10.6238    6.8488 C   0  0  0  0  0  0  0  0  0  0  0  0
    5.5994   11.2133    5.9347 C   0  0  0  0  0  0  0  0  0  0  0  0
    6.6547   10.9789    5.9566 H   0  0  0  0  0  0  0  0  0  0  0  0
    5.1069   12.1202    5.0149 C   0  0  0  0  0  0  0  0  0  0  0  0
    5.7803   12.5902    4.3125 H   0  0  0  0  0  0  0  0  0  0  0  0
    3.7599   12.4452    5.0087 C   0  0  0  0  0  0  0  0  0  0  0  0
    3.3803   13.1636    4.2982 H   0  0  0  0  0  0  0  0  0  0  0  0
    2.9050   11.8589    5.9252 C   0  0  0  0  0  0  0  0  0  0  0  0
    1.8562   12.1157    5.9273 H   0  0  0  0  0  0  0  0  0  0  0  0
    3.3918   10.9511    6.8487 C   0  0  0  0  0  0  0  0  0  0  0  0
    2.7345   10.4959    7.5746 H   0  0  0  0  0  0  0  0  0  0  0  0
  1 39  1  0  0  0  0
  1  4  1  0  0  0  0
  2  1  1  0  0  0  0
  3  1  1  0  0  0  0
  4  5  1  0  0  0  0
  5  6  2  0  0  0  0
  5 14  1  0  0  0  0
  6  8  1  0  0  0  0
  7  6  1  0  0  0  0
  8  9  1  0  0  0  0
  8 10  2  0  0  0  0
 10 11  1  0  0  0  0
 12 10  1  0  0  0  0
 12 13  1  0  0  0  0
 14 12  2  0  0  0  0
 15 14  1  0  0  0  0
 16  4  1  0  0  0  0
 16 25  1  0  0  0  0
 17 16  2  0  0  0  0
 18 17  1  0  0  0  0
 19 17  1  0  0  0  0
 19 21  2  0  0  0  0
 20 19  1  0  0  0  0
 21 23  1  0  0  0  0
 22 21  1  0  0  0  0
 23 24  1  0  0  0  0
 23 25  2  0  0  0  0
 25 26  1  0  0  0  0
 27  4  1  0  0  0  0
 28 29  1  0  0  0  0
 28 27  2  0  0  0  0
 30 28  1  0  0  0  0
 31 30  1  0  0  0  0
 32 30  2  0  0  0  0
 32 34  1  0  0  0  0
 33 32  1  0  0  0  0
 34 36  2  0  0  0  0
 35 34  1  0  0  0  0
 36 27  1  0  0  0  0
 36 37  1  0  0  0  0
 37 39  1  0  0  0  0
 37 38  1  0  0  0  0
 39 40  1  0  0  0  0
 40 41  1  0  0  0  0
 40 43  1  0  0  0  0
 42 40  1  0  0  0  0
 43 45  1  0  0  0  0
 43 46  1  0  0  0  0
 44 43  1  0  0  0  0
 46 49  1  0  0  0  0
 46 48  1  0  0  0  0
 47 46  1  0  0  0  0
 49 51  1  0  0  0  0
 49 52  1  0  0  0  0
 50 49  1  0  0  0  0
 53 52  1  0  0  0  0
 54 55  1  0  0  0  0
 54 53  2  0  0  0  0
 56 54  1  0  0  0  0
 57 56  1  0  0  0  0
 58 56  2  0  0  0  0
 58 60  1  0  0  0  0
 59 58  1  0  0  0  0
 60 61  1  0  0  0  0
 60 62  2  0  0  0  0
 62 53  1  0  0  0  0
 62 63  1  0  0  0  0
M  END
$$$$
