CSD_code = MULZOI | q = 0 | S = 0 | Stoichiometry = C22H16Cl4N4Ru | MND = 6
 OpenBabel04212202073D

 47 52  0  0  1  0  0  0  0  0999 V2000
    3.7844    5.3548    3.8580 Ru  0  0  0  0  0  0  0  0  0  0  0  0
    0.1785    8.2657   -1.0940 Cl  0  0  0  0  0  0  0  0  0  0  0  0
    3.6588    0.4491   -1.0224 Cl  0  0  0  0  0  0  0  0  0  0  0  0
    3.0851    7.1797    3.8335 N   0  0  0  0  0  0  0  0  0  0  0  0
    3.0501    7.8428    4.6099 H   0  0  0  0  0  0  0  0  0  0  0  0
    3.2081    5.4844    1.9778 N   0  0  0  0  0  0  0  0  0  0  0  0
    4.3152    5.3504    6.1399 Cl  0  0  0  0  0  0  0  0  0  0  0  0
    1.6203    4.6499    4.3436 Cl  0  0  0  0  0  0  0  0  0  0  0  0
    2.3730    7.5030    2.7711 C   0  0  0  0  0  0  0  0  0  0  0  0
    1.6119    8.6833    2.5864 C   0  0  0  0  0  0  0  0  0  0  0  0
    1.5607    9.4054    3.3880 H   0  0  0  0  0  0  0  0  0  0  0  0
    0.9419    8.8884    1.4156 C   0  0  0  0  0  0  0  0  0  0  0  0
    0.3476    9.7759    1.2668 H   0  0  0  0  0  0  0  0  0  0  0  0
    1.0228    7.9390    0.3744 C   0  0  0  0  0  0  0  0  0  0  0  0
    1.7495    6.7848    0.4944 C   0  0  0  0  0  0  0  0  0  0  0  0
    1.8103    6.0783   -0.3183 H   0  0  0  0  0  0  0  0  0  0  0  0
    2.4291    6.5284    1.7042 C   0  0  0  0  0  0  0  0  0  0  0  0
    3.2895    4.3578    1.1771 C   0  0  0  0  0  0  0  0  0  0  0  0
    4.5464    3.8566    0.8262 C   0  0  0  0  0  0  0  0  0  0  0  0
    5.4315    4.4201    1.0910 H   0  0  0  0  0  0  0  0  0  0  0  0
    4.6605    2.6639    0.1425 C   0  0  0  0  0  0  0  0  0  0  0  0
    5.6307    2.2791   -0.1301 H   0  0  0  0  0  0  0  0  0  0  0  0
    3.5145    1.9561   -0.1909 C   0  0  0  0  0  0  0  0  0  0  0  0
    2.2587    2.4402    0.1442 C   0  0  0  0  0  0  0  0  0  0  0  0
    1.3764    1.8769   -0.1155 H   0  0  0  0  0  0  0  0  0  0  0  0
    2.1451    3.6398    0.8178 C   0  0  0  0  0  0  0  0  0  0  0  0
    1.1776    4.0076    1.1234 H   0  0  0  0  0  0  0  0  0  0  0  0
    4.5182    3.4978    3.8495 N   0  0  0  0  0  0  0  0  0  0  0  0
    5.7060    5.7566    3.6366 N   0  0  0  0  0  0  0  0  0  0  0  0
    3.8124    2.3705    3.8378 C   0  0  0  0  0  3  0  0  0  0  0  0
    2.7423    2.4821    3.7099 H   0  0  0  0  0  0  0  0  0  0  0  0
    4.3902    1.1273    4.0052 C   0  0  0  0  0  0  0  0  0  0  0  0
    3.7741    0.2434    3.9956 H   0  0  0  0  0  0  0  0  0  0  0  0
    5.7636    1.0446    4.2013 C   0  0  0  0  0  0  0  0  0  0  0  0
    6.2442    0.0900    4.3499 H   0  0  0  0  0  0  0  0  0  0  0  0
    6.5037    2.2098    4.2058 C   0  0  0  0  0  0  0  0  0  0  0  0
    7.5700    2.1768    4.3595 H   0  0  0  0  0  0  0  0  0  0  0  0
    5.8578    3.4329    4.0209 C   0  0  0  0  0  0  0  0  0  0  0  0
    6.5310    4.7198    3.9195 C   0  0  1  0  0  3  0  0  0  0  0  0
    7.9101    4.9068    4.0266 C   0  0  0  0  0  0  0  0  0  0  0  0
    8.5484    4.0747    4.2739 H   0  0  0  0  0  0  0  0  0  0  0  0
    8.4472    6.1622    3.8312 C   0  0  0  0  0  0  0  0  0  0  0  0
    9.5087    6.3278    3.9261 H   0  0  0  0  0  0  0  0  0  0  0  0
    7.5897    7.2099    3.5060 C   0  0  0  0  0  0  0  0  0  0  0  0
    7.9674    8.2044    3.3333 H   0  0  0  0  0  0  0  0  0  0  0  0
    6.2364    6.9618    3.4227 C   0  0  0  0  0  0  0  0  0  0  0  0
    5.5367    7.7547    3.1859 H   0  0  0  0  0  0  0  0  0  0  0  0
  1  8  1  0  0  0  0
  1  7  1  0  0  0  0
  2 14  1  0  0  0  0
  3 23  1  0  0  0  0
  4  1  1  0  0  0  0
  4  5  1  0  0  0  0
  6  1  1  0  0  0  0
  9  4  1  0  0  0  0
 10  9  1  0  0  0  0
 10 11  1  0  0  0  0
 12 10  2  0  0  0  0
 13 12  1  0  0  0  0
 14 15  2  0  0  0  0
 14 12  1  0  0  0  0
 15 17  1  0  0  0  0
 16 15  1  0  0  0  0
 17  6  1  0  0  0  0
 17  9  2  0  0  0  0
 18  6  1  0  0  0  0
 19 20  1  0  0  0  0
 19 18  1  0  0  0  0
 21 19  2  0  0  0  0
 22 21  1  0  0  0  0
 23 21  1  0  0  0  0
 23 24  2  0  0  0  0
 24 26  1  0  0  0  0
 25 24  1  0  0  0  0
 26 27  1  0  0  0  0
 26 18  2  0  0  0  0
 28  1  1  0  0  0  0
 28 38  1  0  0  0  0
 29  1  1  0  0  0  0
 29 39  1  0  0  0  0
 30 28  1  0  0  0  0
 30 32  1  0  0  0  0
 31 30  1  0  0  0  0
 32 34  2  0  0  0  0
 33 32  1  0  0  0  0
 34 36  1  0  0  0  0
 34 35  1  0  0  0  0
 36 37  1  0  0  0  0
 38 36  2  0  0  0  0
 39 38  1  6  0  0  0
 39 40  1  0  0  0  0
 40 41  1  0  0  0  0
 42 43  1  0  0  0  0
 42 40  2  0  0  0  0
 44 42  1  0  0  0  0
 45 44  1  0  0  0  0
 46 44  2  0  0  0  0
 46 29  1  0  0  0  0
 47 46  1  0  0  0  0
M  END
$$$$
