CSD_code = MUNFOR | q = 0 | S = 0 | Stoichiometry = C30H31Cl2OPTi | MND = 9
 OpenBabel04212202073D

 66 66  0  0  1  0  0  0  0  0999 V2000
   11.7017    0.4290    1.1074 C   0  0  0  0  0  0  0  0  0  0  0  0
   12.4170   -0.8024    1.0307 C   0  0  0  0  0  0  0  0  0  0  0  0
   13.4774   -0.7546    1.9805 C   0  0  0  0  0  0  0  0  0  0  0  0
   13.3913    0.4808    2.6722 C   0  0  0  0  0  0  0  0  0  0  0  0
   12.2868    1.2094    2.1355 C   0  0  1  0  0  3  0  0  0  0  0  0
   10.5727    0.8669    0.2189 C   0  0  0  0  0  0  0  0  0  0  0  0
    9.7893    1.3639    0.7941 H   0  0  0  0  0  0  0  0  0  0  0  0
   10.1257    0.0166   -0.2938 H   0  0  0  0  0  0  0  0  0  0  0  0
   10.9380    1.5683   -0.5352 H   0  0  0  0  0  0  0  0  0  0  0  0
   12.2153   -1.9125    0.0410 C   0  0  0  0  0  0  0  0  0  0  0  0
   12.9955   -1.8826   -0.7233 H   0  0  0  0  0  0  0  0  0  0  0  0
   11.2483   -1.8303   -0.4513 H   0  0  0  0  0  0  0  0  0  0  0  0
   12.2630   -2.8813    0.5404 H   0  0  0  0  0  0  0  0  0  0  0  0
   14.5845   -1.7604    2.0974 C   0  0  0  0  0  0  0  0  0  0  0  0
   14.2226   -2.7661    1.8871 H   0  0  0  0  0  0  0  0  0  0  0  0
   15.0142   -1.7558    3.0986 H   0  0  0  0  0  0  0  0  0  0  0  0
   15.3780   -1.5240    1.3832 H   0  0  0  0  0  0  0  0  0  0  0  0
   14.3865    1.0061    3.6637 C   0  0  0  0  0  0  0  0  0  0  0  0
   13.9285    1.7476    4.3160 H   0  0  0  0  0  0  0  0  0  0  0  0
   15.2239    1.4751    3.1398 H   0  0  0  0  0  0  0  0  0  0  0  0
   14.7803    0.2020    4.2860 H   0  0  0  0  0  0  0  0  0  0  0  0
   11.8882    2.5987    2.5403 C   0  0  0  0  0  0  0  0  0  0  0  0
   12.6449    3.3192    2.2209 H   0  0  0  0  0  0  0  0  0  0  0  0
   11.7884    2.6657    3.6252 H   0  0  0  0  0  0  0  0  0  0  0  0
   10.9361    2.8740    2.0891 H   0  0  0  0  0  0  0  0  0  0  0  0
    9.7749   -1.4080    2.3919 C   0  0  0  0  0  2  0  0  0  0  0  0
    8.5380   -1.9730    2.2784 C   0  0  0  0  0  3  0  0  0  0  0  0
    8.2215   -2.8587    1.7566 H   0  0  0  0  0  0  0  0  0  0  0  0
    5.8068   -1.5895    3.2360 C   0  0  0  0  0  0  0  0  0  0  0  0
    5.7074   -2.9545    3.4889 C   0  0  0  0  0  0  0  0  0  0  0  0
    6.6121   -3.5329    3.6212 H   0  0  0  0  0  0  0  0  0  0  0  0
    4.4681   -3.5599    3.5721 C   0  0  0  0  0  0  0  0  0  0  0  0
    4.3961   -4.6204    3.7631 H   0  0  0  0  0  0  0  0  0  0  0  0
    3.3180   -2.8027    3.4135 C   0  0  0  0  0  0  0  0  0  0  0  0
    2.3484   -3.2737    3.4769 H   0  0  0  0  0  0  0  0  0  0  0  0
    3.4114   -1.4408    3.1804 C   0  0  0  0  0  0  0  0  0  0  0  0
    2.5148   -0.8493    3.0661 H   0  0  0  0  0  0  0  0  0  0  0  0
    4.6513   -0.8316    3.0963 C   0  0  0  0  0  0  0  0  0  0  0  0
    4.7206    0.2323    2.9168 H   0  0  0  0  0  0  0  0  0  0  0  0
    7.3042    0.7934    2.5530 C   0  0  0  0  0  0  0  0  0  0  0  0
    6.7209    0.9239    1.2964 C   0  0  0  0  0  0  0  0  0  0  0  0
    6.3380    0.0437    0.7953 H   0  0  0  0  0  0  0  0  0  0  0  0
    6.6425    2.1690    0.6988 C   0  0  0  0  0  0  0  0  0  0  0  0
    6.1908    2.2719   -0.2768 H   0  0  0  0  0  0  0  0  0  0  0  0
    7.1522    3.2809    1.3502 C   0  0  0  0  0  0  0  0  0  0  0  0
    7.0947    4.2523    0.8820 H   0  0  0  0  0  0  0  0  0  0  0  0
    7.7499    3.1467    2.5949 C   0  0  0  0  0  0  0  0  0  0  0  0
    8.1605    4.0130    3.0924 H   0  0  0  0  0  0  0  0  0  0  0  0
    7.8356    1.9052    3.1974 C   0  0  0  0  0  0  0  0  0  0  0  0
    8.3352    1.7834    4.1490 H   0  0  0  0  0  0  0  0  0  0  0  0
    7.8856   -0.8533    4.9825 C   0  0  0  0  0  0  0  0  0  0  0  0
    8.8911   -1.6603    5.5029 C   0  0  0  0  0  0  0  0  0  0  0  0
    9.4587   -2.3185    4.8503 H   0  0  0  0  0  0  0  0  0  0  0  0
    9.1736   -1.6085    6.8564 C   0  0  0  0  0  0  0  0  0  0  0  0
    9.9710   -2.2167    7.2562 H   0  0  0  0  0  0  0  0  0  0  0  0
    8.4498   -0.7680    7.6867 C   0  0  0  0  0  0  0  0  0  0  0  0
    8.6828   -0.7201    8.7399 H   0  0  0  0  0  0  0  0  0  0  0  0
    7.4270    0.0120    7.1708 C   0  0  0  0  0  0  0  0  0  0  0  0
    6.8574    0.6595    7.8215 H   0  0  0  0  0  0  0  0  0  0  0  0
    7.1385   -0.0311    5.8192 C   0  0  0  0  0  0  0  0  0  0  0  0
    6.3421    0.5741    5.4053 H   0  0  0  0  0  0  0  0  0  0  0  0
   11.5635    0.2139    5.1709 Cl  0  0  0  0  0 15  0  0  0  0  0  0
   12.0519   -2.7001    3.9041 Cl  0  0  0  0  0 15  0  0  0  0  0  0
    9.7177   -0.2642    3.0564 O   0  0  0  0  0  0  0  0  0  0  0  0
    7.4843   -0.8879    3.2117 P   0  0  0  0  0  4  0  0  0  0  0  0
   11.5037   -0.7002    3.1299 Ti  0  0  0  0  0  0  0  0  0  0  0  0
  1  5  1  0  0  0  0
  2  1  2  0  0  0  0
  2  3  1  0  0  0  0
  3 14  1  0  0  0  0
  3  4  2  0  0  0  0
  4 18  1  0  0  0  0
  5 22  1  6  0  0  0
  5  4  1  0  0  0  0
  6  7  1  0  0  0  0
  6  1  1  0  0  0  0
  8  6  1  0  0  0  0
  9  6  1  0  0  0  0
 10 13  1  0  0  0  0
 10  2  1  0  0  0  0
 11 10  1  0  0  0  0
 12 10  1  0  0  0  0
 14 16  1  0  0  0  0
 15 14  1  0  0  0  0
 17 14  1  0  0  0  0
 18 21  1  0  0  0  0
 18 19  1  0  0  0  0
 20 18  1  0  0  0  0
 22 24  1  0  0  0  0
 23 22  1  0  0  0  0
 25 22  1  0  0  0  0
 26 64  1  0  0  0  0
 27 26  1  0  0  0  0
 27 65  1  0  0  0  0
 28 27  1  0  0  0  0
 29 30  1  0  0  0  0
 30 32  2  0  0  0  0
 30 31  1  0  0  0  0
 32 33  1  0  0  0  0
 34 35  1  0  0  0  0
 34 32  1  0  0  0  0
 36 34  2  0  0  0  0
 37 36  1  0  0  0  0
 38 36  1  0  0  0  0
 38 29  2  0  0  0  0
 39 38  1  0  0  0  0
 40 49  1  0  0  0  0
 40 65  1  0  0  0  0
 41 40  2  0  0  0  0
 42 41  1  0  0  0  0
 43 41  1  0  0  0  0
 43 45  2  0  0  0  0
 44 43  1  0  0  0  0
 45 47  1  0  0  0  0
 46 45  1  0  0  0  0
 47 48  1  0  0  0  0
 47 49  2  0  0  0  0
 49 50  1  0  0  0  0
 51 52  2  0  0  0  0
 51 60  1  0  0  0  0
 52 54  1  0  0  0  0
 53 52  1  0  0  0  0
 54 55  1  0  0  0  0
 54 56  2  0  0  0  0
 56 57  1  0  0  0  0
 58 56  1  0  0  0  0
 58 59  1  0  0  0  0
 60 58  2  0  0  0  0
 61 60  1  0  0  0  0
 64 66  1  0  0  0  0
 65 29  1  0  0  0  0
 65 51  1  0  0  0  0
M  END
$$$$
