CSD_code = MUNPAM | q = 0 | S = 0 | Stoichiometry = C17H21AgBrN3O | MND = 2
 OpenBabel04212202073D

 44 46  0  0  1  0  0  0  0  0999 V2000
   -1.9567    0.0450    4.7217 Ag  0  0  0  0  0  0  0  0  0  0  0  0
   -3.2022   -1.4239    3.3392 Br  0  0  0  0  0  0  0  0  0  0  0  0
   -0.9029    1.4371    5.9717 C   0  0  1  0  0  3  0  0  0  0  0  0
    0.1010    2.2973    5.7528 N   0  0  0  0  0  0  0  0  0  0  0  0
    0.3788    3.0398    6.8762 C   0  0  0  0  0  0  0  0  0  0  0  0
   -0.4779    2.6392    7.8386 C   0  0  0  0  0  0  0  0  0  0  0  0
   -1.2591    1.6547    7.2704 N   0  0  0  0  0  0  0  0  0  0  0  0
   -2.2644    0.9939    7.9364 C   0  0  0  0  0  0  0  0  0  0  0  0
   -2.9490    0.0638    7.2419 O   0  0  0  0  0  0  0  0  0  0  0  0
   -3.9194   -0.4607    8.1458 C   0  0  0  0  0  0  0  0  0  0  0  0
   -3.6818    0.3219    9.4738 C   0  0  0  0  0  0  0  0  0  0  0  0
   -2.5781    1.2079    9.1412 N   0  0  0  0  0  0  0  0  0  0  0  0
   -3.2645   -0.6017   10.6168 C   0  0  0  0  0  0  0  0  0  0  0  0
   -4.8983    1.1555    9.8729 C   0  0  0  0  0  0  0  0  0  0  0  0
    0.7966    2.4208    4.5189 C   0  0  0  0  0  0  0  0  0  0  0  0
    2.0165    1.7619    4.3612 C   0  0  0  0  0  0  0  0  0  0  0  0
    2.6892    1.9054    3.1594 C   0  0  0  0  0  0  0  0  0  0  0  0
    2.1730    2.6782    2.1263 C   0  0  0  0  0  0  0  0  0  0  0  0
    0.9553    3.3149    2.3114 C   0  0  0  0  0  0  0  0  0  0  0  0
    0.2493    3.1984    3.5000 C   0  0  0  0  0  0  0  0  0  0  0  0
    2.5625    0.9061    5.4635 C   0  0  0  0  0  0  0  0  0  0  0  0
    2.9193    2.7968    0.8342 C   0  0  0  0  0  0  0  0  0  0  0  0
   -1.0756    3.8729    3.6828 C   0  0  0  0  0  0  0  0  0  0  0  0
    1.1500    3.7826    6.8883 H   0  0  0  0  0  0  0  0  0  0  0  0
   -0.6211    2.9412    8.8538 H   0  0  0  0  0  0  0  0  0  0  0  0
   -3.7489   -1.5344    8.2514 H   0  0  0  0  0  0  0  0  0  0  0  0
   -4.9122   -0.2901    7.7243 H   0  0  0  0  0  0  0  0  0  0  0  0
   -4.0800   -1.2751   10.8666 H   0  0  0  0  0  0  0  0  0  0  0  0
   -2.3927   -1.1872   10.3329 H   0  0  0  0  0  0  0  0  0  0  0  0
   -3.0107   -0.0075   11.4902 H   0  0  0  0  0  0  0  0  0  0  0  0
   -5.7346    0.5025   10.1086 H   0  0  0  0  0  0  0  0  0  0  0  0
   -4.6568    1.7568   10.7449 H   0  0  0  0  0  0  0  0  0  0  0  0
   -5.1842    1.8226    9.0625 H   0  0  0  0  0  0  0  0  0  0  0  0
    3.6332    1.3992    3.0201 H   0  0  0  0  0  0  0  0  0  0  0  0
    0.5393    3.9114    1.5129 H   0  0  0  0  0  0  0  0  0  0  0  0
    3.4981    0.4448    5.1605 H   0  0  0  0  0  0  0  0  0  0  0  0
    2.7411    1.4925    6.3648 H   0  0  0  0  0  0  0  0  0  0  0  0
    1.8525    0.1169    5.7126 H   0  0  0  0  0  0  0  0  0  0  0  0
    2.4654    3.5429    0.1874 H   0  0  0  0  0  0  0  0  0  0  0  0
    3.9574    3.0707    1.0151 H   0  0  0  0  0  0  0  0  0  0  0  0
    2.9135    1.8399    0.3131 H   0  0  0  0  0  0  0  0  0  0  0  0
   -1.0977    4.4564    4.6029 H   0  0  0  0  0  0  0  0  0  0  0  0
   -1.2889    4.5304    2.8443 H   0  0  0  0  0  0  0  0  0  0  0  0
   -1.8699    3.1239    3.7395 H   0  0  0  0  0  0  0  0  0  0  0  0
  2  1  1  0  0  0  0
  3  1  1  6  0  0  0
  3  7  1  0  0  0  0
  4  3  1  0  0  0  0
  4  5  1  0  0  0  0
  5 24  1  0  0  0  0
  5  6  2  0  0  0  0
  6 25  1  0  0  0  0
  7  6  1  0  0  0  0
  7  8  1  0  0  0  0
  8 12  2  0  0  0  0
  9  8  1  0  0  0  0
  9 10  1  0  0  0  0
 10 26  1  0  0  0  0
 10 11  1  0  0  0  0
 11 14  1  0  0  0  0
 11 13  1  0  0  0  0
 12 11  1  0  0  0  0
 13 28  1  0  0  0  0
 13 30  1  0  0  0  0
 14 31  1  0  0  0  0
 14 32  1  0  0  0  0
 15  4  1  0  0  0  0
 16 15  1  0  0  0  0
 16 21  1  0  0  0  0
 17 16  2  0  0  0  0
 18 19  2  0  0  0  0
 18 17  1  0  0  0  0
 19 20  1  0  0  0  0
 20 23  1  0  0  0  0
 20 15  2  0  0  0  0
 21 38  1  0  0  0  0
 21 37  1  0  0  0  0
 22 40  1  0  0  0  0
 22 18  1  0  0  0  0
 23 44  1  0  0  0  0
 23 42  1  0  0  0  0
 27 10  1  0  0  0  0
 29 13  1  0  0  0  0
 33 14  1  0  0  0  0
 34 17  1  0  0  0  0
 35 19  1  0  0  0  0
 36 21  1  0  0  0  0
 39 22  1  0  0  0  0
 41 22  1  0  0  0  0
 43 23  1  0  0  0  0
M  END
$$$$
