CSD_code = MUPKEP | q = 1 | S = 0 | Stoichiometry = C23H34CuIN9(1+) | MND = 3
 OpenBabel04212202073D

 68 71  0  0  0  0  0  0  0  0999 V2000
    0.8179    3.1645   14.9502 I   0  0  0  0  0  0  0  0  0  0  0  0
    3.1762    3.1645   14.2350 Cu  0  0  0  0  0  0  0  0  0  0  0  0
    4.4034    4.5767   13.7840 N   0  0  0  0  0  0  0  0  0  0  0  0
    3.2028    6.2149   14.9107 N   0  0  0  0  0  0  0  0  0  0  0  0
    3.4143    6.3193   12.5859 N   0  0  0  0  0  0  0  0  0  0  0  0
   11.3925    3.1645   11.1720 N   0  0  0  0  0  0  0  0  0  0  0  0
    9.5654    4.3526   11.8945 N   0  0  0  0  0  0  0  0  0  0  0  0
    5.6530    4.4355   13.3118 C   0  0  0  0  0  0  0  0  0  0  0  0
    6.4327    5.6195   13.1210 C   0  0  0  0  0  0  0  0  0  0  0  0
    5.9631    6.5615   13.3717 H   0  0  0  0  0  0  0  0  0  0  0  0
    7.7003    5.6025   12.6513 C   0  0  0  0  0  0  0  0  0  0  0  0
    8.2654    6.5077   12.4983 H   0  0  0  0  0  0  0  0  0  0  0  0
    8.3284    4.3566   12.3608 C   0  0  0  0  0  0  0  0  0  0  0  0
    7.6009    3.1645   12.6105 C   0  0  0  0  0  0  0  0  0  0  0  0
    6.2608    3.1645   13.0812 C   0  0  0  0  0  0  0  0  0  0  0  0
   10.1510    3.1645   11.6595 C   0  0  0  0  0  0  0  0  0  0  0  0
    3.6925    5.7244   13.7647 C   0  0  0  0  0  3  0  0  0  0  0  0
    3.7379    5.7550   16.1743 C   0  0  0  0  0  0  0  0  0  0  0  0
    3.1428    4.9321   16.5801 H   0  0  0  0  0  0  0  0  0  0  0  0
    3.7109    6.5832   16.8817 H   0  0  0  0  0  0  0  0  0  0  0  0
    4.7668    5.4230   16.0533 H   0  0  0  0  0  0  0  0  0  0  0  0
    1.9156    6.8752   15.0240 C   0  0  0  0  0  0  0  0  0  0  0  0
    2.0318    7.9116   15.3442 H   0  0  0  0  0  0  0  0  0  0  0  0
    1.3205    6.3484   15.7713 H   0  0  0  0  0  0  0  0  0  0  0  0
    1.3757    6.8350   14.0837 H   0  0  0  0  0  0  0  0  0  0  0  0
    3.6300    5.6184   11.3405 C   0  0  0  0  0  0  0  0  0  0  0  0
    4.6318    5.7979   10.9378 H   0  0  0  0  0  0  0  0  0  0  0  0
    2.8922    5.9652   10.6176 H   0  0  0  0  0  0  0  0  0  0  0  0
    3.4965    4.5472   11.4875 H   0  0  0  0  0  0  0  0  0  0  0  0
    3.1499    7.7358   12.4417 C   0  0  0  0  0  0  0  0  0  0  0  0
    2.1267    7.9181   12.1082 H   0  0  0  0  0  0  0  0  0  0  0  0
    3.8318    8.1393   11.6896 H   0  0  0  0  0  0  0  0  0  0  0  0
    3.3259    8.2570   13.3777 H   0  0  0  0  0  0  0  0  0  0  0  0
   12.1029    4.3882   10.8990 C   0  0  0  0  0  0  0  0  0  0  0  0
   12.3731    4.4345    9.8416 H   0  0  0  0  0  0  0  0  0  0  0  0
   13.0175    4.4295   11.4947 H   0  0  0  0  0  0  0  0  0  0  0  0
   11.4668    5.2320   11.1502 H   0  0  0  0  0  0  0  0  0  0  0  0
    4.4033    1.7524   13.7840 N   0  0  0  0  0  0  0  0  0  0  0  0
    3.2028    0.1142   14.9107 N   0  0  0  0  0  0  0  0  0  0  0  0
    3.4143    0.0097   12.5859 N   0  0  0  0  0  0  0  0  0  0  0  0
    9.5654    1.9764   11.8945 N   0  0  0  0  0  2  0  0  0  0  0  0
    5.6530    1.8935   13.3118 C   0  0  0  0  0  0  0  0  0  0  0  0
    6.4327    0.7095   13.1211 C   0  0  0  0  0  0  0  0  0  0  0  0
    5.9631   -0.2325   13.3717 H   0  0  0  0  0  0  0  0  0  0  0  0
    7.7003    0.7265   12.6513 C   0  0  0  0  0  0  0  0  0  0  0  0
    8.2654   -0.1787   12.4983 H   0  0  0  0  0  0  0  0  0  0  0  0
    8.3284    1.9724   12.3608 C   0  0  0  0  0  0  0  0  0  0  0  0
    3.6925    0.6047   13.7647 C   0  0  0  0  0  3  0  0  0  0  0  0
    3.7379    0.5740   16.1743 C   0  0  0  0  0  0  0  0  0  0  0  0
    3.1428    1.3969   16.5800 H   0  0  0  0  0  0  0  0  0  0  0  0
    3.7110   -0.2542   16.8817 H   0  0  0  0  0  0  0  0  0  0  0  0
    4.7668    0.9060   16.0533 H   0  0  0  0  0  0  0  0  0  0  0  0
    1.9156   -0.5462   15.0240 C   0  0  0  0  0  0  0  0  0  0  0  0
    2.0318   -1.5826   15.3442 H   0  0  0  0  0  0  0  0  0  0  0  0
    1.3205   -0.0194   15.7713 H   0  0  0  0  0  0  0  0  0  0  0  0
    1.3757   -0.5059   14.0837 H   0  0  0  0  0  0  0  0  0  0  0  0
    3.6300    0.7106   11.3405 C   0  0  0  0  0  0  0  0  0  0  0  0
    4.6319    0.5311   10.9378 H   0  0  0  0  0  0  0  0  0  0  0  0
    2.8922    0.3638   10.6176 H   0  0  0  0  0  0  0  0  0  0  0  0
    3.4965    1.7818   11.4875 H   0  0  0  0  0  0  0  0  0  0  0  0
    3.1499   -1.4068   12.4417 C   0  0  0  0  0  0  0  0  0  0  0  0
    2.1267   -1.5891   12.1082 H   0  0  0  0  0  0  0  0  0  0  0  0
    3.8318   -1.8102   11.6896 H   0  0  0  0  0  0  0  0  0  0  0  0
    3.3259   -1.9280   13.3777 H   0  0  0  0  0  0  0  0  0  0  0  0
   12.1029    1.9408   10.8990 C   0  0  0  0  0  0  0  0  0  0  0  0
   12.3731    1.8945    9.8416 H   0  0  0  0  0  0  0  0  0  0  0  0
   13.0175    1.8995   11.4947 H   0  0  0  0  0  0  0  0  0  0  0  0
   11.4667    1.0971   11.1502 H   0  0  0  0  0  0  0  0  0  0  0  0
  2  1  1  0  0  0  0
  3  2  1  0  0  0  0
  4 22  1  0  0  0  0
  4 18  1  0  0  0  0
  5 17  1  0  0  0  0
  6 16  1  0  0  0  0
  7 13  1  0  0  0  0
  8  3  1  0  0  0  0
  9  8  1  0  0  0  0
  9 10  1  0  0  0  0
 11  9  2  0  0  0  0
 12 11  1  0  0  0  0
 13 14  2  0  0  0  0
 13 11  1  0  0  0  0
 14 15  1  0  0  0  0
 15 42  1  0  0  0  0
 15  8  2  0  0  0  0
 16  7  2  0  0  0  0
 16 41  1  0  0  0  0
 17  3  1  0  0  0  0
 17  4  1  0  0  0  0
 18 19  1  0  0  0  0
 18 20  1  0  0  0  0
 21 18  1  0  0  0  0
 22 23  1  0  0  0  0
 22 24  1  0  0  0  0
 25 22  1  0  0  0  0
 26 29  1  0  0  0  0
 26  5  1  0  0  0  0
 27 26  1  0  0  0  0
 28 26  1  0  0  0  0
 30  5  1  0  0  0  0
 30 33  1  0  0  0  0
 31 30  1  0  0  0  0
 32 30  1  0  0  0  0
 34 37  1  0  0  0  0
 34  6  1  0  0  0  0
 34 36  1  0  0  0  0
 35 34  1  0  0  0  0
 38  2  1  0  0  0  0
 39 53  1  0  0  0  0
 39 49  1  0  0  0  0
 40 48  1  0  0  0  0
 41 47  1  0  0  0  0
 42 38  1  0  0  0  0
 43 42  2  0  0  0  0
 43 44  1  0  0  0  0
 45 43  1  0  0  0  0
 46 45  1  0  0  0  0
 47 14  1  0  0  0  0
 47 45  2  0  0  0  0
 48 38  1  0  0  0  0
 48 39  1  0  0  0  0
 49 50  1  0  0  0  0
 49 51  1  0  0  0  0
 52 49  1  0  0  0  0
 53 54  1  0  0  0  0
 53 55  1  0  0  0  0
 56 53  1  0  0  0  0
 57 60  1  0  0  0  0
 57 40  1  0  0  0  0
 58 57  1  0  0  0  0
 59 57  1  0  0  0  0
 61 40  1  0  0  0  0
 61 64  1  0  0  0  0
 62 61  1  0  0  0  0
 63 61  1  0  0  0  0
 65 68  1  0  0  0  0
 65  6  1  0  0  0  0
 65 67  1  0  0  0  0
 66 65  1  0  0  0  0
M  END
$$$$
