CSD_code = MUQLIU | q = 1 | S = 0 | Stoichiometry = C16H19BrF3N4O3Pt(1+) | MND = 4
 OpenBabel04212202073D

 47 50  0  0  1  0  0  0  0  0999 V2000
    6.9651    2.5184    4.0434 Pt  0  0  2  0  0  0  0  0  0  0  0  0
    6.5718    1.9529    1.7710 Br  0  0  0  0  0  0  0  0  0  0  0  0
   11.5846    9.7776   14.1170 F   0  0  0  0  0  0  0  0  0  0  0  0
   12.4251    9.3220   12.1918 F   0  0  0  0  0  0  0  0  0  0  0  0
   10.5406   10.3522   12.3279 F   0  0  0  0  0  0  0  0  0  0  0  0
    7.8433    3.7478    8.6917 O   0  0  0  0  0  0  0  0  0  0  0  0
    9.2147    5.6220   12.7998 O   0  0  0  0  0  0  0  0  0  0  0  0
    9.3034    5.4866   15.0043 O   0  0  0  0  0  0  0  0  0  0  0  0
    5.1472    3.4439    4.2667 N   0  0  0  0  0  4  0  0  0  0  0  0
    4.9357    4.1934    3.6023 H   0  0  0  0  0  0  0  0  0  0  0  0
    4.4681    2.6977    4.0753 H   0  0  0  0  0  0  0  0  0  0  0  0
    7.2837    2.9658    6.0675 N   0  0  1  0  0  4  0  0  0  0  0  0
    8.6896    1.4114    4.1588 N   0  0  0  0  0  4  0  0  0  0  0  0
    8.3827    0.4566    3.9384 H   0  0  0  0  0  0  0  0  0  0  0  0
    9.4181    1.6364    3.4758 H   0  0  0  0  0  0  0  0  0  0  0  0
    8.9115    5.6551    8.0330 N   0  0  0  0  0  0  0  0  0  0  0  0
    9.1805    6.1996    7.2234 H   0  0  0  0  0  0  0  0  0  0  0  0
    5.0306    3.9082    5.6706 C   0  0  0  0  0  0  0  0  0  0  0  0
    3.9933    3.8683    6.0158 H   0  0  0  0  0  0  0  0  0  0  0  0
    5.3528    4.9505    5.7225 H   0  0  0  0  0  0  0  0  0  0  0  0
    5.8965    3.0252    6.5795 C   0  0  0  0  0  0  0  0  0  0  0  0
    5.8695    3.3892    7.6102 H   0  0  0  0  0  0  0  0  0  0  0  0
    5.4902    2.0095    6.5710 H   0  0  0  0  0  0  0  0  0  0  0  0
    8.0391    1.7729    6.5114 C   0  0  0  0  0  0  0  0  0  0  0  0
    7.3560    0.9183    6.4974 H   0  0  0  0  0  0  0  0  0  0  0  0
    8.4059    1.8937    7.5344 H   0  0  0  0  0  0  0  0  0  0  0  0
    9.2005    1.4882    5.5496 C   0  0  0  0  0  0  0  0  0  0  0  0
    9.9517    2.2790    5.6049 H   0  0  0  0  0  0  0  0  0  0  0  0
    9.6868    0.5536    5.8442 H   0  0  0  0  0  0  0  0  0  0  0  0
    8.0167    4.2100    6.3284 C   0  0  0  0  0  0  0  0  0  0  0  0
    7.4687    5.0477    5.8905 H   0  0  0  0  0  0  0  0  0  0  0  0
    8.9911    4.1632    5.8362 H   0  0  0  0  0  0  0  0  0  0  0  0
    8.2402    4.4994    7.8309 C   0  0  0  0  0  0  0  0  0  0  0  0
    9.3017    6.2294    9.2540 C   0  0  0  0  0  0  0  0  0  0  0  0
    9.9700    7.4585    9.1991 C   0  0  0  0  0  0  0  0  0  0  0  0
   10.1606    7.9258    8.2446 H   0  0  0  0  0  0  0  0  0  0  0  0
   10.3874    8.0790   10.3510 C   0  0  0  0  0  0  0  0  0  0  0  0
   10.8991    9.0246   10.2824 H   0  0  0  0  0  0  0  0  0  0  0  0
   10.1529    7.4912   11.5998 C   0  0  0  0  0  0  0  0  0  0  0  0
   10.5497    8.0501   12.8682 C   0  0  0  0  0  0  0  0  0  0  0  0
   10.2795    7.4038   14.0182 C   0  0  0  0  0  0  0  0  0  0  0  0
   10.5624    7.7923   14.9842 H   0  0  0  0  0  0  0  0  0  0  0  0
    9.5774    6.1195   14.0268 C   0  0  0  0  0  0  0  0  0  0  0  0
    9.4800    6.2566   11.6454 C   0  0  0  0  0  0  0  0  0  0  0  0
    9.0554    5.6294   10.4761 C   0  0  0  0  0  0  0  0  0  0  0  0
    8.5430    4.6863   10.5563 H   0  0  0  0  0  0  0  0  0  0  0  0
   11.2762    9.3761   12.8865 C   0  0  0  0  0  0  0  0  0  0  0  0
  1  2  1  6  0  0  0
  1 13  1  0  0  0  0
  1  9  1  0  0  0  0
  1 12  1  0  0  0  0
  4 47  1  0  0  0  0
  5 47  1  0  0  0  0
  7 43  1  0  0  0  0
  9 18  1  0  0  0  0
 10  9  1  0  0  0  0
 11  9  1  0  0  0  0
 12 30  1  1  0  0  0
 12 24  1  0  0  0  0
 12 21  1  0  0  0  0
 13 27  1  0  0  0  0
 14 13  1  0  0  0  0
 15 13  1  0  0  0  0
 16 34  1  0  0  0  0
 17 16  1  0  0  0  0
 18 20  1  0  0  0  0
 18 19  1  0  0  0  0
 18 21  1  0  0  0  0
 21 22  1  0  0  0  0
 23 21  1  0  0  0  0
 24 26  1  0  0  0  0
 25 24  1  0  0  0  0
 27 28  1  0  0  0  0
 27 29  1  0  0  0  0
 27 24  1  0  0  0  0
 30 33  1  0  0  0  0
 31 30  1  0  0  0  0
 32 30  1  0  0  0  0
 33 16  1  0  0  0  0
 33  6  2  0  0  0  0
 34 45  1  0  0  0  0
 35 34  2  0  0  0  0
 35 37  1  0  0  0  0
 36 35  1  0  0  0  0
 37 39  2  0  0  0  0
 38 37  1  0  0  0  0
 39 44  1  0  0  0  0
 39 40  1  0  0  0  0
 40 47  1  0  0  0  0
 40 41  2  0  0  0  0
 41 43  1  0  0  0  0
 41 42  1  0  0  0  0
 43  8  2  0  0  0  0
 44  7  1  0  0  0  0
 45 46  1  0  0  0  0
 45 44  2  0  0  0  0
 47  3  1  0  0  0  0
M  END
$$$$
