CSD_code = MUQLOA | q = 1 | S = 0 | Stoichiometry = C6H15BrN3O2Pt(1+) | MND = 4
 OpenBabel04212202073D

 28 29  0  0  1  0  0  0  0  0999 V2000
    6.8645    8.8218    7.2536 Pt  0  0  2  0  0  0  0  0  0  0  0  0
    7.2975   10.9065    6.2083 Br  0  0  0  0  0  0  0  0  0  0  0  0
    3.6354    4.9599    9.0933 O   0  0  0  0  0  0  0  0  0  0  0  0
    3.4584    4.1020    9.5154 H   0  0  0  0  0  0  0  0  0  0  0  0
    5.8036    4.5034    9.4056 O   0  0  0  0  0  0  0  0  0  0  0  0
    7.0071    7.7608    5.5028 N   0  0  0  0  0  4  0  0  0  0  0  0
    6.3753    8.0535    4.7522 H   0  0  0  0  0  0  0  0  0  0  0  0
    7.9568    7.9580    5.1656 H   0  0  0  0  0  0  0  0  0  0  0  0
    6.5508    6.9682    8.1837 N   0  0  1  0  0  4  0  0  0  0  0  0
    6.9430    9.6029    9.1495 N   0  0  0  0  0  4  0  0  0  0  0  0
    7.8909    9.9910    9.2227 H   0  0  0  0  0  0  0  0  0  0  0  0
    6.3046   10.3805    9.3386 H   0  0  0  0  0  0  0  0  0  0  0  0
    6.8503    6.3194    5.8166 C   0  0  0  0  0  0  0  0  0  0  0  0
    7.4587    5.7015    5.1497 H   0  0  0  0  0  0  0  0  0  0  0  0
    5.8063    6.0379    5.6629 H   0  0  0  0  0  0  0  0  0  0  0  0
    7.2731    6.0571    7.2692 C   0  0  0  0  0  0  0  0  0  0  0  0
    7.1057    5.0095    7.5347 H   0  0  0  0  0  0  0  0  0  0  0  0
    8.3437    6.2619    7.3651 H   0  0  0  0  0  0  0  0  0  0  0  0
    7.2184    7.1739    9.4877 C   0  0  0  0  0  0  0  0  0  0  0  0
    8.2967    7.2299    9.3099 H   0  0  0  0  0  0  0  0  0  0  0  0
    7.0325    6.3376   10.1675 H   0  0  0  0  0  0  0  0  0  0  0  0
    6.7542    8.4950   10.1174 C   0  0  0  0  0  0  0  0  0  0  0  0
    5.6974    8.4422   10.3878 H   0  0  0  0  0  0  0  0  0  0  0  0
    7.3202    8.6722   11.0367 H   0  0  0  0  0  0  0  0  0  0  0  0
    5.1468    6.5831    8.3433 C   0  0  0  0  0  0  0  0  0  0  0  0
    4.6475    6.5526    7.3722 H   0  0  0  0  0  0  0  0  0  0  0  0
    4.6143    7.3278    8.9393 H   0  0  0  0  0  0  0  0  0  0  0  0
    4.9274    5.2228    9.0127 C   0  0  0  0  0  0  0  0  0  0  0  0
  1  2  1  6  0  0  0
  1  9  1  0  0  0  0
  1 10  1  0  0  0  0
  3  4  1  0  0  0  0
  6 13  1  0  0  0  0
  6  1  1  0  0  0  0
  7  6  1  0  0  0  0
  8  6  1  0  0  0  0
  9 25  1  1  0  0  0
  9 19  1  0  0  0  0
 10 11  1  0  0  0  0
 10 12  1  0  0  0  0
 10 22  1  0  0  0  0
 13 16  1  0  0  0  0
 14 13  1  0  0  0  0
 15 13  1  0  0  0  0
 16 18  1  0  0  0  0
 16 17  1  0  0  0  0
 16  9  1  0  0  0  0
 19 22  1  0  0  0  0
 19 21  1  0  0  0  0
 20 19  1  0  0  0  0
 22 23  1  0  0  0  0
 22 24  1  0  0  0  0
 25 27  1  0  0  0  0
 25 28  1  0  0  0  0
 26 25  1  0  0  0  0
 28  3  1  0  0  0  0
 28  5  2  0  0  0  0
M  END
$$$$
