CSD_code = MUQTID | q = 0 | S = 0 | Stoichiometry = C22H24ClN2O8Rh | MND = 6
 OpenBabel04212202073D

 58 62  0  0  1  0  0  0  0  0999 V2000
    3.7588    9.9955   12.3399 Rh  0  0  0  0  0  0  0  0  0  0  0  0
    5.6470    9.0200   11.3987 Cl  0  0  0  0  0  0  0  0  0  0  0  0
    2.5268   12.2491   10.2776 O   0  0  0  0  0  0  0  0  0  0  0  0
    2.7860   13.7880   11.8757 O   0  0  0  0  0  0  0  0  0  0  0  0
    4.8130   11.3137    9.5817 O   0  0  0  0  0  0  0  0  0  0  0  0
    6.4727   12.1960   10.7997 O   0  0  0  0  0  0  0  0  0  0  0  0
    1.9659    9.0924   15.2925 O   0  0  0  0  0  0  0  0  0  0  0  0
    2.5599    8.1788   13.3245 O   0  0  0  0  0  0  0  0  0  0  0  0
    1.0490   12.5470   13.9734 O   0  0  0  0  0  0  0  0  0  0  0  0
    2.7590   11.7258   15.1855 O   0  0  0  0  0  0  0  0  0  0  0  0
    4.9417   10.3504   13.8635 N   0  0  0  0  0  0  0  0  0  0  0  0
    2.5330    9.5540   10.8344 N   0  0  0  0  0  0  0  0  0  0  0  0
    5.3325    9.3734   14.6800 C   0  0  0  0  0  3  0  0  0  0  0  0
    4.9662    8.3774   14.4541 H   0  0  0  0  0  0  0  0  0  0  0  0
    6.1794    9.5978   15.7453 C   0  0  0  0  0  0  0  0  0  0  0  0
    6.4712    8.7810   16.3862 H   0  0  0  0  0  0  0  0  0  0  0  0
    6.6480   10.8865   15.9619 C   0  0  0  0  0  0  0  0  0  0  0  0
    7.3096   11.0986   16.7880 H   0  0  0  0  0  0  0  0  0  0  0  0
    6.2648   11.8872   15.0909 C   0  0  0  0  0  0  0  0  0  0  0  0
    6.6213   12.8978   15.2100 H   0  0  0  0  0  0  0  0  0  0  0  0
    5.4056   11.5898   14.0392 C   0  0  0  0  0  0  0  0  0  0  0  0
    4.9575   12.6020   13.0450 C   0  0  0  0  0  0  0  0  0  0  0  0
    5.8148   13.1991   12.7186 H   0  0  0  0  0  0  0  0  0  0  0  0
    4.2335   13.2769   13.5100 H   0  0  0  0  0  0  0  0  0  0  0  0
    4.3120   11.9350   11.8196 C   0  0  0  0  0  0  0  0  0  0  0  0
    3.1419   12.7555   11.3556 C   0  0  0  0  0  0  0  0  0  0  0  0
    1.4714   13.0269    9.7347 C   0  0  0  0  0  0  0  0  0  0  0  0
    0.8337   13.4176   10.5313 H   0  0  0  0  0  0  0  0  0  0  0  0
    0.9103   12.3674    9.0765 H   0  0  0  0  0  0  0  0  0  0  0  0
    1.8772   13.8683    9.1689 H   0  0  0  0  0  0  0  0  0  0  0  0
    5.3335   11.8133   10.7044 C   0  0  0  0  0  0  0  0  0  0  0  0
    5.7457   11.0646    8.5386 C   0  0  0  0  0  0  0  0  0  0  0  0
    6.3359   11.9599    8.3324 H   0  0  0  0  0  0  0  0  0  0  0  0
    5.1600   10.7780    7.6687 H   0  0  0  0  0  0  0  0  0  0  0  0
    6.4167   10.2570    8.8397 H   0  0  0  0  0  0  0  0  0  0  0  0
    2.9274    8.9541    9.7120 C   0  0  0  0  0  3  0  0  0  0  0  0
    3.9933    8.8165    9.5916 H   0  0  0  0  0  0  0  0  0  0  0  0
    2.0385    8.5145    8.7494 C   0  0  0  0  0  0  0  0  0  0  0  0
    2.4073    8.0356    7.8568 H   0  0  0  0  0  0  0  0  0  0  0  0
    0.6803    8.6937    8.9589 C   0  0  0  0  0  0  0  0  0  0  0  0
   -0.0446    8.3609    8.2312 H   0  0  0  0  0  0  0  0  0  0  0  0
    0.2735    9.3075   10.1289 C   0  0  0  0  0  0  0  0  0  0  0  0
   -0.7737    9.4646   10.3383 H   0  0  0  0  0  0  0  0  0  0  0  0
    1.2235    9.7315   11.0508 C   0  0  0  0  0  0  0  0  0  0  0  0
    0.8167   10.4368   12.3078 C   0  0  0  0  0  0  0  0  0  0  0  0
   -0.0850    9.9710   12.7210 H   0  0  0  0  0  0  0  0  0  0  0  0
    0.5586   11.4702   12.0646 H   0  0  0  0  0  0  0  0  0  0  0  0
    1.9354   10.4602   13.3479 C   0  0  1  0  0  0  0  0  0  0  0  0
    2.1772    9.1505   13.9847 C   0  0  2  0  0  3  0  0  0  0  0  0
    2.3188    7.8995   15.9832 C   0  0  0  0  0  0  0  0  0  0  0  0
    2.5719    7.1129   15.2697 H   0  0  0  0  0  0  0  0  0  0  0  0
    1.4600    7.6021   16.5839 H   0  0  0  0  0  0  0  0  0  0  0  0
    3.1684    8.1140   16.6330 H   0  0  0  0  0  0  0  0  0  0  0  0
    1.9648   11.6086   14.2743 C   0  0  0  0  0  0  0  0  0  0  0  0
    1.1285   13.7806   14.6745 C   0  0  0  0  0  0  0  0  0  0  0  0
    0.1085   14.1187   14.8477 H   0  0  0  0  0  0  0  0  0  0  0  0
    1.6662   14.4991   14.0531 H   0  0  0  0  0  0  0  0  0  0  0  0
    1.6536   13.6378   15.6206 H   0  0  0  0  0  0  0  0  0  0  0  0
  1  8  1  0  0  0  0
  1 48  1  0  0  0  0
  1 11  1  0  0  0  0
  2  1  1  0  0  0  0
  3 26  1  0  0  0  0
  5 31  1  0  0  0  0
  7 50  1  0  0  0  0
  8 49  1  0  0  0  0
  9 54  1  0  0  0  0
  9 55  1  0  0  0  0
 11 21  1  0  0  0  0
 11 13  1  0  0  0  0
 12 44  1  0  0  0  0
 12  1  1  0  0  0  0
 13 15  1  0  0  0  0
 14 13  1  0  0  0  0
 15 17  2  0  0  0  0
 15 16  1  0  0  0  0
 17 18  1  0  0  0  0
 19 20  1  0  0  0  0
 19 17  1  0  0  0  0
 21 19  2  0  0  0  0
 22 24  1  0  0  0  0
 22 21  1  0  0  0  0
 23 22  1  0  0  0  0
 25  1  1  0  0  0  0
 25 22  1  0  0  0  0
 26 25  1  0  0  0  0
 26  4  2  0  0  0  0
 27  3  1  0  0  0  0
 27 28  1  0  0  0  0
 29 27  1  0  0  0  0
 30 27  1  0  0  0  0
 31  6  2  0  0  0  0
 31 25  1  0  0  0  0
 32 35  1  0  0  0  0
 32  5  1  0  0  0  0
 33 32  1  0  0  0  0
 34 32  1  0  0  0  0
 36 12  1  0  0  0  0
 37 36  1  0  0  0  0
 38 40  2  0  0  0  0
 38 36  1  0  0  0  0
 39 38  1  0  0  0  0
 40 42  1  0  0  0  0
 41 40  1  0  0  0  0
 42 43  1  0  0  0  0
 42 44  2  0  0  0  0
 44 45  1  0  0  0  0
 45 46  1  0  0  0  0
 45 48  1  0  0  0  0
 47 45  1  0  0  0  0
 48 49  1  0  0  0  0
 48 54  1  1  0  0  0
 49  7  1  1  0  0  0
 50 52  1  0  0  0  0
 50 53  1  0  0  0  0
 51 50  1  0  0  0  0
 54 10  2  0  0  0  0
 55 56  1  0  0  0  0
 55 58  1  0  0  0  0
 57 55  1  0  0  0  0
M  END
$$$$
