CSD_code = MURGIR | q = 0 | S = 0 | Stoichiometry = C12H11ClIrN3O3 | MND = 4
 OpenBabel04212202073D

 31 32  0  0  0  0  0  0  0  0999 V2000
    1.6315    3.4187    4.9647 Ir  0  0  0  0  0  0  0  0  0  0  0  0
    2.7267   -1.4135    7.1025 O   0  0  0  0  0  0  0  0  0  0  0  0
    3.4379    1.9013    6.8563 N   0  0  0  0  0  0  0  0  0  0  0  0
    2.7847   -0.2300    6.8831 C   0  0  0  0  0  0  0  0  0  0  0  0
    3.5931    3.1100    3.8265 Cl  0  0  0  0  0  0  0  0  0  0  0  0
    3.7424    0.6405    7.3278 N   0  0  0  0  0  0  0  0  0  0  0  0
   -0.9280    3.6588    6.5274 O   0  0  0  0  0  1  0  0  0  0  0  0
    2.3344    1.8702    6.1291 C   0  0  0  0  0  0  0  0  0  0  0  0
    4.9130    0.2969    8.0757 C   0  0  0  0  0  0  0  0  0  0  0  0
    4.8635   -0.7794    8.2399 H   0  0  0  0  0  0  0  0  0  0  0  0
    4.9301    0.8077    9.0406 H   0  0  0  0  0  0  0  0  0  0  0  0
    5.8208    0.5343    7.5175 H   0  0  0  0  0  0  0  0  0  0  0  0
    1.9177    0.5724    6.1406 N   0  0  0  0  0  0  0  0  0  0  0  0
    1.2685    5.6777    3.0069 O   0  0  0  0  0  1  0  0  0  0  0  0
    4.2696    3.0278    7.1532 C   0  0  0  0  0  0  0  0  0  0  0  0
    5.2536    2.9071    6.6968 H   0  0  0  0  0  0  0  0  0  0  0  0
    4.3754    3.1523    8.2322 H   0  0  0  0  0  0  0  0  0  0  0  0
    3.7950    3.9120    6.7251 H   0  0  0  0  0  0  0  0  0  0  0  0
    0.0526    3.5893    5.9257 C   0  0  0  0  0  2  0  0  0  0  0  0
    0.7661    0.0836    5.4806 C   0  0  0  0  0  0  0  0  0  0  0  0
   -1.5076   -0.8415    4.2081 C   0  0  0  0  0  0  0  0  0  0  0  0
   -2.3972   -1.2009    3.7136 H   0  0  0  0  0  0  0  0  0  0  0  0
   -1.1852   -1.3013    5.4740 C   0  0  0  0  0  0  0  0  0  0  0  0
   -1.8217   -2.0194    5.9681 H   0  0  0  0  0  0  0  0  0  0  0  0
   -0.0513   -0.8401    6.1180 C   0  0  0  0  0  0  0  0  0  0  0  0
    0.2045   -1.1966    7.1028 H   0  0  0  0  0  0  0  0  0  0  0  0
    1.3150    4.8341    3.7771 C   0  0  0  0  0  2  0  0  0  0  0  0
   -0.6831    0.0721    3.5733 C   0  0  0  0  0  0  0  0  0  0  0  0
   -0.9230    0.4226    2.5813 H   0  0  0  0  0  0  0  0  0  0  0  0
    0.4609    0.5315    4.2009 C   0  0  0  0  0  0  0  0  0  0  0  0
    1.1301    1.2120    3.6871 H   0  0  0  0  0  0  0  0  0  0  0  0
  1 19  1  0  0  0  0
  1  8  2  0  0  0  0
  3 15  1  0  0  0  0
  3  6  1  0  0  0  0
  4  2  2  0  0  0  0
  4  6  1  0  0  0  0
  5  1  1  0  0  0  0
  6  9  1  0  0  0  0
  8 13  1  0  0  0  0
  8  3  1  0  0  0  0
  9 10  1  0  0  0  0
  9 11  1  0  0  0  0
 12  9  1  0  0  0  0
 13  4  1  0  0  0  0
 14 27  1  0  0  0  0
 15 17  1  0  0  0  0
 16 15  1  0  0  0  0
 18 15  1  0  0  0  0
 19  7  1  0  0  0  0
 20 25  1  0  0  0  0
 20 13  1  0  0  0  0
 21 23  1  0  0  0  0
 22 21  1  0  0  0  0
 23 24  1  0  0  0  0
 23 25  2  0  0  0  0
 25 26  1  0  0  0  0
 27  1  1  0  0  0  0
 28 30  1  0  0  0  0
 28 21  2  0  0  0  0
 29 28  1  0  0  0  0
 30 20  2  0  0  0  0
 31 30  1  0  0  0  0
M  END
$$$$
