CSD_code = MUSHOZ | q = 0 | S = 0 | Stoichiometry = C18H12Cl2HgN2 | MND = 4
 OpenBabel04212202073D

 35 39  0  0  1  0  0  0  0  0999 V2000
    9.1053    6.9149    1.0677 C   0  0  0  0  0  0  0  0  0  0  0  0
    9.6674    5.7117    0.5934 C   0  0  0  0  0  0  0  0  0  0  0  0
    9.0111    4.8584    0.4477 H   0  0  0  0  0  0  0  0  0  0  0  0
   11.0055    5.6335    0.3273 C   0  0  0  0  0  0  0  0  0  0  0  0
   11.4336    4.7090   -0.0289 H   0  0  0  0  0  0  0  0  0  0  0  0
   11.8388    6.7500    0.5130 C   0  0  0  0  0  0  0  0  0  0  0  0
   12.8931    6.6636    0.2974 H   0  0  0  0  0  0  0  0  0  0  0  0
   11.3225    7.9339    0.9606 C   0  0  0  0  0  3  0  0  0  0  0  0
   11.9557    8.7972    1.1041 H   0  0  0  0  0  0  0  0  0  0  0  0
    9.9476    8.0479    1.2474 C   0  0  0  0  0  0  0  0  0  0  0  0
    9.3505    9.2315    1.7232 C   0  0  0  0  0  0  0  0  0  0  0  0
    9.9645   10.1043    1.8938 H   0  0  0  0  0  0  0  0  0  0  0  0
    8.0055    9.2592    1.9667 C   0  0  0  0  0  0  0  0  0  0  0  0
    7.5327   10.1485    2.3518 H   0  0  0  0  0  0  0  0  0  0  0  0
    7.2411    8.0909    1.7562 C   0  0  0  0  0  0  0  0  0  0  0  0
    7.7843    6.9662    1.3372 N   0  0  0  0  0  0  0  0  0  0  0  0
    6.5138    4.9270    1.8852 Hg  0  0  0  0  0  0  0  0  0  0  0  0
    5.2376    4.2617    0.1118 Cl  0  0  0  0  0  0  0  0  0  0  0  0
    3.9233    6.9148    2.7026 C   0  0  1  0  0  3  0  0  0  0  0  0
    3.3611    5.7116    3.1768 C   0  0  0  0  0  0  0  0  0  0  0  0
    4.0175    4.8585    3.3231 H   0  0  0  0  0  0  0  0  0  0  0  0
    2.0228    5.6331    3.4417 C   0  0  0  0  0  0  0  0  0  0  0  0
    1.5946    4.7086    3.7975 H   0  0  0  0  0  0  0  0  0  0  0  0
    1.1894    6.7494    3.2552 C   0  0  0  0  0  0  0  0  0  0  0  0
    0.1349    6.6627    3.4697 H   0  0  0  0  0  0  0  0  0  0  0  0
    1.7058    7.9335    2.8080 C   0  0  0  0  0  0  0  0  0  0  0  0
    1.0725    8.7966    2.6641 H   0  0  0  0  0  0  0  0  0  0  0  0
    3.0809    8.0477    2.5223 C   0  0  0  0  0  0  0  0  0  0  0  0
    3.6781    9.2314    2.0471 C   0  0  0  0  0  0  0  0  0  0  0  0
    3.0642   10.1043    1.8763 H   0  0  0  0  0  0  0  0  0  0  0  0
    5.0232    9.2593    1.8042 C   0  0  0  0  0  0  0  0  0  0  0  0
    5.4962   10.1488    1.4195 H   0  0  0  0  0  0  0  0  0  0  0  0
    5.7876    8.0910    2.0148 C   0  0  0  0  0  0  0  0  0  0  0  0
    5.2443    6.9662    2.4335 N   0  0  0  0  0  0  0  0  0  0  0  0
    7.7861    4.2624    3.6618 Cl  0  0  0  0  0  0  0  0  0  0  0  0
  1 10  1  0  0  0  0
  1 16  1  0  0  0  0
  2  1  2  0  0  0  0
  3  2  1  0  0  0  0
  4  6  2  0  0  0  0
  4  2  1  0  0  0  0
  5  4  1  0  0  0  0
  6  8  1  0  0  0  0
  7  6  1  0  0  0  0
  8  9  1  0  0  0  0
  8 10  1  0  0  0  0
 10 11  2  0  0  0  0
 11 12  1  0  0  0  0
 11 13  1  0  0  0  0
 13 14  1  0  0  0  0
 15 13  2  0  0  0  0
 15 33  1  0  0  0  0
 16 15  1  0  0  0  0
 16 17  1  0  0  0  0
 17 34  1  0  0  0  0
 17 35  1  0  0  0  0
 18 17  1  0  0  0  0
 19 28  1  1  0  0  0
 19 20  1  0  0  0  0
 20 21  1  0  0  0  0
 20 22  2  0  0  0  0
 22 23  1  0  0  0  0
 24 22  1  0  0  0  0
 24 25  1  0  0  0  0
 26 24  2  0  0  0  0
 27 26  1  0  0  0  0
 28 26  1  0  0  0  0
 29 28  2  0  0  0  0
 30 29  1  0  0  0  0
 31 33  2  0  0  0  0
 31 29  1  0  0  0  0
 32 31  1  0  0  0  0
 33 34  1  0  0  0  0
 34 19  1  0  0  0  0
M  END
$$$$
