CSD_code = MUSMOE | q = 0 | S = 0 | Stoichiometry = C31H29BrCuN3P2 | MND = 4
 OpenBabel04212202073D

 67 72  0  0  0  0  0  0  0  0999 V2000
    5.9816    5.2299    3.7192 Cu  0  0  0  0  0  0  0  0  0  0  0  0
    4.4047    6.8208    4.0701 Br  0  0  0  0  0  0  0  0  0  0  0  0
    8.0237    5.4943    2.7147 P   0  0  0  0  0  4  0  0  0  0  0  0
    6.1226    3.2201    4.7319 P   0  0  0  0  0  4  0  0  0  0  0  0
    7.9973    4.6732    5.2897 N   0  0  0  0  0  0  0  0  0  0  0  0
    9.1992    5.9735    3.8698 N   0  0  0  0  0  0  0  0  0  0  0  0
    6.5783    3.3529    6.3922 N   0  0  0  0  0  0  0  0  0  0  0  0
    8.9347    5.6122    5.1691 C   0  0  0  0  0  0  0  0  0  0  0  0
    9.5623    6.1529    6.2914 C   0  0  0  0  0  0  0  0  0  0  0  0
   10.3238    6.9074    6.1978 H   0  0  0  0  0  0  0  0  0  0  0  0
    9.1533    5.7139    7.5404 C   0  0  0  0  0  0  0  0  0  0  0  0
    9.6180    6.1232    8.4251 H   0  0  0  0  0  0  0  0  0  0  0  0
    8.1414    4.7789    7.6697 C   0  0  0  0  0  0  0  0  0  0  0  0
    7.8020    4.4514    8.6371 H   0  0  0  0  0  0  0  0  0  0  0  0
    7.5778    4.2844    6.4957 C   0  0  0  0  0  0  0  0  0  0  0  0
   10.3034    6.8594    3.5655 C   0  0  0  0  0  0  0  0  0  0  0  0
   10.4690    6.8602    2.4893 H   0  0  0  0  0  0  0  0  0  0  0  0
   10.1036    7.8853    3.8893 H   0  0  0  0  0  0  0  0  0  0  0  0
   11.2120    6.5031    4.0559 H   0  0  0  0  0  0  0  0  0  0  0  0
    5.8371    2.9308    7.5580 C   0  0  0  0  0  0  0  0  0  0  0  0
    5.0269    2.2731    7.2492 H   0  0  0  0  0  0  0  0  0  0  0  0
    6.4930    2.3794    8.2373 H   0  0  0  0  0  0  0  0  0  0  0  0
    5.4126    3.7864    8.0907 H   0  0  0  0  0  0  0  0  0  0  0  0
    8.1040    6.9239    1.5781 C   0  0  0  0  0  0  0  0  0  0  0  0
    7.3794    8.0410    1.9886 C   0  0  0  0  0  0  0  0  0  0  0  0
    6.8194    8.0057    2.9143 H   0  0  0  0  0  0  0  0  0  0  0  0
    7.3576    9.1836    1.2118 C   0  0  0  0  0  0  0  0  0  0  0  0
    6.7877   10.0411    1.5354 H   0  0  0  0  0  0  0  0  0  0  0  0
    8.0539    9.2152    0.0142 C   0  0  0  0  0  0  0  0  0  0  0  0
    8.0342   10.1034   -0.5998 H   0  0  0  0  0  0  0  0  0  0  0  0
    8.7699    8.1043   -0.4019 C   0  0  0  0  0  0  0  0  0  0  0  0
    9.3100    8.1280   -1.3374 H   0  0  0  0  0  0  0  0  0  0  0  0
    8.7974    6.9585    0.3730 C   0  0  0  0  0  0  0  0  0  0  0  0
    9.3565    6.0951    0.0394 H   0  0  0  0  0  0  0  0  0  0  0  0
    8.9003    4.2055    1.7744 C   0  0  0  0  0  0  0  0  0  0  0  0
    8.3115    3.7699    0.5888 C   0  0  0  0  0  0  0  0  0  0  0  0
    7.3916    4.2346    0.2549 H   0  0  0  0  0  0  0  0  0  0  0  0
    8.9045    2.7685   -0.1541 C   0  0  0  0  0  0  0  0  0  0  0  0
    8.4537    2.4439   -1.0808 H   0  0  0  0  0  0  0  0  0  0  0  0
   10.0781    2.1802    0.2918 C   0  0  0  0  0  0  0  0  0  0  0  0
   10.5451    1.3998   -0.2906 H   0  0  0  0  0  0  0  0  0  0  0  0
   10.6448    2.5836    1.4891 C   0  0  0  0  0  0  0  0  0  0  0  0
   11.5507    2.1135    1.8434 H   0  0  0  0  0  0  0  0  0  0  0  0
   10.0564    3.5888    2.2347 C   0  0  0  0  0  0  0  0  0  0  0  0
   10.4926    3.8961    3.1745 H   0  0  0  0  0  0  0  0  0  0  0  0
    4.6348    2.1688    4.9000 C   0  0  0  0  0  0  0  0  0  0  0  0
    3.4183    2.8464    4.8723 C   0  0  0  0  0  0  0  0  0  0  0  0
    3.4127    3.9245    4.7668 H   0  0  0  0  0  0  0  0  0  0  0  0
    2.2287    2.1491    4.9784 C   0  0  0  0  0  0  0  0  0  0  0  0
    1.2892    2.6805    4.9585 H   0  0  0  0  0  0  0  0  0  0  0  0
    2.2496    0.7693    5.1007 C   0  0  0  0  0  0  0  0  0  0  0  0
    1.3230    0.2198    5.1779 H   0  0  0  0  0  0  0  0  0  0  0  0
    3.4578    0.0892    5.1192 C   0  0  0  0  0  0  0  0  0  0  0  0
    3.4701   -0.9874    5.2123 H   0  0  0  0  0  0  0  0  0  0  0  0
    4.6501    0.7822    5.0179 C   0  0  0  0  0  0  0  0  0  0  0  0
    5.5928    0.2523    5.0324 H   0  0  0  0  0  0  0  0  0  0  0  0
    7.3079    1.9972    4.0913 C   0  0  0  0  0  0  0  0  0  0  0  0
    8.4423    1.5690    4.7660 C   0  0  0  0  0  0  0  0  0  0  0  0
    8.6616    1.9513    5.7527 H   0  0  0  0  0  0  0  0  0  0  0  0
    9.2864    0.6463    4.1736 C   0  0  0  0  0  0  0  0  0  0  0  0
   10.1670    0.3088    4.7016 H   0  0  0  0  0  0  0  0  0  0  0  0
    9.0045    0.1504    2.9120 C   0  0  0  0  0  0  0  0  0  0  0  0
    9.6624   -0.5759    2.4580 H   0  0  0  0  0  0  0  0  0  0  0  0
    7.8802    0.5868    2.2289 C   0  0  0  0  0  0  0  0  0  0  0  0
    7.6618    0.2036    1.2430 H   0  0  0  0  0  0  0  0  0  0  0  0
    7.0416    1.5149    2.8125 C   0  0  0  0  0  0  0  0  0  0  0  0
    6.1607    1.8695    2.2900 H   0  0  0  0  0  0  0  0  0  0  0  0
  1  2  1  0  0  0  0
  1  4  1  0  0  0  0
  3  1  1  0  0  0  0
  3  6  1  0  0  0  0
  4 46  1  0  0  0  0
  4  7  1  0  0  0  0
  5 15  1  0  0  0  0
  6  8  1  0  0  0  0
  7 15  1  0  0  0  0
  7 20  1  0  0  0  0
  8  5  2  0  0  0  0
  8  9  1  0  0  0  0
  9 11  2  0  0  0  0
 10  9  1  0  0  0  0
 11 13  1  0  0  0  0
 11 12  1  0  0  0  0
 13 14  1  0  0  0  0
 15 13  2  0  0  0  0
 16  6  1  0  0  0  0
 16 18  1  0  0  0  0
 16 19  1  0  0  0  0
 17 16  1  0  0  0  0
 20 23  1  0  0  0  0
 20 22  1  0  0  0  0
 21 20  1  0  0  0  0
 24 25  1  0  0  0  0
 24  3  1  0  0  0  0
 25 26  1  0  0  0  0
 27 28  1  0  0  0  0
 27 25  2  0  0  0  0
 29 27  1  0  0  0  0
 30 29  1  0  0  0  0
 31 29  2  0  0  0  0
 31 33  1  0  0  0  0
 32 31  1  0  0  0  0
 33 24  2  0  0  0  0
 34 33  1  0  0  0  0
 35 44  1  0  0  0  0
 35  3  1  0  0  0  0
 36 35  2  0  0  0  0
 37 36  1  0  0  0  0
 38 40  2  0  0  0  0
 38 36  1  0  0  0  0
 39 38  1  0  0  0  0
 40 42  1  0  0  0  0
 41 40  1  0  0  0  0
 42 43  1  0  0  0  0
 42 44  2  0  0  0  0
 44 45  1  0  0  0  0
 46 55  1  0  0  0  0
 47 46  2  0  0  0  0
 47 49  1  0  0  0  0
 48 47  1  0  0  0  0
 49 51  2  0  0  0  0
 50 49  1  0  0  0  0
 51 53  1  0  0  0  0
 51 52  1  0  0  0  0
 53 54  1  0  0  0  0
 55 56  1  0  0  0  0
 55 53  2  0  0  0  0
 57  4  1  0  0  0  0
 57 58  1  0  0  0  0
 58 59  1  0  0  0  0
 60 61  1  0  0  0  0
 60 58  2  0  0  0  0
 62 60  1  0  0  0  0
 63 62  1  0  0  0  0
 64 66  1  0  0  0  0
 64 62  2  0  0  0  0
 65 64  1  0  0  0  0
 66 57  2  0  0  0  0
 67 66  1  0  0  0  0
M  END
$$$$
