CSD_code = MUSRIC | q = 0 | S = 0 | Stoichiometry = C20H21ClN2Pd | MND = 5
 OpenBabel04212202073D

 45 46  0  0  1  0  0  0  0  0999 V2000
    3.7174    1.3488    2.2509 Pd  0  0  0  0  0  0  0  0  0  0  0  0
    5.1746    0.6998    0.5852 Cl  0  0  0  0  0 15  0  0  0  0  0  0
    4.3552    3.9381    0.8758 N   0  0  0  0  0  0  0  0  0  0  0  0
    5.4236    3.8513    2.7314 N   0  0  0  0  0  0  0  0  0  0  0  0
    4.4907    3.2077    1.9977 C   0  0  2  0  0  3  0  0  0  0  0  0
    5.1876    5.0228    0.9033 C   0  0  0  0  0  0  0  0  0  0  0  0
    5.2370    5.7321    0.1027 H   0  0  0  0  0  0  0  0  0  0  0  0
    5.8638    4.9680    2.0739 C   0  0  0  0  0  0  0  0  0  0  0  0
    6.6055    5.6226    2.4838 H   0  0  0  0  0  0  0  0  0  0  0  0
    3.5693    3.5276   -0.2668 C   0  0  0  0  0  0  0  0  0  0  0  0
    4.0998    2.7022   -0.7592 H   0  0  0  0  0  0  0  0  0  0  0  0
    3.4961    4.3780   -0.9520 H   0  0  0  0  0  0  0  0  0  0  0  0
    2.1913    3.0654    0.1402 C   0  0  0  0  0  0  0  0  0  0  0  0
    1.2851    3.9665    0.6908 C   0  0  0  0  0  0  0  0  0  0  0  0
    1.5908    4.9872    0.8763 H   0  0  0  0  0  0  0  0  0  0  0  0
   -0.0049    3.5668    0.9927 C   0  0  0  0  0  0  0  0  0  0  0  0
   -0.7014    4.2729    1.4211 H   0  0  0  0  0  0  0  0  0  0  0  0
   -0.4070    2.2670    0.7320 C   0  0  0  0  0  0  0  0  0  0  0  0
   -1.4192    1.9601    0.9520 H   0  0  0  0  0  0  0  0  0  0  0  0
    0.4907    1.3615    0.1908 C   0  0  0  0  0  0  0  0  0  0  0  0
    0.1705    0.3505   -0.0198 H   0  0  0  0  0  0  0  0  0  0  0  0
    1.7945    1.7484   -0.0906 C   0  0  0  0  0  0  0  0  0  0  0  0
    2.4932    1.0479   -0.5383 H   0  0  0  0  0  0  0  0  0  0  0  0
    5.9765    3.3375    3.9675 C   0  0  0  0  0  0  0  0  0  0  0  0
    5.2038    3.3536    4.7456 H   0  0  0  0  0  0  0  0  0  0  0  0
    6.8024    3.9880    4.2668 H   0  0  0  0  0  0  0  0  0  0  0  0
    6.4507    1.9218    3.7292 C   0  0  0  0  0  0  0  0  0  0  0  0
    5.7564    0.8477    4.2842 C   0  0  0  0  0  0  0  0  0  0  0  0
    4.9798    1.0405    5.0196 H   0  0  0  0  0  0  0  0  0  0  0  0
    6.1235   -0.4542    3.9692 C   0  0  0  0  0  0  0  0  0  0  0  0
    5.5891   -1.2876    4.4053 H   0  0  0  0  0  0  0  0  0  0  0  0
    7.1778   -0.6855    3.1008 C   0  0  0  0  0  0  0  0  0  0  0  0
    7.4471   -1.6970    2.8360 H   0  0  0  0  0  0  0  0  0  0  0  0
    7.8779    0.3793    2.5624 C   0  0  0  0  0  0  0  0  0  0  0  0
    8.6932    0.1994    1.8787 H   0  0  0  0  0  0  0  0  0  0  0  0
    7.5164    1.6780    2.8731 C   0  0  0  0  0  0  0  0  0  0  0  0
    8.0473    2.5075    2.4271 H   0  0  0  0  0  0  0  0  0  0  0  0
    2.1101    1.6052    3.5736 C   0  0  0  0  0  0  0  0  0  0  0  0
    2.1207    2.1857    4.4912 H   0  0  0  0  0  0  0  0  0  0  0  0
    1.2823    1.8530    2.9115 H   0  0  0  0  0  0  0  0  0  0  0  0
    2.5531    0.2680    3.6347 C   0  0  0  0  0  3  0  0  0  0  0  0
    3.0221   -0.0953    4.5492 H   0  0  0  0  0  0  0  0  0  0  0  0
    2.6542   -0.4973    2.4735 C   0  0  0  0  0  3  0  0  0  0  0  0
    1.9050   -0.3844    1.6900 H   0  0  0  0  0  0  0  0  0  0  0  0
    3.0876   -1.4911    2.5428 H   0  0  0  0  0  0  0  0  0  0  0  0
  1 38  1  0  0  0  0
  3  6  1  0  0  0  0
  3  5  1  0  0  0  0
  4 24  1  0  0  0  0
  5  1  1  6  0  0  0
  5  4  1  0  0  0  0
  6  8  2  0  0  0  0
  7  6  1  0  0  0  0
  8  9  1  0  0  0  0
  8  4  1  0  0  0  0
 10 13  1  0  0  0  0
 10  3  1  0  0  0  0
 11 10  1  0  0  0  0
 12 10  1  0  0  0  0
 13 14  1  0  0  0  0
 14 15  1  0  0  0  0
 14 16  2  0  0  0  0
 16 17  1  0  0  0  0
 18 19  1  0  0  0  0
 18 16  1  0  0  0  0
 20 18  2  0  0  0  0
 21 20  1  0  0  0  0
 22 13  2  0  0  0  0
 22 20  1  0  0  0  0
 23 22  1  0  0  0  0
 24 26  1  0  0  0  0
 24 25  1  0  0  0  0
 27 24  1  0  0  0  0
 27 28  1  0  0  0  0
 28 29  1  0  0  0  0
 30 28  2  0  0  0  0
 30 31  1  0  0  0  0
 32 30  1  0  0  0  0
 33 32  1  0  0  0  0
 34 36  1  0  0  0  0
 34 32  2  0  0  0  0
 35 34  1  0  0  0  0
 36 27  2  0  0  0  0
 37 36  1  0  0  0  0
 38 41  1  0  0  0  0
 38 39  1  0  0  0  0
 40 38  1  0  0  0  0
 41 42  1  0  0  0  0
 43 45  1  0  0  0  0
 43 41  1  0  0  0  0
 44 43  1  0  0  0  0
M  END
$$$$
