CSD_code = MUTKAO | q = 0 | S = 0 | Stoichiometry = C20H18CdI2N10 | MND = 4
 OpenBabel04212202073D

 51 56  0  0  0  0  0  0  0  0999 V2000
    5.9968    1.4891   13.4346 Cd  0  0  0  0  0  0  0  0  0  0  0  0
    4.2413    3.0052   12.8800 N   0  0  0  0  0  0  0  0  0  0  0  0
    2.9452    3.9745   11.3944 N   0  0  0  0  0  0  0  0  0  0  0  0
    3.0435    4.9978    9.2732 N   0  0  0  0  0  0  0  0  0  0  0  0
    2.7954    6.3135    9.0918 N   0  0  0  0  0  0  0  0  0  0  0  0
    3.6752    6.8314    8.3541 N   0  0  0  0  0  0  0  0  0  0  0  0
    6.5073    0.5940   10.9556 I   0  0  0  0  0  0  0  0  0  0  0  0
    4.0421    4.3026   13.2529 C   0  0  0  0  0  0  0  0  0  0  0  0
    4.4746    4.6977   14.1524 H   0  0  0  0  0  0  0  0  0  0  0  0
    3.2417    4.9181   12.3389 C   0  0  0  0  0  0  0  0  0  0  0  0
    2.8725    5.9205   12.2733 H   0  0  0  0  0  0  0  0  0  0  0  0
    3.5757    2.8437   11.7623 C   0  0  0  0  0  3  0  0  0  0  0  0
    3.5096    1.9258   11.2078 H   0  0  0  0  0  0  0  0  0  0  0  0
    2.2424    4.2090   10.1563 C   0  0  0  0  0  0  0  0  0  0  0  0
    2.0079    3.2413    9.6986 H   0  0  0  0  0  0  0  0  0  0  0  0
    1.3227    4.7727   10.3477 H   0  0  0  0  0  0  0  0  0  0  0  0
    4.5915    5.8800    8.0063 C   0  0  0  0  0  0  0  0  0  0  0  0
    5.7494    5.9403    7.2316 C   0  0  0  0  0  0  0  0  0  0  0  0
    6.0496    6.8651    6.7672 H   0  0  0  0  0  0  0  0  0  0  0  0
    6.4740    4.7789    7.1005 C   0  0  0  0  0  0  0  0  0  0  0  0
    7.3808    4.7818    6.5150 H   0  0  0  0  0  0  0  0  0  0  0  0
    6.0727    3.5799    7.7069 C   0  0  0  0  0  0  0  0  0  0  0  0
    6.6794    2.6966    7.5825 H   0  0  0  0  0  0  0  0  0  0  0  0
    4.9274    3.4935    8.4664 C   0  0  0  0  0  0  0  0  0  0  0  0
    4.6328    2.5626    8.9223 H   0  0  0  0  0  0  0  0  0  0  0  0
    4.1937    4.6627    8.6110 C   0  0  0  0  0  0  0  0  0  0  0  0
    7.7496    3.0105   13.9852 N   0  0  0  0  0  0  0  0  0  0  0  0
    9.0513    3.9792   15.4663 N   0  0  0  0  0  0  0  0  0  0  0  0
    8.9617    5.0004   17.5889 N   0  0  0  0  0  0  0  0  0  0  0  0
    9.2098    6.3160   17.7704 N   0  0  0  0  0  0  0  0  0  0  0  0
    8.3327    6.8328   18.5121 N   0  0  0  0  0  0  0  0  0  0  0  0
    5.4921    0.5975   15.9160 I   0  0  0  0  0  0  0  0  0  0  0  0
    7.9459    4.3085   13.6131 C   0  0  0  0  0  0  0  0  0  0  0  0
    7.5090    4.7043   12.7160 H   0  0  0  0  0  0  0  0  0  0  0  0
    8.7497    4.9237   14.5242 C   0  0  0  0  0  0  0  0  0  0  0  0
    9.1182    5.9264   14.5895 H   0  0  0  0  0  0  0  0  0  0  0  0
    8.4203    2.8482   15.0997 C   0  0  0  0  0  3  0  0  0  0  0  0
    8.4897    1.9297   15.6529 H   0  0  0  0  0  0  0  0  0  0  0  0
    9.7594    4.2129   16.7015 C   0  0  0  0  0  0  0  0  0  0  0  0
    9.9965    3.2449   17.1572 H   0  0  0  0  0  0  0  0  0  0  0  0
   10.6780    4.7772   16.5066 H   0  0  0  0  0  0  0  0  0  0  0  0
    7.4184    5.8806   18.8628 C   0  0  0  0  0  0  0  0  0  0  0  0
    6.2636    5.9396   19.6422 C   0  0  0  0  0  0  0  0  0  0  0  0
    5.9647    6.8638   20.1086 H   0  0  0  0  0  0  0  0  0  0  0  0
    5.5401    4.7777   19.7751 C   0  0  0  0  0  0  0  0  0  0  0  0
    4.6356    4.7795   20.3643 H   0  0  0  0  0  0  0  0  0  0  0  0
    5.9396    3.5795   19.1660 C   0  0  0  0  0  0  0  0  0  0  0  0
    5.3339    2.6957   19.2921 H   0  0  0  0  0  0  0  0  0  0  0  0
    7.0819    3.4943   18.4020 C   0  0  0  0  0  0  0  0  0  0  0  0
    7.3752    2.5640   17.9441 H   0  0  0  0  0  0  0  0  0  0  0  0
    7.8144    4.6641   18.2554 C   0  0  0  0  0  0  0  0  0  0  0  0
  1 27  1  0  0  0  0
  1 32  1  0  0  0  0
  2  8  1  0  0  0  0
  2  1  1  0  0  0  0
  3 12  1  0  0  0  0
  3 10  1  0  0  0  0
  4 14  1  0  0  0  0
  5  4  1  0  0  0  0
  6  5  2  0  0  0  0
  7  1  1  0  0  0  0
  8  9  1  0  0  0  0
 10  8  2  0  0  0  0
 11 10  1  0  0  0  0
 12  2  1  0  0  0  0
 13 12  1  0  0  0  0
 14 16  1  0  0  0  0
 14  3  1  0  0  0  0
 15 14  1  0  0  0  0
 17  6  1  0  0  0  0
 17 26  1  0  0  0  0
 18 17  2  0  0  0  0
 19 18  1  0  0  0  0
 20 18  1  0  0  0  0
 20 22  2  0  0  0  0
 21 20  1  0  0  0  0
 22 24  1  0  0  0  0
 23 22  1  0  0  0  0
 24 26  2  0  0  0  0
 24 25  1  0  0  0  0
 26  4  1  0  0  0  0
 27 37  1  0  0  0  0
 28 39  1  0  0  0  0
 29 30  1  0  0  0  0
 29 51  1  0  0  0  0
 30 31  2  0  0  0  0
 31 42  1  0  0  0  0
 33 27  1  0  0  0  0
 33 35  2  0  0  0  0
 34 33  1  0  0  0  0
 35 36  1  0  0  0  0
 35 28  1  0  0  0  0
 37 28  1  0  0  0  0
 37 38  1  0  0  0  0
 39 40  1  0  0  0  0
 39 29  1  0  0  0  0
 41 39  1  0  0  0  0
 42 43  1  0  0  0  0
 43 45  2  0  0  0  0
 43 44  1  0  0  0  0
 45 46  1  0  0  0  0
 47 48  1  0  0  0  0
 47 45  1  0  0  0  0
 49 47  2  0  0  0  0
 50 49  1  0  0  0  0
 51 49  1  0  0  0  0
 51 42  2  0  0  0  0
M  END
$$$$
