CSD_code = MUTLOC | q = 0 | S = 0 | Stoichiometry = C29H27ClN5Ta | MND = 6
 OpenBabel04212202073D

 63 71  0  0  0  0  0  0  0  0999 V2000
   -7.0869    2.1955   17.0342 Ta  0  0  0  0  0  0  0  0  0  0  0  0
   -6.5193    0.0450   17.6317 Cl  0  0  0  0  0  0  0  0  0  0  0  0
   -5.4576    2.7474   18.2571 N   0  0  0  0  0  0  0  0  0  0  0  0
   -7.1813    1.4612   15.0369 N   0  0  0  0  0  0  0  0  0  0  0  0
   -7.5021    4.2446   16.9334 N   0  0  0  0  0  0  0  0  0  0  0  0
   -5.4171    3.3901   15.5655 N   0  0  0  0  0  4  0  0  0  0  0  0
   -8.9944    1.9175   17.5708 N   0  0  0  0  0  0  0  0  0  0  0  0
   -5.1143    2.2684   19.4965 C   0  0  0  0  0  0  0  0  0  0  0  0
   -5.9238    1.6639   20.4520 C   0  0  0  0  0  0  0  0  0  0  0  0
   -6.9837    1.5270   20.2759 H   0  0  0  0  0  0  0  0  0  0  0  0
   -5.3355    1.2582   21.6325 C   0  0  0  0  0  0  0  0  0  0  0  0
   -5.9391    0.7852   22.3934 H   0  0  0  0  0  0  0  0  0  0  0  0
   -3.9731    1.4516   21.8697 C   0  0  0  0  0  0  0  0  0  0  0  0
   -3.5525    1.1197   22.8078 H   0  0  0  0  0  0  0  0  0  0  0  0
   -3.1630    2.0609   20.9355 C   0  0  0  0  0  0  0  0  0  0  0  0
   -2.1110    2.2150   21.1262 H   0  0  0  0  0  0  0  0  0  0  0  0
   -3.7314    2.4781   19.7356 C   0  0  0  0  0  0  0  0  0  0  0  0
   -3.2347    3.1305   18.5693 C   0  0  0  0  0  0  0  0  0  0  0  0
   -2.2268    3.4543   18.3948 H   0  0  0  0  0  0  0  0  0  0  0  0
   -4.2983    3.2721   17.7241 C   0  0  0  0  0  0  0  0  0  0  0  0
   -4.3778    3.9884   16.4103 C   0  0  0  0  0  0  0  0  0  0  0  0
   -3.4016    3.9906   15.9085 H   0  0  0  0  0  0  0  0  0  0  0  0
   -4.6586    5.0303   16.6088 H   0  0  0  0  0  0  0  0  0  0  0  0
   -8.0810    0.6412   14.3932 C   0  0  0  0  0  0  0  0  0  0  0  0
   -9.2933    0.1301   14.8395 C   0  0  0  0  0  0  0  0  0  0  0  0
   -9.6460    0.3471   15.8341 H   0  0  0  0  0  0  0  0  0  0  0  0
  -10.0075   -0.6900   13.9897 C   0  0  0  0  0  0  0  0  0  0  0  0
  -10.9505   -1.1023   14.3180 H   0  0  0  0  0  0  0  0  0  0  0  0
   -9.5346   -1.0092   12.7160 C   0  0  0  0  0  0  0  0  0  0  0  0
  -10.1259   -1.6520   12.0804 H   0  0  0  0  0  0  0  0  0  0  0  0
   -8.3208   -0.5334   12.2701 C   0  0  0  0  0  0  0  0  0  0  0  0
   -7.9409   -0.7987   11.2946 H   0  0  0  0  0  0  0  0  0  0  0  0
   -7.5795    0.2900   13.1121 C   0  0  0  0  0  0  0  0  0  0  0  0
   -6.3016    0.9135   13.0076 C   0  0  0  0  0  0  0  0  0  0  0  0
   -5.6221    0.8532   12.1799 H   0  0  0  0  0  0  0  0  0  0  0  0
   -6.1050    1.5794   14.1817 C   0  0  0  0  0  0  0  0  0  0  0  0
   -4.9212    2.3633   14.6580 C   0  0  0  0  0  0  0  0  0  0  0  0
   -4.3687    2.7915   13.8078 H   0  0  0  0  0  0  0  0  0  0  0  0
   -4.2397    1.7083   15.2180 H   0  0  0  0  0  0  0  0  0  0  0  0
   -8.1200    5.0877   17.8277 C   0  0  0  0  0  0  0  0  0  0  0  0
   -8.6300    4.8028   19.0898 C   0  0  0  0  0  0  0  0  0  0  0  0
   -8.5560    3.8055   19.5039 H   0  0  0  0  0  0  0  0  0  0  0  0
   -9.1933    5.8362   19.8105 C   0  0  0  0  0  0  0  0  0  0  0  0
   -9.5937    5.6429   20.7951 H   0  0  0  0  0  0  0  0  0  0  0  0
   -9.2460    7.1350   19.3000 C   0  0  0  0  0  0  0  0  0  0  0  0
   -9.6997    7.9142   19.8947 H   0  0  0  0  0  0  0  0  0  0  0  0
   -8.7101    7.4396   18.0674 C   0  0  0  0  0  0  0  0  0  0  0  0
   -8.7268    8.4503   17.6872 H   0  0  0  0  0  0  0  0  0  0  0  0
   -8.1297    6.4148   17.3252 C   0  0  0  0  0  0  0  0  0  0  0  0
   -7.4298    6.3608   16.0840 C   0  0  0  0  0  0  0  0  0  0  0  0
   -7.2216    7.1833   15.4275 H   0  0  0  0  0  0  0  0  0  0  0  0
   -7.0678    5.0564   15.9081 C   0  0  0  0  0  0  0  0  0  0  0  0
   -6.2131    4.4067   14.8687 C   0  0  0  0  0  0  0  0  0  0  0  0
   -6.8332    3.9039   14.1162 H   0  0  0  0  0  0  0  0  0  0  0  0
   -5.5812    5.1452   14.3569 H   0  0  0  0  0  0  0  0  0  0  0  0
   -9.4638    1.0620   18.6424 C   0  0  0  0  0  0  0  0  0  0  0  0
   -9.7346    1.6470   19.5316 H   0  0  0  0  0  0  0  0  0  0  0  0
   -8.6878    0.3456   18.9081 H   0  0  0  0  0  0  0  0  0  0  0  0
  -10.3566    0.5056   18.3342 H   0  0  0  0  0  0  0  0  0  0  0  0
  -10.1029    2.7057   17.0625 C   0  0  0  0  0  0  0  0  0  0  0  0
  -10.9261    2.0581   16.7416 H   0  0  0  0  0  0  0  0  0  0  0  0
   -9.7812    3.2979   16.2065 H   0  0  0  0  0  0  0  0  0  0  0  0
  -10.4918    3.3829   17.8327 H   0  0  0  0  0  0  0  0  0  0  0  0
  1  7  1  0  0  0  0
  1  2  1  0  0  0  0
  1  3  1  0  0  0  0
  3  8  1  0  0  0  0
  4  1  1  0  0  0  0
  5  1  1  0  0  0  0
  5 40  1  0  0  0  0
  6 21  1  0  0  0  0
  6  1  1  0  0  0  0
  7 56  1  0  0  0  0
  8 17  2  0  0  0  0
  8  9  1  0  0  0  0
  9 11  2  0  0  0  0
 10  9  1  0  0  0  0
 11 13  1  0  0  0  0
 11 12  1  0  0  0  0
 13 14  1  0  0  0  0
 15 16  1  0  0  0  0
 15 13  2  0  0  0  0
 17 15  1  0  0  0  0
 18 17  1  0  0  0  0
 19 18  1  0  0  0  0
 20  3  1  0  0  0  0
 20 18  2  0  0  0  0
 21 23  1  0  0  0  0
 21 20  1  0  0  0  0
 22 21  1  0  0  0  0
 24 25  1  0  0  0  0
 24  4  1  0  0  0  0
 25 26  1  0  0  0  0
 27 28  1  0  0  0  0
 27 25  2  0  0  0  0
 29 27  1  0  0  0  0
 30 29  1  0  0  0  0
 31 29  2  0  0  0  0
 31 33  1  0  0  0  0
 32 31  1  0  0  0  0
 33 24  2  0  0  0  0
 34 33  1  0  0  0  0
 34 36  2  0  0  0  0
 35 34  1  0  0  0  0
 36 37  1  0  0  0  0
 36  4  1  0  0  0  0
 37 39  1  0  0  0  0
 37  6  1  0  0  0  0
 38 37  1  0  0  0  0
 40 41  1  0  0  0  0
 41 42  1  0  0  0  0
 41 43  2  0  0  0  0
 43 44  1  0  0  0  0
 45 43  1  0  0  0  0
 45 46  1  0  0  0  0
 47 45  2  0  0  0  0
 48 47  1  0  0  0  0
 49 40  2  0  0  0  0
 49 47  1  0  0  0  0
 50 49  1  0  0  0  0
 51 50  1  0  0  0  0
 52 50  2  0  0  0  0
 52  5  1  0  0  0  0
 53  6  1  0  0  0  0
 53 52  1  0  0  0  0
 54 53  1  0  0  0  0
 55 53  1  0  0  0  0
 56 58  1  0  0  0  0
 56 57  1  0  0  0  0
 59 56  1  0  0  0  0
 60  7  1  0  0  0  0
 60 63  1  0  0  0  0
 61 60  1  0  0  0  0
 62 60  1  0  0  0  0
M  END
$$$$
