CSD_code = MUTMIZ | q = 1 | S = 0 | Stoichiometry = C26H28ClFeN6O2(1+) | MND = 6
 OpenBabel04212202073D

 64 71  0  0  1  0  0  0  0  0999 V2000
    6.0874    0.1708    8.8362 C   0  0  0  0  0  0  0  0  0  0  0  0
    5.4173   -0.1826   10.1174 C   0  0  0  0  0  0  0  0  0  0  0  0
    5.9499   -0.2177   11.0490 H   0  0  0  0  0  0  0  0  0  0  0  0
    4.1301   -0.4260    9.8757 C   0  0  0  0  0  0  0  0  0  0  0  0
    3.3552   -0.7093   10.5628 H   0  0  0  0  0  0  0  0  0  0  0  0
    3.8727   -0.2448    8.4229 C   0  0  0  0  0  0  0  0  0  0  0  0
    1.3400    3.4846    8.5483 C   0  0  0  0  0  0  0  0  0  0  0  0
    1.0123    3.4943    9.5754 H   0  0  0  0  0  0  0  0  0  0  0  0
    0.6684    2.7296    7.5994 C   0  0  0  0  0  0  0  0  0  0  0  0
   -0.1970    2.1437    7.8641 H   0  0  0  0  0  0  0  0  0  0  0  0
    1.1232    2.7367    6.2924 C   0  0  1  0  0  3  0  0  0  0  0  0
    2.8289    4.1663    6.8127 C   0  0  0  0  0  0  0  0  0  0  0  0
    3.6706    4.7319    6.4456 H   0  0  0  0  0  0  0  0  0  0  0  0
    2.4316    4.2316    8.1355 C   0  0  0  0  0  0  0  0  0  0  0  0
    2.9750    4.8550    8.8260 H   0  0  0  0  0  0  0  0  0  0  0  0
    5.3147    0.3489    6.4601 C   0  0  0  0  0  0  0  0  0  0  0  0
    5.1173   -0.5769    5.9113 H   0  0  0  0  0  0  0  0  0  0  0  0
    6.3704    0.6087    6.3546 H   0  0  0  0  0  0  0  0  0  0  0  0
    4.3859    1.4840    5.9929 C   0  0  0  0  0  0  0  0  0  0  0  0
    3.4279    1.3400    6.4900 H   0  0  0  0  0  0  0  0  0  0  0  0
    4.7952    2.4430    6.3163 H   0  0  0  0  0  0  0  0  0  0  0  0
    1.3293    5.4575    3.3670 C   0  0  0  0  0  3  0  0  0  0  0  0
    2.0831    5.9943    3.9207 H   0  0  0  0  0  0  0  0  0  0  0  0
    0.5634    3.3915    2.6977 C   0  0  0  0  0  0  0  0  0  0  0  0
   -0.4828    3.9596    1.9960 C   0  0  0  0  0  0  0  0  0  0  0  0
   -1.1860    3.3335    1.4695 H   0  0  0  0  0  0  0  0  0  0  0  0
   -0.6056    5.3446    1.9752 C   0  0  0  0  0  0  0  0  0  0  0  0
   -1.4067    5.8122    1.4259 H   0  0  0  0  0  0  0  0  0  0  0  0
    0.3153    6.1032    2.6799 C   0  0  0  0  0  0  0  0  0  0  0  0
    0.2541    7.1785    2.6968 H   0  0  0  0  0  0  0  0  0  0  0  0
    0.7906    1.9055    2.8217 C   0  0  0  0  0  0  0  0  0  0  0  0
   -0.1478    1.3494    2.6964 H   0  0  0  0  0  0  0  0  0  0  0  0
    1.4944    1.5701    2.0579 H   0  0  0  0  0  0  0  0  0  0  0  0
    1.9867    0.3856    4.3706 C   0  0  0  0  0  0  0  0  0  0  0  0
    1.4641   -0.4003    3.8146 H   0  0  0  0  0  0  0  0  0  0  0  0
    1.9085    0.1553    5.4346 H   0  0  0  0  0  0  0  0  0  0  0  0
    3.4562    0.4151    3.9830 C   0  0  0  0  0  0  0  0  0  0  0  0
    3.9357   -0.5212    4.2848 H   0  0  0  0  0  0  0  0  0  0  0  0
    3.5412    0.4913    2.8988 H   0  0  0  0  0  0  0  0  0  0  0  0
    0.4206    2.0165    5.1860 C   0  0  0  0  0  0  0  0  0  0  0  0
   -0.0902    1.1185    5.5469 H   0  0  0  0  0  0  0  0  0  0  0  0
   -0.3408    2.6918    4.7865 H   0  0  0  0  0  0  0  0  0  0  0  0
    4.9295    2.3935    2.4458 C   0  0  2  0  0  3  0  0  0  0  0  0
    5.3291    1.8878    3.7991 C   0  0  0  0  0  0  0  0  0  0  0  0
    5.9923    1.0182    3.7132 H   0  0  0  0  0  0  0  0  0  0  0  0
    5.8647    2.6949    4.3060 H   0  0  0  0  0  0  0  0  0  0  0  0
    3.2970    3.3284    1.1521 C   0  0  0  0  0  0  0  0  0  0  0  0
    2.2823    3.6845    1.0754 H   0  0  0  0  0  0  0  0  0  0  0  0
    5.8387    2.4465    1.4018 C   0  0  0  0  0  0  0  0  0  0  0  0
    6.8453    2.0925    1.5557 H   0  0  0  0  0  0  0  0  0  0  0  0
    5.4464    2.9782    0.1852 C   0  0  0  0  0  0  0  0  0  0  0  0
    6.1389    3.0458   -0.6381 H   0  0  0  0  0  0  0  0  0  0  0  0
    4.1418    3.4288    0.0631 C   0  0  0  0  0  0  0  0  0  0  0  0
    3.7815    3.8601   -0.8560 H   0  0  0  0  0  0  0  0  0  0  0  0
    1.3926    1.7002    4.1327 N   0  0  2  0  0  4  0  0  0  0  0  0
    4.1218    1.5908    4.5648 N   0  0  2  0  0  4  0  0  0  0  0  0
    3.6647    2.8204    2.3270 N   0  0  0  0  0  0  0  0  0  0  0  0
    2.2038    3.4211    5.9033 N   0  0  0  0  0  0  0  0  0  0  0  0
    1.4584    4.1372    3.3689 N   0  0  0  0  0  0  0  0  0  0  0  0
    5.0872    0.0975    7.8655 N   0  0  0  0  0  0  0  0  0  0  0  0
    7.2276    0.4674    8.6137 O   0  0  0  0  0  0  0  0  0  0  0  0
    2.8318   -0.3421    7.8125 O   0  0  0  0  0  0  0  0  0  0  0  0
    4.2371    4.7010    4.2043 Cl  0  0  0  0  0  0  0  0  0  0  0  0
    2.8025    3.0777    4.1061 Fe  0  0  0  0  0  0  0  0  0  0  0  0
  1  2  1  0  0  0  0
  2  3  1  0  0  0  0
  4  2  2  0  0  0  0
  4  5  1  0  0  0  0
  6  4  1  0  0  0  0
  7  8  1  0  0  0  0
  9 10  1  0  0  0  0
  9  7  2  0  0  0  0
 11  9  1  6  0  0  0
 12 14  2  0  0  0  0
 13 12  1  0  0  0  0
 14  7  1  0  0  0  0
 14 15  1  0  0  0  0
 16 60  1  0  0  0  0
 17 16  1  0  0  0  0
 18 16  1  0  0  0  0
 19 21  1  0  0  0  0
 19 16  1  0  0  0  0
 19 20  1  0  0  0  0
 22 59  1  0  0  0  0
 22 23  1  0  0  0  0
 24 31  1  0  0  0  0
 24 59  1  0  0  0  0
 25 24  2  0  0  0  0
 26 25  1  0  0  0  0
 27 25  1  0  0  0  0
 27 29  2  0  0  0  0
 28 27  1  0  0  0  0
 29 30  1  0  0  0  0
 29 22  1  0  0  0  0
 32 31  1  0  0  0  0
 33 31  1  0  0  0  0
 34 36  1  0  0  0  0
 35 34  1  0  0  0  0
 37 38  1  0  0  0  0
 37 34  1  0  0  0  0
 37 56  1  0  0  0  0
 39 37  1  0  0  0  0
 40 41  1  0  0  0  0
 40 11  1  0  0  0  0
 42 40  1  0  0  0  0
 43 49  1  1  0  0  0
 43 44  1  0  0  0  0
 44 46  1  0  0  0  0
 44 56  1  0  0  0  0
 45 44  1  0  0  0  0
 47 57  1  0  0  0  0
 48 47  1  0  0  0  0
 49 50  1  0  0  0  0
 51 49  2  0  0  0  0
 52 51  1  0  0  0  0
 53 51  1  0  0  0  0
 53 47  2  0  0  0  0
 54 53  1  0  0  0  0
 55 31  1  6  0  0  0
 55 34  1  0  0  0  0
 55 40  1  0  0  0  0
 56 19  1  1  0  0  0
 57 43  1  0  0  0  0
 57 64  1  0  0  0  0
 58 11  1  0  0  0  0
 58 12  1  0  0  0  0
 59 64  1  0  0  0  0
 60  6  1  0  0  0  0
 60  1  1  0  0  0  0
 61  1  2  0  0  0  0
 62  6  2  0  0  0  0
 64 55  1  0  0  0  0
 64 63  1  0  0  0  0
 64 56  1  0  0  0  0
 64 58  1  0  0  0  0
M  END
$$$$
