CSD_code = MUTYAC | q = -1 | S = 0 | Stoichiometry = C6H12I3N4Zn(1-) | MND = 4
 OpenBabel04212202073D

 26 27  0  0  1  0  0  0  0  0999 V2000
    4.2551   10.2382    1.3481 Zn  0  0  0  0  0  0  0  0  0  0  0  0
    3.6978    7.9217    2.3958 I   0  0  0  0  0  0  0  0  0  0  0  0
    3.6741   10.6675   -1.1517 I   0  0  0  0  0  0  0  0  0  0  0  0
    4.6638   12.2724    2.9201 I   0  0  0  0  0  0  0  0  0  0  0  0
    6.6427    9.7561    0.9594 N   0  0  1  0  0  0  0  0  0  0  0  0
    8.7357   10.6412    0.1059 N   0  0  1  0  0  0  0  0  0  0  0  0
    8.2132    8.2994   -0.1825 N   0  0  2  0  0  0  0  0  0  0  0  0
    8.7460    9.1570    2.0132 N   0  0  2  0  0  0  0  0  0  0  0  0
    7.3252   10.9044    0.3454 C   0  0  0  0  0  0  0  0  0  0  0  0
    6.8488   11.1379   -0.6112 H   0  0  0  0  0  0  0  0  0  0  0  0
    7.2421   11.7704    1.0084 H   0  0  0  0  0  0  0  0  0  0  0  0
    6.8121    8.6041    0.0618 C   0  0  0  0  0  0  0  0  0  0  0  0
    6.3388    7.7254    0.5092 H   0  0  0  0  0  0  0  0  0  0  0  0
    6.3325    8.8208   -0.8971 H   0  0  0  0  0  0  0  0  0  0  0  0
    7.3352    9.4466    2.2187 C   0  0  0  0  0  0  0  0  0  0  0  0
    7.2523   10.3017    2.8957 H   0  0  0  0  0  0  0  0  0  0  0  0
    6.8666    8.5744    2.6836 H   0  0  0  0  0  0  0  0  0  0  0  0
    9.3638   10.3167    1.3812 C   0  0  0  0  0  0  0  0  0  0  0  0
    9.2706   11.1767    2.0507 H   0  0  0  0  0  0  0  0  0  0  0  0
   10.4243   10.1057    1.2113 H   0  0  0  0  0  0  0  0  0  0  0  0
    8.8527    8.0260    1.0991 C   0  0  0  0  0  0  0  0  0  0  0  0
    8.3733    7.1552    1.5555 H   0  0  0  0  0  0  0  0  0  0  0  0
    9.9112    7.8063    0.9280 H   0  0  0  0  0  0  0  0  0  0  0  0
    8.8426    9.4779   -0.7667 C   0  0  0  0  0  0  0  0  0  0  0  0
    8.3550    9.7038   -1.7193 H   0  0  0  0  0  0  0  0  0  0  0  0
    9.9009    9.2636   -0.9453 H   0  0  0  0  0  0  0  0  0  0  0  0
  1  2  1  0  0  0  0
  1  4  1  0  0  0  0
  3  1  1  0  0  0  0
  5 12  1  6  0  0  0
  5 15  1  0  0  0  0
  6 24  1  6  0  0  0
  6  9  1  0  0  0  0
  6 18  1  0  0  0  0
  7 24  1  1  0  0  0
  7 12  1  0  0  0  0
  7 21  1  0  0  0  0
  8 21  1  6  0  0  0
  8 15  1  0  0  0  0
  9  5  1  0  0  0  0
  9 11  1  0  0  0  0
 10  9  1  0  0  0  0
 12 13  1  0  0  0  0
 14 12  1  0  0  0  0
 15 17  1  0  0  0  0
 15 16  1  0  0  0  0
 18  8  1  0  0  0  0
 18 19  1  0  0  0  0
 20 18  1  0  0  0  0
 21 22  1  0  0  0  0
 23 21  1  0  0  0  0
 25 24  1  0  0  0  0
 26 24  1  0  0  0  0
M  END
$$$$
