CSD_code = MUVCOW | q = 0 | S = 0 | Stoichiometry = C14H24Cl2N4PdSi | MND = 4
 OpenBabel04212202073D

 46 48  0  0  1  0  0  0  0  0999 V2000
   -1.4469    4.2028    8.9625 Pd  0  0  0  0  0  0  0  0  0  0  0  0
   -2.6661    2.9783   10.3793 Cl  0  0  0  0  0  0  0  0  0  0  0  0
   -0.1326    2.4249    8.5904 Cl  0  0  0  0  0  0  0  0  0  0  0  0
   -0.1432    6.1379   11.0583 Si  0  0  0  0  0  0  0  0  0  0  0  0
   -2.1297    7.0219    9.2382 N   0  0  2  0  0  0  0  0  0  0  0  0
   -0.0657    6.6396    8.2081 N   0  0  2  0  0  0  0  0  0  0  0  0
    1.0101    4.6450   10.7838 C   0  0  0  0  0  0  0  0  0  0  0  0
    0.7523    7.3017    7.3563 C   0  0  1  0  0  3  0  0  0  0  0  0
   -0.3421    5.4139    7.7390 N   0  0  0  0  0  0  0  0  0  0  0  0
   -2.6862    5.8176    9.0750 N   0  0  0  0  0  0  0  0  0  0  0  0
   -4.8765    4.8330    8.6038 C   0  0  0  0  0  0  0  0  0  0  0  0
   -2.7602    9.4384    9.3275 C   0  0  0  0  0  0  0  0  0  0  0  0
    0.2787    5.2709    6.5788 C   0  0  0  0  0  0  0  0  0  0  0  0
   -3.0684    7.9944    9.1673 C   0  0  2  0  0  3  0  0  0  0  0  0
   -3.9827    5.9864    8.8740 C   0  0  0  0  0  0  0  0  0  0  0  0
    0.1423    4.0393    5.7642 C   0  0  0  0  0  0  0  0  0  0  0  0
   -0.7057    7.1158    9.4093 C   0  0  2  0  0  0  0  0  0  0  0  0
   -4.2715    7.3586    8.9391 C   0  0  0  0  0  0  0  0  0  0  0  0
    1.2474    8.6798    7.6038 C   0  0  0  0  0  0  0  0  0  0  0  0
    0.9965    6.4452    6.3032 C   0  0  0  0  0  0  0  0  0  0  0  0
    0.9065    7.5193   11.8779 C   0  0  0  0  0  0  0  0  0  0  0  0
   -1.7058    5.8608   12.1142 C   0  0  0  0  0  0  0  0  0  0  0  0
    1.6087    6.6368    5.4464 H   0  0  0  0  0  0  0  0  0  0  0  0
   -2.2992    9.6334   10.2958 H   0  0  0  0  0  0  0  0  0  0  0  0
   -1.4214    5.6581   13.1418 H   0  0  0  0  0  0  0  0  0  0  0  0
    1.8128    4.6610   11.5157 H   0  0  0  0  0  0  0  0  0  0  0  0
   -2.3599    6.7294   12.1193 H   0  0  0  0  0  0  0  0  0  0  0  0
   -2.2806    5.0039   11.7610 H   0  0  0  0  0  0  0  0  0  0  0  0
   -5.2315    7.8195    8.8298 H   0  0  0  0  0  0  0  0  0  0  0  0
   -2.0824    9.7845    8.5465 H   0  0  0  0  0  0  0  0  0  0  0  0
   -5.6604    5.1084    7.9021 H   0  0  0  0  0  0  0  0  0  0  0  0
    0.4691    3.7038   10.9112 H   0  0  0  0  0  0  0  0  0  0  0  0
    0.3336    8.4250   12.0496 H   0  0  0  0  0  0  0  0  0  0  0  0
   -3.6801   10.0117    9.2605 H   0  0  0  0  0  0  0  0  0  0  0  0
    1.2721    7.1848   12.8417 H   0  0  0  0  0  0  0  0  0  0  0  0
    1.4663    4.6242    9.7937 H   0  0  0  0  0  0  0  0  0  0  0  0
   -0.4521    8.1709    9.5147 H   0  0  0  0  0  0  0  0  0  0  0  0
    1.7818    8.7372    8.5514 H   0  0  0  0  0  0  0  0  0  0  0  0
    0.1565    4.2786    4.7033 H   0  0  0  0  0  0  0  0  0  0  0  0
   -0.7911    3.5342    6.0237 H   0  0  0  0  0  0  0  0  0  0  0  0
   -5.3359    4.4876    9.5294 H   0  0  0  0  0  0  0  0  0  0  0  0
    0.4254    9.3962    7.6280 H   0  0  0  0  0  0  0  0  0  0  0  0
    1.7741    7.7848   11.2818 H   0  0  0  0  0  0  0  0  0  0  0  0
   -4.2833    4.0064    8.1980 H   0  0  0  0  0  0  0  0  0  0  0  0
    0.9587    3.3523    5.9841 H   0  0  0  0  0  0  0  0  0  0  0  0
    1.9253    8.9654    6.8048 H   0  0  0  0  0  0  0  0  0  0  0  0
  1 10  1  0  0  0  0
  1  2  1  0  0  0  0
  3  1  1  0  0  0  0
  4 21  1  0  0  0  0
  4 22  1  0  0  0  0
  5 10  1  6  0  0  0
  5 17  1  0  0  0  0
  6  9  1  6  0  0  0
  6 17  1  0  0  0  0
  7 32  1  0  0  0  0
  7  4  1  0  0  0  0
  7 26  1  0  0  0  0
  8 19  1  1  0  0  0
  8  6  1  0  0  0  0
  9  1  1  0  0  0  0
 11 15  1  0  0  0  0
 11 41  1  0  0  0  0
 12 24  1  0  0  0  0
 13  9  1  0  0  0  0
 14  5  1  0  0  0  0
 14 12  1  1  0  0  0
 15 18  2  0  0  0  0
 15 10  1  0  0  0  0
 16 45  1  0  0  0  0
 16 40  1  0  0  0  0
 16 13  1  0  0  0  0
 17 37  1  1  0  0  0
 17  4  1  0  0  0  0
 18 14  1  0  0  0  0
 19 42  1  0  0  0  0
 19 38  1  0  0  0  0
 20 13  2  0  0  0  0
 20  8  1  0  0  0  0
 21 33  1  0  0  0  0
 21 35  1  0  0  0  0
 22 27  1  0  0  0  0
 22 25  1  0  0  0  0
 23 20  1  0  0  0  0
 28 22  1  0  0  0  0
 29 18  1  0  0  0  0
 30 12  1  0  0  0  0
 31 11  1  0  0  0  0
 34 12  1  0  0  0  0
 36  7  1  0  0  0  0
 39 16  1  0  0  0  0
 43 21  1  0  0  0  0
 44 11  1  0  0  0  0
 46 19  1  0  0  0  0
M  END
$$$$
