CSD_code = MUVJAO | q = 0 | S = 0 | Stoichiometry = C22H36Cl2Si3Zr | MND = 12
 OpenBabel04212202073D

 64 67  0  0  1  0  0  0  0  0999 V2000
   -0.8072    2.4426    3.9691 Zr  0  0  0  0  0  0  0  0  0  0  0  0
   -1.6963    4.2692    2.7885 Cl  0  0  0  0  0  0  0  0  0  0  0  0
   -2.9344    2.0069    4.8644 Cl  0  0  0  0  0  0  0  0  0  0  0  0
    1.7476    4.7226    3.1733 Si  0  0  0  0  0  0  0  0  0  0  0  0
    1.3195    3.2251    1.3365 Si  0  0  0  0  0  0  0  0  0  0  0  0
    2.2760    1.2466    4.2982 Si  0  0  0  0  0  0  0  0  0  0  0  0
    0.9632    3.8940    4.6741 C   0  0  2  0  0  0  0  0  0  0  0  0
    1.2884    2.5950    5.1870 C   0  0  1  0  0  3  0  0  0  0  0  0
    0.3472    2.3004    6.2098 C   0  0  0  0  0  0  0  0  0  0  0  0
   -0.5091    3.4093    6.3725 C   0  0  0  0  0  0  0  0  0  0  0  0
   -0.1352    4.3833    5.4297 C   0  0  0  0  0  3  0  0  0  0  0  0
    0.3647    1.7500    2.0534 C   0  0  1  0  0  0  0  0  0  0  0  0
    0.8299    0.8734    3.1145 C   0  0  2  0  0  3  0  0  0  0  0  0
   -0.2547    0.0226    3.4638 C   0  0  0  0  0  0  0  0  0  0  0  0
   -1.3502    0.3268    2.6273 C   0  0  0  0  0  0  0  0  0  0  0  0
   -0.9835    1.3769    1.7592 C   0  0  2  0  0  3  0  0  0  0  0  0
   -0.2711   -1.1214    4.4443 C   0  0  0  0  0  0  0  0  0  0  0  0
   -0.4798   -2.4505    3.7079 C   0  0  0  0  0  0  0  0  0  0  0  0
   -1.3720   -0.9125    5.4908 C   0  0  0  0  0  0  0  0  0  0  0  0
   -1.8538    1.8646    0.6290 C   0  0  0  0  0  0  0  0  0  0  0  0
   -3.3374    1.8097    1.0094 C   0  0  0  0  0  0  0  0  0  0  0  0
   -1.5823    1.0157   -0.6193 C   0  0  0  0  0  0  0  0  0  0  0  0
    3.5881    5.1015    3.5727 C   0  0  0  0  0  0  0  0  0  0  0  0
    0.9626    6.4490    2.9139 C   0  0  0  0  0  0  0  0  0  0  0  0
    0.4537    4.2802   -0.0106 C   0  0  0  0  0  0  0  0  0  0  0  0
    2.8033    2.4778    0.3633 C   0  0  0  0  0  0  0  0  0  0  0  0
    3.9417    1.6736    3.4801 C   0  0  0  0  0  0  0  0  0  0  0  0
    2.7992   -0.0851    5.5763 C   0  0  0  0  0  0  0  0  0  0  0  0
    0.3862    1.4443    6.8733 H   0  0  0  0  0  0  0  0  0  0  0  0
   -1.2620    3.5232    7.1436 H   0  0  0  0  0  0  0  0  0  0  0  0
   -0.5578    5.3783    5.3499 H   0  0  0  0  0  0  0  0  0  0  0  0
   -2.2804   -0.2245    2.5921 H   0  0  0  0  0  0  0  0  0  0  0  0
    0.6927   -1.1753    4.9522 H   0  0  0  0  0  0  0  0  0  0  0  0
   -0.4372   -3.2816    4.4084 H   0  0  0  0  0  0  0  0  0  0  0  0
    0.2942   -2.5891    2.9568 H   0  0  0  0  0  0  0  0  0  0  0  0
   -1.4468   -2.4697    3.2123 H   0  0  0  0  0  0  0  0  0  0  0  0
   -1.3313   -1.6956    6.2462 H   0  0  0  0  0  0  0  0  0  0  0  0
   -2.3558   -0.9407    5.0251 H   0  0  0  0  0  0  0  0  0  0  0  0
   -1.2616    0.0575    5.9845 H   0  0  0  0  0  0  0  0  0  0  0  0
   -1.6040    2.9028    0.4019 H   0  0  0  0  0  0  0  0  0  0  0  0
   -3.6937    0.7827    1.0587 H   0  0  0  0  0  0  0  0  0  0  0  0
   -3.9313    2.3349    0.2646 H   0  0  0  0  0  0  0  0  0  0  0  0
   -3.5019    2.2861    1.9790 H   0  0  0  0  0  0  0  0  0  0  0  0
   -2.1868    1.3634   -1.4538 H   0  0  0  0  0  0  0  0  0  0  0  0
   -1.8241   -0.0274   -0.4266 H   0  0  0  0  0  0  0  0  0  0  0  0
   -0.5323    1.0784   -0.8954 H   0  0  0  0  0  0  0  0  0  0  0  0
    4.1901    5.1091    2.6706 H   0  0  0  0  0  0  0  0  0  0  0  0
    3.6806    6.0821    4.0282 H   0  0  0  0  0  0  0  0  0  0  0  0
    4.0219    4.3838    4.2579 H   0  0  0  0  0  0  0  0  0  0  0  0
   -0.0983    6.3814    2.7019 H   0  0  0  0  0  0  0  0  0  0  0  0
    1.0906    7.0751    3.7931 H   0  0  0  0  0  0  0  0  0  0  0  0
    1.4359    6.9593    2.0811 H   0  0  0  0  0  0  0  0  0  0  0  0
   -0.4149    4.8028    0.3741 H   0  0  0  0  0  0  0  0  0  0  0  0
    0.1519    3.6971   -0.8753 H   0  0  0  0  0  0  0  0  0  0  0  0
    1.1553    5.0318   -0.3624 H   0  0  0  0  0  0  0  0  0  0  0  0
    3.1340    1.5260    0.7611 H   0  0  0  0  0  0  0  0  0  0  0  0
    2.5291    2.3180   -0.6749 H   0  0  0  0  0  0  0  0  0  0  0  0
    3.6508    3.1547    0.3658 H   0  0  0  0  0  0  0  0  0  0  0  0
    3.8918    2.4924    2.7788 H   0  0  0  0  0  0  0  0  0  0  0  0
    4.3251    0.8037    2.9573 H   0  0  0  0  0  0  0  0  0  0  0  0
    4.6664    1.9300    4.2453 H   0  0  0  0  0  0  0  0  0  0  0  0
    3.7043    0.2486    6.0748 H   0  0  0  0  0  0  0  0  0  0  0  0
    2.0621   -0.2725    6.3492 H   0  0  0  0  0  0  0  0  0  0  0  0
    3.0319   -1.0286    5.0935 H   0  0  0  0  0  0  0  0  0  0  0  0
  1  7  1  0  0  0  0
  1  3  1  0  0  0  0
  2  1  1  0  0  0  0
  4 23  1  0  0  0  0
  4  7  1  0  0  0  0
  5  4  1  0  0  0  0
  6  8  1  0  0  0  0
  6 28  1  0  0  0  0
  7  8  1  0  0  0  0
  7 11  1  1  0  0  0
  8  9  1  6  0  0  0
  9 10  2  0  0  0  0
  9 29  1  0  0  0  0
 10 30  1  0  0  0  0
 11 10  1  0  0  0  0
 12  5  1  6  0  0  0
 12 13  1  0  0  0  0
 12  1  1  0  0  0  0
 13 14  1  1  0  0  0
 13  6  1  0  0  0  0
 14 17  1  0  0  0  0
 15 14  2  0  0  0  0
 16 20  1  6  0  0  0
 16 12  1  0  0  0  0
 16 15  1  0  0  0  0
 17 33  1  0  0  0  0
 17 19  1  0  0  0  0
 18 34  1  0  0  0  0
 18 17  1  0  0  0  0
 19 39  1  0  0  0  0
 19 37  1  0  0  0  0
 20 21  1  0  0  0  0
 21 41  1  0  0  0  0
 21 43  1  0  0  0  0
 22 45  1  0  0  0  0
 22 20  1  0  0  0  0
 23 48  1  0  0  0  0
 23 49  1  0  0  0  0
 24  4  1  0  0  0  0
 24 51  1  0  0  0  0
 25 53  1  0  0  0  0
 25  5  1  0  0  0  0
 26 58  1  0  0  0  0
 26 56  1  0  0  0  0
 26  5  1  0  0  0  0
 27 61  1  0  0  0  0
 27  6  1  0  0  0  0
 28 62  1  0  0  0  0
 28 63  1  0  0  0  0
 31 11  1  0  0  0  0
 32 15  1  0  0  0  0
 35 18  1  0  0  0  0
 36 18  1  0  0  0  0
 38 19  1  0  0  0  0
 40 20  1  0  0  0  0
 42 21  1  0  0  0  0
 44 22  1  0  0  0  0
 46 22  1  0  0  0  0
 47 23  1  0  0  0  0
 50 24  1  0  0  0  0
 52 24  1  0  0  0  0
 54 25  1  0  0  0  0
 55 25  1  0  0  0  0
 57 26  1  0  0  0  0
 59 27  1  0  0  0  0
 60 27  1  0  0  0  0
 64 28  1  0  0  0  0
M  END
$$$$
