CSD_code = MUVQUR | q = 0 | S = 0 | Stoichiometry = C31H27Cl2NP2Pd | MND = 4
 OpenBabel04212202073D

 64 69  0  0  1  0  0  0  0  0999 V2000
    7.5431    9.9863    4.4768 Pd  0  0  0  0  0  0  0  0  0  0  0  0
    8.7086    6.9870    4.8261 C   0  0  0  0  0  0  0  0  0  0  0  0
    7.3249    6.8209    4.8897 C   0  0  0  0  0  0  0  0  0  0  0  0
    6.6594    7.6893    4.7619 H   0  0  0  0  0  0  0  0  0  0  0  0
    6.7888    5.5708    5.1408 C   0  0  0  0  0  0  0  0  0  0  0  0
    5.7178    5.4442    5.1946 H   0  0  0  0  0  0  0  0  0  0  0  0
    7.6268    4.4834    5.3286 C   0  0  0  0  0  0  0  0  0  0  0  0
    7.2083    3.5077    5.5262 H   0  0  0  0  0  0  0  0  0  0  0  0
    9.0019    4.6458    5.2717 C   0  0  0  0  0  0  0  0  0  0  0  0
    9.6540    3.7980    5.4240 H   0  0  0  0  0  0  0  0  0  0  0  0
    9.5462    5.8918    5.0215 C   0  0  0  0  0  0  0  0  0  0  0  0
   10.6198    6.0157    4.9811 H   0  0  0  0  0  0  0  0  0  0  0  0
   10.8466    8.9123    5.3452 C   0  0  0  0  0  0  0  0  0  0  0  0
   11.0773    8.2556    6.5504 C   0  0  0  0  0  0  0  0  0  0  0  0
   10.3511    7.5473    6.9213 H   0  0  0  0  0  0  0  0  0  0  0  0
   12.2177    8.5360    7.2803 C   0  0  0  0  0  0  0  0  0  0  0  0
   12.3954    8.0221    8.2131 H   0  0  0  0  0  0  0  0  0  0  0  0
   13.1220    9.4823    6.8269 C   0  0  0  0  0  0  0  0  0  0  0  0
   14.0114    9.6984    7.3999 H   0  0  0  0  0  0  0  0  0  0  0  0
   12.8723   10.1719    5.6511 C   0  0  0  0  0  0  0  0  0  0  0  0
   13.5608   10.9329    5.3136 H   0  0  0  0  0  0  0  0  0  0  0  0
   11.7343    9.8970    4.9162 C   0  0  0  0  0  0  0  0  0  0  0  0
   11.5238   10.4616    4.0158 H   0  0  0  0  0  0  0  0  0  0  0  0
   10.5406    4.9752    1.9203 C   0  0  0  0  0  0  0  0  0  0  0  0
    9.9183    4.1559    1.5851 H   0  0  0  0  0  0  0  0  0  0  0  0
   11.8842    4.7914    2.2020 C   0  0  0  0  0  0  0  0  0  0  0  0
   12.3435    3.8216    2.0955 H   0  0  0  0  0  0  0  0  0  0  0  0
   12.6177    5.8930    2.6182 C   0  0  0  0  0  0  0  0  0  0  0  0
   13.6699    5.8006    2.8455 H   0  0  0  0  0  0  0  0  0  0  0  0
   11.9818    7.1152    2.7384 C   0  0  0  0  0  0  0  0  0  0  0  0
   12.5219    7.9930    3.0594 H   0  0  0  0  0  0  0  0  0  0  0  0
   10.6210    7.1947    2.4416 C   0  0  0  0  0  0  0  0  0  0  0  0
    9.8628    8.4685    2.6182 C   0  0  1  0  0  0  0  0  0  0  0  0
   10.5130    9.3297    2.4175 H   0  0  0  0  0  0  0  0  0  0  0  0
    8.6192    8.5408    1.7347 C   0  0  0  0  0  0  0  0  0  0  0  0
    8.0479    7.6138    1.8604 H   0  0  0  0  0  0  0  0  0  0  0  0
    8.9061    8.6358    0.6825 H   0  0  0  0  0  0  0  0  0  0  0  0
    6.1768   10.0037    1.0677 C   0  0  0  0  0  0  0  0  0  0  0  0
    5.9297    9.0312    0.1053 C   0  0  0  0  0  0  0  0  0  0  0  0
    6.5804    8.1742    0.0085 H   0  0  0  0  0  0  0  0  0  0  0  0
    4.8355    9.1647   -0.7322 C   0  0  0  0  0  0  0  0  0  0  0  0
    4.6420    8.4120   -1.4829 H   0  0  0  0  0  0  0  0  0  0  0  0
    3.9874   10.2529   -0.6081 C   0  0  0  0  0  0  0  0  0  0  0  0
    3.1345   10.3473   -1.2640 H   0  0  0  0  0  0  0  0  0  0  0  0
    4.2237   11.2133    0.3638 C   0  0  0  0  0  0  0  0  0  0  0  0
    3.5532   12.0528    0.4702 H   0  0  0  0  0  0  0  0  0  0  0  0
    5.3131   11.0898    1.2038 C   0  0  0  0  0  0  0  0  0  0  0  0
    5.4962   11.8100    1.9910 H   0  0  0  0  0  0  0  0  0  0  0  0
    8.5476   11.4060    1.7802 C   0  0  0  0  0  0  0  0  0  0  0  0
    8.8537   11.6873    0.4520 C   0  0  0  0  0  0  0  0  0  0  0  0
    8.4708   11.0487   -0.3330 H   0  0  0  0  0  0  0  0  0  0  0  0
    9.6319   12.7878    0.1423 C   0  0  0  0  0  0  0  0  0  0  0  0
    9.8670   13.0085   -0.8887 H   0  0  0  0  0  0  0  0  0  0  0  0
   10.1056   13.6109    1.1524 C   0  0  0  0  0  0  0  0  0  0  0  0
   10.7114   14.4703    0.9059 H   0  0  0  0  0  0  0  0  0  0  0  0
    9.7947   13.3411    2.4759 C   0  0  0  0  0  0  0  0  0  0  0  0
   10.1548   13.9905    3.2599 H   0  0  0  0  0  0  0  0  0  0  0  0
    9.0142   12.2429    2.7930 C   0  0  0  0  0  0  0  0  0  0  0  0
    8.7426   12.0407    3.8420 H   0  0  0  0  0  0  0  0  0  0  0  0
    8.0530    9.8449    6.6992 Cl  0  0  0  0  0  0  0  0  0  0  0  0
    5.6444   11.2011    4.7087 Cl  0  0  0  0  0  0  0  0  0  0  0  0
    9.9250    6.1374    2.0368 N   0  0  0  0  0  0  0  0  0  0  0  0
    9.3139    8.6477    4.4259 P   0  0  0  0  0  4  0  0  0  0  0  0
    7.5480    9.9549    2.2462 P   0  0  0  0  0  4  0  0  0  0  0  0
  1 61  1  0  0  0  0
  1 60  1  0  0  0  0
  2  3  2  0  0  0  0
  2 11  1  0  0  0  0
  3  5  1  0  0  0  0
  4  3  1  0  0  0  0
  5  6  1  0  0  0  0
  5  7  2  0  0  0  0
  7  8  1  0  0  0  0
  9  7  1  0  0  0  0
  9 10  1  0  0  0  0
 11  9  2  0  0  0  0
 12 11  1  0  0  0  0
 13 14  1  0  0  0  0
 14 15  1  0  0  0  0
 14 16  2  0  0  0  0
 16 17  1  0  0  0  0
 18 16  1  0  0  0  0
 18 19  1  0  0  0  0
 20 18  2  0  0  0  0
 21 20  1  0  0  0  0
 22 13  2  0  0  0  0
 22 20  1  0  0  0  0
 23 22  1  0  0  0  0
 24 62  2  0  0  0  0
 24 26  1  0  0  0  0
 25 24  1  0  0  0  0
 26 28  2  0  0  0  0
 27 26  1  0  0  0  0
 28 30  1  0  0  0  0
 28 29  1  0  0  0  0
 30 31  1  0  0  0  0
 32 33  1  0  0  0  0
 32 30  2  0  0  0  0
 33 34  1  6  0  0  0
 33 63  1  0  0  0  0
 35 36  1  0  0  0  0
 35 64  1  0  0  0  0
 35 33  1  0  0  0  0
 37 35  1  0  0  0  0
 38 47  1  0  0  0  0
 38 64  1  0  0  0  0
 39 38  2  0  0  0  0
 40 39  1  0  0  0  0
 41 43  2  0  0  0  0
 41 39  1  0  0  0  0
 42 41  1  0  0  0  0
 43 45  1  0  0  0  0
 44 43  1  0  0  0  0
 45 46  1  0  0  0  0
 45 47  2  0  0  0  0
 47 48  1  0  0  0  0
 49 64  1  0  0  0  0
 49 58  1  0  0  0  0
 50 49  2  0  0  0  0
 51 50  1  0  0  0  0
 52 50  1  0  0  0  0
 52 54  2  0  0  0  0
 53 52  1  0  0  0  0
 54 56  1  0  0  0  0
 55 54  1  0  0  0  0
 56 58  2  0  0  0  0
 56 57  1  0  0  0  0
 58 59  1  0  0  0  0
 62 32  1  0  0  0  0
 63  1  1  0  0  0  0
 63  2  1  0  0  0  0
 63 13  1  0  0  0  0
 64  1  1  0  0  0  0
M  END
$$$$
