CSD_code = MUWCIS | q = 0 | S = 0 | Stoichiometry = C9H6AuCl2NO | MND = 4
 OpenBabel04212202073D

 20 22  0  0  1  0  0  0  0  0999 V2000
   -1.8440   14.1829   11.4381 Au  0  0  0  0  0  0  0  0  0  0  0  0
   -1.6855   12.0366    9.2756 C   0  0  0  0  0  0  0  0  0  0  0  0
   -2.3145   12.6989    8.6974 H   0  0  0  0  0  0  0  0  0  0  0  0
   -1.2467   10.8044    8.7790 C   0  0  0  0  0  0  0  0  0  0  0  0
   -1.5458   10.5066    7.7871 H   0  0  0  0  0  0  0  0  0  0  0  0
   -0.4495   10.0020    9.5564 C   0  0  0  0  0  0  0  0  0  0  0  0
   -0.1001    9.0474    9.1909 H   0  0  0  0  0  0  0  0  0  0  0  0
   -0.0774   10.4226   10.8490 C   0  0  0  0  0  0  0  0  0  0  0  0
    0.7310    9.6937   11.7378 C   0  0  0  0  0  0  0  0  0  0  0  0
    1.1114    8.7315   11.4337 H   0  0  0  0  0  0  0  0  0  0  0  0
    1.0247   10.2132   12.9756 C   0  0  0  0  0  0  0  0  0  0  0  0
    1.6461    9.6488   13.6547 H   0  0  0  0  0  0  0  0  0  0  0  0
    0.5462   11.4554   13.3947 C   0  0  0  0  0  0  0  0  0  0  0  0
    0.7902   11.8430   14.3703 H   0  0  0  0  0  0  0  0  0  0  0  0
   -0.2563   12.2140   12.5542 C   0  0  0  0  0  0  0  0  0  0  0  0
   -0.5643   11.6858   11.2766 C   0  0  1  0  0  3  0  0  0  0  0  0
   -3.0535   14.9644    9.7515 Cl  0  0  0  0  0  0  0  0  0  0  0  0
   -2.2819   16.0062   12.6203 Cl  0  0  0  0  0  0  0  0  0  0  0  0
   -1.3512   12.4500   10.4771 N   0  0  0  0  0  0  0  0  0  0  0  0
   -0.7361   13.3902   12.8940 O   0  0  0  0  0  0  0  0  0  0  0  0
  1 18  1  0  0  0  0
  1 20  1  0  0  0  0
  2 19  1  0  0  0  0
  3  2  1  0  0  0  0
  4  2  2  0  0  0  0
  4  6  1  0  0  0  0
  5  4  1  0  0  0  0
  6  8  2  0  0  0  0
  7  6  1  0  0  0  0
  8  9  1  0  0  0  0
  9 11  2  0  0  0  0
 10  9  1  0  0  0  0
 11 13  1  0  0  0  0
 11 12  1  0  0  0  0
 13 14  1  0  0  0  0
 15 20  1  0  0  0  0
 15 13  2  0  0  0  0
 16  8  1  6  0  0  0
 16 15  1  0  0  0  0
 17  1  1  0  0  0  0
 19 16  1  0  0  0  0
 19  1  1  0  0  0  0
M  END
$$$$
