CSD_code = MUXDUG | q = 0 | S = 0 | Stoichiometry = C29H31Cl2N3O2Os | MND = 9
 OpenBabel04212202073D

 68 72  0  0  1  0  0  0  0  0999 V2000
   -1.1986   14.9488    6.8211 Os  0  0  2  0  0  0  0  0  0  0  0  0
   -2.8834   13.4351    7.0438 Cl  0  0  0  0  0  0  0  0  0  0  0  0
   -7.9486   17.9714    3.9772 Cl  0  0  0  0  0  0  0  0  0  0  0  0
   -2.2228   16.7170    6.8314 O   0  0  0  0  0  0  0  0  0  0  0  0
   -4.4123   19.5242    2.6608 O   0  0  0  0  0  0  0  0  0  0  0  0
   -1.1904   14.8888    4.8705 N   0  0  0  0  0  0  0  0  0  0  0  0
   -3.1257   13.2199    3.9437 N   0  0  0  0  0  0  0  0  0  0  0  0
   -3.5046   13.3609    4.8736 H   0  0  0  0  0  0  0  0  0  0  0  0
   -4.6501   15.6956    0.9296 N   0  0  0  0  0  0  0  0  0  0  0  0
   -1.6057   15.8470    4.0842 C   0  0  0  0  0  3  0  0  0  0  0  0
   -1.3789   15.7678    3.0221 H   0  0  0  0  0  0  0  0  0  0  0  0
   -2.4031   16.9657    4.4432 C   0  0  0  0  0  0  0  0  0  0  0  0
   -2.7488   17.2803    5.7885 C   0  0  0  0  0  0  0  0  0  0  0  0
   -3.6760   18.3295    5.9892 C   0  0  0  0  0  0  0  0  0  0  0  0
   -3.9510   18.5565    7.0074 H   0  0  0  0  0  0  0  0  0  0  0  0
   -4.2025   19.0377    4.9463 C   0  0  0  0  0  0  0  0  0  0  0  0
   -4.9170   19.8276    5.1157 H   0  0  0  0  0  0  0  0  0  0  0  0
   -3.8302   18.7529    3.6193 C   0  0  0  0  0  0  0  0  0  0  0  0
   -2.9342   17.7381    3.3874 C   0  0  0  0  0  0  0  0  0  0  0  0
   -2.6476   17.4723    2.3821 H   0  0  0  0  0  0  0  0  0  0  0  0
   -4.0758   19.2824    1.3138 C   0  0  0  0  0  0  0  0  0  0  0  0
   -3.0145   19.4824    1.1294 H   0  0  0  0  0  0  0  0  0  0  0  0
   -4.6783   19.9792    0.7334 H   0  0  0  0  0  0  0  0  0  0  0  0
   -4.3113   18.2573    1.0129 H   0  0  0  0  0  0  0  0  0  0  0  0
   -0.6766   13.7026    4.2089 C   0  0  0  0  0  0  0  0  0  0  0  0
    0.1098   13.2469    4.8206 H   0  0  0  0  0  0  0  0  0  0  0  0
   -0.2460   13.9811    3.2403 H   0  0  0  0  0  0  0  0  0  0  0  0
   -1.8123   12.6455    3.9870 C   0  0  0  0  0  0  0  0  0  0  0  0
   -1.6013   12.0904    3.0701 H   0  0  0  0  0  0  0  0  0  0  0  0
   -1.8152   11.9486    4.8262 H   0  0  0  0  0  0  0  0  0  0  0  0
   -3.5891   14.0497    2.9726 C   0  0  0  0  0  0  0  0  0  0  0  0
   -3.0952   14.0348    1.6733 C   0  0  0  0  0  0  0  0  0  0  0  0
   -2.2824   13.3821    1.3956 H   0  0  0  0  0  0  0  0  0  0  0  0
   -3.6606   14.8673    0.7115 C   0  0  0  0  0  0  0  0  0  0  0  0
   -3.2743   14.8598   -0.3012 H   0  0  0  0  0  0  0  0  0  0  0  0
   -5.1569   15.7478    2.1796 C   0  0  0  0  0  0  0  0  0  0  0  0
   -6.2035   16.6637    2.4143 C   0  0  0  0  0  0  0  0  0  0  0  0
   -6.5818   17.2349    1.5821 H   0  0  0  0  0  0  0  0  0  0  0  0
   -6.6963   16.8225    3.6779 C   0  0  0  0  0  0  0  0  0  0  0  0
   -6.1924   16.0798    4.7531 C   0  0  0  0  0  0  0  0  0  0  0  0
   -6.5860   16.2410    5.7437 H   0  0  0  0  0  0  0  0  0  0  0  0
   -5.2031   15.1597    4.5376 C   0  0  0  0  0  0  0  0  0  0  0  0
   -4.8287   14.6078    5.3860 H   0  0  0  0  0  0  0  0  0  0  0  0
   -4.6617   14.9587    3.2537 C   0  0  0  0  0  0  0  0  0  0  0  0
    0.0629   11.8698    8.7071 C   0  0  0  0  0  0  0  0  0  0  0  0
    0.1327   11.6799    9.7781 H   0  0  0  0  0  0  0  0  0  0  0  0
    0.7666   11.2195    8.1930 H   0  0  0  0  0  0  0  0  0  0  0  0
   -0.9495   11.6191    8.3904 H   0  0  0  0  0  0  0  0  0  0  0  0
    0.3532   13.3125    8.4238 C   0  0  0  0  0  0  0  0  0  0  0  0
    1.4766   13.7114    7.7168 C   0  0  0  0  0  0  0  0  0  0  0  0
    2.1603   12.9658    7.3344 H   0  0  0  0  0  0  0  0  0  0  0  0
    1.7779   15.0676    7.5363 C   0  0  0  0  0  0  0  0  0  0  0  0
    2.6830   15.3304    7.0089 H   0  0  0  0  0  0  0  0  0  0  0  0
    0.9609   16.0613    8.0527 C   0  0  0  0  0  0  0  0  0  0  0  0
   -0.2237   15.6758    8.7232 C   0  0  2  0  0  0  0  0  0  0  0  0
   -0.8028   16.4298    9.2475 H   0  0  0  0  0  0  0  0  0  0  0  0
   -0.5271   14.3117    8.9059 C   0  0  0  0  0  3  0  0  0  0  0  0
   -1.3274   14.0194    9.5804 H   0  0  0  0  0  0  0  0  0  0  0  0
    1.2866   17.5248    7.8784 C   0  0  0  0  0  0  0  0  0  0  0  0
    0.5597   18.1058    8.4559 H   0  0  0  0  0  0  0  0  0  0  0  0
    1.1303   17.9091    6.4033 C   0  0  0  0  0  0  0  0  0  0  0  0
    1.8567   17.3829    5.7867 H   0  0  0  0  0  0  0  0  0  0  0  0
    1.2786   18.9784    6.2732 H   0  0  0  0  0  0  0  0  0  0  0  0
    0.1282   17.6569    6.0538 H   0  0  0  0  0  0  0  0  0  0  0  0
    2.6878   17.8617    8.3904 C   0  0  0  0  0  0  0  0  0  0  0  0
    3.4529   17.3602    7.8029 H   0  0  0  0  0  0  0  0  0  0  0  0
    2.7972   17.5582    9.4294 H   0  0  0  0  0  0  0  0  0  0  0  0
    2.8583   18.9335    8.3245 H   0  0  0  0  0  0  0  0  0  0  0  0
  1  4  1  0  0  0  0
  1  2  1  1  0  0  0
  1 55  1  0  0  0  0
  5 18  1  0  0  0  0
  6  1  1  0  0  0  0
  7 28  1  0  0  0  0
  7  8  1  0  0  0  0
  9 36  1  0  0  0  0
 10 12  1  0  0  0  0
 10  6  1  0  0  0  0
 11 10  1  0  0  0  0
 12 13  1  0  0  0  0
 13 14  2  0  0  0  0
 13  4  1  0  0  0  0
 14 15  1  0  0  0  0
 16 17  1  0  0  0  0
 16 14  1  0  0  0  0
 18 16  2  0  0  0  0
 19 18  1  0  0  0  0
 19 12  2  0  0  0  0
 20 19  1  0  0  0  0
 21  5  1  0  0  0  0
 22 21  1  0  0  0  0
 23 21  1  0  0  0  0
 24 21  1  0  0  0  0
 25 26  1  0  0  0  0
 25  6  1  0  0  0  0
 27 25  1  0  0  0  0
 28 25  1  0  0  0  0
 28 30  1  0  0  0  0
 29 28  1  0  0  0  0
 31 44  1  0  0  0  0
 31  7  1  0  0  0  0
 32 31  2  0  0  0  0
 33 32  1  0  0  0  0
 34  9  2  0  0  0  0
 34 32  1  0  0  0  0
 35 34  1  0  0  0  0
 36 37  2  0  0  0  0
 36 44  1  0  0  0  0
 37 39  1  0  0  0  0
 38 37  1  0  0  0  0
 39  3  1  0  0  0  0
 39 40  2  0  0  0  0
 40 41  1  0  0  0  0
 42 40  1  0  0  0  0
 42 43  1  0  0  0  0
 44 42  2  0  0  0  0
 45 46  1  0  0  0  0
 47 45  1  0  0  0  0
 48 45  1  0  0  0  0
 49 45  1  0  0  0  0
 49 57  1  0  0  0  0
 50 49  2  0  0  0  0
 51 50  1  0  0  0  0
 52 50  1  0  0  0  0
 52 54  2  0  0  0  0
 53 52  1  0  0  0  0
 54 55  1  0  0  0  0
 55 57  1  0  0  0  0
 55 56  1  1  0  0  0
 57 58  1  0  0  0  0
 59 54  1  0  0  0  0
 59 65  1  0  0  0  0
 59 60  1  0  0  0  0
 61 59  1  0  0  0  0
 62 61  1  0  0  0  0
 63 61  1  0  0  0  0
 64 61  1  0  0  0  0
 65 67  1  0  0  0  0
 66 65  1  0  0  0  0
 68 65  1  0  0  0  0
M  END
$$$$
