CSD_code = MUYGUK | q = 0 | S = 0 | Stoichiometry = C22H15ClN3O5Re | MND = 6
 OpenBabel04212202073D

 47 50  0  0  1  0  0  0  0  0999 V2000
    0.8705    0.3446    6.4426 Re  0  0  0  0  0  0  0  0  0  0  0  0
   -0.6307   -1.1160    5.2491 Cl  0  0  0  0  0  0  0  0  0  0  0  0
   -3.8944    0.1444   11.8489 O   0  0  0  0  0  0  0  0  0  0  0  0
   -3.8526    0.4253   10.9170 H   0  0  0  0  0  0  0  0  0  0  0  0
   -0.1010   -0.0500    2.3903 O   0  0  0  0  0  0  0  0  0  0  0  0
   -0.3914   -0.3447    3.2866 H   0  0  0  0  0  0  0  0  0  0  0  0
    2.5990    2.3977    7.9738 O   0  0  0  0  0  1  0  0  0  0  0  0
    0.5520   -1.7670    8.6793 O   0  0  0  0  0  1  0  0  0  0  0  0
    3.2694   -1.1492    5.1951 O   0  0  0  0  0  1  0  0  0  0  0  0
   -2.0017    0.7359   10.1288 N   0  0  0  0  0  0  0  0  0  0  0  0
   -1.0196    1.4589    6.8046 N   0  0  0  0  0  0  0  0  0  0  0  0
    0.5886    1.4740    4.6987 N   0  0  0  0  0  0  0  0  0  0  0  0
   -1.2385    1.0339    9.1533 C   0  0  0  0  0  0  0  0  0  0  0  0
   -0.1450    0.9891    9.1890 H   0  0  0  0  0  0  0  0  0  0  0  0
   -0.5988    1.9359    4.5278 C   0  0  0  0  0  3  0  0  0  0  0  0
   -0.9405    2.3140    3.5672 H   0  0  0  0  0  0  0  0  0  0  0  0
    1.9692    1.6205    7.4084 C   0  0  0  0  0  2  0  0  0  0  0  0
    0.7338   -0.9438    7.9071 C   0  0  0  0  0  2  0  0  0  0  0  0
    2.4154   -0.5980    5.7144 C   0  0  0  0  0  2  0  0  0  0  0  0
   -1.5688    0.3094   11.3647 C   0  0  0  0  0  0  0  0  0  0  0  0
   -2.6228    0.0089   12.2579 C   0  0  0  0  0  0  0  0  0  0  0  0
   -2.3388   -0.4232   13.5480 C   0  0  0  0  0  0  0  0  0  0  0  0
   -3.1584   -0.6450   14.2127 H   0  0  0  0  0  0  0  0  0  0  0  0
   -1.0255   -0.5638   13.9481 C   0  0  0  0  0  0  0  0  0  0  0  0
   -0.8072   -0.9022   14.9496 H   0  0  0  0  0  0  0  0  0  0  0  0
    0.0181   -0.2780   13.0737 C   0  0  0  0  0  0  0  0  0  0  0  0
    1.0401   -0.3969   13.3992 H   0  0  0  0  0  0  0  0  0  0  0  0
   -0.2458    0.1542   11.7933 C   0  0  0  0  0  0  0  0  0  0  0  0
    0.5693    0.3720   11.1199 H   0  0  0  0  0  0  0  0  0  0  0  0
   -1.8030    1.4777    7.8904 C   0  0  1  0  0  3  0  0  0  0  0  0
   -3.1216    1.9425    7.8348 C   0  0  0  0  0  0  0  0  0  0  0  0
   -3.7119    1.9176    8.7358 H   0  0  0  0  0  0  0  0  0  0  0  0
   -3.6304    2.4265    6.6449 C   0  0  0  0  0  0  0  0  0  0  0  0
   -4.6469    2.7832    6.5835 H   0  0  0  0  0  0  0  0  0  0  0  0
   -2.8040    2.4532    5.5358 C   0  0  0  0  0  0  0  0  0  0  0  0
   -3.1448    2.8338    4.5860 H   0  0  0  0  0  0  0  0  0  0  0  0
   -1.5070    1.9543    5.6514 C   0  0  0  0  0  0  0  0  0  0  0  0
    1.4394    1.3871    3.5813 C   0  0  0  0  0  0  0  0  0  0  0  0
    1.0481    0.6530    2.4469 C   0  0  0  0  0  0  0  0  0  0  0  0
    1.9010    0.6366    1.3458 C   0  0  0  0  0  0  0  0  0  0  0  0
    1.5881    0.0812    0.4760 H   0  0  0  0  0  0  0  0  0  0  0  0
    3.1109    1.2999    1.3776 C   0  0  0  0  0  0  0  0  0  0  0  0
    3.7537    1.2746    0.5111 H   0  0  0  0  0  0  0  0  0  0  0  0
    3.5152    1.9720    2.5219 C   0  0  0  0  0  0  0  0  0  0  0  0
    4.4719    2.4685    2.5547 H   0  0  0  0  0  0  0  0  0  0  0  0
    2.6853    2.0054    3.6235 C   0  0  0  0  0  0  0  0  0  0  0  0
    2.9718    2.5291    4.5245 H   0  0  0  0  0  0  0  0  0  0  0  0
  1 11  1  0  0  0  0
  1 17  1  0  0  0  0
  1 18  1  0  0  0  0
  2  1  1  0  0  0  0
  3 21  1  0  0  0  0
  4  3  1  0  0  0  0
  5 39  1  0  0  0  0
  5  6  1  0  0  0  0
  9 19  1  0  0  0  0
 10 20  1  0  0  0  0
 11 30  1  0  0  0  0
 12  1  1  0  0  0  0
 13 14  1  0  0  0  0
 13 10  2  0  0  0  0
 15 12  1  0  0  0  0
 15 37  1  0  0  0  0
 16 15  1  0  0  0  0
 17  7  1  0  0  0  0
 18  8  1  0  0  0  0
 19  1  1  0  0  0  0
 20 28  2  0  0  0  0
 20 21  1  0  0  0  0
 21 22  2  0  0  0  0
 22 24  1  0  0  0  0
 22 23  1  0  0  0  0
 24 25  1  0  0  0  0
 26 27  1  0  0  0  0
 26 24  2  0  0  0  0
 28 26  1  0  0  0  0
 29 28  1  0  0  0  0
 30 13  1  1  0  0  0
 31 30  1  0  0  0  0
 31 32  1  0  0  0  0
 33 31  2  0  0  0  0
 34 33  1  0  0  0  0
 35 37  2  0  0  0  0
 35 33  1  0  0  0  0
 36 35  1  0  0  0  0
 37 11  1  0  0  0  0
 38 46  1  0  0  0  0
 38 12  1  0  0  0  0
 39 38  2  0  0  0  0
 40 42  2  0  0  0  0
 40 39  1  0  0  0  0
 41 40  1  0  0  0  0
 42 44  1  0  0  0  0
 43 42  1  0  0  0  0
 44 45  1  0  0  0  0
 44 46  2  0  0  0  0
 46 47  1  0  0  0  0
M  END
$$$$
