CSD_code = MUYLUO | q = 1 | S = 0 | Stoichiometry = C13H13ClN5Pt(1+) | MND = 4
 OpenBabel04212202073D

 33 37  0  0  0  0  0  0  0  0999 V2000
    1.9241    6.2589   20.7586 Pt  0  0  2  0  0  0  0  0  0  0  0  0
    1.6351    8.1966   19.6895 Cl  0  0  0  0  0  0  0  0  0  0  0  0
    2.4219    8.1153   23.2576 N   0  0  0  0  0  0  0  0  0  0  0  0
    2.3128    6.9682   22.6014 N   0  0  0  0  0  0  0  0  0  0  0  0
    2.1776    4.5801   21.6836 N   0  0  0  0  0  0  0  0  0  0  0  0
    1.6165    4.9997   19.2191 N   0  0  0  0  0  0  0  0  0  0  0  0
    1.3237    5.0119   17.9258 N   0  0  0  0  0  0  0  0  0  0  0  0
    2.2439    9.3865   22.6189 C   0  0  0  0  0  0  0  0  0  0  0  0
    2.9667    9.5058   21.8093 H   0  0  0  0  0  0  0  0  0  0  0  0
    2.3799   10.1792   23.3501 H   0  0  0  0  0  0  0  0  0  0  0  0
    1.2440    9.4540   22.1856 H   0  0  0  0  0  0  0  0  0  0  0  0
    2.7131    7.8925   24.5469 C   0  0  0  0  0  3  0  0  0  0  0  0
    2.8419    8.6937   25.2463 H   0  0  0  0  0  0  0  0  0  0  0  0
    2.7987    6.5291   24.7438 C   0  0  0  0  0  0  0  0  0  0  0  0
    3.0157    6.0174   25.6574 H   0  0  0  0  0  0  0  0  0  0  0  0
    2.5398    5.9693   23.4906 C   0  0  0  0  0  0  0  0  0  0  0  0
    2.4698    4.6083   22.9892 C   0  0  0  0  0  0  0  0  0  0  0  0
    2.6622    3.4167   23.6805 C   0  0  0  0  0  0  0  0  0  0  0  0
    2.8984    3.4256   24.7312 H   0  0  0  0  0  0  0  0  0  0  0  0
    2.5424    2.2225   22.9806 C   0  0  0  0  0  0  0  0  0  0  0  0
    2.6878    1.2861   23.4956 H   0  0  0  0  0  0  0  0  0  0  0  0
    2.2375    2.2203   21.6251 C   0  0  0  0  0  0  0  0  0  0  0  0
    2.1432    1.2982   21.0766 H   0  0  0  0  0  0  0  0  0  0  0  0
    2.0563    3.4434   20.9880 C   0  0  0  0  0  0  0  0  0  0  0  0
    1.7357    3.7020   19.5956 C   0  0  0  0  0  0  0  0  0  0  0  0
    1.5060    2.8858   18.4856 C   0  0  0  0  0  0  0  0  0  0  0  0
    1.5238    1.8174   18.4434 H   0  0  0  0  0  0  0  0  0  0  0  0
    1.2489    3.7611   17.4498 C   0  0  0  0  0  0  0  0  0  0  0  0
    1.0219    3.5571   16.4230 H   0  0  0  0  0  0  0  0  0  0  0  0
    1.1295    6.2283   17.1921 C   0  0  0  0  0  0  0  0  0  0  0  0
    2.0359    6.8364   17.2232 H   0  0  0  0  0  0  0  0  0  0  0  0
    0.3212    6.8118   17.6374 H   0  0  0  0  0  0  0  0  0  0  0  0
    0.8840    5.9909   16.1601 H   0  0  0  0  0  0  0  0  0  0  0  0
  1  2  1  6  0  0  0
  1  5  1  0  0  0  0
  1  4  1  0  0  0  0
  3 12  1  0  0  0  0
  4  3  1  0  0  0  0
  4 16  1  0  0  0  0
  5 17  1  0  0  0  0
  6 25  1  0  0  0  0
  6  1  1  0  0  0  0
  7  6  1  0  0  0  0
  8  3  1  0  0  0  0
  8 10  1  0  0  0  0
  9  8  1  0  0  0  0
 11  8  1  0  0  0  0
 12 14  1  0  0  0  0
 12 13  1  0  0  0  0
 14 15  1  0  0  0  0
 16 14  2  0  0  0  0
 17 16  1  0  0  0  0
 17 18  2  0  0  0  0
 18 19  1  0  0  0  0
 20 21  1  0  0  0  0
 20 18  1  0  0  0  0
 22 20  2  0  0  0  0
 23 22  1  0  0  0  0
 24 22  1  0  0  0  0
 24  5  1  0  0  0  0
 25 24  2  0  0  0  0
 26 25  1  0  0  0  0
 27 26  1  0  0  0  0
 28  7  1  0  0  0  0
 28 26  2  0  0  0  0
 29 28  1  0  0  0  0
 30 31  1  0  0  0  0
 30 32  1  0  0  0  0
 30  7  1  0  0  0  0
 33 30  1  0  0  0  0
M  END
$$$$
