CSD_code = MUYZIQ | q = 0 | S = 0 | Stoichiometry = C22H28Cl2N2Ti | MND = 4
 OpenBabel04212202073D

 55 58  0  0  1  0  0  0  0  0999 V2000
    0.8416    1.9653    2.6199 C   0  0  1  0  0  0  0  0  0  0  0  0
   -0.2528    1.9776    2.4978 H   0  0  0  0  0  0  0  0  0  0  0  0
    1.4927    1.1803    1.4858 C   0  0  0  0  0  0  0  0  0  0  0  0
    2.1772    1.8230    0.4642 C   0  0  0  0  0  0  0  0  0  0  0  0
    2.2118    2.9064    0.4402 H   0  0  0  0  0  0  0  0  0  0  0  0
    2.8135    1.0929   -0.5280 C   0  0  0  0  0  0  0  0  0  0  0  0
    3.3470    1.6065   -1.3136 H   0  0  0  0  0  0  0  0  0  0  0  0
    2.7754   -0.2902   -0.5000 C   0  0  0  0  0  0  0  0  0  0  0  0
    3.2815   -0.8629   -1.2630 H   0  0  0  0  0  0  0  0  0  0  0  0
    2.0967   -0.9412    0.5141 C   0  0  0  0  0  0  0  0  0  0  0  0
    2.0951   -2.0205    0.5483 H   0  0  0  0  0  0  0  0  0  0  0  0
    1.4471   -0.2201    1.5114 C   0  0  0  0  0  0  0  0  0  0  0  0
    0.7505   -0.8789    2.6206 C   0  0  0  0  0  0  0  0  0  0  0  0
    0.1803   -2.1425    2.5111 C   0  0  0  0  0  0  0  0  0  0  0  0
    0.2210   -2.6693    1.5699 H   0  0  0  0  0  0  0  0  0  0  0  0
   -0.4651   -2.7198    3.5903 C   0  0  0  0  0  0  0  0  0  0  0  0
   -0.9033   -3.7019    3.4927 H   0  0  0  0  0  0  0  0  0  0  0  0
   -0.5606   -2.0342    4.7887 C   0  0  0  0  0  0  0  0  0  0  0  0
   -1.0739   -2.4769    5.6291 H   0  0  0  0  0  0  0  0  0  0  0  0
   -0.0069   -0.7694    4.9049 C   0  0  0  0  0  0  0  0  0  0  0  0
   -0.0998   -0.2257    5.8349 H   0  0  0  0  0  0  0  0  0  0  0  0
    0.6589   -0.1900    3.8363 C   0  0  0  0  0  0  0  0  0  0  0  0
    1.2313    1.2027    3.9194 C   0  0  1  0  0  0  0  0  0  0  0  0
    0.7864    1.7236    4.7937 H   0  0  0  0  0  0  0  0  0  0  0  0
    0.6228    4.4815    2.5773 C   0  0  0  0  0  0  0  0  0  0  0  0
    1.6195    5.6395    2.3863 C   0  0  0  0  0  0  0  0  0  0  0  0
    2.2492    5.7506    3.2743 H   0  0  0  0  0  0  0  0  0  0  0  0
    1.0892    6.5753    2.2213 H   0  0  0  0  0  0  0  0  0  0  0  0
    2.2592    5.4412    1.5219 H   0  0  0  0  0  0  0  0  0  0  0  0
   -0.3232    4.4385    1.3650 C   0  0  0  0  0  0  0  0  0  0  0  0
    0.2342    4.2293    0.4549 H   0  0  0  0  0  0  0  0  0  0  0  0
   -0.8204    5.3992    1.2565 H   0  0  0  0  0  0  0  0  0  0  0  0
   -1.0881    3.6749    1.4835 H   0  0  0  0  0  0  0  0  0  0  0  0
   -0.1900    4.7048    3.8685 C   0  0  0  0  0  0  0  0  0  0  0  0
   -0.9262    3.9122    3.9940 H   0  0  0  0  0  0  0  0  0  0  0  0
   -0.7092    5.6596    3.8360 H   0  0  0  0  0  0  0  0  0  0  0  0
    0.4861    4.6935    4.7262 H   0  0  0  0  0  0  0  0  0  0  0  0
    3.5403    0.5729    4.8064 C   0  0  0  0  0  0  0  0  0  0  0  0
    4.9553    1.1569    4.6209 C   0  0  0  0  0  0  0  0  0  0  0  0
    5.2433    1.0931    3.5657 H   0  0  0  0  0  0  0  0  0  0  0  0
    5.6759    0.5934    5.2113 H   0  0  0  0  0  0  0  0  0  0  0  0
    4.9899    2.2033    4.9492 H   0  0  0  0  0  0  0  0  0  0  0  0
    3.1188    0.7206    6.2800 C   0  0  0  0  0  0  0  0  0  0  0  0
    3.0053    1.7786    6.5243 H   0  0  0  0  0  0  0  0  0  0  0  0
    3.8723    0.2852    6.9318 H   0  0  0  0  0  0  0  0  0  0  0  0
    2.1746    0.2125    6.4593 H   0  0  0  0  0  0  0  0  0  0  0  0
    3.5876   -0.9152    4.4112 C   0  0  0  0  0  0  0  0  0  0  0  0
    2.6597   -1.4209    4.6613 H   0  0  0  0  0  0  0  0  0  0  0  0
    4.4006   -1.4116    4.9360 H   0  0  0  0  0  0  0  0  0  0  0  0
    3.7541   -1.0013    3.3382 H   0  0  0  0  0  0  0  0  0  0  0  0
    3.2781    4.2602    5.2043 Cl  0  0  0  0  0  0  0  0  0  0  0  0
    4.7252    3.4819    2.0432 Cl  0  0  0  0  0  0  0  0  0  0  0  0
    1.4204    3.2828    2.7115 N   0  0  0  0  0  0  0  0  0  0  0  0
    2.6837    1.3468    3.9336 N   0  0  0  0  0  0  0  0  0  0  0  0
    3.0656    3.0389    3.4031 Ti  0  0  0  0  0  0  0  0  0  0  0  0
  1  2  1  6  0  0  0
  1 53  1  0  0  0  0
  1 23  1  0  0  0  0
  3 12  1  0  0  0  0
  3  1  1  0  0  0  0
  4  3  2  0  0  0  0
  5  4  1  0  0  0  0
  6  8  2  0  0  0  0
  6  4  1  0  0  0  0
  7  6  1  0  0  0  0
  8 10  1  0  0  0  0
  9  8  1  0  0  0  0
 10 11  1  0  0  0  0
 10 12  2  0  0  0  0
 12 13  1  0  0  0  0
 13 22  1  0  0  0  0
 14 13  2  0  0  0  0
 14 16  1  0  0  0  0
 15 14  1  0  0  0  0
 16 18  2  0  0  0  0
 17 16  1  0  0  0  0
 18 20  1  0  0  0  0
 18 19  1  0  0  0  0
 20 21  1  0  0  0  0
 22 23  1  0  0  0  0
 22 20  2  0  0  0  0
 23 54  1  0  0  0  0
 23 24  1  1  0  0  0
 25 53  1  0  0  0  0
 25 34  1  0  0  0  0
 26 25  1  0  0  0  0
 26 27  1  0  0  0  0
 28 26  1  0  0  0  0
 29 26  1  0  0  0  0
 30 33  1  0  0  0  0
 30 25  1  0  0  0  0
 31 30  1  0  0  0  0
 32 30  1  0  0  0  0
 34 35  1  0  0  0  0
 34 37  1  0  0  0  0
 36 34  1  0  0  0  0
 38 43  1  0  0  0  0
 39 38  1  0  0  0  0
 39 42  1  0  0  0  0
 39 41  1  0  0  0  0
 40 39  1  0  0  0  0
 43 46  1  0  0  0  0
 43 44  1  0  0  0  0
 43 45  1  0  0  0  0
 47 48  1  0  0  0  0
 47 38  1  0  0  0  0
 47 49  1  0  0  0  0
 50 47  1  0  0  0  0
 52 55  1  0  0  0  0
 53 55  1  0  0  0  0
 54 38  1  0  0  0  0
 55 54  1  0  0  0  0
 55 51  1  0  0  0  0
M  END
$$$$
