CSD_code = MUZHEU | q = 0 | S = 0 | Stoichiometry = C28H28Cl2O2P2Pt | MND = 4
 OpenBabel04212202073D

 63 67  0  0  1  0  0  0  0  0999 V2000
    0.0923    3.1386    3.1270 Pt  0  0  0  0  0  0  0  0  0  0  0  0
    1.5238    4.6436    2.1461 Cl  0  0  0  0  0  0  0  0  0  0  0  0
    1.7757    2.2530    4.4022 Cl  0  0  0  0  0  0  0  0  0  0  0  0
   -1.5563    4.0269    1.8338 P   0  0  0  0  0  4  0  0  0  0  0  0
   -1.3153    1.5486    3.9198 P   0  0  0  0  0  4  0  0  0  0  0  0
   -3.0688    3.4873    2.1335 O   0  0  0  0  0  0  0  0  0  0  0  0
   -2.6316    2.1273    4.6624 O   0  0  0  0  0  0  0  0  0  0  0  0
   -3.7643    3.7989    3.3220 C   0  0  0  0  0  0  0  0  0  0  0  0
   -4.6664    3.1792    3.3035 H   0  0  0  0  0  0  0  0  0  0  0  0
   -4.0501    4.8578    3.3201 H   0  0  0  0  0  0  0  0  0  0  0  0
   -2.9613    3.5063    4.5916 C   0  0  1  0  0  0  0  0  0  0  0  0
   -2.0257    4.0955    4.5387 H   0  0  0  0  0  0  0  0  0  0  0  0
   -3.7381    3.8847    5.8509 C   0  0  0  0  0  0  0  0  0  0  0  0
   -4.6183    3.2436    5.9231 H   0  0  0  0  0  0  0  0  0  0  0  0
   -4.0712    4.9190    5.7518 H   0  0  0  0  0  0  0  0  0  0  0  0
   -2.8837    3.7289    7.1029 C   0  0  0  0  0  0  0  0  0  0  0  0
   -2.5919    2.6898    7.2297 H   0  0  0  0  0  0  0  0  0  0  0  0
   -3.4422    4.0422    7.9807 H   0  0  0  0  0  0  0  0  0  0  0  0
   -1.9854    4.3372    7.0275 H   0  0  0  0  0  0  0  0  0  0  0  0
   -1.5187    3.6493    0.0657 C   0  0  0  0  0  0  0  0  0  0  0  0
   -0.4205    4.1046   -0.6579 C   0  0  0  0  0  0  0  0  0  0  0  0
    0.3503    4.6664   -0.1486 H   0  0  0  0  0  0  0  0  0  0  0  0
   -0.3218    3.8213   -2.0074 C   0  0  0  0  0  0  0  0  0  0  0  0
    0.5291    4.1749   -2.5701 H   0  0  0  0  0  0  0  0  0  0  0  0
   -1.3111    3.0804   -2.6354 C   0  0  0  0  0  0  0  0  0  0  0  0
   -1.2319    2.8576   -3.6894 H   0  0  0  0  0  0  0  0  0  0  0  0
   -2.3994    2.6209   -1.9120 C   0  0  0  0  0  0  0  0  0  0  0  0
   -3.1678    2.0394   -2.4005 H   0  0  0  0  0  0  0  0  0  0  0  0
   -2.5068    2.8999   -0.5612 C   0  0  0  0  0  0  0  0  0  0  0  0
   -3.3495    2.5394    0.0079 H   0  0  0  0  0  0  0  0  0  0  0  0
   -1.7684    5.8352    1.9054 C   0  0  0  0  0  0  0  0  0  0  0  0
   -2.6179    6.4690    1.0058 C   0  0  0  0  0  0  0  0  0  0  0  0
   -3.1119    5.8873    0.2391 H   0  0  0  0  0  0  0  0  0  0  0  0
   -2.8151    7.8346    1.0965 C   0  0  0  0  0  0  0  0  0  0  0  0
   -3.4687    8.3325    0.3954 H   0  0  0  0  0  0  0  0  0  0  0  0
   -2.1684    8.5649    2.0819 C   0  0  0  0  0  0  0  0  0  0  0  0
   -2.3194    9.6324    2.1449 H   0  0  0  0  0  0  0  0  0  0  0  0
   -1.3259    7.9318    2.9812 C   0  0  0  0  0  0  0  0  0  0  0  0
   -0.8200    8.5040    3.7442 H   0  0  0  0  0  0  0  0  0  0  0  0
   -1.1273    6.5650    2.8967 C   0  0  0  0  0  0  0  0  0  0  0  0
   -0.4520    6.0588    3.5766 H   0  0  0  0  0  0  0  0  0  0  0  0
   -1.9513    0.6484    2.4752 C   0  0  0  0  0  0  0  0  0  0  0  0
   -3.2241    0.0951    2.4341 C   0  0  0  0  0  0  0  0  0  0  0  0
   -3.8639    0.1725    3.3018 H   0  0  0  0  0  0  0  0  0  0  0  0
   -3.6566   -0.5420    1.2846 C   0  0  0  0  0  0  0  0  0  0  0  0
   -4.6485   -0.9688    1.2454 H   0  0  0  0  0  0  0  0  0  0  0  0
   -2.8192   -0.6347    0.1838 C   0  0  0  0  0  0  0  0  0  0  0  0
   -3.1620   -1.1323   -0.7114 H   0  0  0  0  0  0  0  0  0  0  0  0
   -1.5459   -0.0888    0.2255 C   0  0  0  0  0  0  0  0  0  0  0  0
   -0.8969   -0.1585   -0.6345 H   0  0  0  0  0  0  0  0  0  0  0  0
   -1.1142    0.5577    1.3690 C   0  0  0  0  0  0  0  0  0  0  0  0
   -0.1208    0.9984    1.4192 H   0  0  0  0  0  0  0  0  0  0  0  0
   -0.8501    0.2641    5.1060 C   0  0  0  0  0  0  0  0  0  0  0  0
   -0.8407   -1.0857    4.7824 C   0  0  0  0  0  0  0  0  0  0  0  0
   -1.1532   -1.4087    3.7992 H   0  0  0  0  0  0  0  0  0  0  0  0
   -0.4265   -2.0118    5.7241 C   0  0  0  0  0  0  0  0  0  0  0  0
   -0.4198   -3.0630    5.4756 H   0  0  0  0  0  0  0  0  0  0  0  0
   -0.0123   -1.5934    6.9776 C   0  0  0  0  0  0  0  0  0  0  0  0
    0.3169   -2.3199    7.7058 H   0  0  0  0  0  0  0  0  0  0  0  0
   -0.0049   -0.2438    7.2947 C   0  0  0  0  0  0  0  0  0  0  0  0
    0.3357    0.0821    8.2662 H   0  0  0  0  0  0  0  0  0  0  0  0
   -0.4166    0.6850    6.3588 C   0  0  0  0  0  0  0  0  0  0  0  0
   -0.3850    1.7428    6.5788 H   0  0  0  0  0  0  0  0  0  0  0  0
  1  5  1  0  0  0  0
  1  3  1  0  0  0  0
  2  1  1  0  0  0  0
  4 31  1  0  0  0  0
  4  6  1  0  0  0  0
  4  1  1  0  0  0  0
  5  7  1  0  0  0  0
  5 53  1  0  0  0  0
  6  8  1  0  0  0  0
  8 11  1  0  0  0  0
  9  8  1  0  0  0  0
 10  8  1  0  0  0  0
 11 12  1  6  0  0  0
 11  7  1  0  0  0  0
 11 13  1  0  0  0  0
 13 14  1  0  0  0  0
 13 16  1  0  0  0  0
 15 13  1  0  0  0  0
 16 17  1  0  0  0  0
 16 18  1  0  0  0  0
 19 16  1  0  0  0  0
 20  4  1  0  0  0  0
 21 22  1  0  0  0  0
 21 20  2  0  0  0  0
 23 21  1  0  0  0  0
 24 23  1  0  0  0  0
 25 23  2  0  0  0  0
 25 27  1  0  0  0  0
 26 25  1  0  0  0  0
 27 29  2  0  0  0  0
 28 27  1  0  0  0  0
 29 30  1  0  0  0  0
 29 20  1  0  0  0  0
 31 40  1  0  0  0  0
 32 34  1  0  0  0  0
 32 31  2  0  0  0  0
 33 32  1  0  0  0  0
 34 36  2  0  0  0  0
 35 34  1  0  0  0  0
 36 37  1  0  0  0  0
 36 38  1  0  0  0  0
 38 39  1  0  0  0  0
 40 38  2  0  0  0  0
 40 41  1  0  0  0  0
 42  5  1  0  0  0  0
 43 42  1  0  0  0  0
 43 44  1  0  0  0  0
 45 43  2  0  0  0  0
 46 45  1  0  0  0  0
 47 49  2  0  0  0  0
 47 45  1  0  0  0  0
 48 47  1  0  0  0  0
 49 51  1  0  0  0  0
 50 49  1  0  0  0  0
 51 52  1  0  0  0  0
 51 42  2  0  0  0  0
 53 62  1  0  0  0  0
 54 53  2  0  0  0  0
 54 56  1  0  0  0  0
 55 54  1  0  0  0  0
 56 58  2  0  0  0  0
 57 56  1  0  0  0  0
 58 60  1  0  0  0  0
 58 59  1  0  0  0  0
 60 61  1  0  0  0  0
 62 63  1  0  0  0  0
 62 60  2  0  0  0  0
M  END
$$$$
