CSD_code = NABYUM | q = 1 | S = 0 | Stoichiometry = C19H14ClN3O3Re(1+) | MND = 6
 OpenBabel04212202073D

 41 44  0  0  1  0  0  0  0  0999 V2000
    3.8716    6.0178    3.0029 Re  0  0  0  0  0  0  0  0  0  0  0  0
    5.8177    4.9429    3.8573 Cl  0  0  0  0  0  0  0  0  0  0  0  0
    4.1876    4.6010    0.2741 O   0  0  0  0  0  1  0  0  0  0  0  0
    1.1627    7.2838    2.2174 O   0  0  0  0  0  1  0  0  0  0  0  0
    5.7019    8.1888    1.7809 O   0  0  0  0  0  1  0  0  0  0  0  0
    3.8071    6.9043    4.9509 N   0  0  0  0  0  0  0  0  0  0  0  0
    2.9367    4.4935    4.2708 N   0  0  0  0  0  0  0  0  0  0  0  0
    3.7132    2.2217    2.0021 N   0  0  0  0  0  0  0  0  0  0  0  0
    4.0350    5.1123    1.2937 C   0  0  0  0  0  2  0  0  0  0  0  0
    2.1811    6.8442    2.4963 C   0  0  0  0  0  2  0  0  0  0  0  0
    4.9738    7.4146    2.1863 C   0  0  0  0  0  2  0  0  0  0  0  0
    4.2710    8.1188    5.2261 C   0  0  0  0  0  3  0  0  0  0  0  0
    4.5922    8.7178    4.3839 H   0  0  0  0  0  0  0  0  0  0  0  0
    4.3532    8.6251    6.5119 C   0  0  0  0  0  0  0  0  0  0  0  0
    4.7459    9.6148    6.6770 H   0  0  0  0  0  0  0  0  0  0  0  0
    3.9265    7.8313    7.5644 C   0  0  0  0  0  0  0  0  0  0  0  0
    3.9775    8.1839    8.5823 H   0  0  0  0  0  0  0  0  0  0  0  0
    3.4320    6.5702    7.2845 C   0  0  0  0  0  0  0  0  0  0  0  0
    3.0962    5.9423    8.0921 H   0  0  0  0  0  0  0  0  0  0  0  0
    3.3846    6.1274    5.9629 C   0  0  0  0  0  0  0  0  0  0  0  0
    2.8988    4.7930    5.5835 C   0  0  2  0  0  3  0  0  0  0  0  0
    2.4402    3.8707    6.5253 C   0  0  0  0  0  0  0  0  0  0  0  0
    2.4099    4.1244    7.5706 H   0  0  0  0  0  0  0  0  0  0  0  0
    2.0211    2.6203    6.1171 C   0  0  0  0  0  0  0  0  0  0  0  0
    1.6544    1.9006    6.8313 H   0  0  0  0  0  0  0  0  0  0  0  0
    2.0944    2.3069    4.7690 C   0  0  0  0  0  0  0  0  0  0  0  0
    1.7896    1.3393    4.4024 H   0  0  0  0  0  0  0  0  0  0  0  0
    2.5652    3.2706    3.8875 C   0  0  0  0  0  0  0  0  0  0  0  0
    2.6381    2.9121    2.4442 C   0  0  2  0  0  3  0  0  0  0  0  0
    1.5796    3.1871    1.5930 C   0  0  0  0  0  0  0  0  0  0  0  0
    0.7318    3.7358    1.9717 H   0  0  0  0  0  0  0  0  0  0  0  0
    1.6270    2.7677    0.2719 C   0  0  0  0  0  0  0  0  0  0  0  0
    0.8137    2.9846   -0.4012 H   0  0  0  0  0  0  0  0  0  0  0  0
    2.7451    2.0665   -0.1616 C   0  0  0  0  0  0  0  0  0  0  0  0
    2.8279    1.7241   -1.1800 H   0  0  0  0  0  0  0  0  0  0  0  0
    3.7697    1.8183    0.7247 C   0  0  0  0  0  0  0  0  0  0  0  0
    4.6598    1.2900    0.4183 H   0  0  0  0  0  0  0  0  0  0  0  0
    4.8267    1.9977    2.8811 C   0  0  0  0  0  0  0  0  0  0  0  0
    5.2652    2.9717    3.1945 H   0  0  0  0  0  0  0  0  0  0  0  0
    5.5960    1.4175    2.3789 H   0  0  0  0  0  0  0  0  0  0  0  0
    4.5132    1.4747    3.7837 H   0  0  0  0  0  0  0  0  0  0  0  0
  1  2  1  0  0  0  0
  1  7  1  0  0  0  0
  1  6  1  0  0  0  0
  3  9  1  0  0  0  0
  4 10  1  0  0  0  0
  5 11  1  0  0  0  0
  6 12  1  0  0  0  0
  6 20  1  0  0  0  0
  7 21  1  0  0  0  0
  8 29  1  0  0  0  0
  8 38  1  0  0  0  0
  9  1  1  0  0  0  0
 10  1  1  0  0  0  0
 11  1  1  0  0  0  0
 12 14  1  0  0  0  0
 13 12  1  0  0  0  0
 14 15  1  0  0  0  0
 14 16  2  0  0  0  0
 16 17  1  0  0  0  0
 18 16  1  0  0  0  0
 18 19  1  0  0  0  0
 20 18  2  0  0  0  0
 21 20  1  1  0  0  0
 21 22  1  0  0  0  0
 22 23  1  0  0  0  0
 24 22  2  0  0  0  0
 24 25  1  0  0  0  0
 26 24  1  0  0  0  0
 27 26  1  0  0  0  0
 28  7  1  0  0  0  0
 28 26  2  0  0  0  0
 29 28  1  1  0  0  0
 30 31  1  0  0  0  0
 30 29  1  0  0  0  0
 32 30  2  0  0  0  0
 33 32  1  0  0  0  0
 34 32  1  0  0  0  0
 34 36  2  0  0  0  0
 35 34  1  0  0  0  0
 36  8  1  0  0  0  0
 37 36  1  0  0  0  0
 38 39  1  0  0  0  0
 38 41  1  0  0  0  0
 40 38  1  0  0  0  0
M  END
$$$$
