CSD_code = NACHIJ | q = 0 | S = 0 | Stoichiometry = C26H29Cl2N5Zr | MND = 6
 OpenBabel04212202073D

 63 68  0  0  1  0  0  0  0  0999 V2000
    3.7713   17.8523    4.5335 C   0  0  2  0  0  3  0  0  0  0  0  0
    4.3374   15.6801    4.7174 C   0  0  0  0  0  0  0  0  0  0  0  0
    4.2710   14.6265    4.5396 H   0  0  0  0  0  0  0  0  0  0  0  0
    5.1851   16.3902    5.4981 C   0  0  0  0  0  0  0  0  0  0  0  0
    5.9916   16.0679    6.1239 H   0  0  0  0  0  0  0  0  0  0  0  0
    5.5407   18.7667    6.0402 C   0  0  0  0  0  0  0  0  0  0  0  0
    6.5677   18.8120    5.6552 H   0  0  0  0  0  0  0  0  0  0  0  0
    5.5742   18.5364    7.1113 H   0  0  0  0  0  0  0  0  0  0  0  0
    4.8471   20.1243    5.8573 C   0  0  0  0  0  0  0  0  0  0  0  0
    5.4461   20.8696    6.4013 H   0  0  0  0  0  0  0  0  0  0  0  0
    4.8629   20.3960    4.7814 H   0  0  0  0  0  0  0  0  0  0  0  0
    2.4502   16.2513    3.2049 C   0  0  0  0  0  0  0  0  0  0  0  0
    2.4810   15.1758    3.0130 H   0  0  0  0  0  0  0  0  0  0  0  0
    2.6333   16.7909    2.2690 H   0  0  0  0  0  0  0  0  0  0  0  0
    1.0558   16.6433    3.7649 C   0  0  0  0  0  0  0  0  0  0  0  0
    0.2925   16.2335    3.0857 H   0  0  0  0  0  0  0  0  0  0  0  0
    0.9373   16.1560    4.7449 H   0  0  0  0  0  0  0  0  0  0  0  0
    3.0751   21.0500    7.2030 C   0  0  0  0  0  0  0  0  0  0  0  0
    2.1401   20.7333    8.2137 C   0  0  0  0  0  0  0  0  0  0  0  0
    1.8838   19.6872    8.3722 H   0  0  0  0  0  0  0  0  0  0  0  0
    1.6097   21.7146    9.0170 C   0  0  0  0  0  0  0  0  0  0  0  0
    0.8976   21.4482    9.7847 H   0  0  0  0  0  0  0  0  0  0  0  0
    1.9846   23.0523    8.8717 C   0  0  0  0  0  0  0  0  0  0  0  0
    2.9296   23.3655    7.9091 C   0  0  0  0  0  0  0  0  0  0  0  0
    3.2522   24.3914    7.7906 H   0  0  0  0  0  0  0  0  0  0  0  0
    3.4707   22.3939    7.0835 C   0  0  0  0  0  0  0  0  0  0  0  0
    4.2036   22.6820    6.3407 H   0  0  0  0  0  0  0  0  0  0  0  0
    1.3809   24.1042    9.7530 C   0  0  0  0  0  0  0  0  0  0  0  0
    0.3026   24.1513    9.6012 H   0  0  0  0  0  0  0  0  0  0  0  0
    1.8050   25.0828    9.5392 H   0  0  0  0  0  0  0  0  0  0  0  0
    1.5573   23.8708   10.8028 H   0  0  0  0  0  0  0  0  0  0  0  0
    0.4559   18.7827    2.8412 C   0  0  0  0  0  0  0  0  0  0  0  0
   -0.1384   20.0470    3.0555 C   0  0  0  0  0  0  0  0  0  0  0  0
   -0.3600   20.3489    4.0720 H   0  0  0  0  0  0  0  0  0  0  0  0
   -0.5132   20.8564    2.0072 C   0  0  0  0  0  0  0  0  0  0  0  0
   -0.9625   21.8183    2.2158 H   0  0  0  0  0  0  0  0  0  0  0  0
   -0.3509   20.4541    0.6837 C   0  0  0  0  0  0  0  0  0  0  0  0
    0.1475   19.1801    0.4616 C   0  0  0  0  0  0  0  0  0  0  0  0
    0.2394   18.8160   -0.5533 H   0  0  0  0  0  0  0  0  0  0  0  0
    0.5345   18.3554    1.5017 C   0  0  0  0  0  0  0  0  0  0  0  0
    0.8889   17.3666    1.2512 H   0  0  0  0  0  0  0  0  0  0  0  0
   -0.7597   21.3476   -0.4498 C   0  0  0  0  0  0  0  0  0  0  0  0
   -0.4466   22.3739   -0.2637 H   0  0  0  0  0  0  0  0  0  0  0  0
   -1.8447   21.3458   -0.5632 H   0  0  0  0  0  0  0  0  0  0  0  0
   -0.3208   21.0110   -1.3866 H   0  0  0  0  0  0  0  0  0  0  0  0
    1.6675   22.0562    4.8753 C   0  0  0  0  0  3  0  0  0  0  0  0
    0.9531   21.9469    5.6865 H   0  0  0  0  0  0  0  0  0  0  0  0
    2.0010   23.3061    4.3816 C   0  0  0  0  0  0  0  0  0  0  0  0
    1.5789   24.1899    4.8325 H   0  0  0  0  0  0  0  0  0  0  0  0
    2.8751   23.3986    3.3097 C   0  0  0  0  0  0  0  0  0  0  0  0
    3.1524   24.3578    2.9003 H   0  0  0  0  0  0  0  0  0  0  0  0
    3.3719   22.2222    2.7614 C   0  0  0  0  0  0  0  0  0  0  0  0
    4.0390   22.2457    1.9138 H   0  0  0  0  0  0  0  0  0  0  0  0
    2.9867   21.0133    3.3096 C   0  0  0  0  0  0  0  0  0  0  0  0
    3.3209   20.0690    2.8871 H   0  0  0  0  0  0  0  0  0  0  0  0
    3.4946   16.5842    4.1359 N   0  0  0  0  0  0  0  0  0  0  0  0
    4.8296   17.7046    5.3692 N   0  0  0  0  0  0  0  0  0  0  0  0
    0.8751   18.0666    3.9376 N   0  0  0  0  0  0  0  0  0  0  0  0
    3.5136   20.0312    6.3950 N   0  0  0  0  0  0  0  0  0  0  0  0
    2.1518   20.9177    4.3551 N   0  0  0  0  0  0  0  0  0  0  0  0
   -0.1461   19.7049    6.4850 Cl  0  0  0  0  0  0  0  0  0  0  0  0
    2.0341   17.1591    6.9715 Cl  0  0  0  0  0  0  0  0  0  0  0  0
    1.8908   19.0182    5.4944 Zr  0  0  0  0  0  0  0  0  0  0  0  0
  1 56  1  1  0  0  0
  1 57  1  0  0  0  0
  1 63  1  0  0  0  0
  2  4  2  0  0  0  0
  3  2  1  0  0  0  0
  4  5  1  0  0  0  0
  6  8  1  0  0  0  0
  7  6  1  0  0  0  0
  9  6  1  0  0  0  0
  9 59  1  0  0  0  0
  9 10  1  0  0  0  0
 11  9  1  0  0  0  0
 12 15  1  0  0  0  0
 12 56  1  0  0  0  0
 13 12  1  0  0  0  0
 14 12  1  0  0  0  0
 15 58  1  0  0  0  0
 15 17  1  0  0  0  0
 16 15  1  0  0  0  0
 18 19  1  0  0  0  0
 19 20  1  0  0  0  0
 19 21  2  0  0  0  0
 21 22  1  0  0  0  0
 23 21  1  0  0  0  0
 23 28  1  0  0  0  0
 24 23  2  0  0  0  0
 25 24  1  0  0  0  0
 26 18  2  0  0  0  0
 26 24  1  0  0  0  0
 27 26  1  0  0  0  0
 28 31  1  0  0  0  0
 29 28  1  0  0  0  0
 30 28  1  0  0  0  0
 32 33  1  0  0  0  0
 32 58  1  0  0  0  0
 33 34  1  0  0  0  0
 35 36  1  0  0  0  0
 35 33  2  0  0  0  0
 37 35  1  0  0  0  0
 38 37  2  0  0  0  0
 38 40  1  0  0  0  0
 39 38  1  0  0  0  0
 40 32  2  0  0  0  0
 41 40  1  0  0  0  0
 42 43  1  0  0  0  0
 42 37  1  0  0  0  0
 44 42  1  0  0  0  0
 45 42  1  0  0  0  0
 46 47  1  0  0  0  0
 48 49  1  0  0  0  0
 48 46  1  0  0  0  0
 50 48  2  0  0  0  0
 51 50  1  0  0  0  0
 52 54  2  0  0  0  0
 52 50  1  0  0  0  0
 53 52  1  0  0  0  0
 54 60  1  0  0  0  0
 55 54  1  0  0  0  0
 56  2  1  0  0  0  0
 57  4  1  0  0  0  0
 57  6  1  0  0  0  0
 58 63  1  0  0  0  0
 59 18  1  0  0  0  0
 60 46  1  0  0  0  0
 60 63  1  0  0  0  0
 63 59  1  0  0  0  0
 63 61  1  0  0  0  0
 63 62  1  0  0  0  0
M  END
$$$$
