CSD_code = NACSUH | q = 0 | S = 0 | Stoichiometry = C26H22ClN5Ru | MND = 6
 OpenBabel04212202073D

 55 62  0  0  1  0  0  0  0  0999 V2000
    3.2795    3.4714    2.5842 Ru  0  0  0  0  0  0  0  0  0  0  0  0
    2.1990    3.4853    0.4752 Cl  0  0  0  0  0  0  0  0  0  0  0  0
    4.3622    1.9165    2.0024 N   0  0  0  0  0  0  0  0  0  0  0  0
    4.6348    4.4073    1.7261 N   0  0  0  0  0  0  0  0  0  0  0  0
    2.6075    5.3059    2.9262 N   0  0  0  0  0  0  0  0  0  0  0  0
    1.7633    2.4392    3.5094 N   0  0  0  0  0  0  0  0  0  0  0  0
    4.0039    3.3460    4.4711 N   0  0  0  0  0  0  0  0  0  0  0  0
    4.1527    0.6181    2.2185 C   0  0  0  0  0  3  0  0  0  0  0  0
    3.2864    0.3695    2.8208 H   0  0  0  0  0  0  0  0  0  0  0  0
    4.9682   -0.3741    1.7148 C   0  0  0  0  0  0  0  0  0  0  0  0
    4.7476   -1.4094    1.9187 H   0  0  0  0  0  0  0  0  0  0  0  0
    6.0677   -0.0147    0.9407 C   0  0  0  0  0  0  0  0  0  0  0  0
    6.7218   -0.7664    0.5273 H   0  0  0  0  0  0  0  0  0  0  0  0
    6.3001    1.3259    0.7109 C   0  0  0  0  0  0  0  0  0  0  0  0
    7.1414    1.6417    0.1149 H   0  0  0  0  0  0  0  0  0  0  0  0
    5.4382    2.2806    1.2496 C   0  0  0  0  0  0  0  0  0  0  0  0
    5.5871    3.7169    1.0680 C   0  0  1  0  0  3  0  0  0  0  0  0
    6.5408    4.3880    0.3084 C   0  0  0  0  0  0  0  0  0  0  0  0
    7.3052    3.8436   -0.2217 H   0  0  0  0  0  0  0  0  0  0  0  0
    6.4819    5.7722    0.2277 C   0  0  0  0  0  0  0  0  0  0  0  0
    7.2121    6.3099   -0.3566 H   0  0  0  0  0  0  0  0  0  0  0  0
    5.4661    6.4629    0.8739 C   0  0  0  0  0  0  0  0  0  0  0  0
    5.3931    7.5343    0.7827 H   0  0  0  0  0  0  0  0  0  0  0  0
    4.5357    5.7477    1.6217 C   0  0  0  0  0  0  0  0  0  0  0  0
    3.3784    6.2631    2.3378 C   0  0  1  0  0  3  0  0  0  0  0  0
    3.0523    7.6154    2.4356 C   0  0  0  0  0  0  0  0  0  0  0  0
    3.6771    8.3511    1.9549 H   0  0  0  0  0  0  0  0  0  0  0  0
    1.9317    8.0011    3.1423 C   0  0  0  0  0  0  0  0  0  0  0  0
    1.6631    9.0427    3.2245 H   0  0  0  0  0  0  0  0  0  0  0  0
    1.1561    7.0150    3.7448 C   0  0  0  0  0  0  0  0  0  0  0  0
    0.2725    7.2703    4.3073 H   0  0  0  0  0  0  0  0  0  0  0  0
    1.5308    5.6942    3.6091 C   0  0  0  0  0  0  0  0  0  0  0  0
    0.9437    4.9039    4.0627 H   0  0  0  0  0  0  0  0  0  0  0  0
    0.6517    2.0009    2.9232 C   0  0  0  0  0  3  0  0  0  0  0  0
    0.5593    2.2120    1.8644 H   0  0  0  0  0  0  0  0  0  0  0  0
   -0.3420    1.3196    3.5981 C   0  0  0  0  0  0  0  0  0  0  0  0
   -1.2229    0.9878    3.0733 H   0  0  0  0  0  0  0  0  0  0  0  0
   -0.1764    1.0783    4.9592 C   0  0  0  0  0  0  0  0  0  0  0  0
   -0.9333    0.5487    5.5190 H   0  0  0  0  0  0  0  0  0  0  0  0
    0.9681    1.5227    5.5801 C   0  0  0  0  0  0  0  0  0  0  0  0
    1.1268    1.3507    6.6300 H   0  0  0  0  0  0  0  0  0  0  0  0
    1.9446    2.2088    4.8398 C   0  0  0  0  0  0  0  0  0  0  0  0
    3.1707    2.7109    5.3640 C   0  0  0  0  0  0  0  0  0  0  0  0
    3.7751    2.7098    6.6336 C   0  0  0  0  0  0  0  0  0  0  0  0
    4.9933    3.3634    6.4688 C   0  0  0  0  0  0  0  0  0  0  0  0
    5.7257    3.5479    7.2321 H   0  0  0  0  0  0  0  0  0  0  0  0
    5.0985    3.7387    5.1301 C   0  0  0  0  0  0  0  0  0  0  0  0
    3.2614    2.1457    7.9150 C   0  0  0  0  0  0  0  0  0  0  0  0
    3.9833    2.3294    8.7076 H   0  0  0  0  0  0  0  0  0  0  0  0
    3.1065    1.0690    7.8375 H   0  0  0  0  0  0  0  0  0  0  0  0
    2.3167    2.6105    8.1990 H   0  0  0  0  0  0  0  0  0  0  0  0
    6.2281    4.4627    4.4764 C   0  0  0  0  0  0  0  0  0  0  0  0
    5.8950    5.4180    4.0662 H   0  0  0  0  0  0  0  0  0  0  0  0
    6.6519    3.8707    3.6629 H   0  0  0  0  0  0  0  0  0  0  0  0
    7.0101    4.6554    5.2066 H   0  0  0  0  0  0  0  0  0  0  0  0
  1  5  1  0  0  0  0
  1  6  1  0  0  0  0
  1  7  1  0  0  0  0
  2  1  1  0  0  0  0
  3  8  1  0  0  0  0
  3  1  1  0  0  0  0
  4  1  1  0  0  0  0
  5 32  1  0  0  0  0
  6 42  1  0  0  0  0
  7 47  1  0  0  0  0
  7 43  1  0  0  0  0
  8  9  1  0  0  0  0
 10 11  1  0  0  0  0
 10  8  1  0  0  0  0
 12 10  2  0  0  0  0
 13 12  1  0  0  0  0
 14 12  1  0  0  0  0
 14 16  2  0  0  0  0
 15 14  1  0  0  0  0
 16  3  1  0  0  0  0
 17 18  1  6  0  0  0
 17 16  1  0  0  0  0
 17  4  1  0  0  0  0
 19 18  1  0  0  0  0
 20 18  2  0  0  0  0
 20 22  1  0  0  0  0
 21 20  1  0  0  0  0
 22 24  2  0  0  0  0
 23 22  1  0  0  0  0
 24  4  1  0  0  0  0
 25 24  1  6  0  0  0
 25 26  1  0  0  0  0
 25  5  1  0  0  0  0
 26 28  2  0  0  0  0
 27 26  1  0  0  0  0
 28 29  1  0  0  0  0
 28 30  1  0  0  0  0
 30 31  1  0  0  0  0
 32 30  2  0  0  0  0
 32 33  1  0  0  0  0
 34  6  1  0  0  0  0
 34 36  1  0  0  0  0
 35 34  1  0  0  0  0
 36 38  2  0  0  0  0
 37 36  1  0  0  0  0
 38 39  1  0  0  0  0
 38 40  1  0  0  0  0
 40 41  1  0  0  0  0
 42 43  1  0  0  0  0
 42 40  2  0  0  0  0
 43 44  2  0  0  0  0
 44 48  1  0  0  0  0
 45 44  1  0  0  0  0
 45 46  1  0  0  0  0
 47 45  2  0  0  0  0
 48 51  1  0  0  0  0
 48 49  1  0  0  0  0
 50 48  1  0  0  0  0
 52 47  1  0  0  0  0
 52 55  1  0  0  0  0
 53 52  1  0  0  0  0
 54 52  1  0  0  0  0
M  END
$$$$
