CSD_code = NACYAR | q = 0 | S = 0 | Stoichiometry = C12H17Cl2MoO6P | MND = 6
 OpenBabel04212202073D

 39 40  0  0  1  0  0  0  0  0999 V2000
    0.4630   13.7446   12.3669 Mo  0  0  0  0  0  0  0  0  0  0  0  0
   -1.7300   13.2459   12.1534 Cl  0  0  0  0  0  0  0  0  0  0  0  0
    2.3640   14.2312   13.7444 Cl  0  0  0  0  0  0  0  0  0  0  0  0
    1.1421   12.5978   11.4177 O   0  0  0  0  0  1  0  0  0  0  0  0
    0.4809   15.1826   11.5837 O   0  0  0  0  0  1  0  0  0  0  0  0
    0.2319   12.4000   14.0842 O   0  0  0  0  0  0  0  0  0  0  0  0
   -0.0505   12.7591   15.4966 P   0  0  0  0  0  4  0  0  0  0  0  0
    0.5519   11.5547   16.3392 O   0  0  0  0  0  0  0  0  0  0  0  0
    0.2788   11.3450   17.7233 C   0  0  0  0  0  0  0  0  0  0  0  0
   -0.6839   11.7955   17.9838 H   0  0  0  0  0  0  0  0  0  0  0  0
    0.2076   10.2605   17.8412 H   0  0  0  0  0  0  0  0  0  0  0  0
    1.3906   11.8913   18.6031 C   0  0  0  0  0  0  0  0  0  0  0  0
    1.2409   11.5554   19.6258 H   0  0  0  0  0  0  0  0  0  0  0  0
    1.4045   12.9776   18.5899 H   0  0  0  0  0  0  0  0  0  0  0  0
    2.3499   11.5246   18.2488 H   0  0  0  0  0  0  0  0  0  0  0  0
   -1.5913   12.8570   15.8659 O   0  0  0  0  0  0  0  0  0  0  0  0
   -2.5032   11.9053   15.2694 C   0  0  0  0  0  0  0  0  0  0  0  0
   -2.7200   12.2312   14.2471 H   0  0  0  0  0  0  0  0  0  0  0  0
   -2.0208   10.9226   15.2346 H   0  0  0  0  0  0  0  0  0  0  0  0
   -3.7619   11.8736   16.1140 C   0  0  0  0  0  0  0  0  0  0  0  0
   -4.4777   11.1923   15.6644 H   0  0  0  0  0  0  0  0  0  0  0  0
   -4.1997   12.8666   16.1584 H   0  0  0  0  0  0  0  0  0  0  0  0
   -3.5424   11.5410   17.1260 H   0  0  0  0  0  0  0  0  0  0  0  0
    0.5808   14.3538   16.1671 C   0  0  0  0  0  0  0  0  0  0  0  0
   -0.0445   14.6419   17.0156 H   0  0  0  0  0  0  0  0  0  0  0  0
    1.6267   14.2851   16.4631 H   0  0  0  0  0  0  0  0  0  0  0  0
    0.3639   15.3198   15.0256 C   0  0  2  0  0  3  0  0  0  0  0  0
    0.9558   16.6525   15.0373 C   0  0  0  0  0  0  0  0  0  0  0  0
    1.5907   17.1793   16.1669 C   0  0  0  0  0  0  0  0  0  0  0  0
    1.6523   16.6041   17.0773 H   0  0  0  0  0  0  0  0  0  0  0  0
    2.1284   18.4499   16.1235 C   0  0  0  0  0  0  0  0  0  0  0  0
    2.6141   18.8572   16.9975 H   0  0  0  0  0  0  0  0  0  0  0  0
    2.0538   19.2025   14.9598 C   0  0  0  0  0  0  0  0  0  0  0  0
    2.4860   20.1916   14.9321 H   0  0  0  0  0  0  0  0  0  0  0  0
    1.4329   18.6846   13.8332 C   0  0  0  0  0  0  0  0  0  0  0  0
    1.3841   19.2659   12.9257 H   0  0  0  0  0  0  0  0  0  0  0  0
    0.8810   17.4199   13.8676 C   0  0  0  0  0  0  0  0  0  0  0  0
    0.4175   16.9896   12.9891 H   0  0  0  0  0  0  0  0  0  0  0  0
   -0.4488   14.9594   14.1652 O   0  0  0  0  0  0  0  0  0  0  0  0
  1  3  1  0  0  0  0
  1  6  1  0  0  0  0
  1 39  1  0  0  0  0
  2  1  1  0  0  0  0
  4  1  1  0  0  0  0
  5  1  1  0  0  0  0
  6  7  1  0  0  0  0
  7 16  1  0  0  0  0
  7 24  1  0  0  0  0
  7  8  1  0  0  0  0
  8  9  1  0  0  0  0
  9 11  1  0  0  0  0
  9 10  1  0  0  0  0
  9 12  1  0  0  0  0
 12 13  1  0  0  0  0
 14 12  1  0  0  0  0
 15 12  1  0  0  0  0
 17 16  1  0  0  0  0
 17 20  1  0  0  0  0
 18 17  1  0  0  0  0
 19 17  1  0  0  0  0
 20 22  1  0  0  0  0
 20 23  1  0  0  0  0
 21 20  1  0  0  0  0
 24 26  1  0  0  0  0
 24 25  1  0  0  0  0
 27 28  1  1  0  0  0
 27 24  1  0  0  0  0
 28 29  1  0  0  0  0
 29 30  1  0  0  0  0
 31 29  2  0  0  0  0
 31 32  1  0  0  0  0
 33 31  1  0  0  0  0
 34 33  1  0  0  0  0
 35 37  1  0  0  0  0
 35 33  2  0  0  0  0
 36 35  1  0  0  0  0
 37 28  2  0  0  0  0
 38 37  1  0  0  0  0
 39 27  1  0  0  0  0
M  END
$$$$
