CSD_code = NADBID | q = 0 | S = 0 | Stoichiometry = C14H19ClN2Pt | MND = 4
 OpenBabel04212202073D

 37 39  0  0  0  0  0  0  0  0999 V2000
    7.6581    3.9606    2.6348 Pt  0  0  0  0  0  0  0  0  0  0  0  0
    9.1145    5.8146    2.4685 Cl  0  0  0  0  0  0  0  0  0  0  0  0
    8.3130    2.9181    0.9425 N   0  0  0  0  0  4  0  0  0  0  0  0
    6.6388    4.5407    4.3677 N   0  0  0  0  0  4  0  0  0  0  0  0
    5.4506    2.4700    3.7175 C   0  0  0  0  0  0  0  0  0  0  0  0
    5.3662    3.7657    4.4907 C   0  0  0  0  0  0  0  0  0  0  0  0
    5.1315    3.6051    5.5506 H   0  0  0  0  0  0  0  0  0  0  0  0
    4.5595    4.3673    4.0587 H   0  0  0  0  0  0  0  0  0  0  0  0
    7.5560    4.1518    5.4438 C   0  0  0  0  0  0  0  0  0  0  0  0
    7.7110    3.0716    5.4216 H   0  0  0  0  0  0  0  0  0  0  0  0
    7.1495    4.4342    6.4232 H   0  0  0  0  0  0  0  0  0  0  0  0
    8.5145    4.6541    5.3009 H   0  0  0  0  0  0  0  0  0  0  0  0
    3.9150   -0.8230    3.0713 C   0  0  0  0  0  0  0  0  0  0  0  0
    6.3720    5.9761    4.4512 C   0  0  0  0  0  0  0  0  0  0  0  0
    5.7195    6.2782    3.6314 H   0  0  0  0  0  0  0  0  0  0  0  0
    7.3122    6.5193    4.3545 H   0  0  0  0  0  0  0  0  0  0  0  0
    5.9001    6.2363    5.4062 H   0  0  0  0  0  0  0  0  0  0  0  0
    7.6174    3.5940   -0.1575 C   0  0  0  0  0  0  0  0  0  0  0  0
    6.5384    3.4949   -0.0255 H   0  0  0  0  0  0  0  0  0  0  0  0
    7.9005    3.1579   -1.1238 H   0  0  0  0  0  0  0  0  0  0  0  0
    7.8825    4.6529   -0.1565 H   0  0  0  0  0  0  0  0  0  0  0  0
    4.6029    1.3830    3.8249 C   0  0  0  0  0  0  0  0  0  0  0  0
    3.8013    1.3596    4.5502 H   0  0  0  0  0  0  0  0  0  0  0  0
    6.6581    1.3611    1.9216 C   0  0  0  0  0  0  0  0  0  0  0  0
    9.7565    2.9850    0.7186 C   0  0  0  0  0  0  0  0  0  0  0  0
   10.2811    2.5165    1.5520 H   0  0  0  0  0  0  0  0  0  0  0  0
   10.0615    4.0304    0.6702 H   0  0  0  0  0  0  0  0  0  0  0  0
   10.0360    2.4827   -0.2152 H   0  0  0  0  0  0  0  0  0  0  0  0
    5.8061    0.2760    2.0125 C   0  0  0  0  0  0  0  0  0  0  0  0
    5.9156   -0.5856    1.3684 H   0  0  0  0  0  0  0  0  0  0  0  0
    4.7833    0.2906    2.9683 C   0  0  0  0  0  0  0  0  0  0  0  0
    6.4680    2.4438    2.7714 C   0  0  0  0  0  0  0  0  0  0  0  0
    3.1830   -1.7706    3.1597 C   0  0  0  0  0  0  0  0  0  0  0  0
    2.5413   -2.5968    3.2356 H   0  0  0  0  0  0  0  0  0  0  0  0
    7.8629    1.4947    1.0192 C   0  0  0  0  0  0  0  0  0  0  0  0
    7.6728    1.1115    0.0085 H   0  0  0  0  0  0  0  0  0  0  0  0
    8.6778    0.9042    1.4512 H   0  0  0  0  0  0  0  0  0  0  0  0
  1 32  1  0  0  0  0
  1  4  1  0  0  0  0
  2  1  1  0  0  0  0
  3 35  1  0  0  0  0
  3  1  1  0  0  0  0
  4 14  1  0  0  0  0
  4  6  1  0  0  0  0
  4  9  1  0  0  0  0
  5 22  1  0  0  0  0
  5  6  1  0  0  0  0
  6  7  1  0  0  0  0
  8  6  1  0  0  0  0
  9 11  1  0  0  0  0
 10  9  1  0  0  0  0
 12  9  1  0  0  0  0
 13 33  3  0  0  0  0
 14 17  1  0  0  0  0
 15 14  1  0  0  0  0
 16 14  1  0  0  0  0
 18 21  1  0  0  0  0
 18 19  1  0  0  0  0
 18  3  1  0  0  0  0
 20 18  1  0  0  0  0
 22 23  1  0  0  0  0
 24 29  2  0  0  0  0
 24 32  1  0  0  0  0
 25  3  1  0  0  0  0
 25 26  1  0  0  0  0
 27 25  1  0  0  0  0
 28 25  1  0  0  0  0
 29 31  1  0  0  0  0
 30 29  1  0  0  0  0
 31 13  1  0  0  0  0
 31 22  2  0  0  0  0
 32  5  2  0  0  0  0
 33 34  1  0  0  0  0
 35 37  1  0  0  0  0
 35 24  1  0  0  0  0
 36 35  1  0  0  0  0
M  END
$$$$
