CSD_code = NADMEM | q = 0 | S = 0 | Stoichiometry = C27H21Cl2PPd | MND = 5
 OpenBabel04212202073D

 52 54  0  0  1  0  0  0  0  0999 V2000
    7.1555    6.5082    3.4226 Pd  0  0  0  0  0  0  0  0  0  0  0  0
    7.5849    8.4000    2.2210 Cl  0  0  0  0  0 15  0  0  0  0  0  0
    5.0407    7.1270    3.8499 Cl  0  0  0  0  0 15  0  0  0  0  0  0
    6.5638    4.7571    4.6532 P   0  0  0  0  0  0  0  0  0  0  0  0
    7.9660    3.5176    4.5809 C   0  0  2  0  0  0  0  0  0  0  0  0
    7.6542    2.6178    5.1267 H   0  0  0  0  0  0  0  0  0  0  0  0
    9.1175    4.1573    5.2974 C   0  0  0  0  0  0  0  0  0  0  0  0
    9.6063    3.5526    6.4486 C   0  0  0  0  0  0  0  0  0  0  0  0
    9.2016    2.5978    6.7532 H   0  0  0  0  0  0  0  0  0  0  0  0
   10.5854    4.1516    7.2180 C   0  0  0  0  0  0  0  0  0  0  0  0
   10.9432    3.6639    8.1118 H   0  0  0  0  0  0  0  0  0  0  0  0
   11.0870    5.3873    6.8435 C   0  0  0  0  0  0  0  0  0  0  0  0
   11.8406    5.8734    7.4440 H   0  0  0  0  0  0  0  0  0  0  0  0
   10.6204    5.9955    5.6976 C   0  0  0  0  0  0  0  0  0  0  0  0
   11.0192    6.9551    5.4024 H   0  0  0  0  0  0  0  0  0  0  0  0
    9.6408    5.3979    4.8950 C   0  0  0  0  0  0  0  0  0  0  0  0
    9.2673    6.1000    3.6690 C   0  0  0  0  0  3  0  0  0  0  0  0
    9.7271    7.0874    3.5758 H   0  0  0  0  0  0  0  0  0  0  0  0
    8.8308    5.5302    2.4719 C   0  0  1  0  0  0  0  0  0  0  0  0
    9.0053    6.1298    1.5752 H   0  0  0  0  0  0  0  0  0  0  0  0
    8.5880    4.1171    2.1898 C   0  0  0  0  0  0  0  0  0  0  0  0
    8.7327    3.7020    0.8595 C   0  0  0  0  0  0  0  0  0  0  0  0
    9.0032    4.4356    0.1138 H   0  0  0  0  0  0  0  0  0  0  0  0
    8.5402    2.3890    0.4849 C   0  0  0  0  0  0  0  0  0  0  0  0
    8.6569    2.0997   -0.5483 H   0  0  0  0  0  0  0  0  0  0  0  0
    8.1921    1.4473    1.4394 C   0  0  0  0  0  0  0  0  0  0  0  0
    8.0317    0.4175    1.1593 H   0  0  0  0  0  0  0  0  0  0  0  0
    8.0358    1.8377    2.7560 C   0  0  0  0  0  0  0  0  0  0  0  0
    7.7485    1.1042    3.4963 H   0  0  0  0  0  0  0  0  0  0  0  0
    8.2250    3.1565    3.1507 C   0  0  0  0  0  0  0  0  0  0  0  0
    5.1482    3.8299    4.0170 C   0  0  0  0  0  0  0  0  0  0  0  0
    5.0171    3.8862    2.6287 C   0  0  0  0  0  0  0  0  0  0  0  0
    5.7075    4.5053    2.0500 H   0  0  0  0  0  0  0  0  0  0  0  0
    3.9969    3.1986    2.0025 C   0  0  0  0  0  0  0  0  0  0  0  0
    3.8940    3.2433    0.9288 H   0  0  0  0  0  0  0  0  0  0  0  0
    3.0945    2.4656    2.7589 C   0  0  0  0  0  0  0  0  0  0  0  0
    2.2909    1.9340    2.2717 H   0  0  0  0  0  0  0  0  0  0  0  0
    3.2057    2.4337    4.1387 C   0  0  0  0  0  0  0  0  0  0  0  0
    2.4857    1.8824    4.7255 H   0  0  0  0  0  0  0  0  0  0  0  0
    4.2311    3.1134    4.7744 C   0  0  0  0  0  0  0  0  0  0  0  0
    4.2985    3.1061    5.8518 H   0  0  0  0  0  0  0  0  0  0  0  0
    6.4878    5.0850    6.4312 C   0  0  0  0  0  0  0  0  0  0  0  0
    6.3093    4.1034    7.4012 C   0  0  0  0  0  0  0  0  0  0  0  0
    6.1258    3.0775    7.1143 H   0  0  0  0  0  0  0  0  0  0  0  0
    6.3827    4.4414    8.7402 C   0  0  0  0  0  0  0  0  0  0  0  0
    6.2374    3.6817    9.4942 H   0  0  0  0  0  0  0  0  0  0  0  0
    6.6506    5.7478    9.1164 C   0  0  0  0  0  0  0  0  0  0  0  0
    6.7074    6.0039   10.1637 H   0  0  0  0  0  0  0  0  0  0  0  0
    6.8545    6.7229    8.1533 C   0  0  0  0  0  0  0  0  0  0  0  0
    7.0750    7.7376    8.4482 H   0  0  0  0  0  0  0  0  0  0  0  0
    6.7780    6.3937    6.8128 C   0  0  0  0  0  0  0  0  0  0  0  0
    6.9398    7.1541    6.0428 H   0  0  0  0  0  0  0  0  0  0  0  0
  4 42  1  0  0  0  0
  5  4  1  0  0  0  0
  5  6  1  1  0  0  0
  5  7  1  0  0  0  0
  7  8  1  0  0  0  0
  8  9  1  0  0  0  0
  8 10  2  0  0  0  0
 10 11  1  0  0  0  0
 12 10  1  0  0  0  0
 12 13  1  0  0  0  0
 14 12  2  0  0  0  0
 15 14  1  0  0  0  0
 16  7  2  0  0  0  0
 16 14  1  0  0  0  0
 17 16  1  0  0  0  0
 18 17  1  0  0  0  0
 19 20  1  6  0  0  0
 19  1  1  0  0  0  0
 19 17  1  0  0  0  0
 21 19  1  0  0  0  0
 21 30  1  0  0  0  0
 22 21  2  0  0  0  0
 23 22  1  0  0  0  0
 24 22  1  0  0  0  0
 24 26  2  0  0  0  0
 25 24  1  0  0  0  0
 26 28  1  0  0  0  0
 27 26  1  0  0  0  0
 28 30  2  0  0  0  0
 28 29  1  0  0  0  0
 30  5  1  0  0  0  0
 31  4  1  0  0  0  0
 31 40  1  0  0  0  0
 32 31  2  0  0  0  0
 33 32  1  0  0  0  0
 34 32  1  0  0  0  0
 34 36  2  0  0  0  0
 35 34  1  0  0  0  0
 36 38  1  0  0  0  0
 37 36  1  0  0  0  0
 38 39  1  0  0  0  0
 38 40  2  0  0  0  0
 40 41  1  0  0  0  0
 42 51  2  0  0  0  0
 42 43  1  0  0  0  0
 43 45  2  0  0  0  0
 44 43  1  0  0  0  0
 45 47  1  0  0  0  0
 45 46  1  0  0  0  0
 47 48  1  0  0  0  0
 49 50  1  0  0  0  0
 49 47  2  0  0  0  0
 51 49  1  0  0  0  0
 52 51  1  0  0  0  0
M  END
$$$$
