CSD_code = NAFSIW | q = 0 | S = 0 | Stoichiometry = C17H29Cl2N2Ta | MND = 7
 OpenBabel04212202073D

 51 52  0  0  0  0  0  0  0  0999 V2000
    3.2335    3.2335    4.3477 Ta  0  0  0  0  0  0  0  0  0  0  0  0
    4.7062    1.4901    4.1527 Cl  0  0  0  0  0  0  0  0  0  0  0  0
    1.7879    3.0679    2.5920 Cl  0  0  0  0  0  0  0  0  0  0  0  0
    3.6448    2.5018    7.0372 N   0  0  0  0  0  4  0  0  0  0  0  0
    1.6269    1.0371    5.2415 N   0  0  0  0  0  0  0  0  0  0  0  0
    1.9460    4.3807    5.7567 C   0  0  0  0  0  0  0  0  0  0  0  0
    0.7934    5.0270    5.3123 C   0  0  0  0  0  0  0  0  0  0  0  0
   -0.0294    5.7464    6.1647 C   0  0  0  0  0  0  0  0  0  0  0  0
    0.2788    5.8367    7.5103 C   0  0  0  0  0  0  0  0  0  0  0  0
    1.4142    5.2048    7.9860 C   0  0  0  0  0  0  0  0  0  0  0  0
    2.2336    4.4925    7.1208 C   0  0  0  0  0  0  0  0  0  0  0  0
    3.4809    3.8251    7.6427 C   0  0  0  0  0  0  0  0  0  0  0  0
    4.9444    1.9412    7.3710 C   0  0  0  0  0  0  0  0  0  0  0  0
    2.5685    1.6104    7.4799 C   0  0  0  0  0  0  0  0  0  0  0  0
    2.2411    0.5179    6.4612 C   0  0  0  0  0  0  0  0  0  0  0  0
    0.2486    1.4540    5.4626 C   0  0  0  0  0  0  0  0  0  0  0  0
    1.6549    0.0172    4.2006 C   0  0  0  0  0  0  0  0  0  0  0  0
    4.1763    5.0027    4.0080 C   0  0  0  0  0  3  0  0  0  0  0  0
    5.5893    5.4975    4.0870 C   0  0  0  0  0  0  0  0  0  0  0  0
    5.6619    6.5894    5.1705 C   0  0  0  0  0  0  0  0  0  0  0  0
    5.9985    6.1088    2.7358 C   0  0  0  0  0  0  0  0  0  0  0  0
    6.5676    4.3743    4.4400 C   0  0  0  0  0  0  0  0  0  0  0  0
    0.5337    4.9725    4.2626 H   0  0  0  0  0  0  0  0  0  0  0  0
   -0.9122    6.2353    5.7778 H   0  0  0  0  0  0  0  0  0  0  0  0
   -0.3577    6.3914    8.1839 H   0  0  0  0  0  0  0  0  0  0  0  0
    1.6668    5.2698    9.0363 H   0  0  0  0  0  0  0  0  0  0  0  0
    4.3478    4.4274    7.3519 H   0  0  0  0  0  0  0  0  0  0  0  0
    3.4574    3.7586    8.7424 H   0  0  0  0  0  0  0  0  0  0  0  0
    5.7302    2.6047    7.0146 H   0  0  0  0  0  0  0  0  0  0  0  0
    5.0701    0.9799    6.8777 H   0  0  0  0  0  0  0  0  0  0  0  0
    5.0620    1.8035    8.4556 H   0  0  0  0  0  0  0  0  0  0  0  0
    2.8413    1.1289    8.4316 H   0  0  0  0  0  0  0  0  0  0  0  0
    1.6784    2.2163    7.6551 H   0  0  0  0  0  0  0  0  0  0  0  0
    3.5431    5.7991    3.6102 H   0  0  0  0  0  0  0  0  0  0  0  0
    1.5846   -0.2257    6.9449 H   0  0  0  0  0  0  0  0  0  0  0  0
    3.1675    0.0155    6.1744 H   0  0  0  0  0  0  0  0  0  0  0  0
    0.2051    2.2642    6.1870 H   0  0  0  0  0  0  0  0  0  0  0  0
   -0.3775    0.6218    5.8173 H   0  0  0  0  0  0  0  0  0  0  0  0
   -0.1610    1.8258    4.5246 H   0  0  0  0  0  0  0  0  0  0  0  0
    2.6853   -0.2690    3.9966 H   0  0  0  0  0  0  0  0  0  0  0  0
    1.2251    0.4275    3.2882 H   0  0  0  0  0  0  0  0  0  0  0  0
    1.0867   -0.8796    4.4864 H   0  0  0  0  0  0  0  0  0  0  0  0
    5.3609    6.1827    6.1332 H   0  0  0  0  0  0  0  0  0  0  0  0
    4.9931    7.4109    4.9271 H   0  0  0  0  0  0  0  0  0  0  0  0
    6.6756    6.9766    5.2529 H   0  0  0  0  0  0  0  0  0  0  0  0
    5.9126    5.3629    1.9490 H   0  0  0  0  0  0  0  0  0  0  0  0
    7.0276    6.4613    2.7719 H   0  0  0  0  0  0  0  0  0  0  0  0
    5.3534    6.9478    2.4859 H   0  0  0  0  0  0  0  0  0  0  0  0
    6.2844    3.9121    5.3846 H   0  0  0  0  0  0  0  0  0  0  0  0
    7.5802    4.7634    4.5305 H   0  0  0  0  0  0  0  0  0  0  0  0
    6.5605    3.6095    3.6662 H   0  0  0  0  0  0  0  0  0  0  0  0
  1  6  1  0  0  0  0
  1  4  1  0  0  0  0
  2  1  1  0  0  0  0
  3  1  1  0  0  0  0
  4 13  1  0  0  0  0
  4 14  1  0  0  0  0
  4 12  1  0  0  0  0
  5 16  1  0  0  0  0
  5 15  1  0  0  0  0
  6 11  1  0  0  0  0
  7  6  2  0  0  0  0
  7  8  1  0  0  0  0
  8  9  2  0  0  0  0
  9 10  1  0  0  0  0
  9 25  1  0  0  0  0
 10 26  1  0  0  0  0
 11 12  1  0  0  0  0
 11 10  2  0  0  0  0
 12 28  1  0  0  0  0
 13 31  1  0  0  0  0
 14 33  1  0  0  0  0
 14 32  1  0  0  0  0
 15 35  1  0  0  0  0
 15 14  1  0  0  0  0
 16 38  1  0  0  0  0
 16 37  1  0  0  0  0
 17 42  1  0  0  0  0
 17  5  1  0  0  0  0
 18 19  1  0  0  0  0
 18  1  1  0  0  0  0
 19 22  1  0  0  0  0
 19 20  1  0  0  0  0
 20 45  1  0  0  0  0
 20 43  1  0  0  0  0
 21 47  1  0  0  0  0
 21 19  1  0  0  0  0
 22 50  1  0  0  0  0
 22 49  1  0  0  0  0
 23  7  1  0  0  0  0
 24  8  1  0  0  0  0
 27 12  1  0  0  0  0
 29 13  1  0  0  0  0
 30 13  1  0  0  0  0
 34 18  1  0  0  0  0
 36 15  1  0  0  0  0
 39 16  1  0  0  0  0
 40 17  1  0  0  0  0
 41 17  1  0  0  0  0
 44 20  1  0  0  0  0
 46 21  1  0  0  0  0
 48 21  1  0  0  0  0
 51 22  1  0  0  0  0
M  END
$$$$
