CSD_code = NAGLUC | q = 0 | S = 0 | Stoichiometry = C22H24Cl2OSi2Zr | MND = 12
 OpenBabel04212202073D

 52 56  0  0  1  0  0  0  0  0999 V2000
    3.1336    1.1011    3.3655 Zr  0  0  0  0  0  0  0  0  0  0  0  0
    5.0861   -0.1872    3.2422 Cl  0  0  0  0  0  0  0  0  0  0  0  0
    4.2597    2.2948    5.0731 Cl  0  0  0  0  0  0  0  0  0  0  0  0
    2.0208   -0.1571   -1.2616 C   0  0  0  0  0  0  0  0  0  0  0  0
    2.2271    0.5301   -2.0738 H   0  0  0  0  0  0  0  0  0  0  0  0
    0.9919   -0.0077   -0.9534 H   0  0  0  0  0  0  0  0  0  0  0  0
    2.0992   -1.1644   -1.6569 H   0  0  0  0  0  0  0  0  0  0  0  0
    4.9466   -0.6745   -0.2519 C   0  0  0  0  0  0  0  0  0  0  0  0
    5.4606   -0.1006   -1.0153 H   0  0  0  0  0  0  0  0  0  0  0  0
    4.8322   -1.6873   -0.6251 H   0  0  0  0  0  0  0  0  0  0  0  0
    5.5792   -0.7135    0.6302 H   0  0  0  0  0  0  0  0  0  0  0  0
    0.5385   -2.5943    1.6126 C   0  0  0  0  0  0  0  0  0  0  0  0
    0.1039   -3.3886    2.2077 H   0  0  0  0  0  0  0  0  0  0  0  0
    0.7781   -3.0057    0.6380 H   0  0  0  0  0  0  0  0  0  0  0  0
   -0.2237   -1.8352    1.4706 H   0  0  0  0  0  0  0  0  0  0  0  0
    3.4572   -3.2209    2.5874 C   0  0  0  0  0  0  0  0  0  0  0  0
    3.2085   -3.9625    3.3388 H   0  0  0  0  0  0  0  0  0  0  0  0
    4.4124   -2.7738    2.8467 H   0  0  0  0  0  0  0  0  0  0  0  0
    3.5772   -3.7414    1.6420 H   0  0  0  0  0  0  0  0  0  0  0  0
    3.2593    0.0919    0.1648 Si  0  0  0  0  0  0  0  0  0  0  0  0
    2.6208   -0.5871    1.5515 O   0  0  0  0  0  0  0  0  0  0  0  0
    3.3357    1.7894    0.9574 C   0  0  2  0  0  3  0  0  0  0  0  0
    4.5001    2.4162    1.4767 C   0  0  0  0  0  0  0  0  0  0  0  0
    5.5101    2.1836    1.1609 H   0  0  0  0  0  0  0  0  0  0  0  0
    4.1549    3.4297    2.3691 C   0  0  0  0  0  0  0  0  0  0  0  0
    4.8366    4.1062    2.8632 H   0  0  0  0  0  0  0  0  0  0  0  0
    2.7371    3.4478    2.4853 C   0  0  1  0  0  3  0  0  0  0  0  0
    1.8462    4.2366    3.2390 C   0  0  0  0  0  0  0  0  0  0  0  0
    2.2319    4.9836    3.9200 H   0  0  0  0  0  0  0  0  0  0  0  0
    0.4940    4.0711    3.0591 C   0  0  0  0  0  0  0  0  0  0  0  0
   -0.2016    4.6810    3.6166 H   0  0  0  0  0  0  0  0  0  0  0  0
   -0.0132    3.1416    2.1324 C   0  0  0  0  0  0  0  0  0  0  0  0
   -1.0828    3.0764    1.9944 H   0  0  0  0  0  0  0  0  0  0  0  0
    0.8210    2.3294    1.4015 C   0  0  0  0  0  0  0  0  0  0  0  0
    0.4198    1.6420    0.6669 H   0  0  0  0  0  0  0  0  0  0  0  0
    2.2160    2.4407    1.5757 C   0  0  2  0  0  0  0  0  0  0  0  0
    2.1020   -1.8972    2.4513 Si  0  0  0  0  0  0  0  0  0  0  0  0
    1.7280   -0.7947    3.9257 C   0  0  2  0  0  0  0  0  0  0  0  0
    0.8467    0.3217    3.7867 C   0  0  0  0  0  0  0  0  0  0  0  0
    0.0782    0.3981    3.0253 H   0  0  0  0  0  0  0  0  0  0  0  0
    0.9895    1.1931    4.8791 C   0  0  0  0  0  0  0  0  0  0  0  0
    0.3645    2.0489    5.0992 H   0  0  0  0  0  0  0  0  0  0  0  0
    1.9271    0.6039    5.7762 C   0  0  0  0  0  0  0  0  0  0  0  0
    2.3754    0.9758    7.0545 C   0  0  0  0  0  0  0  0  0  0  0  0
    1.9824    1.8645    7.5279 H   0  0  0  0  0  0  0  0  0  0  0  0
    3.3213    0.2011    7.6768 C   0  0  0  0  0  0  0  0  0  0  0  0
    3.6782    0.4750    8.6581 H   0  0  0  0  0  0  0  0  0  0  0  0
    3.8503   -0.9434    7.0572 C   0  0  0  0  0  0  0  0  0  0  0  0
    4.6077   -1.5125    7.5754 H   0  0  0  0  0  0  0  0  0  0  0  0
    3.4184   -1.3542    5.8199 C   0  0  0  0  0  0  0  0  0  0  0  0
    3.8101   -2.2538    5.3641 H   0  0  0  0  0  0  0  0  0  0  0  0
    2.4306   -0.5986    5.1605 C   0  0  0  0  0  0  0  0  0  0  0  0
  1 38  1  0  0  0  0
  1  3  1  0  0  0  0
  2  1  1  0  0  0  0
  4  6  1  0  0  0  0
  4 20  1  0  0  0  0
  5  4  1  0  0  0  0
  7  4  1  0  0  0  0
  8 20  1  0  0  0  0
  8 11  1  0  0  0  0
  9  8  1  0  0  0  0
 10  8  1  0  0  0  0
 12 13  1  0  0  0  0
 12 37  1  0  0  0  0
 14 12  1  0  0  0  0
 15 12  1  0  0  0  0
 16 18  1  0  0  0  0
 16 17  1  0  0  0  0
 19 16  1  0  0  0  0
 20 22  1  0  0  0  0
 20 21  1  0  0  0  0
 21 37  1  0  0  0  0
 22 23  1  1  0  0  0
 22 36  1  0  0  0  0
 23 25  2  0  0  0  0
 24 23  1  0  0  0  0
 25 26  1  0  0  0  0
 27 25  1  6  0  0  0
 27 28  1  0  0  0  0
 28 29  1  0  0  0  0
 30 28  2  0  0  0  0
 30 31  1  0  0  0  0
 32 30  1  0  0  0  0
 33 32  1  0  0  0  0
 34 32  2  0  0  0  0
 35 34  1  0  0  0  0
 36 34  1  6  0  0  0
 36 27  1  0  0  0  0
 36  1  1  0  0  0  0
 37 16  1  0  0  0  0
 37 38  1  0  0  0  0
 38 39  1  1  0  0  0
 38 52  1  0  0  0  0
 39 41  2  0  0  0  0
 40 39  1  0  0  0  0
 41 42  1  0  0  0  0
 41 43  1  0  0  0  0
 43 44  1  0  0  0  0
 44 45  1  0  0  0  0
 44 46  2  0  0  0  0
 46 47  1  0  0  0  0
 48 49  1  0  0  0  0
 48 46  1  0  0  0  0
 50 48  2  0  0  0  0
 51 50  1  0  0  0  0
 52 43  2  0  0  0  0
 52 50  1  0  0  0  0
M  END
$$$$
