CSD_code = NAGMIT | q = 1 | S = 0 | Stoichiometry = C8H20F4NbO4(1+) | MND = 8
 OpenBabel04212202073D

 37 34  0  0  0  0  0  0  0  0999 V2000
    4.9247    9.4776    8.2508 Nb  0  0  0  0  0  0  0  0  0  0  0  0
    5.0143   10.6165    6.8392 F   0  0  0  0  0  0  0  0  0  0  0  0
    4.9468   10.7052    9.5958 F   0  0  0  0  0  0  0  0  0  0  0  0
    5.8543    8.1414    9.1191 F   0  0  0  0  0  0  0  0  0  0  0  0
    3.8403    8.2793    7.3739 F   0  0  0  0  0  0  0  0  0  0  0  0
    7.1617   10.3676    8.3298 O   0  0  0  0  0  0  0  0  0  0  0  0
    6.4170    8.3597    6.5303 O   0  0  0  0  0  0  0  0  0  0  0  0
    3.4593    8.6122   10.0065 O   0  0  0  0  0  0  0  0  0  0  0  0
    2.6613   10.5537    8.1418 O   0  0  0  0  0  0  0  0  0  0  0  0
    7.8987   10.1430    9.5280 C   0  0  0  0  0  0  0  0  0  0  0  0
    8.1723    9.0897    9.6509 H   0  0  0  0  0  0  0  0  0  0  0  0
    7.2506   10.4445   10.3531 H   0  0  0  0  0  0  0  0  0  0  0  0
    8.7991   10.7652    9.5260 H   0  0  0  0  0  0  0  0  0  0  0  0
    7.8854   10.1217    7.1360 C   0  0  0  0  0  0  0  0  0  0  0  0
    8.9307   10.4283    7.2543 H   0  0  0  0  0  0  0  0  0  0  0  0
    7.4021   10.7276    6.3594 H   0  0  0  0  0  0  0  0  0  0  0  0
    7.7907    8.6475    6.7452 C   0  0  0  0  0  0  0  0  0  0  0  0
    8.3530    8.4655    5.8193 H   0  0  0  0  0  0  0  0  0  0  0  0
    8.1867    8.0041    7.5467 H   0  0  0  0  0  0  0  0  0  0  0  0
    6.1905    6.9766    6.2893 C   0  0  0  0  0  0  0  0  0  0  0  0
    6.8231    6.6374    5.4630 H   0  0  0  0  0  0  0  0  0  0  0  0
    5.1430    6.8677    6.0105 H   0  0  0  0  0  0  0  0  0  0  0  0
    6.4024    6.3826    7.1868 H   0  0  0  0  0  0  0  0  0  0  0  0
    3.1033    7.2337    9.9529 C   0  0  0  0  0  0  0  0  0  0  0  0
    2.6155    6.9454   10.8892 H   0  0  0  0  0  0  0  0  0  0  0  0
    4.0349    6.6763    9.8432 H   0  0  0  0  0  0  0  0  0  0  0  0
    2.4462    7.0107    9.1059 H   0  0  0  0  0  0  0  0  0  0  0  0
    2.3693    9.4892   10.2411 C   0  0  0  0  0  0  0  0  0  0  0  0
    1.6526    9.0288   10.9303 H   0  0  0  0  0  0  0  0  0  0  0  0
    2.7989   10.3914   10.6937 H   0  0  0  0  0  0  0  0  0  0  0  0
    1.6939    9.8709    8.9251 C   0  0  0  0  0  0  0  0  0  0  0  0
    0.8421   10.5372    9.1180 H   0  0  0  0  0  0  0  0  0  0  0  0
    1.3437    8.9741    8.3896 H   0  0  0  0  0  0  0  0  0  0  0  0
    2.1791   10.8543    6.8371 C   0  0  0  0  0  0  0  0  0  0  0  0
    2.0638    9.9394    6.2426 H   0  0  0  0  0  0  0  0  0  0  0  0
    2.9118   11.5101    6.3677 H   0  0  0  0  0  0  0  0  0  0  0  0
    1.2195   11.3756    6.9098 H   0  0  0  0  0  0  0  0  0  0  0  0
  1  4  1  0  0  0  0
  1  3  1  0  0  0  0
  2  1  1  0  0  0  0
  5  1  1  0  0  0  0
  6 10  1  0  0  0  0
  7 17  1  0  0  0  0
  8 28  1  0  0  0  0
  9 31  1  0  0  0  0
 10 11  1  0  0  0  0
 10 12  1  0  0  0  0
 13 10  1  0  0  0  0
 14 15  1  0  0  0  0
 14  6  1  0  0  0  0
 16 14  1  0  0  0  0
 17 14  1  0  0  0  0
 17 19  1  0  0  0  0
 18 17  1  0  0  0  0
 20  7  1  0  0  0  0
 20 23  1  0  0  0  0
 21 20  1  0  0  0  0
 22 20  1  0  0  0  0
 24  8  1  0  0  0  0
 24 25  1  0  0  0  0
 26 24  1  0  0  0  0
 27 24  1  0  0  0  0
 28 30  1  0  0  0  0
 28 29  1  0  0  0  0
 31 32  1  0  0  0  0
 31 28  1  0  0  0  0
 33 31  1  0  0  0  0
 34 37  1  0  0  0  0
 34  9  1  0  0  0  0
 35 34  1  0  0  0  0
 36 34  1  0  0  0  0
M  END
$$$$
