CSD_code = NAGNOZ | q = 0 | S = 0 | Stoichiometry = C28H31Cl3N4PRe | MND = 6
 OpenBabel04212202073D

 68 72  0  0  1  0  0  0  0  0999 V2000
    4.6573   -4.8924   -3.4900 Re  0  0  0  0  0  0  0  0  0  0  0  0
    4.7998   -6.2156   -1.5659 Cl  0  0  0  0  0  0  0  0  0  0  0  0
    6.9392   -5.1235   -3.9338 Cl  0  0  0  0  0  0  0  0  0  0  0  0
    4.3705   -3.5901   -5.4768 Cl  0  0  0  0  0  0  0  0  0  0  0  0
    4.9870   -2.9807   -2.1215 P   0  0  0  0  0  4  0  0  0  0  0  0
    3.4041   -2.2290   -1.6371 C   0  0  0  0  0  0  0  0  0  0  0  0
    2.9371   -1.0385   -2.1803 C   0  0  0  0  0  0  0  0  0  0  0  0
    3.5631   -0.4746   -2.8572 H   0  0  0  0  0  0  0  0  0  0  0  0
    1.6734   -0.5781   -1.8512 C   0  0  0  0  0  0  0  0  0  0  0  0
    1.3202    0.3567   -2.2632 H   0  0  0  0  0  0  0  0  0  0  0  0
    0.8634   -1.3101   -0.9990 C   0  0  0  0  0  0  0  0  0  0  0  0
   -0.1226   -0.9482   -0.7466 H   0  0  0  0  0  0  0  0  0  0  0  0
    1.3143   -2.5127   -0.4764 C   0  0  0  0  0  0  0  0  0  0  0  0
    0.6783   -3.0905    0.1778 H   0  0  0  0  0  0  0  0  0  0  0  0
    2.5766   -2.9723   -0.7964 C   0  0  0  0  0  0  0  0  0  0  0  0
    2.9385   -3.9139   -0.4041 H   0  0  0  0  0  0  0  0  0  0  0  0
    5.8299   -3.2695   -0.5299 C   0  0  0  0  0  0  0  0  0  0  0  0
    7.0044   -4.0156   -0.5692 C   0  0  0  0  0  0  0  0  0  0  0  0
    7.3394   -4.4303   -1.5105 H   0  0  0  0  0  0  0  0  0  0  0  0
    7.7271   -4.2377    0.5872 C   0  0  0  0  0  0  0  0  0  0  0  0
    8.6328   -4.8249    0.5508 H   0  0  0  0  0  0  0  0  0  0  0  0
    7.2869   -3.7117    1.7908 C   0  0  0  0  0  0  0  0  0  0  0  0
    7.8480   -3.8880    2.6969 H   0  0  0  0  0  0  0  0  0  0  0  0
    6.1247   -2.9607    1.8323 C   0  0  0  0  0  0  0  0  0  0  0  0
    5.7801   -2.5478    2.7697 H   0  0  0  0  0  0  0  0  0  0  0  0
    5.3963   -2.7352    0.6774 C   0  0  0  0  0  0  0  0  0  0  0  0
    4.4874   -2.1515    0.7235 H   0  0  0  0  0  0  0  0  0  0  0  0
    5.9825   -1.5649   -2.6921 C   0  0  0  0  0  0  0  0  0  0  0  0
    6.0933   -0.4440   -1.8712 C   0  0  0  0  0  0  0  0  0  0  0  0
    5.5671   -0.4169   -0.9266 H   0  0  0  0  0  0  0  0  0  0  0  0
    6.8721    0.6265   -2.2632 C   0  0  0  0  0  0  0  0  0  0  0  0
    6.9524    1.4953   -1.6256 H   0  0  0  0  0  0  0  0  0  0  0  0
    7.5544    0.5851   -3.4702 C   0  0  0  0  0  0  0  0  0  0  0  0
    8.1644    1.4237   -3.7728 H   0  0  0  0  0  0  0  0  0  0  0  0
    7.4578   -0.5315   -4.2812 C   0  0  0  0  0  0  0  0  0  0  0  0
    7.9934   -0.5695   -5.2182 H   0  0  0  0  0  0  0  0  0  0  0  0
    6.6755   -1.6063   -3.8938 C   0  0  0  0  0  0  0  0  0  0  0  0
    6.6070   -2.4778   -4.5266 H   0  0  0  0  0  0  0  0  0  0  0  0
    2.4742   -4.6962   -3.3217 N   0  0  0  0  0  0  0  0  0  0  0  0
    1.9090   -3.6268   -3.9003 N   0  0  0  0  0  0  0  0  0  0  0  0
    2.4986   -3.0444   -4.4975 H   0  0  0  0  0  0  0  0  0  0  0  0
    0.5763   -3.6162   -3.7388 C   0  0  1  0  0  3  0  0  0  0  0  0
    0.2726   -4.7354   -2.9919 C   0  0  0  0  0  0  0  0  0  0  0  0
   -0.6948   -5.0524   -2.6609 H   0  0  0  0  0  0  0  0  0  0  0  0
    1.4896   -5.3915   -2.7568 C   0  0  0  0  0  0  0  0  0  0  0  0
   -0.2808   -2.5474   -4.3055 C   0  0  0  0  0  0  0  0  0  0  0  0
   -0.0403   -1.5908   -3.8433 H   0  0  0  0  0  0  0  0  0  0  0  0
   -1.3274   -2.7730   -4.1248 H   0  0  0  0  0  0  0  0  0  0  0  0
   -0.1156   -2.4568   -5.3778 H   0  0  0  0  0  0  0  0  0  0  0  0
    1.6845   -6.6657   -2.0225 C   0  0  0  0  0  0  0  0  0  0  0  0
    2.3779   -7.3109   -2.5576 H   0  0  0  0  0  0  0  0  0  0  0  0
    0.7311   -7.1734   -1.9014 H   0  0  0  0  0  0  0  0  0  0  0  0
    2.1134   -6.4792   -1.0391 H   0  0  0  0  0  0  0  0  0  0  0  0
    4.4386   -6.7082   -4.5856 N   0  0  0  0  0  0  0  0  0  0  0  0
    5.3374   -7.6625   -4.3230 N   0  0  0  0  0  0  0  0  0  0  0  0
    6.1131   -7.4555   -3.7041 H   0  0  0  0  0  0  0  0  0  0  0  0
    5.0988   -8.7857   -5.0184 C   0  0  1  0  0  3  0  0  0  0  0  0
    3.9669   -8.5345   -5.7667 C   0  0  0  0  0  0  0  0  0  0  0  0
    3.4763   -9.2009   -6.4458 H   0  0  0  0  0  0  0  0  0  0  0  0
    3.5853   -7.2186   -5.4675 C   0  0  0  0  0  0  0  0  0  0  0  0
    5.9640   -9.9856   -4.9088 C   0  0  0  0  0  0  0  0  0  0  0  0
    6.9757   -9.7549   -5.2410 H   0  0  0  0  0  0  0  0  0  0  0  0
    5.5675  -10.7887   -5.5229 H   0  0  0  0  0  0  0  0  0  0  0  0
    6.0169  -10.3228   -3.8744 H   0  0  0  0  0  0  0  0  0  0  0  0
    2.4278   -6.4715   -6.0262 C   0  0  0  0  0  0  0  0  0  0  0  0
    1.5682   -6.5394   -5.3592 H   0  0  0  0  0  0  0  0  0  0  0  0
    2.1510   -6.8912   -6.9899 H   0  0  0  0  0  0  0  0  0  0  0  0
    2.6864   -5.4222   -6.1520 H   0  0  0  0  0  0  0  0  0  0  0  0
  1 39  1  0  0  0  0
  1  5  1  0  0  0  0
  1  2  1  0  0  0  0
  3  1  1  0  0  0  0
  4  1  1  0  0  0  0
  5  6  1  0  0  0  0
  5 17  1  0  0  0  0
  6 15  1  0  0  0  0
  7  9  1  0  0  0  0
  7  6  2  0  0  0  0
  8  7  1  0  0  0  0
  9 11  2  0  0  0  0
 10  9  1  0  0  0  0
 11 12  1  0  0  0  0
 11 13  1  0  0  0  0
 13 14  1  0  0  0  0
 15 13  2  0  0  0  0
 15 16  1  0  0  0  0
 17 26  1  0  0  0  0
 18 17  2  0  0  0  0
 18 20  1  0  0  0  0
 19 18  1  0  0  0  0
 20 22  2  0  0  0  0
 21 20  1  0  0  0  0
 22 24  1  0  0  0  0
 22 23  1  0  0  0  0
 24 25  1  0  0  0  0
 26 27  1  0  0  0  0
 26 24  2  0  0  0  0
 28  5  1  0  0  0  0
 28 29  1  0  0  0  0
 29 30  1  0  0  0  0
 31 29  2  0  0  0  0
 31 32  1  0  0  0  0
 33 31  1  0  0  0  0
 34 33  1  0  0  0  0
 35 37  1  0  0  0  0
 35 33  2  0  0  0  0
 36 35  1  0  0  0  0
 37 28  2  0  0  0  0
 38 37  1  0  0  0  0
 39 45  1  0  0  0  0
 40 42  1  0  0  0  0
 40 39  1  0  0  0  0
 41 40  1  0  0  0  0
 42 46  1  1  0  0  0
 42 43  1  0  0  0  0
 43 45  2  0  0  0  0
 43 44  1  0  0  0  0
 45 50  1  0  0  0  0
 46 48  1  0  0  0  0
 46 47  1  0  0  0  0
 49 46  1  0  0  0  0
 50 52  1  0  0  0  0
 50 53  1  0  0  0  0
 51 50  1  0  0  0  0
 54 55  1  0  0  0  0
 54  1  1  0  0  0  0
 55 56  1  0  0  0  0
 57 61  1  6  0  0  0
 57 55  1  0  0  0  0
 58 60  2  0  0  0  0
 58 57  1  0  0  0  0
 59 58  1  0  0  0  0
 60 54  1  0  0  0  0
 61 64  1  0  0  0  0
 62 61  1  0  0  0  0
 63 61  1  0  0  0  0
 65 60  1  0  0  0  0
 65 66  1  0  0  0  0
 67 65  1  0  0  0  0
 68 65  1  0  0  0  0
M  END
$$$$
