CSD_code = NAGTAR | q = 0 | S = 0 | Stoichiometry = C10H26ClP2Rh | MND = 7
 OpenBabel04212202073D

 40 35  0  0  0  0  0  0  0  0999 V2000
    3.5870    2.4873    3.7642 Rh  0  0  0  0  0  0  0  0  0  0  0  0
    5.2879    2.0311    2.2696 Cl  0  0  0  0  0 15  0  0  0  0  0  0
    4.9602    4.4459    4.0713 P   0  0  0  0  0  0  0  0  0  0  0  0
    1.9179    2.9810    5.2378 P   0  0  0  0  0  0  0  0  0  0  0  0
    6.7118    4.0978    4.4923 C   0  0  0  0  0  0  0  0  0  0  0  0
    5.2009    5.4151    2.5322 C   0  0  0  0  0  0  0  0  0  0  0  0
    4.6816    5.8511    5.2432 C   0  0  0  0  0  0  0  0  0  0  0  0
    2.3690    3.1757    7.0112 C   0  0  0  0  0  0  0  0  0  0  0  0
    0.9760    4.5418    4.9828 C   0  0  0  0  0  0  0  0  0  0  0  0
    0.4888    1.8386    5.4447 C   0  0  0  0  0  0  0  0  0  0  0  0
    2.4548    3.2116    2.0364 C   0  0  0  0  0  0  0  0  0  0  0  0
    2.1847    1.8526    2.1939 C   0  0  0  0  0  3  0  0  0  0  0  0
    3.8447    0.4254    4.5667 C   0  0  0  0  0  3  0  0  0  0  0  0
    4.7377    1.2643    5.2179 C   0  0  0  0  0  3  0  0  0  0  0  0
    6.7699    3.6838    5.4978 H   0  0  0  0  0  0  0  0  0  0  0  0
    7.0951    3.3680    3.7828 H   0  0  0  0  0  0  0  0  0  0  0  0
    7.3011    5.0128    4.4379 H   0  0  0  0  0  0  0  0  0  0  0  0
    5.9423    6.1982    2.6885 H   0  0  0  0  0  0  0  0  0  0  0  0
    5.5394    4.7347    1.7537 H   0  0  0  0  0  0  0  0  0  0  0  0
    4.2540    5.8599    2.2298 H   0  0  0  0  0  0  0  0  0  0  0  0
    4.6784    5.4838    6.2674 H   0  0  0  0  0  0  0  0  0  0  0  0
    5.4737    6.5906    5.1350 H   0  0  0  0  0  0  0  0  0  0  0  0
    3.7244    6.3263    5.0393 H   0  0  0  0  0  0  0  0  0  0  0  0
    2.6794    2.2120    7.4102 H   0  0  0  0  0  0  0  0  0  0  0  0
    3.1955    3.8765    7.1036 H   0  0  0  0  0  0  0  0  0  0  0  0
    1.5153    3.5398    7.5817 H   0  0  0  0  0  0  0  0  0  0  0  0
    1.6670    5.3703    4.8476 H   0  0  0  0  0  0  0  0  0  0  0  0
    0.3638    4.4487    4.0878 H   0  0  0  0  0  0  0  0  0  0  0  0
    0.3301    4.7388    5.8376 H   0  0  0  0  0  0  0  0  0  0  0  0
   -0.1909    2.2276    6.2024 H   0  0  0  0  0  0  0  0  0  0  0  0
   -0.0443    1.7415    4.5012 H   0  0  0  0  0  0  0  0  0  0  0  0
    0.8416    0.8551    5.7480 H   0  0  0  0  0  0  0  0  0  0  0  0
    1.6931    3.9469    2.2768 H   0  0  0  0  0  0  0  0  0  0  0  0
    3.1416    3.5206    1.2555 H   0  0  0  0  0  0  0  0  0  0  0  0
    2.6765    1.1363    1.5447 H   0  0  0  0  0  0  0  0  0  0  0  0
    1.2182    1.5295    2.5669 H   0  0  0  0  0  0  0  0  0  0  0  0
    2.9633    0.0590    5.0828 H   0  0  0  0  0  0  0  0  0  0  0  0
    4.1982   -0.2102    3.7627 H   0  0  0  0  0  0  0  0  0  0  0  0
    5.7795    1.2554    4.9176 H   0  0  0  0  0  0  0  0  0  0  0  0
    4.5685    1.5483    6.2512 H   0  0  0  0  0  0  0  0  0  0  0  0
  3  5  1  0  0  0  0
  3  7  1  0  0  0  0
  4 10  1  0  0  0  0
  4  8  1  0  0  0  0
  5 15  1  0  0  0  0
  6 18  1  0  0  0  0
  6  3  1  0  0  0  0
  7 21  1  0  0  0  0
  8 25  1  0  0  0  0
  8 24  1  0  0  0  0
  8 26  1  0  0  0  0
  9  4  1  0  0  0  0
  9 29  1  0  0  0  0
 10 32  1  0  0  0  0
 10 30  1  0  0  0  0
 11 12  1  0  0  0  0
 11 33  1  0  0  0  0
 11  1  1  0  0  0  0
 12 36  1  0  0  0  0
 13 37  1  0  0  0  0
 13 14  1  0  0  0  0
 14 40  1  0  0  0  0
 16  5  1  0  0  0  0
 17  5  1  0  0  0  0
 19  6  1  0  0  0  0
 20  6  1  0  0  0  0
 22  7  1  0  0  0  0
 23  7  1  0  0  0  0
 27  9  1  0  0  0  0
 28  9  1  0  0  0  0
 31 10  1  0  0  0  0
 34 11  1  0  0  0  0
 35 12  1  0  0  0  0
 38 13  1  0  0  0  0
 39 14  1  0  0  0  0
M  END
$$$$
