CSD_code = NAHGEJ | q = 0 | S = 0 | Stoichiometry = C27H24Cl2SiZr | MND = 12
 OpenBabel04212202073D

 55 60  0  0  1  0  0  0  0  0999 V2000
    9.8886    7.0560    6.0802 Zr  0  0  0  0  0  0  0  0  0  0  0  0
   11.6510    5.5751    6.5059 Cl  0  0  0  0  0  0  0  0  0  0  0  0
    9.5352    7.4630    8.3364 Cl  0  0  0  0  0  0  0  0  0  0  0  0
    8.6187    7.9466    3.1591 Si  0  0  0  0  0  0  0  0  0  0  0  0
    8.2468    6.5364    4.3644 C   0  0  1  0  0  3  0  0  0  0  0  0
    9.0447    5.3566    4.4246 C   0  0  0  0  0  0  0  0  0  0  0  0
    9.6322    4.9677    3.5994 H   0  0  0  0  0  0  0  0  0  0  0  0
    8.8521    4.6928    5.6436 C   0  0  0  0  0  0  0  0  0  0  0  0
    9.2577    3.7273    5.9166 H   0  0  0  0  0  0  0  0  0  0  0  0
    7.9319    5.4565    6.4150 C   0  0  1  0  0  3  0  0  0  0  0  0
    7.5673    6.6227    5.6303 C   0  0  1  0  0  0  0  0  0  0  0  0
    9.9636    8.6760    4.2725 C   0  0  2  0  0  0  0  0  0  0  0  0
   11.2776    8.1231    4.3711 C   0  0  0  0  0  0  0  0  0  0  0  0
   11.7736    7.5575    3.5865 H   0  0  0  0  0  0  0  0  0  0  0  0
   11.8939    8.5223    5.5728 C   0  0  0  0  0  0  0  0  0  0  0  0
   10.9649    9.3547    6.2732 C   0  0  0  0  0  0  0  0  0  0  0  0
    9.7535    9.4237    5.4815 C   0  0  0  0  0  0  0  0  0  0  0  0
    6.6658    7.5572    6.1824 C   0  0  0  0  0  0  0  0  0  0  0  0
    6.3409    8.4125    5.6057 H   0  0  0  0  0  0  0  0  0  0  0  0
    6.1487    7.3321    7.4347 C   0  0  0  0  0  0  0  0  0  0  0  0
    5.4554    8.0419    7.8609 H   0  0  0  0  0  0  0  0  0  0  0  0
    6.4873    6.1879    8.1782 C   0  0  0  0  0  0  0  0  0  0  0  0
    6.0447    6.0505    9.1529 H   0  0  0  0  0  0  0  0  0  0  0  0
    7.3613    5.2525    7.6856 C   0  0  0  0  0  0  0  0  0  0  0  0
    7.6122    4.3672    8.2549 H   0  0  0  0  0  0  0  0  0  0  0  0
    8.6718   10.1925    5.9564 C   0  0  0  0  0  0  0  0  0  0  0  0
    7.7797   10.3059    5.3558 H   0  0  0  0  0  0  0  0  0  0  0  0
    8.7952   10.8540    7.1532 C   0  0  0  0  0  0  0  0  0  0  0  0
    7.9722   11.4475    7.5227 H   0  0  0  0  0  0  0  0  0  0  0  0
    9.9808   10.7988    7.9067 C   0  0  0  0  0  0  0  0  0  0  0  0
   10.0353   11.3507    8.8324 H   0  0  0  0  0  0  0  0  0  0  0  0
   11.0623   10.0704    7.4811 C   0  0  0  0  0  0  0  0  0  0  0  0
   11.9809   10.0514    8.0511 H   0  0  0  0  0  0  0  0  0  0  0  0
   13.3178    8.2841    5.9931 C   0  0  0  0  0  0  0  0  0  0  0  0
   13.7835    7.5685    5.3068 H   0  0  0  0  0  0  0  0  0  0  0  0
   13.3472    7.8487    6.9984 H   0  0  0  0  0  0  0  0  0  0  0  0
   14.0969    9.5782    5.9827 C   0  0  0  0  0  0  0  0  0  0  0  0
   14.8924    9.9426    7.0598 C   0  0  0  0  0  0  0  0  0  0  0  0
   14.9614    9.2898    7.9189 H   0  0  0  0  0  0  0  0  0  0  0  0
   15.5994   11.1327    7.0421 C   0  0  0  0  0  0  0  0  0  0  0  0
   16.2150   11.4043    7.8873 H   0  0  0  0  0  0  0  0  0  0  0  0
   15.5157   11.9740    5.9465 C   0  0  0  0  0  0  0  0  0  0  0  0
   16.0647   12.9041    5.9333 H   0  0  0  0  0  0  0  0  0  0  0  0
   14.7228   11.6186    4.8681 C   0  0  0  0  0  0  0  0  0  0  0  0
   14.6521   12.2720    4.0104 H   0  0  0  0  0  0  0  0  0  0  0  0
   14.0185   10.4290    4.8865 C   0  0  0  0  0  0  0  0  0  0  0  0
   13.3961   10.1569    4.0460 H   0  0  0  0  0  0  0  0  0  0  0  0
    9.3842    7.2722    1.5470 C   0  0  0  0  0  0  0  0  0  0  0  0
    8.6604    6.6777    1.0001 H   0  0  0  0  0  0  0  0  0  0  0  0
   10.2533    6.6483    1.7278 H   0  0  0  0  0  0  0  0  0  0  0  0
    9.6924    8.0868    0.9006 H   0  0  0  0  0  0  0  0  0  0  0  0
    7.1749    9.1050    2.7087 C   0  0  0  0  0  0  0  0  0  0  0  0
    6.5791    8.6618    1.9180 H   0  0  0  0  0  0  0  0  0  0  0  0
    7.5514   10.0551    2.3440 H   0  0  0  0  0  0  0  0  0  0  0  0
    6.5098    9.3081    3.5397 H   0  0  0  0  0  0  0  0  0  0  0  0
  1  2  1  0  0  0  0
  1  3  1  0  0  0  0
  4 12  1  0  0  0  0
  4  5  1  0  0  0  0
  5  6  1  1  0  0  0
  5 11  1  0  0  0  0
  6  8  2  0  0  0  0
  7  6  1  0  0  0  0
  8  9  1  0  0  0  0
 10  8  1  6  0  0  0
 10 24  1  0  0  0  0
 11  1  1  0  0  0  0
 11 18  1  1  0  0  0
 11 10  1  0  0  0  0
 12 13  1  6  0  0  0
 12 17  1  0  0  0  0
 12  1  1  0  0  0  0
 13 15  2  0  0  0  0
 14 13  1  0  0  0  0
 15 34  1  0  0  0  0
 15 16  1  0  0  0  0
 16 32  1  0  0  0  0
 17 26  1  0  0  0  0
 17 16  2  0  0  0  0
 18 20  2  0  0  0  0
 19 18  1  0  0  0  0
 20 21  1  0  0  0  0
 20 22  1  0  0  0  0
 22 23  1  0  0  0  0
 24 22  2  0  0  0  0
 24 25  1  0  0  0  0
 26 28  2  0  0  0  0
 27 26  1  0  0  0  0
 28 29  1  0  0  0  0
 28 30  1  0  0  0  0
 30 31  1  0  0  0  0
 32 30  2  0  0  0  0
 32 33  1  0  0  0  0
 34 36  1  0  0  0  0
 35 34  1  0  0  0  0
 37 34  1  0  0  0  0
 37 38  1  0  0  0  0
 38 39  1  0  0  0  0
 40 38  2  0  0  0  0
 40 41  1  0  0  0  0
 42 40  1  0  0  0  0
 43 42  1  0  0  0  0
 44 46  1  0  0  0  0
 44 42  2  0  0  0  0
 45 44  1  0  0  0  0
 46 37  2  0  0  0  0
 47 46  1  0  0  0  0
 48 50  1  0  0  0  0
 48  4  1  0  0  0  0
 49 48  1  0  0  0  0
 51 48  1  0  0  0  0
 52  4  1  0  0  0  0
 52 55  1  0  0  0  0
 53 52  1  0  0  0  0
 54 52  1  0  0  0  0
M  END
$$$$
