CSD_code = NAHLEO | q = 0 | S = 0 | Stoichiometry = C26H18Br2N2Ni | MND = 4
 OpenBabel04212202073D

 49 52  0  0  0  0  0  0  0  0999 V2000
    1.3336    1.5490    1.0569 Br  0  0  0  0  0  0  0  0  0  0  0  0
    0.0017   -0.0019    0.0003 Ni  0  0  0  0  0  0  0  0  0  0  0  0
    1.3685    0.3188   -2.5759 N   0  0  0  0  0  2  0  0  0  0  0  0
    0.8455    0.2230   -1.5392 C   0  0  0  0  0  2  0  0  0  0  0  0
    1.9183    0.3694   -3.8117 C   0  0  0  0  0  0  0  0  0  0  0  0
    2.7273    1.4557   -4.1787 C   0  0  0  0  0  0  0  0  0  0  0  0
    3.2217    1.4757   -5.4791 C   0  0  0  0  0  0  0  0  0  0  0  0
    2.9398    0.4556   -6.3692 C   0  0  0  0  0  0  0  0  0  0  0  0
    2.1426   -0.6131   -5.9846 C   0  0  0  0  0  0  0  0  0  0  0  0
    1.6237   -0.6588   -4.7069 C   0  0  0  0  0  0  0  0  0  0  0  0
    3.0231    2.5467   -3.2378 C   0  0  0  0  0  0  0  0  0  0  0  0
    3.4714    2.2841   -1.9457 C   0  0  0  0  0  0  0  0  0  0  0  0
    3.7277    3.3223   -1.0696 C   0  0  0  0  0  0  0  0  0  0  0  0
    3.5384    4.6331   -1.4728 C   0  0  0  0  0  0  0  0  0  0  0  0
    3.1040    4.9044   -2.7599 C   0  0  0  0  0  0  0  0  0  0  0  0
    2.8512    3.8693   -3.6400 C   0  0  0  0  0  0  0  0  0  0  0  0
    3.8497    2.3005   -5.7812 H   0  0  0  0  0  0  0  0  0  0  0  0
    3.3433    0.4925   -7.3699 H   0  0  0  0  0  0  0  0  0  0  0  0
    1.9217   -1.4069   -6.6811 H   0  0  0  0  0  0  0  0  0  0  0  0
    0.9888   -1.4714   -4.3867 H   0  0  0  0  0  0  0  0  0  0  0  0
    3.6406    1.2654   -1.6281 H   0  0  0  0  0  0  0  0  0  0  0  0
    4.0576    3.1035   -0.0664 H   0  0  0  0  0  0  0  0  0  0  0  0
    3.7275    5.4418   -0.7835 H   0  0  0  0  0  0  0  0  0  0  0  0
    2.9556    5.9259   -3.0786 H   0  0  0  0  0  0  0  0  0  0  0  0
    2.4918    4.0793   -4.6375 H   0  0  0  0  0  0  0  0  0  0  0  0
   -1.3327   -1.5506   -1.0574 Br  0  0  0  0  0  0  0  0  0  0  0  0
   -0.8422   -0.2258    1.5398 C   0  0  0  0  0  2  0  0  0  0  0  0
   -1.3663   -0.3197    2.5762 N   0  0  0  0  0  2  0  0  0  0  0  0
   -1.9147   -0.3713    3.8125 C   0  0  0  0  0  0  0  0  0  0  0  0
   -2.7259   -1.4562    4.1791 C   0  0  0  0  0  0  0  0  0  0  0  0
   -3.2202   -1.4757    5.4795 C   0  0  0  0  0  0  0  0  0  0  0  0
   -2.9361   -0.4565    6.3701 C   0  0  0  0  0  0  0  0  0  0  0  0
   -2.1367    0.6107    5.9858 C   0  0  0  0  0  0  0  0  0  0  0  0
   -1.6179    0.6558    4.7081 C   0  0  0  0  0  0  0  0  0  0  0  0
   -0.9814    1.4673    4.3881 H   0  0  0  0  0  0  0  0  0  0  0  0
   -1.9143    1.4038    6.6825 H   0  0  0  0  0  0  0  0  0  0  0  0
   -3.3396   -0.4929    7.3707 H   0  0  0  0  0  0  0  0  0  0  0  0
   -3.8500   -2.2993    5.7814 H   0  0  0  0  0  0  0  0  0  0  0  0
   -3.0244   -2.5460    3.2377 C   0  0  0  0  0  0  0  0  0  0  0  0
   -3.4720   -2.2815    1.9457 C   0  0  0  0  0  0  0  0  0  0  0  0
   -3.7308   -3.3185    1.0690 C   0  0  0  0  0  0  0  0  0  0  0  0
   -3.5449   -4.6301    1.4714 C   0  0  0  0  0  0  0  0  0  0  0  0
   -3.1115   -4.9033    2.7584 C   0  0  0  0  0  0  0  0  0  0  0  0
   -2.8560   -3.8693    3.6392 C   0  0  0  0  0  0  0  0  0  0  0  0
   -2.4973   -4.0809    4.6366 H   0  0  0  0  0  0  0  0  0  0  0  0
   -2.9657   -5.9253    3.0765 H   0  0  0  0  0  0  0  0  0  0  0  0
   -3.7360   -5.4379    0.7816 H   0  0  0  0  0  0  0  0  0  0  0  0
   -4.0600   -3.0983    0.0658 H   0  0  0  0  0  0  0  0  0  0  0  0
   -3.6387   -1.2622    1.6287 H   0  0  0  0  0  0  0  0  0  0  0  0
  2  1  1  0  0  0  0
  2 27  1  0  0  0  0
  3  4  1  0  0  0  0
  4  2  1  0  0  0  0
  5  3  1  0  0  0  0
  6  5  1  0  0  0  0
  6 11  1  0  0  0  0
  7  6  2  0  0  0  0
  8  9  2  0  0  0  0
  8  7  1  0  0  0  0
  9 10  1  0  0  0  0
 10 20  1  0  0  0  0
 10  5  2  0  0  0  0
 11 12  1  0  0  0  0
 12 21  1  0  0  0  0
 12 13  2  0  0  0  0
 13 22  1  0  0  0  0
 14 13  1  0  0  0  0
 14 23  1  0  0  0  0
 15 14  2  0  0  0  0
 16 11  2  0  0  0  0
 16 15  1  0  0  0  0
 17  7  1  0  0  0  0
 18  8  1  0  0  0  0
 19  9  1  0  0  0  0
 24 15  1  0  0  0  0
 25 16  1  0  0  0  0
 26  2  1  0  0  0  0
 27 28  1  0  0  0  0
 28 29  1  0  0  0  0
 29 30  2  0  0  0  0
 29 34  1  0  0  0  0
 30 31  1  0  0  0  0
 31 38  1  0  0  0  0
 31 32  2  0  0  0  0
 32 37  1  0  0  0  0
 33 32  1  0  0  0  0
 33 36  1  0  0  0  0
 34 33  2  0  0  0  0
 35 34  1  0  0  0  0
 39 44  1  0  0  0  0
 39 30  1  0  0  0  0
 40 39  2  0  0  0  0
 41 42  2  0  0  0  0
 41 40  1  0  0  0  0
 42 43  1  0  0  0  0
 43 46  1  0  0  0  0
 43 44  2  0  0  0  0
 44 45  1  0  0  0  0
 47 42  1  0  0  0  0
 48 41  1  0  0  0  0
 49 40  1  0  0  0  0
M  END
$$$$
