CSD_code = NAHSOG | q = 0 | S = 0 | Stoichiometry = C15H17Cl2NZr | MND = 12
 OpenBabel04212202073D

 36 37  0  0  1  0  0  0  0  0999 V2000
    5.4086    6.8108   16.9438 Zr  0  0  0  0  0  0  0  0  0  0  0  0
    7.2358    7.0860   18.3714 Cl  0  0  0  0  0  0  0  0  0  0  0  0
    6.8742    6.6519   15.1228 Cl  0  0  0  0  0  0  0  0  0  0  0  0
    5.3881    4.9772   20.6609 N   0  0  0  0  0  0  0  0  0  0  0  0
    6.8531    3.7599   17.4414 C   0  0  0  0  0  0  0  0  0  0  0  0
    7.7194    4.2704   16.9977 H   0  0  0  0  0  0  0  0  0  0  0  0
    6.9094    2.7045   17.1564 H   0  0  0  0  0  0  0  0  0  0  0  0
    6.8309    3.9497   18.9376 C   0  0  0  0  0  0  0  0  0  0  0  0
    7.6583    3.6293   19.5413 H   0  0  0  0  0  0  0  0  0  0  0  0
    5.7187    4.5919   19.3682 C   0  0  0  0  0  0  0  0  0  0  0  0
    4.8670    4.8546   18.2039 C   0  0  1  0  0  0  0  0  0  0  0  0
    3.5994    5.3522   17.7892 C   0  0  0  0  0  0  0  0  0  0  0  0
    2.7576    5.6333   18.4089 H   0  0  0  0  0  0  0  0  0  0  0  0
    3.5340    5.1839   16.3816 C   0  0  0  0  0  0  0  0  0  0  0  0
    2.6510    5.3446   15.7754 H   0  0  0  0  0  0  0  0  0  0  0  0
    4.7315    4.5859   15.9170 C   0  0  0  0  0  0  0  0  0  0  0  0
    4.9269    4.2652   14.9015 H   0  0  0  0  0  0  0  0  0  0  0  0
    5.5503    4.3835   17.0428 C   0  0  0  0  0  0  0  0  0  0  0  0
    6.4612    4.8542   21.6252 C   0  0  0  0  0  0  0  0  0  0  0  0
    6.7907    3.8175   21.6567 H   0  0  0  0  0  0  0  0  0  0  0  0
    6.0867    5.1253   22.6108 H   0  0  0  0  0  0  0  0  0  0  0  0
    7.3163    5.4935   21.3742 H   0  0  0  0  0  0  0  0  0  0  0  0
    4.6434    6.2206   20.7492 C   0  0  0  0  0  0  0  0  0  0  0  0
    5.1132    7.0320   20.1621 H   0  0  0  0  0  0  0  0  0  0  0  0
    4.5950    6.5281   21.7923 H   0  0  0  0  0  0  0  0  0  0  0  0
    3.6229    6.0610   20.4011 H   0  0  0  0  0  0  0  0  0  0  0  0
    5.4925    9.2399   16.4802 C   0  0  0  0  0  0  0  0  0  0  0  0
    6.4108    9.7308   16.1779 H   0  0  0  0  0  0  0  0  0  0  0  0
    5.0124    9.1250   17.8028 C   0  0  0  0  0  3  0  0  0  0  0  0
    5.4886    9.5366   18.6852 H   0  0  0  0  0  0  0  0  0  0  0  0
    3.7444    8.5010   17.7565 C   0  0  0  0  0  0  0  0  0  0  0  0
    3.0625    8.3994   18.5923 H   0  0  0  0  0  0  0  0  0  0  0  0
    3.4318    8.2536   16.3980 C   0  0  0  0  0  0  0  0  0  0  0  0
    2.4722    7.9224   16.0217 H   0  0  0  0  0  0  0  0  0  0  0  0
    4.5150    8.6990   15.6108 C   0  0  0  0  0  0  0  0  0  0  0  0
    4.5487    8.7251   14.5278 H   0  0  0  0  0  0  0  0  0  0  0  0
  1  2  1  0  0  0  0
  3  1  1  0  0  0  0
  4 23  1  0  0  0  0
  4 19  1  0  0  0  0
  5  8  1  0  0  0  0
  6  5  1  0  0  0  0
  7  5  1  0  0  0  0
  8 10  2  0  0  0  0
  8  9  1  0  0  0  0
 10  4  1  0  0  0  0
 11  1  1  6  0  0  0
 11 10  1  0  0  0  0
 12 11  1  0  0  0  0
 12 13  1  0  0  0  0
 14 12  2  0  0  0  0
 15 14  1  0  0  0  0
 16 14  1  0  0  0  0
 16 18  2  0  0  0  0
 17 16  1  0  0  0  0
 18  5  1  0  0  0  0
 18 11  1  0  0  0  0
 19 20  1  0  0  0  0
 19 21  1  0  0  0  0
 22 19  1  0  0  0  0
 23 25  1  0  0  0  0
 24 23  1  0  0  0  0
 26 23  1  0  0  0  0
 27 29  1  0  0  0  0
 28 27  1  0  0  0  0
 29 30  1  0  0  0  0
 31 29  1  0  0  0  0
 31 32  1  0  0  0  0
 33 31  2  0  0  0  0
 34 33  1  0  0  0  0
 35 33  1  0  0  0  0
 35 27  2  0  0  0  0
 36 35  1  0  0  0  0
M  END
$$$$
