CSD_code = NAJCOQ | q = 0 | S = 0 | Stoichiometry = C21H25Cl2NOTi | MND = 12
 OpenBabel04212202073D

 51 54  0  0  1  0  0  0  0  0999 V2000
    4.7992    2.2026    8.0193 Ti  0  0  0  0  0  0  0  0  0  0  0  0
    4.0858    0.7594    6.4696 Cl  0  0  0  0  0  0  0  0  0  0  0  0
    6.2587    3.0417    6.5689 Cl  0  0  0  0  0  0  0  0  0  0  0  0
    6.0778    0.2362    8.5594 C   0  0  0  0  0  0  0  0  0  0  0  0
    6.2108   -0.6200    7.9100 H   0  0  0  0  0  0  0  0  0  0  0  0
    7.0221    1.2517    8.7359 C   0  0  0  0  0  0  0  0  0  0  0  0
    7.9739    1.3233    8.2272 H   0  0  0  0  0  0  0  0  0  0  0  0
    6.5481    2.1407    9.7271 C   0  0  0  0  0  0  0  0  0  0  0  0
    7.1011    2.9780   10.1322 H   0  0  0  0  0  0  0  0  0  0  0  0
    5.3321    1.6361   10.2158 C   0  0  0  0  0  0  0  0  0  0  0  0
    4.7972    1.9674   11.0946 H   0  0  0  0  0  0  0  0  0  0  0  0
    5.0001    0.4724    9.4677 C   0  0  1  0  0  0  0  0  0  0  0  0
    3.7328   -0.2710    9.6785 C   0  0  0  0  0  0  0  0  0  0  0  0
    2.9376    0.0949   10.5352 O   0  0  0  0  0  0  0  0  0  0  0  0
    3.5457   -1.3345    8.8676 N   0  0  0  0  0  0  0  0  0  0  0  0
    4.1813   -1.4348    8.0896 H   0  0  0  0  0  0  0  0  0  0  0  0
    2.2666   -2.0209    8.6947 C   0  0  1  0  0  0  0  0  0  0  0  0
    1.1922   -1.0252    8.2421 C   0  0  0  0  0  0  0  0  0  0  0  0
    1.5222   -0.5408    7.3187 H   0  0  0  0  0  0  0  0  0  0  0  0
    1.0702   -0.2605    9.0109 H   0  0  0  0  0  0  0  0  0  0  0  0
   -0.1247   -1.7668    8.0224 C   0  0  1  0  0  0  0  0  0  0  0  0
   -0.8918   -1.0537    7.7003 H   0  0  0  0  0  0  0  0  0  0  0  0
    0.0620   -2.8342    6.9452 C   0  0  0  0  0  0  0  0  0  0  0  0
   -0.8806   -3.3579    6.7721 H   0  0  0  0  0  0  0  0  0  0  0  0
    0.3634   -2.3654    6.0059 H   0  0  0  0  0  0  0  0  0  0  0  0
    1.1318   -3.8269    7.3971 C   0  0  1  0  0  0  0  0  0  0  0  0
    1.2710   -4.5919    6.6249 H   0  0  0  0  0  0  0  0  0  0  0  0
    2.4518   -3.0878    7.6160 C   0  0  0  0  0  0  0  0  0  0  0  0
    3.2275   -3.7926    7.9256 H   0  0  0  0  0  0  0  0  0  0  0  0
    2.7702   -2.6124    6.6846 H   0  0  0  0  0  0  0  0  0  0  0  0
    1.8322   -2.6855   10.0028 C   0  0  0  0  0  0  0  0  0  0  0  0
    2.6056   -3.3841   10.3299 H   0  0  0  0  0  0  0  0  0  0  0  0
    1.7170   -1.9218   10.7717 H   0  0  0  0  0  0  0  0  0  0  0  0
    0.5120   -3.4214    9.7778 C   0  0  1  0  0  0  0  0  0  0  0  0
    0.2014   -3.8957   10.7151 H   0  0  0  0  0  0  0  0  0  0  0  0
   -0.5585   -2.4269    9.3306 C   0  0  0  0  0  0  0  0  0  0  0  0
   -1.5103   -2.9438    9.1887 H   0  0  0  0  0  0  0  0  0  0  0  0
   -0.6995   -1.6656   10.1002 H   0  0  0  0  0  0  0  0  0  0  0  0
    0.6966   -4.4912    8.7025 C   0  0  0  0  0  0  0  0  0  0  0  0
    1.4503   -5.2145    9.0217 H   0  0  0  0  0  0  0  0  0  0  0  0
   -0.2406   -5.0305    8.5489 H   0  0  0  0  0  0  0  0  0  0  0  0
    2.5285    2.7992    7.9075 C   0  0  0  0  0  0  0  0  0  0  0  0
    1.7291    2.1539    7.5670 H   0  0  0  0  0  0  0  0  0  0  0  0
    3.2563    3.7105    7.1044 C   0  0  0  0  0  0  0  0  0  0  0  0
    3.1175    3.8729    6.0417 H   0  0  0  0  0  0  0  0  0  0  0  0
    4.0967    4.4632    7.9548 C   0  0  0  0  0  0  0  0  0  0  0  0
    4.7126    5.3008    7.6541 H   0  0  0  0  0  0  0  0  0  0  0  0
    3.9166    3.9956    9.2689 C   0  0  0  0  0  0  0  0  0  0  0  0
    4.3415    4.4453   10.1570 H   0  0  0  0  0  0  0  0  0  0  0  0
    2.9400    2.9681    9.2405 C   0  0  0  0  0  3  0  0  0  0  0  0
    2.5014    2.4728   10.0964 H   0  0  0  0  0  0  0  0  0  0  0  0
  1 12  1  0  0  0  0
  2  1  1  0  0  0  0
  3  1  1  0  0  0  0
  4  6  2  0  0  0  0
  4 12  1  0  0  0  0
  5  4  1  0  0  0  0
  6  8  1  0  0  0  0
  7  6  1  0  0  0  0
  8  9  1  0  0  0  0
  8 10  2  0  0  0  0
 10 11  1  0  0  0  0
 12 13  1  1  0  0  0
 12 10  1  0  0  0  0
 13 14  2  0  0  0  0
 15 13  1  0  0  0  0
 16 15  1  0  0  0  0
 17 15  1  1  0  0  0
 17 31  1  0  0  0  0
 18 17  1  0  0  0  0
 18 20  1  0  0  0  0
 19 18  1  0  0  0  0
 21 22  1  6  0  0  0
 21 18  1  0  0  0  0
 21 36  1  0  0  0  0
 23 26  1  0  0  0  0
 23 21  1  0  0  0  0
 24 23  1  0  0  0  0
 25 23  1  0  0  0  0
 26 27  1  6  0  0  0
 26 28  1  0  0  0  0
 26 39  1  0  0  0  0
 28 29  1  0  0  0  0
 28 17  1  0  0  0  0
 30 28  1  0  0  0  0
 31 32  1  0  0  0  0
 31 33  1  0  0  0  0
 34 31  1  0  0  0  0
 34 35  1  1  0  0  0
 36 34  1  0  0  0  0
 36 38  1  0  0  0  0
 37 36  1  0  0  0  0
 39 40  1  0  0  0  0
 39 34  1  0  0  0  0
 41 39  1  0  0  0  0
 42 50  1  0  0  0  0
 43 42  1  0  0  0  0
 44 42  2  0  0  0  0
 44 46  1  0  0  0  0
 45 44  1  0  0  0  0
 46 48  2  0  0  0  0
 47 46  1  0  0  0  0
 48 49  1  0  0  0  0
 50 48  1  0  0  0  0
 50 51  1  0  0  0  0
M  END
$$$$
