CSD_code = NAJKOY | q = 0 | S = 0 | Stoichiometry = C12H19ClN2OPt | MND = 4
 OpenBabel04212202073D

 36 38  0  0  0  0  0  0  0  0999 V2000
    3.4598    2.2675    0.0777 Pt  0  0  0  0  0  0  0  0  0  0  0  0
    4.0974   -0.0049   -0.0962 Cl  0  0  0  0  0  0  0  0  0  0  0  0
    1.7530    2.0115    1.2598 N   0  0  0  0  0  4  0  0  0  0  0  0
    5.0087    3.0973   -1.0606 N   0  0  0  0  0  4  0  0  0  0  0  0
    1.8103    8.0590    0.5574 O   0  0  0  0  0  0  0  0  0  0  0  0
    2.3455    8.6199   -0.0159 H   0  0  0  0  0  0  0  0  0  0  0  0
    2.9409    4.1266    0.2194 C   0  0  0  0  0  0  0  0  0  0  0  0
    1.9105    4.4747    1.0811 C   0  0  0  0  0  0  0  0  0  0  0  0
    1.5328    5.8020    1.1826 C   0  0  0  0  0  0  0  0  0  0  0  0
    0.7367    6.1296    1.8332 H   0  0  0  0  0  0  0  0  0  0  0  0
    2.2088    6.7576    0.4237 C   0  0  0  0  0  0  0  0  0  0  0  0
    3.2475    6.4049   -0.4356 C   0  0  0  0  0  0  0  0  0  0  0  0
    3.7512    7.1716   -1.0123 H   0  0  0  0  0  0  0  0  0  0  0  0
    3.6112    5.0710   -0.5415 C   0  0  0  0  0  0  0  0  0  0  0  0
    1.3569    3.3153    1.8757 C   0  0  0  0  0  0  0  0  0  0  0  0
    0.2652    3.3614    1.9743 H   0  0  0  0  0  0  0  0  0  0  0  0
    1.7843    3.3593    2.8826 H   0  0  0  0  0  0  0  0  0  0  0  0
    0.7349    1.5981    0.2889 C   0  0  0  0  0  0  0  0  0  0  0  0
   -0.2206    1.3944    0.7885 H   0  0  0  0  0  0  0  0  0  0  0  0
    1.0682    0.6915   -0.2198 H   0  0  0  0  0  0  0  0  0  0  0  0
    0.5895    2.3897   -0.4482 H   0  0  0  0  0  0  0  0  0  0  0  0
    1.8905    0.9817    2.2888 C   0  0  0  0  0  0  0  0  0  0  0  0
    2.6694    1.2689    2.9957 H   0  0  0  0  0  0  0  0  0  0  0  0
    2.1883    0.0448    1.8173 H   0  0  0  0  0  0  0  0  0  0  0  0
    0.9476    0.8319    2.8281 H   0  0  0  0  0  0  0  0  0  0  0  0
    4.6482    4.4881   -1.4729 C   0  0  0  0  0  0  0  0  0  0  0  0
    4.2151    4.4423   -2.4777 H   0  0  0  0  0  0  0  0  0  0  0  0
    5.5552    5.1038   -1.5283 H   0  0  0  0  0  0  0  0  0  0  0  0
    5.3855    2.3001   -2.2270 C   0  0  0  0  0  0  0  0  0  0  0  0
    5.6378    1.2907   -1.9013 H   0  0  0  0  0  0  0  0  0  0  0  0
    6.2460    2.7390   -2.7463 H   0  0  0  0  0  0  0  0  0  0  0  0
    4.5427    2.2337   -2.9158 H   0  0  0  0  0  0  0  0  0  0  0  0
    6.1293    3.1405   -0.1161 C   0  0  0  0  0  0  0  0  0  0  0  0
    5.8714    3.7818    0.7285 H   0  0  0  0  0  0  0  0  0  0  0  0
    7.0329    3.5320   -0.6006 H   0  0  0  0  0  0  0  0  0  0  0  0
    6.3327    2.1321    0.2490 H   0  0  0  0  0  0  0  0  0  0  0  0
  1  7  1  0  0  0  0
  1  3  1  0  0  0  0
  2  1  1  0  0  0  0
  3 15  1  0  0  0  0
  3 22  1  0  0  0  0
  4 33  1  0  0  0  0
  4  1  1  0  0  0  0
  6  5  1  0  0  0  0
  7  8  1  0  0  0  0
  8  9  2  0  0  0  0
  8 15  1  0  0  0  0
  9 10  1  0  0  0  0
 11  5  1  0  0  0  0
 11  9  1  0  0  0  0
 12 11  2  0  0  0  0
 13 12  1  0  0  0  0
 14 12  1  0  0  0  0
 14  7  2  0  0  0  0
 15 16  1  0  0  0  0
 15 17  1  0  0  0  0
 18 19  1  0  0  0  0
 18  3  1  0  0  0  0
 20 18  1  0  0  0  0
 21 18  1  0  0  0  0
 22 25  1  0  0  0  0
 22 23  1  0  0  0  0
 24 22  1  0  0  0  0
 26  4  1  0  0  0  0
 26 14  1  0  0  0  0
 27 26  1  0  0  0  0
 28 26  1  0  0  0  0
 29 30  1  0  0  0  0
 29  4  1  0  0  0  0
 31 29  1  0  0  0  0
 32 29  1  0  0  0  0
 33 36  1  0  0  0  0
 33 34  1  0  0  0  0
 35 33  1  0  0  0  0
M  END
$$$$
