CSD_code = NALHOZ | q = 0 | S = 0 | Stoichiometry = C13H19CdCl2N3O | MND = 5
 OpenBabel04212202073D

 39 42  0  0  1  0  0  0  0  0999 V2000
    6.0709    1.2911    3.8165 Cd  0  0  0  0  0  0  0  0  0  0  0  0
    3.9680    0.4580    3.0621 Cl  0  0  0  0  0  0  0  0  0  0  0  0
    6.5955    3.5572    3.4554 Cl  0  0  0  0  0  0  0  0  0  0  0  0
    7.8970    0.9885    0.0491 O   0  0  0  0  0  0  0  0  0  0  0  0
    5.3352    1.6486    6.0599 N   0  0  0  0  0  0  0  0  0  0  0  0
    6.1581   -0.7222    5.1251 N   0  0  1  0  0  0  0  0  0  0  0  0
    7.5163   -0.3427    2.5578 N   0  0  0  0  0  4  0  0  0  0  0  0
    5.1380    2.8159    6.6449 C   0  0  0  0  0  3  0  0  0  0  0  0
    5.5102    3.6804    6.1080 H   0  0  0  0  0  0  0  0  0  0  0  0
    4.4926    2.9368    7.8687 C   0  0  0  0  0  0  0  0  0  0  0  0
    4.3408    3.9071    8.3136 H   0  0  0  0  0  0  0  0  0  0  0  0
    4.0555    1.7826    8.4973 C   0  0  0  0  0  0  0  0  0  0  0  0
    3.5615    1.8306    9.4565 H   0  0  0  0  0  0  0  0  0  0  0  0
    4.2558    0.5594    7.8771 C   0  0  0  0  0  0  0  0  0  0  0  0
    3.9389   -0.3524    8.3585 H   0  0  0  0  0  0  0  0  0  0  0  0
    4.8950    0.5299    6.6399 C   0  0  0  0  0  0  0  0  0  0  0  0
    5.1284   -0.7130    5.8727 C   0  0  1  0  0  3  0  0  0  0  0  0
    4.1293   -1.8211    5.9446 C   0  0  0  0  0  0  0  0  0  0  0  0
    3.6511   -1.8826    4.9647 H   0  0  0  0  0  0  0  0  0  0  0  0
    3.3615   -1.6417    6.6884 H   0  0  0  0  0  0  0  0  0  0  0  0
    4.6188   -2.7748    6.1400 H   0  0  0  0  0  0  0  0  0  0  0  0
    6.4414   -1.8207    4.2487 C   0  0  0  0  0  0  0  0  0  0  0  0
    5.5863   -1.9902    3.5830 H   0  0  0  0  0  0  0  0  0  0  0  0
    6.6124   -2.7421    4.8204 H   0  0  0  0  0  0  0  0  0  0  0  0
    7.6985   -1.4971    3.4389 C   0  0  0  0  0  0  0  0  0  0  0  0
    8.4985   -1.2576    4.1461 H   0  0  0  0  0  0  0  0  0  0  0  0
    7.9974   -2.3853    2.8596 H   0  0  0  0  0  0  0  0  0  0  0  0
    6.7639   -0.7108    1.3530 C   0  0  0  0  0  0  0  0  0  0  0  0
    5.7624   -1.0411    1.6324 H   0  0  0  0  0  0  0  0  0  0  0  0
    7.2851   -1.5195    0.8145 H   0  0  0  0  0  0  0  0  0  0  0  0
    6.6339    0.5013    0.4298 C   0  0  0  0  0  0  0  0  0  0  0  0
    6.1176    0.2221   -0.4903 H   0  0  0  0  0  0  0  0  0  0  0  0
    6.0568    1.2914    0.9447 H   0  0  0  0  0  0  0  0  0  0  0  0
    8.6331    1.3671    1.1873 C   0  0  0  0  0  0  0  0  0  0  0  0
    8.1227    2.1871    1.7171 H   0  0  0  0  0  0  0  0  0  0  0  0
    9.6015    1.7181    0.8260 H   0  0  0  0  0  0  0  0  0  0  0  0
    8.8196    0.1813    2.1364 C   0  0  0  0  0  0  0  0  0  0  0  0
    9.3903   -0.6051    1.6144 H   0  0  0  0  0  0  0  0  0  0  0  0
    9.3799    0.5073    3.0166 H   0  0  0  0  0  0  0  0  0  0  0  0
  1  6  1  0  0  0  0
  1  5  1  0  0  0  0
  2  1  1  0  0  0  0
  3  1  1  0  0  0  0
  4 31  1  0  0  0  0
  4 34  1  0  0  0  0
  5 16  1  0  0  0  0
  5  8  1  0  0  0  0
  6 22  1  6  0  0  0
  6 17  1  0  0  0  0
  7 25  1  0  0  0  0
  7  1  1  0  0  0  0
  8 10  1  0  0  0  0
  9  8  1  0  0  0  0
 10 11  1  0  0  0  0
 10 12  2  0  0  0  0
 12 13  1  0  0  0  0
 14 15  1  0  0  0  0
 14 12  1  0  0  0  0
 16 14  2  0  0  0  0
 17 18  1  6  0  0  0
 17 16  1  0  0  0  0
 18 21  1  0  0  0  0
 18 20  1  0  0  0  0
 19 18  1  0  0  0  0
 22 24  1  0  0  0  0
 23 22  1  0  0  0  0
 25 26  1  0  0  0  0
 25 22  1  0  0  0  0
 27 25  1  0  0  0  0
 28 29  1  0  0  0  0
 28  7  1  0  0  0  0
 30 28  1  0  0  0  0
 31 33  1  0  0  0  0
 31 28  1  0  0  0  0
 32 31  1  0  0  0  0
 34 35  1  0  0  0  0
 34 37  1  0  0  0  0
 36 34  1  0  0  0  0
 37  7  1  0  0  0  0
 37 39  1  0  0  0  0
 38 37  1  0  0  0  0
M  END
$$$$
