CSD_code = NAMBIN | q = 0 | S = 0 | Stoichiometry = C28H27Br3NP2Re | MND = 6
 OpenBabel04212202073D

 62 66  0  0  0  0  0  0  0  0999 V2000
    2.6743   19.8757    1.3977 Re  0  0  0  0  0  0  0  0  0  0  0  0
    0.4943   19.6859    2.6859 Br  0  0  0  0  0  0  0  0  0  0  0  0
    1.7105   18.9901   -0.7393 Br  0  0  0  0  0  0  0  0  0  0  0  0
    5.0070   20.2421    0.4731 Br  0  0  0  0  0  0  0  0  0  0  0  0
    3.5733   20.5718    3.5303 P   0  0  0  0  0  4  0  0  0  0  0  0
    3.7968   19.0266    4.5152 C   0  0  0  0  0  0  0  0  0  0  0  0
    4.4588   19.2107    5.3662 H   0  0  0  0  0  0  0  0  0  0  0  0
    2.7990   18.7754    4.8948 H   0  0  0  0  0  0  0  0  0  0  0  0
    4.3361   17.9083    3.6238 C   0  0  0  0  0  0  0  0  0  0  0  0
    4.4330   16.9667    4.1716 H   0  0  0  0  0  0  0  0  0  0  0  0
    5.3228   18.1779    3.2266 H   0  0  0  0  0  0  0  0  0  0  0  0
    3.2568   17.6881    2.1372 P   0  0  0  0  0  4  0  0  0  0  0  0
    5.1742   21.4311    3.5581 C   0  0  0  0  0  0  0  0  0  0  0  0
    5.1616   22.7224    3.0349 C   0  0  0  0  0  0  0  0  0  0  0  0
    4.2291   23.1303    2.6628 H   0  0  0  0  0  0  0  0  0  0  0  0
    6.3244   23.4626    2.9789 C   0  0  0  0  0  0  0  0  0  0  0  0
    6.3106   24.4615    2.5693 H   0  0  0  0  0  0  0  0  0  0  0  0
    7.5116   22.9161    3.4414 C   0  0  0  0  0  0  0  0  0  0  0  0
    8.4248   23.4898    3.3928 H   0  0  0  0  0  0  0  0  0  0  0  0
    7.5290   21.6318    3.9556 C   0  0  0  0  0  0  0  0  0  0  0  0
    8.4556   21.2024    4.3073 H   0  0  0  0  0  0  0  0  0  0  0  0
    6.3652   20.8844    4.0142 C   0  0  0  0  0  0  0  0  0  0  0  0
    6.4018   19.8794    4.4078 H   0  0  0  0  0  0  0  0  0  0  0  0
    2.6345   21.6670    4.6397 C   0  0  0  0  0  0  0  0  0  0  0  0
    2.9145   21.6994    6.0018 C   0  0  0  0  0  0  0  0  0  0  0  0
    3.6675   21.0472    6.4201 H   0  0  0  0  0  0  0  0  0  0  0  0
    2.2289   22.5721    6.8254 C   0  0  0  0  0  0  0  0  0  0  0  0
    2.4419   22.5878    7.8843 H   0  0  0  0  0  0  0  0  0  0  0  0
    1.2723   23.4242    6.2970 C   0  0  0  0  0  0  0  0  0  0  0  0
    0.7366   24.1011    6.9455 H   0  0  0  0  0  0  0  0  0  0  0  0
    1.0050   23.4077    4.9388 C   0  0  0  0  0  0  0  0  0  0  0  0
    0.2608   24.0713    4.5244 H   0  0  0  0  0  0  0  0  0  0  0  0
    1.6859   22.5339    4.1112 C   0  0  0  0  0  0  0  0  0  0  0  0
    1.4667   22.5088    3.0524 H   0  0  0  0  0  0  0  0  0  0  0  0
    4.2201   16.5030    1.1493 C   0  0  0  0  0  0  0  0  0  0  0  0
    4.6033   16.7684   -0.1581 C   0  0  0  0  0  0  0  0  0  0  0  0
    4.3485   17.7058   -0.6280 H   0  0  0  0  0  0  0  0  0  0  0  0
    5.3165   15.8225   -0.8747 C   0  0  0  0  0  0  0  0  0  0  0  0
    5.6108   16.0363   -1.8910 H   0  0  0  0  0  0  0  0  0  0  0  0
    5.6456   14.6115   -0.2931 C   0  0  0  0  0  0  0  0  0  0  0  0
    6.2013   13.8742   -0.8535 H   0  0  0  0  0  0  0  0  0  0  0  0
    5.2535   14.3378    1.0089 C   0  0  0  0  0  0  0  0  0  0  0  0
    5.5002   13.3882    1.4613 H   0  0  0  0  0  0  0  0  0  0  0  0
    4.5394   15.2753    1.7273 C   0  0  0  0  0  0  0  0  0  0  0  0
    4.2138   15.0522    2.7347 H   0  0  0  0  0  0  0  0  0  0  0  0
    1.8973   16.6035    2.6629 C   0  0  0  0  0  0  0  0  0  0  0  0
    1.6158   16.2619    3.9794 C   0  0  0  0  0  0  0  0  0  0  0  0
    2.2319   16.6190    4.7919 H   0  0  0  0  0  0  0  0  0  0  0  0
    0.5299   15.4522    4.2623 C   0  0  0  0  0  0  0  0  0  0  0  0
    0.3140   15.1907    5.2882 H   0  0  0  0  0  0  0  0  0  0  0  0
   -0.2812   14.9872    3.2420 C   0  0  0  0  0  0  0  0  0  0  0  0
   -1.1323   14.3637    3.4722 H   0  0  0  0  0  0  0  0  0  0  0  0
   -0.0043   15.3269    1.9275 C   0  0  0  0  0  0  0  0  0  0  0  0
   -0.6373   14.9713    1.1285 H   0  0  0  0  0  0  0  0  0  0  0  0
    1.0799   16.1307    1.6377 C   0  0  0  0  0  0  0  0  0  0  0  0
    1.2960   16.4057    0.6132 H   0  0  0  0  0  0  0  0  0  0  0  0
    2.1728   21.6854    0.7362 N   0  0  0  0  0  2  0  0  0  0  0  0
    1.8536   22.6055    0.1239 C   0  0  0  0  0  2  0  0  0  0  0  0
    1.4589   23.7602   -0.6208 C   0  0  0  0  0  0  0  0  0  0  0  0
    0.8874   23.4437   -1.4939 H   0  0  0  0  0  0  0  0  0  0  0  0
    2.3459   24.3026   -0.9492 H   0  0  0  0  0  0  0  0  0  0  0  0
    0.8413   24.4108   -0.0013 H   0  0  0  0  0  0  0  0  0  0  0  0
  1 12  1  0  0  0  0
  1  2  1  0  0  0  0
  1  5  1  0  0  0  0
  3  1  1  0  0  0  0
  4  1  1  0  0  0  0
  5 13  1  0  0  0  0
  5  6  1  0  0  0  0
  5 24  1  0  0  0  0
  6  8  1  0  0  0  0
  6  7  1  0  0  0  0
  9 10  1  0  0  0  0
  9  6  1  0  0  0  0
 11  9  1  0  0  0  0
 12 46  1  0  0  0  0
 12  9  1  0  0  0  0
 13 22  1  0  0  0  0
 14 13  2  0  0  0  0
 15 14  1  0  0  0  0
 16 14  1  0  0  0  0
 16 18  2  0  0  0  0
 17 16  1  0  0  0  0
 18 20  1  0  0  0  0
 19 18  1  0  0  0  0
 20 22  2  0  0  0  0
 20 21  1  0  0  0  0
 22 23  1  0  0  0  0
 24 25  1  0  0  0  0
 25 26  1  0  0  0  0
 25 27  2  0  0  0  0
 27 28  1  0  0  0  0
 29 27  1  0  0  0  0
 29 30  1  0  0  0  0
 31 29  2  0  0  0  0
 32 31  1  0  0  0  0
 33 24  2  0  0  0  0
 33 31  1  0  0  0  0
 34 33  1  0  0  0  0
 35 44  1  0  0  0  0
 35 12  1  0  0  0  0
 36 35  2  0  0  0  0
 37 36  1  0  0  0  0
 38 40  2  0  0  0  0
 38 36  1  0  0  0  0
 39 38  1  0  0  0  0
 40 42  1  0  0  0  0
 41 40  1  0  0  0  0
 42 43  1  0  0  0  0
 42 44  2  0  0  0  0
 44 45  1  0  0  0  0
 46 47  1  0  0  0  0
 47 49  2  0  0  0  0
 47 48  1  0  0  0  0
 49 50  1  0  0  0  0
 51 52  1  0  0  0  0
 51 49  1  0  0  0  0
 53 51  2  0  0  0  0
 54 53  1  0  0  0  0
 55 53  1  0  0  0  0
 55 46  2  0  0  0  0
 56 55  1  0  0  0  0
 57  1  1  0  0  0  0
 58 57  1  0  0  0  0
 59 62  1  0  0  0  0
 59 58  1  0  0  0  0
 60 59  1  0  0  0  0
 61 59  1  0  0  0  0
M  END
$$$$
