CSD_code = NAPFES | q = 0 | S = 0 | Stoichiometry = C26H31CuIN3S | MND = 3
 OpenBabel04212202073D

 63 66  0  0  0  0  0  0  0  0999 V2000
    1.9822    7.8870    9.4367 I   0  0  0  0  0  0  0  0  0  0  0  0
    1.5115    5.5621    8.7270 Cu  0  0  0  0  0  0  0  0  0  0  0  0
   -0.4165    4.6472    7.7977 S   0  0  2  0  0  3  0  0  0  0  0  0
    2.3106    3.7066    8.6265 N   0  0  0  0  0  0  0  0  0  0  0  0
    4.4749    2.7751    8.5500 N   0  0  0  0  0  0  0  0  0  0  0  0
    3.6928    3.8444   10.4633 N   0  0  0  0  0  0  0  0  0  0  0  0
    3.4681    3.4778    9.1672 C   0  0  0  0  0  3  0  0  0  0  0  0
    5.3672    1.9106    9.2827 C   0  0  0  0  0  0  0  0  0  0  0  0
    4.9763    1.7472   10.2834 H   0  0  0  0  0  0  0  0  0  0  0  0
    6.3799    2.3216    9.3556 H   0  0  0  0  0  0  0  0  0  0  0  0
    5.4293    0.9483    8.7657 H   0  0  0  0  0  0  0  0  0  0  0  0
    4.8488    3.0295    7.1793 C   0  0  0  0  0  0  0  0  0  0  0  0
    4.3342    3.9118    6.8065 H   0  0  0  0  0  0  0  0  0  0  0  0
    4.6199    2.1780    6.5298 H   0  0  0  0  0  0  0  0  0  0  0  0
    5.9253    3.2192    7.1280 H   0  0  0  0  0  0  0  0  0  0  0  0
    4.9146    4.5337   10.8251 C   0  0  0  0  0  0  0  0  0  0  0  0
    5.6518    4.4482   10.0327 H   0  0  0  0  0  0  0  0  0  0  0  0
    5.3240    4.1148   11.7467 H   0  0  0  0  0  0  0  0  0  0  0  0
    4.7073    5.5962   10.9852 H   0  0  0  0  0  0  0  0  0  0  0  0
    2.5726    4.1747   11.3143 C   0  0  0  0  0  0  0  0  0  0  0  0
    2.2885    5.2281   11.2343 H   0  0  0  0  0  0  0  0  0  0  0  0
    2.8552    3.9672   12.3472 H   0  0  0  0  0  0  0  0  0  0  0  0
    1.7189    3.5587   11.0419 H   0  0  0  0  0  0  0  0  0  0  0  0
    1.8273    2.9710    7.4828 C   0  0  0  0  0  0  0  0  0  0  0  0
    2.1564    1.9239    7.5342 H   0  0  0  0  0  0  0  0  0  0  0  0
    2.1956    3.3923    6.5416 H   0  0  0  0  0  0  0  0  0  0  0  0
    0.2957    2.9999    7.4673 C   0  0  0  0  0  0  0  0  0  0  0  0
   -0.0981    2.3829    8.2771 H   0  0  0  0  0  0  0  0  0  0  0  0
   -0.0935    2.6385    6.5167 H   0  0  0  0  0  0  0  0  0  0  0  0
   -0.5898    5.4601    6.1121 C   0  0  0  0  0  0  0  0  0  0  0  0
   -0.8739    6.9297    6.3801 C   0  0  0  0  0  0  0  0  0  0  0  0
   -0.4291    7.9131    5.5037 C   0  0  0  0  0  0  0  0  0  0  0  0
    0.1515    7.6452    4.6323 H   0  0  0  0  0  0  0  0  0  0  0  0
   -0.7055    9.2462    5.7466 C   0  0  0  0  0  0  0  0  0  0  0  0
   -0.3381    9.9971    5.0631 H   0  0  0  0  0  0  0  0  0  0  0  0
   -1.4341    9.6172    6.8625 C   0  0  0  0  0  0  0  0  0  0  0  0
   -1.6304   10.6596    7.0611 H   0  0  0  0  0  0  0  0  0  0  0  0
   -1.9038    8.6430    7.7244 C   0  0  0  0  0  0  0  0  0  0  0  0
   -2.4735    8.9193    8.5984 H   0  0  0  0  0  0  0  0  0  0  0  0
   -1.6350    7.3093    7.4783 C   0  0  0  0  0  0  0  0  0  0  0  0
   -2.0092    6.5580    8.1588 H   0  0  0  0  0  0  0  0  0  0  0  0
    0.7131    5.2305    5.3921 C   0  0  0  0  0  0  0  0  0  0  0  0
    1.8350    5.9846    5.7327 C   0  0  0  0  0  0  0  0  0  0  0  0
    1.7499    6.7704    6.4681 H   0  0  0  0  0  0  0  0  0  0  0  0
    3.0559    5.7473    5.1297 C   0  0  0  0  0  0  0  0  0  0  0  0
    3.9099    6.3491    5.4043 H   0  0  0  0  0  0  0  0  0  0  0  0
    3.1807    4.7465    4.1787 C   0  0  0  0  0  0  0  0  0  0  0  0
    4.1345    4.5585    3.7081 H   0  0  0  0  0  0  0  0  0  0  0  0
    2.0738    3.9893    3.8362 C   0  0  0  0  0  0  0  0  0  0  0  0
    2.1602    3.2060    3.0972 H   0  0  0  0  0  0  0  0  0  0  0  0
    0.8493    4.2263    4.4390 C   0  0  0  0  0  0  0  0  0  0  0  0
   -0.0041    3.6248    4.1593 H   0  0  0  0  0  0  0  0  0  0  0  0
   -1.7927    4.9212    5.3636 C   0  0  0  0  0  0  0  0  0  0  0  0
   -1.9865    5.3440    4.0502 C   0  0  0  0  0  0  0  0  0  0  0  0
   -1.2710    6.0109    3.5924 H   0  0  0  0  0  0  0  0  0  0  0  0
   -3.0823    4.9173    3.3258 C   0  0  0  0  0  0  0  0  0  0  0  0
   -3.2125    5.2531    2.3076 H   0  0  0  0  0  0  0  0  0  0  0  0
   -4.0102    4.0653    3.9020 C   0  0  0  0  0  0  0  0  0  0  0  0
   -4.8665    3.7303    3.3359 H   0  0  0  0  0  0  0  0  0  0  0  0
   -3.8336    3.6526    5.2093 C   0  0  0  0  0  0  0  0  0  0  0  0
   -4.5540    2.9948    5.6730 H   0  0  0  0  0  0  0  0  0  0  0  0
   -2.7346    4.0795    5.9357 C   0  0  0  0  0  0  0  0  0  0  0  0
   -2.6196    3.7525    6.9582 H   0  0  0  0  0  0  0  0  0  0  0  0
  2  1  1  0  0  0  0
  3 30  1  6  0  0  0
  3  2  1  0  0  0  0
  4  2  1  0  0  0  0
  4  7  1  0  0  0  0
  5  7  1  0  0  0  0
  5  8  1  0  0  0  0
  6 16  1  0  0  0  0
  6 20  1  0  0  0  0
  7  6  1  0  0  0  0
  8 10  1  0  0  0  0
  8  9  1  0  0  0  0
 11  8  1  0  0  0  0
 12  5  1  0  0  0  0
 13 12  1  0  0  0  0
 14 12  1  0  0  0  0
 15 12  1  0  0  0  0
 16 19  1  0  0  0  0
 16 18  1  0  0  0  0
 17 16  1  0  0  0  0
 20 22  1  0  0  0  0
 21 20  1  0  0  0  0
 23 20  1  0  0  0  0
 24 25  1  0  0  0  0
 24  4  1  0  0  0  0
 26 24  1  0  0  0  0
 27 24  1  0  0  0  0
 27  3  1  0  0  0  0
 27 28  1  0  0  0  0
 29 27  1  0  0  0  0
 30 31  1  0  0  0  0
 31 40  1  0  0  0  0
 32 34  1  0  0  0  0
 32 31  2  0  0  0  0
 33 32  1  0  0  0  0
 34 36  2  0  0  0  0
 35 34  1  0  0  0  0
 36 37  1  0  0  0  0
 36 38  1  0  0  0  0
 38 39  1  0  0  0  0
 40 38  2  0  0  0  0
 40 41  1  0  0  0  0
 42 43  1  0  0  0  0
 42 30  1  0  0  0  0
 43 44  1  0  0  0  0
 45 46  1  0  0  0  0
 45 43  2  0  0  0  0
 47 45  1  0  0  0  0
 48 47  1  0  0  0  0
 49 47  2  0  0  0  0
 49 51  1  0  0  0  0
 50 49  1  0  0  0  0
 51 42  2  0  0  0  0
 52 51  1  0  0  0  0
 53 62  1  0  0  0  0
 53 30  1  0  0  0  0
 54 53  2  0  0  0  0
 55 54  1  0  0  0  0
 56 58  2  0  0  0  0
 56 54  1  0  0  0  0
 57 56  1  0  0  0  0
 58 60  1  0  0  0  0
 59 58  1  0  0  0  0
 60 61  1  0  0  0  0
 60 62  2  0  0  0  0
 62 63  1  0  0  0  0
M  END
$$$$
