CSD_code = NAPFAO | q = 0 | S = 0 | Stoichiometry = C26H29CuIN3S | MND = 3
 OpenBabel04212202073D

 61 65  0  0  1  0  0  0  0  0999 V2000
    9.7275    1.8991    8.7656 I   0  0  0  0  0  0  0  0  0  0  0  0
   10.1517    4.2213    9.5099 Cu  0  0  0  0  0  0  0  0  0  0  0  0
   11.9980    5.1826   10.4637 S   0  0  1  0  0  3  0  0  0  0  0  0
    9.2146    6.0368    9.6652 N   0  0  1  0  0  0  0  0  0  0  0  0
    7.6745    5.5448    8.0191 N   0  0  0  0  0  0  0  0  0  0  0  0
    6.8785    6.6761    9.7721 N   0  0  0  0  0  0  0  0  0  0  0  0
    8.0018    6.0874    9.2198 C   0  0  0  0  0  3  0  0  0  0  0  0
    8.6055    5.1840    6.9873 C   0  0  0  0  0  0  0  0  0  0  0  0
    8.5937    5.9224    6.1788 H   0  0  0  0  0  0  0  0  0  0  0  0
    8.3452    4.2043    6.5843 H   0  0  0  0  0  0  0  0  0  0  0  0
    9.6065    5.1339    7.4129 H   0  0  0  0  0  0  0  0  0  0  0  0
    6.3068    5.8267    7.6577 C   0  0  0  0  0  0  0  0  0  0  0  0
    5.8173    4.9270    7.2754 H   0  0  0  0  0  0  0  0  0  0  0  0
    6.2667    6.6023    6.8795 H   0  0  0  0  0  0  0  0  0  0  0  0
    5.7124    6.3136    8.9756 C   0  0  0  0  0  0  0  0  0  0  0  0
    5.0593    7.1814    8.8545 H   0  0  0  0  0  0  0  0  0  0  0  0
    5.1471    5.5144    9.4725 H   0  0  0  0  0  0  0  0  0  0  0  0
    6.6225    6.7515   11.1938 C   0  0  0  0  0  0  0  0  0  0  0  0
    6.6019    5.7604   11.6615 H   0  0  0  0  0  0  0  0  0  0  0  0
    5.6497    7.2230   11.3298 H   0  0  0  0  0  0  0  0  0  0  0  0
    7.3658    7.3635   11.6964 H   0  0  0  0  0  0  0  0  0  0  0  0
    9.6896    6.7824   10.8040 C   0  0  0  0  0  0  0  0  0  0  0  0
    9.3343    6.3527   11.7478 H   0  0  0  0  0  0  0  0  0  0  0  0
    9.3537    7.8273   10.7482 H   0  0  0  0  0  0  0  0  0  0  0  0
   11.2223    6.7961   10.8101 C   0  0  0  0  0  0  0  0  0  0  0  0
   11.6026    7.1665   11.7610 H   0  0  0  0  0  0  0  0  0  0  0  0
   11.5896    7.4313   10.0018 H   0  0  0  0  0  0  0  0  0  0  0  0
   12.1730    4.3400   12.1352 C   0  0  0  0  0  0  0  0  0  0  0  0
   10.8672    4.5429   12.8576 C   0  0  0  0  0  0  0  0  0  0  0  0
   10.7238    5.5237   13.8339 C   0  0  0  0  0  0  0  0  0  0  0  0
   11.5730    6.1252   14.1265 H   0  0  0  0  0  0  0  0  0  0  0  0
    9.4980    5.7370   14.4424 C   0  0  0  0  0  0  0  0  0  0  0  0
    9.4058    6.5025   15.1992 H   0  0  0  0  0  0  0  0  0  0  0  0
    8.3972    4.9784   14.0834 C   0  0  0  0  0  0  0  0  0  0  0  0
    7.4429    5.1477   14.5606 H   0  0  0  0  0  0  0  0  0  0  0  0
    8.5295    4.0010   13.1097 C   0  0  0  0  0  0  0  0  0  0  0  0
    7.6810    3.3975   12.8220 H   0  0  0  0  0  0  0  0  0  0  0  0
    9.7514    3.7879   12.4999 C   0  0  0  0  0  0  0  0  0  0  0  0
    9.8414    3.0217   11.7444 H   0  0  0  0  0  0  0  0  0  0  0  0
   13.3673    4.8793   12.8975 C   0  0  0  0  0  0  0  0  0  0  0  0
   14.2842    5.7679   12.3568 C   0  0  0  0  0  0  0  0  0  0  0  0
   14.1565    6.1336   11.3492 H   0  0  0  0  0  0  0  0  0  0  0  0
   15.3755    6.1931   13.0960 C   0  0  0  0  0  0  0  0  0  0  0  0
   16.0763    6.8875   12.6562 H   0  0  0  0  0  0  0  0  0  0  0  0
   15.5691    5.7323   14.3846 C   0  0  0  0  0  0  0  0  0  0  0  0
   16.4198    6.0649   14.9604 H   0  0  0  0  0  0  0  0  0  0  0  0
   14.6651    4.8351   14.9296 C   0  0  0  0  0  0  0  0  0  0  0  0
   14.8085    4.4621   15.9329 H   0  0  0  0  0  0  0  0  0  0  0  0
   13.5771    4.4103   14.1927 C   0  0  0  0  0  0  0  0  0  0  0  0
   12.8803    3.7083   14.6259 H   0  0  0  0  0  0  0  0  0  0  0  0
   12.4748    2.8791   11.8411 C   0  0  0  0  0  0  0  0  0  0  0  0
   13.2561    2.5322   10.7463 C   0  0  0  0  0  0  0  0  0  0  0  0
   13.6314    3.3031   10.0885 H   0  0  0  0  0  0  0  0  0  0  0  0
   13.5433    1.2074   10.4747 C   0  0  0  0  0  0  0  0  0  0  0  0
   14.1284    0.9568    9.6032 H   0  0  0  0  0  0  0  0  0  0  0  0
   13.0721    0.2095   11.3083 C   0  0  0  0  0  0  0  0  0  0  0  0
   13.2831   -0.8260   11.0900 H   0  0  0  0  0  0  0  0  0  0  0  0
   12.3235    0.5478   12.4211 C   0  0  0  0  0  0  0  0  0  0  0  0
   11.9544   -0.2221   13.0822 H   0  0  0  0  0  0  0  0  0  0  0  0
   12.0283    1.8721   12.6891 C   0  0  0  0  0  0  0  0  0  0  0  0
   11.4317    2.1139   13.5573 H   0  0  0  0  0  0  0  0  0  0  0  0
  1  2  1  0  0  0  0
  2  4  1  0  0  0  0
  2  3  1  0  0  0  0
  3 25  1  0  0  0  0
  3 28  1  1  0  0  0
  4  7  1  1  0  0  0
  4 22  1  0  0  0  0
  5  7  1  0  0  0  0
  6 18  1  0  0  0  0
  7  6  1  0  0  0  0
  8 11  1  0  0  0  0
  8  5  1  0  0  0  0
  9  8  1  0  0  0  0
 10  8  1  0  0  0  0
 12  5  1  0  0  0  0
 12 15  1  0  0  0  0
 13 12  1  0  0  0  0
 14 12  1  0  0  0  0
 15 17  1  0  0  0  0
 15  6  1  0  0  0  0
 16 15  1  0  0  0  0
 18 20  1  0  0  0  0
 18 19  1  0  0  0  0
 18 21  1  0  0  0  0
 22 25  1  0  0  0  0
 22 23  1  0  0  0  0
 24 22  1  0  0  0  0
 25 26  1  0  0  0  0
 27 25  1  0  0  0  0
 28 29  1  0  0  0  0
 28 40  1  0  0  0  0
 29 30  1  0  0  0  0
 30 31  1  0  0  0  0
 30 32  2  0  0  0  0
 32 33  1  0  0  0  0
 34 32  1  0  0  0  0
 34 35  1  0  0  0  0
 36 34  2  0  0  0  0
 37 36  1  0  0  0  0
 38 29  2  0  0  0  0
 38 36  1  0  0  0  0
 39 38  1  0  0  0  0
 40 49  1  0  0  0  0
 41 40  2  0  0  0  0
 41 43  1  0  0  0  0
 42 41  1  0  0  0  0
 43 45  2  0  0  0  0
 44 43  1  0  0  0  0
 45 47  1  0  0  0  0
 45 46  1  0  0  0  0
 47 48  1  0  0  0  0
 49 50  1  0  0  0  0
 49 47  2  0  0  0  0
 51 28  1  0  0  0  0
 51 60  1  0  0  0  0
 52 51  2  0  0  0  0
 53 52  1  0  0  0  0
 54 52  1  0  0  0  0
 54 56  2  0  0  0  0
 55 54  1  0  0  0  0
 56 58  1  0  0  0  0
 57 56  1  0  0  0  0
 58 60  2  0  0  0  0
 58 59  1  0  0  0  0
 60 61  1  0  0  0  0
M  END
$$$$
