CSD_code = NAPYOT | q = 1 | S = 0 | Stoichiometry = C28H22ClN6Ru(1+) | MND = 6
 OpenBabel04212202073D

 58 66  0  0  1  0  0  0  0  0999 V2000
    1.8311    3.0896    2.0075 Ru  0  0  0  0  0  0  0  0  0  0  0  0
    2.1048    5.3573    2.5142 Cl  0  0  0  0  0  0  0  0  0  0  0  0
    5.3713    0.9563    2.0097 N   0  0  0  0  0  0  0  0  0  0  0  0
    3.7980    2.5389    2.1543 N   0  0  0  0  0  0  0  0  0  0  0  0
    1.7350    1.1138    1.6110 N   0  0  0  0  0  0  0  0  0  0  0  0
    1.2905    2.8116    3.9254 N   0  0  0  0  0  0  0  0  0  0  0  0
    0.0174    3.5401    1.8488 N   0  0  0  0  0  0  0  0  0  0  0  0
    1.8281    3.6130    0.0637 N   0  0  0  0  0  0  0  0  0  0  0  0
    6.0320   -0.3051    1.8129 C   0  0  0  0  0  0  0  0  0  0  0  0
    5.0065    3.1291    2.3976 C   0  0  0  0  0  0  0  0  0  0  0  0
    5.3327    4.4538    2.6907 C   0  0  0  0  0  0  0  0  0  0  0  0
    6.6621    4.7467    2.8875 C   0  0  0  0  0  0  0  0  0  0  0  0
    7.6530    3.7613    2.7994 C   0  0  0  0  0  0  0  0  0  0  0  0
    7.3499    2.4481    2.5112 C   0  0  0  0  0  0  0  0  0  0  0  0
    6.0102    2.1362    2.3089 C   0  0  0  0  0  0  0  0  0  0  0  0
    4.0363    1.2443    1.9279 C   0  0  0  0  0  0  0  0  0  0  0  0
    2.8984    0.4059    1.6432 C   0  0  0  0  0  0  0  0  0  0  0  0
    2.9082   -0.9739    1.4263 C   0  0  0  0  0  0  0  0  0  0  0  0
    1.7236   -1.6343    1.1667 C   0  0  0  0  0  0  0  0  0  0  0  0
    0.5432   -0.9000    1.1282 C   0  0  0  0  0  0  0  0  0  0  0  0
    0.6003    0.4594    1.3563 C   0  0  0  0  0  0  0  0  0  0  0  0
    2.0477    2.4659    4.9625 C   0  0  0  0  0  3  0  0  0  0  0  0
    1.5673    2.3951    6.2568 C   0  0  0  0  0  0  0  0  0  0  0  0
    0.2320    2.6969    6.4923 C   0  0  0  0  0  0  0  0  0  0  0  0
   -0.5627    3.0640    5.4231 C   0  0  0  0  0  0  0  0  0  0  0  0
   -0.0122    3.1231    4.1439 C   0  0  0  0  0  0  0  0  0  0  0  0
   -0.7478    3.5500    2.9546 C   0  0  1  0  0  3  0  0  0  0  0  0
   -2.0667    3.9900    2.8911 C   0  0  0  0  0  0  0  0  0  0  0  0
   -2.5652    4.4382    1.6761 C   0  0  0  0  0  0  0  0  0  0  0  0
   -1.7409    4.4782    0.5605 C   0  0  0  0  0  0  0  0  0  0  0  0
   -0.4295    4.0270    0.6777 C   0  0  0  0  0  0  0  0  0  0  0  0
    0.6150    4.0645   -0.3447 C   0  0  1  0  0  3  0  0  0  0  0  0
    0.4256    4.5558   -1.6353 C   0  0  0  0  0  0  0  0  0  0  0  0
    1.4924    4.6013   -2.5125 C   0  0  0  0  0  0  0  0  0  0  0  0
    2.7320    4.1510   -2.0766 C   0  0  0  0  0  0  0  0  0  0  0  0
    2.8490    3.6673   -0.7869 C   0  0  0  0  0  0  0  0  0  0  0  0
   -0.3050    1.0541    1.3349 H   0  0  0  0  0  0  0  0  0  0  0  0
   -2.1090    4.8703   -0.3727 H   0  0  0  0  0  0  0  0  0  0  0  0
    3.8043    3.3201   -0.4109 H   0  0  0  0  0  0  0  0  0  0  0  0
   -0.5458    4.9097   -1.9390 H   0  0  0  0  0  0  0  0  0  0  0  0
    3.0871    2.2493    4.7442 H   0  0  0  0  0  0  0  0  0  0  0  0
    4.5574    5.2005    2.7553 H   0  0  0  0  0  0  0  0  0  0  0  0
    3.8286   -1.5280    1.4649 H   0  0  0  0  0  0  0  0  0  0  0  0
    1.3656    4.9886   -3.5108 H   0  0  0  0  0  0  0  0  0  0  0  0
   -0.4026   -1.3751    0.9274 H   0  0  0  0  0  0  0  0  0  0  0  0
   -2.6878    4.0032    3.7710 H   0  0  0  0  0  0  0  0  0  0  0  0
    5.7352   -1.0255    2.5779 H   0  0  0  0  0  0  0  0  0  0  0  0
    8.1275    1.7032    2.4494 H   0  0  0  0  0  0  0  0  0  0  0  0
    3.5946    4.1825   -2.7217 H   0  0  0  0  0  0  0  0  0  0  0  0
    6.9536    5.7595    3.1159 H   0  0  0  0  0  0  0  0  0  0  0  0
   -3.5841    4.7831    1.6059 H   0  0  0  0  0  0  0  0  0  0  0  0
    2.2265    2.1184    7.0632 H   0  0  0  0  0  0  0  0  0  0  0  0
   -1.5994    3.3157    5.5747 H   0  0  0  0  0  0  0  0  0  0  0  0
    8.6827    4.0385    2.9626 H   0  0  0  0  0  0  0  0  0  0  0  0
    1.7171   -2.6990    0.9985 H   0  0  0  0  0  0  0  0  0  0  0  0
   -0.1755    2.6555    7.4899 H   0  0  0  0  0  0  0  0  0  0  0  0
    7.1054   -0.1476    1.8893 H   0  0  0  0  0  0  0  0  0  0  0  0
    5.8137   -0.7064    0.8217 H   0  0  0  0  0  0  0  0  0  0  0  0
  1  4  1  0  0  0  0
  1  2  1  0  0  0  0
  1  6  1  0  0  0  0
  3 15  1  0  0  0  0
  4 10  1  0  0  0  0
  5 17  1  0  0  0  0
  5  1  1  0  0  0  0
  6 26  1  0  0  0  0
  6 22  1  0  0  0  0
  7  1  1  0  0  0  0
  7 27  1  0  0  0  0
  8  1  1  0  0  0  0
  9 57  1  0  0  0  0
  9  3  1  0  0  0  0
  9 47  1  0  0  0  0
 10 11  1  0  0  0  0
 11 42  1  0  0  0  0
 11 12  2  0  0  0  0
 12 50  1  0  0  0  0
 13 12  1  0  0  0  0
 13 54  1  0  0  0  0
 14 13  2  0  0  0  0
 15 10  2  0  0  0  0
 15 14  1  0  0  0  0
 16  3  1  0  0  0  0
 16  4  1  0  0  0  0
 17 16  2  0  0  0  0
 18 43  1  0  0  0  0
 18 17  1  0  0  0  0
 19 18  2  0  0  0  0
 20 19  1  0  0  0  0
 20 21  2  0  0  0  0
 21  5  1  0  0  0  0
 22 23  1  0  0  0  0
 23 24  2  0  0  0  0
 23 52  1  0  0  0  0
 24 56  1  0  0  0  0
 25 53  1  0  0  0  0
 25 24  1  0  0  0  0
 26 25  2  0  0  0  0
 27 28  1  1  0  0  0
 27 26  1  0  0  0  0
 28 46  1  0  0  0  0
 29 28  2  0  0  0  0
 30 31  2  0  0  0  0
 30 29  1  0  0  0  0
 31  7  1  0  0  0  0
 32 33  1  1  0  0  0
 32  8  1  0  0  0  0
 32 31  1  0  0  0  0
 34 35  1  0  0  0  0
 34 33  2  0  0  0  0
 35 36  2  0  0  0  0
 36 39  1  0  0  0  0
 36  8  1  0  0  0  0
 37 21  1  0  0  0  0
 38 30  1  0  0  0  0
 40 33  1  0  0  0  0
 41 22  1  0  0  0  0
 44 34  1  0  0  0  0
 45 20  1  0  0  0  0
 48 14  1  0  0  0  0
 49 35  1  0  0  0  0
 51 29  1  0  0  0  0
 55 19  1  0  0  0  0
 58  9  1  0  0  0  0
M  END
$$$$
