CSD_code = NAPZUA | q = 1 | S = 0 | Stoichiometry = C27H19ClN5RuS(1+) | MND = 6
 OpenBabel04212202073D

 54 62  0  0  1  0  0  0  0  0999 V2000
    0.3283    1.5569   11.2648 Ru  0  0  0  0  0  0  0  0  0  0  0  0
    0.4332    2.5813   13.3636 Cl  0  0  0  0  0  0  0  0  0  0  0  0
    1.4392   -1.3766    8.0445 S   0  0  0  0  0  0  0  0  0  0  0  0
    0.4104    0.5090    9.4954 N   0  0  0  0  0  0  0  0  0  0  0  0
    1.8204    0.2511   11.6697 N   0  0  0  0  0  0  0  0  0  0  0  0
   -1.2141    0.4582   11.9453 N   0  0  0  0  0  0  0  0  0  0  0  0
   -1.0572    2.7994   10.9608 N   0  0  0  0  0  0  0  0  0  0  0  0
    1.4365    3.0694   10.5371 N   0  0  0  0  0  0  0  0  0  0  0  0
    0.1556   -0.4130    7.3733 C   0  0  0  0  0  0  0  0  0  0  0  0
   -0.4224   -0.5141    6.1176 C   0  0  0  0  0  0  0  0  0  0  0  0
   -0.0838   -1.2613    5.4184 H   0  0  0  0  0  0  0  0  0  0  0  0
   -1.4361    0.3653    5.7964 C   0  0  0  0  0  0  0  0  0  0  0  0
   -1.9022    0.3074    4.8258 H   0  0  0  0  0  0  0  0  0  0  0  0
   -1.8653    1.3289    6.7096 C   0  0  0  0  0  0  0  0  0  0  0  0
   -2.6592    2.0040    6.4310 H   0  0  0  0  0  0  0  0  0  0  0  0
   -1.2944    1.4328    7.9587 C   0  0  0  0  0  0  0  0  0  0  0  0
   -1.6274    2.1788    8.6633 H   0  0  0  0  0  0  0  0  0  0  0  0
   -0.2683    0.5540    8.3082 C   0  0  0  0  0  0  0  0  0  0  0  0
    1.3252   -0.4411    9.5019 C   0  0  0  0  0  0  0  0  0  0  0  0
    2.1285   -0.6218   10.6779 C   0  0  0  0  0  0  0  0  0  0  0  0
    3.1267   -1.5880   10.8104 C   0  0  0  0  0  0  0  0  0  0  0  0
    3.3296   -2.2574    9.9891 H   0  0  0  0  0  0  0  0  0  0  0  0
    3.8291   -1.6601   11.9969 C   0  0  0  0  0  0  0  0  0  0  0  0
    4.6055   -2.3957   12.1320 H   0  0  0  0  0  0  0  0  0  0  0  0
    3.5111   -0.7626   13.0123 C   0  0  0  0  0  0  0  0  0  0  0  0
    4.0351   -0.7853   13.9536 H   0  0  0  0  0  0  0  0  0  0  0  0
    2.5093    0.1690   12.8093 C   0  0  0  0  0  0  0  0  0  0  0  0
    2.2354    0.8823   13.5772 H   0  0  0  0  0  0  0  0  0  0  0  0
   -1.2050   -0.7780   12.4380 C   0  0  0  0  0  3  0  0  0  0  0  0
   -0.2475   -1.2869   12.4459 H   0  0  0  0  0  0  0  0  0  0  0  0
   -2.3354   -1.4025   12.9313 C   0  0  0  0  0  0  0  0  0  0  0  0
   -2.2693   -2.4029   13.3263 H   0  0  0  0  0  0  0  0  0  0  0  0
   -3.5416   -0.7142   12.9152 C   0  0  0  0  0  0  0  0  0  0  0  0
   -4.4414   -1.1688   13.2979 H   0  0  0  0  0  0  0  0  0  0  0  0
   -3.5639    0.5696   12.4039 C   0  0  0  0  0  0  0  0  0  0  0  0
   -4.4830    1.1314   12.3798 H   0  0  0  0  0  0  0  0  0  0  0  0
   -2.3863    1.1417   11.9263 C   0  0  0  0  0  0  0  0  0  0  0  0
   -2.2941    2.5011   11.3949 C   0  0  1  0  0  3  0  0  0  0  0  0
   -3.3033    3.4591   11.3514 C   0  0  0  0  0  0  0  0  0  0  0  0
   -4.2970    3.2310   11.6983 H   0  0  0  0  0  0  0  0  0  0  0  0
   -3.0010    4.7285   10.8795 C   0  0  0  0  0  0  0  0  0  0  0  0
   -3.7681    5.4848   10.8385 H   0  0  0  0  0  0  0  0  0  0  0  0
   -1.7023    5.0365   10.5000 C   0  0  0  0  0  0  0  0  0  0  0  0
   -1.4511    6.0350   10.1843 H   0  0  0  0  0  0  0  0  0  0  0  0
   -0.7306    4.0415   10.5635 C   0  0  0  0  0  0  0  0  0  0  0  0
    0.6986    4.1805   10.2865 C   0  0  1  0  0  3  0  0  0  0  0  0
    1.2924    5.3527    9.8229 C   0  0  0  0  0  0  0  0  0  0  0  0
    0.6867    6.2228    9.6304 H   0  0  0  0  0  0  0  0  0  0  0  0
    2.6592    5.3932    9.6220 C   0  0  0  0  0  0  0  0  0  0  0  0
    3.1366    6.2946    9.2725 H   0  0  0  0  0  0  0  0  0  0  0  0
    3.4040    4.2510    9.8859 C   0  0  0  0  0  0  0  0  0  0  0  0
    4.4731    4.2387    9.7510 H   0  0  0  0  0  0  0  0  0  0  0  0
    2.7515    3.1196   10.3390 C   0  0  0  0  0  0  0  0  0  0  0  0
    3.3072    2.2157   10.5622 H   0  0  0  0  0  0  0  0  0  0  0  0
  1  5  1  0  0  0  0
  1  6  1  0  0  0  0
  1  2  1  0  0  0  0
  3 19  1  0  0  0  0
  4 19  1  0  0  0  0
  4  1  1  0  0  0  0
  5 27  1  0  0  0  0
  6 29  1  0  0  0  0
  7  1  1  0  0  0  0
  7 38  1  0  0  0  0
  8  1  1  0  0  0  0
  9  3  1  0  0  0  0
  9 18  1  0  0  0  0
 10  9  2  0  0  0  0
 11 10  1  0  0  0  0
 12 10  1  0  0  0  0
 12 14  2  0  0  0  0
 13 12  1  0  0  0  0
 14 16  1  0  0  0  0
 15 14  1  0  0  0  0
 16 18  2  0  0  0  0
 16 17  1  0  0  0  0
 18  4  1  0  0  0  0
 19 20  2  0  0  0  0
 20 21  1  0  0  0  0
 20  5  1  0  0  0  0
 21 23  2  0  0  0  0
 22 21  1  0  0  0  0
 23 24  1  0  0  0  0
 23 25  1  0  0  0  0
 25 26  1  0  0  0  0
 27 25  2  0  0  0  0
 27 28  1  0  0  0  0
 29 30  1  0  0  0  0
 29 31  1  0  0  0  0
 31 32  1  0  0  0  0
 33 31  2  0  0  0  0
 33 34  1  0  0  0  0
 35 33  1  0  0  0  0
 36 35  1  0  0  0  0
 37  6  1  0  0  0  0
 37 35  2  0  0  0  0
 38 39  1  1  0  0  0
 38 37  1  0  0  0  0
 39 40  1  0  0  0  0
 41 39  2  0  0  0  0
 42 41  1  0  0  0  0
 43 45  2  0  0  0  0
 43 41  1  0  0  0  0
 44 43  1  0  0  0  0
 45  7  1  0  0  0  0
 46 47  1  1  0  0  0
 46  8  1  0  0  0  0
 46 45  1  0  0  0  0
 48 47  1  0  0  0  0
 49 47  2  0  0  0  0
 49 51  1  0  0  0  0
 50 49  1  0  0  0  0
 51 53  2  0  0  0  0
 52 51  1  0  0  0  0
 53  8  1  0  0  0  0
 53 54  1  0  0  0  0
M  END
$$$$
