CSD_code = NAQGAQ | q = 1 | S = 0 | Stoichiometry = C19H13ClN5Pd(1+) | MND = 4
 OpenBabel04212202073D

 39 45  0  0  1  0  0  0  0  0999 V2000
    3.7183    2.7580   15.9456 C   0  0  2  0  0  3  0  0  0  0  0  0
    5.4399    2.0927   17.1281 C   0  0  0  0  0  0  0  0  0  0  0  0
    6.4073    1.6721   17.3304 H   0  0  0  0  0  0  0  0  0  0  0  0
    4.5020    2.6140   18.0185 C   0  0  0  0  0  0  0  0  0  0  0  0
    4.4739    2.7673   19.4144 C   0  0  0  0  0  0  0  0  0  0  0  0
    5.3261    2.4367   19.9847 H   0  0  0  0  0  0  0  0  0  0  0  0
    3.3733    3.3247   19.9982 C   0  0  0  0  0  0  0  0  0  0  0  0
    3.3188    3.4551   21.0661 H   0  0  0  0  0  0  0  0  0  0  0  0
    2.2887    3.7355   19.1914 C   0  0  0  0  0  0  0  0  0  0  0  0
    1.4175    4.1749   19.6481 H   0  0  0  0  0  0  0  0  0  0  0  0
    2.3260    3.5837   17.8408 C   0  0  0  0  0  0  0  0  0  0  0  0
    1.5130    3.8863   17.2051 H   0  0  0  0  0  0  0  0  0  0  0  0
    3.0001    2.9549   14.7025 C   0  0  0  0  0  0  0  0  0  0  0  0
    1.7489    3.5227   14.4568 C   0  0  0  0  0  0  0  0  0  0  0  0
    1.1323    3.9125   15.2469 H   0  0  0  0  0  0  0  0  0  0  0  0
    1.2967    3.5847   13.1466 C   0  0  0  0  0  0  0  0  0  0  0  0
    0.3326    4.0221   12.9411 H   0  0  0  0  0  0  0  0  0  0  0  0
    2.0591    3.0968   12.0952 C   0  0  0  0  0  0  0  0  0  0  0  0
    1.6770    3.1606   11.0920 H   0  0  0  0  0  0  0  0  0  0  0  0
    3.3059    2.5383   12.3808 C   0  0  0  0  0  0  0  0  0  0  0  0
    4.3040    1.9617   11.5026 C   0  0  0  0  0  0  0  0  0  0  0  0
    6.2323    1.0032   11.0927 C   0  0  0  0  0  0  0  0  0  0  0  0
    7.1972    0.5778   11.2969 H   0  0  0  0  0  0  0  0  0  0  0  0
    5.5751    1.1512    9.8719 C   0  0  0  0  0  0  0  0  0  0  0  0
    5.9073    0.8198    8.5480 C   0  0  0  0  0  0  0  0  0  0  0  0
    6.8571    0.3476    8.3589 H   0  0  0  0  0  0  0  0  0  0  0  0
    5.0200    1.1042    7.5509 C   0  0  0  0  0  0  0  0  0  0  0  0
    5.2430    0.8629    6.5249 H   0  0  0  0  0  0  0  0  0  0  0  0
    3.7905    1.7240    7.8673 C   0  0  0  0  0  0  0  0  0  0  0  0
    3.0873    1.9509    7.0833 H   0  0  0  0  0  0  0  0  0  0  0  0
    3.4780    2.0405    9.1521 C   0  0  0  0  0  0  0  0  0  0  0  0
    2.5488    2.5114    9.4194 H   0  0  0  0  0  0  0  0  0  0  0  0
    7.4304    0.8691   14.4418 Cl  0  0  0  0  0  0  0  0  0  0  0  0
    5.4532    1.4946   12.0563 N   0  0  0  0  0  0  0  0  0  0  0  0
    4.3563    1.7603   10.1543 N   0  0  0  0  0  0  0  0  0  0  0  0
    3.7219    2.4927   13.6621 N   0  0  0  0  0  0  0  0  0  0  0  0
    4.9500    2.1876   15.8919 N   0  0  0  0  0  0  0  0  0  0  0  0
    3.4196    3.0289   17.2488 N   0  0  0  0  0  0  0  0  0  0  0  0
    5.4594    1.7314   14.0275 Pd  0  0  2  0  0  0  0  0  0  0  0  0
  1 13  1  1  0  0  0
  1 38  1  0  0  0  0
  2  3  1  0  0  0  0
  2  4  2  0  0  0  0
  4  5  1  0  0  0  0
  5  6  1  0  0  0  0
  5  7  2  0  0  0  0
  7  8  1  0  0  0  0
  9 10  1  0  0  0  0
  9  7  1  0  0  0  0
 11  9  2  0  0  0  0
 12 11  1  0  0  0  0
 14 13  2  0  0  0  0
 14 15  1  0  0  0  0
 16 14  1  0  0  0  0
 17 16  1  0  0  0  0
 18 20  1  0  0  0  0
 18 16  2  0  0  0  0
 19 18  1  0  0  0  0
 20 36  1  0  0  0  0
 21 34  1  0  0  0  0
 21 20  2  0  0  0  0
 22 23  1  0  0  0  0
 22 34  1  0  0  0  0
 24 35  1  0  0  0  0
 24 22  2  0  0  0  0
 25 24  1  0  0  0  0
 26 25  1  0  0  0  0
 27 29  1  0  0  0  0
 27 25  2  0  0  0  0
 28 27  1  0  0  0  0
 29 31  2  0  0  0  0
 30 29  1  0  0  0  0
 31 32  1  0  0  0  0
 31 35  1  0  0  0  0
 34 39  1  0  0  0  0
 35 21  1  0  0  0  0
 36 39  1  0  0  0  0
 36 13  1  0  0  0  0
 37  1  1  0  0  0  0
 37  2  1  0  0  0  0
 38 11  1  0  0  0  0
 38  4  1  0  0  0  0
 39 33  1  6  0  0  0
 39 37  1  0  0  0  0
M  END
$$$$
