CSD_code = NAQGOE | q = 0 | S = 0 | Stoichiometry = C14H18Cl2N2Zn | MND = 4
 OpenBabel04212202073D

 37 38  0  0  0  0  0  0  0  0999 V2000
    6.2765    5.3151    3.7720 Zn  0  0  0  0  0  0  0  0  0  0  0  0
    5.3860    3.3731    4.3270 Cl  0  0  0  0  0  0  0  0  0  0  0  0
    7.3535    6.9641    4.7959 Cl  0  0  0  0  0  0  0  0  0  0  0  0
    7.6017    3.5968    1.6504 C   0  0  0  0  0  3  0  0  0  0  0  0
    6.7653    2.9701    1.9244 H   0  0  0  0  0  0  0  0  0  0  0  0
    8.5831    3.1651    0.7761 C   0  0  0  0  0  0  0  0  0  0  0  0
    8.5215    2.1820    0.3369 H   0  0  0  0  0  0  0  0  0  0  0  0
    9.6421    4.0105    0.4880 C   0  0  0  0  0  0  0  0  0  0  0  0
   10.4287    3.6967   -0.1834 H   0  0  0  0  0  0  0  0  0  0  0  0
    9.6868    5.2696    1.0759 C   0  0  0  0  0  0  0  0  0  0  0  0
    8.6501    5.6112    1.9361 C   0  0  0  0  0  0  0  0  0  0  0  0
    8.6343    6.5707    2.4349 H   0  0  0  0  0  0  0  0  0  0  0  0
   10.8312    6.2114    0.8573 C   0  0  0  0  0  0  0  0  0  0  0  0
   11.3334    5.9738   -0.0822 H   0  0  0  0  0  0  0  0  0  0  0  0
   10.4584    7.2355    0.8026 H   0  0  0  0  0  0  0  0  0  0  0  0
   11.8278    6.1022    2.0138 C   0  0  0  0  0  0  0  0  0  0  0  0
   12.6601    6.7837    1.8587 H   0  0  0  0  0  0  0  0  0  0  0  0
   12.2172    5.0891    2.0862 H   0  0  0  0  0  0  0  0  0  0  0  0
   11.3433    6.3525    2.9541 H   0  0  0  0  0  0  0  0  0  0  0  0
    3.6056    5.6726    2.3871 C   0  0  0  0  0  3  0  0  0  0  0  0
    3.6495    4.5969    2.4780 H   0  0  0  0  0  0  0  0  0  0  0  0
    2.4942    6.3187    1.8756 C   0  0  0  0  0  0  0  0  0  0  0  0
    1.6422    5.7473    1.5428 H   0  0  0  0  0  0  0  0  0  0  0  0
    2.4963    7.7022    1.8087 C   0  0  0  0  0  0  0  0  0  0  0  0
    1.6401    8.2347    1.4197 H   0  0  0  0  0  0  0  0  0  0  0  0
    3.6091    8.4039    2.2589 C   0  0  0  0  0  0  0  0  0  0  0  0
    4.6769    7.6628    2.7508 C   0  0  0  0  0  0  0  0  0  0  0  0
    5.5661    8.1493    3.1285 H   0  0  0  0  0  0  0  0  0  0  0  0
    3.6903    9.8981    2.1829 C   0  0  0  0  0  0  0  0  0  0  0  0
    2.6860   10.3242    2.2058 H   0  0  0  0  0  0  0  0  0  0  0  0
    4.2479   10.2769    3.0406 H   0  0  0  0  0  0  0  0  0  0  0  0
    4.3961   10.3271    0.8945 C   0  0  0  0  0  0  0  0  0  0  0  0
    4.4502   11.4111    0.8395 H   0  0  0  0  0  0  0  0  0  0  0  0
    3.8560    9.9620    0.0235 H   0  0  0  0  0  0  0  0  0  0  0  0
    5.4067    9.9270    0.8659 H   0  0  0  0  0  0  0  0  0  0  0  0
    7.6386    4.7990    2.2168 N   0  0  0  0  0  0  0  0  0  0  0  0
    4.6753    6.3370    2.8126 N   0  0  0  0  0  0  0  0  0  0  0  0
  1  2  1  0  0  0  0
  1  3  1  0  0  0  0
  4  5  1  0  0  0  0
  4 36  1  0  0  0  0
  6  4  1  0  0  0  0
  7  6  1  0  0  0  0
  8  6  2  0  0  0  0
  8 10  1  0  0  0  0
  9  8  1  0  0  0  0
 10 11  2  0  0  0  0
 11 36  1  0  0  0  0
 11 12  1  0  0  0  0
 13 10  1  0  0  0  0
 13 16  1  0  0  0  0
 14 13  1  0  0  0  0
 15 13  1  0  0  0  0
 16 18  1  0  0  0  0
 16 19  1  0  0  0  0
 17 16  1  0  0  0  0
 20 21  1  0  0  0  0
 20 37  1  0  0  0  0
 22 20  1  0  0  0  0
 23 22  1  0  0  0  0
 24 22  2  0  0  0  0
 24 26  1  0  0  0  0
 25 24  1  0  0  0  0
 26 27  2  0  0  0  0
 27 37  1  0  0  0  0
 27 28  1  0  0  0  0
 29 30  1  0  0  0  0
 29 26  1  0  0  0  0
 29 31  1  0  0  0  0
 32 29  1  0  0  0  0
 33 32  1  0  0  0  0
 34 32  1  0  0  0  0
 35 32  1  0  0  0  0
 36  1  1  0  0  0  0
 37  1  1  0  0  0  0
M  END
$$$$
