CSD_code = NAQRUV | q = 0 | S = 0 | Stoichiometry = C17H10Cl3N3O2Ru | MND = 6
 OpenBabel04212202073D

 36 39  0  0  1  0  0  0  0  0999 V2000
    6.5674    1.9805    2.9589 Ru  0  0  0  0  0  0  0  0  0  0  0  0
    8.0366    1.3486    4.7436 Cl  0  0  0  0  0  0  0  0  0  0  0  0
    3.7017    0.5851    8.5467 Cl  0  0  0  0  0  0  0  0  0  0  0  0
    4.9832    2.9566    1.4559 Cl  0  0  0  0  0  0  0  0  0  0  0  0
    6.8706   -0.7511    1.7560 O   0  0  0  0  0  1  0  0  0  0  0  0
    8.8673    2.6378    1.1621 O   0  0  0  0  0  1  0  0  0  0  0  0
    5.1287    1.6069    4.4143 N   0  0  0  0  0  0  0  0  0  0  0  0
    6.4905    3.7809    3.8690 N   0  0  0  0  0  0  0  0  0  0  0  0
    4.5227   -1.7908    3.8293 N   0  0  0  0  0  0  0  0  0  0  0  0
    7.9811    2.3968    1.8363 C   0  0  0  0  0  2  0  0  0  0  0  0
    4.3152   -0.5078    3.5435 C   0  0  0  0  0  0  0  0  0  0  0  0
    4.5244    0.4402    4.6541 C   0  0  2  0  0  3  0  0  0  0  0  0
    4.2171    0.9836    6.9612 C   0  0  0  0  0  0  0  0  0  0  0  0
    3.9646   -2.3506    1.5806 C   0  0  0  0  0  0  0  0  0  0  0  0
    3.8601   -3.1153    0.8273 H   0  0  0  0  0  0  0  0  0  0  0  0
    4.7816    2.2257    6.7028 C   0  0  0  0  0  0  0  0  0  0  0  0
    4.9077    2.9382    7.5000 H   0  0  0  0  0  0  0  0  0  0  0  0
    4.0682    0.0834    5.9206 C   0  0  0  0  0  0  0  0  0  0  0  0
    3.6316   -0.8910    6.0631 H   0  0  0  0  0  0  0  0  0  0  0  0
    5.8489    3.7800    5.0478 C   0  0  2  0  0  3  0  0  0  0  0  0
    5.2332    2.4983    5.4172 C   0  0  0  0  0  0  0  0  0  0  0  0
    4.3655   -2.6799    2.8695 C   0  0  0  0  0  0  0  0  0  0  0  0
    4.5689   -3.7045    3.1508 H   0  0  0  0  0  0  0  0  0  0  0  0
    6.6568    0.2692    2.2186 C   0  0  0  0  0  2  0  0  0  0  0  0
    3.8661   -0.0733    2.2950 C   0  0  0  0  0  0  0  0  0  0  0  0
    3.6448    0.9680    2.1133 H   0  0  0  0  0  0  0  0  0  0  0  0
    5.7418    4.9356    5.8191 C   0  0  0  0  0  0  0  0  0  0  0  0
    5.2064    4.9195    6.7539 H   0  0  0  0  0  0  0  0  0  0  0  0
    3.6885   -1.0228    1.2998 C   0  0  0  0  0  0  0  0  0  0  0  0
    3.3460   -0.7212    0.3214 H   0  0  0  0  0  0  0  0  0  0  0  0
    7.0290    4.9123    3.4283 C   0  0  0  0  0  0  0  0  0  0  0  0
    7.5210    4.8751    2.4642 H   0  0  0  0  0  0  0  0  0  0  0  0
    6.3156    6.1085    5.3638 C   0  0  0  0  0  0  0  0  0  0  0  0
    6.2474    7.0137    5.9470 H   0  0  0  0  0  0  0  0  0  0  0  0
    6.9681    6.0975    4.1405 C   0  0  0  0  0  0  0  0  0  0  0  0
    7.4221    6.9894    3.7404 H   0  0  0  0  0  0  0  0  0  0  0  0
  1  8  1  0  0  0  0
  1  7  1  0  0  0  0
  1  2  1  0  0  0  0
  4  1  1  0  0  0  0
  5 24  1  0  0  0  0
  6 10  1  0  0  0  0
  7 12  1  0  0  0  0
  7 21  1  0  0  0  0
  8 20  1  0  0  0  0
 10  1  1  0  0  0  0
 11  9  1  0  0  0  0
 12 11  1  6  0  0  0
 12 18  1  0  0  0  0
 13  3  1  0  0  0  0
 14 22  1  0  0  0  0
 15 14  1  0  0  0  0
 16 13  1  0  0  0  0
 16 17  1  0  0  0  0
 18 19  1  0  0  0  0
 18 13  2  0  0  0  0
 20 21  1  6  0  0  0
 20 27  1  0  0  0  0
 21 16  2  0  0  0  0
 22 23  1  0  0  0  0
 22  9  2  0  0  0  0
 24  1  1  0  0  0  0
 25 11  2  0  0  0  0
 26 25  1  0  0  0  0
 27 28  1  0  0  0  0
 29 14  2  0  0  0  0
 29 25  1  0  0  0  0
 30 29  1  0  0  0  0
 31  8  1  0  0  0  0
 31 35  2  0  0  0  0
 32 31  1  0  0  0  0
 33 27  2  0  0  0  0
 33 34  1  0  0  0  0
 35 33  1  0  0  0  0
 36 35  1  0  0  0  0
M  END
$$$$
