CSD_code = NAQROP | q = 1 | S = 0 | Stoichiometry = C17H10Cl2N3O2Ru(1+) | MND = 6
 OpenBabel04212202073D

 35 39  0  0  1  0  0  0  0  0999 V2000
    1.1407    3.7504    3.0714 Ru  0  0  0  0  0  0  0  0  0  0  0  0
   -0.7374    3.5870    4.4507 Cl  0  0  0  0  0  0  0  0  0  0  0  0
   -2.9015    0.3591   -0.5061 Cl  0  0  0  0  0  0  0  0  0  0  0  0
    1.6182    1.8434    3.7030 N   0  0  0  0  0  0  0  0  0  0  0  0
    3.5421    3.9369    1.2646 O   0  0  0  0  0  1  0  0  0  0  0  0
    0.0407    2.7133    1.8515 N   0  0  0  0  0  0  0  0  0  0  0  0
   -0.8504    3.3623    1.0933 C   0  0  0  0  0  0  0  0  0  0  0  0
   -0.7669    4.8260    1.2202 C   0  0  0  0  0  0  0  0  0  0  0  0
    0.9245    0.8905    3.0389 C   0  0  2  0  0  3  0  0  0  0  0  0
    1.8576    4.7285    4.5137 C   0  0  0  0  0  2  0  0  0  0  0  0
    0.0003    1.3850    2.0061 C   0  0  0  0  0  0  0  0  0  0  0  0
    0.1469    5.2818    2.1075 N   0  0  0  0  0  0  0  0  0  0  0  0
   -1.7866    1.2657    0.4188 C   0  0  0  0  0  0  0  0  0  0  0  0
    2.1181    5.2842    5.4661 O   0  0  0  0  0  1  0  0  0  0  0  0
    0.2458    6.5895    2.3209 C   0  0  0  0  0  0  0  0  0  0  0  0
    0.9914    6.9099    3.0391 H   0  0  0  0  0  0  0  0  0  0  0  0
   -0.9047    0.6170    1.2819 C   0  0  0  0  0  0  0  0  0  0  0  0
   -0.9510   -0.4534    1.3872 H   0  0  0  0  0  0  0  0  0  0  0  0
   -1.7825    2.6577    0.3398 C   0  0  0  0  0  0  0  0  0  0  0  0
   -2.5051    3.1592   -0.2810 H   0  0  0  0  0  0  0  0  0  0  0  0
   -1.5929    5.7051    0.5245 C   0  0  0  0  0  0  0  0  0  0  0  0
   -2.3132    5.3277   -0.1821 H   0  0  0  0  0  0  0  0  0  0  0  0
    2.4285    1.4829    4.6923 C   0  0  0  0  0  0  0  0  0  0  0  0
    2.9633    2.2787    5.1973 H   0  0  0  0  0  0  0  0  0  0  0  0
   -0.5520    7.5176    1.6702 C   0  0  0  0  0  0  0  0  0  0  0  0
   -0.4389    8.5678    1.8842 H   0  0  0  0  0  0  0  0  0  0  0  0
    2.5999    0.1623    5.0775 C   0  0  0  0  0  0  0  0  0  0  0  0
    3.2627   -0.0783    5.8925 H   0  0  0  0  0  0  0  0  0  0  0  0
    2.6386    3.8695    1.9527 C   0  0  0  0  0  2  0  0  0  0  0  0
    1.9052   -0.8270    4.3990 C   0  0  0  0  0  0  0  0  0  0  0  0
    2.0147   -1.8654    4.6694 H   0  0  0  0  0  0  0  0  0  0  0  0
   -1.4881    7.0671    0.7524 C   0  0  0  0  0  0  0  0  0  0  0  0
   -2.1266    7.7597    0.2271 H   0  0  0  0  0  0  0  0  0  0  0  0
    1.0598   -0.4561    3.3667 C   0  0  0  0  0  0  0  0  0  0  0  0
    0.5060   -1.2042    2.8244 H   0  0  0  0  0  0  0  0  0  0  0  0
  1  4  1  0  0  0  0
  1  2  1  0  0  0  0
  1 10  1  0  0  0  0
  3 13  1  0  0  0  0
  4 23  1  0  0  0  0
  5 29  1  0  0  0  0
  6 11  1  0  0  0  0
  6  1  1  0  0  0  0
  7  8  2  0  0  0  0
  7  6  1  0  0  0  0
  8 12  1  0  0  0  0
  9 11  1  1  0  0  0
  9 34  1  0  0  0  0
  9  4  1  0  0  0  0
 10 14  1  0  0  0  0
 12 15  1  0  0  0  0
 12  1  1  0  0  0  0
 13 17  1  0  0  0  0
 15 16  1  0  0  0  0
 17 18  1  0  0  0  0
 17 11  2  0  0  0  0
 19 13  2  0  0  0  0
 19  7  1  0  0  0  0
 20 19  1  0  0  0  0
 21 32  2  0  0  0  0
 21  8  1  0  0  0  0
 22 21  1  0  0  0  0
 23 27  2  0  0  0  0
 23 24  1  0  0  0  0
 25 26  1  0  0  0  0
 25 15  2  0  0  0  0
 27 28  1  0  0  0  0
 29  1  1  0  0  0  0
 30 31  1  0  0  0  0
 30 27  1  0  0  0  0
 32 25  1  0  0  0  0
 33 32  1  0  0  0  0
 34 30  2  0  0  0  0
 35 34  1  0  0  0  0
M  END
$$$$
