CSD_code = NAQYEL | q = 0 | S = 0 | Stoichiometry = C25H38Cl2N4Ti | MND = 5
 OpenBabel04212202073D

 70 73  0  0  1  0  0  0  0  0999 V2000
    2.8390    4.1875    6.9158 C   0  0  1  0  0  3  0  0  0  0  0  0
    3.3558    3.0931    6.2096 C   0  0  0  0  0  0  0  0  0  0  0  0
    3.0942    2.0899    6.5068 H   0  0  0  0  0  0  0  0  0  0  0  0
    4.1980    3.3587    5.1468 C   0  0  0  0  0  0  0  0  0  0  0  0
    4.6125    2.5429    4.5723 H   0  0  0  0  0  0  0  0  0  0  0  0
    4.5164    4.6607    4.8122 C   0  0  0  0  0  0  0  0  0  0  0  0
    5.1601    4.8641    3.9743 H   0  0  0  0  0  0  0  0  0  0  0  0
    3.9610    5.7204    5.5562 C   0  0  0  0  0  0  0  0  0  0  0  0
    5.2598    7.4331    4.3238 C   0  0  0  0  0  0  0  0  0  0  0  0
    4.8970    7.3367    3.2914 H   0  0  0  0  0  0  0  0  0  0  0  0
    6.1698    6.8368    4.4302 H   0  0  0  0  0  0  0  0  0  0  0  0
    5.4870    8.9000    4.6819 C   0  0  0  0  0  0  0  0  0  0  0  0
    5.8719    9.4755    3.8429 H   0  0  0  0  0  0  0  0  0  0  0  0
    6.1910    8.9758    5.5115 H   0  0  0  0  0  0  0  0  0  0  0  0
    4.0981    9.3508    5.1274 C   0  0  0  0  0  0  0  0  0  0  0  0
    3.4782    9.5590    4.2549 H   0  0  0  0  0  0  0  0  0  0  0  0
    4.1231   10.2393    5.7536 H   0  0  0  0  0  0  0  0  0  0  0  0
    3.5608    8.1327    5.8770 C   0  0  0  0  0  0  0  0  0  0  0  0
    3.7867    8.1828    6.9524 H   0  0  0  0  0  0  0  0  0  0  0  0
    2.4782    8.0218    5.7660 H   0  0  0  0  0  0  0  0  0  0  0  0
    3.5212    7.8656    9.9822 C   0  0  0  0  0  0  0  0  0  0  0  0
    2.5737    8.3566    9.7030 H   0  0  0  0  0  0  0  0  0  0  0  0
    4.3429    8.5670    9.7625 H   0  0  0  0  0  0  0  0  0  0  0  0
    3.4952    7.5884   11.4940 C   0  0  0  0  0  0  0  0  0  0  0  0
    2.7259    6.8485   11.7151 H   0  0  0  0  0  0  0  0  0  0  0  0
    3.2675    8.5059   12.0306 H   0  0  0  0  0  0  0  0  0  0  0  0
    4.4579    7.2179   11.8410 H   0  0  0  0  0  0  0  0  0  0  0  0
    4.9514    6.0324    9.2252 C   0  0  0  0  0  0  0  0  0  0  0  0
    4.8635    5.0309    8.7807 H   0  0  0  0  0  0  0  0  0  0  0  0
    5.2870    5.9113   10.2680 H   0  0  0  0  0  0  0  0  0  0  0  0
    6.0400    6.7917    8.4489 C   0  0  0  0  0  0  0  0  0  0  0  0
    5.7674    6.8629    7.3994 H   0  0  0  0  0  0  0  0  0  0  0  0
    6.9825    6.2551    8.5288 H   0  0  0  0  0  0  0  0  0  0  0  0
    6.1822    7.7927    8.8499 H   0  0  0  0  0  0  0  0  0  0  0  0
    1.4526    2.9944    8.5031 C   0  0  0  0  0  0  0  0  0  0  0  0
    0.3638    2.4342    7.8113 C   0  0  0  0  0  0  0  0  0  0  0  0
   -0.2262    1.2892    8.3227 C   0  0  0  0  0  0  0  0  0  0  0  0
   -1.0657    0.8420    7.8149 H   0  0  0  0  0  0  0  0  0  0  0  0
    0.2443    0.7063    9.4861 C   0  0  0  0  0  0  0  0  0  0  0  0
   -0.2219   -0.1922    9.8630 H   0  0  0  0  0  0  0  0  0  0  0  0
    1.2949    1.2806   10.1752 C   0  0  0  0  0  0  0  0  0  0  0  0
    1.6415    0.8237   11.0892 H   0  0  0  0  0  0  0  0  0  0  0  0
    1.9048    2.4351    9.7068 C   0  0  0  0  0  0  0  0  0  0  0  0
    3.0530    3.0779   10.4520 C   0  0  0  0  0  0  0  0  0  0  0  0
    3.1599    4.1098   10.0774 H   0  0  0  0  0  0  0  0  0  0  0  0
    4.3477    2.3113   10.1632 C   0  0  0  0  0  0  0  0  0  0  0  0
    4.2614    1.2818   10.5052 H   0  0  0  0  0  0  0  0  0  0  0  0
    5.1884    2.7763   10.6741 H   0  0  0  0  0  0  0  0  0  0  0  0
    4.5530    2.3014    9.0935 H   0  0  0  0  0  0  0  0  0  0  0  0
    2.7888    3.1717   11.9546 C   0  0  0  0  0  0  0  0  0  0  0  0
    1.8434    3.6800   12.1278 H   0  0  0  0  0  0  0  0  0  0  0  0
    3.5817    3.7440   12.4322 H   0  0  0  0  0  0  0  0  0  0  0  0
    2.7539    2.1892   12.4185 H   0  0  0  0  0  0  0  0  0  0  0  0
   -0.1796    3.1468    6.5909 C   0  0  0  0  0  0  0  0  0  0  0  0
    0.6644    3.5472    6.0142 H   0  0  0  0  0  0  0  0  0  0  0  0
   -1.0367    4.3289    7.0637 C   0  0  0  0  0  0  0  0  0  0  0  0
   -1.8795    3.9687    7.6512 H   0  0  0  0  0  0  0  0  0  0  0  0
   -1.4175    4.8876    6.2105 H   0  0  0  0  0  0  0  0  0  0  0  0
   -0.4466    5.0082    7.6893 H   0  0  0  0  0  0  0  0  0  0  0  0
   -0.9871    2.2465    5.6577 C   0  0  0  0  0  0  0  0  0  0  0  0
   -0.4264    1.3490    5.4050 H   0  0  0  0  0  0  0  0  0  0  0  0
   -1.2095    2.7823    4.7372 H   0  0  0  0  0  0  0  0  0  0  0  0
   -1.9319    1.9570    6.1113 H   0  0  0  0  0  0  0  0  0  0  0  0
    2.0640    4.1599    8.0132 N   0  0  0  0  0  0  0  0  0  0  0  0
    3.1248    5.4761    6.5811 N   0  0  0  0  0  0  0  0  0  0  0  0
    4.2480    7.0073    5.2669 N   0  0  0  0  0  0  0  0  0  0  0  0
    3.6477    6.6609    9.1821 N   0  0  0  0  0  0  0  0  0  0  0  0
    0.8339    5.7892   10.2446 Cl  0  0  0  0  0  0  0  0  0  0  0  0
    0.8048    7.5562    7.5789 Cl  0  0  0  0  0  0  0  0  0  0  0  0
    2.1099    6.0039    8.4593 Ti  0  0  0  0  0  0  0  0  0  0  0  0
  1  2  1  1  0  0  0
  1 64  1  0  0  0  0
  2  3  1  0  0  0  0
  4  2  2  0  0  0  0
  5  4  1  0  0  0  0
  6  4  1  0  0  0  0
  6  8  2  0  0  0  0
  7  6  1  0  0  0  0
  8 65  1  0  0  0  0
  9 11  1  0  0  0  0
  9 12  1  0  0  0  0
  9 66  1  0  0  0  0
 10  9  1  0  0  0  0
 12 15  1  0  0  0  0
 12 14  1  0  0  0  0
 13 12  1  0  0  0  0
 15 17  1  0  0  0  0
 15 18  1  0  0  0  0
 16 15  1  0  0  0  0
 18 19  1  0  0  0  0
 20 18  1  0  0  0  0
 21 24  1  0  0  0  0
 22 21  1  0  0  0  0
 23 21  1  0  0  0  0
 24 25  1  0  0  0  0
 24 27  1  0  0  0  0
 24 26  1  0  0  0  0
 28 30  1  0  0  0  0
 29 28  1  0  0  0  0
 31 33  1  0  0  0  0
 31 34  1  0  0  0  0
 31 28  1  0  0  0  0
 32 31  1  0  0  0  0
 35 43  1  0  0  0  0
 36 37  1  0  0  0  0
 36 35  2  0  0  0  0
 37 39  2  0  0  0  0
 38 37  1  0  0  0  0
 39 40  1  0  0  0  0
 39 41  1  0  0  0  0
 41 42  1  0  0  0  0
 43 41  2  0  0  0  0
 43 44  1  0  0  0  0
 44 50  1  0  0  0  0
 45 44  1  0  0  0  0
 46 44  1  0  0  0  0
 46 47  1  0  0  0  0
 46 48  1  0  0  0  0
 49 46  1  0  0  0  0
 50 51  1  0  0  0  0
 50 53  1  0  0  0  0
 50 52  1  0  0  0  0
 54 56  1  0  0  0  0
 54 36  1  0  0  0  0
 55 54  1  0  0  0  0
 56 57  1  0  0  0  0
 56 59  1  0  0  0  0
 58 56  1  0  0  0  0
 60 63  1  0  0  0  0
 60 54  1  0  0  0  0
 61 60  1  0  0  0  0
 62 60  1  0  0  0  0
 64 70  1  0  0  0  0
 64 35  1  0  0  0  0
 65  1  1  0  0  0  0
 65 70  1  0  0  0  0
 66  8  1  0  0  0  0
 66 18  1  0  0  0  0
 67 28  1  0  0  0  0
 67 21  1  0  0  0  0
 69 70  1  0  0  0  0
 70 67  1  0  0  0  0
 70 68  1  0  0  0  0
M  END
$$$$
