CSD_code = NARFAP | q = 0 | S = 0 | Stoichiometry = C12H11Br2MoN3O2S | MND = 6
 OpenBabel04212202073D

 32 35  0  0  1  0  0  0  0  0999 V2000
    9.0520    7.8012    2.6239 O   0  0  0  0  0  1  0  0  0  0  0  0
    8.1418    8.5701    0.1947 O   0  0  0  0  0  1  0  0  0  0  0  0
    7.7662   11.2476    1.1930 N   0  0  0  0  0  0  0  0  0  0  0  0
    8.6457   10.4991    3.5479 N   0  0  2  0  0  0  0  0  0  0  0  0
    6.9739   13.1380    0.0854 C   0  0  0  0  0  0  0  0  0  0  0  0
    7.8392   12.1510    2.1262 C   0  0  2  0  0  3  0  0  0  0  0  0
    8.2994   11.7993    3.3625 N   0  0  0  0  0  0  0  0  0  0  0  0
    7.2809   11.7656    0.0193 C   0  0  0  0  0  0  0  0  0  0  0  0
    7.0808   11.0682   -1.1688 C   0  0  0  0  0  0  0  0  0  0  0  0
    7.3208   10.0144   -1.2098 H   0  0  0  0  0  0  0  0  0  0  0  0
    6.4727   13.8205   -1.0091 C   0  0  0  0  0  0  0  0  0  0  0  0
    6.2419   14.8715   -0.9430 H   0  0  0  0  0  0  0  0  0  0  0  0
    9.0496   10.3815    4.8012 C   0  0  1  0  0  3  0  0  0  0  0  0
    6.2806   13.1114   -2.1792 C   0  0  0  0  0  0  0  0  0  0  0  0
    5.8906   13.6206   -3.0466 H   0  0  0  0  0  0  0  0  0  0  0  0
    8.4858   12.5243    4.5084 C   0  0  0  0  0  0  0  0  0  0  0  0
    8.9640   11.6391    5.4388 C   0  0  0  0  0  0  0  0  0  0  0  0
    9.2251   11.8514    6.4547 H   0  0  0  0  0  0  0  0  0  0  0  0
    6.5818   11.7524   -2.2562 C   0  0  0  0  0  0  0  0  0  0  0  0
    6.4210   11.2266   -3.1841 H   0  0  0  0  0  0  0  0  0  0  0  0
    9.5010    9.1024    5.3878 C   0  0  0  0  0  0  0  0  0  0  0  0
    9.5117    8.3217    4.6262 H   0  0  0  0  0  0  0  0  0  0  0  0
    8.8273    8.8061    6.1911 H   0  0  0  0  0  0  0  0  0  0  0  0
   10.5000    9.2148    5.8054 H   0  0  0  0  0  0  0  0  0  0  0  0
    8.2005   13.9701    4.6219 C   0  0  0  0  0  0  0  0  0  0  0  0
    7.1480   14.1765    4.4279 H   0  0  0  0  0  0  0  0  0  0  0  0
    8.7962   14.5420    3.9107 H   0  0  0  0  0  0  0  0  0  0  0  0
    8.4420   14.3025    5.6275 H   0  0  0  0  0  0  0  0  0  0  0  0
    8.4739    9.0421    1.7256 Mo  0  0  0  0  0  0  0  0  0  0  0  0
    6.1275    9.0173    2.5794 Br  0  0  0  0  0  0  0  0  0  0  0  0
   10.6600   10.1539    1.2471 Br  0  0  0  0  0  0  0  0  0  0  0  0
    7.3217   13.7495    1.6822 S   0  0  0  0  0  0  0  0  0  0  0  0
  2 29  1  0  0  0  0
  3 29  1  0  0  0  0
  3  6  1  0  0  0  0
  4  7  1  6  0  0  0
  4 13  1  0  0  0  0
  5 32  1  0  0  0  0
  6 32  1  1  0  0  0
  6  7  1  0  0  0  0
  7 16  1  0  0  0  0
  8  5  1  0  0  0  0
  8  3  1  0  0  0  0
  9  8  2  0  0  0  0
 10  9  1  0  0  0  0
 11 12  1  0  0  0  0
 11  5  2  0  0  0  0
 13 21  1  1  0  0  0
 13 17  1  0  0  0  0
 14 11  1  0  0  0  0
 15 14  1  0  0  0  0
 16 25  1  0  0  0  0
 16 17  2  0  0  0  0
 17 18  1  0  0  0  0
 19 14  2  0  0  0  0
 19  9  1  0  0  0  0
 20 19  1  0  0  0  0
 21 24  1  0  0  0  0
 21 23  1  0  0  0  0
 22 21  1  0  0  0  0
 25 28  1  0  0  0  0
 26 25  1  0  0  0  0
 27 25  1  0  0  0  0
 29 30  1  0  0  0  0
 29  1  1  0  0  0  0
 29  4  1  0  0  0  0
 31 29  1  0  0  0  0
M  END
$$$$
