CSD_code = NARKIB | q = 0 | S = 0 | Stoichiometry = C22H21Cl2PZr | MND = 12
 OpenBabel04212202073D

 47 51  0  0  1  0  0  0  0  0999 V2000
    0.1002   12.2799    8.0807 Zr  0  0  0  0  0  0  0  0  0  0  0  0
    2.3268   11.9932    8.6501 Cl  0  0  0  0  0  0  0  0  0  0  0  0
   -0.3128   10.0096    7.8139 Cl  0  0  0  0  0  0  0  0  0  0  0  0
   -2.5410   14.2048    7.5018 P   0  0  2  0  0  0  0  0  0  0  0  0
   -1.6863   13.6328    9.0412 C   0  0  2  0  0  3  0  0  0  0  0  0
   -0.4658   14.0418    9.6588 C   0  0  1  0  0  0  0  0  0  0  0  0
   -0.0325   15.0332    9.6675 H   0  0  0  0  0  0  0  0  0  0  0  0
   -0.0394   12.9817   10.5135 C   0  0  0  0  0  0  0  0  0  0  0  0
    1.0447   12.8616   11.4070 C   0  0  0  0  0  0  0  0  0  0  0  0
    1.7168   13.6954   11.5616 H   0  0  0  0  0  0  0  0  0  0  0  0
    1.2319   11.6699   12.0581 C   0  0  0  0  0  0  0  0  0  0  0  0
    2.0639   11.5557   12.7365 H   0  0  0  0  0  0  0  0  0  0  0  0
    0.3626   10.5791   11.8644 C   0  0  0  0  0  0  0  0  0  0  0  0
    0.5585    9.6599   12.3959 H   0  0  0  0  0  0  0  0  0  0  0  0
   -0.7240   10.6659   11.0320 C   0  0  0  0  0  0  0  0  0  0  0  0
   -1.4016    9.8321   10.9032 H   0  0  0  0  0  0  0  0  0  0  0  0
   -0.9521   11.8738   10.3420 C   0  0  0  0  0  0  0  0  0  0  0  0
   -1.9509   12.2858    9.4120 C   0  0  0  0  0  3  0  0  0  0  0  0
   -2.8349   11.7202    9.1348 H   0  0  0  0  0  0  0  0  0  0  0  0
   -1.0136   13.8031    6.5429 C   0  0  1  0  0  3  0  0  0  0  0  0
    0.3183   14.2911    6.6693 C   0  0  0  0  0  3  0  0  0  0  0  0
    0.6209   15.2807    6.9887 H   0  0  0  0  0  0  0  0  0  0  0  0
    1.1843   13.3563    6.0299 C   0  0  0  0  0  0  0  0  0  0  0  0
    2.5744   13.3545    5.7977 C   0  0  0  0  0  0  0  0  0  0  0  0
    3.1776   14.1992    6.1028 H   0  0  0  0  0  0  0  0  0  0  0  0
    3.1403   12.2604    5.1958 C   0  0  0  0  0  0  0  0  0  0  0  0
    4.2056   12.2365    5.0222 H   0  0  0  0  0  0  0  0  0  0  0  0
    2.3651   11.1550    4.7968 C   0  0  0  0  0  0  0  0  0  0  0  0
    2.8606   10.3144    4.3347 H   0  0  0  0  0  0  0  0  0  0  0  0
    1.0046   11.1315    4.9712 C   0  0  0  0  0  0  0  0  0  0  0  0
    0.4101   10.2889    4.6427 H   0  0  0  0  0  0  0  0  0  0  0  0
    0.3826   12.2371    5.5862 C   0  0  0  0  0  0  0  0  0  0  0  0
   -0.9735   12.5206    5.9286 C   0  0  1  0  0  0  0  0  0  0  0  0
   -1.8401   11.9286    5.6500 H   0  0  0  0  0  0  0  0  0  0  0  0
   -2.6410   16.1002    7.5462 C   0  0  0  0  0  0  0  0  0  0  0  0
   -4.0492   16.3809    8.0822 C   0  0  0  0  0  0  0  0  0  0  0  0
   -4.2465   17.4513    8.1009 H   0  0  0  0  0  0  0  0  0  0  0  0
   -4.1545   15.9937    9.0949 H   0  0  0  0  0  0  0  0  0  0  0  0
   -4.8002   15.9038    7.4546 H   0  0  0  0  0  0  0  0  0  0  0  0
   -1.6320   16.8385    8.4175 C   0  0  0  0  0  0  0  0  0  0  0  0
   -1.8334   17.9084    8.3626 H   0  0  0  0  0  0  0  0  0  0  0  0
   -0.6110   16.6799    8.0813 H   0  0  0  0  0  0  0  0  0  0  0  0
   -1.7265   16.5352    9.4575 H   0  0  0  0  0  0  0  0  0  0  0  0
   -2.5374   16.5618    6.0925 C   0  0  0  0  0  0  0  0  0  0  0  0
   -2.7697   17.6226    6.0146 H   0  0  0  0  0  0  0  0  0  0  0  0
   -3.2413   16.0114    5.4690 H   0  0  0  0  0  0  0  0  0  0  0  0
   -1.5359   16.3969    5.7004 H   0  0  0  0  0  0  0  0  0  0  0  0
  1  2  1  0  0  0  0
  1  6  1  0  0  0  0
  3  1  1  0  0  0  0
  4 35  1  1  0  0  0
  4  5  1  0  0  0  0
  5 18  1  6  0  0  0
  5  6  1  0  0  0  0
  6  7  1  6  0  0  0
  6  8  1  0  0  0  0
  8  9  1  0  0  0  0
  9 10  1  0  0  0  0
  9 11  2  0  0  0  0
 11 12  1  0  0  0  0
 13 11  1  0  0  0  0
 13 14  1  0  0  0  0
 15 13  2  0  0  0  0
 16 15  1  0  0  0  0
 17  8  2  0  0  0  0
 17 15  1  0  0  0  0
 18 17  1  0  0  0  0
 19 18  1  0  0  0  0
 20 21  1  1  0  0  0
 20  4  1  0  0  0  0
 21 22  1  0  0  0  0
 23 21  1  0  0  0  0
 24 23  1  0  0  0  0
 24 25  1  0  0  0  0
 26 24  2  0  0  0  0
 27 26  1  0  0  0  0
 28 30  2  0  0  0  0
 28 26  1  0  0  0  0
 29 28  1  0  0  0  0
 30 32  1  0  0  0  0
 31 30  1  0  0  0  0
 32 33  1  0  0  0  0
 32 23  2  0  0  0  0
 33 34  1  6  0  0  0
 33 20  1  0  0  0  0
 33  1  1  0  0  0  0
 35 36  1  0  0  0  0
 35 40  1  0  0  0  0
 36 37  1  0  0  0  0
 36 38  1  0  0  0  0
 39 36  1  0  0  0  0
 40 43  1  0  0  0  0
 41 40  1  0  0  0  0
 42 40  1  0  0  0  0
 44 35  1  0  0  0  0
 45 44  1  0  0  0  0
 46 44  1  0  0  0  0
 47 44  1  0  0  0  0
M  END
$$$$
