CSD_code = NARLAU | q = 0 | S = 0 | Stoichiometry = C24H19ClIrN | MND = 6
 OpenBabel04212202073D

 46 49  0  0  1  0  0  0  0  0999 V2000
   -1.7664    5.7728    8.9017 Ir  0  0  0  0  0  0  0  0  0  0  0  0
   -0.3088    7.3782    8.7817 C   0  0  1  0  0  3  0  0  0  0  0  0
   -3.6689    4.6052    9.4802 Cl  0  0  0  0  0 15  0  0  0  0  0  0
   -2.7380    6.3799    7.3999 N   0  0  0  0  0  2  0  0  0  0  0  0
    0.1464    6.2511    8.0609 C   0  0  1  0  0  0  0  0  0  0  0  0
    0.1451    6.2985    6.9743 H   0  0  0  0  0  0  0  0  0  0  0  0
    1.1943    5.3713    8.6295 C   0  0  0  0  0  0  0  0  0  0  0  0
    0.8454    4.5119    9.6735 C   0  0  0  0  0  0  0  0  0  0  0  0
   -0.5458    4.5377   10.1812 C   0  0  0  0  0  3  0  0  0  0  0  0
   -1.0047    3.5648   10.3463 H   0  0  0  0  0  0  0  0  0  0  0  0
   -1.0208    5.6257   10.9123 C   0  0  1  0  0  0  0  0  0  0  0  0
   -1.8268    5.4578   11.6241 H   0  0  0  0  0  0  0  0  0  0  0  0
   -0.1434    6.7833   11.1967 C   0  0  0  0  0  0  0  0  0  0  0  0
    0.2267    7.6289   10.1495 C   0  0  0  0  0  0  0  0  0  0  0  0
    2.4880    5.3544    8.1283 C   0  0  0  0  0  0  0  0  0  0  0  0
    2.7540    6.0106    7.3118 H   0  0  0  0  0  0  0  0  0  0  0  0
    3.4337    4.5038    8.6745 C   0  0  0  0  0  0  0  0  0  0  0  0
    4.4410    4.4986    8.2851 H   0  0  0  0  0  0  0  0  0  0  0  0
    3.0869    3.6517    9.7095 C   0  0  0  0  0  0  0  0  0  0  0  0
    3.8233    2.9814   10.1274 H   0  0  0  0  0  0  0  0  0  0  0  0
    1.7934    3.6480   10.2025 C   0  0  0  0  0  0  0  0  0  0  0  0
    1.5166    2.9753   11.0013 H   0  0  0  0  0  0  0  0  0  0  0  0
    0.3126    7.0413   12.4825 C   0  0  0  0  0  0  0  0  0  0  0  0
    0.0115    6.3943   13.2937 H   0  0  0  0  0  0  0  0  0  0  0  0
    1.1506    8.1161   12.7211 C   0  0  0  0  0  0  0  0  0  0  0  0
    1.5059    8.3088   13.7225 H   0  0  0  0  0  0  0  0  0  0  0  0
    1.5278    8.9475   11.6794 C   0  0  0  0  0  0  0  0  0  0  0  0
    2.1794    9.7879   11.8668 H   0  0  0  0  0  0  0  0  0  0  0  0
    1.0599    8.7110   10.3989 C   0  0  0  0  0  0  0  0  0  0  0  0
    1.3369    9.3673    9.5863 H   0  0  0  0  0  0  0  0  0  0  0  0
   -0.9008    8.5589    8.1181 C   0  0  0  0  0  0  0  0  0  0  0  0
   -0.7014    8.8533    6.7693 C   0  0  0  0  0  0  0  0  0  0  0  0
   -0.0561    8.2305    6.1681 H   0  0  0  0  0  0  0  0  0  0  0  0
   -1.3072    9.9519    6.1887 C   0  0  0  0  0  0  0  0  0  0  0  0
   -1.1374   10.1647    5.1425 H   0  0  0  0  0  0  0  0  0  0  0  0
   -2.1198   10.7838    6.9403 C   0  0  0  0  0  0  0  0  0  0  0  0
   -2.5921   11.6409    6.4832 H   0  0  0  0  0  0  0  0  0  0  0  0
   -2.3124   10.5142    8.2859 C   0  0  0  0  0  0  0  0  0  0  0  0
   -2.9379   11.1623    8.8821 H   0  0  0  0  0  0  0  0  0  0  0  0
   -1.7074    9.4189    8.8689 C   0  0  0  0  0  0  0  0  0  0  0  0
   -1.8654    9.2104    9.9167 H   0  0  0  0  0  0  0  0  0  0  0  0
   -3.5234    6.7514    6.6409 C   0  0  0  0  0  2  0  0  0  0  0  0
   -4.4668    7.2358    5.6823 C   0  0  0  0  0  0  0  0  0  0  0  0
   -4.1673    8.2275    5.3418 H   0  0  0  0  0  0  0  0  0  0  0  0
   -5.4535    7.2920    6.1419 H   0  0  0  0  0  0  0  0  0  0  0  0
   -4.5083    6.5554    4.8317 H   0  0  0  0  0  0  0  0  0  0  0  0
  1 11  1  0  0  0  0
  2 31  1  6  0  0  0
  2 14  1  0  0  0  0
  4  1  1  0  0  0  0
  5  6  1  6  0  0  0
  5  7  1  0  0  0  0
  5  2  1  0  0  0  0
  5  1  1  0  0  0  0
  7  8  1  0  0  0  0
  8  9  1  0  0  0  0
  8 21  2  0  0  0  0
  9 10  1  0  0  0  0
  9 11  1  0  0  0  0
 11 13  1  0  0  0  0
 11 12  1  1  0  0  0
 13 23  1  0  0  0  0
 14 29  1  0  0  0  0
 14 13  2  0  0  0  0
 15  7  2  0  0  0  0
 15 17  1  0  0  0  0
 16 15  1  0  0  0  0
 17 19  2  0  0  0  0
 18 17  1  0  0  0  0
 19 20  1  0  0  0  0
 19 21  1  0  0  0  0
 21 22  1  0  0  0  0
 23 25  2  0  0  0  0
 23 24  1  0  0  0  0
 25 26  1  0  0  0  0
 27 28  1  0  0  0  0
 27 25  1  0  0  0  0
 29 27  2  0  0  0  0
 30 29  1  0  0  0  0
 31 40  1  0  0  0  0
 32 31  2  0  0  0  0
 33 32  1  0  0  0  0
 34 32  1  0  0  0  0
 34 36  2  0  0  0  0
 35 34  1  0  0  0  0
 36 38  1  0  0  0  0
 37 36  1  0  0  0  0
 38 40  2  0  0  0  0
 38 39  1  0  0  0  0
 40 41  1  0  0  0  0
 42  4  1  0  0  0  0
 43 45  1  0  0  0  0
 43 42  1  0  0  0  0
 44 43  1  0  0  0  0
 46 43  1  0  0  0  0
M  END
$$$$
