CSD_code = NARMAV | q = 0 | S = 0 | Stoichiometry = C18H20Cl2O2S2Ti | MND = 6
 OpenBabel04212202073D

 45 49  0  0  0  0  0  0  0  0999 V2000
    2.6604    2.0935    7.0502 Ti  0  0  0  0  0  0  0  0  0  0  0  0
    4.2365    0.7621    6.3315 Cl  0  0  0  0  0  0  0  0  0  0  0  0
    1.2198    0.6815    7.8871 Cl  0  0  0  0  0  0  0  0  0  0  0  0
    4.2182    4.3298    6.2410 S   0  0  1  0  0  3  0  0  0  0  0  0
    0.9181    4.2455    7.6648 S   0  0  1  0  0  3  0  0  0  0  0  0
    3.4115    2.6693    8.4784 O   0  0  0  0  0  0  0  0  0  0  0  0
    1.8754    2.4795    5.5774 O   0  0  0  0  0  0  0  0  0  0  0  0
    2.9974    5.7108    6.3601 C   0  0  0  0  0  0  0  0  0  0  0  0
    2.4334    5.6623    5.4266 H   0  0  0  0  0  0  0  0  0  0  0  0
    3.5763    6.6361    6.3816 H   0  0  0  0  0  0  0  0  0  0  0  0
    2.0758    5.6828    7.5613 C   0  0  0  0  0  0  0  0  0  0  0  0
    1.4563    6.5819    7.5509 H   0  0  0  0  0  0  0  0  0  0  0  0
    2.6414    5.6489    8.4948 H   0  0  0  0  0  0  0  0  0  0  0  0
    4.3807    3.4928    8.8252 C   0  0  0  0  0  0  0  0  0  0  0  0
    4.9063    4.3930    7.8879 C   0  0  0  0  0  0  0  0  0  0  0  0
    5.9295    5.2673    8.2182 C   0  0  0  0  0  0  0  0  0  0  0  0
    6.3179    5.9314    7.4613 H   0  0  0  0  0  0  0  0  0  0  0  0
    6.4446    5.2751    9.5039 C   0  0  0  0  0  0  0  0  0  0  0  0
    5.9199    4.3841   10.4405 C   0  0  0  0  0  0  0  0  0  0  0  0
    6.3257    4.3826   11.4423 H   0  0  0  0  0  0  0  0  0  0  0  0
    4.9061    3.4984   10.1331 C   0  0  0  0  0  0  0  0  0  0  0  0
    4.3386    2.5233   11.1159 C   0  0  0  0  0  0  0  0  0  0  0  0
    3.2638    2.6810   11.2206 H   0  0  0  0  0  0  0  0  0  0  0  0
    4.4793    1.5066   10.7448 H   0  0  0  0  0  0  0  0  0  0  0  0
    4.8149    2.6216   12.0873 H   0  0  0  0  0  0  0  0  0  0  0  0
    7.5464    6.2129    9.8931 C   0  0  0  0  0  0  0  0  0  0  0  0
    7.8756    6.8003    9.0403 H   0  0  0  0  0  0  0  0  0  0  0  0
    8.3976    5.6560   10.2822 H   0  0  0  0  0  0  0  0  0  0  0  0
    7.2079    6.8924   10.6748 H   0  0  0  0  0  0  0  0  0  0  0  0
    0.9225    3.2692    5.1259 C   0  0  0  0  0  0  0  0  0  0  0  0
    0.3254    4.2071    5.9802 C   0  0  0  0  0  0  0  0  0  0  0  0
   -0.6900    5.0423    5.5419 C   0  0  0  0  0  0  0  0  0  0  0  0
   -1.1365    5.7368    6.2370 H   0  0  0  0  0  0  0  0  0  0  0  0
   -1.1217    4.9755    4.2274 C   0  0  0  0  0  0  0  0  0  0  0  0
   -0.5198    4.0529    3.3712 C   0  0  0  0  0  0  0  0  0  0  0  0
   -0.8559    3.9979    2.3455 H   0  0  0  0  0  0  0  0  0  0  0  0
    0.4864    3.2035    3.7871 C   0  0  0  0  0  0  0  0  0  0  0  0
    1.1405    2.2008    2.8899 C   0  0  0  0  0  0  0  0  0  0  0  0
    0.7512    2.2652    1.8774 H   0  0  0  0  0  0  0  0  0  0  0  0
    2.2201    2.3626    2.8761 H   0  0  0  0  0  0  0  0  0  0  0  0
    0.9715    1.1951    3.2787 H   0  0  0  0  0  0  0  0  0  0  0  0
   -2.2186    5.8636    3.7244 C   0  0  0  0  0  0  0  0  0  0  0  0
   -2.5498    6.5493    4.4993 H   0  0  0  0  0  0  0  0  0  0  0  0
   -3.0702    5.2645    3.4048 H   0  0  0  0  0  0  0  0  0  0  0  0
   -1.8785    6.4415    2.8663 H   0  0  0  0  0  0  0  0  0  0  0  0
  1  5  1  0  0  0  0
  1  3  1  0  0  0  0
  1  6  1  0  0  0  0
  2  1  1  0  0  0  0
  4  8  1  0  0  0  0
  4  1  1  0  0  0  0
  4 15  1  1  0  0  0
  5 31  1  6  0  0  0
  6 14  1  0  0  0  0
  7  1  1  0  0  0  0
  8 10  1  0  0  0  0
  8 11  1  0  0  0  0
  9  8  1  0  0  0  0
 11  5  1  0  0  0  0
 11 13  1  0  0  0  0
 12 11  1  0  0  0  0
 14 21  1  0  0  0  0
 15 16  1  0  0  0  0
 15 14  2  0  0  0  0
 16 18  2  0  0  0  0
 17 16  1  0  0  0  0
 18 26  1  0  0  0  0
 18 19  1  0  0  0  0
 19 20  1  0  0  0  0
 21 19  2  0  0  0  0
 21 22  1  0  0  0  0
 22 23  1  0  0  0  0
 22 25  1  0  0  0  0
 24 22  1  0  0  0  0
 26 28  1  0  0  0  0
 26 29  1  0  0  0  0
 27 26  1  0  0  0  0
 30  7  1  0  0  0  0
 30 31  1  0  0  0  0
 32 31  2  0  0  0  0
 32 33  1  0  0  0  0
 34 32  1  0  0  0  0
 35 37  1  0  0  0  0
 35 34  2  0  0  0  0
 36 35  1  0  0  0  0
 37 30  2  0  0  0  0
 38 41  1  0  0  0  0
 38 37  1  0  0  0  0
 39 38  1  0  0  0  0
 40 38  1  0  0  0  0
 42 34  1  0  0  0  0
 42 43  1  0  0  0  0
 44 42  1  0  0  0  0
 45 42  1  0  0  0  0
M  END
$$$$
