CSD_code = NARPUT | q = 0 | S = 0 | Stoichiometry = C26H24Br2N4NiO2S2 | MND = 6
 OpenBabel04212202073D

 61 66  0  0  1  0  0  0  0  0999 V2000
   -0.1985    1.3115    1.9489 Br  0  0  0  0  0  0  0  0  0  0  0  0
    0.0000   -0.0001   -0.0002 Ni  0  0  0  0  0  0  0  0  0  0  0  0
   -2.1005   -4.8649    1.2226 S   0  0  0  0  0  0  0  0  0  0  0  0
    1.2430   -1.0298    0.8403 O   0  0  0  0  0  0  0  0  0  0  0  0
   -0.3842   -2.4629    1.4716 N   0  0  0  0  0  0  0  0  0  0  0  0
   -0.6430   -3.2844    2.0093 H   0  0  0  0  0  0  0  0  0  0  0  0
   -1.3323   -1.6882    0.8869 N   0  0  0  0  0  0  0  0  0  0  0  0
    3.0136   -2.2202    2.6993 C   0  0  0  0  0  0  0  0  0  0  0  0
    3.1149   -1.1541    2.5654 H   0  0  0  0  0  0  0  0  0  0  0  0
    3.9670   -2.9421    3.3907 C   0  0  0  0  0  0  0  0  0  0  0  0
    4.8313   -2.4394    3.7975 H   0  0  0  0  0  0  0  0  0  0  0  0
    3.8138   -4.3087    3.5597 C   0  0  0  0  0  0  0  0  0  0  0  0
    4.5598   -4.8741    4.0978 H   0  0  0  0  0  0  0  0  0  0  0  0
    2.7068   -4.9530    3.0310 C   0  0  0  0  0  0  0  0  0  0  0  0
    2.5948   -6.0202    3.1506 H   0  0  0  0  0  0  0  0  0  0  0  0
    1.7436   -4.2375    2.3439 C   0  0  0  0  0  0  0  0  0  0  0  0
    0.9037   -4.7585    1.9078 H   0  0  0  0  0  0  0  0  0  0  0  0
    1.8899   -2.8614    2.1808 C   0  0  0  0  0  0  0  0  0  0  0  0
    0.9037   -2.0465    1.4476 C   0  0  2  0  0  3  0  0  0  0  0  0
   -2.5384   -2.1048    0.7248 C   0  0  1  0  0  3  0  0  0  0  0  0
   -3.5024   -1.0987    0.1761 C   0  0  0  0  0  0  0  0  0  0  0  0
   -4.2616   -0.8605    0.9192 H   0  0  0  0  0  0  0  0  0  0  0  0
   -3.9891   -1.4840   -0.7175 H   0  0  0  0  0  0  0  0  0  0  0  0
   -2.9607   -0.1897   -0.0679 H   0  0  0  0  0  0  0  0  0  0  0  0
   -3.0688   -3.4230    0.9973 C   0  0  0  0  0  0  0  0  0  0  0  0
   -4.4020   -3.7589    1.0324 C   0  0  0  0  0  0  0  0  0  0  0  0
   -5.1945   -3.0425    0.9204 H   0  0  0  0  0  0  0  0  0  0  0  0
   -4.6388   -5.1273    1.2465 C   0  0  0  0  0  0  0  0  0  0  0  0
   -5.6215   -5.5595    1.3046 H   0  0  0  0  0  0  0  0  0  0  0  0
   -3.4937   -5.8496    1.3639 C   0  0  0  0  0  0  0  0  0  0  0  0
   -3.3752   -6.9024    1.5254 H   0  0  0  0  0  0  0  0  0  0  0  0
    0.1987   -1.3119   -1.9493 Br  0  0  0  0  0  0  0  0  0  0  0  0
    2.1005    4.8649   -1.2226 S   0  0  0  0  0  0  0  0  0  0  0  0
   -1.2430    1.0298   -0.8403 O   0  0  0  0  0  0  0  0  0  0  0  0
    0.3842    2.4629   -1.4716 N   0  0  0  0  0  0  0  0  0  0  0  0
    0.6430    3.2844   -2.0094 H   0  0  0  0  0  0  0  0  0  0  0  0
    1.3323    1.6883   -0.8869 N   0  0  0  0  0  0  0  0  0  0  0  0
   -3.0136    2.2202   -2.6994 C   0  0  0  0  0  0  0  0  0  0  0  0
   -3.1149    1.1541   -2.5654 H   0  0  0  0  0  0  0  0  0  0  0  0
   -3.9670    2.9421   -3.3907 C   0  0  0  0  0  0  0  0  0  0  0  0
   -4.8313    2.4395   -3.7975 H   0  0  0  0  0  0  0  0  0  0  0  0
   -3.8139    4.3088   -3.5597 C   0  0  0  0  0  0  0  0  0  0  0  0
   -4.5598    4.8742   -4.0977 H   0  0  0  0  0  0  0  0  0  0  0  0
   -2.7068    4.9531   -3.0309 C   0  0  0  0  0  0  0  0  0  0  0  0
   -2.5948    6.0202   -3.1505 H   0  0  0  0  0  0  0  0  0  0  0  0
   -1.7436    4.2376   -2.3439 C   0  0  0  0  0  0  0  0  0  0  0  0
   -0.9037    4.7585   -1.9078 H   0  0  0  0  0  0  0  0  0  0  0  0
   -1.8899    2.8614   -2.1808 C   0  0  0  0  0  0  0  0  0  0  0  0
   -0.9037    2.0465   -1.4476 C   0  0  1  0  0  3  0  0  0  0  0  0
    2.5383    2.1048   -0.7247 C   0  0  2  0  0  3  0  0  0  0  0  0
    3.5024    1.0987   -0.1762 C   0  0  0  0  0  0  0  0  0  0  0  0
    4.2616    0.8605   -0.9193 H   0  0  0  0  0  0  0  0  0  0  0  0
    3.9891    1.4839    0.7175 H   0  0  0  0  0  0  0  0  0  0  0  0
    2.9607    0.1897    0.0679 H   0  0  0  0  0  0  0  0  0  0  0  0
    3.0688    3.4230   -0.9973 C   0  0  0  0  0  0  0  0  0  0  0  0
    4.4020    3.7589   -1.0324 C   0  0  0  0  0  0  0  0  0  0  0  0
    5.1945    3.0425   -0.9203 H   0  0  0  0  0  0  0  0  0  0  0  0
    4.6388    5.1273   -1.2464 C   0  0  0  0  0  0  0  0  0  0  0  0
    5.6215    5.5595   -1.3045 H   0  0  0  0  0  0  0  0  0  0  0  0
    3.4937    5.8496   -1.3639 C   0  0  0  0  0  0  0  0  0  0  0  0
    3.3752    6.9024   -1.5253 H   0  0  0  0  0  0  0  0  0  0  0  0
  2  4  1  0  0  0  0
  2  7  1  0  0  0  0
  2  1  1  0  0  0  0
  3 30  1  0  0  0  0
  4 19  1  0  0  0  0
  5  6  1  0  0  0  0
  7  5  1  0  0  0  0
  8 10  1  0  0  0  0
  9  8  1  0  0  0  0
 10 12  2  0  0  0  0
 10 11  1  0  0  0  0
 12 13  1  0  0  0  0
 14 15  1  0  0  0  0
 14 12  1  0  0  0  0
 16 14  2  0  0  0  0
 17 16  1  0  0  0  0
 18 16  1  0  0  0  0
 18  8  2  0  0  0  0
 19  5  1  0  0  0  0
 19 18  1  1  0  0  0
 20 21  1  6  0  0  0
 20  7  1  0  0  0  0
 20 25  1  0  0  0  0
 21 22  1  0  0  0  0
 23 21  1  0  0  0  0
 24 21  1  0  0  0  0
 25 26  2  0  0  0  0
 25  3  1  0  0  0  0
 26 28  1  0  0  0  0
 27 26  1  0  0  0  0
 28 29  1  0  0  0  0
 28 30  2  0  0  0  0
 30 31  1  0  0  0  0
 32  2  1  0  0  0  0
 33 55  1  0  0  0  0
 34  2  1  0  0  0  0
 35 49  1  0  0  0  0
 35 37  1  0  0  0  0
 36 35  1  0  0  0  0
 37 50  1  0  0  0  0
 37  2  1  0  0  0  0
 38 39  1  0  0  0  0
 38 48  1  0  0  0  0
 40 38  2  0  0  0  0
 41 40  1  0  0  0  0
 42 40  1  0  0  0  0
 42 44  2  0  0  0  0
 43 42  1  0  0  0  0
 44 46  1  0  0  0  0
 45 44  1  0  0  0  0
 46 48  2  0  0  0  0
 46 47  1  0  0  0  0
 49 48  1  6  0  0  0
 49 34  1  0  0  0  0
 50 51  1  1  0  0  0
 51 54  1  0  0  0  0
 51 53  1  0  0  0  0
 52 51  1  0  0  0  0
 55 50  1  0  0  0  0
 56 55  2  0  0  0  0
 56 57  1  0  0  0  0
 58 56  1  0  0  0  0
 59 58  1  0  0  0  0
 60 58  2  0  0  0  0
 60 33  1  0  0  0  0
 61 60  1  0  0  0  0
M  END
$$$$
