CSD_code = NARREF | q = 0 | S = 0 | Stoichiometry = C20H26ClNO3STi | MND = 12
 OpenBabel04212202073D

 53 58  0  0  1  0  0  0  0  0999 V2000
    9.5142    8.3551   14.0448 Ti  0  0  0  0  0  0  0  0  0  0  0  0
    9.4971   10.6100   14.2405 Cl  0  0  0  0  0  0  0  0  0  0  0  0
   11.7070    9.0036   13.1979 C   0  0  0  0  0  0  0  0  0  0  0  0
   12.1863    9.9594   13.3641 H   0  0  0  0  0  0  0  0  0  0  0  0
   10.8952    8.6763   12.0838 C   0  0  0  0  0  0  0  0  0  0  0  0
   10.6530    9.3430   11.2662 H   0  0  0  0  0  0  0  0  0  0  0  0
   10.5939    7.3048   12.1571 C   0  0  0  0  0  0  0  0  0  0  0  0
   10.0731    6.7230   11.4066 H   0  0  0  0  0  0  0  0  0  0  0  0
   11.1797    6.7947   13.3342 C   0  0  1  0  0  0  0  0  0  0  0  0
   11.2265    5.7473   13.6023 H   0  0  0  0  0  0  0  0  0  0  0  0
   11.8894    7.8458   13.9606 C   0  0  0  0  0  0  0  0  0  0  0  0
   12.5564    7.7503   14.8068 H   0  0  0  0  0  0  0  0  0  0  0  0
    8.7635    6.5316   15.3915 C   0  0  1  0  0  0  0  0  0  0  0  0
    8.5805    5.5166   15.0592 H   0  0  0  0  0  0  0  0  0  0  0  0
    9.9683    7.0053   15.9659 C   0  0  0  0  0  3  0  0  0  0  0  0
   10.8494    6.4075   16.1546 H   0  0  0  0  0  0  0  0  0  0  0  0
    9.7598    8.3245   16.3931 C   0  0  2  0  0  0  0  0  0  0  0  0
   10.4590    8.9362   16.9516 H   0  0  0  0  0  0  0  0  0  0  0  0
    8.3994    8.6483   16.1475 C   0  0  0  0  0  0  0  0  0  0  0  0
    7.8941    9.5532   16.4581 H   0  0  0  0  0  0  0  0  0  0  0  0
    7.7838    7.5329   15.5602 C   0  0  0  0  0  0  0  0  0  0  0  0
    6.7302    7.4469   15.3371 H   0  0  0  0  0  0  0  0  0  0  0  0
    8.2162    8.2532   12.9721 O   0  0  0  0  0  0  0  0  0  0  0  0
    7.0009    7.9570   12.4269 C   0  0  2  0  0  0  0  0  0  0  0  0
    6.7899    6.8920   12.6457 H   0  0  0  0  0  0  0  0  0  0  0  0
    6.8970    8.1969   10.8936 C   0  0  1  0  0  0  0  0  0  0  0  0
    7.8065    7.9044   10.3699 H   0  0  0  0  0  0  0  0  0  0  0  0
    5.6254    7.4747   10.4259 C   0  0  0  0  0  0  0  0  0  0  0  0
    5.5729    6.4600   10.8193 H   0  0  0  0  0  0  0  0  0  0  0  0
    5.6005    7.4079    9.3396 H   0  0  0  0  0  0  0  0  0  0  0  0
    4.4884    8.3669   10.9706 C   0  0  0  0  0  0  0  0  0  0  0  0
    3.8563    8.7564   10.1741 H   0  0  0  0  0  0  0  0  0  0  0  0
    3.8428    7.8311   11.6655 H   0  0  0  0  0  0  0  0  0  0  0  0
    5.2510    9.4976   11.6837 C   0  0  2  0  0  0  0  0  0  0  0  0
    5.8386    8.8440   12.9713 C   0  0  2  0  0  0  0  0  0  0  0  0
    5.0688    8.2353   13.4594 H   0  0  0  0  0  0  0  0  0  0  0  0
    4.4811   10.7217   12.0952 C   0  0  0  0  0  0  0  0  0  0  0  0
    3.4082   10.5627   12.1283 H   0  0  0  0  0  0  0  0  0  0  0  0
    4.7204   11.6125   11.5252 H   0  0  0  0  0  0  0  0  0  0  0  0
    6.4974    9.6817   10.7785 C   0  0  0  0  0  0  0  0  0  0  0  0
    7.5537   10.6603   11.2976 C   0  0  0  0  0  0  0  0  0  0  0  0
    8.2231   10.1978   12.0198 H   0  0  0  0  0  0  0  0  0  0  0  0
    7.0918   11.5341   11.7545 H   0  0  0  0  0  0  0  0  0  0  0  0
    8.1687   11.0068   10.4684 H   0  0  0  0  0  0  0  0  0  0  0  0
    6.1535   10.1266    9.3537 C   0  0  0  0  0  0  0  0  0  0  0  0
    7.0223    9.9908    8.7130 H   0  0  0  0  0  0  0  0  0  0  0  0
    5.9004   11.1845    9.3578 H   0  0  0  0  0  0  0  0  0  0  0  0
    5.3244    9.5866    8.9129 H   0  0  0  0  0  0  0  0  0  0  0  0
    6.2124    9.8431   13.9326 N   0  0  0  0  0  0  0  0  0  0  0  0
    7.1370   10.2445   13.8048 H   0  0  0  0  0  0  0  0  0  0  0  0
    5.0147   11.0142   13.8350 S   0  0  0  0  0  0  0  0  0  0  0  0
    3.9376   10.6310   14.6956 O   0  0  0  0  0  0  0  0  0  0  0  0
    5.5857   12.3140   14.0106 O   0  0  0  0  0  0  0  0  0  0  0  0
  1  2  1  0  0  0  0
  1 13  1  0  0  0  0
  1 17  1  0  0  0  0
  3  4  1  0  0  0  0
  3 11  2  0  0  0  0
  5  7  2  0  0  0  0
  5  3  1  0  0  0  0
  6  5  1  0  0  0  0
  7  9  1  0  0  0  0
  8  7  1  0  0  0  0
  9 10  1  1  0  0  0
  9 11  1  0  0  0  0
  9  1  1  0  0  0  0
 11 12  1  0  0  0  0
 13 14  1  6  0  0  0
 13 21  1  0  0  0  0
 13 15  1  0  0  0  0
 15 16  1  0  0  0  0
 15 17  1  0  0  0  0
 17 18  1  1  0  0  0
 19 17  1  0  0  0  0
 19 20  1  0  0  0  0
 21 19  2  0  0  0  0
 22 21  1  0  0  0  0
 23  1  1  0  0  0  0
 24 25  1  1  0  0  0
 24 35  1  0  0  0  0
 24 23  1  0  0  0  0
 26 27  1  6  0  0  0
 26 24  1  0  0  0  0
 28 29  1  0  0  0  0
 28 26  1  0  0  0  0
 28 31  1  0  0  0  0
 30 28  1  0  0  0  0
 31 33  1  0  0  0  0
 31 34  1  0  0  0  0
 32 31  1  0  0  0  0
 34 40  1  6  0  0  0
 34 37  1  0  0  0  0
 34 35  1  0  0  0  0
 35 36  1  1  0  0  0
 35 49  1  0  0  0  0
 37 38  1  0  0  0  0
 37 51  1  0  0  0  0
 39 37  1  0  0  0  0
 40 26  1  0  0  0  0
 40 41  1  0  0  0  0
 41 43  1  0  0  0  0
 41 42  1  0  0  0  0
 44 41  1  0  0  0  0
 45 47  1  0  0  0  0
 45 40  1  0  0  0  0
 46 45  1  0  0  0  0
 48 45  1  0  0  0  0
 50 49  1  0  0  0  0
 51 49  1  0  0  0  0
 51 53  2  0  0  0  0
 51 52  2  0  0  0  0
M  END
$$$$
