CSD_code = NARRUU | q = 0 | S = 0 | Stoichiometry = C20H14Cl2N4Zn | MND = 4
 OpenBabel04212202073D

 41 45  0  0  1  0  0  0  0  0999 V2000
   -1.5636    4.3896    3.8472 Zn  0  0  0  0  0  0  0  0  0  0  0  0
   -3.1680    5.8529    3.8174 Cl  0  0  0  0  0  0  0  0  0  0  0  0
   -1.1874    2.3530    4.6652 Cl  0  0  0  0  0  0  0  0  0  0  0  0
   -0.7743    4.0163    1.8835 N   0  0  0  0  0  0  0  0  0  0  0  0
   -1.4103    3.6429    0.7860 C   0  0  0  0  0  3  0  0  0  0  0  0
   -2.4854    3.7560    0.8019 H   0  0  0  0  0  0  0  0  0  0  0  0
   -0.7516    3.1354   -0.3242 C   0  0  0  0  0  0  0  0  0  0  0  0
   -1.3112    2.8365   -1.1959 H   0  0  0  0  0  0  0  0  0  0  0  0
    0.6297    3.0169   -0.2821 C   0  0  0  0  0  0  0  0  0  0  0  0
    1.1749    2.6198   -1.1251 H   0  0  0  0  0  0  0  0  0  0  0  0
    1.2985    3.4178    0.8605 C   0  0  0  0  0  0  0  0  0  0  0  0
    2.3709    3.3579    0.9487 H   0  0  0  0  0  0  0  0  0  0  0  0
    0.5556    3.9116    1.9306 C   0  0  0  0  0  0  0  0  0  0  0  0
    1.2065    4.3491    3.1598 C   0  0  1  0  0  3  0  0  0  0  0  0
    2.5139    4.2192    3.2935 N   0  0  0  0  0  0  0  0  0  0  0  0
    3.0839    4.5101    4.4468 C   0  0  0  0  0  0  0  0  0  0  0  0
    2.2016    4.6733    5.5670 C   0  0  0  0  0  0  0  0  0  0  0  0
    0.9701    5.0405    5.2844 N   0  0  0  0  0  0  0  0  0  0  0  0
    0.4752    4.9811    4.0901 N   0  0  0  0  0  0  0  0  0  0  0  0
    4.5225    4.7201    4.4820 C   0  0  0  0  0  0  0  0  0  0  0  0
    5.3348    4.0664    3.5538 C   0  0  0  0  0  0  0  0  0  0  0  0
    4.8765    3.4008    2.8389 H   0  0  0  0  0  0  0  0  0  0  0  0
    6.7024    4.2562    3.5731 C   0  0  0  0  0  0  0  0  0  0  0  0
    7.3268    3.7393    2.8599 H   0  0  0  0  0  0  0  0  0  0  0  0
    7.2729    5.1103    4.5040 C   0  0  0  0  0  0  0  0  0  0  0  0
    8.3421    5.2588    4.5171 H   0  0  0  0  0  0  0  0  0  0  0  0
    6.4694    5.7788    5.4150 C   0  0  0  0  0  0  0  0  0  0  0  0
    6.9115    6.4544    6.1315 H   0  0  0  0  0  0  0  0  0  0  0  0
    5.1020    5.5863    5.4112 C   0  0  0  0  0  0  0  0  0  0  0  0
    4.4777    6.1211    6.1112 H   0  0  0  0  0  0  0  0  0  0  0  0
    2.5572    4.4853    6.9638 C   0  0  0  0  0  0  0  0  0  0  0  0
    3.5842    3.6122    7.3265 C   0  0  0  0  0  0  0  0  0  0  0  0
    4.1263    3.0712    6.5650 H   0  0  0  0  0  0  0  0  0  0  0  0
    3.8846    3.4174    8.6604 C   0  0  0  0  0  0  0  0  0  0  0  0
    4.6748    2.7353    8.9360 H   0  0  0  0  0  0  0  0  0  0  0  0
    3.1725    4.0885    9.6423 C   0  0  0  0  0  0  0  0  0  0  0  0
    3.4145    3.9354   10.6832 H   0  0  0  0  0  0  0  0  0  0  0  0
    2.1430    4.9467    9.2878 C   0  0  0  0  0  0  0  0  0  0  0  0
    1.5805    5.4607   10.0525 H   0  0  0  0  0  0  0  0  0  0  0  0
    1.8286    5.1417    7.9575 C   0  0  0  0  0  0  0  0  0  0  0  0
    1.0270    5.8017    7.6654 H   0  0  0  0  0  0  0  0  0  0  0  0
  1 19  1  0  0  0  0
  1  3  1  0  0  0  0
  2  1  1  0  0  0  0
  4 13  1  0  0  0  0
  4  1  1  0  0  0  0
  5  6  1  0  0  0  0
  5  4  1  0  0  0  0
  7  9  2  0  0  0  0
  7  5  1  0  0  0  0
  8  7  1  0  0  0  0
  9 11  1  0  0  0  0
 10  9  1  0  0  0  0
 11 12  1  0  0  0  0
 11 13  2  0  0  0  0
 14 13  1  6  0  0  0
 14 15  1  0  0  0  0
 14 19  1  0  0  0  0
 15 16  2  0  0  0  0
 16 20  1  0  0  0  0
 16 17  1  0  0  0  0
 17 31  1  0  0  0  0
 18 17  2  0  0  0  0
 19 18  1  0  0  0  0
 20 29  1  0  0  0  0
 21 23  1  0  0  0  0
 21 20  2  0  0  0  0
 22 21  1  0  0  0  0
 23 25  2  0  0  0  0
 24 23  1  0  0  0  0
 25 26  1  0  0  0  0
 25 27  1  0  0  0  0
 27 28  1  0  0  0  0
 29 27  2  0  0  0  0
 29 30  1  0  0  0  0
 31 32  2  0  0  0  0
 31 40  1  0  0  0  0
 32 34  1  0  0  0  0
 33 32  1  0  0  0  0
 34 35  1  0  0  0  0
 34 36  2  0  0  0  0
 36 37  1  0  0  0  0
 38 36  1  0  0  0  0
 38 39  1  0  0  0  0
 40 38  2  0  0  0  0
 41 40  1  0  0  0  0
M  END
$$$$
