CSD_code = NARTUW | q = 0 | S = 0 | Stoichiometry = C7H8Cl3N4ORe | MND = 6
 OpenBabel04212202073D

 24 26  0  0  1  0  0  0  0  0999 V2000
   -1.5233    2.9213    8.4033 Re  0  0  0  0  0  0  0  0  0  0  0  0
   -0.3432    4.6298    9.3120 Cl  0  0  0  0  0  0  0  0  0  0  0  0
   -2.1972    4.2620    6.7039 Cl  0  0  0  0  0  0  0  0  0  0  0  0
   -3.2815    3.3194    9.5979 Cl  0  0  0  0  0  0  0  0  0  0  0  0
   -0.2793    2.1283    7.6308 O   0  0  0  0  0  1  0  0  0  0  0  0
   -1.0060    1.4394   10.1741 N   0  0  2  0  0  0  0  0  0  0  0  0
   -1.1601    0.1237   10.0108 N   0  0  0  0  0  0  0  0  0  0  0  0
   -2.8063    1.0847    7.6438 N   0  0  1  0  0  0  0  0  0  0  0  0
   -2.5350   -0.1463    8.0828 N   0  0  0  0  0  0  0  0  0  0  0  0
   -1.2640   -0.4466    8.6916 C   0  0  0  0  0  0  0  0  0  0  0  0
   -1.1392   -1.5299    8.7544 H   0  0  0  0  0  0  0  0  0  0  0  0
   -0.4782    0.0087    8.0674 H   0  0  0  0  0  0  0  0  0  0  0  0
   -0.9222    1.6690   11.4676 C   0  0  0  0  0  3  0  0  0  0  0  0
   -0.7904    2.6676   11.8343 H   0  0  0  0  0  0  0  0  0  0  0  0
   -1.0172    0.4633   12.1729 C   0  0  0  0  0  0  0  0  0  0  0  0
   -0.9768    0.3252   13.2329 H   0  0  0  0  0  0  0  0  0  0  0  0
   -1.1725   -0.5012   11.2058 C   0  0  0  0  0  0  0  0  0  0  0  0
   -1.2789   -1.5641   11.2876 H   0  0  0  0  0  0  0  0  0  0  0  0
   -4.0161    1.0607    7.1253 C   0  0  0  0  0  3  0  0  0  0  0  0
   -4.4434    1.9487    6.7033 H   0  0  0  0  0  0  0  0  0  0  0  0
   -4.5508   -0.2295    7.2223 C   0  0  0  0  0  0  0  0  0  0  0  0
   -5.5095   -0.5629    6.8849 H   0  0  0  0  0  0  0  0  0  0  0  0
   -3.5747   -0.9714    7.8441 C   0  0  0  0  0  0  0  0  0  0  0  0
   -3.5493   -2.0072    8.1164 H   0  0  0  0  0  0  0  0  0  0  0  0
  1  2  1  0  0  0  0
  1  4  1  0  0  0  0
  1  6  1  0  0  0  0
  3  1  1  0  0  0  0
  5  1  1  0  0  0  0
  6 13  1  1  0  0  0
  7  6  1  0  0  0  0
  7 17  1  0  0  0  0
  8 19  1  1  0  0  0
  8  9  1  0  0  0  0
  8  1  1  0  0  0  0
  9 10  1  0  0  0  0
 10 11  1  0  0  0  0
 10  7  1  0  0  0  0
 12 10  1  0  0  0  0
 13 14  1  0  0  0  0
 13 15  1  0  0  0  0
 15 16  1  0  0  0  0
 17 18  1  0  0  0  0
 17 15  2  0  0  0  0
 19 21  1  0  0  0  0
 20 19  1  0  0  0  0
 21 23  2  0  0  0  0
 22 21  1  0  0  0  0
 23  9  1  0  0  0  0
 23 24  1  0  0  0  0
M  END
$$$$
