CSD_code = NARVAE | q = 0 | S = 0 | Stoichiometry = C8H7Cl2N4O3Re | MND = 6
 OpenBabel04212202073D

 25 28  0  0  1  0  0  0  0  0999 V2000
    0.3689    3.4374    4.8917 Re  0  0  0  0  0  0  0  0  0  0  0  0
    1.6483    1.6353    4.5367 Cl  0  0  0  0  0  0  0  0  0  0  0  0
    1.6495    4.6016    3.4717 Cl  0  0  0  0  0  0  0  0  0  0  0  0
    0.8577    3.9746    6.3874 O   0  0  0  0  0  1  0  0  0  0  0  0
   -0.8621    2.8333    3.2100 O   0  0  0  0  0  0  0  0  0  0  0  0
   -2.8281    2.4599    2.2078 O   0  0  0  0  0  0  0  0  0  0  0  0
   -1.1476    2.1772    5.7860 N   0  0  2  0  0  0  0  0  0  0  0  0
   -2.4432    2.3950    5.5331 N   0  0  0  0  0  0  0  0  0  0  0  0
   -1.1476    4.9772    4.7800 N   0  0  1  0  0  0  0  0  0  0  0  0
   -2.4431    4.6477    4.7230 N   0  0  0  0  0  0  0  0  0  0  0  0
   -2.1065    2.7906    3.1053 C   0  0  0  0  0  0  0  0  0  0  0  0
   -2.8509    3.2918    4.4891 C   0  0  1  0  0  0  0  0  0  0  0  0
   -3.9347    3.2464    4.3622 H   0  0  0  0  0  0  0  0  0  0  0  0
   -1.0718    1.1994    6.6719 C   0  0  0  0  0  3  0  0  0  0  0  0
   -0.1157    0.8707    7.0275 H   0  0  0  0  0  0  0  0  0  0  0  0
   -2.3557    0.7575    6.9910 C   0  0  0  0  0  0  0  0  0  0  0  0
   -2.6239   -0.0217    7.6729 H   0  0  0  0  0  0  0  0  0  0  0  0
   -3.2053    1.5387    6.2388 C   0  0  0  0  0  0  0  0  0  0  0  0
   -4.2734    1.5358    6.1586 H   0  0  0  0  0  0  0  0  0  0  0  0
   -1.0723    6.2951    4.8438 C   0  0  0  0  0  3  0  0  0  0  0  0
   -0.1164    6.7753    4.9094 H   0  0  0  0  0  0  0  0  0  0  0  0
   -2.3565    6.8386    4.8105 C   0  0  0  0  0  0  0  0  0  0  0  0
   -2.6249    7.8733    4.8433 H   0  0  0  0  0  0  0  0  0  0  0  0
   -3.2056    5.7571    4.7256 C   0  0  0  0  0  0  0  0  0  0  0  0
   -4.2737    5.7082    4.6620 H   0  0  0  0  0  0  0  0  0  0  0  0
  1  7  1  0  0  0  0
  1  4  1  0  0  0  0
  2  1  1  0  0  0  0
  3  1  1  0  0  0  0
  5  1  1  0  0  0  0
  6 11  2  0  0  0  0
  7 14  1  1  0  0  0
  8  7  1  0  0  0  0
  8 18  1  0  0  0  0
  9 20  1  1  0  0  0
  9  1  1  0  0  0  0
 10 24  1  0  0  0  0
 10  9  1  0  0  0  0
 11  5  1  0  0  0  0
 11 12  1  0  0  0  0
 12 13  1  6  0  0  0
 12 10  1  0  0  0  0
 12  8  1  0  0  0  0
 14 16  1  0  0  0  0
 14 15  1  0  0  0  0
 16 17  1  0  0  0  0
 18 16  2  0  0  0  0
 19 18  1  0  0  0  0
 20 21  1  0  0  0  0
 22 23  1  0  0  0  0
 22 20  1  0  0  0  0
 24 22  2  0  0  0  0
 25 24  1  0  0  0  0
M  END
$$$$
