CSD_code = NASHAT | q = 1 | S = 0 | Stoichiometry = C26H35Cl2N4Pd(1+) | MND = 4
 OpenBabel04212202073D

 68 70  0  0  0  0  0  0  0  0999 V2000
    3.1147   12.7242    7.0748 Pd  0  0  0  0  0  0  0  0  0  0  0  0
    1.5346   11.0928    6.6954 Cl  0  0  0  0  0  0  0  0  0  0  0  0
    4.6549   14.4057    7.3413 Cl  0  0  0  0  0  0  0  0  0  0  0  0
    4.4246   11.7372    6.0293 N   0  0  0  0  0  2  0  0  0  0  0  0
    5.2483   11.1326    5.5084 C   0  0  0  0  0  2  0  0  0  0  0  0
    6.2719   10.3872    4.8534 C   0  0  0  0  0  0  0  0  0  0  0  0
    6.2139   10.5533    3.7777 H   0  0  0  0  0  0  0  0  0  0  0  0
    6.1415    9.3252    5.0617 H   0  0  0  0  0  0  0  0  0  0  0  0
    7.2474   10.7118    5.2161 H   0  0  0  0  0  0  0  0  0  0  0  0
    1.7442   13.6218    8.0778 C   0  0  0  0  0  0  0  0  0  0  0  0
    1.0089   13.1172    9.0904 N   0  0  0  0  0  0  0  0  0  0  0  0
    1.2251   11.8606    9.7278 C   0  0  0  0  0  0  0  0  0  0  0  0
    2.4702   11.5630   10.2925 C   0  0  0  0  0  0  0  0  0  0  0  0
    2.6286   10.3378   10.9247 C   0  0  0  0  0  0  0  0  0  0  0  0
    3.5867   10.1006   11.3632 H   0  0  0  0  0  0  0  0  0  0  0  0
    1.6011    9.4093   10.9991 C   0  0  0  0  0  0  0  0  0  0  0  0
    1.8010    8.1087   11.7084 C   0  0  0  0  0  0  0  0  0  0  0  0
    1.0504    7.3818   11.4110 H   0  0  0  0  0  0  0  0  0  0  0  0
    1.7233    8.2588   12.7853 H   0  0  0  0  0  0  0  0  0  0  0  0
    2.7885    7.7039   11.5001 H   0  0  0  0  0  0  0  0  0  0  0  0
    0.3890    9.7212   10.4011 C   0  0  0  0  0  0  0  0  0  0  0  0
   -0.4120    8.9975   10.4182 H   0  0  0  0  0  0  0  0  0  0  0  0
    0.1804   10.9297    9.7561 C   0  0  0  0  0  0  0  0  0  0  0  0
   -1.1280   11.1645    9.0598 C   0  0  0  0  0  0  0  0  0  0  0  0
   -1.8417   11.6799    9.7039 H   0  0  0  0  0  0  0  0  0  0  0  0
   -1.5640   10.2074    8.7882 H   0  0  0  0  0  0  0  0  0  0  0  0
   -0.9801   11.7326    8.1442 H   0  0  0  0  0  0  0  0  0  0  0  0
    3.6416   12.4976   10.2284 C   0  0  0  0  0  0  0  0  0  0  0  0
    4.3056   12.3221   11.0717 H   0  0  0  0  0  0  0  0  0  0  0  0
    3.3435   13.5466   10.2336 H   0  0  0  0  0  0  0  0  0  0  0  0
    4.2227   12.3047    9.3064 H   0  0  0  0  0  0  0  0  0  0  0  0
   -0.0518   13.9323    9.3484 C   0  0  0  0  0  0  0  0  0  0  0  0
   -0.7436   13.7106   10.1339 H   0  0  0  0  0  0  0  0  0  0  0  0
    0.0223   14.9820    8.4812 C   0  0  0  0  0  0  0  0  0  0  0  0
   -0.9666   16.0255    8.2299 N   0  0  0  0  0  4  0  0  0  0  0  0
   -2.1535   15.7867    9.0763 C   0  0  0  0  0  0  0  0  0  0  0  0
   -2.5759   14.8063    8.8641 H   0  0  0  0  0  0  0  0  0  0  0  0
   -2.9060   16.5455    8.8688 H   0  0  0  0  0  0  0  0  0  0  0  0
   -1.8833   15.8422   10.1289 H   0  0  0  0  0  0  0  0  0  0  0  0
   -0.4416   17.3751    8.5290 C   0  0  0  0  0  0  0  0  0  0  0  0
   -0.1247   17.4284    9.5689 H   0  0  0  0  0  0  0  0  0  0  0  0
   -1.2211   18.1156    8.3584 H   0  0  0  0  0  0  0  0  0  0  0  0
    0.4085   17.5984    7.8859 H   0  0  0  0  0  0  0  0  0  0  0  0
   -1.3799   15.9670    6.8097 C   0  0  0  0  0  0  0  0  0  0  0  0
   -0.5311   16.1870    6.1628 H   0  0  0  0  0  0  0  0  0  0  0  0
   -2.1659   16.6967    6.6246 H   0  0  0  0  0  0  0  0  0  0  0  0
   -1.7562   14.9723    6.5753 H   0  0  0  0  0  0  0  0  0  0  0  0
    1.1508   14.7765    7.7068 N   0  0  0  0  0  0  0  0  0  0  0  0
    1.7698   15.6811    6.7830 C   0  0  0  0  0  0  0  0  0  0  0  0
    2.4953   16.7661    7.2880 C   0  0  0  0  0  0  0  0  0  0  0  0
    2.8076   16.9101    8.7464 C   0  0  0  0  0  0  0  0  0  0  0  0
    3.7927   16.4655    8.8958 H   0  0  0  0  0  0  0  0  0  0  0  0
    2.1122   16.3847    9.3963 H   0  0  0  0  0  0  0  0  0  0  0  0
    2.8602   17.9557    9.0392 H   0  0  0  0  0  0  0  0  0  0  0  0
    3.0451   17.6629    6.3846 C   0  0  0  0  0  0  0  0  0  0  0  0
    3.6102   18.5005    6.7638 H   0  0  0  0  0  0  0  0  0  0  0  0
    2.9350   17.4789    5.0127 C   0  0  0  0  0  0  0  0  0  0  0  0
    3.5616   18.4489    4.0650 C   0  0  0  0  0  0  0  0  0  0  0  0
    3.0816   18.4122    3.0907 H   0  0  0  0  0  0  0  0  0  0  0  0
    4.6136   18.1973    3.9332 H   0  0  0  0  0  0  0  0  0  0  0  0
    3.5091   19.4631    4.4531 H   0  0  0  0  0  0  0  0  0  0  0  0
    2.2909   16.3420    4.5453 C   0  0  0  0  0  0  0  0  0  0  0  0
    2.2575   16.1500    3.4834 H   0  0  0  0  0  0  0  0  0  0  0  0
    1.7188   15.4187    5.4099 C   0  0  0  0  0  0  0  0  0  0  0  0
    1.1464   14.1430    4.8693 C   0  0  0  0  0  0  0  0  0  0  0  0
    1.9469   13.3780    4.8636 H   0  0  0  0  0  0  0  0  0  0  0  0
    0.8093   14.2731    3.8440 H   0  0  0  0  0  0  0  0  0  0  0  0
    0.3263   13.7489    5.4686 H   0  0  0  0  0  0  0  0  0  0  0  0
  1  3  1  0  0  0  0
  1 10  2  0  0  0  0
  2  1  1  0  0  0  0
  4  1  1  0  0  0  0
  5  4  1  0  0  0  0
  6  8  1  0  0  0  0
  6  9  1  0  0  0  0
  6  5  1  0  0  0  0
  7  6  1  0  0  0  0
 10 11  1  0  0  0  0
 11 32  1  0  0  0  0
 11 12  1  0  0  0  0
 12 23  2  0  0  0  0
 12 13  1  0  0  0  0
 13 14  2  0  0  0  0
 14 16  1  0  0  0  0
 14 15  1  0  0  0  0
 16 17  1  0  0  0  0
 17 19  1  0  0  0  0
 18 17  1  0  0  0  0
 20 17  1  0  0  0  0
 21 22  1  0  0  0  0
 21 16  2  0  0  0  0
 23 21  1  0  0  0  0
 24 25  1  0  0  0  0
 24 23  1  0  0  0  0
 26 24  1  0  0  0  0
 27 24  1  0  0  0  0
 28 30  1  0  0  0  0
 28 13  1  0  0  0  0
 28 29  1  0  0  0  0
 31 28  1  0  0  0  0
 32 33  1  0  0  0  0
 34 32  2  0  0  0  0
 35 34  1  0  0  0  0
 35 40  1  0  0  0  0
 35 36  1  0  0  0  0
 36 39  1  0  0  0  0
 37 36  1  0  0  0  0
 38 36  1  0  0  0  0
 40 41  1  0  0  0  0
 42 40  1  0  0  0  0
 43 40  1  0  0  0  0
 44 35  1  0  0  0  0
 45 44  1  0  0  0  0
 46 44  1  0  0  0  0
 47 44  1  0  0  0  0
 48 10  1  0  0  0  0
 48 34  1  0  0  0  0
 49 50  1  0  0  0  0
 49 48  1  0  0  0  0
 50 51  1  0  0  0  0
 51 52  1  0  0  0  0
 51 54  1  0  0  0  0
 51 53  1  0  0  0  0
 55 56  1  0  0  0  0
 55 50  2  0  0  0  0
 57 55  1  0  0  0  0
 58 61  1  0  0  0  0
 58 57  1  0  0  0  0
 59 58  1  0  0  0  0
 60 58  1  0  0  0  0
 62 57  2  0  0  0  0
 62 64  1  0  0  0  0
 63 62  1  0  0  0  0
 64 49  2  0  0  0  0
 65 64  1  0  0  0  0
 65 68  1  0  0  0  0
 66 65  1  0  0  0  0
 67 65  1  0  0  0  0
M  END
$$$$
