CSD_code = NASLUO | q = 0 | S = 0 | Stoichiometry = C11H22Br3LaO5 | MND = 8
 OpenBabel04212202073D

 42 41  0  0  0  0  0  0  0  0999 V2000
   -0.3033    1.7670    3.8141 La  0  0  0  0  0  0  0  0  0  0  0  0
    2.0036    1.6028    2.2429 Br  0  0  0  0  0  0  0  0  0  0  0  0
    1.1207    0.9587    6.0193 Br  0  0  0  0  0  0  0  0  0  0  0  0
   -1.5134    3.8165    5.2474 Br  0  0  0  0  0  0  0  0  0  0  0  0
   -3.0474    1.6172    2.9502 O   0  0  0  0  0  0  0  0  0  0  0  0
   -0.3240   -1.0624    3.5819 O   0  0  0  0  0  0  0  0  0  0  0  0
   -2.2515    0.1358    5.1316 O   0  0  0  0  0  0  0  0  0  0  0  0
   -1.1092    0.4097    1.4069 O   0  0  0  0  0  0  0  0  0  0  0  0
   -3.9259    1.4347    4.0504 C   0  0  0  0  0  0  0  0  0  0  0  0
   -4.9719    1.4647    3.7276 H   0  0  0  0  0  0  0  0  0  0  0  0
   -3.7273    2.2724    4.7257 H   0  0  0  0  0  0  0  0  0  0  0  0
   -1.7201   -1.1267    5.5051 C   0  0  0  0  0  0  0  0  0  0  0  0
   -2.4550   -1.7135    6.0650 H   0  0  0  0  0  0  0  0  0  0  0  0
   -0.8598   -0.9088    6.1451 H   0  0  0  0  0  0  0  0  0  0  0  0
   -2.2403    1.0111    0.8068 C   0  0  0  0  0  0  0  0  0  0  0  0
   -1.9599    2.0552    0.6419 H   0  0  0  0  0  0  0  0  0  0  0  0
   -2.4834    0.5346   -0.1492 H   0  0  0  0  0  0  0  0  0  0  0  0
   -1.2382   -1.9007    4.2723 C   0  0  0  0  0  0  0  0  0  0  0  0
   -0.7403   -2.8274    4.5857 H   0  0  0  0  0  0  0  0  0  0  0  0
   -2.0879   -2.1625    3.6250 H   0  0  0  0  0  0  0  0  0  0  0  0
    0.0158   -1.4934    2.2747 C   0  0  0  0  0  0  0  0  0  0  0  0
    0.1100   -2.5834    2.2294 H   0  0  0  0  0  0  0  0  0  0  0  0
    0.9835   -1.0334    2.0517 H   0  0  0  0  0  0  0  0  0  0  0  0
   -3.6266    0.1213    4.7813 C   0  0  0  0  0  0  0  0  0  0  0  0
   -4.2470    0.0486    5.6842 H   0  0  0  0  0  0  0  0  0  0  0  0
   -3.8513   -0.7392    4.1351 H   0  0  0  0  0  0  0  0  0  0  0  0
   -3.4457    0.9748    1.7526 C   0  0  0  0  0  0  0  0  0  0  0  0
   -4.2964    1.5030    1.3006 H   0  0  0  0  0  0  0  0  0  0  0  0
   -3.7472   -0.0640    1.9474 H   0  0  0  0  0  0  0  0  0  0  0  0
   -1.0164   -0.9989    1.2535 C   0  0  0  0  0  0  0  0  0  0  0  0
   -0.6865   -1.2485    0.2366 H   0  0  0  0  0  0  0  0  0  0  0  0
   -1.9915   -1.4737    1.4309 H   0  0  0  0  0  0  0  0  0  0  0  0
   -0.5180    3.6023    1.9742 O   0  0  0  0  0  0  0  0  0  0  0  0
    0.5472    5.6626    2.5231 C   0  0  0  0  0  0  0  0  0  0  0  0
    0.0186    5.5844    3.4721 H   0  0  0  0  0  0  0  0  0  0  0  0
    0.2987    6.6081    2.0453 H   0  0  0  0  0  0  0  0  0  0  0  0
    1.6224    5.6557    2.7033 H   0  0  0  0  0  0  0  0  0  0  0  0
    0.2028    4.5232    1.6178 C   0  0  0  0  0  3  0  0  0  0  0  0
    0.8440    4.5253    0.2662 C   0  0  0  0  0  0  0  0  0  0  0  0
    1.1382    5.5206   -0.0487 H   0  0  0  0  0  0  0  0  0  0  0  0
    1.7369    3.8998    0.3451 H   0  0  0  0  0  0  0  0  0  0  0  0
    0.1944    4.0621   -0.4728 H   0  0  0  0  0  0  0  0  0  0  0  0
  1  4  1  0  0  0  0
  1  3  1  0  0  0  0
  2  1  1  0  0  0  0
  5  9  1  0  0  0  0
  6 18  1  0  0  0  0
  7 12  1  0  0  0  0
  9 11  1  0  0  0  0
  9 24  1  0  0  0  0
 10  9  1  0  0  0  0
 12 13  1  0  0  0  0
 12 14  1  0  0  0  0
 15  8  1  0  0  0  0
 15 27  1  0  0  0  0
 16 15  1  0  0  0  0
 17 15  1  0  0  0  0
 18 19  1  0  0  0  0
 18 12  1  0  0  0  0
 20 18  1  0  0  0  0
 21  6  1  0  0  0  0
 22 21  1  0  0  0  0
 23 21  1  0  0  0  0
 24  7  1  0  0  0  0
 24 25  1  0  0  0  0
 26 24  1  0  0  0  0
 27 29  1  0  0  0  0
 27  5  1  0  0  0  0
 28 27  1  0  0  0  0
 30  8  1  0  0  0  0
 30 32  1  0  0  0  0
 30 21  1  0  0  0  0
 31 30  1  0  0  0  0
 33  1  1  0  0  0  0
 34 37  1  0  0  0  0
 34 35  1  0  0  0  0
 36 34  1  0  0  0  0
 38 33  1  0  0  0  0
 38 34  1  0  0  0  0
 39 41  1  0  0  0  0
 39 38  1  0  0  0  0
 40 39  1  0  0  0  0
 42 39  1  0  0  0  0
M  END
$$$$
