CSD_code = NATDOD | q = 0 | S = 0 | Stoichiometry = C23H33Cl3NOTa | MND = 10
 OpenBabel04212202073D

 62 64  0  0  1  0  0  0  0  0999 V2000
    4.9735    3.6036   25.2161 C   0  0  1  0  0  3  0  0  0  0  0  0
    4.8273    2.1211   25.5343 C   0  0  0  0  0  0  0  0  0  0  0  0
    6.1452    1.3620   25.6536 C   0  0  0  0  0  0  0  0  0  0  0  0
    6.7498    1.4832   24.7586 H   0  0  0  0  0  0  0  0  0  0  0  0
    5.9298    0.3024   25.7784 H   0  0  0  0  0  0  0  0  0  0  0  0
    6.7246    1.6935   26.5095 H   0  0  0  0  0  0  0  0  0  0  0  0
    4.0011    1.9667   26.8155 C   0  0  0  0  0  0  0  0  0  0  0  0
    3.7328    0.9224   26.9573 H   0  0  0  0  0  0  0  0  0  0  0  0
    3.0909    2.5570   26.7458 H   0  0  0  0  0  0  0  0  0  0  0  0
    4.5659    2.2996   27.6828 H   0  0  0  0  0  0  0  0  0  0  0  0
    4.0316    1.5618   24.3415 C   0  0  0  0  0  0  0  0  0  0  0  0
    4.5812    1.7084   23.4140 H   0  0  0  0  0  0  0  0  0  0  0  0
    3.0759    2.0721   24.2536 H   0  0  0  0  0  0  0  0  0  0  0  0
    3.8552    0.4979   24.4812 H   0  0  0  0  0  0  0  0  0  0  0  0
    7.3965    4.0142   25.2013 C   0  0  0  0  0  0  0  0  0  0  0  0
    7.8302    4.0311   26.5370 C   0  0  0  0  0  0  0  0  0  0  0  0
    9.1859    3.8828   26.7982 C   0  0  0  0  0  0  0  0  0  0  0  0
    9.5190    3.8894   27.8260 H   0  0  0  0  0  0  0  0  0  0  0  0
   10.1035    3.7391   25.7760 C   0  0  0  0  0  0  0  0  0  0  0  0
   11.1530    3.6246   26.0015 H   0  0  0  0  0  0  0  0  0  0  0  0
    9.6716    3.7549   24.4622 C   0  0  0  0  0  0  0  0  0  0  0  0
   10.3862    3.6579   23.6582 H   0  0  0  0  0  0  0  0  0  0  0  0
    8.3280    3.9001   24.1568 C   0  0  0  0  0  0  0  0  0  0  0  0
    6.8951    4.2213   27.6944 C   0  0  0  0  0  0  0  0  0  0  0  0
    7.1557    5.1375   28.2231 H   0  0  0  0  0  0  0  0  0  0  0  0
    6.9840    3.3940   28.3990 H   0  0  0  0  0  0  0  0  0  0  0  0
    5.8605    4.3048   27.3720 H   0  0  0  0  0  0  0  0  0  0  0  0
    7.8739    3.9482   22.7333 C   0  0  0  0  0  0  0  0  0  0  0  0
    8.6688    3.6281   22.0645 H   0  0  0  0  0  0  0  0  0  0  0  0
    7.5905    4.9695   22.4671 H   0  0  0  0  0  0  0  0  0  0  0  0
    7.0016    3.3162   22.5765 H   0  0  0  0  0  0  0  0  0  0  0  0
    2.7823    7.4461   22.4641 C   0  0  1  0  0  3  0  0  0  0  0  0
    3.2615    8.6312   23.0620 C   0  0  0  0  0  0  0  0  0  0  0  0
    3.2092    8.4833   24.4583 C   0  0  0  0  0  0  0  0  0  0  0  0
    2.7087    7.1762   24.7569 C   0  0  1  0  0  0  0  0  0  0  0  0
    1.5476    5.3345   23.3053 C   0  0  0  0  0  0  0  0  0  0  0  0
    1.6775    4.6337   24.1271 H   0  0  0  0  0  0  0  0  0  0  0  0
    1.7931    4.8262   22.3751 H   0  0  0  0  0  0  0  0  0  0  0  0
    0.4995    5.6371   23.2688 H   0  0  0  0  0  0  0  0  0  0  0  0
    2.6562    7.1533   21.0091 C   0  0  0  0  0  0  0  0  0  0  0  0
    1.6112    7.0038   20.7354 H   0  0  0  0  0  0  0  0  0  0  0  0
    3.1967    6.2342   20.7748 H   0  0  0  0  0  0  0  0  0  0  0  0
    3.0674    7.9568   20.4056 H   0  0  0  0  0  0  0  0  0  0  0  0
    3.8290    9.7972   22.3279 C   0  0  0  0  0  0  0  0  0  0  0  0
    3.3233    9.9474   21.3769 H   0  0  0  0  0  0  0  0  0  0  0  0
    4.8887    9.6157   22.1274 H   0  0  0  0  0  0  0  0  0  0  0  0
    3.7449   10.7097   22.9126 H   0  0  0  0  0  0  0  0  0  0  0  0
    3.5767    9.4845   25.4977 C   0  0  0  0  0  0  0  0  0  0  0  0
    3.9868   10.3868   25.0539 H   0  0  0  0  0  0  0  0  0  0  0  0
    4.3254    9.0586   26.1682 H   0  0  0  0  0  0  0  0  0  0  0  0
    2.7056    9.7503   26.0975 H   0  0  0  0  0  0  0  0  0  0  0  0
    2.1336    6.7704   26.0795 C   0  0  0  0  0  0  0  0  0  0  0  0
    2.7399    7.1675   26.8910 H   0  0  0  0  0  0  0  0  0  0  0  0
    2.1065    5.6860   26.1672 H   0  0  0  0  0  0  0  0  0  0  0  0
    1.1170    7.1530   26.1845 H   0  0  0  0  0  0  0  0  0  0  0  0
    2.4244    6.5328   23.4919 C   0  0  1  0  0  3  0  0  0  0  0  0
    6.0546    4.2457   24.8900 N   0  0  0  0  0  0  0  0  0  0  0  0
    3.9047    4.2878   25.1006 O   0  0  0  0  0  0  0  0  0  0  0  0
    4.6831    4.6752   22.2232 Cl  0  0  0  0  0  0  0  0  0  0  0  0
    6.2979    7.4227   23.0403 Cl  0  0  0  0  0  0  0  0  0  0  0  0
    5.5681    6.8495   26.1936 Cl  0  0  0  0  0  0  0  0  0  0  0  0
    4.8099    6.0623   24.1240 Ta  0  0  0  0  0  0  0  0  0  0  0  0
  1  2  1  6  0  0  0
  2  3  1  0  0  0  0
  2  7  1  0  0  0  0
  3  5  1  0  0  0  0
  3  6  1  0  0  0  0
  4  3  1  0  0  0  0
  7  8  1  0  0  0  0
  7 10  1  0  0  0  0
  9  7  1  0  0  0  0
 11 14  1  0  0  0  0
 11  2  1  0  0  0  0
 12 11  1  0  0  0  0
 13 11  1  0  0  0  0
 15 16  1  0  0  0  0
 16 17  2  0  0  0  0
 16 24  1  0  0  0  0
 17 18  1  0  0  0  0
 19 20  1  0  0  0  0
 19 17  1  0  0  0  0
 21 19  2  0  0  0  0
 22 21  1  0  0  0  0
 23 21  1  0  0  0  0
 23 15  2  0  0  0  0
 24 25  1  0  0  0  0
 24 26  1  0  0  0  0
 27 24  1  0  0  0  0
 28 23  1  0  0  0  0
 29 28  1  0  0  0  0
 30 28  1  0  0  0  0
 31 28  1  0  0  0  0
 32 40  1  6  0  0  0
 32 33  1  0  0  0  0
 32 56  1  0  0  0  0
 33 34  2  0  0  0  0
 34 35  1  0  0  0  0
 34 48  1  0  0  0  0
 35 52  1  1  0  0  0
 36 37  1  0  0  0  0
 38 36  1  0  0  0  0
 39 36  1  0  0  0  0
 41 40  1  0  0  0  0
 42 40  1  0  0  0  0
 43 40  1  0  0  0  0
 44 47  1  0  0  0  0
 44 33  1  0  0  0  0
 45 44  1  0  0  0  0
 46 44  1  0  0  0  0
 48 51  1  0  0  0  0
 48 50  1  0  0  0  0
 49 48  1  0  0  0  0
 52 54  1  0  0  0  0
 52 55  1  0  0  0  0
 52 53  1  0  0  0  0
 56 36  1  1  0  0  0
 56 35  1  0  0  0  0
 57 15  1  0  0  0  0
 57  1  1  0  0  0  0
 58  1  1  0  0  0  0
 59 62  1  0  0  0  0
 60 62  1  0  0  0  0
 62 35  1  0  0  0  0
 62 57  1  0  0  0  0
 62 58  1  0  0  0  0
 62 61  1  0  0  0  0
M  END
$$$$
