CSD_code = NAWKIG | q = 0 | S = 0 | Stoichiometry = C21H26Br2N2Ni | MND = 4
 OpenBabel04212202073D

 52 54  0  0  0  0  0  0  0  0999 V2000
    3.4309    6.7189   16.0311 Ni  0  0  0  0  0  0  0  0  0  0  0  0
    5.1947    7.8866   16.7840 Br  0  0  0  0  0  0  0  0  0  0  0  0
    4.1306    4.8453   17.0177 Br  0  0  0  0  0  0  0  0  0  0  0  0
    2.5724    5.8538   14.3623 N   0  0  0  0  0  0  0  0  0  0  0  0
    2.3109    8.2957   15.7627 N   0  0  0  0  0  0  0  0  0  0  0  0
    2.2332    6.5538   13.3660 C   0  0  0  0  0  3  0  0  0  0  0  0
    2.0112    6.0736   12.4090 H   0  0  0  0  0  0  0  0  0  0  0  0
    2.1816    8.0560   13.3384 C   0  0  0  0  0  0  0  0  0  0  0  0
    1.7921    8.6430   14.6626 C   0  0  0  0  0  3  0  0  0  0  0  0
    1.0405    9.4346   14.6332 H   0  0  0  0  0  0  0  0  0  0  0  0
    3.6203    8.5253   13.0216 C   0  0  0  0  0  0  0  0  0  0  0  0
    4.3018    8.2101   13.8141 H   0  0  0  0  0  0  0  0  0  0  0  0
    3.6519    9.6095   12.9454 H   0  0  0  0  0  0  0  0  0  0  0  0
    3.9569    8.0984   12.0796 H   0  0  0  0  0  0  0  0  0  0  0  0
    1.2177    8.5267   12.2482 C   0  0  0  0  0  0  0  0  0  0  0  0
    0.2044    8.1852   12.4543 H   0  0  0  0  0  0  0  0  0  0  0  0
    1.5211    8.1400   11.2780 H   0  0  0  0  0  0  0  0  0  0  0  0
    1.2117    9.6130   12.1922 H   0  0  0  0  0  0  0  0  0  0  0  0
    2.6875    4.4519   14.1597 C   0  0  0  0  0  0  0  0  0  0  0  0
    3.9003    3.9470   13.6849 C   0  0  0  0  0  0  0  0  0  0  0  0
    4.0157    2.5775   13.5061 C   0  0  0  0  0  0  0  0  0  0  0  0
    4.9519    2.1722   13.1534 H   0  0  0  0  0  0  0  0  0  0  0  0
    2.9543    1.7354   13.7818 C   0  0  0  0  0  0  0  0  0  0  0  0
    3.0596    0.6710   13.6388 H   0  0  0  0  0  0  0  0  0  0  0  0
    1.7632    2.2536   14.2544 C   0  0  0  0  0  0  0  0  0  0  0  0
    0.9383    1.5951   14.4822 H   0  0  0  0  0  0  0  0  0  0  0  0
    1.6107    3.6174   14.4534 C   0  0  0  0  0  0  0  0  0  0  0  0
    5.0499    4.8697   13.4162 C   0  0  0  0  0  0  0  0  0  0  0  0
    5.9704    4.3060   13.2963 H   0  0  0  0  0  0  0  0  0  0  0  0
    5.1828    5.5682   14.2503 H   0  0  0  0  0  0  0  0  0  0  0  0
    4.8825    5.4571   12.5120 H   0  0  0  0  0  0  0  0  0  0  0  0
    0.3387    4.1872   15.0034 C   0  0  0  0  0  0  0  0  0  0  0  0
   -0.0383    4.9980   14.3787 H   0  0  0  0  0  0  0  0  0  0  0  0
    0.5195    4.5848   16.0020 H   0  0  0  0  0  0  0  0  0  0  0  0
   -0.4257    3.4184   15.0747 H   0  0  0  0  0  0  0  0  0  0  0  0
    1.9779    9.0157   16.9373 C   0  0  0  0  0  0  0  0  0  0  0  0
    2.3998   10.3435   17.0750 C   0  0  0  0  0  0  0  0  0  0  0  0
    2.0800   11.0127   18.2473 C   0  0  0  0  0  0  0  0  0  0  0  0
    2.4122   12.0322   18.3721 H   0  0  0  0  0  0  0  0  0  0  0  0
    1.3571   10.3964   19.2514 C   0  0  0  0  0  0  0  0  0  0  0  0
    1.1200   10.9356   20.1556 H   0  0  0  0  0  0  0  0  0  0  0  0
    0.9515    9.0833   19.1024 C   0  0  0  0  0  0  0  0  0  0  0  0
    0.3977    8.5926   19.8887 H   0  0  0  0  0  0  0  0  0  0  0  0
    1.2593    8.3751   17.9518 C   0  0  0  0  0  0  0  0  0  0  0  0
    3.2219   11.0227   16.0203 C   0  0  0  0  0  0  0  0  0  0  0  0
    3.6339   11.9476   16.4130 H   0  0  0  0  0  0  0  0  0  0  0  0
    2.6251   11.2663   15.1413 H   0  0  0  0  0  0  0  0  0  0  0  0
    4.0492   10.3852   15.7146 H   0  0  0  0  0  0  0  0  0  0  0  0
    0.8287    6.9501   17.7851 C   0  0  0  0  0  0  0  0  0  0  0  0
    0.4614    6.5436   18.7236 H   0  0  0  0  0  0  0  0  0  0  0  0
    1.6810    6.3331   17.4593 H   0  0  0  0  0  0  0  0  0  0  0  0
    0.0392    6.8676   17.0351 H   0  0  0  0  0  0  0  0  0  0  0  0
  1  2  1  0  0  0  0
  1  3  1  0  0  0  0
  4  1  1  0  0  0  0
  5  1  1  0  0  0  0
  5 36  1  0  0  0  0
  6  4  1  0  0  0  0
  7  6  1  0  0  0  0
  8  6  1  0  0  0  0
  8  9  1  0  0  0  0
  9  5  1  0  0  0  0
 10  9  1  0  0  0  0
 11  8  1  0  0  0  0
 11 12  1  0  0  0  0
 13 11  1  0  0  0  0
 14 11  1  0  0  0  0
 15 16  1  0  0  0  0
 15  8  1  0  0  0  0
 17 15  1  0  0  0  0
 18 15  1  0  0  0  0
 19  4  1  0  0  0  0
 19 27  1  0  0  0  0
 20 19  2  0  0  0  0
 21 20  1  0  0  0  0
 21 23  2  0  0  0  0
 22 21  1  0  0  0  0
 23 25  1  0  0  0  0
 24 23  1  0  0  0  0
 25 27  2  0  0  0  0
 25 26  1  0  0  0  0
 27 32  1  0  0  0  0
 28 20  1  0  0  0  0
 28 30  1  0  0  0  0
 29 28  1  0  0  0  0
 31 28  1  0  0  0  0
 32 35  1  0  0  0  0
 32 34  1  0  0  0  0
 33 32  1  0  0  0  0
 36 37  2  0  0  0  0
 36 44  1  0  0  0  0
 37 38  1  0  0  0  0
 38 39  1  0  0  0  0
 38 40  2  0  0  0  0
 40 41  1  0  0  0  0
 42 40  1  0  0  0  0
 42 43  1  0  0  0  0
 44 42  2  0  0  0  0
 45 46  1  0  0  0  0
 45 37  1  0  0  0  0
 47 45  1  0  0  0  0
 48 45  1  0  0  0  0
 49 44  1  0  0  0  0
 49 50  1  0  0  0  0
 51 49  1  0  0  0  0
 52 49  1  0  0  0  0
M  END
$$$$
