CSD_code = NAWLOP | q = 0 | S = 0 | Stoichiometry = C12H12Cl2N4Zn | MND = 5
 OpenBabel04212202073D

 31 34  0  0  0  0  0  0  0  0999 V2000
   10.7135    6.6232    9.9855 Zn  0  0  0  0  0  0  0  0  0  0  0  0
   10.9645    4.7118   11.1568 Cl  0  0  0  0  0  0  0  0  0  0  0  0
   12.0878    7.3813    8.4297 Cl  0  0  0  0  0  0  0  0  0  0  0  0
   11.2435    7.9393   11.6472 N   0  0  0  0  0  0  0  0  0  0  0  0
    9.1811    7.2795   12.4475 N   0  0  0  0  0  0  0  0  0  0  0  0
    8.6343    6.9570   13.2436 H   0  0  0  0  0  0  0  0  0  0  0  0
    8.8914    6.9075   11.2125 N   0  0  0  0  0  0  0  0  0  0  0  0
    8.9864    6.1615    8.7388 N   0  0  0  0  0  0  0  0  0  0  0  0
   12.4487    8.4620   11.8322 C   0  0  0  0  0  3  0  0  0  0  0  0
   13.0547    8.5543   10.9419 H   0  0  0  0  0  0  0  0  0  0  0  0
   12.9052    8.8613   13.0740 C   0  0  0  0  0  0  0  0  0  0  0  0
   13.8916    9.2802   13.1842 H   0  0  0  0  0  0  0  0  0  0  0  0
   12.0689    8.6973   14.1728 C   0  0  0  0  0  0  0  0  0  0  0  0
   12.3963    8.9853   15.1604 H   0  0  0  0  0  0  0  0  0  0  0  0
   10.8120    8.1596   13.9878 C   0  0  0  0  0  0  0  0  0  0  0  0
   10.1344    8.0131   14.8148 H   0  0  0  0  0  0  0  0  0  0  0  0
   10.4343    7.7929   12.6936 C   0  0  0  0  0  0  0  0  0  0  0  0
    7.8693    6.2391   10.8363 C   0  0  0  0  0  0  0  0  0  0  0  0
    7.8432    5.9494    9.4008 C   0  0  0  0  0  0  0  0  0  0  0  0
    9.0539    5.9193    7.4431 C   0  0  0  0  0  0  0  0  0  0  0  0
   10.0087    6.1233    6.9780 H   0  0  0  0  0  0  0  0  0  0  0  0
    7.9744    5.4386    6.7161 C   0  0  0  0  0  0  0  0  0  0  0  0
    8.0698    5.2477    5.6596 H   0  0  0  0  0  0  0  0  0  0  0  0
    6.7817    5.2118    7.3841 C   0  0  0  0  0  0  0  0  0  0  0  0
    5.9161    4.8398    6.8562 H   0  0  0  0  0  0  0  0  0  0  0  0
    6.7105    5.4707    8.7422 C   0  0  0  0  0  0  0  0  0  0  0  0
    5.7878    5.3159    9.2777 H   0  0  0  0  0  0  0  0  0  0  0  0
    6.7749    5.7313   11.7273 C   0  0  0  0  0  0  0  0  0  0  0  0
    7.1110    5.6637   12.7600 H   0  0  0  0  0  0  0  0  0  0  0  0
    6.4671    4.7380   11.4117 H   0  0  0  0  0  0  0  0  0  0  0  0
    5.9105    6.3949   11.6886 H   0  0  0  0  0  0  0  0  0  0  0  0
  1  2  1  0  0  0  0
  1  7  1  0  0  0  0
  1  4  1  0  0  0  0
  3  1  1  0  0  0  0
  4  9  1  0  0  0  0
  4 17  1  0  0  0  0
  5 17  1  0  0  0  0
  5  6  1  0  0  0  0
  7  5  1  0  0  0  0
  8 19  1  0  0  0  0
  8  1  1  0  0  0  0
  9 11  1  0  0  0  0
 10  9  1  0  0  0  0
 11 12  1  0  0  0  0
 11 13  2  0  0  0  0
 13 14  1  0  0  0  0
 15 13  1  0  0  0  0
 15 16  1  0  0  0  0
 17 15  2  0  0  0  0
 18  7  1  0  0  0  0
 18 28  1  0  0  0  0
 19 18  2  0  0  0  0
 20  8  1  0  0  0  0
 21 20  1  0  0  0  0
 22 24  1  0  0  0  0
 22 20  2  0  0  0  0
 23 22  1  0  0  0  0
 24 26  2  0  0  0  0
 25 24  1  0  0  0  0
 26 27  1  0  0  0  0
 26 19  1  0  0  0  0
 28 29  1  0  0  0  0
 30 28  1  0  0  0  0
 31 28  1  0  0  0  0
M  END
$$$$
