CSD_code = NAWREI | q = 0 | S = 0 | Stoichiometry = C16H23BCl2Zr | MND = 13
 OpenBabel04212202073D

 43 44  0  0  1  0  0  0  0  0999 V2000
    8.6936    2.9719    3.8670 Zr  0  0  0  0  0  0  0  0  0  0  0  0
    6.3528    3.2463    3.9524 Cl  0  0  0  0  0  0  0  0  0  0  0  0
    8.3708    0.6541    4.0936 Cl  0  0  0  0  0  0  0  0  0  0  0  0
   10.3516    4.3370    5.0552 C   0  0  0  0  0  3  0  0  0  0  0  0
    9.2552    5.1983    5.2423 C   0  0  0  0  0  0  0  0  0  0  0  0
    8.1176    4.8050    5.9469 C   0  0  0  0  0  0  0  0  0  0  0  0
    8.0235    3.5216    6.5077 C   0  0  0  0  0  0  0  0  0  0  0  0
    9.0405    2.5836    6.3597 C   0  0  0  0  0  0  0  0  0  0  0  0
   11.4877    1.8462    5.3927 C   0  0  0  0  0  0  0  0  0  0  0  0
    8.4370    2.5697    1.5171 C   0  0  1  0  0  0  0  0  0  0  0  0
    8.2676    3.9793    1.6631 C   0  0  0  0  0  0  0  0  0  0  0  0
    9.5237    4.5390    2.0210 C   0  0  0  0  0  0  0  0  0  0  0  0
   10.4767    3.4844    2.0863 C   0  0  0  0  0  0  0  0  0  0  0  0
    9.8075    2.2666    1.7822 C   0  0  0  0  0  0  0  0  0  0  0  0
    7.3806    1.5960    1.0713 C   0  0  0  0  0  0  0  0  0  0  0  0
    7.0406    4.7756    1.3143 C   0  0  0  0  0  0  0  0  0  0  0  0
    9.8047    6.0160    2.0532 C   0  0  0  0  0  0  0  0  0  0  0  0
   11.9709    3.6343    2.1794 C   0  0  0  0  0  0  0  0  0  0  0  0
   10.4696    0.9328    1.5691 C   0  0  0  0  0  0  0  0  0  0  0  0
   10.3291    2.9311    5.6257 B   0  0  1  0  0  0  0  0  0  0  0  0
   11.2400    4.7906    4.6180 H   0  0  0  0  0  0  0  0  0  0  0  0
    9.3193    6.2379    4.9257 H   0  0  0  0  0  0  0  0  0  0  0  0
    7.3159    5.5158    6.1120 H   0  0  0  0  0  0  0  0  0  0  0  0
    7.1413    3.2900    7.1005 H   0  0  0  0  0  0  0  0  0  0  0  0
    8.8982    1.6325    6.8740 H   0  0  0  0  0  0  0  0  0  0  0  0
   11.6087    1.1914    6.2542 H   0  0  0  0  0  0  0  0  0  0  0  0
   12.4637    2.2866    5.1900 H   0  0  0  0  0  0  0  0  0  0  0  0
   11.2294    1.1955    4.5480 H   0  0  0  0  0  0  0  0  0  0  0  0
    7.1783    1.7124    0.0042 H   0  0  0  0  0  0  0  0  0  0  0  0
    6.4480    1.7604    1.6173 H   0  0  0  0  0  0  0  0  0  0  0  0
    7.7064    0.5724    1.2506 H   0  0  0  0  0  0  0  0  0  0  0  0
    6.7975    5.4976    2.0969 H   0  0  0  0  0  0  0  0  0  0  0  0
    6.1824    4.1213    1.1802 H   0  0  0  0  0  0  0  0  0  0  0  0
    7.2052    5.3243    0.3840 H   0  0  0  0  0  0  0  0  0  0  0  0
   10.0013    6.3774    1.0408 H   0  0  0  0  0  0  0  0  0  0  0  0
   10.6749    6.2543    2.6621 H   0  0  0  0  0  0  0  0  0  0  0  0
    8.9463    6.5673    2.4369 H   0  0  0  0  0  0  0  0  0  0  0  0
   12.3987    3.0016    2.9566 H   0  0  0  0  0  0  0  0  0  0  0  0
   12.2496    4.6662    2.3787 H   0  0  0  0  0  0  0  0  0  0  0  0
   12.4261    3.3491    1.2289 H   0  0  0  0  0  0  0  0  0  0  0  0
   10.4941    0.6949    0.5035 H   0  0  0  0  0  0  0  0  0  0  0  0
    9.9289    0.1348    2.0803 H   0  0  0  0  0  0  0  0  0  0  0  0
   11.4948    0.9485    1.9347 H   0  0  0  0  0  0  0  0  0  0  0  0
  1  2  1  0  0  0  0
  1  3  1  0  0  0  0
  1 20  1  0  0  0  0
  4  5  1  0  0  0  0
  4 20  1  0  0  0  0
  5  6  2  0  0  0  0
  6 23  1  0  0  0  0
  6  7  1  0  0  0  0
  7 24  1  0  0  0  0
  8  7  2  0  0  0  0
  8 25  1  0  0  0  0
  9 26  1  0  0  0  0
 10 15  1  6  0  0  0
 10 11  1  0  0  0  0
 10 14  1  0  0  0  0
 10  1  1  0  0  0  0
 11 12  2  0  0  0  0
 12 17  1  0  0  0  0
 12 13  1  0  0  0  0
 13 18  1  0  0  0  0
 14 13  2  0  0  0  0
 15 31  1  0  0  0  0
 15 30  1  0  0  0  0
 16 11  1  0  0  0  0
 16 32  1  0  0  0  0
 17 37  1  0  0  0  0
 17 36  1  0  0  0  0
 18 39  1  0  0  0  0
 18 38  1  0  0  0  0
 19 14  1  0  0  0  0
 19 43  1  0  0  0  0
 19 42  1  0  0  0  0
 20  9  1  6  0  0  0
 20  8  1  0  0  0  0
 21  4  1  0  0  0  0
 22  5  1  0  0  0  0
 27  9  1  0  0  0  0
 28  9  1  0  0  0  0
 29 15  1  0  0  0  0
 33 16  1  0  0  0  0
 34 16  1  0  0  0  0
 35 17  1  0  0  0  0
 40 18  1  0  0  0  0
 41 19  1  0  0  0  0
M  END
$$$$
