CSD_code = NAWRUY | q = 0 | S = 0 | Stoichiometry = C6H8BCl3Ti | MND = 9
 OpenBabel04212202073D

 19 20  0  0  1  0  0  0  0  0999 V2000
    7.0655    3.0928    6.3399 Ti  0  0  0  0  0  0  0  0  0  0  0  0
    5.4559    3.0731    7.7932 Cl  0  0  0  0  0  0  0  0  0  0  0  0
    8.3150    4.4883    7.3682 Cl  0  0  0  0  0  0  0  0  0  0  0  0
    8.0283    1.3052    7.0831 Cl  0  0  0  0  0  0  0  0  0  0  0  0
    7.9018    2.7122    4.2021 C   0  0  1  0  0  0  0  0  0  0  0  0
    6.8013    1.8514    4.2962 C   0  0  0  0  0  3  0  0  0  0  0  0
    5.5212    2.3268    4.6296 C   0  0  0  0  0  0  0  0  0  0  0  0
    5.2849    3.7041    4.8219 C   0  0  0  0  0  0  0  0  0  0  0  0
    6.3160    4.6419    4.7508 C   0  0  2  0  0  0  0  0  0  0  0  0
    8.9226    5.2602    4.1263 C   0  0  0  0  0  0  0  0  0  0  0  0
    7.7356    4.2239    4.3570 B   0  0  0  0  0  0  0  0  0  0  0  0
    8.8436    2.2521    3.9028 H   0  0  0  0  0  0  0  0  0  0  0  0
    6.9123    0.7905    4.0735 H   0  0  0  0  0  0  0  0  0  0  0  0
    4.6815    1.6379    4.6440 H   0  0  0  0  0  0  0  0  0  0  0  0
    4.2579    4.0239    4.9950 H   0  0  0  0  0  0  0  0  0  0  0  0
    6.0277    5.6855    4.8765 H   0  0  0  0  0  0  0  0  0  0  0  0
    8.7660    6.1950    4.6608 H   0  0  0  0  0  0  0  0  0  0  0  0
    9.8843    4.8575    4.4406 H   0  0  0  0  0  0  0  0  0  0  0  0
    9.0210    5.5137    3.0709 H   0  0  0  0  0  0  0  0  0  0  0  0
  1  4  1  0  0  0  0
  1  3  1  0  0  0  0
  1  2  1  0  0  0  0
  5 12  1  6  0  0  0
  5  6  1  0  0  0  0
  5 11  1  0  0  0  0
  5  1  1  0  0  0  0
  6  7  1  0  0  0  0
  7 14  1  0  0  0  0
  7  8  2  0  0  0  0
  8 15  1  0  0  0  0
  9  8  1  0  0  0  0
  9 16  1  1  0  0  0
  9  1  1  0  0  0  0
 10 11  1  0  0  0  0
 10 18  1  0  0  0  0
 10 17  1  0  0  0  0
 11  9  1  0  0  0  0
 13  6  1  0  0  0  0
 19 10  1  0  0  0  0
M  END
$$$$
