CSD_code = NAWVAJ | q = 0 | S = 0 | Stoichiometry = C18H20Cl3NbO2 | MND = 7
 OpenBabel04212202073D

 44 41  0  0  0  0  0  0  0  0999 V2000
    2.8992    0.9341   11.4578 Nb  0  0  0  0  0  0  0  0  0  0  0  0
    2.4501    0.3956    9.2825 Cl  0  0  0  0  0 15  0  0  0  0  0  0
    2.3667    0.8383   13.7058 Cl  0  0  0  0  0 15  0  0  0  0  0  0
    2.4893    3.2586   11.3500 Cl  0  0  0  0  0 15  0  0  0  0  0  0
    5.0030    1.3283   11.3216 C   0  0  0  0  0  3  0  0  0  0  0  0
    4.8392    0.0886   11.7378 C   0  0  0  0  0  0  0  0  0  0  0  0
    6.0637    2.2727   11.0819 C   0  0  0  0  0  0  0  0  0  0  0  0
    7.2831    2.1666   11.7593 C   0  0  0  0  0  0  0  0  0  0  0  0
    8.2876    3.0843   11.5223 C   0  0  0  0  0  0  0  0  0  0  0  0
    8.0979    4.1091   10.6077 C   0  0  0  0  0  0  0  0  0  0  0  0
    6.8924    4.2214    9.9324 C   0  0  0  0  0  0  0  0  0  0  0  0
    5.8772    3.3153   10.1700 C   0  0  0  0  0  0  0  0  0  0  0  0
    5.6742   -1.0337   12.0954 C   0  0  0  0  0  0  0  0  0  0  0  0
    5.3146   -1.8543   13.1691 C   0  0  0  0  0  0  0  0  0  0  0  0
    6.1125   -2.9250   13.5248 C   0  0  0  0  0  0  0  0  0  0  0  0
    7.2630   -3.2059   12.8041 C   0  0  0  0  0  0  0  0  0  0  0  0
    7.6192   -2.4054   11.7294 C   0  0  0  0  0  0  0  0  0  0  0  0
    6.8383   -1.3219   11.3764 C   0  0  0  0  0  0  0  0  0  0  0  0
    0.2459    0.8272   11.4565 O   0  0  0  0  0  0  0  0  0  0  0  0
    1.9194   -1.5804   11.6045 O   0  0  0  0  0  0  0  0  0  0  0  0
   -0.4597    1.8992   12.0494 C   0  0  0  0  0  0  0  0  0  0  0  0
   -0.1571   -0.4276   11.9693 C   0  0  0  0  0  0  0  0  0  0  0  0
    0.5604   -1.5377   11.2125 C   0  0  0  0  0  0  0  0  0  0  0  0
    0.0850   -2.5021   11.4471 H   0  0  0  0  0  0  0  0  0  0  0  0
    0.4851   -1.3494   10.1306 H   0  0  0  0  0  0  0  0  0  0  0  0
    2.6308   -2.5991   10.9302 C   0  0  0  0  0  0  0  0  0  0  0  0
    7.4208    1.3696   12.4757 H   0  0  0  0  0  0  0  0  0  0  0  0
    9.2255    3.0016   12.0522 H   0  0  0  0  0  0  0  0  0  0  0  0
    8.8885    4.8218   10.4245 H   0  0  0  0  0  0  0  0  0  0  0  0
    6.7443    5.0228    9.2236 H   0  0  0  0  0  0  0  0  0  0  0  0
    4.9289    3.3946    9.6542 H   0  0  0  0  0  0  0  0  0  0  0  0
    4.4131   -1.6226   13.7227 H   0  0  0  0  0  0  0  0  0  0  0  0
    5.8360   -3.5472   14.3636 H   0  0  0  0  0  0  0  0  0  0  0  0
    7.8814   -4.0471   13.0797 H   0  0  0  0  0  0  0  0  0  0  0  0
    8.5153   -2.6253   11.1674 H   0  0  0  0  0  0  0  0  0  0  0  0
    7.1086   -0.6933   10.5403 H   0  0  0  0  0  0  0  0  0  0  0  0
   -1.5362    1.7873   11.8756 H   0  0  0  0  0  0  0  0  0  0  0  0
   -0.2653    1.9479   13.1279 H   0  0  0  0  0  0  0  0  0  0  0  0
   -0.1033    2.8128   11.5741 H   0  0  0  0  0  0  0  0  0  0  0  0
   -1.2431   -0.5429   11.8352 H   0  0  0  0  0  0  0  0  0  0  0  0
    0.0890   -0.4963   13.0396 H   0  0  0  0  0  0  0  0  0  0  0  0
    3.6405   -2.6041   11.3376 H   0  0  0  0  0  0  0  0  0  0  0  0
    2.6697   -2.4013    9.8523 H   0  0  0  0  0  0  0  0  0  0  0  0
    2.1565   -3.5719   11.1065 H   0  0  0  0  0  0  0  0  0  0  0  0
  1  6  1  0  0  0  0
  5  6  2  0  0  0  0
  6 13  1  0  0  0  0
  7  5  1  0  0  0  0
  7  8  1  0  0  0  0
  8 27  1  0  0  0  0
  9  8  2  0  0  0  0
  9 28  1  0  0  0  0
 10  9  1  0  0  0  0
 11 12  1  0  0  0  0
 11 10  2  0  0  0  0
 12  7  2  0  0  0  0
 13 14  1  0  0  0  0
 14 15  2  0  0  0  0
 14 32  1  0  0  0  0
 15 33  1  0  0  0  0
 16 34  1  0  0  0  0
 16 15  1  0  0  0  0
 17 16  2  0  0  0  0
 18 17  1  0  0  0  0
 18 13  2  0  0  0  0
 19 22  1  0  0  0  0
 19 21  1  0  0  0  0
 21 38  1  0  0  0  0
 22 41  1  0  0  0  0
 23 24  1  0  0  0  0
 23 20  1  0  0  0  0
 23 22  1  0  0  0  0
 25 23  1  0  0  0  0
 26 44  1  0  0  0  0
 26 42  1  0  0  0  0
 26 20  1  0  0  0  0
 29 10  1  0  0  0  0
 30 11  1  0  0  0  0
 31 12  1  0  0  0  0
 35 17  1  0  0  0  0
 36 18  1  0  0  0  0
 37 21  1  0  0  0  0
 39 21  1  0  0  0  0
 40 22  1  0  0  0  0
 43 26  1  0  0  0  0
M  END
$$$$
