CSD_code = NAXPOR | q = 0 | S = 0 | Stoichiometry = C6H14Cl3N2RhS | MND = 6
 OpenBabel04212202073D

 27 29  0  0  1  0  0  0  0  0999 V2000
    4.0911    6.8995    7.9361 Rh  0  0  0  0  0  0  0  0  0  0  0  0
    3.2872    4.8123    8.5967 S   0  0  1  0  0  3  0  0  0  0  0  0
    4.7073    8.9926    7.2811 Cl  0  0  0  0  0  0  0  0  0  0  0  0
    5.4483    7.0229    9.7417 Cl  0  0  0  0  0  0  0  0  0  0  0  0
    5.6242    5.9268    6.5845 Cl  0  0  0  0  0  0  0  0  0  0  0  0
    2.4298    7.7335    9.0203 N   0  0  1  0  0  4  0  0  0  0  0  0
    2.5747    6.8393    6.3918 N   0  0  2  0  0  4  0  0  0  0  0  0
    1.3121    8.0675    8.1211 C   0  0  0  0  0  0  0  0  0  0  0  0
    1.7552    8.0290    6.6476 C   0  0  0  0  0  0  0  0  0  0  0  0
    2.0888    6.8197   10.1113 C   0  0  0  0  0  0  0  0  0  0  0  0
    1.8577    5.3950    9.6083 C   0  0  0  0  0  0  0  0  0  0  0  0
    1.8094    5.5896    6.3189 C   0  0  0  0  0  0  0  0  0  0  0  0
    2.5487    4.4229    6.9660 C   0  0  0  0  0  0  0  0  0  0  0  0
    2.9418    6.8071   10.7964 H   0  0  0  0  0  0  0  0  0  0  0  0
    2.8377    8.5867    9.4019 H   0  0  0  0  0  0  0  0  0  0  0  0
    1.1963    7.1609   10.6560 H   0  0  0  0  0  0  0  0  0  0  0  0
    0.9579    5.2993    9.0048 H   0  0  0  0  0  0  0  0  0  0  0  0
    2.3869    8.9000    6.4543 H   0  0  0  0  0  0  0  0  0  0  0  0
    0.9186    9.0648    8.3384 H   0  0  0  0  0  0  0  0  0  0  0  0
    0.8742    8.0613    5.9934 H   0  0  0  0  0  0  0  0  0  0  0  0
    0.5032    7.3520    8.2908 H   0  0  0  0  0  0  0  0  0  0  0  0
    1.7828    4.7163   10.4568 H   0  0  0  0  0  0  0  0  0  0  0  0
    1.8989    3.5545    7.0732 H   0  0  0  0  0  0  0  0  0  0  0  0
    0.8502    5.7383    6.8220 H   0  0  0  0  0  0  0  0  0  0  0  0
    3.4292    4.1574    6.3776 H   0  0  0  0  0  0  0  0  0  0  0  0
    1.5927    5.3216    5.2775 H   0  0  0  0  0  0  0  0  0  0  0  0
    3.1208    6.9714    5.5409 H   0  0  0  0  0  0  0  0  0  0  0  0
  1  2  1  0  0  0  0
  1  6  1  0  0  0  0
  1  4  1  0  0  0  0
  2 13  1  6  0  0  0
  2 11  1  0  0  0  0
  3  1  1  0  0  0  0
  5  1  1  0  0  0  0
  6 15  1  1  0  0  0
  6 10  1  0  0  0  0
  7 27  1  6  0  0  0
  7  9  1  0  0  0  0
  7  1  1  0  0  0  0
  8 21  1  0  0  0  0
  8 19  1  0  0  0  0
  8  6  1  0  0  0  0
  9  8  1  0  0  0  0
 10 16  1  0  0  0  0
 10 14  1  0  0  0  0
 11 10  1  0  0  0  0
 11 22  1  0  0  0  0
 12  7  1  0  0  0  0
 12 24  1  0  0  0  0
 12 13  1  0  0  0  0
 13 23  1  0  0  0  0
 17 11  1  0  0  0  0
 18  9  1  0  0  0  0
 20  9  1  0  0  0  0
 25 13  1  0  0  0  0
 26 12  1  0  0  0  0
M  END
$$$$
