CSD_code = NAXSOV | q = 1 | S = 0 | Stoichiometry = C27H21ClFeN5O2(1+) | MND = 6
 OpenBabel04212202073D

 57 65  0  0  1  0  0  0  0  0999 V2000
    2.7768   -0.0015    3.8524 Fe  0  0  0  0  0  0  0  0  0  0  0  0
    4.2352   -0.7625    2.4681 Cl  0  0  0  0  0  0  0  0  0  0  0  0
    3.6791    2.1027    7.6730 O   0  0  0  0  0  0  0  0  0  0  0  0
    3.2933    1.6192    8.4136 H   0  0  0  0  0  0  0  0  0  0  0  0
   -1.6491   -0.0703    3.6033 O   0  0  0  0  0  0  0  0  0  0  0  0
   -1.9450   -0.5197    2.8020 H   0  0  0  0  0  0  0  0  0  0  0  0
    3.8582   -0.7234    5.3815 N   0  0  0  0  0  0  0  0  0  0  0  0
    3.9288    1.6655    4.1129 N   0  0  0  0  0  0  0  0  0  0  0  0
    1.5095    0.7116    5.1112 N   0  0  0  0  0  0  0  0  0  0  0  0
    1.6753    0.7066    2.3358 N   0  0  0  0  0  0  0  0  0  0  0  0
    1.6404   -1.6238    3.5823 N   0  0  0  0  0  0  0  0  0  0  0  0
    4.5124   -1.8844    5.3339 C   0  0  0  0  0  3  0  0  0  0  0  0
    4.4238   -2.4439    4.4207 H   0  0  0  0  0  0  0  0  0  0  0  0
    5.3181   -2.3582    6.3517 C   0  0  0  0  0  0  0  0  0  0  0  0
    5.8180   -3.3062    6.2416 H   0  0  0  0  0  0  0  0  0  0  0  0
    5.4810   -1.5828    7.4861 C   0  0  0  0  0  0  0  0  0  0  0  0
    6.1071   -1.9038    8.3031 H   0  0  0  0  0  0  0  0  0  0  0  0
    4.8369   -0.3582    7.5311 C   0  0  0  0  0  0  0  0  0  0  0  0
    4.9867    0.3018    8.3704 H   0  0  0  0  0  0  0  0  0  0  0  0
    4.0350    0.0340    6.4684 C   0  0  0  0  0  0  0  0  0  0  0  0
    3.4029    1.4233    6.4807 C   0  0  2  0  0  0  0  0  0  0  0  0
    4.0558    2.1834    5.3368 C   0  0  1  0  0  3  0  0  0  0  0  0
    4.7930    3.3258    5.6055 C   0  0  0  0  0  0  0  0  0  0  0  0
    4.8430    3.6922    6.6167 H   0  0  0  0  0  0  0  0  0  0  0  0
    5.4585    3.9562    4.5685 C   0  0  0  0  0  0  0  0  0  0  0  0
    6.0362    4.8487    4.7487 H   0  0  0  0  0  0  0  0  0  0  0  0
    5.3836    3.3879    3.3080 C   0  0  0  0  0  0  0  0  0  0  0  0
    5.9152    3.8077    2.4698 H   0  0  0  0  0  0  0  0  0  0  0  0
    4.6150    2.2525    3.1329 C   0  0  0  0  0  0  0  0  0  0  0  0
    4.5863    1.7663    2.1739 H   0  0  0  0  0  0  0  0  0  0  0  0
    1.9100    1.3513    6.2163 C   0  0  1  0  0  3  0  0  0  0  0  0
    1.0318    1.9702    7.0916 C   0  0  0  0  0  0  0  0  0  0  0  0
    1.4088    2.5227    7.9367 H   0  0  0  0  0  0  0  0  0  0  0  0
   -0.3300    1.9008    6.8532 C   0  0  0  0  0  0  0  0  0  0  0  0
   -1.0340    2.3726    7.5186 H   0  0  0  0  0  0  0  0  0  0  0  0
   -0.7565    1.2116    5.7326 C   0  0  0  0  0  0  0  0  0  0  0  0
   -1.7996    1.1121    5.4873 H   0  0  0  0  0  0  0  0  0  0  0  0
    0.1908    0.6486    4.8965 C   0  0  0  0  0  0  0  0  0  0  0  0
   -0.2507   -0.0664    3.6419 C   0  0  2  0  0  0  0  0  0  0  0  0
    0.3441    0.6834    2.4510 C   0  0  2  0  0  3  0  0  0  0  0  0
   -0.4954    1.2828    1.5234 C   0  0  0  0  0  0  0  0  0  0  0  0
   -1.5607    1.3022    1.6904 H   0  0  0  0  0  0  0  0  0  0  0  0
    0.0486    1.8699    0.3933 C   0  0  0  0  0  0  0  0  0  0  0  0
   -0.5856    2.3506   -0.3342 H   0  0  0  0  0  0  0  0  0  0  0  0
    1.4192    1.7864    0.2146 C   0  0  0  0  0  0  0  0  0  0  0  0
    1.8943    2.1690   -0.6734 H   0  0  0  0  0  0  0  0  0  0  0  0
    2.1832    1.2048    1.2082 C   0  0  0  0  0  0  0  0  0  0  0  0
    3.2447    1.0841    1.0760 H   0  0  0  0  0  0  0  0  0  0  0  0
    0.3133   -1.4841    3.6495 C   0  0  1  0  0  3  0  0  0  0  0  0
   -0.5499   -2.5703    3.6717 C   0  0  0  0  0  0  0  0  0  0  0  0
   -1.6090   -2.4163    3.8046 H   0  0  0  0  0  0  0  0  0  0  0  0
   -0.0369   -3.8498    3.5389 C   0  0  0  0  0  0  0  0  0  0  0  0
   -0.6887   -4.7081    3.5686 H   0  0  0  0  0  0  0  0  0  0  0  0
    1.3247   -3.9829    3.3239 C   0  0  0  0  0  0  0  0  0  0  0  0
    1.7729   -4.9450    3.1388 H   0  0  0  0  0  0  0  0  0  0  0  0
    2.1152   -2.8504    3.3598 C   0  0  0  0  0  0  0  0  0  0  0  0
    3.1686   -2.9156    3.1442 H   0  0  0  0  0  0  0  0  0  0  0  0
  1  8  1  0  0  0  0
  1  9  1  0  0  0  0
  1  7  1  0  0  0  0
  2  1  1  0  0  0  0
  3  4  1  0  0  0  0
  6  5  1  0  0  0  0
  7 20  1  0  0  0  0
  8 22  1  0  0  0  0
  9 31  1  0  0  0  0
 10 40  1  0  0  0  0
 10  1  1  0  0  0  0
 11 49  1  0  0  0  0
 11  1  1  0  0  0  0
 12  7  1  0  0  0  0
 12 14  1  0  0  0  0
 13 12  1  0  0  0  0
 14 16  2  0  0  0  0
 15 14  1  0  0  0  0
 16 18  1  0  0  0  0
 16 17  1  0  0  0  0
 18 19  1  0  0  0  0
 20 21  1  0  0  0  0
 20 18  2  0  0  0  0
 21  3  1  1  0  0  0
 22 23  1  1  0  0  0
 22 21  1  0  0  0  0
 23 24  1  0  0  0  0
 25 26  1  0  0  0  0
 25 23  2  0  0  0  0
 27 25  1  0  0  0  0
 28 27  1  0  0  0  0
 29 27  2  0  0  0  0
 29  8  1  0  0  0  0
 30 29  1  0  0  0  0
 31 21  1  0  0  0  0
 31 32  1  6  0  0  0
 32 33  1  0  0  0  0
 34 32  2  0  0  0  0
 34 35  1  0  0  0  0
 36 34  1  0  0  0  0
 37 36  1  0  0  0  0
 38  9  1  0  0  0  0
 38 36  2  0  0  0  0
 39  5  1  6  0  0  0
 39 49  1  0  0  0  0
 39 38  1  0  0  0  0
 40 41  1  6  0  0  0
 40 39  1  0  0  0  0
 41 42  1  0  0  0  0
 43 41  2  0  0  0  0
 44 43  1  0  0  0  0
 45 43  1  0  0  0  0
 45 47  2  0  0  0  0
 46 45  1  0  0  0  0
 47 10  1  0  0  0  0
 48 47  1  0  0  0  0
 49 50  1  6  0  0  0
 50 51  1  0  0  0  0
 52 53  1  0  0  0  0
 52 50  2  0  0  0  0
 54 56  2  0  0  0  0
 54 52  1  0  0  0  0
 55 54  1  0  0  0  0
 56 11  1  0  0  0  0
 57 56  1  0  0  0  0
M  END
$$$$
