CSD_code = NAYFAV | q = 1 | S = 0 | Stoichiometry = C12H18Cl2IrN4(1+) | MND = 6
 OpenBabel04212202073D

 37 39  0  0  0  0  0  0  0  0999 V2000
    9.4097    5.3978    1.9508 Ir  0  0  0  0  0  0  0  0  0  0  0  0
    7.0787    4.9696    1.8121 Cl  0  0  0  0  0  0  0  0  0  0  0  0
   11.7331    5.6684    2.3519 Cl  0  0  0  0  0  0  0  0  0  0  0  0
    9.2062    7.3576    1.4437 N   0  0  0  0  0  0  0  0  0  0  0  0
    9.6695    4.9575   -0.0185 N   0  0  0  0  0  0  0  0  0  0  0  0
    9.1035    5.7179    4.0171 N   0  0  0  0  0  4  0  0  0  0  0  0
    9.6493    3.4057    2.6129 N   0  0  0  0  0  4  0  0  0  0  0  0
   10.1636    7.9922    0.7595 C   0  0  0  0  0  3  0  0  0  0  0  0
   10.0753    9.3294    0.4178 C   0  0  0  0  0  0  0  0  0  0  0  0
    8.9521   10.0507    0.7908 C   0  0  0  0  0  0  0  0  0  0  0  0
    7.9563    9.3910    1.4941 C   0  0  0  0  0  0  0  0  0  0  0  0
    8.1210    8.0526    1.8006 C   0  0  0  0  0  0  0  0  0  0  0  0
    8.7490    5.3002   -0.9255 C   0  0  0  0  0  3  0  0  0  0  0  0
    8.8775    5.0001   -2.2694 C   0  0  0  0  0  0  0  0  0  0  0  0
   10.0034    4.3204   -2.7066 C   0  0  0  0  0  0  0  0  0  0  0  0
   10.9608    3.9708   -1.7672 C   0  0  0  0  0  0  0  0  0  0  0  0
   10.7571    4.3041   -0.4406 C   0  0  0  0  0  0  0  0  0  0  0  0
    9.5777    4.5317    4.7511 C   0  0  0  0  0  0  0  0  0  0  0  0
    9.1136    3.3002    3.9812 C   0  0  0  0  0  0  0  0  0  0  0  0
   11.0406    7.4193    0.4945 H   0  0  0  0  0  0  0  0  0  0  0  0
   10.8799    9.7922   -0.1300 H   0  0  0  0  0  0  0  0  0  0  0  0
    8.8552   11.0952    0.5401 H   0  0  0  0  0  0  0  0  0  0  0  0
    7.0596    9.9020    1.8048 H   0  0  0  0  0  0  0  0  0  0  0  0
    7.3437    7.5115    2.3213 H   0  0  0  0  0  0  0  0  0  0  0  0
    7.8687    5.8118   -0.5638 H   0  0  0  0  0  0  0  0  0  0  0  0
    8.1013    5.2956   -2.9565 H   0  0  0  0  0  0  0  0  0  0  0  0
   10.1316    4.0715   -3.7482 H   0  0  0  0  0  0  0  0  0  0  0  0
   11.8579    3.4457   -2.0524 H   0  0  0  0  0  0  0  0  0  0  0  0
   11.5046    4.0680    0.3034 H   0  0  0  0  0  0  0  0  0  0  0  0
    8.0934    5.8069    4.1538 H   0  0  0  0  0  0  0  0  0  0  0  0
    9.5484    6.5525    4.3988 H   0  0  0  0  0  0  0  0  0  0  0  0
   10.6701    4.5605    4.7765 H   0  0  0  0  0  0  0  0  0  0  0  0
    9.1975    4.5132    5.7765 H   0  0  0  0  0  0  0  0  0  0  0  0
    8.0223    3.2931    3.9202 H   0  0  0  0  0  0  0  0  0  0  0  0
    9.4492    2.3845    4.4765 H   0  0  0  0  0  0  0  0  0  0  0  0
   10.6564    3.2266    2.6394 H   0  0  0  0  0  0  0  0  0  0  0  0
    9.2173    2.6939    2.0240 H   0  0  0  0  0  0  0  0  0  0  0  0
  1  3  1  0  0  0  0
  1  7  1  0  0  0  0
  1  6  1  0  0  0  0
  2  1  1  0  0  0  0
  4 12  1  0  0  0  0
  4  1  1  0  0  0  0
  5  1  1  0  0  0  0
  6 30  1  0  0  0  0
  6 31  1  0  0  0  0
  6 18  1  0  0  0  0
  7 36  1  0  0  0  0
  7 19  1  0  0  0  0
  8  4  1  0  0  0  0
  9  8  1  0  0  0  0
  9 10  2  0  0  0  0
 10 11  1  0  0  0  0
 11 12  2  0  0  0  0
 11 23  1  0  0  0  0
 12 24  1  0  0  0  0
 13 25  1  0  0  0  0
 13  5  1  0  0  0  0
 14 13  1  0  0  0  0
 15 14  2  0  0  0  0
 15 16  1  0  0  0  0
 16 17  2  0  0  0  0
 17  5  1  0  0  0  0
 17 29  1  0  0  0  0
 18 32  1  0  0  0  0
 18 33  1  0  0  0  0
 19 35  1  0  0  0  0
 19 18  1  0  0  0  0
 20  8  1  0  0  0  0
 21  9  1  0  0  0  0
 22 10  1  0  0  0  0
 26 14  1  0  0  0  0
 27 15  1  0  0  0  0
 28 16  1  0  0  0  0
 34 19  1  0  0  0  0
 37  7  1  0  0  0  0
M  END
$$$$
