CSD_code = NAYFEZ | q = 1 | S = 0 | Stoichiometry = C12H14Cl2IrN4(1+) | MND = 6
 OpenBabel04212202073D

 33 35  0  0  0  0  0  0  0  0999 V2000
    1.0075    1.7132    3.9875 Ir  0  0  0  0  0  0  0  0  0  0  0  0
   -0.6330    3.3625    4.4347 Cl  0  0  0  0  0  0  0  0  0  0  0  0
    2.6153    0.0314    3.5419 Cl  0  0  0  0  0  0  0  0  0  0  0  0
   -0.1829    0.9086    2.5068 N   0  0  0  0  0  0  0  0  0  0  0  0
    0.0823    0.4843    5.3621 N   0  0  0  0  0  0  0  0  0  0  0  0
    2.2061    2.5998    5.2841 N   0  0  0  0  0  0  0  0  0  0  0  0
    2.0048    2.9370    2.8004 N   0  0  0  0  0  0  0  0  0  0  0  0
   -0.8393    1.7182    1.6697 C   0  0  0  0  0  3  0  0  0  0  0  0
   -1.6243    1.2452    0.6337 C   0  0  0  0  0  0  0  0  0  0  0  0
   -1.7400   -0.1229    0.4441 C   0  0  0  0  0  0  0  0  0  0  0  0
   -1.0597   -0.9620    1.3125 C   0  0  0  0  0  0  0  0  0  0  0  0
   -0.2962   -0.4112    2.3259 C   0  0  0  0  0  0  0  0  0  0  0  0
   -1.2486    0.4121    5.4669 C   0  0  0  0  0  3  0  0  0  0  0  0
   -1.8807   -0.3746    6.4128 C   0  0  0  0  0  0  0  0  0  0  0  0
   -1.1147   -1.1233    7.2926 C   0  0  0  0  0  0  0  0  0  0  0  0
    0.2649   -1.0509    7.1814 C   0  0  0  0  0  0  0  0  0  0  0  0
    0.8211   -0.2391    6.2094 C   0  0  0  0  0  0  0  0  0  0  0  0
    3.0007    3.4895    4.7935 C   0  0  0  0  0  0  0  0  0  0  0  0
    2.8988    3.6687    3.3742 C   0  0  0  0  0  0  0  0  0  0  0  0
   -0.7587    2.7803    1.8514 H   0  0  0  0  0  0  0  0  0  0  0  0
   -2.1340    1.9435   -0.0102 H   0  0  0  0  0  0  0  0  0  0  0  0
   -2.3422   -0.5233   -0.3563 H   0  0  0  0  0  0  0  0  0  0  0  0
   -1.1126   -2.0337    1.2093 H   0  0  0  0  0  0  0  0  0  0  0  0
    0.2595   -1.0504    2.9972 H   0  0  0  0  0  0  0  0  0  0  0  0
   -1.8304    1.0201    4.7888 H   0  0  0  0  0  0  0  0  0  0  0  0
   -2.9575   -0.3923    6.4561 H   0  0  0  0  0  0  0  0  0  0  0  0
   -1.5788   -1.7442    8.0425 H   0  0  0  0  0  0  0  0  0  0  0  0
    0.9089   -1.6143    7.8370 H   0  0  0  0  0  0  0  0  0  0  0  0
    1.8940   -0.1908    6.0882 H   0  0  0  0  0  0  0  0  0  0  0  0
    2.2493    2.4612    6.2935 H   0  0  0  0  0  0  0  0  0  0  0  0
    3.6965    4.0656    5.3925 H   0  0  0  0  0  0  0  0  0  0  0  0
    3.5315    4.3685    2.8408 H   0  0  0  0  0  0  0  0  0  0  0  0
    1.9195    3.0347    1.7893 H   0  0  0  0  0  0  0  0  0  0  0  0
  1  2  1  0  0  0  0
  1  6  1  0  0  0  0
  1  5  1  0  0  0  0
  3  1  1  0  0  0  0
  4  1  1  0  0  0  0
  5 13  1  0  0  0  0
  5 17  1  0  0  0  0
  6 30  1  0  0  0  0
  7 19  1  0  0  0  0
  7  1  1  0  0  0  0
  8 20  1  0  0  0  0
  8  4  1  0  0  0  0
  9  8  1  0  0  0  0
 10  9  2  0  0  0  0
 10 11  1  0  0  0  0
 11 12  2  0  0  0  0
 12  4  1  0  0  0  0
 12 24  1  0  0  0  0
 13 14  1  0  0  0  0
 14 26  1  0  0  0  0
 14 15  2  0  0  0  0
 15 27  1  0  0  0  0
 16 15  1  0  0  0  0
 16 28  1  0  0  0  0
 17 16  2  0  0  0  0
 18  6  1  0  0  0  0
 18 31  1  0  0  0  0
 19 18  2  0  0  0  0
 21  9  1  0  0  0  0
 22 10  1  0  0  0  0
 23 11  1  0  0  0  0
 25 13  1  0  0  0  0
 29 17  1  0  0  0  0
 32 19  1  0  0  0  0
 33  7  1  0  0  0  0
M  END
$$$$
