CSD_code = NAYHIF | q = 0 | S = 0 | Stoichiometry = C16H25Cl3O2Zr | MND = 10
 OpenBabel04212202073D

 47 47  0  0  1  0  0  0  0  0999 V2000
    6.2537    9.3678    5.6608 Zr  0  0  0  0  0  0  0  0  0  0  0  0
    4.7838   10.9635    4.6380 Cl  0  0  0  0  0  0  0  0  0  0  0  0
    7.4097    7.2573    5.6236 Cl  0  0  0  0  0  0  0  0  0  0  0  0
    4.4625    8.4225    6.8389 Cl  0  0  0  0  0  0  0  0  0  0  0  0
    6.4741   11.0656    7.4083 C   0  0  2  0  0  0  0  0  0  0  0  0
    7.3931   11.4578    6.3916 C   0  0  0  0  0  0  0  0  0  0  0  0
    7.3485   12.3794    5.8257 H   0  0  0  0  0  0  0  0  0  0  0  0
    8.4502   10.5238    6.3648 C   0  0  0  0  0  0  0  0  0  0  0  0
    9.3609   10.6047    5.7833 H   0  0  0  0  0  0  0  0  0  0  0  0
    8.2092    9.5607    7.3652 C   0  0  0  0  0  0  0  0  0  0  0  0
    8.8812    8.7622    7.6486 H   0  0  0  0  0  0  0  0  0  0  0  0
    6.9922    9.8702    7.9939 C   0  0  0  0  0  0  0  0  0  0  0  0
    6.5914    9.3621    8.8622 H   0  0  0  0  0  0  0  0  0  0  0  0
    5.2789   11.8033    7.8264 C   0  0  0  0  0  0  0  0  0  0  0  0
    4.3694   11.2835    8.6510 C   0  0  0  0  0  0  0  0  0  0  0  0
    3.5059   11.8505    8.9541 H   0  0  0  0  0  0  0  0  0  0  0  0
    4.4325   10.2772    9.0284 H   0  0  0  0  0  0  0  0  0  0  0  0
    5.1373   13.2023    7.2917 C   0  0  0  0  0  0  0  0  0  0  0  0
    4.2894   13.7001    7.7542 H   0  0  0  0  0  0  0  0  0  0  0  0
    4.9736   13.1738    6.2145 H   0  0  0  0  0  0  0  0  0  0  0  0
    6.0381   13.7814    7.4915 H   0  0  0  0  0  0  0  0  0  0  0  0
    7.4247    9.7482    3.7352 O   0  0  0  0  0  0  0  0  0  0  0  0
    7.6378   11.0156    3.1034 C   0  0  0  0  0  0  0  0  0  0  0  0
    6.7649   11.6396    3.3126 H   0  0  0  0  0  0  0  0  0  0  0  0
    8.5450   11.4797    3.5151 H   0  0  0  0  0  0  0  0  0  0  0  0
    7.8258   10.7133    1.6092 C   0  0  0  0  0  0  0  0  0  0  0  0
    8.5851   11.3597    1.1749 H   0  0  0  0  0  0  0  0  0  0  0  0
    6.8967   10.8702    1.0637 H   0  0  0  0  0  0  0  0  0  0  0  0
    8.2413    9.2320    1.5818 C   0  0  0  0  0  0  0  0  0  0  0  0
    9.1989    9.0801    1.0896 H   0  0  0  0  0  0  0  0  0  0  0  0
    7.4949    8.6305    1.0659 H   0  0  0  0  0  0  0  0  0  0  0  0
    8.3126    8.8472    3.0636 C   0  0  0  0  0  0  0  0  0  0  0  0
    7.9842    7.8276    3.2745 H   0  0  0  0  0  0  0  0  0  0  0  0
    9.3303    8.9867    3.4546 H   0  0  0  0  0  0  0  0  0  0  0  0
    5.2199    8.1418    3.9469 O   0  0  0  0  0  0  0  0  0  0  0  0
    4.6160    8.5981    2.7338 C   0  0  0  0  0  0  0  0  0  0  0  0
    5.2415    9.3876    2.3148 H   0  0  0  0  0  0  0  0  0  0  0  0
    3.6241    9.0133    2.9578 H   0  0  0  0  0  0  0  0  0  0  0  0
    4.4927    7.3571    1.8326 C   0  0  0  0  0  0  0  0  0  0  0  0
    5.2759    7.3348    1.0764 H   0  0  0  0  0  0  0  0  0  0  0  0
    3.5313    7.3458    1.3235 H   0  0  0  0  0  0  0  0  0  0  0  0
    4.6372    6.1830    2.8142 C   0  0  0  0  0  0  0  0  0  0  0  0
    3.8421    5.4491    2.7125 H   0  0  0  0  0  0  0  0  0  0  0  0
    5.5946    5.6807    2.6794 H   0  0  0  0  0  0  0  0  0  0  0  0
    4.6022    6.8706    4.1802 C   0  0  0  0  0  0  0  0  0  0  0  0
    5.1700    6.3448    4.9496 H   0  0  0  0  0  0  0  0  0  0  0  0
    3.5688    7.0248    4.5205 H   0  0  0  0  0  0  0  0  0  0  0  0
  1  4  1  0  0  0  0
  1  5  1  0  0  0  0
  2  1  1  0  0  0  0
  3  1  1  0  0  0  0
  5 14  1  1  0  0  0
  5 12  1  0  0  0  0
  6  5  1  0  0  0  0
  7  6  1  0  0  0  0
  8  6  2  0  0  0  0
  8 10  1  0  0  0  0
  9  8  1  0  0  0  0
 10 11  1  0  0  0  0
 10 12  2  0  0  0  0
 12 13  1  0  0  0  0
 14 15  2  0  0  0  0
 15 16  1  0  0  0  0
 15 17  1  0  0  0  0
 18 21  1  0  0  0  0
 18 19  1  0  0  0  0
 18 14  1  0  0  0  0
 20 18  1  0  0  0  0
 23 24  1  0  0  0  0
 23 25  1  0  0  0  0
 23 22  1  0  0  0  0
 26 23  1  0  0  0  0
 27 26  1  0  0  0  0
 28 26  1  0  0  0  0
 29 26  1  0  0  0  0
 29 32  1  0  0  0  0
 30 29  1  0  0  0  0
 31 29  1  0  0  0  0
 32 33  1  0  0  0  0
 32 34  1  0  0  0  0
 32 22  1  0  0  0  0
 35 45  1  0  0  0  0
 36 38  1  0  0  0  0
 36 35  1  0  0  0  0
 37 36  1  0  0  0  0
 39 36  1  0  0  0  0
 39 42  1  0  0  0  0
 40 39  1  0  0  0  0
 41 39  1  0  0  0  0
 42 45  1  0  0  0  0
 43 42  1  0  0  0  0
 44 42  1  0  0  0  0
 45 47  1  0  0  0  0
 45 46  1  0  0  0  0
M  END
$$$$
