CSD_code = NAYSUD | q = 0 | S = 0 | Stoichiometry = C25H29ClCrN2 | MND = 8
 OpenBabel04212202073D

 58 61  0  0  1  0  0  0  0  0999 V2000
    4.8664   -0.1334    3.5944 C   0  0  0  0  0  0  0  0  0  0  0  0
    4.8862   -1.2140    3.7370 H   0  0  0  0  0  0  0  0  0  0  0  0
    5.8077    0.2665    3.9698 H   0  0  0  0  0  0  0  0  0  0  0  0
    4.7896    0.0746    2.5302 H   0  0  0  0  0  0  0  0  0  0  0  0
    3.7057    0.4600    4.3342 C   0  0  0  0  0  0  0  0  0  0  0  0
    3.5856    0.4686    5.7069 C   0  0  0  0  0  0  0  0  0  0  0  0
    4.6037   -0.1001    6.6478 C   0  0  0  0  0  0  0  0  0  0  0  0
    5.5476    0.4394    6.5685 H   0  0  0  0  0  0  0  0  0  0  0  0
    4.7956   -1.1438    6.4024 H   0  0  0  0  0  0  0  0  0  0  0  0
    4.2511   -0.0377    7.6739 H   0  0  0  0  0  0  0  0  0  0  0  0
    2.7319    1.3890    2.3724 C   0  0  0  0  0  0  0  0  0  0  0  0
    3.4565    2.5275    1.9818 C   0  0  0  0  0  0  0  0  0  0  0  0
    3.4562    2.9101    0.6499 C   0  0  0  0  0  0  0  0  0  0  0  0
    4.0035    3.7939    0.3547 H   0  0  0  0  0  0  0  0  0  0  0  0
    2.7719    2.1728   -0.2996 C   0  0  0  0  0  0  0  0  0  0  0  0
    2.7755    2.4839   -1.3336 H   0  0  0  0  0  0  0  0  0  0  0  0
    2.1042    1.0248    0.0802 C   0  0  0  0  0  0  0  0  0  0  0  0
    1.5955    0.4272   -0.6623 H   0  0  0  0  0  0  0  0  0  0  0  0
    2.0832    0.6109    1.4056 C   0  0  0  0  0  0  0  0  0  0  0  0
    1.3953   -0.6646    1.7757 C   0  0  0  0  0  0  0  0  0  0  0  0
    0.3651   -0.4691    2.0733 H   0  0  0  0  0  0  0  0  0  0  0  0
    1.8918   -1.1456    2.6157 H   0  0  0  0  0  0  0  0  0  0  0  0
    1.3801   -1.3469    0.9287 H   0  0  0  0  0  0  0  0  0  0  0  0
    4.2306    3.3174    2.9935 C   0  0  0  0  0  0  0  0  0  0  0  0
    4.4953    4.2945    2.5973 H   0  0  0  0  0  0  0  0  0  0  0  0
    5.1491    2.7946    3.2581 H   0  0  0  0  0  0  0  0  0  0  0  0
    3.6470    3.4454    3.9027 H   0  0  0  0  0  0  0  0  0  0  0  0
    2.2990    1.4457    7.4521 C   0  0  0  0  0  0  0  0  0  0  0  0
    3.0051    2.5524    7.9490 C   0  0  0  0  0  0  0  0  0  0  0  0
    2.7702    2.9809    9.2477 C   0  0  0  0  0  0  0  0  0  0  0  0
    3.3065    3.8423    9.6194 H   0  0  0  0  0  0  0  0  0  0  0  0
    1.8722    2.3201   10.0640 C   0  0  0  0  0  0  0  0  0  0  0  0
    1.6962    2.6669   11.0712 H   0  0  0  0  0  0  0  0  0  0  0  0
    1.2187    1.1984    9.5886 C   0  0  0  0  0  0  0  0  0  0  0  0
    0.5396    0.6579   10.2320 H   0  0  0  0  0  0  0  0  0  0  0  0
    1.4265    0.7425    8.2950 C   0  0  0  0  0  0  0  0  0  0  0  0
    0.7379   -0.4981    7.8224 C   0  0  0  0  0  0  0  0  0  0  0  0
    0.4829   -1.1359    8.6655 H   0  0  0  0  0  0  0  0  0  0  0  0
    1.3676   -1.0529    7.1299 H   0  0  0  0  0  0  0  0  0  0  0  0
   -0.1826   -0.2455    7.2961 H   0  0  0  0  0  0  0  0  0  0  0  0
    4.0207    3.2797    7.1174 C   0  0  0  0  0  0  0  0  0  0  0  0
    3.8721    4.3558    7.1917 H   0  0  0  0  0  0  0  0  0  0  0  0
    3.9653    2.9797    6.0747 H   0  0  0  0  0  0  0  0  0  0  0  0
    5.0234    3.0583    7.4839 H   0  0  0  0  0  0  0  0  0  0  0  0
   -0.8334    2.6695    5.1865 C   0  0  0  0  0  0  0  0  0  0  0  0
   -1.7416    2.2440    5.5879 H   0  0  0  0  0  0  0  0  0  0  0  0
    0.2054    3.2500    5.9322 C   0  0  0  0  0  0  0  0  0  0  0  0
    0.2117    3.4025    7.0006 H   0  0  0  0  0  0  0  0  0  0  0  0
    1.1541    3.7664    5.0165 C   0  0  2  0  0  0  0  0  0  0  0  0
    1.9528    4.4471    5.2718 H   0  0  0  0  0  0  0  0  0  0  0  0
    0.6826    3.5060    3.7085 C   0  0  0  0  0  0  0  0  0  0  0  0
    1.1211    3.8702    2.7922 H   0  0  0  0  0  0  0  0  0  0  0  0
   -0.5402    2.8274    3.8168 C   0  0  0  0  0  0  0  0  0  0  0  0
   -1.1785    2.5348    2.9968 H   0  0  0  0  0  0  0  0  0  0  0  0
    2.6574    1.0638    3.7370 N   0  0  0  0  0  0  0  0  0  0  0  0
    2.4483    1.0765    6.1061 N   0  0  0  0  0  0  0  0  0  0  0  0
    0.0728   -0.2724    4.6716 Cl  0  0  0  0  0  0  0  0  0  0  0  0
    1.1700    1.5562    4.8011 Cr  0  0  1  0  0  0  0  0  0  0  0  0
  1  2  1  0  0  0  0
  1  3  1  0  0  0  0
  1  5  1  0  0  0  0
  4  1  1  0  0  0  0
  5  6  2  0  0  0  0
  6 56  1  0  0  0  0
  6  7  1  0  0  0  0
  7 10  1  0  0  0  0
  8  7  1  0  0  0  0
  9  7  1  0  0  0  0
 11 55  1  0  0  0  0
 12 11  1  0  0  0  0
 12 24  1  0  0  0  0
 13 12  2  0  0  0  0
 14 13  1  0  0  0  0
 15 17  2  0  0  0  0
 15 13  1  0  0  0  0
 16 15  1  0  0  0  0
 17 19  1  0  0  0  0
 18 17  1  0  0  0  0
 19 20  1  0  0  0  0
 19 11  2  0  0  0  0
 20 21  1  0  0  0  0
 20 22  1  0  0  0  0
 23 20  1  0  0  0  0
 24 26  1  0  0  0  0
 24 27  1  0  0  0  0
 25 24  1  0  0  0  0
 28 29  2  0  0  0  0
 28 36  1  0  0  0  0
 29 30  1  0  0  0  0
 30 31  1  0  0  0  0
 30 32  2  0  0  0  0
 32 33  1  0  0  0  0
 34 32  1  0  0  0  0
 34 35  1  0  0  0  0
 36 34  2  0  0  0  0
 37 36  1  0  0  0  0
 37 38  1  0  0  0  0
 39 37  1  0  0  0  0
 40 37  1  0  0  0  0
 41 42  1  0  0  0  0
 41 44  1  0  0  0  0
 41 29  1  0  0  0  0
 43 41  1  0  0  0  0
 45 46  1  0  0  0  0
 45 47  2  0  0  0  0
 47 48  1  0  0  0  0
 49 50  1  1  0  0  0
 49 47  1  0  0  0  0
 51 53  2  0  0  0  0
 51 49  1  0  0  0  0
 52 51  1  0  0  0  0
 53 45  1  0  0  0  0
 54 53  1  0  0  0  0
 55  5  1  0  0  0  0
 55 58  1  0  0  0  0
 56 28  1  0  0  0  0
 58 57  1  6  0  0  0
 58 49  1  0  0  0  0
 58 56  1  0  0  0  0
M  END
$$$$
