CSD_code = NAZBEV | q = 1 | S = 0 | Stoichiometry = C18H14Cl2Ta(1+) | MND = 12
 OpenBabel04212202073D

 35 38  0  0  1  0  0  0  0  0999 V2000
    6.7704    9.0008    6.1596 Ta  0  0  0  0  0  0  0  0  0  0  0  0
    5.0597    8.9921    4.7493 Cl  0  0  0  0  0  0  0  0  0  0  0  0
    6.1433    8.3666    8.1688 Cl  0  0  0  0  0  0  0  0  0  0  0  0
    7.9385    7.7929    2.9041 C   0  0  0  0  0  0  0  0  0  0  0  0
    7.3473    7.2926    1.7511 C   0  0  0  0  0  0  0  0  0  0  0  0
    6.6598    6.0924    1.8313 C   0  0  0  0  0  0  0  0  0  0  0  0
    6.5611    5.3979    3.0322 C   0  0  0  0  0  0  0  0  0  0  0  0
    7.1335    5.8932    4.1970 C   0  0  0  0  0  0  0  0  0  0  0  0
    7.8235    7.0924    4.1294 C   0  0  0  0  0  0  0  0  0  0  0  0
    8.5262    7.8712    5.1826 C   0  0  1  0  0  0  0  0  0  0  0  0
    9.1379    8.9853    4.4394 C   0  0  0  0  0  0  0  0  0  0  0  0
    8.7526    8.9582    3.1340 C   0  0  0  0  0  0  0  0  0  0  0  0
    9.0732   12.1452    5.2610 C   0  0  0  0  0  0  0  0  0  0  0  0
    9.7057   12.7290    4.1754 C   0  0  0  0  0  0  0  0  0  0  0  0
    8.9470   13.0216    3.0507 C   0  0  0  0  0  0  0  0  0  0  0  0
    7.5870   12.7451    3.0093 C   0  0  0  0  0  0  0  0  0  0  0  0
    6.9424   12.1584    4.0916 C   0  0  0  0  0  0  0  0  0  0  0  0
    7.6909   11.8593    5.2170 C   0  0  0  0  0  0  0  0  0  0  0  0
    7.2940   11.2464    6.5057 C   0  0  2  0  0  0  0  0  0  0  0  0
    8.5472   11.2355    7.2892 C   0  0  0  0  0  0  0  0  0  0  0  0
    9.5681   11.7399    6.5605 C   0  0  0  0  0  0  0  0  0  0  0  0
    7.4323    7.8209    0.8143 H   0  0  0  0  0  0  0  0  0  0  0  0
    6.2010    5.6814    0.9456 H   0  0  0  0  0  0  0  0  0  0  0  0
    6.0384    4.4544    3.0566 H   0  0  0  0  0  0  0  0  0  0  0  0
    7.0616    5.3417    5.1250 H   0  0  0  0  0  0  0  0  0  0  0  0
    9.1806    7.3069    5.8504 H   0  0  0  0  0  0  0  0  0  0  0  0
    9.8696    9.6503    4.8682 H   0  0  0  0  0  0  0  0  0  0  0  0
    9.0486    9.6547    2.3701 H   0  0  0  0  0  0  0  0  0  0  0  0
   10.7585   12.9622    4.2068 H   0  0  0  0  0  0  0  0  0  0  0  0
    9.4190   13.4831    2.1973 H   0  0  0  0  0  0  0  0  0  0  0  0
    7.0205   12.9994    2.1271 H   0  0  0  0  0  0  0  0  0  0  0  0
    5.8791   11.9610    4.0611 H   0  0  0  0  0  0  0  0  0  0  0  0
    6.4358   11.7098    6.9989 H   0  0  0  0  0  0  0  0  0  0  0  0
    8.5898   10.9363    8.3252 H   0  0  0  0  0  0  0  0  0  0  0  0
   10.5859   11.8649    6.8837 H   0  0  0  0  0  0  0  0  0  0  0  0
  1 19  1  0  0  0  0
  1  3  1  0  0  0  0
  2  1  1  0  0  0  0
  4 12  1  0  0  0  0
  4  9  1  0  0  0  0
  5  6  1  0  0  0  0
  5  4  2  0  0  0  0
  6  7  2  0  0  0  0
  7 24  1  0  0  0  0
  7  8  1  0  0  0  0
  8 25  1  0  0  0  0
  9  8  2  0  0  0  0
  9 10  1  0  0  0  0
 10 26  1  1  0  0  0
 10  1  1  0  0  0  0
 11 27  1  0  0  0  0
 11 10  1  0  0  0  0
 12 11  2  0  0  0  0
 13 21  1  0  0  0  0
 14 29  1  0  0  0  0
 14 13  2  0  0  0  0
 15 14  1  0  0  0  0
 16 15  2  0  0  0  0
 16 17  1  0  0  0  0
 17 18  2  0  0  0  0
 18 13  1  0  0  0  0
 18 19  1  0  0  0  0
 19 33  1  1  0  0  0
 19 20  1  0  0  0  0
 20 34  1  0  0  0  0
 21 35  1  0  0  0  0
 21 20  2  0  0  0  0
 22  5  1  0  0  0  0
 23  6  1  0  0  0  0
 28 12  1  0  0  0  0
 30 15  1  0  0  0  0
 31 16  1  0  0  0  0
 32 17  1  0  0  0  0
M  END
$$$$
