CSD_code = NAZCOG | q = 0 | S = 0 | Stoichiometry = C19H21Cl2NSiTi | MND = 8
 OpenBabel04212202073D

 45 48  0  0  1  0  0  0  0  0999 V2000
   -0.1903    5.5373   15.4409 Ti  0  0  0  0  0  0  0  0  0  0  0  0
    1.1281    3.9124   14.8843 Cl  0  0  0  0  0  0  0  0  0  0  0  0
   -1.8228    4.3812   16.2555 Cl  0  0  0  0  0  0  0  0  0  0  0  0
   -0.5795    7.8093   13.6546 Si  0  0  0  0  0  0  0  0  0  0  0  0
   -0.8672    6.1015   13.8274 N   0  0  0  0  0  0  0  0  0  0  0  0
   -2.1158    8.9273   13.4329 C   0  0  0  0  0  0  0  0  0  0  0  0
    0.7359    8.2921   12.3546 C   0  0  0  0  0  0  0  0  0  0  0  0
    0.1680    7.7689   15.4097 C   0  0  2  0  0  0  0  0  0  0  0  0
    1.4285    7.1479   15.6146 C   0  0  0  0  0  0  0  0  0  0  0  0
    1.4475    6.4582   16.8419 C   0  0  0  0  0  0  0  0  0  0  0  0
    0.1859    6.6690   17.4755 C   0  0  0  0  0  0  0  0  0  0  0  0
   -0.3330    6.2726   18.7225 C   0  0  0  0  0  0  0  0  0  0  0  0
   -1.6130    6.6404   19.0524 C   0  0  0  0  0  0  0  0  0  0  0  0
   -2.4031    7.4047   18.1753 C   0  0  0  0  0  0  0  0  0  0  0  0
   -1.9271    7.8198   16.9564 C   0  0  0  0  0  0  0  0  0  0  0  0
   -0.6180    7.4669   16.5763 C   0  0  0  0  0  0  0  0  0  0  0  0
   -1.5329    5.1977   12.9054 C   0  0  1  0  0  0  0  0  0  0  0  0
   -3.0501    5.3870   12.9872 C   0  0  0  0  0  0  0  0  0  0  0  0
   -0.9339    5.3996   11.5292 C   0  0  0  0  0  0  0  0  0  0  0  0
   -1.6223    5.9523   10.4593 C   0  0  0  0  0  0  0  0  0  0  0  0
   -0.9826    6.1576    9.2469 C   0  0  0  0  0  0  0  0  0  0  0  0
    0.3489    5.8180    9.0911 C   0  0  0  0  0  0  0  0  0  0  0  0
    1.0441    5.2673   10.1562 C   0  0  0  0  0  0  0  0  0  0  0  0
    0.4070    5.0610   11.3648 C   0  0  0  0  0  0  0  0  0  0  0  0
   -1.9083    9.9369   13.7719 H   0  0  0  0  0  0  0  0  0  0  0  0
   -2.3857    8.9867   12.3835 H   0  0  0  0  0  0  0  0  0  0  0  0
   -2.9787    8.5600   13.9794 H   0  0  0  0  0  0  0  0  0  0  0  0
    1.5849    7.6155   12.3761 H   0  0  0  0  0  0  0  0  0  0  0  0
    0.3182    8.2568   11.3542 H   0  0  0  0  0  0  0  0  0  0  0  0
    1.1002    9.2996   12.5254 H   0  0  0  0  0  0  0  0  0  0  0  0
    2.2773    7.2397   14.9443 H   0  0  0  0  0  0  0  0  0  0  0  0
    2.3129    5.9873   17.2948 H   0  0  0  0  0  0  0  0  0  0  0  0
    0.2782    5.7004   19.4092 H   0  0  0  0  0  0  0  0  0  0  0  0
   -2.0276    6.3455   20.0049 H   0  0  0  0  0  0  0  0  0  0  0  0
   -3.4042    7.6726   18.4797 H   0  0  0  0  0  0  0  0  0  0  0  0
   -2.5303    8.4391   16.3066 H   0  0  0  0  0  0  0  0  0  0  0  0
   -1.3049    4.1608   13.2243 H   0  0  0  0  0  0  0  0  0  0  0  0
   -3.3201    6.4016   12.7066 H   0  0  0  0  0  0  0  0  0  0  0  0
   -3.5583    4.6784   12.3377 H   0  0  0  0  0  0  0  0  0  0  0  0
   -3.3637    5.2139   14.0177 H   0  0  0  0  0  0  0  0  0  0  0  0
   -2.6620    6.2219   10.5558 H   0  0  0  0  0  0  0  0  0  0  0  0
   -1.5306    6.5856    8.4199 H   0  0  0  0  0  0  0  0  0  0  0  0
    0.8431    5.9789    8.1445 H   0  0  0  0  0  0  0  0  0  0  0  0
    2.0831    4.9963   10.0408 H   0  0  0  0  0  0  0  0  0  0  0  0
    0.9458    4.6350   12.2029 H   0  0  0  0  0  0  0  0  0  0  0  0
  1  3  1  0  0  0  0
  2  1  1  0  0  0  0
  4  5  1  0  0  0  0
  4  8  1  0  0  0  0
  5  1  1  0  0  0  0
  6  4  1  0  0  0  0
  6 25  1  0  0  0  0
  6 27  1  0  0  0  0
  7 28  1  0  0  0  0
  7 30  1  0  0  0  0
  7  4  1  0  0  0  0
  8  1  1  0  0  0  0
  8  9  1  1  0  0  0
  8 16  1  0  0  0  0
  9 10  2  0  0  0  0
 10 32  1  0  0  0  0
 10 11  1  0  0  0  0
 11 12  1  0  0  0  0
 12 13  2  0  0  0  0
 12 33  1  0  0  0  0
 13 34  1  0  0  0  0
 14 35  1  0  0  0  0
 14 13  1  0  0  0  0
 15 14  2  0  0  0  0
 16 15  1  0  0  0  0
 16 11  2  0  0  0  0
 17 18  1  0  0  0  0
 17 37  1  1  0  0  0
 17  5  1  0  0  0  0
 18 40  1  0  0  0  0
 19 17  1  0  0  0  0
 20 41  1  0  0  0  0
 20 19  2  0  0  0  0
 21 20  1  0  0  0  0
 22 21  2  0  0  0  0
 22 23  1  0  0  0  0
 23 24  2  0  0  0  0
 24 19  1  0  0  0  0
 24 45  1  0  0  0  0
 26  6  1  0  0  0  0
 29  7  1  0  0  0  0
 31  9  1  0  0  0  0
 36 15  1  0  0  0  0
 38 18  1  0  0  0  0
 39 18  1  0  0  0  0
 42 21  1  0  0  0  0
 43 22  1  0  0  0  0
 44 23  1  0  0  0  0
M  END
$$$$
