CSD_code = NAZSAL | q = 0 | S = 0 | Stoichiometry = C21H17ClN2Pd | MND = 4
 OpenBabel04212202073D

 42 47  0  0  1  0  0  0  0  0999 V2000
    1.8498    0.6437    0.9094 C   0  0  0  0  0  0  0  0  0  0  0  0
    1.0199    1.2617   -0.1122 C   0  0  1  0  0  0  0  0  0  0  0  0
    0.6004    0.5958   -0.8759 H   0  0  0  0  0  0  0  0  0  0  0  0
    0.0060    2.1731    0.5651 C   0  0  1  0  0  0  0  0  0  0  0  0
   -1.0100    1.7761    0.4502 H   0  0  0  0  0  0  0  0  0  0  0  0
    0.4215    2.1329    2.0120 C   0  0  0  0  0  0  0  0  0  0  0  0
   -0.0866    2.8437    3.0793 C   0  0  0  0  0  0  0  0  0  0  0  0
   -0.9068    3.5340    2.9455 H   0  0  0  0  0  0  0  0  0  0  0  0
    0.4662    2.6498    4.3375 C   0  0  0  0  0  0  0  0  0  0  0  0
    0.0758    3.1974    5.1828 H   0  0  0  0  0  0  0  0  0  0  0  0
    1.5128    1.7590    4.5218 C   0  0  0  0  0  0  0  0  0  0  0  0
    1.9291    1.6239    5.5094 H   0  0  0  0  0  0  0  0  0  0  0  0
    2.0291    1.0425    3.4553 C   0  0  0  0  0  0  0  0  0  0  0  0
    2.8463    0.3525    3.6014 H   0  0  0  0  0  0  0  0  0  0  0  0
    1.4808    1.2315    2.1954 C   0  0  0  0  0  0  0  0  0  0  0  0
    2.7780   -0.3460    0.6772 C   0  0  0  0  0  0  0  0  0  0  0  0
    3.2114   -0.9057    1.4911 H   0  0  0  0  0  0  0  0  0  0  0  0
    3.1857   -0.6655   -0.6597 C   0  0  2  0  0  3  0  0  0  0  0  0
    3.6959   -1.9282   -1.0055 C   0  0  0  0  0  0  0  0  0  0  0  0
    3.7748   -2.6841   -0.2396 H   0  0  0  0  0  0  0  0  0  0  0  0
    4.0747   -2.1881   -2.3030 C   0  0  0  0  0  0  0  0  0  0  0  0
    4.4778   -3.1533   -2.5722 H   0  0  0  0  0  0  0  0  0  0  0  0
    3.9250   -1.1943   -3.2647 C   0  0  0  0  0  0  0  0  0  0  0  0
    4.2096   -1.3583   -4.2907 H   0  0  0  0  0  0  0  0  0  0  0  0
    3.4317    0.0362   -2.8650 C   0  0  0  0  0  0  0  0  0  0  0  0
    3.3275    0.8526   -3.5730 H   0  0  0  0  0  0  0  0  0  0  0  0
    0.0219    3.6000   -0.0439 C   0  0  0  0  0  0  0  0  0  0  0  0
    0.0621    3.5012   -1.1374 H   0  0  0  0  0  0  0  0  0  0  0  0
   -0.8803    4.1470    0.2319 H   0  0  0  0  0  0  0  0  0  0  0  0
    1.2348    4.3321    0.4430 C   0  0  1  0  0  3  0  0  0  0  0  0
    1.1260    5.4151    1.3065 C   0  0  0  0  0  0  0  0  0  0  0  0
    0.1495    5.7864    1.5758 H   0  0  0  0  0  0  0  0  0  0  0  0
    2.2689    6.0062    1.8148 C   0  0  0  0  0  0  0  0  0  0  0  0
    2.2003    6.8478    2.4869 H   0  0  0  0  0  0  0  0  0  0  0  0
    3.4991    5.4854    1.4466 C   0  0  0  0  0  0  0  0  0  0  0  0
    4.4186    5.9023    1.8244 H   0  0  0  0  0  0  0  0  0  0  0  0
    3.5354    4.4145    0.5719 C   0  0  0  0  0  0  0  0  0  0  0  0
    4.4829    4.0015    0.2372 H   0  0  0  0  0  0  0  0  0  0  0  0
    3.0923    0.2985   -1.6123 N   0  0  0  0  0  0  0  0  0  0  0  0
    2.4302    3.8593    0.0720 N   0  0  0  0  0  0  0  0  0  0  0  0
    2.6955    2.1499   -0.9184 Pd  0  0  2  0  0  0  0  0  0  0  0  0
    4.5725    2.9328   -2.0376 Cl  0  0  0  0  0  0  0  0  0  0  0  0
  1 15  1  0  0  0  0
  2  3  1  6  0  0  0
  2  4  1  0  0  0  0
  2  1  1  0  0  0  0
  4  5  1  6  0  0  0
  4  6  1  0  0  0  0
  6 15  2  0  0  0  0
  6  7  1  0  0  0  0
  7  9  2  0  0  0  0
  8  7  1  0  0  0  0
  9 11  1  0  0  0  0
  9 10  1  0  0  0  0
 11 12  1  0  0  0  0
 13 14  1  0  0  0  0
 13 11  2  0  0  0  0
 15 13  1  0  0  0  0
 16  1  2  0  0  0  0
 16 17  1  0  0  0  0
 18 19  1  1  0  0  0
 18 16  1  0  0  0  0
 19 20  1  0  0  0  0
 21 19  2  0  0  0  0
 22 21  1  0  0  0  0
 23 25  2  0  0  0  0
 23 21  1  0  0  0  0
 24 23  1  0  0  0  0
 25 39  1  0  0  0  0
 26 25  1  0  0  0  0
 27 29  1  0  0  0  0
 27 30  1  0  0  0  0
 27  4  1  0  0  0  0
 28 27  1  0  0  0  0
 30 31  1  1  0  0  0
 31 32  1  0  0  0  0
 31 33  2  0  0  0  0
 33 34  1  0  0  0  0
 35 33  1  0  0  0  0
 35 36  1  0  0  0  0
 37 35  2  0  0  0  0
 38 37  1  0  0  0  0
 39 41  1  0  0  0  0
 39 18  1  0  0  0  0
 40 30  1  0  0  0  0
 40 37  1  0  0  0  0
 41 42  1  6  0  0  0
 41  2  1  0  0  0  0
 41 40  1  0  0  0  0
M  END
$$$$
