CSD_code = NBOPDC | q = 0 | S = 0 | Stoichiometry = C7H8Cl2Pd | MND = 6
 OpenBabel04212202073D

 18 17  0  0  1  0  0  0  0  0999 V2000
   -4.3920    1.7713    3.4762 Cl  0  0  0  0  0 15  0  0  0  0  0  0
   -5.8382    1.7713    6.2461 Cl  0  0  0  0  0 15  0  0  0  0  0  0
   -1.4902    2.8917    6.7560 C   0  0  2  0  0  0  0  0  0  0  0  0
   -2.8028    2.4587    7.4163 C   0  0  0  0  0  3  0  0  0  0  0  0
   -1.6955    2.4585    5.3012 C   0  0  0  0  0  0  0  0  0  0  0  0
   -0.5561    1.7713    7.2448 C   0  0  0  0  0  0  0  0  0  0  0  0
   -1.1802    3.9205    6.9180 H   0  0  0  0  0  0  0  0  0  0  0  0
   -3.4381    3.1150    7.9994 H   0  0  0  0  0  0  0  0  0  0  0  0
   -1.5813    3.1160    4.4471 H   0  0  0  0  0  0  0  0  0  0  0  0
    0.4114    1.7713    6.7438 H   0  0  0  0  0  0  0  0  0  0  0  0
   -0.4165    1.7713    8.3255 H   0  0  0  0  0  0  0  0  0  0  0  0
   -3.7276    1.7713    5.5857 Pd  0  0  0  0  0  0  0  0  0  0  0  0
   -2.8028    1.0838    7.4163 C   0  0  1  0  0  0  0  0  0  0  0  0
   -1.6955    1.0840    5.3012 C   0  0  0  0  0  0  0  0  0  0  0  0
   -1.4902    0.6509    6.7560 C   0  0  1  0  0  0  0  0  0  0  0  0
   -3.4381    0.4275    7.9994 H   0  0  0  0  0  0  0  0  0  0  0  0
   -1.5813    0.4265    4.4471 H   0  0  0  0  0  0  0  0  0  0  0  0
   -1.1802   -0.3780    6.9180 H   0  0  0  0  0  0  0  0  0  0  0  0
  3  7  1  1  0  0  0
  3  6  1  0  0  0  0
  3  4  1  0  0  0  0
  4  8  1  0  0  0  0
  5  3  1  0  0  0  0
  6 11  1  0  0  0  0
  9  5  1  0  0  0  0
 10  6  1  0  0  0  0
 12 13  1  0  0  0  0
 13  4  1  0  0  0  0
 13 16  1  1  0  0  0
 14  5  2  0  0  0  0
 14 15  1  0  0  0  0
 15 18  1  1  0  0  0
 15  6  1  0  0  0  0
 15 13  1  0  0  0  0
 17 14  1  0  0  0  0
M  END
$$$$
