CSD_code = NEBCOP | q = 0 | S = 0 | Stoichiometry = C18H13ClN2OPd | MND = 4
 OpenBabel04212202073D

 36 40  0  0  1  0  0  0  0  0999 V2000
   18.0856   -1.1570   -1.4645 Pd  0  0  1  0  0  0  0  0  0  0  0  0
   20.2125   -1.2990   -1.0743 Cl  0  0  0  0  0  0  0  0  0  0  0  0
   17.7705   -2.3079   -3.5379 O   0  0  0  0  0  0  0  0  0  0  0  0
   16.1637   -1.0557   -1.8793 N   0  0  0  0  0  0  0  0  0  0  0  0
   15.6840   -1.6355   -3.0109 N   0  0  0  0  0  0  0  0  0  0  0  0
   14.7012   -1.5324   -3.2501 H   0  0  0  0  0  0  0  0  0  0  0  0
   15.4846    0.8605    1.0907 C   0  0  0  0  0  0  0  0  0  0  0  0
   14.4186    1.0421    1.0568 H   0  0  0  0  0  0  0  0  0  0  0  0
   16.1006    0.1421    0.0867 C   0  0  0  0  0  0  0  0  0  0  0  0
   17.5185   -0.1053    0.1214 C   0  0  0  0  0  0  0  0  0  0  0  0
   18.2481    0.3834    1.1665 C   0  0  0  0  0  0  0  0  0  0  0  0
   19.3158    0.2142    1.2199 H   0  0  0  0  0  0  0  0  0  0  0  0
   18.3781    1.6347    3.2892 C   0  0  0  0  0  0  0  0  0  0  0  0
   19.4419    1.4503    3.3160 H   0  0  0  0  0  0  0  0  0  0  0  0
   17.7694    2.3490    4.2854 C   0  0  0  0  0  0  0  0  0  0  0  0
   18.3494    2.7362    5.1102 H   0  0  0  0  0  0  0  0  0  0  0  0
   16.3867    2.5862    4.2468 C   0  0  0  0  0  0  0  0  0  0  0  0
   15.9229    3.1517    5.0417 H   0  0  0  0  0  0  0  0  0  0  0  0
   15.6346    2.1055    3.2119 C   0  0  0  0  0  0  0  0  0  0  0  0
   14.5692    2.2848    3.1761 H   0  0  0  0  0  0  0  0  0  0  0  0
   16.2322    1.3658    2.1685 C   0  0  0  0  0  0  0  0  0  0  0  0
   17.6333    1.1251    2.2083 C   0  0  0  0  0  0  0  0  0  0  0  0
   15.4131   -0.4063   -1.0492 C   0  0  0  0  0  0  0  0  0  0  0  0
   14.3424   -0.2878   -1.2082 H   0  0  0  0  0  0  0  0  0  0  0  0
   16.5788   -2.2715   -3.8288 C   0  0  1  0  0  3  0  0  0  0  0  0
   16.0485   -2.8802   -5.0657 C   0  0  0  0  0  0  0  0  0  0  0  0
   14.7146   -3.2514   -5.2301 C   0  0  0  0  0  0  0  0  0  0  0  0
   13.9988   -3.1291   -4.4298 H   0  0  0  0  0  0  0  0  0  0  0  0
   14.3002   -3.8264   -6.4173 C   0  0  0  0  0  0  0  0  0  0  0  0
   13.2677   -4.1184   -6.5378 H   0  0  0  0  0  0  0  0  0  0  0  0
   15.2036   -4.0343   -7.4475 C   0  0  0  0  0  0  0  0  0  0  0  0
   14.8709   -4.4811   -8.3722 H   0  0  0  0  0  0  0  0  0  0  0  0
   16.5333   -3.6792   -7.2858 C   0  0  0  0  0  0  0  0  0  0  0  0
   17.2404   -3.8493   -8.0832 H   0  0  0  0  0  0  0  0  0  0  0  0
   16.9559   -3.1106   -6.1003 C   0  0  0  0  0  0  0  0  0  0  0  0
   17.9881   -2.8324   -5.9516 H   0  0  0  0  0  0  0  0  0  0  0  0
  1  2  1  1  0  0  0
  1 10  2  0  0  0  0
  3  1  1  0  0  0  0
  4  1  1  0  0  0  0
  4 23  1  0  0  0  0
  5  4  1  0  0  0  0
  6  5  1  0  0  0  0
  7 21  2  0  0  0  0
  8  7  1  0  0  0  0
  9 10  1  0  0  0  0
  9  7  1  0  0  0  0
 10 11  1  0  0  0  0
 11 12  1  0  0  0  0
 11 22  2  0  0  0  0
 13 14  1  0  0  0  0
 13 15  2  0  0  0  0
 15 16  1  0  0  0  0
 17 15  1  0  0  0  0
 17 18  1  0  0  0  0
 19 17  2  0  0  0  0
 20 19  1  0  0  0  0
 21 22  1  0  0  0  0
 21 19  1  0  0  0  0
 22 13  1  0  0  0  0
 23  9  2  0  0  0  0
 24 23  1  0  0  0  0
 25 26  1  6  0  0  0
 25  3  1  0  0  0  0
 25  5  1  0  0  0  0
 27 26  1  0  0  0  0
 27 28  1  0  0  0  0
 29 27  2  0  0  0  0
 30 29  1  0  0  0  0
 31 33  2  0  0  0  0
 31 29  1  0  0  0  0
 32 31  1  0  0  0  0
 33 35  1  0  0  0  0
 34 33  1  0  0  0  0
 35 36  1  0  0  0  0
 35 26  2  0  0  0  0
M  END
$$$$
