CSD_code = NEBNOX | q = 0 | S = 0 | Stoichiometry = C21H34BClN6S3Zn | MND = 4
 OpenBabel04212202073D

 67 71  0  0  1  0  0  0  0  0999 V2000
    4.1753    3.7727    2.6150 Zn  0  0  2  0  0  0  0  0  0  0  0  0
    5.3288    5.9066    1.9100 S   0  0  0  0  0  0  0  0  0  0  0  0
    2.6880    4.6191    4.4737 S   0  0  0  0  0  0  0  0  0  0  0  0
    6.0042    2.6367    3.9341 S   0  0  0  0  0  0  0  0  0  0  0  0
    3.2179    2.5964    1.0422 Cl  0  0  0  0  0  0  0  0  0  0  0  0
    5.7819    5.7408    5.2593 B   0  0  1  0  0  0  0  0  0  0  0  0
    6.3061    6.3813    6.1189 H   0  0  0  0  0  0  0  0  0  0  0  0
    7.9498    5.2544    2.2717 N   0  0  0  0  0  0  0  0  0  0  0  0
    6.8226    5.5291    4.1402 N   0  0  0  0  0  0  0  0  0  0  0  0
    2.6584    7.2954    3.9604 N   0  0  0  0  0  0  0  0  0  0  0  0
    4.5695    6.5497    4.7536 N   0  0  0  0  0  0  0  0  0  0  0  0
    4.7983    2.3228    6.3582 N   0  0  0  0  0  0  0  0  0  0  0  0
    5.3433    4.4000    5.8830 N   0  0  0  0  0  0  0  0  0  0  0  0
    6.7360    5.5403    2.7995 C   0  0  1  0  0  3  0  0  0  0  0  0
    8.8103    5.0446    3.3177 C   0  0  0  0  0  0  0  0  0  0  0  0
    9.8384    4.7886    3.1897 H   0  0  0  0  0  0  0  0  0  0  0  0
    8.1141    5.2159    4.4615 C   0  0  0  0  0  0  0  0  0  0  0  0
    8.4289    5.1333    5.4803 H   0  0  0  0  0  0  0  0  0  0  0  0
    8.2815    5.1171    0.8465 C   0  0  0  0  0  0  0  0  0  0  0  0
    8.0361    6.4556    0.1457 C   0  0  0  0  0  0  0  0  0  0  0  0
    8.6602    7.2324    0.5836 H   0  0  0  0  0  0  0  0  0  0  0  0
    6.9955    6.7518    0.2360 H   0  0  0  0  0  0  0  0  0  0  0  0
    8.2791    6.3642   -0.9089 H   0  0  0  0  0  0  0  0  0  0  0  0
    9.7566    4.7420    0.6930 C   0  0  0  0  0  0  0  0  0  0  0  0
   10.4073    5.5033    1.1180 H   0  0  0  0  0  0  0  0  0  0  0  0
    9.9838    4.6632   -0.3669 H   0  0  0  0  0  0  0  0  0  0  0  0
    9.9679    3.7799    1.1533 H   0  0  0  0  0  0  0  0  0  0  0  0
    7.4256    4.0011    0.2410 C   0  0  0  0  0  0  0  0  0  0  0  0
    6.3789    4.2871    0.1918 H   0  0  0  0  0  0  0  0  0  0  0  0
    7.5074    3.0956    0.8397 H   0  0  0  0  0  0  0  0  0  0  0  0
    7.7634    3.7843   -0.7683 H   0  0  0  0  0  0  0  0  0  0  0  0
    3.3283    6.1959    4.3800 C   0  0  1  0  0  3  0  0  0  0  0  0
    3.5156    8.3597    4.0642 C   0  0  0  0  0  0  0  0  0  0  0  0
    3.2504    9.3561    3.7884 H   0  0  0  0  0  0  0  0  0  0  0  0
    4.6859    7.8971    4.5527 C   0  0  0  0  0  0  0  0  0  0  0  0
    5.5971    8.4144    4.7672 H   0  0  0  0  0  0  0  0  0  0  0  0
    1.2932    7.3426    3.4178 C   0  0  0  0  0  0  0  0  0  0  0  0
    0.3113    6.8809    4.4974 C   0  0  0  0  0  0  0  0  0  0  0  0
    0.3733    7.5305    5.3685 H   0  0  0  0  0  0  0  0  0  0  0  0
    0.5294    5.8628    4.8051 H   0  0  0  0  0  0  0  0  0  0  0  0
   -0.7016    6.9147    4.1068 H   0  0  0  0  0  0  0  0  0  0  0  0
    1.2196    6.4524    2.1743 C   0  0  0  0  0  0  0  0  0  0  0  0
    1.3129    5.4015    2.4328 H   0  0  0  0  0  0  0  0  0  0  0  0
    2.0175    6.7082    1.4792 H   0  0  0  0  0  0  0  0  0  0  0  0
    0.2644    6.5930    1.6766 H   0  0  0  0  0  0  0  0  0  0  0  0
    0.9469    8.7770    3.0144 C   0  0  0  0  0  0  0  0  0  0  0  0
    0.9914    9.4522    3.8662 H   0  0  0  0  0  0  0  0  0  0  0  0
   -0.0697    8.7912    2.6304 H   0  0  0  0  0  0  0  0  0  0  0  0
    1.6072    9.1344    2.2278 H   0  0  0  0  0  0  0  0  0  0  0  0
    5.3504    3.1362    5.4269 C   0  0  1  0  0  3  0  0  0  0  0  0
    4.4259    3.1091    7.4172 C   0  0  0  0  0  0  0  0  0  0  0  0
    3.9520    2.7272    8.2940 H   0  0  0  0  0  0  0  0  0  0  0  0
    4.7639    4.3821    7.1213 C   0  0  0  0  0  0  0  0  0  0  0  0
    4.6327    5.2804    7.6867 H   0  0  0  0  0  0  0  0  0  0  0  0
    4.5600    0.8775    6.2369 C   0  0  0  0  0  0  0  0  0  0  0  0
    5.9039    0.1607    6.0857 C   0  0  0  0  0  0  0  0  0  0  0  0
    6.5319    0.3457    6.9552 H   0  0  0  0  0  0  0  0  0  0  0  0
    6.4259    0.5058    5.1985 H   0  0  0  0  0  0  0  0  0  0  0  0
    5.7376   -0.9087    5.9950 H   0  0  0  0  0  0  0  0  0  0  0  0
    3.6490    0.6221    5.0330 C   0  0  0  0  0  0  0  0  0  0  0  0
    4.1597    0.8324    4.0977 H   0  0  0  0  0  0  0  0  0  0  0  0
    2.7623    1.2512    5.0903 H   0  0  0  0  0  0  0  0  0  0  0  0
    3.3385   -0.4186    5.0202 H   0  0  0  0  0  0  0  0  0  0  0  0
    3.8627    0.3615    7.4969 C   0  0  0  0  0  0  0  0  0  0  0  0
    4.4701    0.5264    8.3843 H   0  0  0  0  0  0  0  0  0  0  0  0
    3.7094   -0.7093    7.3921 H   0  0  0  0  0  0  0  0  0  0  0  0
    2.8892    0.8282    7.6266 H   0  0  0  0  0  0  0  0  0  0  0  0
  1  5  1  6  0  0  0
  1  4  1  0  0  0  0
  1  3  1  0  0  0  0
  2  1  1  0  0  0  0
  6 13  1  0  0  0  0
  6  7  1  1  0  0  0
  8 14  1  0  0  0  0
  8 15  1  0  0  0  0
  9 17  1  0  0  0  0
  9  6  1  0  0  0  0
 10 33  1  0  0  0  0
 10 32  1  0  0  0  0
 11  6  1  0  0  0  0
 12 51  1  0  0  0  0
 13 53  1  0  0  0  0
 14  2  1  6  0  0  0
 14  9  1  0  0  0  0
 15 17  2  0  0  0  0
 16 15  1  0  0  0  0
 17 18  1  0  0  0  0
 19  8  1  0  0  0  0
 20 22  1  0  0  0  0
 20 21  1  0  0  0  0
 20 19  1  0  0  0  0
 23 20  1  0  0  0  0
 24 19  1  0  0  0  0
 24 25  1  0  0  0  0
 24 27  1  0  0  0  0
 26 24  1  0  0  0  0
 28 30  1  0  0  0  0
 28 19  1  0  0  0  0
 29 28  1  0  0  0  0
 31 28  1  0  0  0  0
 32  3  1  1  0  0  0
 32 11  1  0  0  0  0
 33 35  2  0  0  0  0
 34 33  1  0  0  0  0
 35 11  1  0  0  0  0
 35 36  1  0  0  0  0
 37 10  1  0  0  0  0
 37 38  1  0  0  0  0
 38 40  1  0  0  0  0
 38 39  1  0  0  0  0
 41 38  1  0  0  0  0
 42 43  1  0  0  0  0
 42 37  1  0  0  0  0
 44 42  1  0  0  0  0
 45 42  1  0  0  0  0
 46 37  1  0  0  0  0
 46 47  1  0  0  0  0
 48 46  1  0  0  0  0
 49 46  1  0  0  0  0
 50  4  1  1  0  0  0
 50 13  1  0  0  0  0
 50 12  1  0  0  0  0
 51 52  1  0  0  0  0
 53 51  2  0  0  0  0
 53 54  1  0  0  0  0
 55 12  1  0  0  0  0
 55 64  1  0  0  0  0
 56 55  1  0  0  0  0
 56 57  1  0  0  0  0
 58 56  1  0  0  0  0
 59 56  1  0  0  0  0
 60 62  1  0  0  0  0
 60 55  1  0  0  0  0
 61 60  1  0  0  0  0
 63 60  1  0  0  0  0
 64 67  1  0  0  0  0
 64 65  1  0  0  0  0
 66 64  1  0  0  0  0
M  END
$$$$
