CSD_code = NEBRIW | q = 0 | S = 0 | Stoichiometry = C10H18Cl3N2NbSi | MND = 10
 OpenBabel04212202073D

 35 37  0  0  1  0  0  0  0  0999 V2000
   -4.3441    0.8785    9.5222 Nb  0  0  0  0  0  0  0  0  0  0  0  0
   -3.7065    0.7689   12.5686 Si  0  0  0  0  0  0  0  0  0  0  0  0
   -3.0354   -1.0894    9.5051 Cl  0  0  0  0  0  0  0  0  0  0  0  0
   -5.2864    0.1984    7.5404 Cl  0  0  0  0  0  0  0  0  0  0  0  0
   -4.7510    3.0944    8.8285 Cl  0  0  0  0  0  0  0  0  0  0  0  0
   -3.4135    1.6419   11.0367 N   0  0  1  0  0  0  0  0  0  0  0  0
   -2.1468    1.5511    8.1763 N   0  0  0  0  0  4  0  0  0  0  0  0
   -1.5850    0.6990    8.1691 H   0  0  0  0  0  0  0  0  0  0  0  0
   -2.4181    1.7701    7.2189 H   0  0  0  0  0  0  0  0  0  0  0  0
   -5.2188   -0.1805   11.9847 C   0  0  0  0  0  0  0  0  0  0  0  0
   -6.0908    0.4516   10.9636 C   0  0  2  0  0  0  0  0  0  0  0  0
   -6.5563    1.4114   11.2222 H   0  0  0  0  0  0  0  0  0  0  0  0
   -6.9830   -0.6121   10.5300 C   0  0  0  0  0  0  0  0  0  0  0  0
   -7.7957   -0.4702    9.8343 H   0  0  0  0  0  0  0  0  0  0  0  0
   -6.6392   -1.7675   11.1623 C   0  0  0  0  0  0  0  0  0  0  0  0
   -7.0927   -2.7329   11.0201 H   0  0  0  0  0  0  0  0  0  0  0  0
   -5.5481   -1.5054   12.0430 C   0  0  0  0  0  0  0  0  0  0  0  0
   -5.0588   -2.2495   12.6475 H   0  0  0  0  0  0  0  0  0  0  0  0
   -2.4868    2.7449   11.0877 C   0  0  0  0  0  0  0  0  0  0  0  0
   -2.1949    2.9701   12.1180 H   0  0  0  0  0  0  0  0  0  0  0  0
   -2.9886    3.6305   10.6693 H   0  0  0  0  0  0  0  0  0  0  0  0
   -1.2118    2.4622   10.2725 C   0  0  0  0  0  0  0  0  0  0  0  0
   -0.4282    3.1400   10.6141 H   0  0  0  0  0  0  0  0  0  0  0  0
   -0.8971    1.4337   10.4717 H   0  0  0  0  0  0  0  0  0  0  0  0
   -1.3923    2.6559    8.7651 C   0  0  0  0  0  0  0  0  0  0  0  0
   -1.9494    3.5795    8.5823 H   0  0  0  0  0  0  0  0  0  0  0  0
   -0.4018    2.7463    8.2936 H   0  0  0  0  0  0  0  0  0  0  0  0
   -2.1987   -0.3183   12.9952 C   0  0  0  0  0  0  0  0  0  0  0  0
   -1.9396   -0.9603   12.1576 H   0  0  0  0  0  0  0  0  0  0  0  0
   -2.4173   -0.9512   13.8480 H   0  0  0  0  0  0  0  0  0  0  0  0
   -1.3300    0.2838   13.2441 H   0  0  0  0  0  0  0  0  0  0  0  0
   -4.0812    2.0267   13.9562 C   0  0  0  0  0  0  0  0  0  0  0  0
   -4.7193    2.8318   13.6046 H   0  0  0  0  0  0  0  0  0  0  0  0
   -3.1726    2.4679   14.3513 H   0  0  0  0  0  0  0  0  0  0  0  0
   -4.5877    1.5362   14.7797 H   0  0  0  0  0  0  0  0  0  0  0  0
  1 11  1  0  0  0  0
  1  6  1  0  0  0  0
  2 28  1  0  0  0  0
  2 32  1  0  0  0  0
  3  1  1  0  0  0  0
  4  1  1  0  0  0  0
  5  1  1  0  0  0  0
  6 19  1  6  0  0  0
  6  2  1  0  0  0  0
  7 25  1  0  0  0  0
  7  1  1  0  0  0  0
  8  7  1  0  0  0  0
  9  7  1  0  0  0  0
 10 17  2  0  0  0  0
 10  2  1  0  0  0  0
 11 12  1  1  0  0  0
 11 10  1  0  0  0  0
 13 11  1  0  0  0  0
 13 15  2  0  0  0  0
 14 13  1  0  0  0  0
 15 17  1  0  0  0  0
 16 15  1  0  0  0  0
 17 18  1  0  0  0  0
 19 20  1  0  0  0  0
 21 19  1  0  0  0  0
 22 24  1  0  0  0  0
 22 23  1  0  0  0  0
 22 19  1  0  0  0  0
 25 22  1  0  0  0  0
 26 25  1  0  0  0  0
 27 25  1  0  0  0  0
 28 31  1  0  0  0  0
 28 30  1  0  0  0  0
 29 28  1  0  0  0  0
 32 34  1  0  0  0  0
 32 35  1  0  0  0  0
 33 32  1  0  0  0  0
M  END
$$$$
