CSD_code = NECHAF | q = 0 | S = 0 | Stoichiometry = C18H28Cl2N4W | MND = 6
 OpenBabel04212202073D

 53 54  0  0  0  0  0  0  0  0999 V2000
   14.6891   -3.7860   11.3132 W   0  0  0  0  0  0  0  0  0  0  0  0
   13.2459   -2.9064   13.0462 Cl  0  0  0  0  0  0  0  0  0  0  0  0
   15.6726   -5.4115    9.8131 Cl  0  0  0  0  0  0  0  0  0  0  0  0
   14.6259   -5.6113   12.7329 N   0  0  0  0  0  0  0  0  0  0  0  0
   14.5423   -6.8765   12.3158 C   0  0  0  0  0  3  0  0  0  0  0  0
   14.2373   -7.0338   11.2867 H   0  0  0  0  0  0  0  0  0  0  0  0
   14.8496   -7.9596   13.1234 C   0  0  0  0  0  0  0  0  0  0  0  0
   14.7781   -8.9601   12.7272 H   0  0  0  0  0  0  0  0  0  0  0  0
   15.2500   -7.7313   14.4291 C   0  0  0  0  0  0  0  0  0  0  0  0
   15.5044   -8.5517   15.0832 H   0  0  0  0  0  0  0  0  0  0  0  0
   15.3118   -6.4188   14.8746 C   0  0  0  0  0  0  0  0  0  0  0  0
   15.6075   -6.1872   15.8855 H   0  0  0  0  0  0  0  0  0  0  0  0
   14.9951   -5.3968   13.9978 C   0  0  0  0  0  0  0  0  0  0  0  0
   15.0325   -4.3600   14.3138 H   0  0  0  0  0  0  0  0  0  0  0  0
   12.7231   -4.8533   10.6055 N   0  0  0  0  0  0  0  0  0  0  0  0
   11.6479   -5.0002   11.3842 C   0  0  0  0  0  3  0  0  0  0  0  0
   11.8039   -4.9141   12.4542 H   0  0  0  0  0  0  0  0  0  0  0  0
   10.3760   -5.2243   10.8824 C   0  0  0  0  0  0  0  0  0  0  0  0
    9.5424   -5.3185   11.5603 H   0  0  0  0  0  0  0  0  0  0  0  0
   10.2013   -5.3209    9.5122 C   0  0  0  0  0  0  0  0  0  0  0  0
    9.2231   -5.4878    9.0869 H   0  0  0  0  0  0  0  0  0  0  0  0
   11.3213   -5.2046    8.7011 C   0  0  0  0  0  0  0  0  0  0  0  0
   11.2437   -5.2874    7.6285 H   0  0  0  0  0  0  0  0  0  0  0  0
   12.5531   -4.9720    9.2858 C   0  0  0  0  0  0  0  0  0  0  0  0
   13.4481   -4.8825    8.6800 H   0  0  0  0  0  0  0  0  0  0  0  0
   14.2887   -2.5220   10.1193 N   0  0  0  0  0  2  0  0  0  0  0  0
   13.9808   -1.3980    9.3325 C   0  0  0  0  0  0  0  0  0  0  0  0
   13.5863   -1.8314    7.9052 C   0  0  0  0  0  0  0  0  0  0  0  0
   14.3830   -2.4371    7.4774 H   0  0  0  0  0  0  0  0  0  0  0  0
   13.4272   -0.9579    7.2776 H   0  0  0  0  0  0  0  0  0  0  0  0
   12.6713   -2.4200    7.9292 H   0  0  0  0  0  0  0  0  0  0  0  0
   12.7962   -0.6702   10.0022 C   0  0  0  0  0  0  0  0  0  0  0  0
   11.9243   -1.3224   10.0243 H   0  0  0  0  0  0  0  0  0  0  0  0
   12.5494    0.2399    9.4610 H   0  0  0  0  0  0  0  0  0  0  0  0
   13.0628   -0.4221   11.0284 H   0  0  0  0  0  0  0  0  0  0  0  0
   15.1933   -0.4474    9.2570 C   0  0  0  0  0  0  0  0  0  0  0  0
   15.4884   -0.1637   10.2648 H   0  0  0  0  0  0  0  0  0  0  0  0
   14.9497    0.4465    8.6877 H   0  0  0  0  0  0  0  0  0  0  0  0
   16.0265   -0.9602    8.7814 H   0  0  0  0  0  0  0  0  0  0  0  0
   16.2405   -3.3446   12.0778 N   0  0  0  0  0  2  0  0  0  0  0  0
   17.4803   -2.7656   12.3939 C   0  0  0  0  0  0  0  0  0  0  0  0
   18.2783   -2.6306   11.0804 C   0  0  0  0  0  0  0  0  0  0  0  0
   18.4634   -3.6199   10.6657 H   0  0  0  0  0  0  0  0  0  0  0  0
   19.2265   -2.1269   11.2514 H   0  0  0  0  0  0  0  0  0  0  0  0
   17.6817   -2.0662   10.3659 H   0  0  0  0  0  0  0  0  0  0  0  0
   17.2346   -1.3703   13.0021 C   0  0  0  0  0  0  0  0  0  0  0  0
   16.6336   -0.7846   12.3094 H   0  0  0  0  0  0  0  0  0  0  0  0
   18.1765   -0.8617   13.1917 H   0  0  0  0  0  0  0  0  0  0  0  0
   16.6829   -1.4659   13.9353 H   0  0  0  0  0  0  0  0  0  0  0  0
   18.2699   -3.6387   13.3919 C   0  0  0  0  0  0  0  0  0  0  0  0
   17.7349   -3.7067   14.3371 H   0  0  0  0  0  0  0  0  0  0  0  0
   19.2531   -3.2119   13.5740 H   0  0  0  0  0  0  0  0  0  0  0  0
   18.3881   -4.6421   12.9869 H   0  0  0  0  0  0  0  0  0  0  0  0
  1 40  1  0  0  0  0
  1  4  1  0  0  0  0
  1  2  1  0  0  0  0
  3  1  1  0  0  0  0
  4 13  1  0  0  0  0
  5  4  1  0  0  0  0
  5  7  1  0  0  0  0
  6  5  1  0  0  0  0
  7  9  2  0  0  0  0
  8  7  1  0  0  0  0
  9 11  1  0  0  0  0
  9 10  1  0  0  0  0
 11 12  1  0  0  0  0
 13 14  1  0  0  0  0
 13 11  2  0  0  0  0
 15  1  1  0  0  0  0
 15 16  1  0  0  0  0
 16 17  1  0  0  0  0
 18 16  1  0  0  0  0
 18 19  1  0  0  0  0
 20 18  2  0  0  0  0
 21 20  1  0  0  0  0
 22 24  2  0  0  0  0
 22 20  1  0  0  0  0
 23 22  1  0  0  0  0
 24 15  1  0  0  0  0
 25 24  1  0  0  0  0
 26  1  1  0  0  0  0
 27 32  1  0  0  0  0
 27 26  1  0  0  0  0
 28 31  1  0  0  0  0
 28 27  1  0  0  0  0
 29 28  1  0  0  0  0
 30 28  1  0  0  0  0
 32 33  1  0  0  0  0
 32 35  1  0  0  0  0
 34 32  1  0  0  0  0
 36 27  1  0  0  0  0
 36 37  1  0  0  0  0
 38 36  1  0  0  0  0
 39 36  1  0  0  0  0
 40 41  1  0  0  0  0
 41 46  1  0  0  0  0
 41 50  1  0  0  0  0
 42 44  1  0  0  0  0
 42 41  1  0  0  0  0
 43 42  1  0  0  0  0
 45 42  1  0  0  0  0
 46 48  1  0  0  0  0
 46 49  1  0  0  0  0
 47 46  1  0  0  0  0
 50 52  1  0  0  0  0
 50 51  1  0  0  0  0
 53 50  1  0  0  0  0
M  END
$$$$
