CSD_code = NECRIY | q = 0 | S = 0 | Stoichiometry = C19H19Cl2N3OZn | MND = 5
 OpenBabel04212202073D

 45 49  0  0  1  0  0  0  0  0999 V2000
    0.5838   15.7842    6.4865 Zn  0  0  0  0  0  0  0  0  0  0  0  0
   -0.5705   13.9653    6.7488 N   0  0  0  0  0  0  0  0  0  0  0  0
    1.3050   17.5396    7.5380 N   0  0  0  0  0  0  0  0  0  0  0  0
   -0.1830   12.7455    6.4083 C   0  0  0  0  0  3  0  0  0  0  0  0
    0.8416   12.6562    6.0752 H   0  0  0  0  0  0  0  0  0  0  0  0
   -1.8095   14.1705    7.1824 C   0  0  0  0  0  0  0  0  0  0  0  0
    0.3431   18.2728    8.0879 C   0  0  1  0  0  3  0  0  0  0  0  0
   -2.7235   13.1295    7.2848 C   0  0  0  0  0  0  0  0  0  0  0  0
   -3.7251   13.3232    7.6370 H   0  0  0  0  0  0  0  0  0  0  0  0
    0.6163   19.4961    8.6866 C   0  0  0  0  0  0  0  0  0  0  0  0
   -0.1837   20.0735    9.1242 H   0  0  0  0  0  0  0  0  0  0  0  0
    2.5572   17.9704    7.5577 C   0  0  0  0  0  0  0  0  0  0  0  0
    3.2847   17.3145    7.1000 H   0  0  0  0  0  0  0  0  0  0  0  0
   -1.0302   11.6534    6.4788 C   0  0  0  0  0  0  0  0  0  0  0  0
   -0.6824   10.6745    6.1911 H   0  0  0  0  0  0  0  0  0  0  0  0
   -2.3281   11.8527    6.9240 C   0  0  0  0  0  0  0  0  0  0  0  0
   -3.0206   11.0267    6.9914 H   0  0  0  0  0  0  0  0  0  0  0  0
    2.9153   19.1782    8.1308 C   0  0  0  0  0  0  0  0  0  0  0  0
    3.9442   19.4998    8.1259 H   0  0  0  0  0  0  0  0  0  0  0  0
    1.9217   19.9567    8.7044 C   0  0  0  0  0  0  0  0  0  0  0  0
    2.1599   20.9065    9.1601 H   0  0  0  0  0  0  0  0  0  0  0  0
   -2.1620   15.5908    7.5087 C   0  0  0  0  0  0  0  0  0  0  0  0
   -2.3860   16.0879    6.5578 H   0  0  0  0  0  0  0  0  0  0  0  0
   -3.0434   15.6396    8.1571 H   0  0  0  0  0  0  0  0  0  0  0  0
   -1.0457   17.7178    7.9809 C   0  0  0  0  0  0  0  0  0  0  0  0
   -1.7110   18.1740    8.7221 H   0  0  0  0  0  0  0  0  0  0  0  0
   -1.4066   17.9610    6.9749 H   0  0  0  0  0  0  0  0  0  0  0  0
   -1.0006   16.2628    8.0823 N   0  0  0  0  0  4  0  0  0  0  0  0
   -0.7263   15.8220    9.4226 C   0  0  0  0  0  0  0  0  0  0  0  0
   -1.6228   16.0554   10.4832 C   0  0  0  0  0  0  0  0  0  0  0  0
    0.4552   15.1486    9.6770 C   0  0  0  0  0  0  0  0  0  0  0  0
    1.1405   14.9712    8.8620 H   0  0  0  0  0  0  0  0  0  0  0  0
   -1.3004   15.6048   11.7570 C   0  0  0  0  0  0  0  0  0  0  0  0
   -1.9739   15.7735   12.5821 H   0  0  0  0  0  0  0  0  0  0  0  0
   -0.1115   14.9332   11.9873 C   0  0  0  0  0  0  0  0  0  0  0  0
    0.1169   14.5927   12.9858 H   0  0  0  0  0  0  0  0  0  0  0  0
    0.7696   14.7028   10.9500 C   0  0  0  0  0  0  0  0  0  0  0  0
    1.6970   14.1805   11.1223 H   0  0  0  0  0  0  0  0  0  0  0  0
   -3.7024   16.9828   11.2172 C   0  0  0  0  0  0  0  0  0  0  0  0
   -4.0823   16.0562   11.6581 H   0  0  0  0  0  0  0  0  0  0  0  0
   -4.5240   17.5193   10.7445 H   0  0  0  0  0  0  0  0  0  0  0  0
   -3.2661   17.6089   12.0014 H   0  0  0  0  0  0  0  0  0  0  0  0
   -2.7791   16.7255   10.1862 O   0  0  0  0  0  0  0  0  0  0  0  0
   -0.6038   16.7748    4.8373 Cl  0  0  0  0  0  0  0  0  0  0  0  0
    2.5768   14.7994    6.2092 Cl  0  0  0  0  0  0  0  0  0  0  0  0
  1  2  1  0  0  0  0
  1  3  1  0  0  0  0
  1 28  1  0  0  0  0
  2  6  1  0  0  0  0
  3 12  1  0  0  0  0
  3  7  1  0  0  0  0
  4 14  1  0  0  0  0
  4  2  1  0  0  0  0
  5  4  1  0  0  0  0
  6  8  2  0  0  0  0
  6 22  1  0  0  0  0
  7 10  1  6  0  0  0
  8  9  1  0  0  0  0
 10 20  2  0  0  0  0
 10 11  1  0  0  0  0
 12 18  2  0  0  0  0
 13 12  1  0  0  0  0
 14 16  2  0  0  0  0
 15 14  1  0  0  0  0
 16 17  1  0  0  0  0
 16  8  1  0  0  0  0
 18 20  1  0  0  0  0
 19 18  1  0  0  0  0
 20 21  1  0  0  0  0
 22 28  1  0  0  0  0
 22 24  1  0  0  0  0
 23 22  1  0  0  0  0
 25 28  1  0  0  0  0
 25  7  1  0  0  0  0
 25 26  1  0  0  0  0
 27 25  1  0  0  0  0
 28 29  1  0  0  0  0
 29 31  2  0  0  0  0
 29 30  1  0  0  0  0
 30 33  2  0  0  0  0
 31 37  1  0  0  0  0
 32 31  1  0  0  0  0
 33 35  1  0  0  0  0
 33 34  1  0  0  0  0
 35 36  1  0  0  0  0
 37 38  1  0  0  0  0
 37 35  2  0  0  0  0
 39 40  1  0  0  0  0
 39 42  1  0  0  0  0
 41 39  1  0  0  0  0
 43 30  1  0  0  0  0
 43 39  1  0  0  0  0
 44  1  1  0  0  0  0
 45  1  1  0  0  0  0
M  END
$$$$
