CSD_code = NEDGIM | q = 0 | S = 0 | Stoichiometry = C12H12Cl3MnN2 | MND = 5
 OpenBabel04212202073D

 30 32  0  0  1  0  0  0  0  0999 V2000
    1.4671    1.2900    2.7253 Mn  0  0  0  0  0  0  0  0  0  0  0  0
   -0.6274    1.3341    2.5321 Cl  0  0  0  0  0  0  0  0  0  0  0  0
    1.4845    1.0579    4.7659 Cl  0  0  0  0  0  0  0  0  0  0  0  0
    3.3255    2.2751    2.6051 Cl  0  0  0  0  0  0  0  0  0  0  0  0
    1.8886   -0.4229    2.0418 N   0  0  0  0  0  0  0  0  0  0  0  0
    2.1239   -1.5103    2.8036 C   0  0  0  0  0  3  0  0  0  0  0  0
    2.0587   -1.3680    3.8742 H   0  0  0  0  0  0  0  0  0  0  0  0
    2.4323   -2.7445    2.2890 C   0  0  0  0  0  0  0  0  0  0  0  0
    2.6078   -3.5698    2.9609 H   0  0  0  0  0  0  0  0  0  0  0  0
    2.5192   -2.9325    0.9032 C   0  0  0  0  0  0  0  0  0  0  0  0
    2.8513   -4.2691    0.3285 C   0  0  0  0  0  0  0  0  0  0  0  0
    2.9312   -4.2215   -0.7538 H   0  0  0  0  0  0  0  0  0  0  0  0
    2.0798   -4.9916    0.5912 H   0  0  0  0  0  0  0  0  0  0  0  0
    3.7937   -4.6306    0.7364 H   0  0  0  0  0  0  0  0  0  0  0  0
    2.2787   -1.8254    0.1136 C   0  0  0  0  0  0  0  0  0  0  0  0
    2.3296   -1.9078   -0.9603 H   0  0  0  0  0  0  0  0  0  0  0  0
    1.9680   -0.5931    0.6874 C   0  0  0  0  0  0  0  0  0  0  0  0
    1.6978    0.6166   -0.0609 C   0  0  1  0  0  3  0  0  0  0  0  0
    1.7127    0.7443   -1.4520 C   0  0  0  0  0  0  0  0  0  0  0  0
    1.9430   -0.1096   -2.0684 H   0  0  0  0  0  0  0  0  0  0  0  0
    1.4329    1.9643   -2.0383 C   0  0  0  0  0  0  0  0  0  0  0  0
    1.4494    2.1504   -3.5189 C   0  0  0  0  0  0  0  0  0  0  0  0
    1.5616    1.2004   -4.0338 H   0  0  0  0  0  0  0  0  0  0  0  0
    2.2784    2.7991   -3.8002 H   0  0  0  0  0  0  0  0  0  0  0  0
    0.5297    2.6283   -3.8506 H   0  0  0  0  0  0  0  0  0  0  0  0
    1.1395    3.0377   -1.1890 C   0  0  0  0  0  0  0  0  0  0  0  0
    0.9127    4.0098   -1.5965 H   0  0  0  0  0  0  0  0  0  0  0  0
    1.1427    2.8441    0.1735 C   0  0  0  0  0  0  0  0  0  0  0  0
    0.9211    3.6551    0.8570 H   0  0  0  0  0  0  0  0  0  0  0  0
    1.4144    1.6688    0.7322 N   0  0  0  0  0  0  0  0  0  0  0  0
  1  3  1  0  0  0  0
  2  1  1  0  0  0  0
  4  1  1  0  0  0  0
  5  1  1  0  0  0  0
  5  6  1  0  0  0  0
  6  7  1  0  0  0  0
  8  6  1  0  0  0  0
  8  9  1  0  0  0  0
 10  8  2  0  0  0  0
 11 13  1  0  0  0  0
 11 14  1  0  0  0  0
 11 10  1  0  0  0  0
 12 11  1  0  0  0  0
 15 17  2  0  0  0  0
 15 10  1  0  0  0  0
 16 15  1  0  0  0  0
 17  5  1  0  0  0  0
 18 19  1  6  0  0  0
 18 17  1  0  0  0  0
 18 30  1  0  0  0  0
 20 19  1  0  0  0  0
 21 19  2  0  0  0  0
 21 26  1  0  0  0  0
 22 21  1  0  0  0  0
 23 22  1  0  0  0  0
 24 22  1  0  0  0  0
 25 22  1  0  0  0  0
 26 28  2  0  0  0  0
 27 26  1  0  0  0  0
 28 30  1  0  0  0  0
 28 29  1  0  0  0  0
 30  1  1  0  0  0  0
M  END
$$$$
