CSD_code = NEDHUC | q = 0 | S = 0 | Stoichiometry = C34H28Cl3N3Pd | MND = 4
 OpenBabel04212202073D

 69 74  0  0  1  0  0  0  0  0999 V2000
    1.0448   12.1831    6.9521 Pd  0  0  0  0  0  0  0  0  0  0  0  0
    1.3268   12.0974    9.2398 Cl  0  0  0  0  0  0  0  0  0  0  0  0
    4.8656   13.7976    6.7488 C   0  0  0  0  0  0  0  0  0  0  0  0
    5.5423   14.5797    7.0253 H   0  0  0  0  0  0  0  0  0  0  0  0
    3.6376   10.7920    5.2315 C   0  0  0  0  0  0  0  0  0  0  0  0
    4.2736   10.7865    4.3428 H   0  0  0  0  0  0  0  0  0  0  0  0
    2.5857   10.7854    4.9074 H   0  0  0  0  0  0  0  0  0  0  0  0
    3.8591   12.0312    5.9435 N   0  0  0  0  0  0  0  0  0  0  0  0
    5.0551   12.6936    5.9892 C   0  0  0  0  0  0  0  0  0  0  0  0
    5.9291   12.3332    5.4870 H   0  0  0  0  0  0  0  0  0  0  0  0
    3.5605   13.7801    7.1581 N   0  0  0  0  0  0  0  0  0  0  0  0
    4.3977    7.3078    7.6620 C   0  0  0  0  0  0  0  0  0  0  0  0
    4.9904    7.4487    6.4069 C   0  0  0  0  0  0  0  0  0  0  0  0
    5.6399    6.6754    6.0272 H   0  0  0  0  0  0  0  0  0  0  0  0
    4.7561    8.5686    5.6336 C   0  0  0  0  0  0  0  0  0  0  0  0
    5.2238    8.6540    4.6626 H   0  0  0  0  0  0  0  0  0  0  0  0
    3.9203    9.5814    6.0859 C   0  0  0  0  0  0  0  0  0  0  0  0
    3.3236    9.4501    7.3349 C   0  0  0  0  0  0  0  0  0  0  0  0
    2.6761   10.2388    7.7160 H   0  0  0  0  0  0  0  0  0  0  0  0
    3.5576    8.3311    8.1074 C   0  0  0  0  0  0  0  0  0  0  0  0
    3.0843    8.2491    9.0752 H   0  0  0  0  0  0  0  0  0  0  0  0
    2.9369   12.6954    6.6636 C   0  0  0  0  0  0  0  0  0  0  0  0
   -0.6175    8.0792    6.8308 C   0  0  0  0  0  0  0  0  0  0  0  0
    0.1152    7.3481    6.5237 H   0  0  0  0  0  0  0  0  0  0  0  0
   -1.9065    7.6525    7.2061 C   0  0  0  0  0  0  0  0  0  0  0  0
   -2.1422    6.5993    7.1843 H   0  0  0  0  0  0  0  0  0  0  0  0
   -2.8515    8.5573    7.5871 C   0  0  0  0  0  0  0  0  0  0  0  0
   -3.8420    8.2336    7.8677 H   0  0  0  0  0  0  0  0  0  0  0  0
   -0.2946    9.4030    6.8512 C   0  0  0  0  0  0  0  0  0  0  0  0
    0.6972    9.7451    6.5434 H   0  0  0  0  0  0  0  0  0  0  0  0
   -0.8861   11.6629    7.2896 N   0  0  0  0  0  0  0  0  0  0  0  0
   -1.2432   10.3750    7.2583 C   0  0  0  0  0  0  0  0  0  0  0  0
   -2.5580    9.9417    7.6260 C   0  0  0  0  0  0  0  0  0  0  0  0
   -3.4766   10.9250    8.0096 C   0  0  0  0  0  0  0  0  0  0  0  0
   -3.1100   12.2751    8.0316 C   0  0  0  0  0  0  0  0  0  0  0  0
   -1.7657   12.5996    7.6588 C   0  0  1  0  0  3  0  0  0  0  0  0
   -1.3606   13.9581    7.6849 C   0  0  0  0  0  0  0  0  0  0  0  0
   -0.3303   14.1973    7.4051 H   0  0  0  0  0  0  0  0  0  0  0  0
   -2.2324   14.9389    8.0525 C   0  0  0  0  0  0  0  0  0  0  0  0
   -1.9118   15.9699    8.0674 H   0  0  0  0  0  0  0  0  0  0  0  0
   -3.5556   14.6194    8.4152 C   0  0  0  0  0  0  0  0  0  0  0  0
   -4.2308   15.4109    8.7028 H   0  0  0  0  0  0  0  0  0  0  0  0
   -3.9824   13.3254    8.4058 C   0  0  0  0  0  0  0  0  0  0  0  0
   -4.9949   13.0778    8.6851 H   0  0  0  0  0  0  0  0  0  0  0  0
    0.5951   12.2248    4.6951 Cl  0  0  0  0  0  0  0  0  0  0  0  0
    2.9482   14.7983    7.9821 C   0  0  0  0  0  0  0  0  0  0  0  0
    3.7006   15.1792    8.6772 H   0  0  0  0  0  0  0  0  0  0  0  0
    2.1506   14.3118    8.5650 H   0  0  0  0  0  0  0  0  0  0  0  0
    2.3693   15.9272    7.1662 C   0  0  0  0  0  0  0  0  0  0  0  0
    2.6376   17.2505    7.4914 C   0  0  0  0  0  0  0  0  0  0  0  0
    3.2844   17.4752    8.3280 H   0  0  0  0  0  0  0  0  0  0  0  0
    2.0807   18.2834    6.7633 C   0  0  0  0  0  0  0  0  0  0  0  0
    2.3024   19.3015    7.0427 H   0  0  0  0  0  0  0  0  0  0  0  0
    1.2382   18.0247    5.6817 C   0  0  0  0  0  0  0  0  0  0  0  0
    0.9726   16.6908    5.3639 C   0  0  0  0  0  0  0  0  0  0  0  0
    0.3225   16.4604    4.5323 H   0  0  0  0  0  0  0  0  0  0  0  0
    1.5298   15.6587    6.0908 C   0  0  0  0  0  0  0  0  0  0  0  0
    1.3175   14.6293    5.8083 H   0  0  0  0  0  0  0  0  0  0  0  0
    0.6290   19.0763    4.8769 C   0  0  0  0  0  0  0  0  0  0  0  0
   -0.0745   18.7196    4.1342 H   0  0  0  0  0  0  0  0  0  0  0  0
    0.8640   20.3801    4.9639 C   0  0  0  0  0  0  0  0  0  0  0  0
   -5.0742   10.4683    8.4627 Cl  0  0  0  0  0  0  0  0  0  0  0  0
    0.3655   21.0823    4.3180 H   0  0  0  0  0  0  0  0  0  0  0  0
    1.5589   20.8031    5.6691 H   0  0  0  0  0  0  0  0  0  0  0  0
    4.6144    6.1497    8.5202 C   0  0  0  0  0  0  0  0  0  0  0  0
    5.4547    5.1452    8.3023 C   0  0  0  0  0  0  0  0  0  0  0  0
    4.0191    6.1471    9.4254 H   0  0  0  0  0  0  0  0  0  0  0  0
    6.0848    5.0886    7.4312 H   0  0  0  0  0  0  0  0  0  0  0  0
    5.5480    4.3325    9.0020 H   0  0  0  0  0  0  0  0  0  0  0  0
  1 31  1  0  0  0  0
  1  2  1  0  0  0  0
  3  4  1  0  0  0  0
  3 11  1  0  0  0  0
  5  8  1  0  0  0  0
  5 17  1  0  0  0  0
  6  5  1  0  0  0  0
  7  5  1  0  0  0  0
  8  9  1  0  0  0  0
  8 22  1  0  0  0  0
  9  3  2  0  0  0  0
 10  9  1  0  0  0  0
 11 46  1  0  0  0  0
 12 20  1  0  0  0  0
 12 65  1  0  0  0  0
 13 12  2  0  0  0  0
 14 13  1  0  0  0  0
 15 17  2  0  0  0  0
 15 13  1  0  0  0  0
 16 15  1  0  0  0  0
 17 18  1  0  0  0  0
 18 19  1  0  0  0  0
 18 20  2  0  0  0  0
 20 21  1  0  0  0  0
 22  1  2  0  0  0  0
 22 11  1  0  0  0  0
 23 29  2  0  0  0  0
 23 25  1  0  0  0  0
 24 23  1  0  0  0  0
 25 27  2  0  0  0  0
 26 25  1  0  0  0  0
 27 33  1  0  0  0  0
 27 28  1  0  0  0  0
 29 32  1  0  0  0  0
 30 29  1  0  0  0  0
 31 36  1  0  0  0  0
 32 31  1  0  0  0  0
 32 33  2  0  0  0  0
 33 34  1  0  0  0  0
 34 35  2  0  0  0  0
 34 62  1  0  0  0  0
 35 43  1  0  0  0  0
 36 37  1  1  0  0  0
 36 35  1  0  0  0  0
 37 39  2  0  0  0  0
 38 37  1  0  0  0  0
 39 40  1  0  0  0  0
 39 41  1  0  0  0  0
 41 42  1  0  0  0  0
 43 41  2  0  0  0  0
 43 44  1  0  0  0  0
 45  1  1  0  0  0  0
 46 48  1  0  0  0  0
 46 47  1  0  0  0  0
 49 50  1  0  0  0  0
 49 46  1  0  0  0  0
 50 51  1  0  0  0  0
 52 53  1  0  0  0  0
 52 50  2  0  0  0  0
 54 52  1  0  0  0  0
 55 54  2  0  0  0  0
 55 57  1  0  0  0  0
 56 55  1  0  0  0  0
 57 49  2  0  0  0  0
 58 57  1  0  0  0  0
 59 61  2  0  0  0  0
 59 54  1  0  0  0  0
 60 59  1  0  0  0  0
 61 64  1  0  0  0  0
 63 61  1  0  0  0  0
 65 67  1  0  0  0  0
 66 65  2  0  0  0  0
 66 69  1  0  0  0  0
 68 66  1  0  0  0  0
M  END
$$$$
