CSD_code = NEDVEA | q = 0 | S = 0 | Stoichiometry = C30H23ClCuN2P | MND = 4
 OpenBabel04212202073D

 58 64  0  0  0  0  0  0  0  0999 V2000
    6.9431   -1.2644    3.2231 Cu  0  0  1  0  0  0  0  0  0  0  0  0
    7.5385   -0.2041    5.0912 P   0  0  0  0  0  4  0  0  0  0  0  0
    8.1313   -2.9593    2.7999 N   0  0  0  0  0  0  0  0  0  0  0  0
    5.4956   -2.4891    2.6419 N   0  0  0  0  0  0  0  0  0  0  0  0
    7.2901   -0.0071    1.4139 Cl  0  0  0  0  0  0  0  0  0  0  0  0
    9.4341   -3.1150    2.8461 C   0  0  0  0  0  0  0  0  0  0  0  0
    9.9686   -2.4694    3.5313 H   0  0  0  0  0  0  0  0  0  0  0  0
   10.1142   -4.0522    2.0643 C   0  0  0  0  0  0  0  0  0  0  0  0
   11.1877   -4.1319    2.1355 H   0  0  0  0  0  0  0  0  0  0  0  0
    9.3947   -4.8632    1.2167 C   0  0  0  0  0  0  0  0  0  0  0  0
    9.8855   -5.6045    0.6021 H   0  0  0  0  0  0  0  0  0  0  0  0
    8.0009   -4.7117    1.1407 C   0  0  0  0  0  0  0  0  0  0  0  0
    7.1729   -5.4704    0.2663 C   0  0  0  0  0  0  0  0  0  0  0  0
    7.6390   -6.2267   -0.3488 H   0  0  0  0  0  0  0  0  0  0  0  0
    5.8415   -5.2306    0.1822 C   0  0  0  0  0  0  0  0  0  0  0  0
    5.2213   -5.7919   -0.5018 H   0  0  0  0  0  0  0  0  0  0  0  0
    5.2227   -4.2143    0.9654 C   0  0  0  0  0  0  0  0  0  0  0  0
    3.8611   -3.8851    0.8654 C   0  0  0  0  0  0  0  0  0  0  0  0
    3.2269   -4.4295    0.1811 H   0  0  0  0  0  0  0  0  0  0  0  0
    3.3629   -2.8609    1.6405 C   0  0  0  0  0  0  0  0  0  0  0  0
    2.3247   -2.5740    1.5815 H   0  0  0  0  0  0  0  0  0  0  0  0
    4.2139   -2.1964    2.5215 C   0  0  0  0  0  0  0  0  0  0  0  0
    3.8450   -1.4034    3.1574 H   0  0  0  0  0  0  0  0  0  0  0  0
    6.0078   -3.4713    1.8716 C   0  0  0  0  0  0  0  0  0  0  0  0
    7.4120   -3.7223    1.9587 C   0  0  0  0  0  0  0  0  0  0  0  0
    9.3498   -0.0213    5.1605 C   0  0  0  0  0  0  0  0  0  0  0  0
    9.9603    0.3015    3.9496 C   0  0  0  0  0  0  0  0  0  0  0  0
    9.3492    0.3990    3.0602 H   0  0  0  0  0  0  0  0  0  0  0  0
   11.3296    0.4811    3.8930 C   0  0  0  0  0  0  0  0  0  0  0  0
   11.8011    0.7293    2.9535 H   0  0  0  0  0  0  0  0  0  0  0  0
   12.0954    0.3357    5.0398 C   0  0  0  0  0  0  0  0  0  0  0  0
   13.1664    0.4714    4.9961 H   0  0  0  0  0  0  0  0  0  0  0  0
   11.4894    0.0142    6.2431 C   0  0  0  0  0  0  0  0  0  0  0  0
   12.0872   -0.0972    7.1366 H   0  0  0  0  0  0  0  0  0  0  0  0
   10.1180   -0.1631    6.3100 C   0  0  0  0  0  0  0  0  0  0  0  0
    9.6506   -0.4179    7.2513 H   0  0  0  0  0  0  0  0  0  0  0  0
    7.1221   -0.9217    6.7080 C   0  0  0  0  0  0  0  0  0  0  0  0
    7.6404   -2.1885    6.9768 C   0  0  0  0  0  0  0  0  0  0  0  0
    8.3004   -2.6484    6.2515 H   0  0  0  0  0  0  0  0  0  0  0  0
    7.3158   -2.8408    8.1495 C   0  0  0  0  0  0  0  0  0  0  0  0
    7.7299   -3.8166    8.3589 H   0  0  0  0  0  0  0  0  0  0  0  0
    6.4511   -2.2447    9.0556 C   0  0  0  0  0  0  0  0  0  0  0  0
    6.1965   -2.7533    9.9737 H   0  0  0  0  0  0  0  0  0  0  0  0
    5.9059   -1.0026    8.7770 C   0  0  0  0  0  0  0  0  0  0  0  0
    5.2218   -0.5447    9.4770 H   0  0  0  0  0  0  0  0  0  0  0  0
    6.2320   -0.3423    7.6049 C   0  0  0  0  0  0  0  0  0  0  0  0
    5.7996    0.6243    7.3875 H   0  0  0  0  0  0  0  0  0  0  0  0
    7.0508    1.5441    5.2225 C   0  0  0  0  0  0  0  0  0  0  0  0
    7.5010    2.3530    6.2632 C   0  0  0  0  0  0  0  0  0  0  0  0
    8.1437    1.9385    7.0284 H   0  0  0  0  0  0  0  0  0  0  0  0
    7.1264    3.6822    6.3079 C   0  0  0  0  0  0  0  0  0  0  0  0
    7.4722    4.3119    7.1153 H   0  0  0  0  0  0  0  0  0  0  0  0
    6.3148    4.2109    5.3148 C   0  0  0  0  0  0  0  0  0  0  0  0
    6.0288    5.2521    5.3536 H   0  0  0  0  0  0  0  0  0  0  0  0
    5.8816    3.4119    4.2702 C   0  0  0  0  0  0  0  0  0  0  0  0
    5.2630    3.8289    3.4894 H   0  0  0  0  0  0  0  0  0  0  0  0
    6.2482    2.0780    4.2211 C   0  0  0  0  0  0  0  0  0  0  0  0
    5.9423    1.4463    3.3975 H   0  0  0  0  0  0  0  0  0  0  0  0
  1  5  1  6  0  0  0
  1  2  1  0  0  0  0
  2 26  1  0  0  0  0
  2 48  1  0  0  0  0
  2 37  1  0  0  0  0
  3  6  1  0  0  0  0
  3  1  1  0  0  0  0
  4  1  1  0  0  0  0
  6  7  1  0  0  0  0
  8  9  1  0  0  0  0
  8  6  2  0  0  0  0
 10  8  1  0  0  0  0
 11 10  1  0  0  0  0
 12 10  2  0  0  0  0
 12 25  1  0  0  0  0
 13 12  1  0  0  0  0
 14 13  1  0  0  0  0
 15 13  2  0  0  0  0
 15 17  1  0  0  0  0
 16 15  1  0  0  0  0
 17 24  1  0  0  0  0
 18 17  2  0  0  0  0
 18 20  1  0  0  0  0
 19 18  1  0  0  0  0
 20 22  2  0  0  0  0
 21 20  1  0  0  0  0
 22  4  1  0  0  0  0
 22 23  1  0  0  0  0
 24 25  2  0  0  0  0
 24  4  1  0  0  0  0
 25  3  1  0  0  0  0
 26 35  1  0  0  0  0
 27 26  2  0  0  0  0
 28 27  1  0  0  0  0
 29 27  1  0  0  0  0
 29 31  2  0  0  0  0
 30 29  1  0  0  0  0
 31 33  1  0  0  0  0
 32 31  1  0  0  0  0
 33 35  2  0  0  0  0
 33 34  1  0  0  0  0
 35 36  1  0  0  0  0
 37 38  2  0  0  0  0
 37 46  1  0  0  0  0
 38 40  1  0  0  0  0
 39 38  1  0  0  0  0
 40 41  1  0  0  0  0
 40 42  2  0  0  0  0
 42 43  1  0  0  0  0
 44 42  1  0  0  0  0
 44 45  1  0  0  0  0
 46 44  2  0  0  0  0
 47 46  1  0  0  0  0
 48 49  1  0  0  0  0
 49 51  2  0  0  0  0
 49 50  1  0  0  0  0
 51 52  1  0  0  0  0
 53 54  1  0  0  0  0
 53 51  1  0  0  0  0
 55 53  2  0  0  0  0
 56 55  1  0  0  0  0
 57 55  1  0  0  0  0
 57 48  2  0  0  0  0
 58 57  1  0  0  0  0
M  END
$$$$
