CSD_code = NEDXUQ | q = 1 | S = 0 | Stoichiometry = C25H25BrN5Pd(1+) | MND = 4
 OpenBabel04212202073D

 57 63  0  0  1  0  0  0  0  0999 V2000
    0.4203    8.0693    4.9282 Pd  0  0  1  0  0  0  0  0  0  0  0  0
    0.2119    6.1763    3.5311 Br  0  0  0  0  0  0  0  0  0  0  0  0
    1.6347   10.3266    6.4536 C   0  0  2  0  0  3  0  0  0  0  0  0
    1.7665    5.0364    6.5180 C   0  0  0  0  0  0  0  0  0  0  0  0
    0.7308    5.2311    6.2148 H   0  0  0  0  0  0  0  0  0  0  0  0
    1.7663    4.6447    7.5391 H   0  0  0  0  0  0  0  0  0  0  0  0
    0.4788    9.7043    6.2206 N   0  0  0  0  0  0  0  0  0  0  0  0
    3.0170    8.3714    6.1546 N   0  0  0  0  0  0  0  0  0  0  0  0
    2.4735    6.3000    6.5235 N   0  0  0  0  0  0  0  0  0  0  0  0
   -3.6207   10.5814    2.0418 C   0  0  0  0  0  0  0  0  0  0  0  0
   -3.3989   10.5053    0.9898 H   0  0  0  0  0  0  0  0  0  0  0  0
   -2.1225    9.4237    5.0380 N   0  0  0  0  0  0  0  0  0  0  0  0
   -0.6453   11.1874    7.6882 C   0  0  0  0  0  0  0  0  0  0  0  0
   -1.5613   11.5041    8.1599 H   0  0  0  0  0  0  0  0  0  0  0  0
    2.0879    7.4185    5.8975 C   0  0  1  0  0  3  0  0  0  0  0  0
   -1.2308    8.9301    4.1527 C   0  0  0  0  0  0  0  0  0  0  0  0
   -1.8990    9.3359    6.4640 C   0  0  0  0  0  0  0  0  0  0  0  0
   -1.7589    8.2740    6.7406 H   0  0  0  0  0  0  0  0  0  0  0  0
   -2.7641    9.7313    6.9962 H   0  0  0  0  0  0  0  0  0  0  0  0
   -0.6437   10.1073    6.8190 C   0  0  0  0  0  0  0  0  0  0  0  0
   -3.1193   10.1086    4.3732 C   0  0  0  0  0  0  0  0  0  0  0  0
   -2.8021   10.0096    3.0058 C   0  0  0  0  0  0  0  0  0  0  0  0
   -5.0554   11.3480    3.8396 C   0  0  0  0  0  0  0  0  0  0  0  0
   -5.9464   11.8771    4.1376 H   0  0  0  0  0  0  0  0  0  0  0  0
    2.8455    9.7496    5.7511 C   0  0  0  0  0  0  0  0  0  0  0  0
    2.6857    9.7906    4.6589 H   0  0  0  0  0  0  0  0  0  0  0  0
    3.7445   10.3140    5.9988 H   0  0  0  0  0  0  0  0  0  0  0  0
   -4.2510   10.7810    4.8083 C   0  0  0  0  0  0  0  0  0  0  0  0
   -4.5028   10.8568    5.8542 H   0  0  0  0  0  0  0  0  0  0  0  0
   -1.6262    9.2882    2.9247 N   0  0  0  0  0  0  0  0  0  0  0  0
   -4.7460   11.2485    2.4832 C   0  0  0  0  0  0  0  0  0  0  0  0
   -5.4065   11.7018    1.7615 H   0  0  0  0  0  0  0  0  0  0  0  0
    0.5490   11.8455    7.9419 C   0  0  0  0  0  0  0  0  0  0  0  0
    0.5761   12.6863    8.6165 H   0  0  0  0  0  0  0  0  0  0  0  0
    5.1697    8.4068    7.4970 C   0  0  0  0  0  0  0  0  0  0  0  0
    5.4488    9.4347    7.3274 H   0  0  0  0  0  0  0  0  0  0  0  0
    4.0163    7.8586    6.9563 C   0  0  0  0  0  0  0  0  0  0  0  0
    3.6686    6.5158    7.1819 C   0  0  0  0  0  0  0  0  0  0  0  0
    1.7080   11.4070    7.3195 C   0  0  0  0  0  0  0  0  0  0  0  0
    2.6514   11.8962    7.4999 H   0  0  0  0  0  0  0  0  0  0  0  0
   -0.8740    9.0060    1.7180 C   0  0  0  0  0  0  0  0  0  0  0  0
   -1.3726    9.5008    0.8843 H   0  0  0  0  0  0  0  0  0  0  0  0
   -0.8726    7.9262    1.5395 H   0  0  0  0  0  0  0  0  0  0  0  0
    2.4129    4.0407    5.5622 C   0  0  0  0  0  0  0  0  0  0  0  0
    2.3673    4.4138    4.5426 H   0  0  0  0  0  0  0  0  0  0  0  0
    1.8745    3.0991    5.6038 H   0  0  0  0  0  0  0  0  0  0  0  0
    3.4519    3.8632    5.8281 H   0  0  0  0  0  0  0  0  0  0  0  0
    4.4654    5.6895    7.9619 C   0  0  0  0  0  0  0  0  0  0  0  0
    4.2054    4.6595    8.1435 H   0  0  0  0  0  0  0  0  0  0  0  0
    5.9581    7.5746    8.2672 C   0  0  0  0  0  0  0  0  0  0  0  0
    6.8643    7.9633    8.7037 H   0  0  0  0  0  0  0  0  0  0  0  0
    5.6118    6.2428    8.4962 C   0  0  0  0  0  0  0  0  0  0  0  0
    6.2584    5.6315    9.1052 H   0  0  0  0  0  0  0  0  0  0  0  0
    0.5624    9.5094    1.8478 C   0  0  0  0  0  0  0  0  0  0  0  0
    0.5792   10.5838    2.0274 H   0  0  0  0  0  0  0  0  0  0  0  0
    1.1037    9.2993    0.9302 H   0  0  0  0  0  0  0  0  0  0  0  0
    1.0798    8.9892    2.6751 H   0  0  0  0  0  0  0  0  0  0  0  0
  1  2  1  1  0  0  0
  1 15  1  0  0  0  0
  1  7  1  0  0  0  0
  3 39  1  1  0  0  0
  4  9  1  0  0  0  0
  4  6  1  0  0  0  0
  5  4  1  0  0  0  0
  7  3  1  0  0  0  0
  7 20  1  0  0  0  0
  8 37  1  0  0  0  0
  9 38  1  0  0  0  0
 10 31  2  0  0  0  0
 10 22  1  0  0  0  0
 11 10  1  0  0  0  0
 12 17  1  0  0  0  0
 13 33  1  0  0  0  0
 13 14  1  0  0  0  0
 15  8  1  1  0  0  0
 15  9  1  0  0  0  0
 16  1  2  0  0  0  0
 16 12  1  0  0  0  0
 17 18  1  0  0  0  0
 17 20  1  0  0  0  0
 17 19  1  0  0  0  0
 20 13  2  0  0  0  0
 21 28  1  0  0  0  0
 21 12  1  0  0  0  0
 22 21  2  0  0  0  0
 23 24  1  0  0  0  0
 23 28  2  0  0  0  0
 25 27  1  0  0  0  0
 25  8  1  0  0  0  0
 25  3  1  0  0  0  0
 26 25  1  0  0  0  0
 28 29  1  0  0  0  0
 30 22  1  0  0  0  0
 30 16  1  0  0  0  0
 31 23  1  0  0  0  0
 32 31  1  0  0  0  0
 33 34  1  0  0  0  0
 35 50  1  0  0  0  0
 36 35  1  0  0  0  0
 37 38  1  0  0  0  0
 37 35  2  0  0  0  0
 38 48  2  0  0  0  0
 39 40  1  0  0  0  0
 39 33  2  0  0  0  0
 41 54  1  0  0  0  0
 41 30  1  0  0  0  0
 42 41  1  0  0  0  0
 43 41  1  0  0  0  0
 44 46  1  0  0  0  0
 44 47  1  0  0  0  0
 44  4  1  0  0  0  0
 45 44  1  0  0  0  0
 48 49  1  0  0  0  0
 48 52  1  0  0  0  0
 50 52  2  0  0  0  0
 50 51  1  0  0  0  0
 52 53  1  0  0  0  0
 54 55  1  0  0  0  0
 54 57  1  0  0  0  0
 56 54  1  0  0  0  0
M  END
$$$$
