CSD_code = NEFMOB | q = 0 | S = 0 | Stoichiometry = C12H24Cl4N4O4Pt | MND = 6
 OpenBabel04212202073D

 49 48  0  0  1  0  0  0  0  0999 V2000
    3.9725    4.4175    5.5146 Pt  0  0  0  0  0  0  0  0  0  0  0  0
    1.6036    4.3396    5.4903 Cl  0  0  0  0  0  0  0  0  0  0  0  0
    3.9080    5.9708    3.7264 Cl  0  0  0  0  0  0  0  0  0  0  0  0
    0.7609    0.9862    6.7662 O   0  0  0  0  0  0  0  0  0  0  0  0
    0.3103   -1.0737    5.9966 O   0  0  0  0  0  0  0  0  0  0  0  0
    4.1466    2.9537    4.1317 N   0  0  0  0  0  0  0  0  0  0  0  0
    2.6246    1.4086    4.8527 N   0  0  0  0  0  0  0  0  0  0  0  0
    3.5768    1.7980    4.0129 C   0  0  1  0  0  3  0  0  0  0  0  0
    3.9610    0.8375    2.9114 C   0  0  0  0  0  0  0  0  0  0  0  0
    5.0484    1.3423    1.9706 C   0  0  0  0  0  0  0  0  0  0  0  0
    1.9467    0.1470    4.8357 C   0  0  0  0  0  0  0  0  0  0  0  0
    0.9468    0.0993    5.9871 C   0  0  0  0  0  0  0  0  0  0  0  0
   -0.6565   -1.2459    7.0294 C   0  0  0  0  0  0  0  0  0  0  0  0
    4.8570    3.1635    3.4355 H   0  0  0  0  0  0  0  0  0  0  0  0
    2.3381    2.0502    5.5995 H   0  0  0  0  0  0  0  0  0  0  0  0
    3.0591    0.6097    2.3370 H   0  0  0  0  0  0  0  0  0  0  0  0
    4.2920   -0.0918    3.3828 H   0  0  0  0  0  0  0  0  0  0  0  0
    2.6402   -0.6944    4.9597 H   0  0  0  0  0  0  0  0  0  0  0  0
    1.3903   -0.0093    3.9027 H   0  0  0  0  0  0  0  0  0  0  0  0
    5.2531    0.5849    1.2177 H   0  0  0  0  0  0  0  0  0  0  0  0
    5.9732    1.5376    2.5091 H   0  0  0  0  0  0  0  0  0  0  0  0
    4.7333    2.2483    1.4575 H   0  0  0  0  0  0  0  0  0  0  0  0
   -1.4308   -0.4807    6.9520 H   0  0  0  0  0  0  0  0  0  0  0  0
   -0.1803   -1.1674    8.0080 H   0  0  0  0  0  0  0  0  0  0  0  0
   -1.0789   -2.2366    6.8857 H   0  0  0  0  0  0  0  0  0  0  0  0
    6.3411    4.4951    5.5388 Cl  0  0  0  0  0  0  0  0  0  0  0  0
    4.0371    2.8638    7.3022 Cl  0  0  0  0  0  0  0  0  0  0  0  0
    7.1834    7.8489    4.2625 O   0  0  0  0  0  0  0  0  0  0  0  0
    7.6343    9.9086    5.0323 O   0  0  0  0  0  0  0  0  0  0  0  0
    3.7978    5.8815    6.8972 N   0  0  0  0  0  0  0  0  0  0  0  0
    5.3198    7.4265    6.1761 N   0  0  0  0  0  0  0  0  0  0  0  0
    4.3677    7.0370    7.0160 C   0  0  2  0  0  3  0  0  0  0  0  0
    3.9837    7.9975    8.1176 C   0  0  0  0  0  0  0  0  0  0  0  0
    2.8963    7.4927    9.0584 C   0  0  0  0  0  0  0  0  0  0  0  0
    5.9978    8.6881    6.1931 C   0  0  0  0  0  0  0  0  0  0  0  0
    6.9977    8.7357    5.0418 C   0  0  0  0  0  0  0  0  0  0  0  0
    8.6011   10.0809    3.9995 C   0  0  0  0  0  0  0  0  0  0  0  0
    3.0876    5.6716    7.5936 H   0  0  0  0  0  0  0  0  0  0  0  0
    5.6062    6.7849    5.4292 H   0  0  0  0  0  0  0  0  0  0  0  0
    4.8857    8.2251    8.6920 H   0  0  0  0  0  0  0  0  0  0  0  0
    3.6528    8.9269    7.6464 H   0  0  0  0  0  0  0  0  0  0  0  0
    5.3043    9.5295    6.0691 H   0  0  0  0  0  0  0  0  0  0  0  0
    6.5542    8.8444    7.1261 H   0  0  0  0  0  0  0  0  0  0  0  0
    2.6916    8.2501    9.8114 H   0  0  0  0  0  0  0  0  0  0  0  0
    1.9715    7.2975    8.5199 H   0  0  0  0  0  0  0  0  0  0  0  0
    3.2113    6.5867    9.5715 H   0  0  0  0  0  0  0  0  0  0  0  0
    9.3752    9.3156    4.0767 H   0  0  0  0  0  0  0  0  0  0  0  0
    8.1248   10.0026    3.0209 H   0  0  0  0  0  0  0  0  0  0  0  0
    9.0236   11.0715    4.1433 H   0  0  0  0  0  0  0  0  0  0  0  0
  1 26  1  0  0  0  0
  1 30  1  0  0  0  0
  1 27  1  0  0  0  0
  2  1  1  0  0  0  0
  3  1  1  0  0  0  0
  5 13  1  0  0  0  0
  6  1  1  0  0  0  0
  7 15  1  0  0  0  0
  8  9  1  6  0  0  0
  8  6  1  0  0  0  0
  8  7  1  0  0  0  0
  9 17  1  0  0  0  0
 10 21  1  0  0  0  0
 10  9  1  0  0  0  0
 11  7  1  0  0  0  0
 11 18  1  0  0  0  0
 11 12  1  0  0  0  0
 12  5  1  0  0  0  0
 12  4  2  0  0  0  0
 13 24  1  0  0  0  0
 14  6  1  0  0  0  0
 16  9  1  0  0  0  0
 19 11  1  0  0  0  0
 20 10  1  0  0  0  0
 22 10  1  0  0  0  0
 23 13  1  0  0  0  0
 25 13  1  0  0  0  0
 28 36  2  0  0  0  0
 29 36  1  0  0  0  0
 30 32  1  0  0  0  0
 30 38  1  0  0  0  0
 31 35  1  0  0  0  0
 32 31  1  1  0  0  0
 32 33  1  0  0  0  0
 33 40  1  0  0  0  0
 33 34  1  0  0  0  0
 34 46  1  0  0  0  0
 34 44  1  0  0  0  0
 35 43  1  0  0  0  0
 36 35  1  0  0  0  0
 37 47  1  0  0  0  0
 37 49  1  0  0  0  0
 37 29  1  0  0  0  0
 39 31  1  0  0  0  0
 41 33  1  0  0  0  0
 42 35  1  0  0  0  0
 45 34  1  0  0  0  0
 48 37  1  0  0  0  0
M  END
$$$$
