CSD_code = NEFQUM | q = 0 | S = 0 | Stoichiometry = C19H31ClN3O2PRu | MND = 6
 OpenBabel04212202073D

 58 61  0  0  0  0  0  0  0  0999 V2000
    0.8026    2.0227    0.9885 P   0  0  0  0  0  4  0  0  0  0  0  0
    2.1957    2.6529   -1.3822 N   0  0  0  0  0  0  0  0  0  0  0  0
    4.2698    2.5194    0.5520 Cl  0  0  0  0  0  0  0  0  0  0  0  0
    3.0079    3.9382   -3.2433 C   0  0  0  0  0  0  0  0  0  0  0  0
    3.6635    3.9932   -4.0958 H   0  0  0  0  0  0  0  0  0  0  0  0
    2.9971    2.7914   -2.4562 C   0  0  0  0  0  0  0  0  0  0  0  0
    1.4442    3.6880   -0.9924 C   0  0  0  0  0  0  0  0  0  0  0  0
    1.4028    4.8718   -1.7324 C   0  0  0  0  0  0  0  0  0  0  0  0
    0.7807    5.6890   -1.4011 H   0  0  0  0  0  0  0  0  0  0  0  0
    2.1812    4.9854   -2.8737 C   0  0  0  0  0  0  0  0  0  0  0  0
    2.1576    5.8947   -3.4539 H   0  0  0  0  0  0  0  0  0  0  0  0
    0.7484    3.5191    0.1745 N   0  0  0  0  0  0  0  0  0  0  0  0
    0.1491    4.2747    0.4801 H   0  0  0  0  0  0  0  0  0  0  0  0
   -0.9534    1.3686    0.6172 C   0  0  0  0  0  0  0  0  0  0  0  0
   -1.1411    1.5078   -0.8969 C   0  0  0  0  0  0  0  0  0  0  0  0
   -1.2562    2.5504   -1.1905 H   0  0  0  0  0  0  0  0  0  0  0  0
   -2.0361    0.9712   -1.2073 H   0  0  0  0  0  0  0  0  0  0  0  0
   -0.2903    1.0838   -1.4281 H   0  0  0  0  0  0  0  0  0  0  0  0
   -2.1049    2.1084    1.2951 C   0  0  0  0  0  0  0  0  0  0  0  0
   -2.0903    3.1712    1.0588 H   0  0  0  0  0  0  0  0  0  0  0  0
   -2.1002    1.9779    2.3729 H   0  0  0  0  0  0  0  0  0  0  0  0
   -3.0458    1.7034    0.9221 H   0  0  0  0  0  0  0  0  0  0  0  0
   -0.9855   -0.1130    0.9888 C   0  0  0  0  0  0  0  0  0  0  0  0
   -1.0247   -0.2559    2.0643 H   0  0  0  0  0  0  0  0  0  0  0  0
   -0.0934   -0.6077    0.6043 H   0  0  0  0  0  0  0  0  0  0  0  0
   -1.8625   -0.5892    0.5531 H   0  0  0  0  0  0  0  0  0  0  0  0
    0.8910    2.5792    2.7967 C   0  0  0  0  0  0  0  0  0  0  0  0
    0.4766    1.3964    3.6707 C   0  0  0  0  0  0  0  0  0  0  0  0
    0.9454    0.4845    3.2967 H   0  0  0  0  0  0  0  0  0  0  0  0
   -0.6013    1.2592    3.6937 H   0  0  0  0  0  0  0  0  0  0  0  0
    0.8148    1.5570    4.6936 H   0  0  0  0  0  0  0  0  0  0  0  0
    0.0978    3.8408    3.1366 C   0  0  0  0  0  0  0  0  0  0  0  0
    0.5133    4.7073    2.6254 H   0  0  0  0  0  0  0  0  0  0  0  0
    0.1865    4.0240    4.2071 H   0  0  0  0  0  0  0  0  0  0  0  0
   -0.9580    3.7597    2.9027 H   0  0  0  0  0  0  0  0  0  0  0  0
    2.3679    2.8671    3.0618 C   0  0  0  0  0  0  0  0  0  0  0  0
    2.7488    3.6361    2.3920 H   0  0  0  0  0  0  0  0  0  0  0  0
    2.9673    1.9696    2.9119 H   0  0  0  0  0  0  0  0  0  0  0  0
    2.5055    3.2064    4.0878 H   0  0  0  0  0  0  0  0  0  0  0  0
    3.8373    0.7139   -1.7233 N   0  0  0  0  0  0  0  0  0  0  0  0
    4.7337    1.5057   -3.6230 O   0  0  0  0  0  0  0  0  0  0  0  0
    3.8638    1.6509   -2.6085 C   0  0  0  0  0  0  0  0  0  0  0  0
    4.8427   -0.2832   -2.0587 C   0  0  0  0  0  0  0  0  0  0  0  0
    5.4306    0.2839   -3.3813 C   0  0  0  0  0  0  0  0  0  0  0  0
    5.2633   -0.3815   -4.2331 H   0  0  0  0  0  0  0  0  0  0  0  0
    6.4979    0.5063   -3.3005 H   0  0  0  0  0  0  0  0  0  0  0  0
    4.1751   -1.6442   -2.2512 C   0  0  0  0  0  0  0  0  0  0  0  0
    3.4434   -1.6003   -3.0556 H   0  0  0  0  0  0  0  0  0  0  0  0
    3.6588   -1.9230   -1.3343 H   0  0  0  0  0  0  0  0  0  0  0  0
    4.9230   -2.3972   -2.4862 H   0  0  0  0  0  0  0  0  0  0  0  0
    5.8928   -0.3409   -0.9488 C   0  0  0  0  0  0  0  0  0  0  0  0
    5.4372   -0.7011   -0.0291 H   0  0  0  0  0  0  0  0  0  0  0  0
    6.2961    0.6520   -0.7583 H   0  0  0  0  0  0  0  0  0  0  0  0
    6.7006   -1.0113   -1.2326 H   0  0  0  0  0  0  0  0  0  0  0  0
    3.3062   -1.1204    1.6801 O   0  0  0  0  0  1  0  0  0  0  0  0
    3.0029   -0.2947    0.9344 C   0  0  0  0  0  2  0  0  0  0  0  0
    1.5442    0.1405   -0.9070 H   0  0  0  0  0  0  0  0  0  0  0  0
    2.5297    1.0712   -0.2098 Ru  0  0  0  0  0  0  0  0  0  0  0  0
  1 27  1  0  0  0  0
  2  7  1  0  0  0  0
  2 58  1  0  0  0  0
  4 10  2  0  0  0  0
  4  6  1  0  0  0  0
  5  4  1  0  0  0  0
  6  2  1  0  0  0  0
  7 12  1  0  0  0  0
  8  9  1  0  0  0  0
  8  7  2  0  0  0  0
 10  8  1  0  0  0  0
 11 10  1  0  0  0  0
 12 13  1  0  0  0  0
 12  1  1  0  0  0  0
 14  1  1  0  0  0  0
 14 23  1  0  0  0  0
 14 19  1  0  0  0  0
 15 14  1  0  0  0  0
 16 15  1  0  0  0  0
 17 15  1  0  0  0  0
 18 15  1  0  0  0  0
 19 21  1  0  0  0  0
 20 19  1  0  0  0  0
 22 19  1  0  0  0  0
 23 24  1  0  0  0  0
 25 23  1  0  0  0  0
 26 23  1  0  0  0  0
 27 36  1  0  0  0  0
 27 32  1  0  0  0  0
 27 28  1  0  0  0  0
 28 30  1  0  0  0  0
 28 31  1  0  0  0  0
 29 28  1  0  0  0  0
 32 34  1  0  0  0  0
 33 32  1  0  0  0  0
 35 32  1  0  0  0  0
 36 39  1  0  0  0  0
 37 36  1  0  0  0  0
 38 36  1  0  0  0  0
 40 58  1  0  0  0  0
 41 44  1  0  0  0  0
 41 42  1  0  0  0  0
 42  6  2  0  0  0  0
 42 40  1  0  0  0  0
 43 40  1  0  0  0  0
 43 51  1  0  0  0  0
 44 46  1  0  0  0  0
 44 43  1  0  0  0  0
 45 44  1  0  0  0  0
 47 43  1  0  0  0  0
 47 49  1  0  0  0  0
 48 47  1  0  0  0  0
 50 47  1  0  0  0  0
 51 53  1  0  0  0  0
 51 52  1  0  0  0  0
 54 51  1  0  0  0  0
 56 55  1  0  0  0  0
 57 58  1  0  0  0  0
 58  3  1  0  0  0  0
 58 56  1  0  0  0  0
 58  1  1  0  0  0  0
M  END
$$$$
