CSD_code = NEGDUZ | q = 0 | S = 0 | Stoichiometry = C27H25ClNO2PPdS | MND = 4
 OpenBabel04212202073D

 59 64  0  0  0  0  0  0  0  0999 V2000
    7.0035   -1.4439   14.3693 Pd  0  0  2  0  0  0  0  0  0  0  0  0
    7.7781   -3.6822   14.2796 Cl  0  0  0  0  0  0  0  0  0  0  0  0
    9.3252   -0.7287   17.1503 S   0  0  0  0  0  0  0  0  0  0  0  0
    9.2047   -1.1785   14.1904 P   0  0  0  0  0  4  0  0  0  0  0  0
    9.6267   -0.4816   18.5329 O   0  0  0  0  0  0  0  0  0  0  0  0
    7.9315   -0.8955   16.8045 O   0  0  0  0  0  0  0  0  0  0  0  0
    5.0367   -1.9560   14.5506 N   0  0  0  0  0  4  0  0  0  0  0  0
    6.2905    0.4287   14.3690 C   0  0  0  0  0  0  0  0  0  0  0  0
    6.9653    1.6382   14.4780 C   0  0  0  0  0  0  0  0  0  0  0  0
    8.0442    1.6712   14.4083 H   0  0  0  0  0  0  0  0  0  0  0  0
    6.2859    2.8335   14.6637 C   0  0  0  0  0  0  0  0  0  0  0  0
    6.8426    3.7573   14.7432 H   0  0  0  0  0  0  0  0  0  0  0  0
    4.9065    2.8466   14.7547 C   0  0  0  0  0  0  0  0  0  0  0  0
    4.3761    3.7745   14.9130 H   0  0  0  0  0  0  0  0  0  0  0  0
    4.2089    1.6580   14.6361 C   0  0  0  0  0  0  0  0  0  0  0  0
    3.1283    1.6534   14.6948 H   0  0  0  0  0  0  0  0  0  0  0  0
    4.8924    0.4666   14.4420 C   0  0  0  0  0  0  0  0  0  0  0  0
    4.1542   -0.8281   14.2337 C   0  0  0  0  0  0  0  0  0  0  0  0
    3.8677   -0.8979   13.1758 H   0  0  0  0  0  0  0  0  0  0  0  0
    3.2312   -0.8791   14.8329 H   0  0  0  0  0  0  0  0  0  0  0  0
    5.0892   -2.1705   15.9966 C   0  0  0  0  0  0  0  0  0  0  0  0
    4.1014   -2.4778   16.3773 H   0  0  0  0  0  0  0  0  0  0  0  0
    5.3946   -1.2500   16.5071 H   0  0  0  0  0  0  0  0  0  0  0  0
    5.8123   -2.9612   16.2305 H   0  0  0  0  0  0  0  0  0  0  0  0
    4.5799   -3.1718   13.8847 C   0  0  0  0  0  0  0  0  0  0  0  0
    5.2535   -3.9973   14.1220 H   0  0  0  0  0  0  0  0  0  0  0  0
    4.5853   -3.0254   12.8025 H   0  0  0  0  0  0  0  0  0  0  0  0
    3.5622   -3.4336   14.2060 H   0  0  0  0  0  0  0  0  0  0  0  0
   10.0567    0.3367   14.7650 C   0  0  0  0  0  0  0  0  0  0  0  0
   10.6146    1.3080   13.9385 C   0  0  0  0  0  0  0  0  0  0  0  0
   10.6158    1.1629   12.8677 H   0  0  0  0  0  0  0  0  0  0  0  0
   11.1533    2.4591   14.4904 C   0  0  0  0  0  0  0  0  0  0  0  0
   11.5849    3.2073   13.8420 H   0  0  0  0  0  0  0  0  0  0  0  0
   11.1370    2.6628   15.8621 C   0  0  0  0  0  0  0  0  0  0  0  0
   11.5555    3.5650   16.2809 H   0  0  0  0  0  0  0  0  0  0  0  0
   10.5743    1.7070   16.6949 C   0  0  0  0  0  0  0  0  0  0  0  0
   10.5383    1.8283   17.7663 H   0  0  0  0  0  0  0  0  0  0  0  0
   10.0352    0.5685   16.1359 C   0  0  0  0  0  0  0  0  0  0  0  0
   10.2242   -2.3301   15.1772 C   0  0  0  0  0  0  0  0  0  0  0  0
   10.9218   -3.4133   14.6507 C   0  0  0  0  0  0  0  0  0  0  0  0
   10.8891   -3.6078   13.5890 H   0  0  0  0  0  0  0  0  0  0  0  0
   11.6195   -4.2585   15.4958 C   0  0  0  0  0  0  0  0  0  0  0  0
   12.1506   -5.1018   15.0801 H   0  0  0  0  0  0  0  0  0  0  0  0
   11.6341   -4.0440   16.8668 C   0  0  0  0  0  0  0  0  0  0  0  0
   12.1765   -4.7148   17.5153 H   0  0  0  0  0  0  0  0  0  0  0  0
   10.9371   -2.9735   17.4026 C   0  0  0  0  0  0  0  0  0  0  0  0
   10.9117   -2.7738   18.4626 H   0  0  0  0  0  0  0  0  0  0  0  0
   10.2407   -2.1402   16.5522 C   0  0  0  0  0  0  0  0  0  0  0  0
    9.7944   -1.3955   12.4918 C   0  0  0  0  0  0  0  0  0  0  0  0
    8.8184   -1.5761   11.5168 C   0  0  0  0  0  0  0  0  0  0  0  0
    7.7664   -1.5806   11.8233 H   0  0  0  0  0  0  0  0  0  0  0  0
    9.1843   -1.7571   10.1950 C   0  0  0  0  0  0  0  0  0  0  0  0
    8.4288   -1.9038    9.4376 H   0  0  0  0  0  0  0  0  0  0  0  0
   10.5251   -1.7527    9.8449 C   0  0  0  0  0  0  0  0  0  0  0  0
   10.8138   -1.8966    8.8142 H   0  0  0  0  0  0  0  0  0  0  0  0
   11.5002   -1.5661   10.8131 C   0  0  0  0  0  0  0  0  0  0  0  0
   12.5439   -1.5631   10.5342 H   0  0  0  0  0  0  0  0  0  0  0  0
   11.1404   -1.3874   12.1364 C   0  0  0  0  0  0  0  0  0  0  0  0
   11.8969   -1.2430   12.8966 H   0  0  0  0  0  0  0  0  0  0  0  0
  1  2  1  6  0  0  0
  1  7  1  0  0  0  0
  3  5  2  0  0  0  0
  4  1  1  0  0  0  0
  4 29  1  0  0  0  0
  4 39  1  0  0  0  0
  6  3  2  0  0  0  0
  7 21  1  0  0  0  0
  8  1  1  0  0  0  0
  8 17  2  0  0  0  0
  8  9  1  0  0  0  0
  9 11  2  0  0  0  0
 10  9  1  0  0  0  0
 11 12  1  0  0  0  0
 11 13  1  0  0  0  0
 13 14  1  0  0  0  0
 15 16  1  0  0  0  0
 15 13  2  0  0  0  0
 17 15  1  0  0  0  0
 18 17  1  0  0  0  0
 18  7  1  0  0  0  0
 18 20  1  0  0  0  0
 19 18  1  0  0  0  0
 21 24  1  0  0  0  0
 21 22  1  0  0  0  0
 21 23  1  0  0  0  0
 25 26  1  0  0  0  0
 25 28  1  0  0  0  0
 25  7  1  0  0  0  0
 27 25  1  0  0  0  0
 29 38  1  0  0  0  0
 30 32  1  0  0  0  0
 30 29  2  0  0  0  0
 31 30  1  0  0  0  0
 32 34  2  0  0  0  0
 33 32  1  0  0  0  0
 34 35  1  0  0  0  0
 34 36  1  0  0  0  0
 36 37  1  0  0  0  0
 38 36  2  0  0  0  0
 38  3  1  0  0  0  0
 39 48  1  0  0  0  0
 40 39  2  0  0  0  0
 40 42  1  0  0  0  0
 41 40  1  0  0  0  0
 42 44  2  0  0  0  0
 43 42  1  0  0  0  0
 44 46  1  0  0  0  0
 44 45  1  0  0  0  0
 46 47  1  0  0  0  0
 48  3  1  0  0  0  0
 48 46  2  0  0  0  0
 49  4  1  0  0  0  0
 50 51  1  0  0  0  0
 50 49  2  0  0  0  0
 52 50  1  0  0  0  0
 53 52  1  0  0  0  0
 54 52  2  0  0  0  0
 54 56  1  0  0  0  0
 55 54  1  0  0  0  0
 56 58  2  0  0  0  0
 57 56  1  0  0  0  0
 58 49  1  0  0  0  0
 58 59  1  0  0  0  0
M  END
$$$$
