CSD_code = NEGPEV | q = 0 | S = 0 | Stoichiometry = C14H27Br3P2Zr | MND = 10
 OpenBabel04212202073D

 47 43  0  0  1  0  0  0  0  0999 V2000
    7.3930    1.1913    2.5445 Zr  0  0  0  0  0  0  0  0  0  0  0  0
    7.4372    1.6368    5.1309 Br  0  0  0  0  0 15  0  0  0  0  0  0
    7.3107    2.3466    0.1676 Br  0  0  0  0  0 15  0  0  0  0  0  0
    9.9642    0.8390    2.3829 Br  0  0  0  0  0 15  0  0  0  0  0  0
    5.4004    3.1844    2.7683 P   0  0  0  0  0  0  0  0  0  0  0  0
    8.6205    3.7434    2.9087 P   0  0  0  0  0  0  0  0  0  0  0  0
    5.6219   -0.1246    1.8682 C   0  0  1  0  0  0  0  0  0  0  0  0
    6.6335   -0.7122    1.0454 C   0  0  0  0  0  0  0  0  0  0  0  0
    7.6832   -1.3989    1.6144 C   0  0  0  0  0  0  0  0  0  0  0  0
    7.7065   -1.5364    3.0472 C   0  0  0  0  0  0  0  0  0  0  0  0
    6.6234   -1.2181    3.7940 C   0  0  0  0  0  0  0  0  0  0  0  0
    5.2898   -0.9175    3.1275 C   0  0  0  0  0  0  0  0  0  0  0  0
    4.3672   -0.1232    4.0581 C   0  0  0  0  0  0  0  0  0  0  0  0
    4.5944   -2.2539    2.7814 C   0  0  0  0  0  0  0  0  0  0  0  0
    6.1374    4.8612    2.4337 C   0  0  0  0  0  0  0  0  0  0  0  0
    7.3814    5.0836    3.2888 C   0  0  0  0  0  0  0  0  0  0  0  0
    4.0225    3.2482    1.5460 C   0  0  0  0  0  0  0  0  0  0  0  0
    4.4486    3.5979    4.2987 C   0  0  0  0  0  0  0  0  0  0  0  0
    9.8302    4.0464    4.2632 C   0  0  0  0  0  0  0  0  0  0  0  0
    9.5628    4.5361    1.5373 C   0  0  0  0  0  0  0  0  0  0  0  0
    4.7501    0.2740    1.3396 H   0  0  0  0  0  0  0  0  0  0  0  0
    6.6217   -0.5444   -0.0306 H   0  0  0  0  0  0  0  0  0  0  0  0
    8.4906   -1.8080    1.0203 H   0  0  0  0  0  0  0  0  0  0  0  0
    8.6153   -1.8996    3.5194 H   0  0  0  0  0  0  0  0  0  0  0  0
    6.6249   -1.3703    4.8676 H   0  0  0  0  0  0  0  0  0  0  0  0
    3.4336    0.1165    3.5490 H   0  0  0  0  0  0  0  0  0  0  0  0
    4.8376    0.8035    4.3901 H   0  0  0  0  0  0  0  0  0  0  0  0
    4.1277   -0.7119    4.9420 H   0  0  0  0  0  0  0  0  0  0  0  0
    3.6399   -2.0689    2.2917 H   0  0  0  0  0  0  0  0  0  0  0  0
    5.2212   -2.8380    2.1106 H   0  0  0  0  0  0  0  0  0  0  0  0
    4.4173   -2.8360    3.6834 H   0  0  0  0  0  0  0  0  0  0  0  0
    6.3984    4.9073    1.3718 H   0  0  0  0  0  0  0  0  0  0  0  0
    5.3773    5.6246    2.6317 H   0  0  0  0  0  0  0  0  0  0  0  0
    7.1282    5.0150    4.3518 H   0  0  0  0  0  0  0  0  0  0  0  0
    7.8179    6.0686    3.1010 H   0  0  0  0  0  0  0  0  0  0  0  0
    3.3239    2.4362    1.7444 H   0  0  0  0  0  0  0  0  0  0  0  0
    3.4941    4.1977    1.6234 H   0  0  0  0  0  0  0  0  0  0  0  0
    4.4206    3.1371    0.5385 H   0  0  0  0  0  0  0  0  0  0  0  0
    3.6860    2.8400    4.4689 H   0  0  0  0  0  0  0  0  0  0  0  0
    3.9644    4.5678    4.1920 H   0  0  0  0  0  0  0  0  0  0  0  0
    5.1131    3.6141    5.1612 H   0  0  0  0  0  0  0  0  0  0  0  0
    9.4063    3.7642    5.2246 H   0  0  0  0  0  0  0  0  0  0  0  0
   10.7148    3.4370    4.0773 H   0  0  0  0  0  0  0  0  0  0  0  0
   10.1111    5.0990    4.2820 H   0  0  0  0  0  0  0  0  0  0  0  0
   10.3361    3.8418    1.2071 H   0  0  0  0  0  0  0  0  0  0  0  0
    8.9098    4.7469    0.6931 H   0  0  0  0  0  0  0  0  0  0  0  0
   10.0284    5.4578    1.8843 H   0  0  0  0  0  0  0  0  0  0  0  0
  5 18  1  0  0  0  0
  6 16  1  0  0  0  0
  6 19  1  0  0  0  0
  7 21  1  6  0  0  0
  7  1  1  0  0  0  0
  7 12  1  0  0  0  0
  8  9  2  0  0  0  0
  8  7  1  0  0  0  0
  9 10  1  0  0  0  0
 10 24  1  0  0  0  0
 10 11  2  0  0  0  0
 11 25  1  0  0  0  0
 12 11  1  0  0  0  0
 12 13  1  0  0  0  0
 13 27  1  0  0  0  0
 13 28  1  0  0  0  0
 14 12  1  0  0  0  0
 14 31  1  0  0  0  0
 15 33  1  0  0  0  0
 15  5  1  0  0  0  0
 15 16  1  0  0  0  0
 16 34  1  0  0  0  0
 17 37  1  0  0  0  0
 17 36  1  0  0  0  0
 17  5  1  0  0  0  0
 18 39  1  0  0  0  0
 18 41  1  0  0  0  0
 19 44  1  0  0  0  0
 19 42  1  0  0  0  0
 20 47  1  0  0  0  0
 20  6  1  0  0  0  0
 22  8  1  0  0  0  0
 23  9  1  0  0  0  0
 26 13  1  0  0  0  0
 29 14  1  0  0  0  0
 30 14  1  0  0  0  0
 32 15  1  0  0  0  0
 35 16  1  0  0  0  0
 38 17  1  0  0  0  0
 40 18  1  0  0  0  0
 43 19  1  0  0  0  0
 45 20  1  0  0  0  0
 46 20  1  0  0  0  0
M  END
$$$$
