CSD_code = NEGSIE | q = 0 | S = 0 | Stoichiometry = C29H25Cl3N3P2V | MND = 6
 OpenBabel04212202073D

 63 69  0  0  1  0  0  0  0  0999 V2000
    9.5270    2.1324   14.0490 V   0  0  0  0  0  0  0  0  0  0  0  0
   10.9858    2.1232   15.5648 Cl  0  0  0  0  0  0  0  0  0  0  0  0
    8.2103    1.7441   12.4675 Cl  0  0  0  0  0  0  0  0  0  0  0  0
    8.0905    1.0620   15.4546 P   0  0  0  0  0  4  0  0  0  0  0  0
   11.1251    2.6602   12.5166 P   0  0  0  0  0  4  0  0  0  0  0  0
    8.8101    4.2646   14.4666 Cl  0  0  0  0  0  0  0  0  0  0  0  0
   10.2383    0.1951   13.7301 N   0  0  0  0  0  0  0  0  0  0  0  0
    8.6846   -0.5280   15.2670 N   0  0  0  0  0  0  0  0  0  0  0  0
   11.7507    1.0948   12.2459 N   0  0  0  0  0  0  0  0  0  0  0  0
    6.3215    0.8183   15.1437 C   0  0  0  0  0  0  0  0  0  0  0  0
   11.8049   -1.2752   12.7074 C   0  0  0  0  0  0  0  0  0  0  0  0
   12.6307   -1.4177   12.0288 H   0  0  0  0  0  0  0  0  0  0  0  0
   11.2622   -0.0017   12.9012 C   0  0  2  0  0  3  0  0  0  0  0  0
    9.7195   -0.8181   14.4217 C   0  0  0  0  0  0  0  0  0  0  0  0
   10.7991    3.2094   10.8208 C   0  0  0  0  0  0  0  0  0  0  0  0
    8.5123    2.5246   17.7508 C   0  0  0  0  0  0  0  0  0  0  0  0
    8.8215    3.2960   17.0546 H   0  0  0  0  0  0  0  0  0  0  0  0
   11.2613   -2.3346   13.4095 C   0  0  0  0  0  0  0  0  0  0  0  0
   11.6606   -3.3292   13.2806 H   0  0  0  0  0  0  0  0  0  0  0  0
   12.6066    3.6343   12.9231 C   0  0  0  0  0  0  0  0  0  0  0  0
    8.1013    1.2901   17.2589 C   0  0  0  0  0  0  0  0  0  0  0  0
   10.3896    2.3138    9.8385 C   0  0  0  0  0  0  0  0  0  0  0  0
   10.3151    1.2588   10.0701 H   0  0  0  0  0  0  0  0  0  0  0  0
   10.2099   -2.1197   14.2809 C   0  0  0  0  0  0  0  0  0  0  0  0
    9.7755   -2.9291   14.8454 H   0  0  0  0  0  0  0  0  0  0  0  0
    8.5184    2.7532   19.1163 C   0  0  0  0  0  0  0  0  0  0  0  0
    8.8389    3.7103   19.5001 H   0  0  0  0  0  0  0  0  0  0  0  0
    5.8756   -0.1217   14.2206 C   0  0  0  0  0  0  0  0  0  0  0  0
    6.5897   -0.7605   13.7162 H   0  0  0  0  0  0  0  0  0  0  0  0
    7.6768    0.2964   18.1356 C   0  0  0  0  0  0  0  0  0  0  0  0
    7.3244   -0.6535   17.7539 H   0  0  0  0  0  0  0  0  0  0  0  0
    4.5256   -0.2211   13.9369 C   0  0  0  0  0  0  0  0  0  0  0  0
    4.1781   -0.9532   13.2222 H   0  0  0  0  0  0  0  0  0  0  0  0
   13.5808    5.3772   14.2564 C   0  0  0  0  0  0  0  0  0  0  0  0
   13.4915    6.1225   15.0326 H   0  0  0  0  0  0  0  0  0  0  0  0
   12.4891    4.5942   13.9230 C   0  0  0  0  0  0  0  0  0  0  0  0
   11.5378    4.7190   14.4280 H   0  0  0  0  0  0  0  0  0  0  0  0
   13.8122    3.4760   12.2470 C   0  0  0  0  0  0  0  0  0  0  0  0
   13.8986    2.7512   11.4475 H   0  0  0  0  0  0  0  0  0  0  0  0
   10.1215    4.1342    8.2991 C   0  0  0  0  0  0  0  0  0  0  0  0
    9.8585    4.4937    7.3150 H   0  0  0  0  0  0  0  0  0  0  0  0
    8.1158    1.7553   19.9885 C   0  0  0  0  0  0  0  0  0  0  0  0
    8.1259    1.9318   21.0542 H   0  0  0  0  0  0  0  0  0  0  0  0
   10.0597    2.7784    8.5782 C   0  0  0  0  0  0  0  0  0  0  0  0
    9.7432    2.0833    7.8140 H   0  0  0  0  0  0  0  0  0  0  0  0
   14.7860    5.2043   13.5959 C   0  0  0  0  0  0  0  0  0  0  0  0
   15.6400    5.8106   13.8606 H   0  0  0  0  0  0  0  0  0  0  0  0
   10.8379    4.5734   10.5451 C   0  0  0  0  0  0  0  0  0  0  0  0
   11.1228    5.2641   11.3282 H   0  0  0  0  0  0  0  0  0  0  0  0
    3.6207    0.6239   14.5589 C   0  0  0  0  0  0  0  0  0  0  0  0
    2.5676    0.5456   14.3322 H   0  0  0  0  0  0  0  0  0  0  0  0
    4.0657    1.5789   15.4600 C   0  0  0  0  0  0  0  0  0  0  0  0
    3.3601    2.2473   15.9312 H   0  0  0  0  0  0  0  0  0  0  0  0
   14.9003    4.2572   12.5897 C   0  0  0  0  0  0  0  0  0  0  0  0
   15.8395    4.1313   12.0700 H   0  0  0  0  0  0  0  0  0  0  0  0
    7.6912    0.5297   19.4982 C   0  0  0  0  0  0  0  0  0  0  0  0
    7.3666   -0.2425   20.1809 H   0  0  0  0  0  0  0  0  0  0  0  0
    5.4132    1.6819   15.7495 C   0  0  0  0  0  0  0  0  0  0  0  0
    5.7762    2.4341   16.4380 H   0  0  0  0  0  0  0  0  0  0  0  0
   10.5044    5.0314    9.2844 C   0  0  0  0  0  0  0  0  0  0  0  0
   10.5362    6.0893    9.0691 H   0  0  0  0  0  0  0  0  0  0  0  0
    8.2886   -1.3019   15.7885 H   0  0  0  0  0  0  0  0  0  0  0  0
   12.5282    0.9417   11.6134 H   0  0  0  0  0  0  0  0  0  0  0  0
  1  6  1  0  0  0  0
  1  4  1  0  0  0  0
  1  2  1  0  0  0  0
  3  1  1  0  0  0  0
  4 21  1  0  0  0  0
  5 20  1  0  0  0  0
  5  1  1  0  0  0  0
  7  1  1  0  0  0  0
  7 14  1  0  0  0  0
  8  4  1  0  0  0  0
  8 62  1  0  0  0  0
  9  5  1  0  0  0  0
  9 13  1  0  0  0  0
 10  4  1  0  0  0  0
 10 58  1  0  0  0  0
 11 18  2  0  0  0  0
 12 11  1  0  0  0  0
 13 11  1  6  0  0  0
 13  7  1  0  0  0  0
 14  8  1  0  0  0  0
 15  5  1  0  0  0  0
 16 26  1  0  0  0  0
 17 16  1  0  0  0  0
 18 24  1  0  0  0  0
 19 18  1  0  0  0  0
 20 36  1  0  0  0  0
 21 16  2  0  0  0  0
 21 30  1  0  0  0  0
 22 23  1  0  0  0  0
 22 15  2  0  0  0  0
 24 14  2  0  0  0  0
 24 25  1  0  0  0  0
 26 27  1  0  0  0  0
 26 42  2  0  0  0  0
 28 10  2  0  0  0  0
 29 28  1  0  0  0  0
 30 56  2  0  0  0  0
 31 30  1  0  0  0  0
 32 28  1  0  0  0  0
 32 50  2  0  0  0  0
 33 32  1  0  0  0  0
 34 35  1  0  0  0  0
 36 34  2  0  0  0  0
 36 37  1  0  0  0  0
 38 54  1  0  0  0  0
 38 20  2  0  0  0  0
 39 38  1  0  0  0  0
 40 44  2  0  0  0  0
 40 60  1  0  0  0  0
 41 40  1  0  0  0  0
 42 43  1  0  0  0  0
 44 22  1  0  0  0  0
 45 44  1  0  0  0  0
 46 47  1  0  0  0  0
 46 34  1  0  0  0  0
 48 15  1  0  0  0  0
 48 49  1  0  0  0  0
 50 52  1  0  0  0  0
 51 50  1  0  0  0  0
 52 58  2  0  0  0  0
 52 53  1  0  0  0  0
 54 46  2  0  0  0  0
 55 54  1  0  0  0  0
 56 42  1  0  0  0  0
 56 57  1  0  0  0  0
 58 59  1  0  0  0  0
 60 48  2  0  0  0  0
 61 60  1  0  0  0  0
 63  9  1  0  0  0  0
M  END
$$$$
