CSD_code = NEHBEI | q = 0 | S = 0 | Stoichiometry = C20H24ClN2ORh | MND = 6
 OpenBabel04212202073D

 49 50  0  0  1  0  0  0  0  0999 V2000
    3.1436    2.0402   -4.0820 C   0  0  0  0  0  3  0  0  0  0  0  0
    2.6915    3.0066   -3.2080 C   0  0  0  0  0  3  0  0  0  0  0  0
    3.5903    4.0361   -2.5586 C   0  0  0  0  0  0  0  0  0  0  0  0
    3.0337    4.9672   -2.4318 H   0  0  0  0  0  0  0  0  0  0  0  0
    4.4264    4.2494   -3.2260 H   0  0  0  0  0  0  0  0  0  0  0  0
    4.1069    3.5766   -1.1813 C   0  0  0  0  0  0  0  0  0  0  0  0
    5.0709    4.0514   -0.9654 H   0  0  0  0  0  0  0  0  0  0  0  0
    3.4087    3.9104   -0.4072 H   0  0  0  0  0  0  0  0  0  0  0  0
    4.2532    2.0762   -1.0632 C   0  0  2  0  0  0  0  0  0  0  0  0
    4.8758    1.2598   -2.0106 C   0  0  0  0  0  3  0  0  0  0  0  0
    5.5450    1.7959   -3.2599 C   0  0  0  0  0  0  0  0  0  0  0  0
    6.3991    1.1616   -3.5073 H   0  0  0  0  0  0  0  0  0  0  0  0
    5.9365    2.7932   -3.0546 H   0  0  0  0  0  0  0  0  0  0  0  0
    4.5896    1.8300   -4.4686 C   0  0  0  0  0  0  0  0  0  0  0  0
    4.8945    2.6175   -5.1668 H   0  0  0  0  0  0  0  0  0  0  0  0
    4.6612    0.8797   -5.0046 H   0  0  0  0  0  0  0  0  0  0  0  0
    2.5083   -0.3206   -0.8003 C   0  0  2  0  0  3  0  0  0  0  0  0
    2.3530   -2.2291    0.3352 C   0  0  0  0  0  0  0  0  0  0  0  0
    2.5071   -3.2686    0.5394 H   0  0  0  0  0  0  0  0  0  0  0  0
    1.6905   -1.2812    1.0383 C   0  0  0  0  0  0  0  0  0  0  0  0
    1.1705   -1.3395    1.9719 H   0  0  0  0  0  0  0  0  0  0  0  0
    3.5592   -2.2803   -1.8497 C   0  0  0  0  0  0  0  0  0  0  0  0
    3.0158   -3.1677   -2.1770 H   0  0  0  0  0  0  0  0  0  0  0  0
    4.5583   -2.5747   -1.5201 H   0  0  0  0  0  0  0  0  0  0  0  0
    3.6395   -1.5802   -2.6873 H   0  0  0  0  0  0  0  0  0  0  0  0
    1.2247    1.1543    0.6560 C   0  0  0  0  0  0  0  0  0  0  0  0
    0.1806    1.0442    0.9648 H   0  0  0  0  0  0  0  0  0  0  0  0
    1.2629    1.7524   -0.2737 H   0  0  0  0  0  0  0  0  0  0  0  0
    2.0159    1.8461    1.7569 C   0  0  0  0  0  0  0  0  0  0  0  0
    1.6281    3.2389    2.0720 C   0  0  0  0  0  0  0  0  0  0  0  0
    0.7040    3.9688    1.3230 C   0  0  0  0  0  0  0  0  0  0  0  0
    0.2247    3.5368    0.4590 H   0  0  0  0  0  0  0  0  0  0  0  0
    0.4003    5.2697    1.6792 C   0  0  0  0  0  0  0  0  0  0  0  0
   -0.3133    5.8305    1.0942 H   0  0  0  0  0  0  0  0  0  0  0  0
    1.0055    5.8577    2.7792 C   0  0  0  0  0  0  0  0  0  0  0  0
    0.7602    6.8737    3.0507 H   0  0  0  0  0  0  0  0  0  0  0  0
    1.9263    5.1414    3.5274 C   0  0  0  0  0  0  0  0  0  0  0  0
    2.4008    5.5968    4.3837 H   0  0  0  0  0  0  0  0  0  0  0  0
    2.2365    3.8434    3.1744 C   0  0  0  0  0  0  0  0  0  0  0  0
    2.9525    3.2680    3.7422 H   0  0  0  0  0  0  0  0  0  0  0  0
    2.8435   -1.6217   -0.7927 N   0  0  0  0  0  0  0  0  0  0  0  0
    1.7881   -0.1216    0.3205 N   0  0  0  0  0  0  0  0  0  0  0  0
    2.9144    1.2738    2.3348 O   0  0  0  0  0  0  0  0  0  0  0  0
    0.6527    0.5227   -2.8258 Cl  0  0  0  0  0 15  0  0  0  0  0  0
    2.7617    1.0954   -2.1878 Rh  0  0  0  0  0  0  0  0  0  0  0  0
    5.2987    0.3248   -1.6453 H   0  0  0  0  0  0  0  0  0  0  0  0
    4.2622    1.7330   -0.0283 H   0  0  0  0  0  0  0  0  0  0  0  0
    2.4305    1.6224   -4.7932 H   0  0  0  0  0  0  0  0  0  0  0  0
    1.6370    3.2793   -3.2581 H   0  0  0  0  0  0  0  0  0  0  0  0
  1  2  1  0  0  0  0
  2  3  1  0  0  0  0
  3  4  1  0  0  0  0
  3  6  1  0  0  0  0
  5  3  1  0  0  0  0
  6  9  1  0  0  0  0
  6  7  1  0  0  0  0
  6  8  1  0  0  0  0
  9 47  1  1  0  0  0
 10 46  1  0  0  0  0
 10  9  1  0  0  0  0
 11 13  1  0  0  0  0
 11 10  1  0  0  0  0
 12 11  1  0  0  0  0
 14  1  1  0  0  0  0
 14 11  1  0  0  0  0
 15 14  1  0  0  0  0
 16 14  1  0  0  0  0
 17 45  1  6  0  0  0
 17 41  1  0  0  0  0
 17 42  1  0  0  0  0
 18 19  1  0  0  0  0
 18 20  2  0  0  0  0
 20 21  1  0  0  0  0
 22 24  1  0  0  0  0
 22 41  1  0  0  0  0
 23 22  1  0  0  0  0
 25 22  1  0  0  0  0
 26 27  1  0  0  0  0
 26 29  1  0  0  0  0
 28 26  1  0  0  0  0
 29 30  1  0  0  0  0
 29 43  2  0  0  0  0
 30 39  1  0  0  0  0
 31 33  1  0  0  0  0
 31 30  2  0  0  0  0
 32 31  1  0  0  0  0
 33 35  2  0  0  0  0
 34 33  1  0  0  0  0
 35 36  1  0  0  0  0
 35 37  1  0  0  0  0
 37 38  1  0  0  0  0
 39 37  2  0  0  0  0
 39 40  1  0  0  0  0
 41 18  1  0  0  0  0
 42 26  1  0  0  0  0
 42 20  1  0  0  0  0
 45  9  1  0  0  0  0
 48  1  1  0  0  0  0
 49  2  1  0  0  0  0
M  END
$$$$
