CSD_code = NEHBIM | q = 0 | S = 0 | Stoichiometry = C27H36AgClN2 | MND = 2
 OpenBabel04212202073D

 67 69  0  0  1  0  0  0  0  0999 V2000
    7.9928    3.1657    7.4589 C   0  0  2  0  0  3  0  0  0  0  0  0
    7.7696    2.5265    9.5938 C   0  0  0  0  0  0  0  0  0  0  0  0
    7.5371    1.8613   10.3997 H   0  0  0  0  0  0  0  0  0  0  0  0
    7.1869    0.8883    7.8281 C   0  0  0  0  0  0  0  0  0  0  0  0
    5.8152    0.6843    7.6578 C   0  0  0  0  0  0  0  0  0  0  0  0
    5.3908   -0.5595    7.2113 C   0  0  0  0  0  0  0  0  0  0  0  0
    4.3393   -0.7425    7.0573 H   0  0  0  0  0  0  0  0  0  0  0  0
    6.3010   -1.5649    6.9478 C   0  0  0  0  0  0  0  0  0  0  0  0
    5.9540   -2.5251    6.5968 H   0  0  0  0  0  0  0  0  0  0  0  0
    7.6537   -1.3422    7.1162 C   0  0  0  0  0  0  0  0  0  0  0  0
    8.3533   -2.1311    6.8894 H   0  0  0  0  0  0  0  0  0  0  0  0
    8.1230   -0.1131    7.5600 C   0  0  0  0  0  0  0  0  0  0  0  0
    4.8237    1.8002    7.8876 C   0  0  0  0  0  0  0  0  0  0  0  0
    5.3205    2.6169    8.4211 H   0  0  0  0  0  0  0  0  0  0  0  0
    4.3561    2.3360    6.5318 C   0  0  0  0  0  0  0  0  0  0  0  0
    5.2152    2.6637    5.9368 H   0  0  0  0  0  0  0  0  0  0  0  0
    3.6847    3.1803    6.6694 H   0  0  0  0  0  0  0  0  0  0  0  0
    3.8342    1.5624    5.9747 H   0  0  0  0  0  0  0  0  0  0  0  0
    3.6347    1.3514    8.7389 C   0  0  0  0  0  0  0  0  0  0  0  0
    3.0190    0.6299    8.2093 H   0  0  0  0  0  0  0  0  0  0  0  0
    3.0119    2.2090    8.9838 H   0  0  0  0  0  0  0  0  0  0  0  0
    3.9774    0.8977    9.6667 H   0  0  0  0  0  0  0  0  0  0  0  0
    9.6061    0.1377    7.6946 C   0  0  0  0  0  0  0  0  0  0  0  0
    9.7634    1.1006    8.1911 H   0  0  0  0  0  0  0  0  0  0  0  0
   10.2315    0.2189    6.3000 C   0  0  0  0  0  0  0  0  0  0  0  0
   10.1170   -0.7239    5.7717 H   0  0  0  0  0  0  0  0  0  0  0  0
   11.2913    0.4507    6.3731 H   0  0  0  0  0  0  0  0  0  0  0  0
    9.7414    1.0020    5.7104 H   0  0  0  0  0  0  0  0  0  0  0  0
   10.2913   -0.9372    8.5407 C   0  0  0  0  0  0  0  0  0  0  0  0
    9.8042   -1.0306    9.5093 H   0  0  0  0  0  0  0  0  0  0  0  0
   11.3334   -0.6710    8.7028 H   0  0  0  0  0  0  0  0  0  0  0  0
   10.2636   -1.9046    8.0473 H   0  0  0  0  0  0  0  0  0  0  0  0
    7.6414    2.1572    8.2807 N   0  0  0  0  0  0  0  0  0  0  0  0
    7.9928    3.1657    3.1077 Cl  0  0  0  0  0  0  0  0  0  0  0  0
    7.9928    3.1657    5.3502 Ag  0  0  0  0  0  0  0  0  0  0  0  0
    8.2159    3.8049    9.5938 C   0  0  0  0  0  0  0  0  0  0  0  0
    8.4484    4.4701   10.3997 H   0  0  0  0  0  0  0  0  0  0  0  0
    8.7986    5.4431    7.8281 C   0  0  0  0  0  0  0  0  0  0  0  0
   10.1703    5.6471    7.6578 C   0  0  0  0  0  0  0  0  0  0  0  0
   10.5947    6.8909    7.2113 C   0  0  0  0  0  0  0  0  0  0  0  0
   11.6462    7.0739    7.0573 H   0  0  0  0  0  0  0  0  0  0  0  0
    9.6845    7.8963    6.9478 C   0  0  0  0  0  0  0  0  0  0  0  0
   10.0315    8.8565    6.5968 H   0  0  0  0  0  0  0  0  0  0  0  0
    8.3318    7.6736    7.1162 C   0  0  0  0  0  0  0  0  0  0  0  0
    7.6322    8.4625    6.8894 H   0  0  0  0  0  0  0  0  0  0  0  0
    7.8625    6.4445    7.5600 C   0  0  0  0  0  0  0  0  0  0  0  0
   11.1618    4.5312    7.8876 C   0  0  0  0  0  0  0  0  0  0  0  0
   10.6650    3.7145    8.4212 H   0  0  0  0  0  0  0  0  0  0  0  0
   11.6294    3.9954    6.5318 C   0  0  0  0  0  0  0  0  0  0  0  0
   10.7703    3.6677    5.9368 H   0  0  0  0  0  0  0  0  0  0  0  0
   12.3008    3.1511    6.6694 H   0  0  0  0  0  0  0  0  0  0  0  0
   12.1514    4.7690    5.9747 H   0  0  0  0  0  0  0  0  0  0  0  0
   12.3508    4.9800    8.7389 C   0  0  0  0  0  0  0  0  0  0  0  0
   12.9665    5.7015    8.2093 H   0  0  0  0  0  0  0  0  0  0  0  0
   12.9736    4.1224    8.9838 H   0  0  0  0  0  0  0  0  0  0  0  0
   12.0082    5.4337    9.6667 H   0  0  0  0  0  0  0  0  0  0  0  0
    6.3794    6.1937    7.6946 C   0  0  0  0  0  0  0  0  0  0  0  0
    6.2221    5.2308    8.1911 H   0  0  0  0  0  0  0  0  0  0  0  0
    5.7540    6.1125    6.3000 C   0  0  0  0  0  0  0  0  0  0  0  0
    5.8685    7.0553    5.7717 H   0  0  0  0  0  0  0  0  0  0  0  0
    4.6942    5.8807    6.3731 H   0  0  0  0  0  0  0  0  0  0  0  0
    6.2441    5.3294    5.7104 H   0  0  0  0  0  0  0  0  0  0  0  0
    5.6942    7.2686    8.5407 C   0  0  0  0  0  0  0  0  0  0  0  0
    6.1813    7.3620    9.5093 H   0  0  0  0  0  0  0  0  0  0  0  0
    4.6521    7.0024    8.7028 H   0  0  0  0  0  0  0  0  0  0  0  0
    5.7219    8.2360    8.0473 H   0  0  0  0  0  0  0  0  0  0  0  0
    8.3441    4.1742    8.2807 N   0  0  0  0  0  0  0  0  0  0  0  0
  1 35  1  6  0  0  0
  1 33  1  0  0  0  0
  1 67  1  0  0  0  0
  2 36  2  0  0  0  0
  2  3  1  0  0  0  0
  4 33  1  0  0  0  0
  5  4  1  0  0  0  0
  5 13  1  0  0  0  0
  6  5  2  0  0  0  0
  7  6  1  0  0  0  0
  8 10  2  0  0  0  0
  8  6  1  0  0  0  0
  9  8  1  0  0  0  0
 10 12  1  0  0  0  0
 11 10  1  0  0  0  0
 12 23  1  0  0  0  0
 12  4  2  0  0  0  0
 13 14  1  0  0  0  0
 13 19  1  0  0  0  0
 15 17  1  0  0  0  0
 15 13  1  0  0  0  0
 16 15  1  0  0  0  0
 18 15  1  0  0  0  0
 19 21  1  0  0  0  0
 19 22  1  0  0  0  0
 20 19  1  0  0  0  0
 23 24  1  0  0  0  0
 23 29  1  0  0  0  0
 25 27  1  0  0  0  0
 25 23  1  0  0  0  0
 26 25  1  0  0  0  0
 28 25  1  0  0  0  0
 29 31  1  0  0  0  0
 29 30  1  0  0  0  0
 32 29  1  0  0  0  0
 33  2  1  0  0  0  0
 34 35  1  0  0  0  0
 36 37  1  0  0  0  0
 38 67  1  0  0  0  0
 39 38  1  0  0  0  0
 39 47  1  0  0  0  0
 40 39  2  0  0  0  0
 41 40  1  0  0  0  0
 42 44  2  0  0  0  0
 42 40  1  0  0  0  0
 43 42  1  0  0  0  0
 44 46  1  0  0  0  0
 45 44  1  0  0  0  0
 46 57  1  0  0  0  0
 46 38  2  0  0  0  0
 47 48  1  0  0  0  0
 47 53  1  0  0  0  0
 49 51  1  0  0  0  0
 49 47  1  0  0  0  0
 50 49  1  0  0  0  0
 52 49  1  0  0  0  0
 53 55  1  0  0  0  0
 53 56  1  0  0  0  0
 54 53  1  0  0  0  0
 57 58  1  0  0  0  0
 57 63  1  0  0  0  0
 59 61  1  0  0  0  0
 59 57  1  0  0  0  0
 60 59  1  0  0  0  0
 62 59  1  0  0  0  0
 63 65  1  0  0  0  0
 63 64  1  0  0  0  0
 66 63  1  0  0  0  0
 67 36  1  0  0  0  0
M  END
$$$$
