CSD_code = NEKFIU | q = 0 | S = 0 | Stoichiometry = C16H24Cl2N6NiO | MND = 6
 OpenBabel04212202073D

 50 53  0  0  1  0  0  0  0  0999 V2000
    7.5829   10.9440    2.1798 Ni  0  0  0  0  0  0  0  0  0  0  0  0
    8.4078    9.6971    3.6630 Cl  0  0  0  0  0  0  0  0  0  0  0  0
    5.8641   11.2695    3.3566 Cl  0  0  0  0  0  0  0  0  0  0  0  0
    6.5959    9.1109    1.0500 N   0  0  1  0  0  0  0  0  0  0  0  0
    6.8163    9.1358   -0.2739 N   0  0  0  0  0  0  0  0  0  0  0  0
    6.8658   12.0481    0.6691 N   0  0  1  0  0  0  0  0  0  0  0  0
    6.8577   11.4941   -0.5596 N   0  0  0  0  0  0  0  0  0  0  0  0
    9.1389   10.6656    0.9515 N   0  0  2  0  0  0  0  0  0  0  0  0
    8.8808   10.3123   -0.3235 N   0  0  0  0  0  0  0  0  0  0  0  0
    8.5591   12.8123    3.5640 O   0  0  0  0  0  0  0  0  0  0  0  0
    8.9775   12.1330    4.1124 H   0  0  0  0  0  0  0  0  0  0  0  0
    7.6822   12.9353    3.9548 H   0  0  0  0  0  0  0  0  0  0  0  0
    5.9360    8.0049    1.3162 C   0  0  1  0  0  3  0  0  0  0  0  0
    5.7204    7.2884    0.1184 C   0  0  0  0  0  0  0  0  0  0  0  0
    5.2107    6.3528    0.0127 H   0  0  0  0  0  0  0  0  0  0  0  0
    6.2931    8.0332   -0.8824 C   0  0  0  0  0  0  0  0  0  0  0  0
    5.5357    7.6468    2.6963 C   0  0  0  0  0  0  0  0  0  0  0  0
    6.3910    7.2364    3.2314 H   0  0  0  0  0  0  0  0  0  0  0  0
    4.7328    6.9154    2.6884 H   0  0  0  0  0  0  0  0  0  0  0  0
    5.2231    8.5424    3.2282 H   0  0  0  0  0  0  0  0  0  0  0  0
    6.3816    7.7816   -2.3441 C   0  0  0  0  0  0  0  0  0  0  0  0
    5.9175    8.5853   -2.9167 H   0  0  0  0  0  0  0  0  0  0  0  0
    5.8631    6.8556   -2.5754 H   0  0  0  0  0  0  0  0  0  0  0  0
    7.4185    7.6808   -2.6670 H   0  0  0  0  0  0  0  0  0  0  0  0
    6.2353   13.2040    0.5800 C   0  0  2  0  0  3  0  0  0  0  0  0
    5.7956   13.3947   -0.7440 C   0  0  0  0  0  0  0  0  0  0  0  0
    5.2499   14.2344   -1.1221 H   0  0  0  0  0  0  0  0  0  0  0  0
    6.2048   12.2908   -1.4487 C   0  0  0  0  0  0  0  0  0  0  0  0
    6.0734   14.1320    1.7218 C   0  0  0  0  0  0  0  0  0  0  0  0
    5.4784   13.6510    2.4977 H   0  0  0  0  0  0  0  0  0  0  0  0
    5.5884   15.0479    1.3968 H   0  0  0  0  0  0  0  0  0  0  0  0
    7.0492   14.3604    2.1464 H   0  0  0  0  0  0  0  0  0  0  0  0
    6.0150   11.9421   -2.8800 C   0  0  0  0  0  0  0  0  0  0  0  0
    6.9699   11.8264   -3.3946 H   0  0  0  0  0  0  0  0  0  0  0  0
    5.4617   12.7399   -3.3671 H   0  0  0  0  0  0  0  0  0  0  0  0
    5.4461   11.0181   -2.9854 H   0  0  0  0  0  0  0  0  0  0  0  0
   10.4507   10.6837    1.0936 C   0  0  1  0  0  3  0  0  0  0  0  0
   11.0566   10.3212   -0.1247 C   0  0  0  0  0  0  0  0  0  0  0  0
   12.1065   10.2420   -0.3182 H   0  0  0  0  0  0  0  0  0  0  0  0
   10.0344   10.0909   -1.0104 C   0  0  0  0  0  0  0  0  0  0  0  0
   11.1293   11.0653    2.3524 C   0  0  0  0  0  0  0  0  0  0  0  0
   10.8442   12.0795    2.6259 H   0  0  0  0  0  0  0  0  0  0  0  0
   12.2071   11.0068    2.2314 H   0  0  0  0  0  0  0  0  0  0  0  0
   10.8058   10.4019    3.1538 H   0  0  0  0  0  0  0  0  0  0  0  0
   10.0788    9.6841   -2.4383 C   0  0  0  0  0  0  0  0  0  0  0  0
    9.5799    8.7270   -2.5914 H   0  0  0  0  0  0  0  0  0  0  0  0
   11.1163    9.5788   -2.7422 H   0  0  0  0  0  0  0  0  0  0  0  0
    9.6096   10.4302   -3.0809 H   0  0  0  0  0  0  0  0  0  0  0  0
    7.5331   10.2493   -0.8351 C   0  0  1  0  0  0  0  0  0  0  0  0
    7.5826   10.1145   -1.9208 H   0  0  0  0  0  0  0  0  0  0  0  0
  1  3  1  0  0  0  0
  1  2  1  0  0  0  0
  4  5  1  1  0  0  0
  4 13  1  0  0  0  0
  4  1  1  0  0  0  0
  6  7  1  1  0  0  0
  6  1  1  0  0  0  0
  8  9  1  1  0  0  0
  8 37  1  0  0  0  0
  8  1  1  0  0  0  0
 10 12  1  0  0  0  0
 10 11  1  0  0  0  0
 13 17  1  1  0  0  0
 14 13  1  0  0  0  0
 15 14  1  0  0  0  0
 16  5  1  0  0  0  0
 16 14  2  0  0  0  0
 17 20  1  0  0  0  0
 17 18  1  0  0  0  0
 19 17  1  0  0  0  0
 21 16  1  0  0  0  0
 22 21  1  0  0  0  0
 23 21  1  0  0  0  0
 24 21  1  0  0  0  0
 25  6  1  0  0  0  0
 25 29  1  6  0  0  0
 26 25  1  0  0  0  0
 27 26  1  0  0  0  0
 28 26  2  0  0  0  0
 28  7  1  0  0  0  0
 29 32  1  0  0  0  0
 29 30  1  0  0  0  0
 31 29  1  0  0  0  0
 33 28  1  0  0  0  0
 34 33  1  0  0  0  0
 35 33  1  0  0  0  0
 36 33  1  0  0  0  0
 37 41  1  6  0  0  0
 38 37  1  0  0  0  0
 39 38  1  0  0  0  0
 40  9  1  0  0  0  0
 40 38  2  0  0  0  0
 41 42  1  0  0  0  0
 41 44  1  0  0  0  0
 43 41  1  0  0  0  0
 45 40  1  0  0  0  0
 46 45  1  0  0  0  0
 47 45  1  0  0  0  0
 48 45  1  0  0  0  0
 49 50  1  6  0  0  0
 49  7  1  0  0  0  0
 49  9  1  0  0  0  0
 49  5  1  0  0  0  0
M  END
$$$$
