CSD_code = NEKVEG | q = 0 | S = 0 | Stoichiometry = C13H12I2N4O2Os | MND = 6
 OpenBabel04212202073D

 34 36  0  0  0  0  0  0  0  0999 V2000
    6.2572    0.7686   11.2889 Os  0  0  0  0  0  0  0  0  0  0  0  0
    7.7031    3.0499   10.9489 I   0  0  0  0  0  0  0  0  0  0  0  0
    4.7462   -1.4614   11.7783 I   0  0  0  0  0  0  0  0  0  0  0  0
    8.6676   -0.6076   12.5585 O   0  0  0  0  0  1  0  0  0  0  0  0
    6.9703   -0.3690    8.5714 O   0  0  0  0  0  1  0  0  0  0  0  0
    5.5442    1.5518   13.1188 N   0  0  0  0  0  0  0  0  0  0  0  0
    4.3466    2.1145   12.8893 C   0  0  0  0  0  0  0  0  0  0  0  0
    3.8156    2.5990   14.0339 N   0  0  0  0  0  0  0  0  0  0  0  0
    4.7094    2.3236   15.0210 C   0  0  0  0  0  0  0  0  0  0  0  0
    4.5372    2.6022   16.0399 H   0  0  0  0  0  0  0  0  0  0  0  0
    3.7942    2.1814   11.6672 N   0  0  0  0  0  0  0  0  0  0  0  0
    5.7746    1.6804   14.4435 C   0  0  0  0  0  0  0  0  0  0  0  0
    6.6719    1.3146   14.9032 H   0  0  0  0  0  0  0  0  0  0  0  0
    4.5552    1.6900   10.7477 N   0  0  0  0  0  0  0  0  0  0  0  0
    3.9699    1.6915    9.4770 C   0  0  0  0  0  0  0  0  0  0  0  0
    4.7417    1.9787    8.3488 C   0  0  0  0  0  0  0  0  0  0  0  0
    5.7778    2.2666    8.4565 H   0  0  0  0  0  0  0  0  0  0  0  0
    4.1580    1.9538    7.0983 C   0  0  0  0  0  0  0  0  0  0  0  0
    4.7548    2.1878    6.2302 H   0  0  0  0  0  0  0  0  0  0  0  0
    2.8165    1.6321    6.9573 C   0  0  0  0  0  0  0  0  0  0  0  0
    2.3713    1.5981    5.9748 H   0  0  0  0  0  0  0  0  0  0  0  0
    2.0469    1.3566    8.0773 C   0  0  0  0  0  0  0  0  0  0  0  0
    1.0030    1.1044    7.9695 H   0  0  0  0  0  0  0  0  0  0  0  0
    2.6116    1.3976    9.3356 C   0  0  0  0  0  0  0  0  0  0  0  0
    2.0322    1.1649   10.2166 H   0  0  0  0  0  0  0  0  0  0  0  0
    2.5100    3.1934   14.1689 C   0  0  0  0  0  0  0  0  0  0  0  0
    2.5656    3.9741   14.9321 H   0  0  0  0  0  0  0  0  0  0  0  0
    2.2537    3.6443   13.2073 H   0  0  0  0  0  0  0  0  0  0  0  0
    1.4729    2.1413   14.5526 C   0  0  0  0  0  0  0  0  0  0  0  0
    0.4940    2.6047   14.6323 H   0  0  0  0  0  0  0  0  0  0  0  0
    1.7228    1.6853   15.5083 H   0  0  0  0  0  0  0  0  0  0  0  0
    1.4290    1.3599   13.7972 H   0  0  0  0  0  0  0  0  0  0  0  0
    7.7840   -0.1033   12.0448 C   0  0  0  0  0  2  0  0  0  0  0  0
    6.6993    0.0955    9.5802 C   0  0  0  0  0  2  0  0  0  0  0  0
  1  3  1  0  0  0  0
  1 33  1  0  0  0  0
  1  6  1  0  0  0  0
  2  1  1  0  0  0  0
  5 34  1  0  0  0  0
  6 12  1  0  0  0  0
  7  6  1  0  0  0  0
  7  8  1  0  0  0  0
  8 26  1  0  0  0  0
  8  9  1  0  0  0  0
  9 10  1  0  0  0  0
 11  7  2  0  0  0  0
 12 13  1  0  0  0  0
 12  9  2  0  0  0  0
 14  1  1  0  0  0  0
 14 11  1  0  0  0  0
 15 14  1  0  0  0  0
 16 17  1  0  0  0  0
 16 15  2  0  0  0  0
 18 16  1  0  0  0  0
 19 18  1  0  0  0  0
 20 18  2  0  0  0  0
 20 22  1  0  0  0  0
 21 20  1  0  0  0  0
 22 24  2  0  0  0  0
 23 22  1  0  0  0  0
 24 15  1  0  0  0  0
 24 25  1  0  0  0  0
 26 29  1  0  0  0  0
 26 27  1  0  0  0  0
 28 26  1  0  0  0  0
 29 30  1  0  0  0  0
 29 31  1  0  0  0  0
 32 29  1  0  0  0  0
 33  4  1  0  0  0  0
 34  1  1  0  0  0  0
M  END
$$$$
