CSD_code = NEKWEF | q = 0 | S = 0 | Stoichiometry = C18H18Cl2N4SZn | MND = 4
 OpenBabel04212202073D

 44 48  0  0  1  0  0  0  0  0999 V2000
    1.0977    1.2828    3.9326 Cl  0  0  0  0  0  0  0  0  0  0  0  0
    2.2178    4.1399    1.4358 Cl  0  0  0  0  0  0  0  0  0  0  0  0
    2.5612    2.6402    3.0590 Zn  0  0  0  0  0  0  0  0  0  0  0  0
    3.3163    3.9738    4.4828 N   0  0  0  0  0  0  0  0  0  0  0  0
    2.5161    5.0255    4.8646 C   0  0  0  0  0  0  0  0  0  0  0  0
    1.1403    5.1895    4.7874 C   0  0  0  0  0  0  0  0  0  0  0  0
    0.5223    4.4064    4.3756 H   0  0  0  0  0  0  0  0  0  0  0  0
    0.5936    6.3728    5.2447 C   0  0  0  0  0  0  0  0  0  0  0  0
   -0.8877    6.5769    5.1667 C   0  0  0  0  0  0  0  0  0  0  0  0
   -1.1237    7.4478    4.5566 H   0  0  0  0  0  0  0  0  0  0  0  0
   -1.3077    6.7411    6.1584 H   0  0  0  0  0  0  0  0  0  0  0  0
   -1.3670    5.7073    4.7268 H   0  0  0  0  0  0  0  0  0  0  0  0
    0.7950    8.6638    6.2690 C   0  0  0  0  0  0  0  0  0  0  0  0
    0.0702    8.4618    7.0564 H   0  0  0  0  0  0  0  0  0  0  0  0
    0.2694    9.1659    5.4581 H   0  0  0  0  0  0  0  0  0  0  0  0
    1.5526    9.3377    6.6599 H   0  0  0  0  0  0  0  0  0  0  0  0
    1.4147    7.3901    5.7832 C   0  0  0  0  0  0  0  0  0  0  0  0
    2.7862    7.2261    5.8685 C   0  0  0  0  0  0  0  0  0  0  0  0
    3.4137    8.0021    6.2801 H   0  0  0  0  0  0  0  0  0  0  0  0
    3.3274    6.0386    5.4062 C   0  0  0  0  0  0  0  0  0  0  0  0
    4.6114    5.5492    5.3399 N   0  0  0  0  0  0  0  0  0  0  0  0
    5.4531    6.0279    5.6162 H   0  0  0  0  0  0  0  0  0  0  0  0
    4.5472    4.3153    4.7812 C   0  0  2  0  0  3  0  0  0  0  0  0
    5.7349    3.4749    4.5391 C   0  0  0  0  0  0  0  0  0  0  0  0
    5.4383    2.4397    4.3780 H   0  0  0  0  0  0  0  0  0  0  0  0
    6.4468    3.5399    5.3616 H   0  0  0  0  0  0  0  0  0  0  0  0
    6.6792    4.0434    3.0705 S   0  0  0  0  0  0  0  0  0  0  0  0
    5.4964    3.6729    1.7194 C   0  0  0  0  0  0  0  0  0  0  0  0
    4.5724    4.2329    1.8743 H   0  0  0  0  0  0  0  0  0  0  0  0
    5.9935    4.0215    0.8153 H   0  0  0  0  0  0  0  0  0  0  0  0
    5.2251    2.2264    1.6669 C   0  0  1  0  0  3  0  0  0  0  0  0
    6.0176    1.3440    1.0108 N   0  0  0  0  0  0  0  0  0  0  0  0
    6.8266    1.5780    0.4586 H   0  0  0  0  0  0  0  0  0  0  0  0
    5.5038    0.0859    1.2202 C   0  0  0  0  0  0  0  0  0  0  0  0
    5.8919   -1.1743    0.7937 C   0  0  0  0  0  0  0  0  0  0  0  0
    6.7565   -1.3153    0.1637 H   0  0  0  0  0  0  0  0  0  0  0  0
    5.1168   -2.2367    1.2135 C   0  0  0  0  0  0  0  0  0  0  0  0
    5.3815   -3.2363    0.9039 H   0  0  0  0  0  0  0  0  0  0  0  0
    3.9960   -2.0526    2.0278 C   0  0  0  0  0  0  0  0  0  0  0  0
    3.4219   -2.9165    2.3253 H   0  0  0  0  0  0  0  0  0  0  0  0
    3.6037   -0.8024    2.4575 C   0  0  0  0  0  0  0  0  0  0  0  0
    2.7364   -0.6511    3.0801 H   0  0  0  0  0  0  0  0  0  0  0  0
    4.3738    0.2777    2.0417 C   0  0  0  0  0  0  0  0  0  0  0  0
    4.2452    1.6238    2.3016 N   0  0  0  0  0  0  0  0  0  0  0  0
  2  3  1  0  0  0  0
  3  1  1  0  0  0  0
  3  4  1  0  0  0  0
  4  5  1  0  0  0  0
  5 20  1  0  0  0  0
  6  5  2  0  0  0  0
  6  8  1  0  0  0  0
  7  6  1  0  0  0  0
  8 17  2  0  0  0  0
  9  8  1  0  0  0  0
  9 11  1  0  0  0  0
 10  9  1  0  0  0  0
 12  9  1  0  0  0  0
 13 16  1  0  0  0  0
 13 14  1  0  0  0  0
 15 13  1  0  0  0  0
 17 18  1  0  0  0  0
 17 13  1  0  0  0  0
 18 19  1  0  0  0  0
 20 18  2  0  0  0  0
 21 20  1  0  0  0  0
 21 22  1  0  0  0  0
 23  4  1  6  0  0  0
 23 21  1  0  0  0  0
 24 23  1  0  0  0  0
 24 26  1  0  0  0  0
 25 24  1  0  0  0  0
 27 24  1  0  0  0  0
 28 29  1  0  0  0  0
 28 27  1  0  0  0  0
 30 28  1  0  0  0  0
 31 32  1  1  0  0  0
 31 28  1  0  0  0  0
 31 44  1  0  0  0  0
 32 34  1  0  0  0  0
 33 32  1  0  0  0  0
 34 43  1  0  0  0  0
 35 37  1  0  0  0  0
 35 34  2  0  0  0  0
 36 35  1  0  0  0  0
 37 39  2  0  0  0  0
 38 37  1  0  0  0  0
 39 40  1  0  0  0  0
 39 41  1  0  0  0  0
 41 42  1  0  0  0  0
 43 44  1  0  0  0  0
 43 41  2  0  0  0  0
 44  3  1  0  0  0  0
M  END
$$$$
