CSD_code = NEKYEH | q = 0 | S = 0 | Stoichiometry = C12H12Cl2N2O2Pt | MND = 4
 OpenBabel04212202073D

 31 33  0  0  0  0  0  0  0  0999 V2000
    1.8204    3.6765   -9.4563 Pt  0  0  0  0  0  0  0  0  0  0  0  0
    1.3815    2.4416  -11.2676 Cl  0  0  0  0  0  0  0  0  0  0  0  0
    2.5443    5.3026  -10.8033 Cl  0  0  0  0  0  0  0  0  0  0  0  0
    1.3790    2.2291   -8.1300 N   0  0  0  0  0  0  0  0  0  0  0  0
    2.0226    4.7341   -7.7543 N   0  0  0  0  0  0  0  0  0  0  0  0
    1.2229    0.9445   -8.4395 C   0  0  0  0  0  0  0  0  0  0  0  0
    0.9927    0.7364   -9.4767 H   0  0  0  0  0  0  0  0  0  0  0  0
    1.3711   -0.0590   -7.5007 C   0  0  0  0  0  0  0  0  0  0  0  0
    1.2090   -1.0881   -7.7753 H   0  0  0  0  0  0  0  0  0  0  0  0
    1.8051    0.2853   -6.2312 C   0  0  0  0  0  0  0  0  0  0  0  0
    2.0548   -0.4681   -5.4997 H   0  0  0  0  0  0  0  0  0  0  0  0
    1.9617    1.6262   -5.8917 C   0  0  0  0  0  0  0  0  0  0  0  0
    1.6362    2.5929   -6.8501 C   0  0  0  0  0  0  0  0  0  0  0  0
    2.6350    1.9395   -4.5740 C   0  0  0  0  0  0  0  0  0  0  0  0
    2.9848    2.9802   -4.5674 H   0  0  0  0  0  0  0  0  0  0  0  0
    1.9439    1.7926   -3.7394 H   0  0  0  0  0  0  0  0  0  0  0  0
    2.1610    6.0559   -7.7038 C   0  0  0  0  0  0  0  0  0  0  0  0
    2.4915    6.5284   -8.6203 H   0  0  0  0  0  0  0  0  0  0  0  0
    1.8827    6.7771   -6.5584 C   0  0  0  0  0  0  0  0  0  0  0  0
    2.0283    7.8445   -6.5410 H   0  0  0  0  0  0  0  0  0  0  0  0
    1.3475    6.1091   -5.4696 C   0  0  0  0  0  0  0  0  0  0  0  0
    1.0050    6.6453   -4.5993 H   0  0  0  0  0  0  0  0  0  0  0  0
    1.2009    4.7261   -5.5086 C   0  0  0  0  0  0  0  0  0  0  0  0
    1.6405    4.0475   -6.6512 C   0  0  0  0  0  0  0  0  0  0  0  0
    0.4356    4.0724   -4.3860 C   0  0  0  0  0  0  0  0  0  0  0  0
    0.1082    3.0693   -4.6880 H   0  0  0  0  0  0  0  0  0  0  0  0
    1.0729    3.9835   -3.4930 H   0  0  0  0  0  0  0  0  0  0  0  0
    3.6944    1.0534   -4.3143 O   0  0  0  0  0  0  0  0  0  0  0  0
    4.3613    1.1355   -5.0057 H   0  0  0  0  0  0  0  0  0  0  0  0
   -0.6743    4.8958   -4.1030 O   0  0  0  0  0  0  0  0  0  0  0  0
   -1.1998    4.4932   -3.4048 H   0  0  0  0  0  0  0  0  0  0  0  0
  1  4  1  0  0  0  0
  1  5  1  0  0  0  0
  2  1  1  0  0  0  0
  3  1  1  0  0  0  0
  4 13  1  0  0  0  0
  5 17  1  0  0  0  0
  5 24  1  0  0  0  0
  6  4  1  0  0  0  0
  6  8  2  0  0  0  0
  7  6  1  0  0  0  0
  8 10  1  0  0  0  0
  9  8  1  0  0  0  0
 10 12  2  0  0  0  0
 10 11  1  0  0  0  0
 12 14  1  0  0  0  0
 13 24  2  0  0  0  0
 13 12  1  0  0  0  0
 14 15  1  0  0  0  0
 14 28  1  0  0  0  0
 14 16  1  0  0  0  0
 17 19  2  0  0  0  0
 18 17  1  0  0  0  0
 19 20  1  0  0  0  0
 19 21  1  0  0  0  0
 21 22  1  0  0  0  0
 23 21  2  0  0  0  0
 23 25  1  0  0  0  0
 24 23  1  0  0  0  0
 25 30  1  0  0  0  0
 25 27  1  0  0  0  0
 26 25  1  0  0  0  0
 29 28  1  0  0  0  0
 30 31  1  0  0  0  0
M  END
$$$$
