CSD_code = NEKYOT | q = 0 | S = 0 | Stoichiometry = C14H16Cl2N4Ni | MND = 6
 OpenBabel04212202073D

 37 40  0  0  0  0  0  0  0  0999 V2000
    2.4152   13.8806    6.1433 Ni  0  0  0  0  0  0  0  0  0  0  0  0
    2.5996   13.2538    8.3522 N   0  0  0  0  0  0  0  0  0  0  0  0
    3.7450   12.4316    6.0576 N   0  0  0  0  0  0  0  0  0  0  0  0
    0.9425   15.3509    6.4902 Cl  0  0  0  0  0  0  0  0  0  0  0  0
    3.2085   12.0594    8.3333 C   0  0  0  0  0  0  0  0  0  0  0  0
    3.1034   11.1506    9.3841 C   0  0  0  0  0  0  0  0  0  0  0  0
    3.6112   10.1994    9.3328 H   0  0  0  0  0  0  0  0  0  0  0  0
    2.3163   11.4851   10.4726 C   0  0  0  0  0  0  0  0  0  0  0  0
    2.2069   10.8000   11.3004 H   0  0  0  0  0  0  0  0  0  0  0  0
    1.6648   12.7088   10.4735 C   0  0  0  0  0  0  0  0  0  0  0  0
    1.0335   13.0013   11.2976 H   0  0  0  0  0  0  0  0  0  0  0  0
    1.8447   13.5614    9.3921 C   0  0  0  0  0  0  0  0  0  0  0  0
    1.3571   14.5268    9.3501 H   0  0  0  0  0  0  0  0  0  0  0  0
    3.9232   11.7394    7.1090 C   0  0  0  0  0  0  0  0  0  0  0  0
    4.5600   10.8502    7.1093 H   0  0  0  0  0  0  0  0  0  0  0  0
    4.3851   12.0474    4.8384 C   0  0  0  0  0  0  0  0  0  0  0  0
    5.0522   11.1869    4.9732 H   0  0  0  0  0  0  0  0  0  0  0  0
    4.9491   12.8938    4.4429 H   0  0  0  0  0  0  0  0  0  0  0  0
    3.6109   11.7985    4.1106 H   0  0  0  0  0  0  0  0  0  0  0  0
    2.5983   14.5078    3.9344 N   0  0  0  0  0  0  0  0  0  0  0  0
    3.7445   15.3296    6.2290 N   0  0  0  0  0  0  0  0  0  0  0  0
    0.9435   12.4093    5.7970 Cl  0  0  0  0  0  0  0  0  0  0  0  0
    3.2081   15.7018    3.9532 C   0  0  0  0  0  0  0  0  0  0  0  0
    3.1040   16.6102    2.9020 C   0  0  0  0  0  0  0  0  0  0  0  0
    3.6128   17.5610    2.9531 H   0  0  0  0  0  0  0  0  0  0  0  0
    2.3170   16.2760    1.8135 C   0  0  0  0  0  0  0  0  0  0  0  0
    2.2084   16.9609    0.9853 H   0  0  0  0  0  0  0  0  0  0  0  0
    1.6643   15.0530    1.8128 C   0  0  0  0  0  0  0  0  0  0  0  0
    1.0328   14.7609    0.9888 H   0  0  0  0  0  0  0  0  0  0  0  0
    1.8433   14.2005    2.8945 C   0  0  0  0  0  0  0  0  0  0  0  0
    1.3548   13.2356    2.9368 H   0  0  0  0  0  0  0  0  0  0  0  0
    3.9227   16.0217    5.1775 C   0  0  0  0  0  0  0  0  0  0  0  0
    4.5593   16.9111    5.1773 H   0  0  0  0  0  0  0  0  0  0  0  0
    4.3841   15.7143    7.4483 C   0  0  0  0  0  0  0  0  0  0  0  0
    5.0511   16.5747    7.3135 H   0  0  0  0  0  0  0  0  0  0  0  0
    4.9479   14.8680    7.8444 H   0  0  0  0  0  0  0  0  0  0  0  0
    3.6095   15.9634    8.1757 H   0  0  0  0  0  0  0  0  0  0  0  0
  1 21  1  0  0  0  0
  1  4  1  0  0  0  0
  1  2  1  0  0  0  0
  2 12  1  0  0  0  0
  3  1  1  0  0  0  0
  3 14  1  0  0  0  0
  5  2  1  0  0  0  0
  5  6  1  0  0  0  0
  6  8  2  0  0  0  0
  7  6  1  0  0  0  0
  8 10  1  0  0  0  0
  8  9  1  0  0  0  0
 10 11  1  0  0  0  0
 12 10  2  0  0  0  0
 13 12  1  0  0  0  0
 14 15  1  0  0  0  0
 14  5  2  0  0  0  0
 16 17  1  0  0  0  0
 16  3  1  0  0  0  0
 18 16  1  0  0  0  0
 19 16  1  0  0  0  0
 20 23  1  0  0  0  0
 20  1  1  0  0  0  0
 21 34  1  0  0  0  0
 22  1  1  0  0  0  0
 23 32  2  0  0  0  0
 24 25  1  0  0  0  0
 24 23  1  0  0  0  0
 26 24  2  0  0  0  0
 27 26  1  0  0  0  0
 28 26  1  0  0  0  0
 28 30  2  0  0  0  0
 29 28  1  0  0  0  0
 30 31  1  0  0  0  0
 30 20  1  0  0  0  0
 32 21  1  0  0  0  0
 33 32  1  0  0  0  0
 34 36  1  0  0  0  0
 34 37  1  0  0  0  0
 35 34  1  0  0  0  0
M  END
$$$$
