CSD_code = NEKZIO | q = 0 | S = 0 | Stoichiometry = C8H10Cl2N2Pt | MND = 4
 OpenBabel04212202073D

 23 24  0  0  0  0  0  0  0  0999 V2000
    2.7735    6.4531    0.1606 C   0  0  0  0  0  0  0  0  0  0  0  0
    3.6525    7.1368   -0.6831 C   0  0  0  0  0  0  0  0  0  0  0  0
    4.0561    8.0871   -0.3709 H   0  0  0  0  0  0  0  0  0  0  0  0
    3.9830    6.5802   -1.9016 C   0  0  0  0  0  0  0  0  0  0  0  0
    4.6574    7.0885   -2.5730 H   0  0  0  0  0  0  0  0  0  0  0  0
    3.4292    5.3507   -2.2492 C   0  0  0  0  0  0  0  0  0  0  0  0
    3.6637    4.8849   -3.1922 H   0  0  0  0  0  0  0  0  0  0  0  0
    2.5657    4.7251   -1.3696 C   0  0  0  0  0  0  0  0  0  0  0  0
    2.1085    3.7708   -1.5975 H   0  0  0  0  0  0  0  0  0  0  0  0
    2.3717    6.9104    1.4585 C   0  0  0  0  0  0  0  0  0  0  0  0
    2.7769    7.8332    1.8651 H   0  0  0  0  0  0  0  0  0  0  0  0
    1.2045    6.5342    3.4791 C   0  0  0  0  0  0  0  0  0  0  0  0
    0.1363    6.3519    3.6201 H   0  0  0  0  0  0  0  0  0  0  0  0
    1.4349    7.5907    3.6643 H   0  0  0  0  0  0  0  0  0  0  0  0
    1.9809    5.6439    4.4508 C   0  0  0  0  0  0  0  0  0  0  0  0
    1.7382    4.6011    4.2566 H   0  0  0  0  0  0  0  0  0  0  0  0
    1.6989    5.8851    5.4712 H   0  0  0  0  0  0  0  0  0  0  0  0
    3.0527    5.7904    4.3325 H   0  0  0  0  0  0  0  0  0  0  0  0
    0.3664    2.7715   -0.0239 Cl  0  0  0  0  0  0  0  0  0  0  0  0
   -0.5693    3.9552    2.7075 Cl  0  0  0  0  0  0  0  0  0  0  0  0
    2.2408    5.2576   -0.1948 N   0  0  0  0  0  0  0  0  0  0  0  0
    1.5434    6.1764    2.1276 N   0  0  0  0  0  0  0  0  0  0  0  0
    0.9385    4.5636    1.1707 Pt  0  0  0  0  0  0  0  0  0  0  0  0
  1 10  2  0  0  0  0
  2  3  1  0  0  0  0
  2  1  1  0  0  0  0
  4  2  2  0  0  0  0
  5  4  1  0  0  0  0
  6  4  1  0  0  0  0
  6  8  2  0  0  0  0
  7  6  1  0  0  0  0
  8 21  1  0  0  0  0
  9  8  1  0  0  0  0
 10 11  1  0  0  0  0
 10 22  1  0  0  0  0
 12 13  1  0  0  0  0
 12 14  1  0  0  0  0
 12 15  1  0  0  0  0
 15 17  1  0  0  0  0
 16 15  1  0  0  0  0
 18 15  1  0  0  0  0
 19 23  1  0  0  0  0
 21  1  1  0  0  0  0
 21 23  1  0  0  0  0
 22 12  1  0  0  0  0
 23 22  1  0  0  0  0
 23 20  1  0  0  0  0
M  END
$$$$
