CSD_code = NEKZEK | q = 0 | S = 0 | Stoichiometry = C8H10Cl2N2Pd | MND = 4
 OpenBabel04212202073D

 23 24  0  0  0  0  0  0  0  0999 V2000
   -0.0258    6.0354    3.6904 Pd  0  0  0  0  0  0  0  0  0  0  0  0
    1.4377    5.0550    2.6831 N   0  0  0  0  0  0  0  0  0  0  0  0
    0.2932    4.5694    4.9742 N   0  0  0  0  0  0  0  0  0  0  0  0
   -0.2151    7.6385    2.1829 Cl  0  0  0  0  0  0  0  0  0  0  0  0
   -1.7698    6.8855    4.7631 Cl  0  0  0  0  0  0  0  0  0  0  0  0
    1.7678    3.8892    3.2904 C   0  0  0  0  0  0  0  0  0  0  0  0
    2.6741    2.9972    2.7102 C   0  0  0  0  0  0  0  0  0  0  0  0
    2.9133    2.0764    3.2189 H   0  0  0  0  0  0  0  0  0  0  0  0
    3.2410    3.3139    1.4925 C   0  0  0  0  0  0  0  0  0  0  0  0
    3.9418    2.6416    1.0219 H   0  0  0  0  0  0  0  0  0  0  0  0
    2.8917    4.5153    0.8820 C   0  0  0  0  0  0  0  0  0  0  0  0
    3.3141    4.7964   -0.0688 H   0  0  0  0  0  0  0  0  0  0  0  0
    1.9884    5.3548    1.5101 C   0  0  0  0  0  0  0  0  0  0  0  0
    1.6848    6.2997    1.0727 H   0  0  0  0  0  0  0  0  0  0  0  0
    1.1429    3.6883    4.5690 C   0  0  0  0  0  0  0  0  0  0  0  0
    1.4229    2.8333    5.1832 H   0  0  0  0  0  0  0  0  0  0  0  0
   -0.2272    4.5203    6.3125 C   0  0  0  0  0  0  0  0  0  0  0  0
   -0.0415    3.5397    6.7709 H   0  0  0  0  0  0  0  0  0  0  0  0
   -1.3023    4.7226    6.2658 H   0  0  0  0  0  0  0  0  0  0  0  0
    0.4419    5.6319    7.1269 C   0  0  0  0  0  0  0  0  0  0  0  0
    1.5073    5.4367    7.2379 H   0  0  0  0  0  0  0  0  0  0  0  0
   -0.0135    5.6958    8.1104 H   0  0  0  0  0  0  0  0  0  0  0  0
    0.3020    6.5862    6.6104 H   0  0  0  0  0  0  0  0  0  0  0  0
  1  5  1  0  0  0  0
  1  3  1  0  0  0  0
  2  6  1  0  0  0  0
  2  1  1  0  0  0  0
  3 17  1  0  0  0  0
  4  1  1  0  0  0  0
  6 15  2  0  0  0  0
  7  8  1  0  0  0  0
  7  6  1  0  0  0  0
  9  7  2  0  0  0  0
 10  9  1  0  0  0  0
 11  9  1  0  0  0  0
 11 13  2  0  0  0  0
 12 11  1  0  0  0  0
 13  2  1  0  0  0  0
 14 13  1  0  0  0  0
 15  3  1  0  0  0  0
 15 16  1  0  0  0  0
 17 18  1  0  0  0  0
 17 20  1  0  0  0  0
 19 17  1  0  0  0  0
 20 21  1  0  0  0  0
 20 22  1  0  0  0  0
 23 20  1  0  0  0  0
M  END
$$$$
