CSD_code = NEKZOU | q = 0 | S = 0 | Stoichiometry = C12H9BrCl2N2Pd | MND = 4
 OpenBabel04212202073D

 27 29  0  0  0  0  0  0  0  0999 V2000
    4.1623    1.3867    7.4808 Pd  0  0  0  0  0  0  0  0  0  0  0  0
    5.4694    1.3424    5.6961 Cl  0  0  0  0  0  0  0  0  0  0  0  0
    3.4270    3.4217    6.8879 Cl  0  0  0  0  0  0  0  0  0  0  0  0
    5.0161   -0.2459    8.3442 N   0  0  0  0  0  0  0  0  0  0  0  0
    3.0486    1.2550    9.0786 N   0  0  0  0  0  0  0  0  0  0  0  0
    4.5878   -0.4007    9.6238 C   0  0  0  0  0  0  0  0  0  0  0  0
    5.1683   -1.3497   10.4731 C   0  0  0  0  0  0  0  0  0  0  0  0
    4.8082   -1.4463   11.4854 H   0  0  0  0  0  0  0  0  0  0  0  0
    6.1942   -2.1379    9.9954 C   0  0  0  0  0  0  0  0  0  0  0  0
    6.6601   -2.8754   10.6306 H   0  0  0  0  0  0  0  0  0  0  0  0
    6.6192   -1.9662    8.6804 C   0  0  0  0  0  0  0  0  0  0  0  0
    7.4173   -2.5653    8.2735 H   0  0  0  0  0  0  0  0  0  0  0  0
    6.0038   -1.0101    7.8914 C   0  0  0  0  0  0  0  0  0  0  0  0
    6.3015   -0.8359    6.8635 H   0  0  0  0  0  0  0  0  0  0  0  0
    3.4650    0.4160    9.9764 C   0  0  0  0  0  0  0  0  0  0  0  0
    2.9264    0.2560   10.9075 H   0  0  0  0  0  0  0  0  0  0  0  0
    1.8548    1.9581    9.1739 C   0  0  0  0  0  0  0  0  0  0  0  0
    0.9455    1.8785    8.1129 C   0  0  0  0  0  0  0  0  0  0  0  0
   -0.2303    2.6002    8.1250 C   0  0  0  0  0  0  0  0  0  0  0  0
   -0.9130    2.5187    7.2948 H   0  0  0  0  0  0  0  0  0  0  0  0
   -0.5057    3.4317    9.1989 C   0  0  0  0  0  0  0  0  0  0  0  0
   -1.4123    4.0156    9.2002 H   0  0  0  0  0  0  0  0  0  0  0  0
    0.3777    3.5147   10.2626 C   0  0  0  0  0  0  0  0  0  0  0  0
    0.1604    4.1608   11.0988 H   0  0  0  0  0  0  0  0  0  0  0  0
    1.5465    2.7766   10.2584 C   0  0  0  0  0  0  0  0  0  0  0  0
    2.2554    2.8564   11.0695 H   0  0  0  0  0  0  0  0  0  0  0  0
    1.3298    0.6780    6.6743 Br  0  0  0  0  0  0  0  0  0  0  0  0
  1  4  1  0  0  0  0
  1  5  1  0  0  0  0
  2  1  1  0  0  0  0
  3  1  1  0  0  0  0
  4  6  1  0  0  0  0
  5 17  1  0  0  0  0
  5 15  1  0  0  0  0
  6 15  2  0  0  0  0
  6  7  1  0  0  0  0
  7  8  1  0  0  0  0
  9  7  2  0  0  0  0
  9 10  1  0  0  0  0
 11  9  1  0  0  0  0
 12 11  1  0  0  0  0
 13  4  1  0  0  0  0
 13 11  2  0  0  0  0
 14 13  1  0  0  0  0
 15 16  1  0  0  0  0
 17 25  1  0  0  0  0
 18 19  1  0  0  0  0
 18 17  2  0  0  0  0
 19 21  2  0  0  0  0
 20 19  1  0  0  0  0
 21 22  1  0  0  0  0
 21 23  1  0  0  0  0
 23 24  1  0  0  0  0
 25 23  2  0  0  0  0
 25 26  1  0  0  0  0
 27 18  1  0  0  0  0
M  END
$$$$
