CSD_code = NELDIU | q = 0 | S = 0 | Stoichiometry = C22H32Cl3N3NiO2 | MND = 4
 OpenBabel04212202073D

 63 67  0  0  1  0  0  0  0  0999 V2000
    0.5309    9.6491    0.6831 Ni  0  0  2  0  0  0  0  0  0  0  0  0
    0.2666   11.6780    0.4188 Cl  0  0  0  0  0  0  0  0  0  0  0  0
    2.7220    4.6009    2.0298 Cl  0  0  0  0  0  0  0  0  0  0  0  0
   -0.2463    4.0369    0.6875 Cl  0  0  0  0  0  0  0  0  0  0  0  0
    0.7732    7.7985    0.9244 N   0  0  0  0  0  0  0  0  0  0  0  0
   -0.2939    9.2563   -0.9728 N   0  0  1  0  0  0  0  0  0  0  0  0
    1.3720    9.9069    2.3569 N   0  0  1  0  0  0  0  0  0  0  0  0
    2.8260    9.4705    3.9660 O   0  0  0  0  0  0  0  0  0  0  0  0
   -1.5456    8.0807   -2.3677 O   0  0  0  0  0  0  0  0  0  0  0  0
    1.8671    7.2190    1.4796 C   0  0  0  0  0  0  0  0  0  0  0  0
    1.6798    5.8500    1.4765 C   0  0  0  0  0  0  0  0  0  0  0  0
   -0.1215    9.9499   -2.2444 C   0  0  2  0  0  0  0  0  0  0  0  0
   -0.4687   10.9826   -2.1281 H   0  0  0  0  0  0  0  0  0  0  0  0
    0.4189    5.6083    0.8896 C   0  0  0  0  0  0  0  0  0  0  0  0
   -1.0409    9.1420   -3.1824 C   0  0  0  0  0  0  0  0  0  0  0  0
   -1.8891    9.7254   -3.5490 H   0  0  0  0  0  0  0  0  0  0  0  0
   -0.5161    8.7000   -4.0312 H   0  0  0  0  0  0  0  0  0  0  0  0
   -0.1156    6.8397    0.5621 C   0  0  0  0  0  0  0  0  0  0  0  0
    0.9843   10.8291    3.4185 C   0  0  2  0  0  0  0  0  0  0  0  0
    1.0673   11.8532    3.0378 H   0  0  0  0  0  0  0  0  0  0  0  0
    1.9720    8.5971   -2.7835 C   0  0  0  0  0  0  0  0  0  0  0  0
    1.7871    7.9984   -1.8929 H   0  0  0  0  0  0  0  0  0  0  0  0
    3.0473    8.6768   -2.9224 H   0  0  0  0  0  0  0  0  0  0  0  0
    1.5620    8.0747   -3.6453 H   0  0  0  0  0  0  0  0  0  0  0  0
    2.3623    9.1988    2.7543 C   0  0  1  0  0  3  0  0  0  0  0  0
    3.0013    8.1060    1.9408 C   0  0  0  0  0  0  0  0  0  0  0  0
    2.0402   10.5373    4.5038 C   0  0  0  0  0  0  0  0  0  0  0  0
    2.7001   11.3878    4.6915 H   0  0  0  0  0  0  0  0  0  0  0  0
    1.6106   10.2012    5.4493 H   0  0  0  0  0  0  0  0  0  0  0  0
   -2.2348    6.1094   -0.6378 C   0  0  0  0  0  0  0  0  0  0  0  0
   -1.6466    5.5491   -1.3588 H   0  0  0  0  0  0  0  0  0  0  0  0
   -3.1222    6.4916   -1.1370 H   0  0  0  0  0  0  0  0  0  0  0  0
   -2.5398    5.4398    0.1602 H   0  0  0  0  0  0  0  0  0  0  0  0
   -1.4249    7.2657   -0.0625 C   0  0  0  0  0  0  0  0  0  0  0  0
   -0.9315   11.6417    4.8353 C   0  0  0  0  0  0  0  0  0  0  0  0
   -0.3586   11.5668    5.7572 H   0  0  0  0  0  0  0  0  0  0  0  0
   -1.9824   11.5006    5.0744 H   0  0  0  0  0  0  0  0  0  0  0  0
   -0.8038   12.6417    4.4289 H   0  0  0  0  0  0  0  0  0  0  0  0
    1.3680    9.9920   -2.6338 C   0  0  0  0  0  0  0  0  0  0  0  0
    1.8729   10.5001   -1.8006 H   0  0  0  0  0  0  0  0  0  0  0  0
    4.0558    7.3745    2.7635 C   0  0  0  0  0  0  0  0  0  0  0  0
    3.6017    6.8776    3.6159 H   0  0  0  0  0  0  0  0  0  0  0  0
    4.7965    8.0819    3.1291 H   0  0  0  0  0  0  0  0  0  0  0  0
    4.5523    6.6302    2.1489 H   0  0  0  0  0  0  0  0  0  0  0  0
    3.6466    8.7694    0.7079 C   0  0  0  0  0  0  0  0  0  0  0  0
    4.0378    8.0024    0.0449 H   0  0  0  0  0  0  0  0  0  0  0  0
    4.4565    9.4304    1.0092 H   0  0  0  0  0  0  0  0  0  0  0  0
    2.8911    9.3561    0.1679 H   0  0  0  0  0  0  0  0  0  0  0  0
   -0.4824   10.5922    3.8242 C   0  0  0  0  0  0  0  0  0  0  0  0
   -1.0647   10.7270    2.9021 H   0  0  0  0  0  0  0  0  0  0  0  0
    1.5646   10.8242   -3.8964 C   0  0  0  0  0  0  0  0  0  0  0  0
    1.0561   10.3726   -4.7457 H   0  0  0  0  0  0  0  0  0  0  0  0
    2.6231   10.8965   -4.1321 H   0  0  0  0  0  0  0  0  0  0  0  0
    1.1754   11.8293   -3.7550 H   0  0  0  0  0  0  0  0  0  0  0  0
   -0.7241    9.1762    4.3432 C   0  0  0  0  0  0  0  0  0  0  0  0
   -0.3528    8.4367    3.6354 H   0  0  0  0  0  0  0  0  0  0  0  0
   -1.7903    9.0126    4.4780 H   0  0  0  0  0  0  0  0  0  0  0  0
   -0.2378    9.0144    5.3030 H   0  0  0  0  0  0  0  0  0  0  0  0
   -1.0618    8.2458   -1.1448 C   0  0  1  0  0  3  0  0  0  0  0  0
   -2.2529    8.0296    0.9898 C   0  0  0  0  0  0  0  0  0  0  0  0
   -2.4538    7.3794    1.8370 H   0  0  0  0  0  0  0  0  0  0  0  0
   -3.1958    8.3660    0.5639 H   0  0  0  0  0  0  0  0  0  0  0  0
   -1.6880    8.9049    1.3382 H   0  0  0  0  0  0  0  0  0  0  0  0
  1  5  1  0  0  0  0
  1  7  1  0  0  0  0
  2  1  1  0  0  0  0
  4 14  1  0  0  0  0
  5 10  1  0  0  0  0
  6  1  1  0  0  0  0
  7 25  1  0  0  0  0
  7 19  1  0  0  0  0
  8 27  1  0  0  0  0
  9 59  1  0  0  0  0
 10 26  1  0  0  0  0
 11 10  2  0  0  0  0
 11  3  1  0  0  0  0
 12 13  1  0  0  0  0
 12  6  1  0  0  0  0
 14 11  1  0  0  0  0
 15  9  1  0  0  0  0
 15 12  1  0  0  0  0
 16 15  1  0  0  0  0
 17 15  1  0  0  0  0
 18 14  2  0  0  0  0
 18  5  1  0  0  0  0
 19 49  1  0  0  0  0
 19 27  1  0  0  0  0
 20 19  1  0  0  0  0
 21 39  1  0  0  0  0
 21 22  1  0  0  0  0
 23 21  1  0  0  0  0
 24 21  1  0  0  0  0
 25  8  1  0  0  0  0
 26 25  1  0  0  0  0
 26 41  1  0  0  0  0
 27 28  1  0  0  0  0
 27 29  1  0  0  0  0
 30 34  1  0  0  0  0
 30 33  1  0  0  0  0
 31 30  1  0  0  0  0
 32 30  1  0  0  0  0
 34 18  1  0  0  0  0
 34 60  1  0  0  0  0
 35 37  1  0  0  0  0
 35 36  1  0  0  0  0
 38 35  1  0  0  0  0
 39 12  1  0  0  0  0
 39 40  1  0  0  0  0
 41 43  1  0  0  0  0
 41 42  1  0  0  0  0
 44 41  1  0  0  0  0
 45 47  1  0  0  0  0
 45 26  1  0  0  0  0
 46 45  1  0  0  0  0
 48 45  1  0  0  0  0
 49 55  1  0  0  0  0
 49 35  1  0  0  0  0
 50 49  1  0  0  0  0
 51 54  1  0  0  0  0
 51 39  1  0  0  0  0
 52 51  1  0  0  0  0
 53 51  1  0  0  0  0
 55 57  1  0  0  0  0
 55 58  1  0  0  0  0
 56 55  1  0  0  0  0
 59  6  1  0  0  0  0
 59 34  1  0  0  0  0
 60 63  1  0  0  0  0
 60 61  1  0  0  0  0
 62 60  1  0  0  0  0
M  END
$$$$
