CSD_code = NELLOH | q = 1 | S = 0 | Stoichiometry = C6H14AuCl2N2(1+) | MND = 4
 OpenBabel04212202073D

 25 26  0  0  1  0  0  0  0  0999 V2000
    5.9246   10.1197    7.1635 Au  0  0  0  0  0  0  0  0  0  0  0  0
    7.3447   10.2382    8.7774 N   0  0  0  0  0  4  0  0  0  0  0  0
    8.1081   10.8853    8.5796 H   0  0  0  0  0  0  0  0  0  0  0  0
    6.8757   10.6015    9.6090 H   0  0  0  0  0  0  0  0  0  0  0  0
    6.0377    8.0285    7.6631 N   0  0  0  0  0  4  0  0  0  0  0  0
    5.1238    7.5755    7.6585 H   0  0  0  0  0  0  0  0  0  0  0  0
    6.5944    7.5466    6.9551 H   0  0  0  0  0  0  0  0  0  0  0  0
    5.9154   12.3218    6.7578 Cl  0  0  0  0  0  0  0  0  0  0  0  0
    4.4418    9.8384    5.5094 Cl  0  0  0  0  0  0  0  0  0  0  0  0
    7.8619    8.8769    9.0489 C   0  0  1  0  0  0  0  0  0  0  0  0
    8.5692    8.6321    8.2493 H   0  0  0  0  0  0  0  0  0  0  0  0
    8.5657    8.7919   10.4040 C   0  0  0  0  0  0  0  0  0  0  0  0
    7.8703    9.0866   11.1931 H   0  0  0  0  0  0  0  0  0  0  0  0
    9.4158    9.4747   10.4246 H   0  0  0  0  0  0  0  0  0  0  0  0
    9.0409    7.3613   10.6558 C   0  0  0  0  0  0  0  0  0  0  0  0
    9.7848    7.0842    9.9075 H   0  0  0  0  0  0  0  0  0  0  0  0
    9.5183    7.3114   11.6333 H   0  0  0  0  0  0  0  0  0  0  0  0
    7.8684    6.3899   10.6038 C   0  0  0  0  0  0  0  0  0  0  0  0
    7.1586    6.6233   11.3986 H   0  0  0  0  0  0  0  0  0  0  0  0
    8.2241    5.3731   10.7640 H   0  0  0  0  0  0  0  0  0  0  0  0
    7.1665    6.4659    9.2482 C   0  0  0  0  0  0  0  0  0  0  0  0
    7.8639    6.1679    8.4623 H   0  0  0  0  0  0  0  0  0  0  0  0
    6.3180    5.7811    9.2304 H   0  0  0  0  0  0  0  0  0  0  0  0
    6.6880    7.8949    8.9875 C   0  0  2  0  0  0  0  0  0  0  0  0
    5.9488    8.1808    9.7433 H   0  0  0  0  0  0  0  0  0  0  0  0
  1  5  1  0  0  0  0
  1  2  1  0  0  0  0
  2 10  1  0  0  0  0
  2  4  1  0  0  0  0
  3  2  1  0  0  0  0
  5 24  1  0  0  0  0
  6  5  1  0  0  0  0
  7  5  1  0  0  0  0
  8  1  1  0  0  0  0
  9  1  1  0  0  0  0
 10 11  1  6  0  0  0
 10 12  1  0  0  0  0
 12 14  1  0  0  0  0
 12 15  1  0  0  0  0
 12 13  1  0  0  0  0
 15 17  1  0  0  0  0
 16 15  1  0  0  0  0
 18 15  1  0  0  0  0
 18 20  1  0  0  0  0
 18 19  1  0  0  0  0
 21 18  1  0  0  0  0
 22 21  1  0  0  0  0
 23 21  1  0  0  0  0
 24 10  1  0  0  0  0
 24 21  1  0  0  0  0
 24 25  1  1  0  0  0
M  END
$$$$
