CSD_code = NELQIH | q = 0 | S = 0 | Stoichiometry = C22H34ClN3O2Pd | MND = 4
 OpenBabel04212202073D

 63 67  0  0  1  0  0  0  0  0999 V2000
   -7.6162  -10.2963   -0.6351 Pd  0  0  2  0  0  0  0  0  0  0  0  0
   -9.3109  -10.8095    0.7906 Cl  0  0  0  0  0  0  0  0  0  0  0  0
   -7.2642   -6.2198   -0.5234 O   0  0  0  0  0  0  0  0  0  0  0  0
   -6.3074  -13.8682   -2.1452 O   0  0  0  0  0  0  0  0  0  0  0  0
   -7.7205   -8.3631   -0.2218 N   0  0  1  0  0  0  0  0  0  0  0  0
   -6.1486   -9.8510   -1.8713 N   0  0  0  0  0  0  0  0  0  0  0  0
   -7.3626  -12.1848   -1.1728 N   0  0  2  0  0  0  0  0  0  0  0  0
   -7.7861   -7.8223    1.1239 C   0  0  2  0  0  0  0  0  0  0  0  0
   -8.7876   -8.0102    1.5292 H   0  0  0  0  0  0  0  0  0  0  0  0
   -7.5387   -6.3181    0.8770 C   0  0  0  0  0  0  0  0  0  0  0  0
   -8.4174   -5.7066    1.0975 H   0  0  0  0  0  0  0  0  0  0  0  0
   -6.6805   -5.9212    1.4224 H   0  0  0  0  0  0  0  0  0  0  0  0
   -7.3946   -7.4420   -1.0447 C   0  0  2  0  0  3  0  0  0  0  0  0
   -7.1411   -7.6699   -2.5096 C   0  0  0  0  0  0  0  0  0  0  0  0
   -6.0471   -8.7140   -2.5983 C   0  0  0  0  0  0  0  0  0  0  0  0
   -4.8817   -8.7580   -3.3399 C   0  0  0  0  0  0  0  0  0  0  0  0
   -4.5151   -8.0112   -4.0167 H   0  0  0  0  0  0  0  0  0  0  0  0
   -4.2626   -9.9847   -3.0467 C   0  0  0  0  0  0  0  0  0  0  0  0
   -3.3358  -10.3380   -3.4545 H   0  0  0  0  0  0  0  0  0  0  0  0
   -5.0729  -10.6298   -2.1317 C   0  0  0  0  0  0  0  0  0  0  0  0
   -4.9258  -11.9616   -1.4250 C   0  0  0  0  0  0  0  0  0  0  0  0
   -6.2467  -12.6674   -1.5647 C   0  0  2  0  0  3  0  0  0  0  0  0
   -7.6796  -14.2721   -2.1547 C   0  0  0  0  0  0  0  0  0  0  0  0
   -7.7739  -15.1776   -1.5497 H   0  0  0  0  0  0  0  0  0  0  0  0
   -7.9626  -14.4985   -3.1843 H   0  0  0  0  0  0  0  0  0  0  0  0
   -8.4455  -13.0745   -1.5517 C   0  0  2  0  0  0  0  0  0  0  0  0
   -8.9999  -13.3574   -0.6487 H   0  0  0  0  0  0  0  0  0  0  0  0
   -9.4184  -12.3399   -2.4987 C   0  0  0  0  0  0  0  0  0  0  0  0
   -9.7555  -11.4458   -1.9428 H   0  0  0  0  0  0  0  0  0  0  0  0
   -8.7355  -11.8764   -3.7862 C   0  0  0  0  0  0  0  0  0  0  0  0
   -7.8554  -11.2704   -3.5614 H   0  0  0  0  0  0  0  0  0  0  0  0
   -9.4271  -11.2735   -4.3699 H   0  0  0  0  0  0  0  0  0  0  0  0
   -8.4283  -12.7207   -4.4006 H   0  0  0  0  0  0  0  0  0  0  0  0
  -10.6337  -13.2126   -2.7947 C   0  0  0  0  0  0  0  0  0  0  0  0
  -10.3438  -14.1223   -3.3172 H   0  0  0  0  0  0  0  0  0  0  0  0
  -11.3386  -12.6698   -3.4191 H   0  0  0  0  0  0  0  0  0  0  0  0
  -11.1370  -13.4895   -1.8718 H   0  0  0  0  0  0  0  0  0  0  0  0
   -6.7626   -8.5428    2.0274 C   0  0  0  0  0  0  0  0  0  0  0  0
   -7.0187   -9.6166    1.9685 H   0  0  0  0  0  0  0  0  0  0  0  0
   -5.3260   -8.3636    1.5343 C   0  0  0  0  0  0  0  0  0  0  0  0
   -5.2333   -8.6723    0.4910 H   0  0  0  0  0  0  0  0  0  0  0  0
   -4.6552   -8.9745    2.1338 H   0  0  0  0  0  0  0  0  0  0  0  0
   -5.0010   -7.3284    1.6207 H   0  0  0  0  0  0  0  0  0  0  0  0
   -6.9170   -8.0872    3.4747 C   0  0  0  0  0  0  0  0  0  0  0  0
   -6.7077   -7.0237    3.5742 H   0  0  0  0  0  0  0  0  0  0  0  0
   -6.2261   -8.6325    4.1125 H   0  0  0  0  0  0  0  0  0  0  0  0
   -7.9282   -8.2750    3.8265 H   0  0  0  0  0  0  0  0  0  0  0  0
   -8.4418   -8.2185   -3.1327 C   0  0  0  0  0  0  0  0  0  0  0  0
   -8.7868   -9.1027   -2.5731 H   0  0  0  0  0  0  0  0  0  0  0  0
   -8.2547   -8.5001   -4.1663 H   0  0  0  0  0  0  0  0  0  0  0  0
   -9.2227   -7.4602   -3.1070 H   0  0  0  0  0  0  0  0  0  0  0  0
   -6.7307   -6.3697   -3.1957 C   0  0  0  0  0  0  0  0  0  0  0  0
   -7.5032   -5.6146   -3.0713 H   0  0  0  0  0  0  0  0  0  0  0  0
   -6.5806   -6.5499   -4.2565 H   0  0  0  0  0  0  0  0  0  0  0  0
   -5.8053   -5.9918   -2.7697 H   0  0  0  0  0  0  0  0  0  0  0  0
   -3.8009  -12.7959   -2.0317 C   0  0  0  0  0  0  0  0  0  0  0  0
   -3.9695  -12.9443   -3.0948 H   0  0  0  0  0  0  0  0  0  0  0  0
   -3.7480  -13.7694   -1.5500 H   0  0  0  0  0  0  0  0  0  0  0  0
   -2.8532  -12.2826   -1.8951 H   0  0  0  0  0  0  0  0  0  0  0  0
   -4.6722  -11.7314    0.0796 C   0  0  0  0  0  0  0  0  0  0  0  0
   -3.7799  -11.1226    0.2048 H   0  0  0  0  0  0  0  0  0  0  0  0
   -4.5275  -12.6827    0.5889 H   0  0  0  0  0  0  0  0  0  0  0  0
   -5.5315  -11.2124    0.5337 H   0  0  0  0  0  0  0  0  0  0  0  0
  1  5  1  0  0  0  0
  1  2  1  0  0  0  0
  3 10  1  0  0  0  0
  4 22  1  0  0  0  0
  5  8  1  0  0  0  0
  6  1  1  0  0  0  0
  7  1  1  0  0  0  0
  8  9  1  0  0  0  0
  8 38  1  0  0  0  0
 10 11  1  0  0  0  0
 10  8  1  0  0  0  0
 10 12  1  0  0  0  0
 13  3  1  0  0  0  0
 13  5  1  0  0  0  0
 14 13  1  0  0  0  0
 15 14  1  0  0  0  0
 15  6  1  0  0  0  0
 16 18  1  0  0  0  0
 16 15  2  0  0  0  0
 17 16  1  0  0  0  0
 18 20  2  0  0  0  0
 19 18  1  0  0  0  0
 20  6  1  0  0  0  0
 20 21  1  0  0  0  0
 21 60  1  0  0  0  0
 22 21  1  0  0  0  0
 22  7  1  0  0  0  0
 23  4  1  0  0  0  0
 23 26  1  0  0  0  0
 23 24  1  0  0  0  0
 25 23  1  0  0  0  0
 26  7  1  0  0  0  0
 26 27  1  0  0  0  0
 28 29  1  0  0  0  0
 28 26  1  0  0  0  0
 30 31  1  0  0  0  0
 30 28  1  0  0  0  0
 32 30  1  0  0  0  0
 33 30  1  0  0  0  0
 34 28  1  0  0  0  0
 34 37  1  0  0  0  0
 35 34  1  0  0  0  0
 36 34  1  0  0  0  0
 38 44  1  0  0  0  0
 39 38  1  0  0  0  0
 40 43  1  0  0  0  0
 40 38  1  0  0  0  0
 40 42  1  0  0  0  0
 41 40  1  0  0  0  0
 44 45  1  0  0  0  0
 44 47  1  0  0  0  0
 44 46  1  0  0  0  0
 48 51  1  0  0  0  0
 48 49  1  0  0  0  0
 48 14  1  0  0  0  0
 50 48  1  0  0  0  0
 52 53  1  0  0  0  0
 52 55  1  0  0  0  0
 52 14  1  0  0  0  0
 54 52  1  0  0  0  0
 56 59  1  0  0  0  0
 56 58  1  0  0  0  0
 56 21  1  0  0  0  0
 57 56  1  0  0  0  0
 60 61  1  0  0  0  0
 60 63  1  0  0  0  0
 60 62  1  0  0  0  0
M  END
$$$$
