CSD_code = NELYUY | q = 0 | S = 0 | Stoichiometry = C15H21Cl3N3Ta | MND = 6
 OpenBabel04212202073D

 43 44  0  0  0  0  0  0  0  0999 V2000
    2.4387    1.3169    3.2193 Ta  0  0  0  0  0  0  0  0  0  0  0  0
    4.5502    2.2326    2.7606 Cl  0  0  0  0  0  0  0  0  0  0  0  0
    2.9911   -0.4701    1.8878 Cl  0  0  0  0  0  0  0  0  0  0  0  0
    0.8479   -0.0308    4.3046 Cl  0  0  0  0  0  0  0  0  0  0  0  0
    3.8956    0.1179    4.9646 N   0  0  0  0  0  0  0  0  0  0  0  0
    2.1641    2.7568    4.5295 N   0  0  0  0  0  0  0  0  0  0  0  0
    1.2514    2.1621    1.8819 N   0  0  0  0  0  0  0  0  0  0  0  0
    3.4789   -0.0546    6.2156 C   0  0  0  0  0  3  0  0  0  0  0  0
    4.1875   -0.7800    7.1526 C   0  0  0  0  0  0  0  0  0  0  0  0
    5.3987   -1.3707    6.7889 C   0  0  0  0  0  0  0  0  0  0  0  0
    5.8244   -1.1849    5.4737 C   0  0  0  0  0  0  0  0  0  0  0  0
    5.0469   -0.4418    4.6061 C   0  0  0  0  0  0  0  0  0  0  0  0
    6.1860   -2.1533    7.7483 C   0  0  0  0  0  0  0  0  0  0  0  0
    5.5547   -3.0079    8.6500 C   0  0  0  0  0  0  0  0  0  0  0  0
    6.2981   -3.7467    9.5512 C   0  0  0  0  0  0  0  0  0  0  0  0
    7.6785   -3.6345    9.5727 C   0  0  0  0  0  0  0  0  0  0  0  0
    8.3143   -2.7844    8.6829 C   0  0  0  0  0  0  0  0  0  0  0  0
    7.5756   -2.0524    7.7723 C   0  0  0  0  0  0  0  0  0  0  0  0
    3.1357    3.4490    5.3437 C   0  0  0  0  0  0  0  0  0  0  0  0
    0.8347    3.1067    4.9812 C   0  0  0  0  0  0  0  0  0  0  0  0
    1.2471    3.5682    1.5513 C   0  0  0  0  0  0  0  0  0  0  0  0
    0.4200    1.4127    0.9675 C   0  0  0  0  0  0  0  0  0  0  0  0
    2.5294    0.4006    6.4631 H   0  0  0  0  0  0  0  0  0  0  0  0
    3.8109   -0.8752    8.1590 H   0  0  0  0  0  0  0  0  0  0  0  0
    6.7408   -1.6336    5.1242 H   0  0  0  0  0  0  0  0  0  0  0  0
    5.3518   -0.2837    3.5804 H   0  0  0  0  0  0  0  0  0  0  0  0
    4.4802   -3.1125    8.6241 H   0  0  0  0  0  0  0  0  0  0  0  0
    5.7990   -4.4126   10.2394 H   0  0  0  0  0  0  0  0  0  0  0  0
    8.2573   -4.2085   10.2806 H   0  0  0  0  0  0  0  0  0  0  0  0
    9.3900   -2.6917    8.6987 H   0  0  0  0  0  0  0  0  0  0  0  0
    8.0740   -1.3780    7.0917 H   0  0  0  0  0  0  0  0  0  0  0  0
    2.9551    4.5303    5.3410 H   0  0  0  0  0  0  0  0  0  0  0  0
    4.1335    3.2611    4.9530 H   0  0  0  0  0  0  0  0  0  0  0  0
    3.0899    3.1043    6.3853 H   0  0  0  0  0  0  0  0  0  0  0  0
    0.6397    2.6694    5.9684 H   0  0  0  0  0  0  0  0  0  0  0  0
    0.0961    2.7172    4.2853 H   0  0  0  0  0  0  0  0  0  0  0  0
    0.7184    4.1930    5.0603 H   0  0  0  0  0  0  0  0  0  0  0  0
    1.7017    3.7317    0.5662 H   0  0  0  0  0  0  0  0  0  0  0  0
    1.8281    4.1115    2.2949 H   0  0  0  0  0  0  0  0  0  0  0  0
    0.2263    3.9675    1.5263 H   0  0  0  0  0  0  0  0  0  0  0  0
   -0.5707    1.8724    0.8759 H   0  0  0  0  0  0  0  0  0  0  0  0
    0.2958    0.3943    1.3353 H   0  0  0  0  0  0  0  0  0  0  0  0
    0.8744    1.3733   -0.0311 H   0  0  0  0  0  0  0  0  0  0  0  0
  1  4  1  0  0  0  0
  1  6  1  0  0  0  0
  1  5  1  0  0  0  0
  2  1  1  0  0  0  0
  3  1  1  0  0  0  0
  5  8  1  0  0  0  0
  6 20  1  0  0  0  0
  6 19  1  0  0  0  0
  7  1  1  0  0  0  0
  8 23  1  0  0  0  0
  8  9  1  0  0  0  0
  9 24  1  0  0  0  0
 10  9  2  0  0  0  0
 10 13  1  0  0  0  0
 11 10  1  0  0  0  0
 12  5  1  0  0  0  0
 12 11  2  0  0  0  0
 13 18  2  0  0  0  0
 13 14  1  0  0  0  0
 14 15  2  0  0  0  0
 15 16  1  0  0  0  0
 15 28  1  0  0  0  0
 16 29  1  0  0  0  0
 17 30  1  0  0  0  0
 17 16  2  0  0  0  0
 18 17  1  0  0  0  0
 19 34  1  0  0  0  0
 20 37  1  0  0  0  0
 20 35  1  0  0  0  0
 21  7  1  0  0  0  0
 21 39  1  0  0  0  0
 22 42  1  0  0  0  0
 22  7  1  0  0  0  0
 25 11  1  0  0  0  0
 26 12  1  0  0  0  0
 27 14  1  0  0  0  0
 31 18  1  0  0  0  0
 32 19  1  0  0  0  0
 33 19  1  0  0  0  0
 36 20  1  0  0  0  0
 38 21  1  0  0  0  0
 40 21  1  0  0  0  0
 41 22  1  0  0  0  0
 43 22  1  0  0  0  0
M  END
$$$$
