CSD_code = NEMCUE | q = 0 | S = 0 | Stoichiometry = C10H15Cl2NO2PtS | MND = 4
 OpenBabel04212202073D

 32 32  0  0  1  0  0  0  0  0999 V2000
    1.9000    2.9180    1.4515 Pt  0  0  0  0  0  0  0  0  0  0  0  0
    1.4375    4.1342    3.3715 Cl  0  0  0  0  0  0  0  0  0  0  0  0
    2.1119    1.6491   -0.4591 Cl  0  0  0  0  0  0  0  0  0  0  0  0
    1.1438    4.7112    0.3367 S   0  0  0  0  0  0  0  0  0  0  0  0
    1.8819    0.1440    2.0962 O   0  0  0  0  0  0  0  0  0  0  0  0
    1.7091    0.2432    1.1226 H   0  0  0  0  0  0  0  0  0  0  0  0
    1.1864    4.7020   -1.1104 O   0  0  0  0  0  1  0  0  0  0  0  0
    2.5187    1.3153    2.4493 N   0  0  0  0  0  0  0  0  0  0  0  0
   -0.5526    5.1243    0.8299 C   0  0  0  0  0  0  0  0  0  0  0  0
   -0.8423    6.0427    0.3328 H   0  0  0  0  0  0  0  0  0  0  0  0
   -0.5693    5.2257    1.9089 H   0  0  0  0  0  0  0  0  0  0  0  0
   -1.1964    4.3102    0.5126 H   0  0  0  0  0  0  0  0  0  0  0  0
    1.9837    6.2292    0.8794 C   0  0  0  0  0  0  0  0  0  0  0  0
    3.0271    6.1480    0.5923 H   0  0  0  0  0  0  0  0  0  0  0  0
    1.8906    6.3004    1.9567 H   0  0  0  0  0  0  0  0  0  0  0  0
    1.5245    7.0715    0.3753 H   0  0  0  0  0  0  0  0  0  0  0  0
    3.3470    1.2698    3.4296 C   0  0  2  0  0  3  0  0  0  0  0  0
    4.0981    2.4857    3.7516 C   0  0  0  0  0  0  0  0  0  0  0  0
    4.3056    2.8686    5.0743 C   0  0  0  0  0  0  0  0  0  0  0  0
    3.9000    2.2701    5.8753 H   0  0  0  0  0  0  0  0  0  0  0  0
    4.9805    4.0410    5.3596 C   0  0  0  0  0  0  0  0  0  0  0  0
    5.1158    4.3437    6.3869 H   0  0  0  0  0  0  0  0  0  0  0  0
    5.4728    4.8304    4.3339 C   0  0  0  0  0  0  0  0  0  0  0  0
    5.9941    5.7481    4.5612 H   0  0  0  0  0  0  0  0  0  0  0  0
    5.3001    4.4393    3.0156 C   0  0  0  0  0  0  0  0  0  0  0  0
    5.7015    5.0438    2.2161 H   0  0  0  0  0  0  0  0  0  0  0  0
    4.6151    3.2757    2.7189 C   0  0  0  0  0  0  0  0  0  0  0  0
    4.5293    2.9414    1.6876 H   0  0  0  0  0  0  0  0  0  0  0  0
    3.5612    0.0173    4.2087 C   0  0  0  0  0  0  0  0  0  0  0  0
    2.7563   -0.0992    4.9344 H   0  0  0  0  0  0  0  0  0  0  0  0
    4.5138    0.0378    4.7284 H   0  0  0  0  0  0  0  0  0  0  0  0
    3.5125   -0.8370    3.5352 H   0  0  0  0  0  0  0  0  0  0  0  0
  1  8  1  0  0  0  0
  1  2  1  0  0  0  0
  3  1  1  0  0  0  0
  4  9  1  0  0  0  0
  4 13  1  0  0  0  0
  4  1  1  0  0  0  0
  5  8  1  0  0  0  0
  6  5  1  0  0  0  0
  7  4  1  0  0  0  0
  9 11  1  0  0  0  0
 10  9  1  0  0  0  0
 12  9  1  0  0  0  0
 13 15  1  0  0  0  0
 14 13  1  0  0  0  0
 16 13  1  0  0  0  0
 17  8  1  6  0  0  0
 17 18  1  0  0  0  0
 17 29  1  0  0  0  0
 18 19  1  0  0  0  0
 19 21  2  0  0  0  0
 19 20  1  0  0  0  0
 21 22  1  0  0  0  0
 23 24  1  0  0  0  0
 23 21  1  0  0  0  0
 25 23  2  0  0  0  0
 26 25  1  0  0  0  0
 27 25  1  0  0  0  0
 27 18  2  0  0  0  0
 28 27  1  0  0  0  0
 29 31  1  0  0  0  0
 29 30  1  0  0  0  0
 32 29  1  0  0  0  0
M  END
$$$$
