CSD_code = NENHUK | q = 1 | S = 0 | Stoichiometry = C15H19ClN3NiO4(1+) | MND = 6
 OpenBabel04212202073D

 43 47  0  0  1  0  0  0  0  0999 V2000
    6.4044   16.8521    7.7957 Ni  0  0  0  0  0  0  0  0  0  0  0  0
    5.8319   18.5432    6.5410 Cl  0  0  0  0  0  0  0  0  0  0  0  0
    7.2603   15.0540    6.4846 N   0  0  0  0  0  0  0  0  0  0  0  0
    7.0356   15.0032    9.1365 N   0  0  0  0  0  0  0  0  0  0  0  0
    6.0178   17.2617   10.1108 N   0  0  1  0  0  0  0  0  0  0  0  0
    7.9433   12.9352    6.3788 O   0  0  0  0  0  0  0  0  0  0  0  0
    6.2752   16.6096   12.2262 O   0  0  0  0  0  0  0  0  0  0  0  0
    7.6773   17.4337    7.8888 O   0  0  0  0  0  1  0  0  0  0  0  0
    5.0978   16.3701    7.6307 O   0  0  0  0  0  1  0  0  0  0  0  0
    7.3853   14.8109    5.0535 C   0  0  1  0  0  0  0  0  0  0  0  0
    8.1296   15.5070    4.6523 H   0  0  0  0  0  0  0  0  0  0  0  0
    7.8744   13.3398    5.0013 C   0  0  0  0  0  0  0  0  0  0  0  0
    7.1707   12.6788    4.4897 H   0  0  0  0  0  0  0  0  0  0  0  0
    8.8671   13.2257    4.5626 H   0  0  0  0  0  0  0  0  0  0  0  0
    7.5689   13.9732    7.1024 C   0  0  0  0  0  0  0  0  0  0  0  0
    7.5045   13.8958    8.5663 C   0  0  0  0  0  0  0  0  0  0  0  0
    7.8894   12.7856    9.3149 C   0  0  0  0  0  0  0  0  0  0  0  0
    8.2654   11.9041    8.8201 H   0  0  0  0  0  0  0  0  0  0  0  0
    7.7751   12.8562   10.6970 C   0  0  0  0  0  0  0  0  0  0  0  0
    8.0647   12.0149   11.3084 H   0  0  0  0  0  0  0  0  0  0  0  0
    7.2864   14.0131   11.2895 C   0  0  0  0  0  0  0  0  0  0  0  0
    7.1826   14.1036   12.3592 H   0  0  0  0  0  0  0  0  0  0  0  0
    6.9240   15.0727   10.4609 C   0  0  0  0  0  0  0  0  0  0  0  0
    6.3895   16.3536   10.9369 C   0  0  2  0  0  3  0  0  0  0  0  0
    5.7416   17.9390   12.3423 C   0  0  0  0  0  0  0  0  0  0  0  0
    6.4581   18.5432   12.9038 H   0  0  0  0  0  0  0  0  0  0  0  0
    4.8016   17.8817   12.8936 H   0  0  0  0  0  0  0  0  0  0  0  0
    5.5716   18.4179   10.8768 C   0  0  1  0  0  0  0  0  0  0  0  0
    4.5231   18.6104   10.6255 H   0  0  0  0  0  0  0  0  0  0  0  0
    6.0463   15.0580    4.3527 C   0  0  0  0  0  0  0  0  0  0  0  0
    5.3259   14.3050    4.6795 H   0  0  0  0  0  0  0  0  0  0  0  0
    5.6766   16.0363    4.6712 H   0  0  0  0  0  0  0  0  0  0  0  0
    6.1879   15.0312    2.8363 C   0  0  0  0  0  0  0  0  0  0  0  0
    6.8731   15.8053    2.5019 H   0  0  0  0  0  0  0  0  0  0  0  0
    5.2216   15.2100    2.3742 H   0  0  0  0  0  0  0  0  0  0  0  0
    6.5588   14.0690    2.4919 H   0  0  0  0  0  0  0  0  0  0  0  0
    6.4037   19.6510   10.5134 C   0  0  0  0  0  0  0  0  0  0  0  0
    6.4222   19.7340    9.4232 H   0  0  0  0  0  0  0  0  0  0  0  0
    7.4306   19.5048   10.8556 H   0  0  0  0  0  0  0  0  0  0  0  0
    5.8218   20.9229   11.1165 C   0  0  0  0  0  0  0  0  0  0  0  0
    4.8151   21.0968   10.7463 H   0  0  0  0  0  0  0  0  0  0  0  0
    6.4370   21.7745   10.8418 H   0  0  0  0  0  0  0  0  0  0  0  0
    5.7855   20.8632   12.2015 H   0  0  0  0  0  0  0  0  0  0  0  0
  1  8  1  0  0  0  0
  1  4  1  0  0  0  0
  1  5  1  0  0  0  0
  2  1  1  0  0  0  0
  3 15  1  0  0  0  0
  3  1  1  0  0  0  0
  4 23  1  0  0  0  0
  5 28  1  0  0  0  0
  5 24  1  0  0  0  0
  6 15  1  0  0  0  0
  7 25  1  0  0  0  0
  9  1  1  0  0  0  0
 10  3  1  0  0  0  0
 11 10  1  0  0  0  0
 12 10  1  0  0  0  0
 12  6  1  0  0  0  0
 13 12  1  0  0  0  0
 14 12  1  0  0  0  0
 15 16  2  0  0  0  0
 16  4  1  0  0  0  0
 16 17  1  0  0  0  0
 17 19  2  0  0  0  0
 18 17  1  0  0  0  0
 19 21  1  0  0  0  0
 19 20  1  0  0  0  0
 21 22  1  0  0  0  0
 23 24  1  0  0  0  0
 23 21  2  0  0  0  0
 24  7  1  0  0  0  0
 25 27  1  0  0  0  0
 25 26  1  0  0  0  0
 28 25  1  0  0  0  0
 29 28  1  0  0  0  0
 30 32  1  0  0  0  0
 30 31  1  0  0  0  0
 30 10  1  0  0  0  0
 33 30  1  0  0  0  0
 34 33  1  0  0  0  0
 35 33  1  0  0  0  0
 36 33  1  0  0  0  0
 37 39  1  0  0  0  0
 37 28  1  0  0  0  0
 37 40  1  0  0  0  0
 38 37  1  0  0  0  0
 40 43  1  0  0  0  0
 41 40  1  0  0  0  0
 42 40  1  0  0  0  0
M  END
$$$$
