CSD_code = NENJAS | q = 0 | S = 0 | Stoichiometry = C15H19CdCl2N3O2 | MND = 5
 OpenBabel04212202073D

 42 46  0  0  1  0  0  0  0  0999 V2000
    3.8898   13.2410   11.3261 Cd  0  0  0  0  0  0  0  0  0  0  0  0
    2.2157   12.9940   12.9383 Cl  0  0  0  0  0  0  0  0  0  0  0  0
    5.5603   14.8794   11.5174 Cl  0  0  0  0  0  0  0  0  0  0  0  0
    4.6327   12.8937    9.0625 N   0  0  0  0  0  0  0  0  0  0  0  0
    1.1504   15.7013    8.2284 C   0  0  0  0  0  0  0  0  0  0  0  0
    0.2517   15.3402    7.7206 H   0  0  0  0  0  0  0  0  0  0  0  0
    1.2033   16.7888    8.1486 H   0  0  0  0  0  0  0  0  0  0  0  0
   -1.1694   15.2027   10.4042 C   0  0  0  0  0  0  0  0  0  0  0  0
   -0.9704   15.9385   11.1791 H   0  0  0  0  0  0  0  0  0  0  0  0
   -1.9941   14.5766   10.7332 H   0  0  0  0  0  0  0  0  0  0  0  0
   -1.4740   15.7271    9.5002 H   0  0  0  0  0  0  0  0  0  0  0  0
    7.4658   10.9162    9.9732 O   0  0  0  0  0  0  0  0  0  0  0  0
    6.1117   13.3494    6.7792 C   0  0  0  0  0  0  0  0  0  0  0  0
    6.6879   13.5222    5.8826 H   0  0  0  0  0  0  0  0  0  0  0  0
    2.2917   15.1443    7.5660 O   0  0  0  0  0  0  0  0  0  0  0  0
    5.8163   12.3190    8.9111 C   0  0  0  0  0  0  0  0  0  0  0  0
    2.4579   14.3823    9.6589 N   0  0  1  0  0  0  0  0  0  0  0  0
    4.1872   13.7295    8.1342 C   0  0  0  0  0  0  0  0  0  0  0  0
    0.0651   14.3462   10.1583 C   0  0  0  0  0  0  0  0  0  0  0  0
   -0.1484   13.5779    9.4108 H   0  0  0  0  0  0  0  0  0  0  0  0
    0.3596   13.8474   11.0843 H   0  0  0  0  0  0  0  0  0  0  0  0
    1.2556   15.1854    9.6896 C   0  0  2  0  0  0  0  0  0  0  0  0
    1.4114   16.0027   10.4034 H   0  0  0  0  0  0  0  0  0  0  0  0
    6.2768   11.5312   10.0548 C   0  0  0  0  0  0  0  0  0  0  0  0
    6.7881   11.5465   13.3119 C   0  0  0  0  0  0  0  0  0  0  0  0
    7.6346   11.0830   13.8255 H   0  0  0  0  0  0  0  0  0  0  0  0
    7.0887   12.5390   12.9663 H   0  0  0  0  0  0  0  0  0  0  0  0
    6.5981   12.5142    7.7725 C   0  0  0  0  0  0  0  0  0  0  0  0
    7.5577   12.0301    7.6896 H   0  0  0  0  0  0  0  0  0  0  0  0
    5.6307   11.4229   11.1460 N   0  0  0  0  0  0  0  0  0  0  0  0
    6.4479   10.6842   12.0888 C   0  0  1  0  0  0  0  0  0  0  0  0
    5.8917    9.7975   12.4139 H   0  0  0  0  0  0  0  0  0  0  0  0
    2.9418   14.4138    8.4845 C   0  0  2  0  0  3  0  0  0  0  0  0
    7.6980   10.3117   11.2455 C   0  0  0  0  0  0  0  0  0  0  0  0
    8.6195   10.7281   11.6606 H   0  0  0  0  0  0  0  0  0  0  0  0
    7.8169    9.2350   11.1001 H   0  0  0  0  0  0  0  0  0  0  0  0
    4.8918   13.9835    6.9589 C   0  0  0  0  0  0  0  0  0  0  0  0
    4.4921   14.6681    6.2283 H   0  0  0  0  0  0  0  0  0  0  0  0
    5.6158   11.6773   14.2750 C   0  0  0  0  0  0  0  0  0  0  0  0
    4.7635   12.1491   13.7825 H   0  0  0  0  0  0  0  0  0  0  0  0
    5.9022   12.2945   15.1227 H   0  0  0  0  0  0  0  0  0  0  0  0
    5.3088   10.7008   14.6450 H   0  0  0  0  0  0  0  0  0  0  0  0
  1  3  1  0  0  0  0
  1  2  1  0  0  0  0
  4  1  1  0  0  0  0
  5 22  1  0  0  0  0
  6  5  1  0  0  0  0
  7  5  1  0  0  0  0
  8 10  1  0  0  0  0
  8  9  1  0  0  0  0
 11  8  1  0  0  0  0
 12 24  1  0  0  0  0
 12 34  1  0  0  0  0
 13 37  1  0  0  0  0
 13 28  2  0  0  0  0
 14 13  1  0  0  0  0
 15  5  1  0  0  0  0
 16  4  1  0  0  0  0
 16 24  2  0  0  0  0
 17 22  1  0  0  0  0
 17  1  1  1  0  0  0
 18 33  1  0  0  0  0
 18  4  1  0  0  0  0
 19  8  1  0  0  0  0
 19 21  1  0  0  0  0
 20 19  1  0  0  0  0
 22 19  1  0  0  0  0
 22 23  1  1  0  0  0
 24 30  1  0  0  0  0
 25 26  1  0  0  0  0
 25 39  1  0  0  0  0
 27 25  1  0  0  0  0
 28 16  1  0  0  0  0
 29 28  1  0  0  0  0
 30  1  1  0  0  0  0
 30 31  1  0  0  0  0
 31 32  1  1  0  0  0
 31 25  1  0  0  0  0
 33 15  1  1  0  0  0
 33 17  1  0  0  0  0
 34 35  1  0  0  0  0
 34 31  1  0  0  0  0
 36 34  1  0  0  0  0
 37 18  2  0  0  0  0
 38 37  1  0  0  0  0
 39 42  1  0  0  0  0
 39 41  1  0  0  0  0
 40 39  1  0  0  0  0
M  END
$$$$
