CSD_code = NEPBUI | q = 0 | S = 0 | Stoichiometry = C30H29ClPRh | MND = 6
 OpenBabel04212202073D

 62 64  0  0  1  0  0  0  0  0999 V2000
    0.3248   22.8040    4.6926 Rh  0  0  0  0  0  0  0  0  0  0  0  0
    1.2197   21.3152    3.2312 P   0  0  0  0  0  0  0  0  0  0  0  0
    2.4441   22.7591    5.5121 Cl  0  0  0  0  0 15  0  0  0  0  0  0
   -1.3757   23.4306    3.5754 C   0  0  0  0  0  3  0  0  0  0  0  0
   -1.1948   23.2556    2.5149 H   0  0  0  0  0  0  0  0  0  0  0  0
    2.4035   20.1310    3.9614 C   0  0  0  0  0  0  0  0  0  0  0  0
    2.0451   19.4577    5.1634 C   0  0  0  0  0  0  0  0  0  0  0  0
    2.1447   22.1572    1.9094 C   0  0  0  0  0  0  0  0  0  0  0  0
    2.5762   21.5018    0.7582 C   0  0  0  0  0  0  0  0  0  0  0  0
    2.3736   20.4467    0.6298 H   0  0  0  0  0  0  0  0  0  0  0  0
   -0.0597   18.8764    2.5700 C   0  0  0  0  0  0  0  0  0  0  0  0
    0.4497   18.4445    3.4194 H   0  0  0  0  0  0  0  0  0  0  0  0
    0.8147   19.6709    5.8177 C   0  0  0  0  0  0  0  0  0  0  0  0
    0.1100   20.3868    5.3952 H   0  0  0  0  0  0  0  0  0  0  0  0
    0.5063   19.0149    6.9764 C   0  0  0  0  0  0  0  0  0  0  0  0
   -0.4364   19.1979    7.4712 H   0  0  0  0  0  0  0  0  0  0  0  0
    0.1625   20.2056    2.2274 C   0  0  0  0  0  0  0  0  0  0  0  0
    3.6424   19.9220    3.4079 C   0  0  0  0  0  0  0  0  0  0  0  0
    3.9432   20.4623    2.5228 H   0  0  0  0  0  0  0  0  0  0  0  0
   -0.5198   23.7223    6.4753 C   0  0  0  0  0  3  0  0  0  0  0  0
    0.0984   23.3623    7.2981 H   0  0  0  0  0  0  0  0  0  0  0  0
   -0.9249   18.0977    1.8209 C   0  0  0  0  0  0  0  0  0  0  0  0
   -1.0849   17.0644    2.0926 H   0  0  0  0  0  0  0  0  0  0  0  0
    1.4111   18.1005    7.5359 C   0  0  0  0  0  0  0  0  0  0  0  0
    1.1519   17.5866    8.4501 H   0  0  0  0  0  0  0  0  0  0  0  0
   -1.5829   18.6372    0.7290 C   0  0  0  0  0  0  0  0  0  0  0  0
   -2.2574   18.0273    0.1466 H   0  0  0  0  0  0  0  0  0  0  0  0
    3.2515   22.2045   -0.2225 C   0  0  0  0  0  0  0  0  0  0  0  0
    3.5889   21.6938   -1.1130 H   0  0  0  0  0  0  0  0  0  0  0  0
    3.4941   23.5608   -0.0674 C   0  0  0  0  0  0  0  0  0  0  0  0
    4.0223   24.1040   -0.8374 H   0  0  0  0  0  0  0  0  0  0  0  0
    2.9676   18.5461    5.7420 C   0  0  0  0  0  0  0  0  0  0  0  0
    2.3772   23.5204    2.0524 C   0  0  0  0  0  0  0  0  0  0  0  0
    2.0237   24.0210    2.9507 H   0  0  0  0  0  0  0  0  0  0  0  0
   -0.5095   20.7422    1.1310 C   0  0  0  0  0  0  0  0  0  0  0  0
   -0.3379   21.7746    0.8569 H   0  0  0  0  0  0  0  0  0  0  0  0
    3.0536   24.2193    1.0685 C   0  0  0  0  0  0  0  0  0  0  0  0
    3.2359   25.2775    1.1852 H   0  0  0  0  0  0  0  0  0  0  0  0
   -2.0018   23.4551    6.6163 C   0  0  0  0  0  0  0  0  0  0  0  0
   -2.2076   23.1278    7.6375 H   0  0  0  0  0  0  0  0  0  0  0  0
   -2.5470   24.3872    6.4606 H   0  0  0  0  0  0  0  0  0  0  0  0
   -2.4980   22.3721    5.6391 C   0  0  0  0  0  0  0  0  0  0  0  0
   -3.5577   22.5304    5.4083 H   0  0  0  0  0  0  0  0  0  0  0  0
   -2.4189   21.3948    6.1229 H   0  0  0  0  0  0  0  0  0  0  0  0
   -1.8307   24.8387    3.9013 C   0  0  0  0  0  0  0  0  0  0  0  0
   -2.7953   24.7917    4.4091 H   0  0  0  0  0  0  0  0  0  0  0  0
   -1.9858   25.3857    2.9689 H   0  0  0  0  0  0  0  0  0  0  0  0
   -1.7082   22.3179    4.3504 C   0  0  2  0  0  0  0  0  0  0  0  0
   -1.8057   21.3614    3.8324 H   0  0  0  0  0  0  0  0  0  0  0  0
    0.0044   24.7102    5.6658 C   0  0  0  0  0  3  0  0  0  0  0  0
    0.9893   25.1033    5.9161 H   0  0  0  0  0  0  0  0  0  0  0  0
   -0.8055   25.6061    4.7584 C   0  0  0  0  0  0  0  0  0  0  0  0
   -0.1127   26.1317    4.0962 H   0  0  0  0  0  0  0  0  0  0  0  0
   -1.3136   26.3656    5.3630 H   0  0  0  0  0  0  0  0  0  0  0  0
   -1.3724   19.9633    0.3849 C   0  0  0  0  0  0  0  0  0  0  0  0
   -1.8826   20.3891   -0.4669 H   0  0  0  0  0  0  0  0  0  0  0  0
    4.2181   18.3411    5.1226 C   0  0  0  0  0  0  0  0  0  0  0  0
    4.9128   17.6463    5.5727 H   0  0  0  0  0  0  0  0  0  0  0  0
    4.5489   19.0229    3.9870 C   0  0  0  0  0  0  0  0  0  0  0  0
    5.5149   18.8815    3.5242 H   0  0  0  0  0  0  0  0  0  0  0  0
    2.6150   17.8742    6.9313 C   0  0  0  0  0  0  0  0  0  0  0  0
    3.3243   17.1804    7.3601 H   0  0  0  0  0  0  0  0  0  0  0  0
  2  6  1  0  0  0  0
  4 45  1  0  0  0  0
  4 48  1  0  0  0  0
  5  4  1  0  0  0  0
  6  7  1  0  0  0  0
  7 32  2  0  0  0  0
  7 13  1  0  0  0  0
  8 33  1  0  0  0  0
  8  2  1  0  0  0  0
  9  8  2  0  0  0  0
 10  9  1  0  0  0  0
 11 12  1  0  0  0  0
 13 15  2  0  0  0  0
 14 13  1  0  0  0  0
 15 16  1  0  0  0  0
 15 24  1  0  0  0  0
 17 11  1  0  0  0  0
 17  2  1  0  0  0  0
 18  6  2  0  0  0  0
 18 59  1  0  0  0  0
 19 18  1  0  0  0  0
 20 39  1  0  0  0  0
 20 21  1  0  0  0  0
 22 23  1  0  0  0  0
 22 11  2  0  0  0  0
 24 25  1  0  0  0  0
 26 22  1  0  0  0  0
 27 26  1  0  0  0  0
 28 30  2  0  0  0  0
 28  9  1  0  0  0  0
 29 28  1  0  0  0  0
 30 37  1  0  0  0  0
 31 30  1  0  0  0  0
 32 61  1  0  0  0  0
 33 34  1  0  0  0  0
 35 17  2  0  0  0  0
 36 35  1  0  0  0  0
 37 38  1  0  0  0  0
 37 33  2  0  0  0  0
 39 40  1  0  0  0  0
 41 39  1  0  0  0  0
 42 44  1  0  0  0  0
 42 39  1  0  0  0  0
 43 42  1  0  0  0  0
 45 46  1  0  0  0  0
 45 52  1  0  0  0  0
 47 45  1  0  0  0  0
 48 49  1  6  0  0  0
 48  1  1  0  0  0  0
 48 42  1  0  0  0  0
 50 51  1  0  0  0  0
 50 20  1  0  0  0  0
 52 54  1  0  0  0  0
 52 50  1  0  0  0  0
 53 52  1  0  0  0  0
 55 26  2  0  0  0  0
 55 35  1  0  0  0  0
 56 55  1  0  0  0  0
 57 58  1  0  0  0  0
 57 32  1  0  0  0  0
 59 57  2  0  0  0  0
 60 59  1  0  0  0  0
 61 62  1  0  0  0  0
 61 24  2  0  0  0  0
M  END
$$$$
