CSD_code = NEPNON | q = 0 | S = 0 | Stoichiometry = C15H16Cl2N4OZn | MND = 5
 OpenBabel04212202073D

 39 42  0  0  1  0  0  0  0  0999 V2000
    0.0767   12.2557    1.4703 C   0  0  0  0  0  3  0  0  0  0  0  0
    0.1101   13.3120    1.6998 H   0  0  0  0  0  0  0  0  0  0  0  0
   -0.9730   11.6892    0.7588 C   0  0  0  0  0  0  0  0  0  0  0  0
   -1.7907   12.3023    0.4158 H   0  0  0  0  0  0  0  0  0  0  0  0
   -0.9365   10.3286    0.4941 C   0  0  0  0  0  0  0  0  0  0  0  0
   -1.7294    9.8543   -0.0653 H   0  0  0  0  0  0  0  0  0  0  0  0
    0.1335    9.5836    0.9592 C   0  0  0  0  0  0  0  0  0  0  0  0
    0.1965    8.5217    0.7771 H   0  0  0  0  0  0  0  0  0  0  0  0
    1.1395   10.2308    1.6756 C   0  0  0  0  0  0  0  0  0  0  0  0
    2.3063    9.5368    2.1835 C   0  0  0  0  0  3  0  0  0  0  0  0
    2.4949    8.5067    1.8804 H   0  0  0  0  0  0  0  0  0  0  0  0
    5.0580   10.7716    3.9661 C   0  0  1  0  0  3  0  0  0  0  0  0
    6.3808   10.3631    4.4112 C   0  0  0  0  0  0  0  0  0  0  0  0
    6.7842    9.0352    4.5875 C   0  0  0  0  0  0  0  0  0  0  0  0
    6.0968    8.2195    4.4152 H   0  0  0  0  0  0  0  0  0  0  0  0
    8.0499    8.7325    5.0258 C   0  0  0  0  0  0  0  0  0  0  0  0
    8.3098    7.6957    5.1581 H   0  0  0  0  0  0  0  0  0  0  0  0
    8.9941    9.7419    5.3030 C   0  0  0  0  0  0  0  0  0  0  0  0
    8.5787   11.0770    5.1251 C   0  0  0  0  0  0  0  0  0  0  0  0
    9.2563   11.8892    5.3248 H   0  0  0  0  0  0  0  0  0  0  0  0
    7.3099   11.3720    4.7002 C   0  0  0  0  0  0  0  0  0  0  0  0
    7.0012   12.3972    4.5680 H   0  0  0  0  0  0  0  0  0  0  0  0
   11.2009   10.4880    6.0035 C   0  0  0  0  0  0  0  0  0  0  0  0
   11.3817   11.0969    5.1137 H   0  0  0  0  0  0  0  0  0  0  0  0
   12.1464   10.0487    6.3101 H   0  0  0  0  0  0  0  0  0  0  0  0
   10.8503   11.1393    6.8091 H   0  0  0  0  0  0  0  0  0  0  0  0
   10.6470    8.0672    5.9256 C   0  0  0  0  0  0  0  0  0  0  0  0
   10.0162    7.5768    6.6729 H   0  0  0  0  0  0  0  0  0  0  0  0
   11.6745    8.0337    6.2780 H   0  0  0  0  0  0  0  0  0  0  0  0
   10.5896    7.5012    4.9913 H   0  0  0  0  0  0  0  0  0  0  0  0
    1.0992   11.5472    1.9079 N   0  0  0  0  0  0  0  0  0  0  0  0
    3.0927   10.2113    2.9192 N   0  0  1  0  0  0  0  0  0  0  0  0
    4.2506    9.7948    3.3980 N   0  0  0  0  0  0  0  0  0  0  0  0
    4.6459    8.9066    3.0943 H   0  0  0  0  0  0  0  0  0  0  0  0
   10.2475    9.4397    5.7285 N   0  0  0  0  0  0  0  0  0  0  0  0
    4.6309   11.9125    4.0799 O   0  0  0  0  0  0  0  0  0  0  0  0
    2.2533   14.3582    3.2492 Cl  0  0  0  0  0  0  0  0  0  0  0  0
    4.3439   11.9376    0.8260 Cl  0  0  0  0  0  0  0  0  0  0  0  0
    3.0373   12.4200    2.6102 Zn  0  0  0  0  0  0  0  0  0  0  0  0
  1  2  1  0  0  0  0
  1 31  1  0  0  0  0
  3  1  1  0  0  0  0
  4  3  1  0  0  0  0
  5  3  2  0  0  0  0
  5  7  1  0  0  0  0
  6  5  1  0  0  0  0
  7  9  2  0  0  0  0
  8  7  1  0  0  0  0
  9 31  1  0  0  0  0
  9 10  1  0  0  0  0
 11 10  1  0  0  0  0
 12 36  1  0  0  0  0
 12 13  1  1  0  0  0
 13 14  2  0  0  0  0
 13 21  1  0  0  0  0
 14 16  1  0  0  0  0
 15 14  1  0  0  0  0
 16 17  1  0  0  0  0
 16 18  2  0  0  0  0
 18 35  1  0  0  0  0
 19 18  1  0  0  0  0
 19 20  1  0  0  0  0
 21 19  2  0  0  0  0
 22 21  1  0  0  0  0
 23 25  1  0  0  0  0
 23 26  1  0  0  0  0
 24 23  1  0  0  0  0
 27 29  1  0  0  0  0
 27 28  1  0  0  0  0
 30 27  1  0  0  0  0
 31 39  1  0  0  0  0
 32 10  1  6  0  0  0
 32 33  1  0  0  0  0
 33 12  1  0  0  0  0
 34 33  1  0  0  0  0
 35 27  1  0  0  0  0
 35 23  1  0  0  0  0
 38 39  1  0  0  0  0
 39 32  1  0  0  0  0
 39 37  1  0  0  0  0
 39 36  1  0  0  0  0
M  END
$$$$
