CSD_code = NEPQUW | q = 0 | S = 0 | Stoichiometry = C16H18Br2CdN2OS | MND = 5
 OpenBabel04212202073D

 41 44  0  0  0  0  0  0  0  0999 V2000
   -1.7367    4.7806   11.8410 C   0  0  0  0  0  0  0  0  0  0  0  0
   -1.0142    4.0151   11.5479 H   0  0  0  0  0  0  0  0  0  0  0  0
   -1.9971    5.3564   10.9527 H   0  0  0  0  0  0  0  0  0  0  0  0
   -2.6223    4.2827   12.2276 H   0  0  0  0  0  0  0  0  0  0  0  0
   -1.1228    5.6532   12.8784 C   0  0  0  0  0  0  0  0  0  0  0  0
   -1.2126    5.3138   14.2435 C   0  0  0  0  0  0  0  0  0  0  0  0
   -1.7309    4.4116   14.5283 H   0  0  0  0  0  0  0  0  0  0  0  0
   -0.6404    6.1263   15.1837 C   0  0  0  0  0  0  0  0  0  0  0  0
   -0.6935    5.8879   16.2364 H   0  0  0  0  0  0  0  0  0  0  0  0
    0.0215    7.2992   14.7747 C   0  0  0  0  0  0  0  0  0  0  0  0
    0.6087    8.2125   15.6922 C   0  0  0  0  0  0  0  0  0  0  0  0
    0.5584    7.9798   16.7457 H   0  0  0  0  0  0  0  0  0  0  0  0
    1.2040    9.3495   15.2578 C   0  0  0  0  0  0  0  0  0  0  0  0
    1.6389   10.0512   15.9543 H   0  0  0  0  0  0  0  0  0  0  0  0
    1.2683    9.6535   13.8706 C   0  0  0  0  0  0  0  0  0  0  0  0
    1.8468   10.8351   13.3741 C   0  0  0  0  0  0  0  0  0  0  0  0
    2.2752   11.5466   14.0657 H   0  0  0  0  0  0  0  0  0  0  0  0
    1.8454   11.0738   12.0253 C   0  0  0  0  0  0  0  0  0  0  0  0
    2.2644   11.9834   11.6234 H   0  0  0  0  0  0  0  0  0  0  0  0
    1.2977   10.1179   11.1492 C   0  0  0  0  0  0  0  0  0  0  0  0
    1.2618   10.3447    9.6777 C   0  0  0  0  0  0  0  0  0  0  0  0
    0.2356   10.2618    9.3162 H   0  0  0  0  0  0  0  0  0  0  0  0
    1.8454    9.5727    9.1721 H   0  0  0  0  0  0  0  0  0  0  0  0
    1.6587   11.3220    9.4177 H   0  0  0  0  0  0  0  0  0  0  0  0
    0.7321    8.7514   12.9248 C   0  0  0  0  0  0  0  0  0  0  0  0
    0.0795    7.5555   13.3881 C   0  0  0  0  0  0  0  0  0  0  0  0
    3.5052    5.5410    7.4954 C   0  0  0  0  0  0  0  0  0  0  0  0
    3.7892    4.9880    8.3844 H   0  0  0  0  0  0  0  0  0  0  0  0
    4.2268    6.3227    7.2914 H   0  0  0  0  0  0  0  0  0  0  0  0
    3.4076    4.8633    6.6563 H   0  0  0  0  0  0  0  0  0  0  0  0
    1.7486    7.1400    6.2073 C   0  0  0  0  0  0  0  0  0  0  0  0
    2.5817    7.8232    6.0929 H   0  0  0  0  0  0  0  0  0  0  0  0
    0.8093    7.6828    6.2008 H   0  0  0  0  0  0  0  0  0  0  0  0
    1.7438    6.3894    5.4268 H   0  0  0  0  0  0  0  0  0  0  0  0
   -0.4820    6.7362   12.4834 N   0  0  0  0  0  0  0  0  0  0  0  0
    0.7852    8.9902   11.6040 N   0  0  0  0  0  0  0  0  0  0  0  0
    2.1887    7.4106    8.7655 O   0  0  0  0  0  0  0  0  0  0  0  0
    0.5417    7.0104   10.3364 Cd  0  0  0  0  0  0  0  0  0  0  0  0
   -1.1253    7.0947    8.4875 Br  0  0  0  0  0  0  0  0  0  0  0  0
    1.6111    4.7221   10.4934 Br  0  0  0  0  0  0  0  0  0  0  0  0
    1.8731    6.2942    7.8242 S   0  0  0  0  0  3  0  0  0  0  0  0
  1  4  1  0  0  0  0
  1  5  1  0  0  0  0
  2  1  1  0  0  0  0
  3  1  1  0  0  0  0
  5  6  2  0  0  0  0
  6  7  1  0  0  0  0
  6  8  1  0  0  0  0
  8  9  1  0  0  0  0
 10  8  2  0  0  0  0
 10 11  1  0  0  0  0
 11 12  1  0  0  0  0
 13 11  2  0  0  0  0
 13 14  1  0  0  0  0
 15 13  1  0  0  0  0
 16 15  2  0  0  0  0
 16 17  1  0  0  0  0
 18 16  1  0  0  0  0
 19 18  1  0  0  0  0
 20 36  1  0  0  0  0
 20 18  2  0  0  0  0
 21 20  1  0  0  0  0
 22 21  1  0  0  0  0
 23 21  1  0  0  0  0
 24 21  1  0  0  0  0
 25 26  2  0  0  0  0
 25 15  1  0  0  0  0
 26 10  1  0  0  0  0
 27 41  1  0  0  0  0
 27 28  1  0  0  0  0
 29 27  1  0  0  0  0
 30 27  1  0  0  0  0
 31 41  1  0  0  0  0
 32 31  1  0  0  0  0
 33 31  1  0  0  0  0
 34 31  1  0  0  0  0
 35  5  1  0  0  0  0
 35 26  1  0  0  0  0
 36 25  1  0  0  0  0
 37 38  1  0  0  0  0
 38 40  1  0  0  0  0
 38 36  1  0  0  0  0
 38 35  1  0  0  0  0
 39 38  1  0  0  0  0
 41 37  1  0  0  0  0
M  END
$$$$
