CSD_code = NERHOI | q = 0 | S = 0 | Stoichiometry = C8H12Cl4N4Pt | MND = 6
 OpenBabel04212202073D

 29 30  0  0  1  0  0  0  0  0999 V2000
   -0.4138    7.3073    2.5992 Pt  0  0  0  0  0  0  0  0  0  0  0  0
    0.1184    7.2825    4.9118 Cl  0  0  0  0  0  0  0  0  0  0  0  0
   -0.4140    4.9184    2.5989 Cl  0  0  0  0  0  0  0  0  0  0  0  0
   -0.4135    9.6762    2.5992 Cl  0  0  0  0  0  0  0  0  0  0  0  0
    1.5176    7.2817    2.0891 N   0  0  0  0  0  0  0  0  0  0  0  0
    1.9080    6.6866    0.9593 N   0  0  0  0  0  0  0  0  0  0  0  0
    1.1997    6.3399    0.3142 H   0  0  0  0  0  0  0  0  0  0  0  0
    3.2411    6.7452    0.8144 C   0  0  2  0  0  3  0  0  0  0  0  0
    3.9372    6.1643   -0.3574 C   0  0  0  0  0  0  0  0  0  0  0  0
    3.8153    5.0819   -0.3715 H   0  0  0  0  0  0  0  0  0  0  0  0
    4.9968    6.3971   -0.3146 H   0  0  0  0  0  0  0  0  0  0  0  0
    3.5222    6.5626   -1.2817 H   0  0  0  0  0  0  0  0  0  0  0  0
    3.7252    7.4077    1.9293 C   0  0  0  0  0  0  0  0  0  0  0  0
    4.7456    7.6338    2.1577 H   0  0  0  0  0  0  0  0  0  0  0  0
    2.6072    7.7252    2.6978 C   0  0  0  0  0  0  0  0  0  0  0  0
    2.5561    8.2440    3.6361 H   0  0  0  0  0  0  0  0  0  0  0  0
   -0.9461    7.2825    0.2864 Cl  0  0  0  0  0  0  0  0  0  0  0  0
   -2.3452    7.2821    3.1091 N   0  0  0  0  0  0  0  0  0  0  0  0
   -2.7357    6.6870    4.2389 N   0  0  0  0  0  0  0  0  0  0  0  0
   -2.0276    6.3406    4.8842 H   0  0  0  0  0  0  0  0  0  0  0  0
   -4.0689    6.7452    4.3833 C   0  0  2  0  0  3  0  0  0  0  0  0
   -4.7653    6.1642    5.5549 C   0  0  0  0  0  0  0  0  0  0  0  0
   -4.6434    5.0818    5.5689 H   0  0  0  0  0  0  0  0  0  0  0  0
   -5.8249    6.3971    5.5119 H   0  0  0  0  0  0  0  0  0  0  0  0
   -4.3505    6.5624    6.4794 H   0  0  0  0  0  0  0  0  0  0  0  0
   -4.5529    7.4074    3.2682 C   0  0  0  0  0  0  0  0  0  0  0  0
   -5.5733    7.6332    3.0394 H   0  0  0  0  0  0  0  0  0  0  0  0
   -3.4347    7.7251    2.4999 C   0  0  0  0  0  0  0  0  0  0  0  0
   -3.3835    8.2437    1.5615 H   0  0  0  0  0  0  0  0  0  0  0  0
  1  4  1  0  0  0  0
  1 18  1  0  0  0  0
  1  2  1  0  0  0  0
  3  1  1  0  0  0  0
  5  1  1  0  0  0  0
  5 15  1  0  0  0  0
  6  5  1  0  0  0  0
  7  6  1  0  0  0  0
  8  9  1  1  0  0  0
  8  6  1  0  0  0  0
  8 13  1  0  0  0  0
  9 11  1  0  0  0  0
 10  9  1  0  0  0  0
 12  9  1  0  0  0  0
 13 14  1  0  0  0  0
 13 15  2  0  0  0  0
 15 16  1  0  0  0  0
 17  1  1  0  0  0  0
 18 19  1  0  0  0  0
 19 21  1  0  0  0  0
 19 20  1  0  0  0  0
 21 22  1  6  0  0  0
 22 23  1  0  0  0  0
 22 25  1  0  0  0  0
 24 22  1  0  0  0  0
 26 21  1  0  0  0  0
 27 26  1  0  0  0  0
 28 18  1  0  0  0  0
 28 26  2  0  0  0  0
 29 28  1  0  0  0  0
M  END
$$$$
