CSD_code = NERHEY | q = 0 | S = 0 | Stoichiometry = C10H16Cl2N4Pt | MND = 4
 OpenBabel04212202073D

 33 34  0  0  1  0  0  0  0  0999 V2000
    3.1848   11.5466    5.2388 Pt  0  0  0  0  0  0  0  0  0  0  0  0
    1.0480   12.3824    5.5673 Cl  0  0  0  0  0  0  0  0  0  0  0  0
    5.1896   10.5773    4.5963 Cl  0  0  0  0  0  0  0  0  0  0  0  0
    3.5997   13.2488    4.3073 N   0  0  0  0  0  0  0  0  0  0  0  0
    2.6783   13.7678    3.4823 N   0  0  0  0  0  0  0  0  0  0  0  0
    1.7336   13.3936    3.5195 H   0  0  0  0  0  0  0  0  0  0  0  0
    2.7486    9.8244    6.1225 N   0  0  0  0  0  0  0  0  0  0  0  0
    3.0591    8.6832    5.4894 N   0  0  0  0  0  0  0  0  0  0  0  0
    3.6877    8.7319    4.6917 H   0  0  0  0  0  0  0  0  0  0  0  0
    3.1228   14.8973    2.9013 C   0  0  2  0  0  3  0  0  0  0  0  0
    2.2922   15.6823    1.9556 C   0  0  0  0  0  0  0  0  0  0  0  0
    2.0979   15.1070    1.0509 H   0  0  0  0  0  0  0  0  0  0  0  0
    2.8056   16.5992    1.6823 H   0  0  0  0  0  0  0  0  0  0  0  0
    1.3346   15.9329    2.4094 H   0  0  0  0  0  0  0  0  0  0  0  0
    4.4087   15.0888    3.3624 C   0  0  0  0  0  0  0  0  0  0  0  0
    5.0771   15.8846    3.1066 H   0  0  0  0  0  0  0  0  0  0  0  0
    4.6684   14.0346    4.2511 C   0  0  0  0  0  0  0  0  0  0  0  0
    5.8924   13.7854    5.0537 C   0  0  0  0  0  0  0  0  0  0  0  0
    5.6471   13.1667    5.9169 H   0  0  0  0  0  0  0  0  0  0  0  0
    6.3220   14.7268    5.3879 H   0  0  0  0  0  0  0  0  0  0  0  0
    6.6352   13.2565    4.4574 H   0  0  0  0  0  0  0  0  0  0  0  0
    2.6630    7.6086    6.1959 C   0  0  2  0  0  3  0  0  0  0  0  0
    2.9002    6.2205    5.7295 C   0  0  0  0  0  0  0  0  0  0  0  0
    2.5842    5.5135    6.4906 H   0  0  0  0  0  0  0  0  0  0  0  0
    3.9572    6.0663    5.5184 H   0  0  0  0  0  0  0  0  0  0  0  0
    2.3404    6.0245    4.8156 H   0  0  0  0  0  0  0  0  0  0  0  0
    2.0412    8.0970    7.3263 C   0  0  0  0  0  0  0  0  0  0  0  0
    1.5927    7.5297    8.1153 H   0  0  0  0  0  0  0  0  0  0  0  0
    2.1231    9.4953    7.2466 C   0  0  0  0  0  0  0  0  0  0  0  0
    1.6446   10.5043    8.2252 C   0  0  0  0  0  0  0  0  0  0  0  0
    1.7567   10.1282    9.2393 H   0  0  0  0  0  0  0  0  0  0  0  0
    0.5930   10.7308    8.0524 H   0  0  0  0  0  0  0  0  0  0  0  0
    2.2132   11.4270    8.1105 H   0  0  0  0  0  0  0  0  0  0  0  0
  1  2  1  0  0  0  0
  1  7  1  0  0  0  0
  3  1  1  0  0  0  0
  4  1  1  0  0  0  0
  5  6  1  0  0  0  0
  5  4  1  0  0  0  0
  7 29  1  0  0  0  0
  8  7  1  0  0  0  0
  8 22  1  0  0  0  0
  9  8  1  0  0  0  0
 10 11  1  6  0  0  0
 10 15  1  0  0  0  0
 10  5  1  0  0  0  0
 11 14  1  0  0  0  0
 12 11  1  0  0  0  0
 13 11  1  0  0  0  0
 15 17  2  0  0  0  0
 16 15  1  0  0  0  0
 17  4  1  0  0  0  0
 17 18  1  0  0  0  0
 18 20  1  0  0  0  0
 18 19  1  0  0  0  0
 21 18  1  0  0  0  0
 22 23  1  6  0  0  0
 22 27  1  0  0  0  0
 23 24  1  0  0  0  0
 25 23  1  0  0  0  0
 26 23  1  0  0  0  0
 27 28  1  0  0  0  0
 29 27  2  0  0  0  0
 29 30  1  0  0  0  0
 30 31  1  0  0  0  0
 32 30  1  0  0  0  0
 33 30  1  0  0  0  0
M  END
$$$$
