CSD_code = NERHIC | q = 0 | S = 0 | Stoichiometry = C10H16Cl4N4Pt | MND = 6
 OpenBabel04212202073D

 35 36  0  0  1  0  0  0  0  0999 V2000
    5.5299   -0.4245    7.2113 Pt  0  0  0  0  0  0  0  0  0  0  0  0
    5.9264   -2.6969    7.2083 Cl  0  0  0  0  0  0  0  0  0  0  0  0
    3.6790   -0.7493    8.6616 Cl  0  0  0  0  0  0  0  0  0  0  0  0
    6.8347   -0.1362    9.0922 Cl  0  0  0  0  0  0  0  0  0  0  0  0
    7.4538   -0.1766    5.8403 Cl  0  0  0  0  0  0  0  0  0  0  0  0
    5.1412    1.6320    7.3062 N   0  0  0  0  0  0  0  0  0  0  0  0
    4.8145    2.1068    8.5127 N   0  0  0  0  0  0  0  0  0  0  0  0
    4.7535    1.4662    9.2981 H   0  0  0  0  0  0  0  0  0  0  0  0
    4.4209   -0.7344    5.4607 N   0  0  0  0  0  0  0  0  0  0  0  0
    5.0132   -1.4865    4.5270 N   0  0  0  0  0  0  0  0  0  0  0  0
    5.9544   -1.8307    4.6918 H   0  0  0  0  0  0  0  0  0  0  0  0
    5.1582    2.6589    6.4613 C   0  0  1  0  0  3  0  0  0  0  0  0
    5.4758    2.5275    5.0177 C   0  0  0  0  0  0  0  0  0  0  0  0
    6.2792    1.8072    4.8773 H   0  0  0  0  0  0  0  0  0  0  0  0
    5.7771    3.4913    4.6173 H   0  0  0  0  0  0  0  0  0  0  0  0
    4.6060    2.1785    4.4620 H   0  0  0  0  0  0  0  0  0  0  0  0
    4.8268    3.8209    7.1693 C   0  0  0  0  0  0  0  0  0  0  0  0
    4.7601    4.8116    6.7698 H   0  0  0  0  0  0  0  0  0  0  0  0
    4.6164    3.4319    8.4797 C   0  0  0  0  0  0  0  0  0  0  0  0
    4.2462    4.2089    9.6858 C   0  0  0  0  0  0  0  0  0  0  0  0
    3.2973    3.8563   10.0871 H   0  0  0  0  0  0  0  0  0  0  0  0
    4.1562    5.2624    9.4396 H   0  0  0  0  0  0  0  0  0  0  0  0
    5.0036    4.0893   10.4586 H   0  0  0  0  0  0  0  0  0  0  0  0
    3.2139   -0.4081    5.0073 C   0  0  1  0  0  3  0  0  0  0  0  0
    2.2536    0.4335    5.7632 C   0  0  0  0  0  0  0  0  0  0  0  0
    2.2901    0.1824    6.8212 H   0  0  0  0  0  0  0  0  0  0  0  0
    1.2474    0.2747    5.3857 H   0  0  0  0  0  0  0  0  0  0  0  0
    2.5005    1.4895    5.6567 H   0  0  0  0  0  0  0  0  0  0  0  0
    3.0481   -0.9775    3.7386 C   0  0  0  0  0  0  0  0  0  0  0  0
    2.1818   -0.8994    3.1149 H   0  0  0  0  0  0  0  0  0  0  0  0
    4.2177   -1.6626    3.4632 C   0  0  0  0  0  0  0  0  0  0  0  0
    4.6292   -2.4678    2.2895 C   0  0  0  0  0  0  0  0  0  0  0  0
    5.6086   -2.1510    1.9362 H   0  0  0  0  0  0  0  0  0  0  0  0
    3.9067   -2.3574    1.4867 H   0  0  0  0  0  0  0  0  0  0  0  0
    4.6931   -3.5209    2.5604 H   0  0  0  0  0  0  0  0  0  0  0  0
  1  6  1  0  0  0  0
  1  3  1  0  0  0  0
  1  4  1  0  0  0  0
  2  1  1  0  0  0  0
  5  1  1  0  0  0  0
  6  7  1  0  0  0  0
  7  8  1  0  0  0  0
  9  1  1  0  0  0  0
 10 11  1  0  0  0  0
 10  9  1  0  0  0  0
 12 13  1  6  0  0  0
 12 17  1  0  0  0  0
 12  6  1  0  0  0  0
 14 13  1  0  0  0  0
 15 13  1  0  0  0  0
 16 13  1  0  0  0  0
 17 19  2  0  0  0  0
 18 17  1  0  0  0  0
 19  7  1  0  0  0  0
 19 20  1  0  0  0  0
 20 21  1  0  0  0  0
 20 23  1  0  0  0  0
 22 20  1  0  0  0  0
 24  9  1  0  0  0  0
 24 25  1  6  0  0  0
 25 26  1  0  0  0  0
 27 25  1  0  0  0  0
 28 25  1  0  0  0  0
 29 24  1  0  0  0  0
 30 29  1  0  0  0  0
 31 29  2  0  0  0  0
 31 10  1  0  0  0  0
 32 35  1  0  0  0  0
 32 31  1  0  0  0  0
 33 32  1  0  0  0  0
 34 32  1  0  0  0  0
M  END
$$$$
