CSD_code = NESBUJ | q = 1 | S = 0 | Stoichiometry = C24H18ClN4NiO(1+) | MND = 6
 OpenBabel04212202073D

 49 55  0  0  0  0  0  0  0  0999 V2000
    7.5877   13.3435    9.9394 C   0  0  0  0  0  0  0  0  0  0  0  0
    8.3841   14.0682    9.8271 H   0  0  0  0  0  0  0  0  0  0  0  0
    6.4901   13.6226   10.7610 C   0  0  0  0  0  0  0  0  0  0  0  0
    6.4412   14.5592   11.2925 H   0  0  0  0  0  0  0  0  0  0  0  0
    5.4879   12.6901   10.8678 C   0  0  0  0  0  0  0  0  0  0  0  0
    4.6200   12.8686   11.4849 H   0  0  0  0  0  0  0  0  0  0  0  0
    5.5990   11.4803   10.1610 C   0  0  0  0  0  0  0  0  0  0  0  0
    6.7563   11.2885    9.3752 C   0  0  0  0  0  0  0  0  0  0  0  0
    6.9302   10.0537    8.6588 C   0  0  0  0  0  0  0  0  0  0  0  0
    4.6048   10.4623   10.2111 C   0  0  0  0  0  0  0  0  0  0  0  0
    3.7296   10.6326   10.8195 H   0  0  0  0  0  0  0  0  0  0  0  0
    4.7540    9.3108    9.5148 C   0  0  0  0  0  0  0  0  0  0  0  0
    3.9996    8.5399    9.5501 H   0  0  0  0  0  0  0  0  0  0  0  0
    5.9162    9.0709    8.7261 C   0  0  0  0  0  0  0  0  0  0  0  0
    6.1081    7.8748    8.0164 C   0  0  0  0  0  0  0  0  0  0  0  0
    5.3547    7.1030    8.0570 H   0  0  0  0  0  0  0  0  0  0  0  0
    7.2614    7.7059    7.2899 C   0  0  0  0  0  0  0  0  0  0  0  0
    7.4461    6.8015    6.7333 H   0  0  0  0  0  0  0  0  0  0  0  0
    8.2193    8.7200    7.2931 C   0  0  0  0  0  0  0  0  0  0  0  0
    9.1440    8.5939    6.7449 H   0  0  0  0  0  0  0  0  0  0  0  0
    8.0415   11.8634    5.4819 C   0  0  0  0  0  0  0  0  0  0  0  0
    7.4194   10.9845    5.5896 H   0  0  0  0  0  0  0  0  0  0  0  0
    7.8654   12.7040    4.3788 C   0  0  0  0  0  0  0  0  0  0  0  0
    7.1108   12.4657    3.6465 H   0  0  0  0  0  0  0  0  0  0  0  0
    8.6571   13.8193    4.2447 C   0  0  0  0  0  0  0  0  0  0  0  0
    8.5458   14.4870    3.4039 H   0  0  0  0  0  0  0  0  0  0  0  0
    9.6274   14.0842    5.2249 C   0  0  0  0  0  0  0  0  0  0  0  0
    9.7278   13.1762    6.3000 C   0  0  0  0  0  0  0  0  0  0  0  0
   10.6970   13.3905    7.3269 C   0  0  0  0  0  0  0  0  0  0  0  0
   10.5036   15.2072    5.1855 C   0  0  0  0  0  0  0  0  0  0  0  0
   10.4147   15.8929    4.3568 H   0  0  0  0  0  0  0  0  0  0  0  0
   11.4249   15.4100    6.1587 C   0  0  0  0  0  0  0  0  0  0  0  0
   12.0871   16.2614    6.1225 H   0  0  0  0  0  0  0  0  0  0  0  0
   11.5515   14.5103    7.2573 C   0  0  0  0  0  0  0  0  0  0  0  0
   12.4921   14.6739    8.2883 C   0  0  0  0  0  0  0  0  0  0  0  0
   13.1680   15.5155    8.2699 H   0  0  0  0  0  0  0  0  0  0  0  0
   12.5304   13.7473    9.3010 C   0  0  0  0  0  0  0  0  0  0  0  0
   13.2386   13.8335   10.1092 H   0  0  0  0  0  0  0  0  0  0  0  0
   11.6416   12.6672    9.2865 C   0  0  0  0  0  0  0  0  0  0  0  0
   11.6671   11.9280   10.0771 H   0  0  0  0  0  0  0  0  0  0  0  0
   10.1023   10.0058    9.7556 Cl  0  0  0  0  0  0  0  0  0  0  0  0
   11.3583    9.4442    6.2204 H   0  0  0  0  0  0  0  0  0  0  0  0
   11.7260    9.7061    7.7047 H   0  0  0  0  0  0  0  0  0  0  0  0
   10.7502   12.4898    8.3319 N   0  0  0  0  0  0  0  0  0  0  0  0
    8.9419   12.0868    6.4168 N   0  0  0  0  0  0  0  0  0  0  0  0
    7.7203   12.2227    9.2680 N   0  0  0  0  0  0  0  0  0  0  0  0
    8.0650    9.8517    7.9539 N   0  0  0  0  0  0  0  0  0  0  0  0
    9.4320   11.1259    8.0991 Ni  0  0  0  0  0  0  0  0  0  0  0  0
   11.3441   10.1096    6.9127 O   0  0  0  0  0  0  0  0  0  0  0  0
  1  3  2  0  0  0  0
  2  1  1  0  0  0  0
  3  5  1  0  0  0  0
  3  4  1  0  0  0  0
  5  6  1  0  0  0  0
  7 10  1  0  0  0  0
  7  5  2  0  0  0  0
  8  7  1  0  0  0  0
  9 14  1  0  0  0  0
  9  8  2  0  0  0  0
 10 11  1  0  0  0  0
 12 13  1  0  0  0  0
 12 10  2  0  0  0  0
 14 12  1  0  0  0  0
 15 16  1  0  0  0  0
 15 14  2  0  0  0  0
 17 19  2  0  0  0  0
 17 15  1  0  0  0  0
 18 17  1  0  0  0  0
 19 47  1  0  0  0  0
 20 19  1  0  0  0  0
 21 22  1  0  0  0  0
 21 45  1  0  0  0  0
 23 21  2  0  0  0  0
 24 23  1  0  0  0  0
 25 23  1  0  0  0  0
 25 27  2  0  0  0  0
 26 25  1  0  0  0  0
 27 28  1  0  0  0  0
 28 45  1  0  0  0  0
 28 29  2  0  0  0  0
 29 44  1  0  0  0  0
 30 27  1  0  0  0  0
 30 32  2  0  0  0  0
 31 30  1  0  0  0  0
 32 34  1  0  0  0  0
 33 32  1  0  0  0  0
 34 29  1  0  0  0  0
 34 35  2  0  0  0  0
 35 37  1  0  0  0  0
 36 35  1  0  0  0  0
 37 38  1  0  0  0  0
 39 37  2  0  0  0  0
 39 40  1  0  0  0  0
 42 49  1  0  0  0  0
 44 39  1  0  0  0  0
 45 48  1  0  0  0  0
 46  8  1  0  0  0  0
 46  1  1  0  0  0  0
 47 48  1  0  0  0  0
 47  9  1  0  0  0  0
 48 44  1  0  0  0  0
 48 46  1  0  0  0  0
 48 41  1  0  0  0  0
 49 43  1  0  0  0  0
M  END
$$$$
