CSD_code = NESDAR | q = 0 | S = 0 | Stoichiometry = C20H24Cl2N2O4Zn | MND = 4
 OpenBabel04212202073D

 53 53  0  0  0  0  0  0  0  0999 V2000
    2.8460    8.1574    2.0878 Zn  0  0  0  0  0  0  0  0  0  0  0  0
    2.8959    9.1813    4.0172 Cl  0  0  0  0  0  0  0  0  0  0  0  0
    2.9401    6.0908    1.3199 Cl  0  0  0  0  0  0  0  0  0  0  0  0
    4.4757    9.3970    1.2222 O   0  0  0  0  0  0  0  0  0  0  0  0
    4.3326   10.4161    1.1609 H   0  0  0  0  0  0  0  0  0  0  0  0
    7.7803    6.5927    3.2103 O   0  0  0  0  0  0  0  0  0  0  0  0
    1.5401    9.3667    0.9209 O   0  0  0  0  0  0  0  0  0  0  0  0
    1.7744   10.3777    1.0569 H   0  0  0  0  0  0  0  0  0  0  0  0
    0.4082    6.7036   -2.8713 O   0  0  0  0  0  0  0  0  0  0  0  0
    4.7615   11.8667    1.4321 N   0  0  0  0  0  0  0  0  0  0  0  0
    2.0583   11.7429    0.5560 N   0  0  0  0  0  0  0  0  0  0  0  0
    6.5907   12.9096    2.7335 C   0  0  0  0  0  0  0  0  0  0  0  0
    6.1169   13.8648    2.5287 H   0  0  0  0  0  0  0  0  0  0  0  0
    7.5966   12.9330    2.3186 H   0  0  0  0  0  0  0  0  0  0  0  0
    6.6605   12.7815    3.8115 H   0  0  0  0  0  0  0  0  0  0  0  0
    5.8228   11.7625    2.1383 C   0  0  0  0  0  0  0  0  0  0  0  0
    6.3344   10.4147    2.3761 C   0  0  0  0  0  0  0  0  0  0  0  0
    5.6326    9.2796    1.9212 C   0  0  0  0  0  0  0  0  0  0  0  0
    6.0990    7.9979    2.1769 C   0  0  0  0  0  0  0  0  0  0  0  0
    5.5180    7.1728    1.7952 H   0  0  0  0  0  0  0  0  0  0  0  0
    7.2666    7.7983    2.8993 C   0  0  0  0  0  0  0  0  0  0  0  0
    7.9813    8.9182    3.3457 C   0  0  0  0  0  0  0  0  0  0  0  0
    8.8903    8.7585    3.9025 H   0  0  0  0  0  0  0  0  0  0  0  0
    7.5207   10.1837    3.0882 C   0  0  0  0  0  0  0  0  0  0  0  0
    8.0961   11.0175    3.4555 H   0  0  0  0  0  0  0  0  0  0  0  0
    7.0632    5.4353    2.8339 C   0  0  0  0  0  0  0  0  0  0  0  0
    6.0571    5.4319    3.2618 H   0  0  0  0  0  0  0  0  0  0  0  0
    7.6308    4.5961    3.2320 H   0  0  0  0  0  0  0  0  0  0  0  0
    6.9935    5.3448    1.7462 H   0  0  0  0  0  0  0  0  0  0  0  0
    1.8143   12.8899   -1.6171 C   0  0  0  0  0  0  0  0  0  0  0  0
    2.0263   13.8077   -1.0760 H   0  0  0  0  0  0  0  0  0  0  0  0
    0.8617   13.0018   -2.1306 H   0  0  0  0  0  0  0  0  0  0  0  0
    2.5923   12.7400   -2.3638 H   0  0  0  0  0  0  0  0  0  0  0  0
    1.7634   11.7080   -0.6900 C   0  0  0  0  0  0  0  0  0  0  0  0
    1.3601   10.4167   -1.2354 C   0  0  0  0  0  0  0  0  0  0  0  0
    1.2927    9.2742   -0.4068 C   0  0  0  0  0  0  0  0  0  0  0  0
    0.9625    8.0313   -0.9246 C   0  0  0  0  0  0  0  0  0  0  0  0
    0.9440    7.1989   -0.2410 H   0  0  0  0  0  0  0  0  0  0  0  0
    0.7024    7.8752   -2.2792 C   0  0  0  0  0  0  0  0  0  0  0  0
    0.7468    9.0045   -3.1099 C   0  0  0  0  0  0  0  0  0  0  0  0
    0.5351    8.8778   -4.1591 H   0  0  0  0  0  0  0  0  0  0  0  0
    1.0674   10.2344   -2.5952 C   0  0  0  0  0  0  0  0  0  0  0  0
    1.1047   11.0756   -3.2682 H   0  0  0  0  0  0  0  0  0  0  0  0
    0.3988    5.5316   -2.0806 C   0  0  0  0  0  0  0  0  0  0  0  0
    1.3583    5.3780   -1.5802 H   0  0  0  0  0  0  0  0  0  0  0  0
    0.2113    4.7127   -2.7727 H   0  0  0  0  0  0  0  0  0  0  0  0
   -0.3984    5.5659   -1.3328 H   0  0  0  0  0  0  0  0  0  0  0  0
    4.0690   13.0631    1.0721 C   0  0  0  0  0  0  0  0  0  0  0  0
    4.2543   13.2374    0.0051 H   0  0  0  0  0  0  0  0  0  0  0  0
    4.3765   13.9575    1.6278 H   0  0  0  0  0  0  0  0  0  0  0  0
    2.5561   12.8637    1.2925 C   0  0  0  0  0  0  0  0  0  0  0  0
    2.3863   12.6352    2.3485 H   0  0  0  0  0  0  0  0  0  0  0  0
    2.0428   13.8025    1.0486 H   0  0  0  0  0  0  0  0  0  0  0  0
  1  2  1  0  0  0  0
  3  1  1  0  0  0  0
  4 18  1  0  0  0  0
  5  4  1  0  0  0  0
  7  8  1  0  0  0  0
  9 39  1  0  0  0  0
  9 44  1  0  0  0  0
 10 16  2  0  0  0  0
 11 51  1  0  0  0  0
 12 15  1  0  0  0  0
 13 12  1  0  0  0  0
 14 12  1  0  0  0  0
 16 17  1  0  0  0  0
 16 12  1  0  0  0  0
 17 24  1  0  0  0  0
 18 19  1  0  0  0  0
 18 17  2  0  0  0  0
 19 21  2  0  0  0  0
 20 19  1  0  0  0  0
 21  6  1  0  0  0  0
 21 22  1  0  0  0  0
 22 23  1  0  0  0  0
 24 22  2  0  0  0  0
 24 25  1  0  0  0  0
 26  6  1  0  0  0  0
 26 28  1  0  0  0  0
 26 27  1  0  0  0  0
 29 26  1  0  0  0  0
 30 31  1  0  0  0  0
 30 34  1  0  0  0  0
 32 30  1  0  0  0  0
 33 30  1  0  0  0  0
 34 11  2  0  0  0  0
 35 34  1  0  0  0  0
 35 36  1  0  0  0  0
 36  7  1  0  0  0  0
 37 36  2  0  0  0  0
 37 38  1  0  0  0  0
 39 37  1  0  0  0  0
 40 42  1  0  0  0  0
 40 39  2  0  0  0  0
 41 40  1  0  0  0  0
 42 35  2  0  0  0  0
 43 42  1  0  0  0  0
 44 45  1  0  0  0  0
 44 47  1  0  0  0  0
 46 44  1  0  0  0  0
 48 51  1  0  0  0  0
 48 10  1  0  0  0  0
 48 50  1  0  0  0  0
 49 48  1  0  0  0  0
 51 52  1  0  0  0  0
 53 51  1  0  0  0  0
M  END
$$$$
