CSD_code = NESHOJ | q = 0 | S = 0 | Stoichiometry = C17H18Cl2N2O2Pd | MND = 4
 OpenBabel04212202073D

 42 44  0  0  0  0  0  0  0  0999 V2000
   14.2819    4.1757    9.8707 Pd  0  0  0  0  0  0  0  0  0  0  0  0
   15.0943    6.1421    9.1572 Cl  0  0  0  0  0  0  0  0  0  0  0  0
   13.1926    5.2172   11.5046 Cl  0  0  0  0  0  0  0  0  0  0  0  0
   15.2717    3.1170    8.5498 N   0  0  0  0  0  0  0  0  0  0  0  0
   13.2324    2.4865    9.9137 N   0  0  0  0  0  0  0  0  0  0  0  0
   18.2367    4.9964    8.4093 O   0  0  0  0  0  0  0  0  0  0  0  0
   17.0482    4.2175   10.1704 O   0  0  0  0  0  0  0  0  0  0  0  0
   17.7161    5.1211   11.0498 C   0  0  0  0  0  0  0  0  0  0  0  0
   17.6287    4.6996   12.0486 H   0  0  0  0  0  0  0  0  0  0  0  0
   17.2193    6.0932   10.9992 H   0  0  0  0  0  0  0  0  0  0  0  0
   18.7613    5.2265   10.7531 H   0  0  0  0  0  0  0  0  0  0  0  0
   17.3326    4.3502    8.8636 C   0  0  0  0  0  0  0  0  0  0  0  0
   16.4887    3.3878    8.0751 C   0  0  0  0  0  0  0  0  0  0  0  0
   17.0111    2.7144    6.9813 C   0  0  0  0  0  0  0  0  0  0  0  0
   17.9845    2.9908    6.6102 H   0  0  0  0  0  0  0  0  0  0  0  0
   16.2620    1.6933    6.4045 C   0  0  0  0  0  0  0  0  0  0  0  0
   16.6310    1.1700    5.5363 H   0  0  0  0  0  0  0  0  0  0  0  0
   15.0651    1.3215    6.9895 C   0  0  0  0  0  0  0  0  0  0  0  0
   14.5007    0.4862    6.6072 H   0  0  0  0  0  0  0  0  0  0  0  0
   14.5881    2.0477    8.0834 C   0  0  0  0  0  0  0  0  0  0  0  0
   13.4099    1.7361    8.8717 C   0  0  0  0  0  0  0  0  0  0  0  0
   12.5324    0.5744    8.5214 C   0  0  0  0  0  0  0  0  0  0  0  0
   11.7230    0.4825    9.2420 H   0  0  0  0  0  0  0  0  0  0  0  0
   13.1133   -0.3474    8.5253 H   0  0  0  0  0  0  0  0  0  0  0  0
   12.1104    0.7016    7.5253 H   0  0  0  0  0  0  0  0  0  0  0  0
   12.1499    2.3589   10.7927 C   0  0  0  0  0  0  0  0  0  0  0  0
   12.3862    1.8347   12.0668 C   0  0  0  0  0  0  0  0  0  0  0  0
   11.3198    1.7367   12.9455 C   0  0  0  0  0  0  0  0  0  0  0  0
   11.4825    1.3270   13.9310 H   0  0  0  0  0  0  0  0  0  0  0  0
   10.0620    2.1823   12.5781 C   0  0  0  0  0  0  0  0  0  0  0  0
    9.2402    2.1032   13.2733 H   0  0  0  0  0  0  0  0  0  0  0  0
    9.8627    2.7729   11.3422 C   0  0  0  0  0  0  0  0  0  0  0  0
    8.8938    3.1742   11.0857 H   0  0  0  0  0  0  0  0  0  0  0  0
   10.9013    2.8793   10.4313 C   0  0  0  0  0  0  0  0  0  0  0  0
   10.7584    3.6164    9.1334 C   0  0  0  0  0  0  0  0  0  0  0  0
   11.5790    4.3477    9.0367 H   0  0  0  0  0  0  0  0  0  0  0  0
    9.8159    4.1551    9.1061 H   0  0  0  0  0  0  0  0  0  0  0  0
   10.7975    2.9430    8.2768 H   0  0  0  0  0  0  0  0  0  0  0  0
   13.7859    1.4548   12.4386 C   0  0  0  0  0  0  0  0  0  0  0  0
   13.8562    1.2308   13.4991 H   0  0  0  0  0  0  0  0  0  0  0  0
   14.4552    2.2955   12.2047 H   0  0  0  0  0  0  0  0  0  0  0  0
   14.1265    0.5865   11.8727 H   0  0  0  0  0  0  0  0  0  0  0  0
  1  5  1  0  0  0  0
  1  3  1  0  0  0  0
  2  1  1  0  0  0  0
  4  1  1  0  0  0  0
  5 26  1  0  0  0  0
  6 12  2  0  0  0  0
  7  8  1  0  0  0  0
  8  9  1  0  0  0  0
 10  8  1  0  0  0  0
 11  8  1  0  0  0  0
 12  7  1  0  0  0  0
 13  4  1  0  0  0  0
 13 12  1  0  0  0  0
 14 13  2  0  0  0  0
 15 14  1  0  0  0  0
 16 14  1  0  0  0  0
 16 18  2  0  0  0  0
 17 16  1  0  0  0  0
 18 20  1  0  0  0  0
 19 18  1  0  0  0  0
 20  4  1  0  0  0  0
 20 21  2  0  0  0  0
 21  5  1  0  0  0  0
 22 24  1  0  0  0  0
 22 21  1  0  0  0  0
 22 23  1  0  0  0  0
 25 22  1  0  0  0  0
 26 27  1  0  0  0  0
 27 39  1  0  0  0  0
 27 28  2  0  0  0  0
 28 29  1  0  0  0  0
 30 28  1  0  0  0  0
 30 31  1  0  0  0  0
 32 30  2  0  0  0  0
 33 32  1  0  0  0  0
 34 26  2  0  0  0  0
 34 32  1  0  0  0  0
 35 34  1  0  0  0  0
 36 35  1  0  0  0  0
 37 35  1  0  0  0  0
 38 35  1  0  0  0  0
 39 40  1  0  0  0  0
 41 39  1  0  0  0  0
 42 39  1  0  0  0  0
M  END
$$$$
