CSD_code = NESJAX | q = 0 | S = 0 | Stoichiometry = C18H20Cl2N2O2Pd | MND = 4
 OpenBabel04212202073D

 45 47  0  0  0  0  0  0  0  0999 V2000
   14.8902   -4.2992   13.5580 Pd  0  0  0  0  0  0  0  0  0  0  0  0
   15.9850   -6.1617   14.1714 Cl  0  0  0  0  0  0  0  0  0  0  0  0
   13.5771   -5.5094   12.2334 Cl  0  0  0  0  0  0  0  0  0  0  0  0
   16.0099   -3.1166   14.6422 N   0  0  0  0  0  0  0  0  0  0  0  0
   13.7325   -2.6864   13.6257 N   0  0  0  0  0  0  0  0  0  0  0  0
   15.3299   -2.0884   15.1974 C   0  0  0  0  0  0  0  0  0  0  0  0
   15.9207   -1.3010   16.1888 C   0  0  0  0  0  0  0  0  0  0  0  0
   15.3629   -0.5010   16.6484 H   0  0  0  0  0  0  0  0  0  0  0  0
   17.2215   -1.5688   16.5753 C   0  0  0  0  0  0  0  0  0  0  0  0
   17.6850   -0.9968   17.3639 H   0  0  0  0  0  0  0  0  0  0  0  0
   17.9436   -2.5481   15.8999 C   0  0  0  0  0  0  0  0  0  0  0  0
   18.9820   -2.7436   16.1123 H   0  0  0  0  0  0  0  0  0  0  0  0
   17.3036   -3.2873   14.9168 C   0  0  0  0  0  0  0  0  0  0  0  0
   14.0241   -1.8801   14.5986 C   0  0  0  0  0  0  0  0  0  0  0  0
   13.1528   -0.7416   15.0306 C   0  0  0  0  0  0  0  0  0  0  0  0
   12.2593   -0.6954   14.4123 H   0  0  0  0  0  0  0  0  0  0  0  0
   13.6947    0.1990   14.9389 H   0  0  0  0  0  0  0  0  0  0  0  0
   12.8589   -0.8597   16.0730 H   0  0  0  0  0  0  0  0  0  0  0  0
   12.5373   -2.6446   12.9014 C   0  0  0  0  0  0  0  0  0  0  0  0
   12.5927   -2.2503   11.5600 C   0  0  0  0  0  0  0  0  0  0  0  0
   11.4174   -2.2254   10.8320 C   0  0  0  0  0  0  0  0  0  0  0  0
   11.4438   -1.9122    9.7986 H   0  0  0  0  0  0  0  0  0  0  0  0
   10.2092   -2.6215   11.3943 C   0  0  0  0  0  0  0  0  0  0  0  0
   10.1998   -3.0946   12.6990 C   0  0  0  0  0  0  0  0  0  0  0  0
    9.2789   -3.4687   13.1222 H   0  0  0  0  0  0  0  0  0  0  0  0
   11.3515   -3.1248   13.4678 C   0  0  0  0  0  0  0  0  0  0  0  0
   13.9247   -1.9168   10.9624 C   0  0  0  0  0  0  0  0  0  0  0  0
   13.8443   -1.7954    9.8861 H   0  0  0  0  0  0  0  0  0  0  0  0
   14.6277   -2.7376   11.1789 H   0  0  0  0  0  0  0  0  0  0  0  0
   14.3351   -1.0011   11.3902 H   0  0  0  0  0  0  0  0  0  0  0  0
    8.9546   -2.5961   10.5767 C   0  0  0  0  0  0  0  0  0  0  0  0
    8.0745   -2.6861   11.2084 H   0  0  0  0  0  0  0  0  0  0  0  0
    8.9560   -3.4274    9.8721 H   0  0  0  0  0  0  0  0  0  0  0  0
    8.8865   -1.6732   10.0039 H   0  0  0  0  0  0  0  0  0  0  0  0
   11.3852   -3.7548   14.8281 C   0  0  0  0  0  0  0  0  0  0  0  0
   12.2456   -4.4387   14.8908 H   0  0  0  0  0  0  0  0  0  0  0  0
   10.4785   -4.3276   15.0009 H   0  0  0  0  0  0  0  0  0  0  0  0
   11.4790   -3.0116   15.6201 H   0  0  0  0  0  0  0  0  0  0  0  0
   18.0740   -4.2122   14.0172 C   0  0  0  0  0  0  0  0  0  0  0  0
   18.1473   -5.0231   11.8142 C   0  0  0  0  0  0  0  0  0  0  0  0
   17.8562   -4.6472   10.8361 H   0  0  0  0  0  0  0  0  0  0  0  0
   17.7513   -6.0294   11.9721 H   0  0  0  0  0  0  0  0  0  0  0  0
   19.2329   -5.0338   11.9278 H   0  0  0  0  0  0  0  0  0  0  0  0
   19.0905   -4.7734   14.3227 O   0  0  0  0  0  0  0  0  0  0  0  0
   17.5649   -4.1434   12.7741 O   0  0  0  0  0  0  0  0  0  0  0  0
  1  5  1  0  0  0  0
  1  2  1  0  0  0  0
  1  4  1  0  0  0  0
  3  1  1  0  0  0  0
  4 13  1  0  0  0  0
  4  6  1  0  0  0  0
  5 14  1  0  0  0  0
  6  7  1  0  0  0  0
  7  9  2  0  0  0  0
  7  8  1  0  0  0  0
  9 10  1  0  0  0  0
 11 12  1  0  0  0  0
 11  9  1  0  0  0  0
 13 11  2  0  0  0  0
 14 15  1  0  0  0  0
 14  6  2  0  0  0  0
 15 18  1  0  0  0  0
 16 15  1  0  0  0  0
 17 15  1  0  0  0  0
 19 26  1  0  0  0  0
 19  5  1  0  0  0  0
 20 19  2  0  0  0  0
 21 23  2  0  0  0  0
 21 20  1  0  0  0  0
 22 21  1  0  0  0  0
 23 24  1  0  0  0  0
 24 25  1  0  0  0  0
 24 26  2  0  0  0  0
 26 35  1  0  0  0  0
 27 29  1  0  0  0  0
 27 30  1  0  0  0  0
 27 20  1  0  0  0  0
 28 27  1  0  0  0  0
 31 32  1  0  0  0  0
 31 23  1  0  0  0  0
 33 31  1  0  0  0  0
 34 31  1  0  0  0  0
 35 36  1  0  0  0  0
 35 37  1  0  0  0  0
 35 38  1  0  0  0  0
 39 44  2  0  0  0  0
 39 13  1  0  0  0  0
 40 43  1  0  0  0  0
 40 42  1  0  0  0  0
 40 45  1  0  0  0  0
 41 40  1  0  0  0  0
 45 39  1  0  0  0  0
M  END
$$$$
