CSD_code = NESPIK | q = 0 | S = 0 | Stoichiometry = C21H36Cl2N3PSi2W | MND = 6
 OpenBabel04212202073D

 66 68  0  0  0  0  0  0  0  0999 V2000
    2.0017    2.1373    3.4958 W   0  0  0  0  0  0  0  0  0  0  0  0
    4.1767    3.0577    3.4192 Cl  0  0  0  0  0  0  0  0  0  0  0  0
    1.8446    2.1579    1.1387 Cl  0  0  0  0  0  0  0  0  0  0  0  0
    1.6298    4.6393    2.8889 P   0  0  0  0  0  4  0  0  0  0  0  0
    2.9743    2.5018    6.6855 Si  0  0  0  0  0  0  0  0  0  0  0  0
   -1.0442    0.9485    2.7479 Si  0  0  0  0  0  0  0  0  0  0  0  0
    1.8010    2.6845    5.4018 N   0  0  0  0  0  0  0  0  0  0  0  0
    0.0197    1.9966    3.6575 N   0  0  0  0  0  0  0  0  0  0  0  0
    2.6402    0.4735    3.5019 N   0  0  0  0  0  2  0  0  0  0  0  0
    0.5576    3.2616    5.5847 C   0  0  0  0  0  0  0  0  0  0  0  0
   -0.4254    2.8820    4.6222 C   0  0  0  0  0  0  0  0  0  0  0  0
   -1.7159    3.3918    4.7341 C   0  0  0  0  0  0  0  0  0  0  0  0
   -2.0420    4.2644    5.7598 C   0  0  0  0  0  0  0  0  0  0  0  0
   -1.0884    4.6326    6.6937 C   0  0  0  0  0  0  0  0  0  0  0  0
    0.2009    4.1318    6.6111 C   0  0  0  0  0  0  0  0  0  0  0  0
    3.4007   -0.5637    3.1348 C   0  0  0  0  0  0  0  0  0  0  0  0
    3.3273   -1.8368    3.7272 C   0  0  0  0  0  0  0  0  0  0  0  0
    4.1465   -2.8570    3.2929 C   0  0  0  0  0  0  0  0  0  0  0  0
    5.0546   -2.6474    2.2670 C   0  0  0  0  0  0  0  0  0  0  0  0
    5.1401   -1.3964    1.6708 C   0  0  0  0  0  0  0  0  0  0  0  0
    4.3311   -0.3660    2.0912 C   0  0  0  0  0  0  0  0  0  0  0  0
    2.1131    2.1214    8.3528 C   0  0  0  0  0  0  0  0  0  0  0  0
    4.0354    0.9929    6.2085 C   0  0  0  0  0  0  0  0  0  0  0  0
    4.0639    4.0722    6.8506 C   0  0  0  0  0  0  0  0  0  0  0  0
   -2.5027    0.3403    3.8287 C   0  0  0  0  0  0  0  0  0  0  0  0
    0.0085   -0.5658    2.2685 C   0  0  0  0  0  0  0  0  0  0  0  0
   -1.7137    1.8339    1.1831 C   0  0  0  0  0  0  0  0  0  0  0  0
    1.9508    5.9340    4.1555 C   0  0  0  0  0  0  0  0  0  0  0  0
    2.7049    5.2798    1.5406 C   0  0  0  0  0  0  0  0  0  0  0  0
   -0.0047    5.1758    2.2375 C   0  0  0  0  0  0  0  0  0  0  0  0
   -2.4566    3.1099    4.0021 H   0  0  0  0  0  0  0  0  0  0  0  0
   -3.0454    4.6571    5.8264 H   0  0  0  0  0  0  0  0  0  0  0  0
   -1.3454    5.3133    7.4912 H   0  0  0  0  0  0  0  0  0  0  0  0
    0.9463    4.4234    7.3345 H   0  0  0  0  0  0  0  0  0  0  0  0
    2.6173   -1.9976    4.5273 H   0  0  0  0  0  0  0  0  0  0  0  0
    4.0776   -3.8299    3.7594 H   0  0  0  0  0  0  0  0  0  0  0  0
    5.6921   -3.4522    1.9330 H   0  0  0  0  0  0  0  0  0  0  0  0
    5.8467   -1.2285    0.8703 H   0  0  0  0  0  0  0  0  0  0  0  0
    4.3841    0.6196    1.6371 H   0  0  0  0  0  0  0  0  0  0  0  0
    2.6346    1.3275    8.8763 H   0  0  0  0  0  0  0  0  0  0  0  0
    1.0838    1.8062    8.2120 H   0  0  0  0  0  0  0  0  0  0  0  0
    2.1056    2.9862    9.0072 H   0  0  0  0  0  0  0  0  0  0  0  0
    4.7310    0.7396    7.0021 H   0  0  0  0  0  0  0  0  0  0  0  0
    4.6202    1.1767    5.3105 H   0  0  0  0  0  0  0  0  0  0  0  0
    3.4099    0.1226    6.0232 H   0  0  0  0  0  0  0  0  0  0  0  0
    4.7992    3.9317    7.6362 H   0  0  0  0  0  0  0  0  0  0  0  0
    3.4849    4.9574    7.1002 H   0  0  0  0  0  0  0  0  0  0  0  0
    4.6047    4.2706    5.9291 H   0  0  0  0  0  0  0  0  0  0  0  0
   -2.6913   -0.7129    3.6509 H   0  0  0  0  0  0  0  0  0  0  0  0
   -3.4202    0.8728    3.6031 H   0  0  0  0  0  0  0  0  0  0  0  0
   -2.3002    0.4674    4.8878 H   0  0  0  0  0  0  0  0  0  0  0  0
   -0.5995   -1.3277    1.7913 H   0  0  0  0  0  0  0  0  0  0  0  0
    0.4703   -1.0101    3.1475 H   0  0  0  0  0  0  0  0  0  0  0  0
    0.8034   -0.3030    1.5748 H   0  0  0  0  0  0  0  0  0  0  0  0
   -2.3520    1.1596    0.6214 H   0  0  0  0  0  0  0  0  0  0  0  0
   -0.9015    2.1364    0.5275 H   0  0  0  0  0  0  0  0  0  0  0  0
   -2.3016    2.7160    1.4225 H   0  0  0  0  0  0  0  0  0  0  0  0
    1.2444    5.8387    4.9787 H   0  0  0  0  0  0  0  0  0  0  0  0
    1.8575    6.9243    3.7111 H   0  0  0  0  0  0  0  0  0  0  0  0
    2.9625    5.8024    4.5385 H   0  0  0  0  0  0  0  0  0  0  0  0
    3.7512    5.1806    1.8286 H   0  0  0  0  0  0  0  0  0  0  0  0
    2.4725    6.3290    1.3592 H   0  0  0  0  0  0  0  0  0  0  0  0
    2.5342    4.7041    0.6312 H   0  0  0  0  0  0  0  0  0  0  0  0
   -0.7711    5.0590    3.0020 H   0  0  0  0  0  0  0  0  0  0  0  0
   -0.2593    4.5520    1.3809 H   0  0  0  0  0  0  0  0  0  0  0  0
    0.0399    6.2187    1.9257 H   0  0  0  0  0  0  0  0  0  0  0  0
  1  9  1  0  0  0  0
  1  8  1  0  0  0  0
  1  7  1  0  0  0  0
  2  1  1  0  0  0  0
  3  1  1  0  0  0  0
  4  1  1  0  0  0  0
  4 28  1  0  0  0  0
  5 24  1  0  0  0  0
  5 22  1  0  0  0  0
  6  8  1  0  0  0  0
  6 25  1  0  0  0  0
  7 10  1  0  0  0  0
  7  5  1  0  0  0  0
  8 11  1  0  0  0  0
 10 15  1  0  0  0  0
 11 12  1  0  0  0  0
 11 10  2  0  0  0  0
 12 13  2  0  0  0  0
 13 32  1  0  0  0  0
 13 14  1  0  0  0  0
 14 33  1  0  0  0  0
 15 14  2  0  0  0  0
 15 34  1  0  0  0  0
 16  9  1  0  0  0  0
 16 17  1  0  0  0  0
 17 35  1  0  0  0  0
 18 17  2  0  0  0  0
 18 36  1  0  0  0  0
 19 18  1  0  0  0  0
 20 21  1  0  0  0  0
 20 19  2  0  0  0  0
 21 16  2  0  0  0  0
 22 40  1  0  0  0  0
 22 42  1  0  0  0  0
 23  5  1  0  0  0  0
 23 43  1  0  0  0  0
 24 47  1  0  0  0  0
 24 46  1  0  0  0  0
 25 51  1  0  0  0  0
 26  6  1  0  0  0  0
 26 53  1  0  0  0  0
 27 57  1  0  0  0  0
 27  6  1  0  0  0  0
 28 60  1  0  0  0  0
 28 58  1  0  0  0  0
 29 61  1  0  0  0  0
 29  4  1  0  0  0  0
 30  4  1  0  0  0  0
 30 64  1  0  0  0  0
 31 12  1  0  0  0  0
 37 19  1  0  0  0  0
 38 20  1  0  0  0  0
 39 21  1  0  0  0  0
 41 22  1  0  0  0  0
 44 23  1  0  0  0  0
 45 23  1  0  0  0  0
 48 24  1  0  0  0  0
 49 25  1  0  0  0  0
 50 25  1  0  0  0  0
 52 26  1  0  0  0  0
 54 26  1  0  0  0  0
 55 27  1  0  0  0  0
 56 27  1  0  0  0  0
 59 28  1  0  0  0  0
 62 29  1  0  0  0  0
 63 29  1  0  0  0  0
 65 30  1  0  0  0  0
 66 30  1  0  0  0  0
M  END
$$$$
