CSD_code = NESXUE | q = 0 | S = 0 | Stoichiometry = C22H18Cl2MoN4O | MND = 6
 OpenBabel04212202073D

 48 52  0  0  1  0  0  0  0  0999 V2000
    0.3719   14.3709    7.5139 Mo  0  0  0  0  0  0  0  0  0  0  0  0
    1.9204   12.5363    7.8601 Cl  0  0  0  0  0  0  0  0  0  0  0  0
   -0.3270   16.4820    6.4966 Cl  0  0  0  0  0  0  0  0  0  0  0  0
   -0.3648   14.3612    8.9862 O   0  0  0  0  0  1  0  0  0  0  0  0
    1.8850   14.6756    5.9462 N   0  0  0  0  0  0  0  0  0  0  0  0
    1.8325   15.6638    8.3121 N   0  0  0  0  0  0  0  0  0  0  0  0
   -0.6951   13.4653    6.4265 N   0  0  0  0  0  2  0  0  0  0  0  0
   -1.5988   12.8053    5.8072 N   0  0  0  0  0  0  0  0  0  0  0  0
    1.9086   14.0233    4.7912 C   0  0  0  0  0  3  0  0  0  0  0  0
    2.7445   14.3695    3.7453 C   0  0  0  0  0  0  0  0  0  0  0  0
    3.6007   15.4509    3.9110 C   0  0  0  0  0  0  0  0  0  0  0  0
    3.6173   16.1045    5.1266 C   0  0  0  0  0  0  0  0  0  0  0  0
    2.7507   15.6851    6.1399 C   0  0  0  0  0  0  0  0  0  0  0  0
    2.7239   16.2480    7.4850 C   0  0  2  0  0  3  0  0  0  0  0  0
    3.5652   17.2735    7.9195 C   0  0  0  0  0  0  0  0  0  0  0  0
    3.4914   17.7023    9.2297 C   0  0  0  0  0  0  0  0  0  0  0  0
    2.5796   17.0837   10.0788 C   0  0  0  0  0  0  0  0  0  0  0  0
    1.7794   16.0765    9.5779 C   0  0  0  0  0  0  0  0  0  0  0  0
   -2.6184   12.1572    6.5355 C   0  0  0  0  0  0  0  0  0  0  0  0
   -2.3823   11.8291    7.8699 C   0  0  0  0  0  0  0  0  0  0  0  0
   -3.3748   11.2138    8.6076 C   0  0  0  0  0  0  0  0  0  0  0  0
   -4.6017   10.9245    8.0306 C   0  0  0  0  0  0  0  0  0  0  0  0
   -4.8391   11.2672    6.7094 C   0  0  0  0  0  0  0  0  0  0  0  0
   -3.8570   11.8858    5.9585 C   0  0  0  0  0  0  0  0  0  0  0  0
   -1.5621   12.7535    4.3932 C   0  0  0  0  0  0  0  0  0  0  0  0
   -1.8144   11.5695    3.7051 C   0  0  0  0  0  0  0  0  0  0  0  0
   -1.7095   11.5459    2.3267 C   0  0  0  0  0  0  0  0  0  0  0  0
   -1.3484   12.6885    1.6299 C   0  0  0  0  0  0  0  0  0  0  0  0
   -1.0894   13.8639    2.3172 C   0  0  0  0  0  0  0  0  0  0  0  0
   -1.1950   13.9020    3.6945 C   0  0  0  0  0  0  0  0  0  0  0  0
    1.2269   13.1865    4.7031 H   0  0  0  0  0  0  0  0  0  0  0  0
    2.7165   13.8114    2.8238 H   0  0  0  0  0  0  0  0  0  0  0  0
    4.2518   15.7678    3.1106 H   0  0  0  0  0  0  0  0  0  0  0  0
    4.2887   16.9313    5.2883 H   0  0  0  0  0  0  0  0  0  0  0  0
    4.2645   17.7305    7.2387 H   0  0  0  0  0  0  0  0  0  0  0  0
    4.1286   18.4973    9.5847 H   0  0  0  0  0  0  0  0  0  0  0  0
    2.4896   17.3808   11.1110 H   0  0  0  0  0  0  0  0  0  0  0  0
    1.0487   15.5687   10.1965 H   0  0  0  0  0  0  0  0  0  0  0  0
   -1.4207   12.0678    8.3111 H   0  0  0  0  0  0  0  0  0  0  0  0
   -3.1883   10.9577    9.6393 H   0  0  0  0  0  0  0  0  0  0  0  0
   -5.3741   10.4424    8.6105 H   0  0  0  0  0  0  0  0  0  0  0  0
   -5.7996   11.0609    6.2608 H   0  0  0  0  0  0  0  0  0  0  0  0
   -4.0570   12.1743    4.9374 H   0  0  0  0  0  0  0  0  0  0  0  0
   -2.0766   10.6760    4.2513 H   0  0  0  0  0  0  0  0  0  0  0  0
   -1.9037   10.6271    1.7937 H   0  0  0  0  0  0  0  0  0  0  0  0
   -1.2693   12.6618    0.5536 H   0  0  0  0  0  0  0  0  0  0  0  0
   -0.8120   14.7578    1.7789 H   0  0  0  0  0  0  0  0  0  0  0  0
   -1.0075   14.8155    4.2446 H   0  0  0  0  0  0  0  0  0  0  0  0
  1  2  1  0  0  0  0
  1  6  1  0  0  0  0
  1  4  1  0  0  0  0
  3  1  1  0  0  0  0
  5 13  1  0  0  0  0
  5  1  1  0  0  0  0
  6 18  1  0  0  0  0
  7  1  1  0  0  0  0
  8  7  1  0  0  0  0
  8 19  1  0  0  0  0
  9  5  1  0  0  0  0
 10 11  2  0  0  0  0
 10  9  1  0  0  0  0
 11 12  1  0  0  0  0
 12 34  1  0  0  0  0
 12 13  2  0  0  0  0
 14 13  1  1  0  0  0
 14 15  1  0  0  0  0
 14  6  1  0  0  0  0
 15 16  2  0  0  0  0
 16 36  1  0  0  0  0
 16 17  1  0  0  0  0
 17 37  1  0  0  0  0
 18 17  2  0  0  0  0
 18 38  1  0  0  0  0
 19 20  1  0  0  0  0
 20 39  1  0  0  0  0
 20 21  2  0  0  0  0
 21 40  1  0  0  0  0
 22 21  1  0  0  0  0
 22 41  1  0  0  0  0
 23 22  2  0  0  0  0
 24 19  2  0  0  0  0
 24 23  1  0  0  0  0
 25  8  1  0  0  0  0
 26 44  1  0  0  0  0
 26 25  1  0  0  0  0
 27 26  2  0  0  0  0
 28 29  2  0  0  0  0
 28 27  1  0  0  0  0
 29 30  1  0  0  0  0
 30 48  1  0  0  0  0
 30 25  2  0  0  0  0
 31  9  1  0  0  0  0
 32 10  1  0  0  0  0
 33 11  1  0  0  0  0
 35 15  1  0  0  0  0
 42 23  1  0  0  0  0
 43 24  1  0  0  0  0
 45 27  1  0  0  0  0
 46 28  1  0  0  0  0
 47 29  1  0  0  0  0
M  END
$$$$
