CSD_code = NEVKOP | q = 0 | S = 0 | Stoichiometry = C22H20Cl2HfSi | MND = 12
 OpenBabel04212202073D

 46 49  0  0  1  0  0  0  0  0999 V2000
   -0.3943    2.2631    2.4938 Hf  0  0  0  0  0  0  0  0  0  0  0  0
    1.6881    2.1553    1.4992 Cl  0  0  0  0  0  0  0  0  0  0  0  0
   -0.1116    0.2418    3.5792 Cl  0  0  0  0  0  0  0  0  0  0  0  0
   -3.2704    3.8743    2.7594 Si  0  0  0  0  0  0  0  0  0  0  0  0
   -2.5588    2.6202    1.5324 C   0  0  1  0  0  0  0  0  0  0  0  0
   -1.5903    2.9315    0.5255 C   0  0  0  0  0  0  0  0  0  0  0  0
   -1.0426    1.7174    0.0489 C   0  0  0  0  0  0  0  0  0  0  0  0
   -1.6033    0.6633    0.7897 C   0  0  0  0  0  0  0  0  0  0  0  0
   -2.5130    1.2122    1.7162 C   0  0  0  0  0  0  0  0  0  0  0  0
   -1.6061    4.0765    3.6303 C   0  0  0  0  0  0  0  0  0  0  0  0
   -0.4463    4.6880    3.0452 C   0  0  0  0  0  0  0  0  0  0  0  0
   -0.2984    5.6834    2.0606 C   0  0  0  0  0  0  0  0  0  0  0  0
    0.9557    6.1620    1.7725 C   0  0  0  0  0  0  0  0  0  0  0  0
    2.0896    5.6969    2.4579 C   0  0  0  0  0  0  0  0  0  0  0  0
    1.9917    4.7283    3.4248 C   0  0  0  0  0  0  0  0  0  0  0  0
    0.7293    4.1810    3.7174 C   0  0  0  0  0  0  0  0  0  0  0  0
    0.2887    3.2131    4.6848 C   0  0  0  0  0  0  0  0  0  0  0  0
   -1.1277    3.1758    4.6177 C   0  0  0  0  0  3  0  0  0  0  0  0
   -4.5511    3.0753    3.9154 C   0  0  0  0  0  0  0  0  0  0  0  0
   -3.9574    5.4462    1.9384 C   0  0  0  0  0  0  0  0  0  0  0  0
    2.7373    0.9558    7.3245 C   0  0  0  0  0  0  0  0  0  0  0  0
    1.5501    1.5033    7.7806 C   0  0  0  0  0  0  0  0  0  0  0  0
    0.7517    2.2421    6.9282 C   0  0  0  0  0  0  0  0  0  0  0  0
    1.1326    2.4458    5.6023 C   0  0  0  0  0  0  0  0  0  0  0  0
    2.3275    1.8823    5.1482 C   0  0  0  0  0  0  0  0  0  0  0  0
    3.1206    1.1453    6.0064 C   0  0  0  0  0  0  0  0  0  0  0  0
   -1.1706    6.0963    1.5742 H   0  0  0  0  0  0  0  0  0  0  0  0
    1.0769    6.9278    1.0212 H   0  0  0  0  0  0  0  0  0  0  0  0
    3.0526    6.1227    2.2226 H   0  0  0  0  0  0  0  0  0  0  0  0
    2.8650    4.4028    3.9708 H   0  0  0  0  0  0  0  0  0  0  0  0
   -1.7545    2.6041    5.2921 H   0  0  0  0  0  0  0  0  0  0  0  0
   -5.4528    2.8251    3.3671 H   0  0  0  0  0  0  0  0  0  0  0  0
   -4.1807    2.1645    4.3744 H   0  0  0  0  0  0  0  0  0  0  0  0
   -4.8305    3.7585    4.7102 H   0  0  0  0  0  0  0  0  0  0  0  0
   -5.0181    5.3306    1.7442 H   0  0  0  0  0  0  0  0  0  0  0  0
   -3.8335    6.3098    2.5833 H   0  0  0  0  0  0  0  0  0  0  0  0
   -3.4765    5.6625    0.9905 H   0  0  0  0  0  0  0  0  0  0  0  0
    3.3586    0.3772    7.9916 H   0  0  0  0  0  0  0  0  0  0  0  0
    1.2445    1.3538    8.8059 H   0  0  0  0  0  0  0  0  0  0  0  0
   -0.1686    2.6774    7.2899 H   0  0  0  0  0  0  0  0  0  0  0  0
    2.6151    1.9964    4.1106 H   0  0  0  0  0  0  0  0  0  0  0  0
    4.0381    0.7069    5.6425 H   0  0  0  0  0  0  0  0  0  0  0  0
   -1.4626    3.8968    0.0526 H   0  0  0  0  0  0  0  0  0  0  0  0
   -0.3796    1.6132   -0.7980 H   0  0  0  0  0  0  0  0  0  0  0  0
   -1.4312   -0.3893    0.6214 H   0  0  0  0  0  0  0  0  0  0  0  0
   -3.1730    0.6425    2.3560 H   0  0  0  0  0  0  0  0  0  0  0  0
  1  3  1  0  0  0  0
  2  1  1  0  0  0  0
  4 10  1  0  0  0  0
  4 19  1  0  0  0  0
  5  9  1  0  0  0  0
  5  1  1  1  0  0  0
  5  4  1  0  0  0  0
  6  5  1  0  0  0  0
  7  6  2  0  0  0  0
  7  8  1  0  0  0  0
  8  9  2  0  0  0  0
  9 46  1  0  0  0  0
 10 18  1  0  0  0  0
 11 10  2  0  0  0  0
 11 16  1  0  0  0  0
 12 11  1  0  0  0  0
 13 12  2  0  0  0  0
 13 14  1  0  0  0  0
 14 15  2  0  0  0  0
 15 16  1  0  0  0  0
 15 30  1  0  0  0  0
 16 17  2  0  0  0  0
 17 24  1  0  0  0  0
 18 17  1  0  0  0  0
 18 31  1  0  0  0  0
 19 33  1  0  0  0  0
 19 34  1  0  0  0  0
 20 36  1  0  0  0  0
 20  4  1  0  0  0  0
 21 22  1  0  0  0  0
 21 38  1  0  0  0  0
 22 39  1  0  0  0  0
 23 40  1  0  0  0  0
 23 22  2  0  0  0  0
 24 23  1  0  0  0  0
 25 24  2  0  0  0  0
 25 26  1  0  0  0  0
 26 21  2  0  0  0  0
 27 12  1  0  0  0  0
 28 13  1  0  0  0  0
 29 14  1  0  0  0  0
 32 19  1  0  0  0  0
 35 20  1  0  0  0  0
 37 20  1  0  0  0  0
 41 25  1  0  0  0  0
 42 26  1  0  0  0  0
 43  6  1  0  0  0  0
 44  7  1  0  0  0  0
 45  8  1  0  0  0  0
M  END
$$$$
