CSD_code = NEVRUC | q = 1 | S = 0 | Stoichiometry = C17H27ClN3O2Zn(1+) | MND = 6
 OpenBabel04212202073D

 51 55  0  0  1  0  0  0  0  0999 V2000
    2.7676    5.1745    2.0693 Zn  0  0  1  0  0  0  0  0  0  0  0  0
    4.8133    5.6229    1.4891 Cl  0  0  0  0  0  0  0  0  0  0  0  0
    3.1366    4.9787    4.3122 O   0  0  0  0  0  0  0  0  0  0  0  0
    2.4027    4.9123    4.9350 H   0  0  0  0  0  0  0  0  0  0  0  0
    2.1684    5.4355   -0.1341 O   0  0  0  0  0  0  0  0  0  0  0  0
    3.0200    5.7176   -0.5005 H   0  0  0  0  0  0  0  0  0  0  0  0
    0.8391    4.5393    2.3152 N   0  0  0  0  0  0  0  0  0  0  0  0
    2.9702    2.9388    2.2719 N   0  0  2  0  0  4  0  0  0  0  0  0
    1.6661    7.1301    2.1446 N   0  0  2  0  0  4  0  0  0  0  0  0
    0.5480    3.2717    2.0675 C   0  0  1  0  0  3  0  0  0  0  0  0
   -0.7721    2.8400    2.0251 C   0  0  0  0  0  0  0  0  0  0  0  0
   -1.0026    1.8050    1.8310 H   0  0  0  0  0  0  0  0  0  0  0  0
   -1.7796    3.7708    2.2236 C   0  0  0  0  0  0  0  0  0  0  0  0
   -2.8142    3.4668    2.1913 H   0  0  0  0  0  0  0  0  0  0  0  0
   -1.4502    5.0994    2.4533 C   0  0  0  0  0  0  0  0  0  0  0  0
   -2.2161    5.8443    2.5976 H   0  0  0  0  0  0  0  0  0  0  0  0
   -0.1083    5.4495    2.4906 C   0  0  0  0  0  0  0  0  0  0  0  0
    1.7143    2.3702    1.7810 C   0  0  0  0  0  0  0  0  0  0  0  0
    1.5243    1.3700    2.1874 H   0  0  0  0  0  0  0  0  0  0  0  0
    1.7812    2.2826    0.6918 H   0  0  0  0  0  0  0  0  0  0  0  0
    3.1715    2.6179    3.7002 C   0  0  1  0  0  0  0  0  0  0  0  0
    2.1912    2.5030    4.1767 H   0  0  0  0  0  0  0  0  0  0  0  0
    4.0001    1.3158    3.7638 C   0  0  0  0  0  0  0  0  0  0  0  0
    3.4377    0.5077    4.2271 H   0  0  0  0  0  0  0  0  0  0  0  0
    4.8993    1.4777    4.3560 H   0  0  0  0  0  0  0  0  0  0  0  0
    4.3596    0.9999    2.3077 C   0  0  0  0  0  0  0  0  0  0  0  0
    3.7050    0.2304    1.8982 H   0  0  0  0  0  0  0  0  0  0  0  0
    5.3855    0.6580    2.2025 H   0  0  0  0  0  0  0  0  0  0  0  0
    4.1345    2.3354    1.6035 C   0  0  0  0  0  0  0  0  0  0  0  0
    4.9936    2.9900    1.7528 H   0  0  0  0  0  0  0  0  0  0  0  0
    3.9609    2.2448    0.5329 H   0  0  0  0  0  0  0  0  0  0  0  0
    3.8957    3.7795    4.3883 C   0  0  0  0  0  0  0  0  0  0  0  0
    4.1021    3.5288    5.4328 H   0  0  0  0  0  0  0  0  0  0  0  0
    4.8356    3.9940    3.8782 H   0  0  0  0  0  0  0  0  0  0  0  0
    0.3781    6.8427    2.7731 C   0  0  0  0  0  0  0  0  0  0  0  0
   -0.3852    7.5740    2.4734 H   0  0  0  0  0  0  0  0  0  0  0  0
    0.5097    6.9272    3.8577 H   0  0  0  0  0  0  0  0  0  0  0  0
    1.5279    7.6327    0.7647 C   0  0  1  0  0  0  0  0  0  0  0  0
    0.6799    8.3329    0.7171 H   0  0  0  0  0  0  0  0  0  0  0  0
    2.8352    8.3887    0.4846 C   0  0  0  0  0  0  0  0  0  0  0  0
    2.6359    9.2880   -0.0946 H   0  0  0  0  0  0  0  0  0  0  0  0
    3.5361    7.7751   -0.0802 H   0  0  0  0  0  0  0  0  0  0  0  0
    3.4216    8.7083    1.8678 C   0  0  0  0  0  0  0  0  0  0  0  0
    4.3510    8.1633    2.0168 H   0  0  0  0  0  0  0  0  0  0  0  0
    3.6223    9.7689    1.9964 H   0  0  0  0  0  0  0  0  0  0  0  0
    2.3594    8.2232    2.8475 C   0  0  0  0  0  0  0  0  0  0  0  0
    2.7864    7.8590    3.7814 H   0  0  0  0  0  0  0  0  0  0  0  0
    1.6464    9.0293    3.0647 H   0  0  0  0  0  0  0  0  0  0  0  0
    1.2493    6.5054   -0.2353 C   0  0  0  0  0  0  0  0  0  0  0  0
    0.2640    6.0702   -0.0462 H   0  0  0  0  0  0  0  0  0  0  0  0
    1.2541    6.9188   -1.2491 H   0  0  0  0  0  0  0  0  0  0  0  0
  1  2  1  6  0  0  0
  1  9  1  0  0  0  0
  1  8  1  0  0  0  0
  1  7  1  0  0  0  0
  3 32  1  0  0  0  0
  3  4  1  0  0  0  0
  6  5  1  0  0  0  0
  7 17  1  0  0  0  0
  8 29  1  6  0  0  0
  8 21  1  0  0  0  0
  9 35  1  1  0  0  0
  9 46  1  0  0  0  0
 10 11  1  6  0  0  0
 10  7  1  0  0  0  0
 11 13  2  0  0  0  0
 12 11  1  0  0  0  0
 13 15  1  0  0  0  0
 14 13  1  0  0  0  0
 15 17  2  0  0  0  0
 15 16  1  0  0  0  0
 17 35  1  0  0  0  0
 18 10  1  0  0  0  0
 18 19  1  0  0  0  0
 18  8  1  0  0  0  0
 20 18  1  0  0  0  0
 21 23  1  0  0  0  0
 21 22  1  1  0  0  0
 21 32  1  0  0  0  0
 23 24  1  0  0  0  0
 23 25  1  0  0  0  0
 26 23  1  0  0  0  0
 27 26  1  0  0  0  0
 28 26  1  0  0  0  0
 29 30  1  0  0  0  0
 29 26  1  0  0  0  0
 31 29  1  0  0  0  0
 32 33  1  0  0  0  0
 34 32  1  0  0  0  0
 35 37  1  0  0  0  0
 36 35  1  0  0  0  0
 38 39  1  6  0  0  0
 38  9  1  0  0  0  0
 40 38  1  0  0  0  0
 40 43  1  0  0  0  0
 41 40  1  0  0  0  0
 42 40  1  0  0  0  0
 43 45  1  0  0  0  0
 43 44  1  0  0  0  0
 43 46  1  0  0  0  0
 46 48  1  0  0  0  0
 46 47  1  0  0  0  0
 49  5  1  0  0  0  0
 49 50  1  0  0  0  0
 49 38  1  0  0  0  0
 51 49  1  0  0  0  0
M  END
$$$$
