CSD_code = NEWMIN | q = 0 | S = 0 | Stoichiometry = C21H25AuCl3N3O | MND = 4
 OpenBabel04212202073D

 54 56  0  0  0  0  0  0  0  0999 V2000
   12.8840    6.2258    5.2990 Au  0  0  0  0  0  0  0  0  0  0  0  0
   12.8338    8.3044    4.4340 Cl  0  0  0  0  0  0  0  0  0  0  0  0
   11.0937    5.5962    4.0414 Cl  0  0  0  0  0  0  0  0  0  0  0  0
   14.6928    6.6991    6.5792 Cl  0  0  0  0  0  0  0  0  0  0  0  0
   12.8771    4.4104    6.1354 C   0  0  0  0  0  0  0  0  0  0  0  0
   13.6821    3.4059    5.7730 N   0  0  0  0  0  0  0  0  0  0  0  0
   13.4090    2.3062    6.5331 C   0  0  0  0  0  0  0  0  0  0  0  0
   13.9380    1.3829    6.4168 H   0  0  0  0  0  0  0  0  0  0  0  0
   12.4098    2.6522    7.3833 C   0  0  0  0  0  0  0  0  0  0  0  0
   11.9068    2.0918    8.1445 H   0  0  0  0  0  0  0  0  0  0  0  0
   12.0965    3.9552    7.1199 N   0  0  0  0  0  0  0  0  0  0  0  0
   14.6939    3.5026    4.7449 C   0  0  0  0  0  0  0  0  0  0  0  0
   15.1258    2.5122    4.5929 H   0  0  0  0  0  0  0  0  0  0  0  0
   15.4688    4.1987    5.0821 H   0  0  0  0  0  0  0  0  0  0  0  0
   14.1048    4.0548    3.4679 C   0  0  0  0  0  0  0  0  0  0  0  0
   14.3129    5.3578    3.2947 N   0  0  0  0  0  0  0  0  0  0  0  0
   13.8612    5.9398    2.1983 C   0  0  0  0  0  0  0  0  0  0  0  0
   14.0856    6.9935    2.1038 H   0  0  0  0  0  0  0  0  0  0  0  0
   13.1003    5.2828    1.2401 C   0  0  0  0  0  0  0  0  0  0  0  0
   12.5989    6.0052    0.0326 C   0  0  0  0  0  0  0  0  0  0  0  0
   13.3565    6.6958   -0.3316 H   0  0  0  0  0  0  0  0  0  0  0  0
   11.7136    6.5876    0.2893 H   0  0  0  0  0  0  0  0  0  0  0  0
   12.3427    5.2999   -0.7547 H   0  0  0  0  0  0  0  0  0  0  0  0
   12.8033    3.9387    1.4789 C   0  0  0  0  0  0  0  0  0  0  0  0
   12.0038    3.2300    0.6118 O   0  0  0  0  0  0  0  0  0  0  0  0
   10.6175    3.4469    0.8184 C   0  0  0  0  0  0  0  0  0  0  0  0
   10.3142    3.1106    1.8149 H   0  0  0  0  0  0  0  0  0  0  0  0
   10.1064    2.8618    0.0563 H   0  0  0  0  0  0  0  0  0  0  0  0
   10.3533    4.5018    0.7163 H   0  0  0  0  0  0  0  0  0  0  0  0
   13.3423    3.2870    2.5970 C   0  0  0  0  0  0  0  0  0  0  0  0
   13.0619    1.8369    2.8440 C   0  0  0  0  0  0  0  0  0  0  0  0
   13.9869    1.2842    3.0018 H   0  0  0  0  0  0  0  0  0  0  0  0
   12.5493    1.4151    1.9838 H   0  0  0  0  0  0  0  0  0  0  0  0
   12.4305    1.7148    3.7242 H   0  0  0  0  0  0  0  0  0  0  0  0
   11.0876    4.7035    7.7968 C   0  0  0  0  0  0  0  0  0  0  0  0
   11.4551    5.5182    8.8672 C   0  0  0  0  0  0  0  0  0  0  0  0
   10.4633    6.2709    9.4799 C   0  0  0  0  0  0  0  0  0  0  0  0
   10.7338    6.9179   10.3012 H   0  0  0  0  0  0  0  0  0  0  0  0
    9.1424    6.2112    9.0620 C   0  0  0  0  0  0  0  0  0  0  0  0
    8.8054    5.3449    8.0301 C   0  0  0  0  0  0  0  0  0  0  0  0
    7.7746    5.2707    7.7163 H   0  0  0  0  0  0  0  0  0  0  0  0
    9.7602    4.5747    7.3859 C   0  0  0  0  0  0  0  0  0  0  0  0
    9.3781    3.6375    6.2840 C   0  0  0  0  0  0  0  0  0  0  0  0
    9.7531    4.0142    5.3322 H   0  0  0  0  0  0  0  0  0  0  0  0
    8.2971    3.5540    6.2179 H   0  0  0  0  0  0  0  0  0  0  0  0
    9.7959    2.6444    6.4472 H   0  0  0  0  0  0  0  0  0  0  0  0
    8.0887    7.0555    9.7077 C   0  0  0  0  0  0  0  0  0  0  0  0
    7.7773    7.8430    9.0219 H   0  0  0  0  0  0  0  0  0  0  0  0
    8.4615    7.5201   10.6166 H   0  0  0  0  0  0  0  0  0  0  0  0
    7.2111    6.4585    9.9488 H   0  0  0  0  0  0  0  0  0  0  0  0
   12.8664    5.5572    9.3606 C   0  0  0  0  0  0  0  0  0  0  0  0
   13.2417    4.5500    9.5417 H   0  0  0  0  0  0  0  0  0  0  0  0
   12.9267    6.1215   10.2867 H   0  0  0  0  0  0  0  0  0  0  0  0
   13.5247    6.0282    8.6310 H   0  0  0  0  0  0  0  0  0  0  0  0
  1  5  2  0  0  0  0
  1  4  1  0  0  0  0
  2  1  1  0  0  0  0
  3  1  1  0  0  0  0
  5 11  1  0  0  0  0
  6  5  1  0  0  0  0
  6  7  1  0  0  0  0
  7  9  2  0  0  0  0
  8  7  1  0  0  0  0
  9 10  1  0  0  0  0
 11  9  1  0  0  0  0
 11 35  1  0  0  0  0
 12 14  1  0  0  0  0
 12  6  1  0  0  0  0
 13 12  1  0  0  0  0
 15 12  1  0  0  0  0
 16 15  1  0  0  0  0
 17 16  2  0  0  0  0
 18 17  1  0  0  0  0
 19 24  2  0  0  0  0
 19 17  1  0  0  0  0
 20 22  1  0  0  0  0
 20 19  1  0  0  0  0
 21 20  1  0  0  0  0
 23 20  1  0  0  0  0
 24 30  1  0  0  0  0
 25 26  1  0  0  0  0
 25 24  1  0  0  0  0
 26 27  1  0  0  0  0
 28 26  1  0  0  0  0
 29 26  1  0  0  0  0
 30 31  1  0  0  0  0
 30 15  2  0  0  0  0
 31 32  1  0  0  0  0
 31 34  1  0  0  0  0
 33 31  1  0  0  0  0
 35 36  1  0  0  0  0
 36 51  1  0  0  0  0
 36 37  2  0  0  0  0
 37 38  1  0  0  0  0
 39 37  1  0  0  0  0
 39 47  1  0  0  0  0
 40 39  2  0  0  0  0
 41 40  1  0  0  0  0
 42 35  2  0  0  0  0
 42 40  1  0  0  0  0
 43 46  1  0  0  0  0
 43 42  1  0  0  0  0
 44 43  1  0  0  0  0
 45 43  1  0  0  0  0
 47 50  1  0  0  0  0
 47 49  1  0  0  0  0
 48 47  1  0  0  0  0
 51 52  1  0  0  0  0
 51 53  1  0  0  0  0
 54 51  1  0  0  0  0
M  END
$$$$
