CSD_code = NEWQOW | q = 0 | S = 0 | Stoichiometry = C13H8ClCuN4O3 | MND = 5
 OpenBabel04212202073D

 30 33  0  0  1  0  0  0  0  0999 V2000
    3.9193    2.0874    0.5781 Cu  0  0  0  0  0  0  0  0  0  0  0  0
    3.1125    3.9506    1.6646 Cl  0  0  0  0  0  0  0  0  0  0  0  0
    0.6985    0.7730    2.4395 O   0  0  0  0  0  0  0  0  0  0  0  0
    7.3871    3.8944    0.5645 O   0  0  0  0  0  0  0  0  0  0  0  0
    5.2472    1.5089    2.0076 N   0  0  0  0  0  0  0  0  0  0  0  0
    5.3279    3.0402   -0.0394 N   0  0  0  0  0  0  0  0  0  0  0  0
    3.3070    2.1583   -1.3221 N   0  0  0  0  0  0  0  0  0  0  0  0
    2.6062    1.0413    1.1120 N   0  0  0  0  0  0  0  0  0  0  0  0
    5.0452    0.7154    3.0472 C   0  0  0  0  0  3  0  0  0  0  0  0
    4.1943    0.0523    2.9837 H   0  0  0  0  0  0  0  0  0  0  0  0
    5.8800    0.7428    4.1534 C   0  0  0  0  0  0  0  0  0  0  0  0
    5.6888    0.0839    4.9853 H   0  0  0  0  0  0  0  0  0  0  0  0
    6.9479    1.6288    4.1698 C   0  0  0  0  0  0  0  0  0  0  0  0
    7.6067    1.6784    5.0236 H   0  0  0  0  0  0  0  0  0  0  0  0
    7.1525    2.4520    3.0741 C   0  0  0  0  0  0  0  0  0  0  0  0
    7.9617    3.1635    3.0196 H   0  0  0  0  0  0  0  0  0  0  0  0
    6.2705    2.3650    2.0076 C   0  0  0  0  0  0  0  0  0  0  0  0
    6.4176    3.2144    0.7786 C   0  0  0  0  0  0  0  0  0  0  0  0
    6.0461    4.3016   -1.8372 O   0  0  0  0  0  0  0  0  0  0  0  0
    4.0035    3.0874   -1.9788 C   0  0  2  0  0  3  0  0  0  0  0  0
    3.6091    3.5512   -3.2249 C   0  0  0  0  0  0  0  0  0  0  0  0
    4.2111    4.3040   -3.7098 H   0  0  0  0  0  0  0  0  0  0  0  0
    2.4537    3.0337   -3.7880 C   0  0  0  0  0  0  0  0  0  0  0  0
    2.1111    3.3788   -4.7518 H   0  0  0  0  0  0  0  0  0  0  0  0
    1.7427    2.0662   -3.0915 C   0  0  0  0  0  0  0  0  0  0  0  0
    0.8409    1.6366   -3.4976 H   0  0  0  0  0  0  0  0  0  0  0  0
    2.2027    1.6541   -1.8510 C   0  0  0  0  0  0  0  0  0  0  0  0
    1.6872    0.9112   -1.2592 H   0  0  0  0  0  0  0  0  0  0  0  0
    1.6492    1.0041    1.8140 C   0  0  0  0  0  0  0  0  0  0  0  0
    5.2477    3.5807   -1.2965 C   0  0  0  0  0  0  0  0  0  0  0  0
  1  8  1  0  0  0  0
  1  2  1  0  0  0  0
  1  5  1  0  0  0  0
  4 18  2  0  0  0  0
  5 17  1  0  0  0  0
  5  9  1  0  0  0  0
  6  1  1  0  0  0  0
  6 18  1  0  0  0  0
  7  1  1  0  0  0  0
  8 29  2  0  0  0  0
  9 11  1  0  0  0  0
 10  9  1  0  0  0  0
 11 13  2  0  0  0  0
 11 12  1  0  0  0  0
 13 14  1  0  0  0  0
 15 13  1  0  0  0  0
 16 15  1  0  0  0  0
 17 15  2  0  0  0  0
 18 17  1  0  0  0  0
 19 30  2  0  0  0  0
 20 21  1  6  0  0  0
 20  7  1  0  0  0  0
 20 30  1  0  0  0  0
 22 21  1  0  0  0  0
 23 21  2  0  0  0  0
 23 25  1  0  0  0  0
 24 23  1  0  0  0  0
 25 27  2  0  0  0  0
 26 25  1  0  0  0  0
 27  7  1  0  0  0  0
 27 28  1  0  0  0  0
 29  3  2  0  0  0  0
 30  6  1  0  0  0  0
M  END
$$$$
