CSD_code = NEWYIY | q = 0 | S = 0 | Stoichiometry = C19H27Cl5NNbSi2 | MND = 10
 OpenBabel04212202073D

 55 52  0  0  1  0  0  0  0  0999 V2000
   10.4637    3.9409    5.1309 Nb  0  0  0  0  0  0  0  0  0  0  0  0
    7.8417    6.6960    5.6799 Si  0  0  0  0  0  0  0  0  0  0  0  0
   11.2024    2.9066    8.7459 Si  0  0  0  0  0  0  0  0  0  0  0  0
    9.1527    3.7128    3.0803 Cl  0  0  0  0  0 15  0  0  0  0  0  0
   11.0003    6.2158    4.2972 Cl  0  0  0  0  0 15  0  0  0  0  0  0
   12.7917    4.1143    5.9830 Cl  0  0  0  0  0 15  0  0  0  0  0  0
   10.9969    1.5755    4.8129 Cl  0  0  0  0  0 15  0  0  0  0  0  0
    9.9762    2.2459   10.2634 Cl  0  0  0  0  0  0  0  0  0  0  0  0
   12.5258    3.7519    2.6251 N   0  0  0  0  0  2  0  0  0  0  0  0
   11.7920    3.8100    3.5224 C   0  0  0  0  0  2  0  0  0  0  0  0
    9.9916    3.6194    7.4820 C   0  0  2  0  0  3  0  0  0  0  0  0
    9.7991    4.9849    7.1406 C   0  0  2  0  0  0  0  0  0  0  0  0
   10.3275    5.8178    7.5896 H   0  0  0  0  0  0  0  0  0  0  0  0
    8.6897    5.1043    6.2638 C   0  0  1  0  0  3  0  0  0  0  0  0
    8.2059    3.7886    6.0514 C   0  0  0  0  0  0  0  0  0  0  0  0
    7.3149    3.5331    5.4921 H   0  0  0  0  0  0  0  0  0  0  0  0
    8.9938    2.8882    6.7907 C   0  0  0  0  0  0  0  0  0  0  0  0
    8.8114    1.8264    6.8971 H   0  0  0  0  0  0  0  0  0  0  0  0
   13.4025    3.7452    1.5918 C   0  0  0  0  0  0  0  0  0  0  0  0
   14.4854    4.6328    1.6333 C   0  0  0  0  0  0  0  0  0  0  0  0
   15.3669    4.6096    0.5639 C   0  0  0  0  0  0  0  0  0  0  0  0
   16.2131    5.2796    0.5619 H   0  0  0  0  0  0  0  0  0  0  0  0
   15.1710    3.7388   -0.4960 C   0  0  0  0  0  0  0  0  0  0  0  0
   15.8687    3.7363   -1.3196 H   0  0  0  0  0  0  0  0  0  0  0  0
   14.0904    2.8714   -0.5127 C   0  0  0  0  0  0  0  0  0  0  0  0
   13.9506    2.1998   -1.3460 H   0  0  0  0  0  0  0  0  0  0  0  0
   13.1814    2.8559    0.5333 C   0  0  0  0  0  0  0  0  0  0  0  0
   11.9982    1.9454    0.5734 C   0  0  0  0  0  0  0  0  0  0  0  0
   11.9523    1.3282   -0.3191 H   0  0  0  0  0  0  0  0  0  0  0  0
   11.0769    2.5230    0.6542 H   0  0  0  0  0  0  0  0  0  0  0  0
   12.0475    1.2986    1.4500 H   0  0  0  0  0  0  0  0  0  0  0  0
   14.6425    5.5502    2.8004 C   0  0  0  0  0  0  0  0  0  0  0  0
   15.5257    6.1724    2.6890 H   0  0  0  0  0  0  0  0  0  0  0  0
   14.7241    4.9794    3.7260 H   0  0  0  0  0  0  0  0  0  0  0  0
   13.7659    6.1914    2.9002 H   0  0  0  0  0  0  0  0  0  0  0  0
   12.1466    1.4018    8.0711 C   0  0  0  0  0  0  0  0  0  0  0  0
   11.4649    0.6243    7.7339 H   0  0  0  0  0  0  0  0  0  0  0  0
   12.7853    0.9701    8.8364 H   0  0  0  0  0  0  0  0  0  0  0  0
   12.7721    1.6775    7.2264 H   0  0  0  0  0  0  0  0  0  0  0  0
   12.3045    4.2885    9.4487 C   0  0  0  0  0  0  0  0  0  0  0  0
   11.7149    5.0648    9.9298 H   0  0  0  0  0  0  0  0  0  0  0  0
   12.9057    4.7479    8.6704 H   0  0  0  0  0  0  0  0  0  0  0  0
   12.9807    3.8851   10.1960 H   0  0  0  0  0  0  0  0  0  0  0  0
    7.5821    6.6782    3.7944 C   0  0  0  0  0  0  0  0  0  0  0  0
    7.0205    5.8026    3.4782 H   0  0  0  0  0  0  0  0  0  0  0  0
    8.5307    6.6653    3.2636 H   0  0  0  0  0  0  0  0  0  0  0  0
    7.0317    7.5569    3.4720 H   0  0  0  0  0  0  0  0  0  0  0  0
    8.8598    8.1890    6.2832 C   0  0  0  0  0  0  0  0  0  0  0  0
    8.9168    8.2237    7.3678 H   0  0  0  0  0  0  0  0  0  0  0  0
    8.3979    9.1138    5.9533 H   0  0  0  0  0  0  0  0  0  0  0  0
    9.8717    8.1690    5.8903 H   0  0  0  0  0  0  0  0  0  0  0  0
    6.1465    6.6661    6.5632 C   0  0  0  0  0  0  0  0  0  0  0  0
    5.5326    5.8327    6.2360 H   0  0  0  0  0  0  0  0  0  0  0  0
    5.6015    7.5781    6.3465 H   0  0  0  0  0  0  0  0  0  0  0  0
    6.2511    6.5947    7.6415 H   0  0  0  0  0  0  0  0  0  0  0  0
  1 12  1  0  0  0  0
  2 48  1  0  0  0  0
  2 52  1  0  0  0  0
  3 40  1  0  0  0  0
  3  8  1  0  0  0  0
  9 10  1  0  0  0  0
 10  1  1  0  0  0  0
 11  3  1  1  0  0  0
 12 11  1  0  0  0  0
 12 13  1  1  0  0  0
 14  2  1  1  0  0  0
 14 12  1  0  0  0  0
 15 14  1  0  0  0  0
 15 17  2  0  0  0  0
 16 15  1  0  0  0  0
 17 18  1  0  0  0  0
 17 11  1  0  0  0  0
 19 20  1  0  0  0  0
 19  9  1  0  0  0  0
 20 32  1  0  0  0  0
 21 20  2  0  0  0  0
 22 21  1  0  0  0  0
 23 21  1  0  0  0  0
 24 23  1  0  0  0  0
 25 23  2  0  0  0  0
 25 27  1  0  0  0  0
 26 25  1  0  0  0  0
 27 28  1  0  0  0  0
 27 19  2  0  0  0  0
 28 30  1  0  0  0  0
 28 31  1  0  0  0  0
 29 28  1  0  0  0  0
 32 35  1  0  0  0  0
 32 34  1  0  0  0  0
 33 32  1  0  0  0  0
 36  3  1  0  0  0  0
 36 38  1  0  0  0  0
 37 36  1  0  0  0  0
 39 36  1  0  0  0  0
 40 41  1  0  0  0  0
 40 43  1  0  0  0  0
 42 40  1  0  0  0  0
 44  2  1  0  0  0  0
 45 44  1  0  0  0  0
 46 44  1  0  0  0  0
 47 44  1  0  0  0  0
 48 49  1  0  0  0  0
 50 48  1  0  0  0  0
 51 48  1  0  0  0  0
 52 55  1  0  0  0  0
 53 52  1  0  0  0  0
 54 52  1  0  0  0  0
M  END
$$$$
