CSD_code = NEXDAV | q = 0 | S = 0 | Stoichiometry = C28H24Cl2O3PRe | MND = 6
 OpenBabel04212202073D

 59 63  0  0  1  0  0  0  0  0999 V2000
    2.5543    0.0587    0.2178 Re  0  0  0  0  0  0  0  0  0  0  0  0
    4.0640    0.2758   -1.7350 P   0  0  0  0  0  4  0  0  0  0  0  0
    4.3016   -1.0362    1.2374 Cl  0  0  0  0  0  0  0  0  0  0  0  0
    1.4437    0.3075    2.2226 Cl  0  0  0  0  0  0  0  0  0  0  0  0
    3.4022    1.7258    0.6760 O   0  0  0  0  0  0  0  0  0  0  0  0
    1.8133   -1.2799   -0.4035 O   0  0  0  0  0  1  0  0  0  0  0  0
    1.0206    1.5250   -0.5819 O   0  0  0  0  0  0  0  0  0  0  0  0
    3.1499    2.9795    0.7663 C   0  0  2  0  0  3  0  0  0  0  0  0
    1.9590    3.5201    0.3058 C   0  0  0  0  0  0  0  0  0  0  0  0
    1.7589    4.5661    0.4608 H   0  0  0  0  0  0  0  0  0  0  0  0
    0.9552    2.7438   -0.3233 C   0  0  0  0  0  0  0  0  0  0  0  0
   -0.2998    3.4688   -0.7443 C   0  0  0  0  0  0  0  0  0  0  0  0
   -0.9269    2.8069   -1.3350 H   0  0  0  0  0  0  0  0  0  0  0  0
   -0.0536    4.3601   -1.3162 H   0  0  0  0  0  0  0  0  0  0  0  0
   -0.8447    3.7716    0.1482 H   0  0  0  0  0  0  0  0  0  0  0  0
    4.2021    3.8079    1.3882 C   0  0  0  0  0  0  0  0  0  0  0  0
    4.3477    5.1651    1.1120 C   0  0  0  0  0  0  0  0  0  0  0  0
    3.6722    5.6553    0.4276 H   0  0  0  0  0  0  0  0  0  0  0  0
    5.3772    5.8822    1.6909 C   0  0  0  0  0  0  0  0  0  0  0  0
    5.4885    6.9336    1.4694 H   0  0  0  0  0  0  0  0  0  0  0  0
    6.2669    5.2583    2.5514 C   0  0  0  0  0  0  0  0  0  0  0  0
    7.0667    5.8256    3.0040 H   0  0  0  0  0  0  0  0  0  0  0  0
    6.1302    3.9078    2.8272 C   0  0  0  0  0  0  0  0  0  0  0  0
    6.8214    3.4180    3.4965 H   0  0  0  0  0  0  0  0  0  0  0  0
    5.1089    3.1835    2.2442 C   0  0  0  0  0  0  0  0  0  0  0  0
    4.9944    2.1293    2.4516 H   0  0  0  0  0  0  0  0  0  0  0  0
    5.2416    1.6221   -1.4766 C   0  0  0  0  0  0  0  0  0  0  0  0
    5.0148    2.8951   -1.9916 C   0  0  0  0  0  0  0  0  0  0  0  0
    4.1724    3.0686   -2.6482 H   0  0  0  0  0  0  0  0  0  0  0  0
    5.8660    3.9335   -1.6576 C   0  0  0  0  0  0  0  0  0  0  0  0
    5.6932    4.9199   -2.0620 H   0  0  0  0  0  0  0  0  0  0  0  0
    6.9296    3.7130   -0.7982 C   0  0  0  0  0  0  0  0  0  0  0  0
    7.5863    4.5283   -0.5346 H   0  0  0  0  0  0  0  0  0  0  0  0
    7.1386    2.4528   -0.2597 C   0  0  0  0  0  0  0  0  0  0  0  0
    7.9549    2.2878    0.4271 H   0  0  0  0  0  0  0  0  0  0  0  0
    6.2959    1.4081   -0.5895 C   0  0  0  0  0  0  0  0  0  0  0  0
    6.4287    0.4276   -0.1520 H   0  0  0  0  0  0  0  0  0  0  0  0
    3.2448    0.5770   -3.3270 C   0  0  0  0  0  0  0  0  0  0  0  0
    3.9713    0.9959   -4.4384 C   0  0  0  0  0  0  0  0  0  0  0  0
    5.0328    1.1824   -4.3512 H   0  0  0  0  0  0  0  0  0  0  0  0
    3.3294    1.1718   -5.6500 C   0  0  0  0  0  0  0  0  0  0  0  0
    3.8906    1.5000   -6.5125 H   0  0  0  0  0  0  0  0  0  0  0  0
    1.9696    0.9236   -5.7595 C   0  0  0  0  0  0  0  0  0  0  0  0
    1.4731    1.0639   -6.7082 H   0  0  0  0  0  0  0  0  0  0  0  0
    1.2496    0.4921   -4.6575 C   0  0  0  0  0  0  0  0  0  0  0  0
    0.1925    0.2923   -4.7468 H   0  0  0  0  0  0  0  0  0  0  0  0
    1.8838    0.3144   -3.4398 C   0  0  0  0  0  0  0  0  0  0  0  0
    1.3345   -0.0234   -2.5703 H   0  0  0  0  0  0  0  0  0  0  0  0
    5.0486   -1.2068   -2.0891 C   0  0  0  0  0  0  0  0  0  0  0  0
    6.3164   -1.1308   -2.6548 C   0  0  0  0  0  0  0  0  0  0  0  0
    6.7711   -0.1688   -2.8474 H   0  0  0  0  0  0  0  0  0  0  0  0
    7.0013   -2.2948   -2.9540 C   0  0  0  0  0  0  0  0  0  0  0  0
    7.9898   -2.2386   -3.3857 H   0  0  0  0  0  0  0  0  0  0  0  0
    6.4248   -3.5282   -2.6980 C   0  0  0  0  0  0  0  0  0  0  0  0
    6.9674   -4.4327   -2.9293 H   0  0  0  0  0  0  0  0  0  0  0  0
    5.1585   -3.6031   -2.1398 C   0  0  0  0  0  0  0  0  0  0  0  0
    4.7131   -4.5645   -1.9350 H   0  0  0  0  0  0  0  0  0  0  0  0
    4.4675   -2.4453   -1.8349 C   0  0  0  0  0  0  0  0  0  0  0  0
    3.4844   -2.4860   -1.3808 H   0  0  0  0  0  0  0  0  0  0  0  0
  1  5  1  0  0  0  0
  1  3  1  0  0  0  0
  1  4  1  0  0  0  0
  2 27  1  0  0  0  0
  2  1  1  0  0  0  0
  5  8  1  0  0  0  0
  6  1  1  0  0  0  0
  7 11  1  0  0  0  0
  7  1  1  0  0  0  0
  8 16  1  6  0  0  0
  9 10  1  0  0  0  0
  9  8  1  0  0  0  0
 11  9  2  0  0  0  0
 12 11  1  0  0  0  0
 12 15  1  0  0  0  0
 13 12  1  0  0  0  0
 14 12  1  0  0  0  0
 16 25  1  0  0  0  0
 17 16  2  0  0  0  0
 17 19  1  0  0  0  0
 18 17  1  0  0  0  0
 19 21  2  0  0  0  0
 20 19  1  0  0  0  0
 21 23  1  0  0  0  0
 21 22  1  0  0  0  0
 23 24  1  0  0  0  0
 25 26  1  0  0  0  0
 25 23  2  0  0  0  0
 27 36  1  0  0  0  0
 28 30  1  0  0  0  0
 28 27  2  0  0  0  0
 29 28  1  0  0  0  0
 30 32  2  0  0  0  0
 31 30  1  0  0  0  0
 32 33  1  0  0  0  0
 32 34  1  0  0  0  0
 34 35  1  0  0  0  0
 36 34  2  0  0  0  0
 36 37  1  0  0  0  0
 38  2  1  0  0  0  0
 39 40  1  0  0  0  0
 39 38  2  0  0  0  0
 41 39  1  0  0  0  0
 42 41  1  0  0  0  0
 43 41  2  0  0  0  0
 43 45  1  0  0  0  0
 44 43  1  0  0  0  0
 45 47  2  0  0  0  0
 46 45  1  0  0  0  0
 47 38  1  0  0  0  0
 47 48  1  0  0  0  0
 49 58  1  0  0  0  0
 49  2  1  0  0  0  0
 50 49  2  0  0  0  0
 51 50  1  0  0  0  0
 52 54  2  0  0  0  0
 52 50  1  0  0  0  0
 53 52  1  0  0  0  0
 54 56  1  0  0  0  0
 55 54  1  0  0  0  0
 56 57  1  0  0  0  0
 56 58  2  0  0  0  0
 58 59  1  0  0  0  0
M  END
$$$$
