CSD_code = NEXFAY | q = 1 | S = 0 | Stoichiometry = C21H23ClN3Ru(1+) | MND = 9
 OpenBabel04212202073D

 49 52  0  0  1  0  0  0  0  0999 V2000
    3.9238    3.6504    9.0511 Ru  0  0  2  0  0  0  0  0  0  0  0  0
    2.8310    4.6604    7.2941 Cl  0  0  0  0  0  0  0  0  0  0  0  0
    1.1965    5.8803   10.1295 C   0  0  0  0  0  0  0  0  0  0  0  0
    1.3704    6.8720   10.5405 H   0  0  0  0  0  0  0  0  0  0  0  0
    0.2332    5.5091   10.4699 H   0  0  0  0  0  0  0  0  0  0  0  0
    1.1556    5.9745    9.0412 H   0  0  0  0  0  0  0  0  0  0  0  0
    2.2959    4.9453   10.5025 C   0  0  0  0  0  0  0  0  0  0  0  0
    3.6163    5.4079   10.6775 C   0  0  0  0  0  0  0  0  0  0  0  0
    3.8204    6.4699   10.5962 H   0  0  0  0  0  0  0  0  0  0  0  0
    2.0400    3.5710   10.7130 C   0  0  0  0  0  0  0  0  0  0  0  0
    1.0227    3.2058   10.6440 H   0  0  0  0  0  0  0  0  0  0  0  0
    4.6422    4.5272   11.0660 C   0  0  1  0  0  0  0  0  0  0  0  0
    5.6247    4.9292   11.2903 H   0  0  0  0  0  0  0  0  0  0  0  0
    3.0586    2.6989   11.1179 C   0  0  0  0  0  0  0  0  0  0  0  0
    2.8129    1.6702   11.3603 H   0  0  0  0  0  0  0  0  0  0  0  0
    4.3810    3.1584   11.3141 C   0  0  2  0  0  3  0  0  0  0  0  0
    5.4519    2.2402   11.8564 C   0  0  0  0  0  0  0  0  0  0  0  0
    5.0079    1.2493   12.0028 H   0  0  0  0  0  0  0  0  0  0  0  0
    5.9561    2.7454   13.2114 C   0  0  0  0  0  0  0  0  0  0  0  0
    5.1284    2.8732   13.9048 H   0  0  0  0  0  0  0  0  0  0  0  0
    6.4753    3.6949   13.1117 H   0  0  0  0  0  0  0  0  0  0  0  0
    6.6489    2.0239   13.6349 H   0  0  0  0  0  0  0  0  0  0  0  0
    6.6045    2.1020   10.8572 C   0  0  0  0  0  0  0  0  0  0  0  0
    6.2389    1.7211    9.9010 H   0  0  0  0  0  0  0  0  0  0  0  0
    7.3428    1.4019   11.2383 H   0  0  0  0  0  0  0  0  0  0  0  0
    7.0995    3.0572   10.6917 H   0  0  0  0  0  0  0  0  0  0  0  0
    7.1049    3.0078    6.4414 C   0  0  0  0  0  0  0  0  0  0  0  0
    7.3535    2.1521    5.8368 H   0  0  0  0  0  0  0  0  0  0  0  0
    7.8369    4.1744    6.4225 C   0  0  0  0  0  0  0  0  0  0  0  0
    8.7089    4.2635    5.7949 H   0  0  0  0  0  0  0  0  0  0  0  0
    7.4265    5.2480    7.2127 C   0  0  0  0  0  0  0  0  0  0  0  0
    7.9674    6.1797    7.2053 H   0  0  0  0  0  0  0  0  0  0  0  0
    6.3039    5.1137    8.0058 C   0  0  0  0  0  3  0  0  0  0  0  0
    5.9437    5.9338    8.6142 H   0  0  0  0  0  0  0  0  0  0  0  0
    5.6024    3.9861    8.0515 N   0  0  0  0  0  0  0  0  0  0  0  0
    5.9752    2.9423    7.2636 C   0  0  0  0  0  0  0  0  0  0  0  0
    5.1705    1.8567    7.3284 N   0  0  0  0  0  2  0  0  0  0  0  0
    4.1543    2.0422    8.0771 N   0  0  0  0  0  0  0  0  0  0  0  0
    3.2430    0.9984    8.1929 C   0  0  0  0  0  0  0  0  0  0  0  0
    3.6661   -0.3335    8.1917 C   0  0  0  0  0  0  0  0  0  0  0  0
    4.7202   -0.5464    8.1022 H   0  0  0  0  0  0  0  0  0  0  0  0
    2.7316   -1.3423    8.3143 C   0  0  0  0  0  0  0  0  0  0  0  0
    3.0549   -2.3714    8.3226 H   0  0  0  0  0  0  0  0  0  0  0  0
    1.3816   -1.0373    8.4180 C   0  0  0  0  0  0  0  0  0  0  0  0
    0.6564   -1.8308    8.5069 H   0  0  0  0  0  0  0  0  0  0  0  0
    0.9592    0.2845    8.3873 C   0  0  0  0  0  0  0  0  0  0  0  0
   -0.0937    0.5156    8.4329 H   0  0  0  0  0  0  0  0  0  0  0  0
    1.8818    1.3063    8.2791 C   0  0  0  0  0  0  0  0  0  0  0  0
    1.5649    2.3386    8.1869 H   0  0  0  0  0  0  0  0  0  0  0  0
  1  2  1  6  0  0  0
  1 12  1  0  0  0  0
  3  5  1  0  0  0  0
  3  7  1  0  0  0  0
  3  4  1  0  0  0  0
  6  3  1  0  0  0  0
  7  8  2  0  0  0  0
  7 10  1  0  0  0  0
  8 12  1  0  0  0  0
  9  8  1  0  0  0  0
 10 14  2  0  0  0  0
 11 10  1  0  0  0  0
 12 13  1  1  0  0  0
 12 16  1  0  0  0  0
 14 16  1  0  0  0  0
 14 15  1  0  0  0  0
 16 17  1  1  0  0  0
 17 18  1  0  0  0  0
 17 19  1  0  0  0  0
 19 22  1  0  0  0  0
 19 20  1  0  0  0  0
 21 19  1  0  0  0  0
 23 25  1  0  0  0  0
 23 17  1  0  0  0  0
 24 23  1  0  0  0  0
 26 23  1  0  0  0  0
 27 36  2  0  0  0  0
 28 27  1  0  0  0  0
 29 27  1  0  0  0  0
 29 31  2  0  0  0  0
 30 29  1  0  0  0  0
 31 33  1  0  0  0  0
 32 31  1  0  0  0  0
 33 35  1  0  0  0  0
 33 34  1  0  0  0  0
 35  1  1  0  0  0  0
 36 37  1  0  0  0  0
 36 35  1  0  0  0  0
 37 38  1  0  0  0  0
 38 39  1  0  0  0  0
 38  1  1  0  0  0  0
 39 48  1  0  0  0  0
 40 39  2  0  0  0  0
 40 42  1  0  0  0  0
 41 40  1  0  0  0  0
 42 43  1  0  0  0  0
 42 44  2  0  0  0  0
 44 45  1  0  0  0  0
 46 44  1  0  0  0  0
 46 47  1  0  0  0  0
 48 46  2  0  0  0  0
 49 48  1  0  0  0  0
M  END
$$$$
