CSD_code = NEXFEC | q = 1 | S = 0 | Stoichiometry = C23H28ClN4Ru(1+) | MND = 9
 OpenBabel04212202073D

 57 60  0  0  1  0  0  0  0  0999 V2000
    2.3612    3.1499    4.0014 Ru  0  0  1  0  0  0  0  0  0  0  0  0
    1.4292    1.4441    5.2377 Cl  0  0  0  0  0  0  0  0  0  0  0  0
    2.3403    5.2187    2.9513 C   0  0  1  0  0  3  0  0  0  0  0  0
    3.1200    5.2780    4.1297 C   0  0  1  0  0  0  0  0  0  0  0  0
    4.1523    5.6069    4.0751 H   0  0  0  0  0  0  0  0  0  0  0  0
    2.5273    5.0989    5.4046 C   0  0  0  0  0  0  0  0  0  0  0  0
    3.1192    5.2757    6.2956 H   0  0  0  0  0  0  0  0  0  0  0  0
    1.1783    4.7594    5.5262 C   0  0  0  0  0  0  0  0  0  0  0  0
    0.3979    4.6780    4.3355 C   0  0  0  0  0  0  0  0  0  0  0  0
   -0.6663    4.4923    4.4250 H   0  0  0  0  0  0  0  0  0  0  0  0
    0.9520    4.9562    3.0903 C   0  0  0  0  0  0  0  0  0  0  0  0
    0.3171    4.9981    2.2127 H   0  0  0  0  0  0  0  0  0  0  0  0
    2.9089    5.5918    1.6018 C   0  0  0  0  0  0  0  0  0  0  0  0
    2.2274    5.2123    0.8310 H   0  0  0  0  0  0  0  0  0  0  0  0
    4.2903    4.9803    1.3608 C   0  0  0  0  0  0  0  0  0  0  0  0
    5.0472    5.4492    1.9845 H   0  0  0  0  0  0  0  0  0  0  0  0
    4.5786    5.1257    0.3234 H   0  0  0  0  0  0  0  0  0  0  0  0
    4.2822    3.9085    1.5649 H   0  0  0  0  0  0  0  0  0  0  0  0
    2.9633    7.1202    1.4917 C   0  0  0  0  0  0  0  0  0  0  0  0
    1.9736    7.5517    1.6223 H   0  0  0  0  0  0  0  0  0  0  0  0
    3.3381    7.4064    0.5131 H   0  0  0  0  0  0  0  0  0  0  0  0
    3.6237    7.5364    2.2488 H   0  0  0  0  0  0  0  0  0  0  0  0
    0.5361    4.5282    6.8543 C   0  0  0  0  0  0  0  0  0  0  0  0
    1.1705    4.8742    7.6662 H   0  0  0  0  0  0  0  0  0  0  0  0
    0.3578    3.4588    6.9897 H   0  0  0  0  0  0  0  0  0  0  0  0
   -0.4262    5.0339    6.9091 H   0  0  0  0  0  0  0  0  0  0  0  0
    5.7249    0.7835    3.3437 C   0  0  0  0  0  0  0  0  0  0  0  0
    5.9885    0.1490    2.5148 H   0  0  0  0  0  0  0  0  0  0  0  0
    6.5160    0.9169    4.4611 C   0  0  0  0  0  0  0  0  0  0  0  0
    7.4515    0.3861    4.5364 H   0  0  0  0  0  0  0  0  0  0  0  0
    6.0863    1.7343    5.5077 C   0  0  0  0  0  0  0  0  0  0  0  0
    6.6739    1.8419    6.4040 H   0  0  0  0  0  0  0  0  0  0  0  0
    4.8851    2.4023    5.3898 C   0  0  0  0  0  3  0  0  0  0  0  0
    4.5080    3.0277    6.1894 H   0  0  0  0  0  0  0  0  0  0  0  0
    4.1219    2.3013    4.3063 N   0  0  0  0  0  0  0  0  0  0  0  0
    4.5108    1.4814    3.2934 C   0  0  0  0  0  0  0  0  0  0  0  0
    3.6435    1.3697    2.2687 N   0  0  0  0  0  2  0  0  0  0  0  0
    2.5500    2.0185    2.4591 N   0  0  0  0  0  0  0  0  0  0  0  0
    1.5817    1.9209    1.4993 C   0  0  0  0  0  0  0  0  0  0  0  0
    1.8906    1.5872    0.1673 C   0  0  0  0  0  0  0  0  0  0  0  0
    2.9265    1.4397   -0.0947 H   0  0  0  0  0  0  0  0  0  0  0  0
    0.9054    1.4775   -0.7727 C   0  0  0  0  0  0  0  0  0  0  0  0
    1.1866    1.2523   -1.7870 H   0  0  0  0  0  0  0  0  0  0  0  0
   -0.4588    1.6611   -0.4383 C   0  0  0  0  0  0  0  0  0  0  0  0
   -0.7575    1.9651    0.9123 C   0  0  0  0  0  0  0  0  0  0  0  0
   -1.7824    2.0515    1.2305 H   0  0  0  0  0  0  0  0  0  0  0  0
    0.2312    2.0961    1.8485 C   0  0  0  0  0  0  0  0  0  0  0  0
   -0.0255    2.2459    2.8908 H   0  0  0  0  0  0  0  0  0  0  0  0
   -1.4302    1.5384   -1.3638 N   0  0  0  0  0  0  0  0  0  0  0  0
   -2.8054    1.8465   -1.0483 C   0  0  0  0  0  0  0  0  0  0  0  0
   -3.2492    1.0812   -0.4051 H   0  0  0  0  0  0  0  0  0  0  0  0
   -3.3842    1.8987   -1.9666 H   0  0  0  0  0  0  0  0  0  0  0  0
   -2.8796    2.8140   -0.5497 H   0  0  0  0  0  0  0  0  0  0  0  0
   -1.1357    1.0412   -2.6882 C   0  0  0  0  0  0  0  0  0  0  0  0
   -0.5871    1.7814   -3.2773 H   0  0  0  0  0  0  0  0  0  0  0  0
   -2.0643    0.8144   -3.2048 H   0  0  0  0  0  0  0  0  0  0  0  0
   -0.5471    0.1240   -2.6355 H   0  0  0  0  0  0  0  0  0  0  0  0
  1  4  1  0  0  0  0
  1 35  1  0  0  0  0
  1  2  1  1  0  0  0
  3 13  1  1  0  0  0
  3 11  1  0  0  0  0
  3  4  1  0  0  0  0
  4  5  1  6  0  0  0
  4  6  1  0  0  0  0
  6  8  2  0  0  0  0
  6  7  1  0  0  0  0
  8 23  1  0  0  0  0
  9 10  1  0  0  0  0
  9  8  1  0  0  0  0
 11  9  2  0  0  0  0
 12 11  1  0  0  0  0
 14 13  1  0  0  0  0
 15 18  1  0  0  0  0
 15 13  1  0  0  0  0
 15 16  1  0  0  0  0
 17 15  1  0  0  0  0
 19 13  1  0  0  0  0
 19 20  1  0  0  0  0
 19 22  1  0  0  0  0
 21 19  1  0  0  0  0
 23 26  1  0  0  0  0
 23 25  1  0  0  0  0
 23 24  1  0  0  0  0
 27 29  1  0  0  0  0
 28 27  1  0  0  0  0
 29 30  1  0  0  0  0
 29 31  2  0  0  0  0
 31 32  1  0  0  0  0
 33 31  1  0  0  0  0
 33 34  1  0  0  0  0
 35 33  1  0  0  0  0
 36 27  2  0  0  0  0
 36 35  1  0  0  0  0
 37 38  1  0  0  0  0
 37 36  1  0  0  0  0
 38  1  1  0  0  0  0
 39 47  1  0  0  0  0
 39 38  1  0  0  0  0
 40 39  2  0  0  0  0
 41 40  1  0  0  0  0
 42 44  2  0  0  0  0
 42 40  1  0  0  0  0
 43 42  1  0  0  0  0
 44 45  1  0  0  0  0
 45 46  1  0  0  0  0
 45 47  2  0  0  0  0
 47 48  1  0  0  0  0
 49 50  1  0  0  0  0
 49 44  1  0  0  0  0
 50 53  1  0  0  0  0
 50 51  1  0  0  0  0
 52 50  1  0  0  0  0
 54 57  1  0  0  0  0
 54 49  1  0  0  0  0
 55 54  1  0  0  0  0
 56 54  1  0  0  0  0
M  END
$$$$
