CSD_code = NEYRAL | q = 0 | S = 0 | Stoichiometry = C18H33FI2NiP2 | MND = 4
 OpenBabel04212202073D

 57 57  0  0  0  0  0  0  0  0999 V2000
    3.6313    9.2958    6.8360 C   0  0  0  0  0  0  0  0  0  0  0  0
    2.5045    9.5471    7.6168 C   0  0  0  0  0  0  0  0  0  0  0  0
    1.5240    9.5786    7.1625 H   0  0  0  0  0  0  0  0  0  0  0  0
    2.6092    9.7596    8.9820 C   0  0  0  0  0  0  0  0  0  0  0  0
    1.7171    9.9517    9.5605 H   0  0  0  0  0  0  0  0  0  0  0  0
    3.8390    9.7288    9.6166 C   0  0  0  0  0  0  0  0  0  0  0  0
    3.9391    9.8913   10.6776 H   0  0  0  0  0  0  0  0  0  0  0  0
    4.9667    9.4805    8.8568 C   0  0  0  0  0  0  0  0  0  0  0  0
    4.8567    9.2698    7.4972 C   0  0  0  0  0  0  0  0  0  0  0  0
    6.1784    9.4442    9.4492 F   0  0  0  0  0  0  0  0  0  0  0  0
    4.0783    8.5341    2.5901 I   0  0  0  0  0  0  0  0  0  0  0  0
    0.6923    7.1518    5.5139 C   0  0  0  0  0  0  0  0  0  0  0  0
   -0.2818    6.8482    5.1345 H   0  0  0  0  0  0  0  0  0  0  0  0
    0.8287    8.2079    5.2847 H   0  0  0  0  0  0  0  0  0  0  0  0
    0.6943    7.0276    6.5957 H   0  0  0  0  0  0  0  0  0  0  0  0
    3.3332    4.7593    7.4198 C   0  0  0  0  0  0  0  0  0  0  0  0
    3.3203    4.5865    8.4951 H   0  0  0  0  0  0  0  0  0  0  0  0
    4.1169    4.1374    6.9949 H   0  0  0  0  0  0  0  0  0  0  0  0
    2.3737    4.4389    7.0198 H   0  0  0  0  0  0  0  0  0  0  0  0
    5.9331    5.5768    4.6525 C   0  0  0  0  0  0  0  0  0  0  0  0
    6.3962    4.7314    4.1475 H   0  0  0  0  0  0  0  0  0  0  0  0
    6.2224    5.5494    5.7020 H   0  0  0  0  0  0  0  0  0  0  0  0
    6.3274    6.4874    4.2062 H   0  0  0  0  0  0  0  0  0  0  0  0
    1.1751   11.3733    4.7501 C   0  0  0  0  0  0  0  0  0  0  0  0
    0.2671   11.7152    4.2565 H   0  0  0  0  0  0  0  0  0  0  0  0
    1.2041   11.7997    5.7517 H   0  0  0  0  0  0  0  0  0  0  0  0
    1.1261   10.2875    4.8336 H   0  0  0  0  0  0  0  0  0  0  0  0
    6.6003   11.5481    3.6580 C   0  0  0  0  0  0  0  0  0  0  0  0
    7.2121   12.0711    2.9257 H   0  0  0  0  0  0  0  0  0  0  0  0
    6.7860   10.4819    3.5460 H   0  0  0  0  0  0  0  0  0  0  0  0
    6.9194   11.8545    4.6531 H   0  0  0  0  0  0  0  0  0  0  0  0
    4.3699   13.7263    5.9048 C   0  0  0  0  0  0  0  0  0  0  0  0
    4.4061   14.2419    6.8634 H   0  0  0  0  0  0  0  0  0  0  0  0
    3.5181   14.1145    5.3506 H   0  0  0  0  0  0  0  0  0  0  0  0
    5.2811   13.9691    5.3642 H   0  0  0  0  0  0  0  0  0  0  0  0
    6.5693    8.8857    6.3099 I   0  0  0  0  0  0  0  0  0  0  0  0
    1.7965    6.3357    4.8603 C   0  0  0  0  0  0  0  0  0  0  0  0
    1.7659    6.4763    3.7751 H   0  0  0  0  0  0  0  0  0  0  0  0
    1.6663    5.2693    5.0643 H   0  0  0  0  0  0  0  0  0  0  0  0
    3.5864    6.2372    7.1560 C   0  0  0  0  0  0  0  0  0  0  0  0
    4.5829    6.5025    7.5245 H   0  0  0  0  0  0  0  0  0  0  0  0
    2.8703    6.8406    7.7234 H   0  0  0  0  0  0  0  0  0  0  0  0
    4.4222    5.5162    4.4861 C   0  0  0  0  0  0  0  0  0  0  0  0
    4.0329    4.5554    4.8343 H   0  0  0  0  0  0  0  0  0  0  0  0
    4.1681    5.6211    3.4282 H   0  0  0  0  0  0  0  0  0  0  0  0
    2.4036   11.7664    3.9451 C   0  0  0  0  0  0  0  0  0  0  0  0
    2.4760   12.8529    3.8461 H   0  0  0  0  0  0  0  0  0  0  0  0
    2.3364   11.3391    2.9396 H   0  0  0  0  0  0  0  0  0  0  0  0
    5.1297   11.8570    3.4208 C   0  0  0  0  0  0  0  0  0  0  0  0
    4.8288   11.4651    2.4459 H   0  0  0  0  0  0  0  0  0  0  0  0
    4.9550   12.9366    3.4208 H   0  0  0  0  0  0  0  0  0  0  0  0
    4.2481   12.2286    6.1486 C   0  0  0  0  0  0  0  0  0  0  0  0
    3.4160   12.0315    6.8328 H   0  0  0  0  0  0  0  0  0  0  0  0
    5.1557   11.8717    6.6465 H   0  0  0  0  0  0  0  0  0  0  0  0
    3.4916    6.8253    5.3991 P   0  0  0  0  0  4  0  0  0  0  0  0
    3.9776   11.1376    4.6727 P   0  0  0  0  0  4  0  0  0  0  0  0
    3.9254    8.9559    5.0107 Ni  0  0  0  0  0  0  0  0  0  0  0  0
  1  9  2  0  0  0  0
  1  2  1  0  0  0  0
  2  4  2  0  0  0  0
  3  2  1  0  0  0  0
  4  5  1  0  0  0  0
  4  6  1  0  0  0  0
  6  7  1  0  0  0  0
  8 10  1  0  0  0  0
  8  6  2  0  0  0  0
  9  8  1  0  0  0  0
 11 57  1  0  0  0  0
 12 15  1  0  0  0  0
 13 12  1  0  0  0  0
 14 12  1  0  0  0  0
 16 17  1  0  0  0  0
 18 16  1  0  0  0  0
 19 16  1  0  0  0  0
 20 22  1  0  0  0  0
 21 20  1  0  0  0  0
 23 20  1  0  0  0  0
 24 27  1  0  0  0  0
 24 26  1  0  0  0  0
 25 24  1  0  0  0  0
 28 31  1  0  0  0  0
 29 28  1  0  0  0  0
 30 28  1  0  0  0  0
 32 52  1  0  0  0  0
 32 33  1  0  0  0  0
 34 32  1  0  0  0  0
 35 32  1  0  0  0  0
 36  9  1  0  0  0  0
 37 39  1  0  0  0  0
 37 55  1  0  0  0  0
 37 12  1  0  0  0  0
 38 37  1  0  0  0  0
 40 16  1  0  0  0  0
 40 41  1  0  0  0  0
 40 42  1  0  0  0  0
 43 20  1  0  0  0  0
 43 44  1  0  0  0  0
 43 55  1  0  0  0  0
 45 43  1  0  0  0  0
 46 56  1  0  0  0  0
 46 24  1  0  0  0  0
 47 46  1  0  0  0  0
 48 46  1  0  0  0  0
 49 28  1  0  0  0  0
 49 56  1  0  0  0  0
 50 49  1  0  0  0  0
 51 49  1  0  0  0  0
 52 54  1  0  0  0  0
 52 53  1  0  0  0  0
 55 40  1  0  0  0  0
 56 57  1  0  0  0  0
 56 52  1  0  0  0  0
 57 55  1  0  0  0  0
 57  1  1  0  0  0  0
M  END
$$$$
