CSD_code = NEZJEH | q = 0 | S = 0 | Stoichiometry = C26H27Cl3N4PRe | MND = 6
 OpenBabel04212202073D

 62 66  0  0  0  0  0  0  0  0999 V2000
    4.4432    8.0536   16.2558 Re  0  0  0  0  0  0  0  0  0  0  0  0
    3.6481    6.0490   15.3123 Cl  0  0  0  0  0  0  0  0  0  0  0  0
    4.2046    9.2443   14.2846 Cl  0  0  0  0  0  0  0  0  0  0  0  0
    5.4273    9.8571   17.3954 Cl  0  0  0  0  0  0  0  0  0  0  0  0
    2.3281    8.6598   17.1139 P   0  0  0  0  0  4  0  0  0  0  0  0
    4.8110    5.2121   19.4837 N   0  0  0  0  0  0  0  0  0  0  0  0
    4.4328    3.9886   20.1298 C   0  0  0  0  0  0  0  0  0  0  0  0
    4.3453    5.6749   18.3134 C   0  0  0  0  0  3  0  0  0  0  0  0
    4.8730    6.8467   18.0221 N   0  0  0  0  0  0  0  0  0  0  0  0
    5.7163    7.1527   19.0464 C   0  0  0  0  0  0  0  0  0  0  0  0
    5.6823    6.1454   19.9628 C   0  0  0  0  0  0  0  0  0  0  0  0
    8.3131    7.8760   14.5931 N   0  0  0  0  0  0  0  0  0  0  0  0
    9.4398    8.5272   13.9896 C   0  0  0  0  0  0  0  0  0  0  0  0
    7.1923    8.4638   15.0425 C   0  0  0  0  0  3  0  0  0  0  0  0
    6.3517    7.5742   15.5201 N   0  0  0  0  0  0  0  0  0  0  0  0
    6.9448    6.3608   15.3743 C   0  0  0  0  0  0  0  0  0  0  0  0
    8.1665    6.5345   14.7960 C   0  0  0  0  0  0  0  0  0  0  0  0
    2.0108    7.8009   18.6845 C   0  0  0  0  0  0  0  0  0  0  0  0
    1.2363    6.6482   18.7499 C   0  0  0  0  0  0  0  0  0  0  0  0
    1.1411    5.9435   19.9375 C   0  0  0  0  0  0  0  0  0  0  0  0
    1.8275    6.3749   21.0608 C   0  0  0  0  0  0  0  0  0  0  0  0
    2.6252    7.5072   20.9932 C   0  0  0  0  0  0  0  0  0  0  0  0
    2.7242    8.2123   19.8093 C   0  0  0  0  0  0  0  0  0  0  0  0
    0.8140    8.3691   16.1443 C   0  0  0  0  0  0  0  0  0  0  0  0
   -0.4336    8.5360   16.7410 C   0  0  0  0  0  0  0  0  0  0  0  0
   -1.5841    8.3593   15.9976 C   0  0  0  0  0  0  0  0  0  0  0  0
   -1.4995    8.0260   14.6540 C   0  0  0  0  0  0  0  0  0  0  0  0
   -0.2613    7.8740   14.0551 C   0  0  0  0  0  0  0  0  0  0  0  0
    0.8952    8.0471   14.7962 C   0  0  0  0  0  0  0  0  0  0  0  0
    2.0639   10.4173   17.5166 C   0  0  0  0  0  0  0  0  0  0  0  0
    2.5320   11.3506   16.5967 C   0  0  0  0  0  0  0  0  0  0  0  0
    2.3246   12.7004   16.8097 C   0  0  0  0  0  0  0  0  0  0  0  0
    1.6441   13.1276   17.9379 C   0  0  0  0  0  0  0  0  0  0  0  0
    1.1674   12.2009   18.8497 C   0  0  0  0  0  0  0  0  0  0  0  0
    1.3715   10.8484   18.6421 C   0  0  0  0  0  0  0  0  0  0  0  0
    5.3201    3.4190   20.4104 H   0  0  0  0  0  0  0  0  0  0  0  0
    3.8270    3.3962   19.4473 H   0  0  0  0  0  0  0  0  0  0  0  0
    3.8495    4.1999   21.0283 H   0  0  0  0  0  0  0  0  0  0  0  0
    3.6441    5.1542   17.6905 H   0  0  0  0  0  0  0  0  0  0  0  0
    6.2668    8.0726   19.0532 H   0  0  0  0  0  0  0  0  0  0  0  0
    6.1989    6.0221   20.8919 H   0  0  0  0  0  0  0  0  0  0  0  0
    9.5244    8.2472   12.9372 H   0  0  0  0  0  0  0  0  0  0  0  0
   10.3602    8.2438   14.5029 H   0  0  0  0  0  0  0  0  0  0  0  0
    9.3098    9.6053   14.0590 H   0  0  0  0  0  0  0  0  0  0  0  0
    7.0165    9.5217   15.0172 H   0  0  0  0  0  0  0  0  0  0  0  0
    6.4501    5.4577   15.6721 H   0  0  0  0  0  0  0  0  0  0  0  0
    8.9213    5.8286   14.5177 H   0  0  0  0  0  0  0  0  0  0  0  0
    0.7125    6.3067   17.8684 H   0  0  0  0  0  0  0  0  0  0  0  0
    0.5301    5.0534   19.9867 H   0  0  0  0  0  0  0  0  0  0  0  0
    1.7429    5.8277   21.9895 H   0  0  0  0  0  0  0  0  0  0  0  0
    3.1731    7.8366   21.8645 H   0  0  0  0  0  0  0  0  0  0  0  0
    3.3609    9.0842   19.7383 H   0  0  0  0  0  0  0  0  0  0  0  0
   -0.4982    8.8019   17.7872 H   0  0  0  0  0  0  0  0  0  0  0  0
   -2.5509    8.4844   16.4642 H   0  0  0  0  0  0  0  0  0  0  0  0
   -2.4021    7.8895   14.0759 H   0  0  0  0  0  0  0  0  0  0  0  0
   -0.1934    7.6206   13.0076 H   0  0  0  0  0  0  0  0  0  0  0  0
    1.8626    7.9325   14.3299 H   0  0  0  0  0  0  0  0  0  0  0  0
    3.0675   11.0096   15.7206 H   0  0  0  0  0  0  0  0  0  0  0  0
    2.6976   13.4206   16.0965 H   0  0  0  0  0  0  0  0  0  0  0  0
    1.4856   14.1827   18.1087 H   0  0  0  0  0  0  0  0  0  0  0  0
    0.6345   12.5323   19.7298 H   0  0  0  0  0  0  0  0  0  0  0  0
    1.0009   10.1336   19.3638 H   0  0  0  0  0  0  0  0  0  0  0  0
  1  5  1  0  0  0  0
  1  4  1  0  0  0  0
  1  9  1  0  0  0  0
  2  1  1  0  0  0  0
  3  1  1  0  0  0  0
  5 30  1  0  0  0  0
  5 18  1  0  0  0  0
  6 11  1  0  0  0  0
  6  7  1  0  0  0  0
  7 36  1  0  0  0  0
  7 38  1  0  0  0  0
  8  6  1  0  0  0  0
  9  8  1  0  0  0  0
  9 10  1  0  0  0  0
 10 40  1  0  0  0  0
 10 11  2  0  0  0  0
 11 41  1  0  0  0  0
 12 17  1  0  0  0  0
 12 14  1  0  0  0  0
 13 44  1  0  0  0  0
 13 43  1  0  0  0  0
 13 12  1  0  0  0  0
 14 15  1  0  0  0  0
 15  1  1  0  0  0  0
 16 15  1  0  0  0  0
 16 46  1  0  0  0  0
 17 16  2  0  0  0  0
 18 19  2  0  0  0  0
 18 23  1  0  0  0  0
 19 20  1  0  0  0  0
 20 49  1  0  0  0  0
 20 21  2  0  0  0  0
 21 50  1  0  0  0  0
 22 21  1  0  0  0  0
 22 51  1  0  0  0  0
 23 22  2  0  0  0  0
 24 25  1  0  0  0  0
 24  5  1  0  0  0  0
 25 53  1  0  0  0  0
 26 54  1  0  0  0  0
 26 25  2  0  0  0  0
 27 26  1  0  0  0  0
 28 27  2  0  0  0  0
 28 29  1  0  0  0  0
 29 24  2  0  0  0  0
 30 35  1  0  0  0  0
 31 32  1  0  0  0  0
 31 30  2  0  0  0  0
 32 33  2  0  0  0  0
 33 60  1  0  0  0  0
 33 34  1  0  0  0  0
 34 61  1  0  0  0  0
 35 34  2  0  0  0  0
 35 62  1  0  0  0  0
 37  7  1  0  0  0  0
 39  8  1  0  0  0  0
 42 13  1  0  0  0  0
 45 14  1  0  0  0  0
 47 17  1  0  0  0  0
 48 19  1  0  0  0  0
 52 23  1  0  0  0  0
 55 27  1  0  0  0  0
 56 28  1  0  0  0  0
 57 29  1  0  0  0  0
 58 31  1  0  0  0  0
 59 32  1  0  0  0  0
M  END
$$$$
