CSD_code = NIBCIM | q = 0 | S = 0 | Stoichiometry = C18H14ClN4O4Re | MND = 6
 OpenBabel04212202073D

 42 45  0  0  0  0  0  0  0  0999 V2000
    9.2095   -0.5392    5.5054 Re  0  0  0  0  0  0  0  0  0  0  0  0
    7.8421    2.2269    6.2861 C   0  0  0  0  0  3  0  0  0  0  0  0
    8.6616    2.2886    6.9899 H   0  0  0  0  0  0  0  0  0  0  0  0
    6.9863    3.2991    6.1014 C   0  0  0  0  0  0  0  0  0  0  0  0
    7.1392    4.2102    6.6567 H   0  0  0  0  0  0  0  0  0  0  0  0
    5.9459    3.1802    5.1911 C   0  0  0  0  0  0  0  0  0  0  0  0
    5.2644    3.9993    5.0190 H   0  0  0  0  0  0  0  0  0  0  0  0
    5.8018    1.9899    4.5042 C   0  0  0  0  0  0  0  0  0  0  0  0
    5.0113    1.8473    3.7843 H   0  0  0  0  0  0  0  0  0  0  0  0
    6.7107    0.9636    4.7422 C   0  0  0  0  0  0  0  0  0  0  0  0
    6.6620   -0.3107    4.0590 C   0  0  0  0  0  0  0  0  0  0  0  0
    5.8638   -0.8643    3.0763 C   0  0  0  0  0  0  0  0  0  0  0  0
    5.0221   -0.4899    2.5343 H   0  0  0  0  0  0  0  0  0  0  0  0
    5.9611   -3.1017    1.9268 C   0  0  0  0  0  0  0  0  0  0  0  0
    6.0332   -4.0676    2.4351 H   0  0  0  0  0  0  0  0  0  0  0  0
    6.6707   -3.1013    1.0924 H   0  0  0  0  0  0  0  0  0  0  0  0
    4.5651   -2.8352    1.4388 C   0  0  0  0  0  0  0  0  0  0  0  0
    4.3465   -2.2182    0.2166 C   0  0  0  0  0  0  0  0  0  0  0  0
    5.1873   -1.9557   -0.4092 H   0  0  0  0  0  0  0  0  0  0  0  0
    3.0655   -1.9305   -0.2223 C   0  0  0  0  0  0  0  0  0  0  0  0
    2.9362   -1.4534   -1.1805 H   0  0  0  0  0  0  0  0  0  0  0  0
    1.9703   -2.2578    0.5715 C   0  0  0  0  0  0  0  0  0  0  0  0
    2.1879   -2.8801    1.8046 C   0  0  0  0  0  0  0  0  0  0  0  0
    1.3307   -3.1323    2.4078 H   0  0  0  0  0  0  0  0  0  0  0  0
    3.4665   -3.1631    2.2293 C   0  0  0  0  0  0  0  0  0  0  0  0
    3.6184   -3.6450    3.1841 H   0  0  0  0  0  0  0  0  0  0  0  0
    0.6757   -2.0194    0.2499 O   0  0  0  0  0  0  0  0  0  0  0  0
    0.3839   -1.4007   -0.9816 C   0  0  0  0  0  0  0  0  0  0  0  0
    0.8225   -0.3996   -1.0419 H   0  0  0  0  0  0  0  0  0  0  0  0
   -0.7010   -1.3204   -1.0198 H   0  0  0  0  0  0  0  0  0  0  0  0
    0.7317   -2.0035   -1.8263 H   0  0  0  0  0  0  0  0  0  0  0  0
    7.7184    1.0823    5.6250 N   0  0  0  0  0  0  0  0  0  0  0  0
    7.5982   -1.2457    4.3707 N   0  0  0  0  0  0  0  0  0  0  0  0
    7.4154   -2.2995    3.6661 N   0  0  0  0  0  2  0  0  0  0  0  0
    6.3778   -2.0925    2.8753 N   0  0  0  0  0  0  0  0  0  0  0  0
   10.6621    0.4771    6.3097 C   0  0  0  0  0  2  0  0  0  0  0  0
   10.4124   -1.9886    5.0022 C   0  0  0  0  0  2  0  0  0  0  0  0
    8.6591   -1.3706    7.1712 C   0  0  0  0  0  2  0  0  0  0  0  0
   11.5001    1.1583    6.6885 O   0  0  0  0  0  1  0  0  0  0  0  0
   11.0934   -2.8114    4.5966 O   0  0  0  0  0  1  0  0  0  0  0  0
    8.3018   -1.8434    8.1567 O   0  0  0  0  0  1  0  0  0  0  0  0
    9.6442    0.5925    3.4441 Cl  0  0  0  0  0  0  0  0  0  0  0  0
  1 32  1  0  0  0  0
  1 36  1  0  0  0  0
  1 38  1  0  0  0  0
  2  3  1  0  0  0  0
  4  2  1  0  0  0  0
  4  5  1  0  0  0  0
  6  4  2  0  0  0  0
  7  6  1  0  0  0  0
  8 10  2  0  0  0  0
  8  6  1  0  0  0  0
  9  8  1  0  0  0  0
 10 32  1  0  0  0  0
 11 33  1  0  0  0  0
 11 10  1  0  0  0  0
 12 11  2  0  0  0  0
 13 12  1  0  0  0  0
 14 15  1  0  0  0  0
 14 35  1  0  0  0  0
 16 14  1  0  0  0  0
 17 14  1  0  0  0  0
 17 25  1  0  0  0  0
 18 17  2  0  0  0  0
 19 18  1  0  0  0  0
 20 18  1  0  0  0  0
 20 22  2  0  0  0  0
 21 20  1  0  0  0  0
 22 23  1  0  0  0  0
 23 25  2  0  0  0  0
 23 24  1  0  0  0  0
 25 26  1  0  0  0  0
 27 22  1  0  0  0  0
 28 27  1  0  0  0  0
 29 28  1  0  0  0  0
 30 28  1  0  0  0  0
 31 28  1  0  0  0  0
 32  2  1  0  0  0  0
 33  1  1  0  0  0  0
 34 33  1  0  0  0  0
 35 12  1  0  0  0  0
 35 34  1  0  0  0  0
 36 39  1  0  0  0  0
 37  1  1  0  0  0  0
 38 41  1  0  0  0  0
 40 37  1  0  0  0  0
 42  1  1  0  0  0  0
M  END
$$$$
