CSD_code = NIBSAT | q = 0 | S = 0 | Stoichiometry = C12H12Cl2N8O2Pt | MND = 4
 OpenBabel04212202073D

 37 40  0  0  1  0  0  0  0  0999 V2000
    0.1080    3.8448    2.9894 Pt  0  0  0  0  0  0  0  0  0  0  0  0
    0.6040    6.0496    2.9247 Cl  0  0  0  0  0  0  0  0  0  0  0  0
    1.3562    3.6037    1.1180 Cl  0  0  0  0  0  0  0  0  0  0  0  0
   -0.7085   -0.2342    3.7865 N   0  0  0  0  0  0  0  0  0  0  0  0
   -0.4251    0.9910    4.1034 C   0  0  0  0  0  0  0  0  0  0  0  0
   -0.3311    1.3152    5.1199 H   0  0  0  0  0  0  0  0  0  0  0  0
   -0.2501    1.8120    3.0289 N   0  0  0  0  0  0  0  0  0  0  0  0
   -0.4237    0.9971    1.9894 C   0  0  1  0  0  3  0  0  0  0  0  0
   -0.3358    1.2670    0.6809 N   0  0  0  0  0  0  0  0  0  0  0  0
    0.1057    2.1848    0.4503 H   0  0  0  0  0  0  0  0  0  0  0  0
   -0.5183    0.2588   -0.2214 C   0  0  0  0  0  0  0  0  0  0  0  0
   -0.3502    0.6469   -1.6480 C   0  0  0  0  0  0  0  0  0  0  0  0
    0.6352    1.0850   -1.7980 H   0  0  0  0  0  0  0  0  0  0  0  0
   -1.0896    1.3992   -1.9182 H   0  0  0  0  0  0  0  0  0  0  0  0
   -0.4641   -0.2126   -2.2999 H   0  0  0  0  0  0  0  0  0  0  0  0
   -0.8418   -0.9893    0.2014 C   0  0  0  0  0  0  0  0  0  0  0  0
   -1.0047   -1.7816   -0.5098 H   0  0  0  0  0  0  0  0  0  0  0  0
   -0.9687   -1.3663    1.5896 C   0  0  0  0  0  0  0  0  0  0  0  0
   -1.2359   -2.4467    2.0389 O   0  0  0  0  0  0  0  0  0  0  0  0
   -0.7170   -0.2478    2.4415 N   0  0  0  0  0  0  0  0  0  0  0  0
   -2.7016    3.7893    6.1595 N   0  0  0  0  0  0  0  0  0  0  0  0
   -2.1842    3.4031    5.0352 C   0  0  0  0  0  0  0  0  0  0  0  0
   -2.5950    2.5964    4.4630 H   0  0  0  0  0  0  0  0  0  0  0  0
   -1.0897    4.1225    4.6543 N   0  0  0  0  0  0  0  0  0  0  0  0
   -0.9636    5.0244    5.6278 C   0  0  1  0  0  3  0  0  0  0  0  0
   -0.0707    6.0133    5.7546 N   0  0  0  0  0  0  0  0  0  0  0  0
    0.4958    6.2090    4.8967 H   0  0  0  0  0  0  0  0  0  0  0  0
   -0.1567    6.8569    6.8243 C   0  0  0  0  0  0  0  0  0  0  0  0
    0.8444    7.9575    6.8455 C   0  0  0  0  0  0  0  0  0  0  0  0
    0.7653    8.5457    5.9327 H   0  0  0  0  0  0  0  0  0  0  0  0
    1.8511    7.5444    6.8842 H   0  0  0  0  0  0  0  0  0  0  0  0
    0.6921    8.6038    7.7033 H   0  0  0  0  0  0  0  0  0  0  0  0
   -1.0996    6.6597    7.7800 C   0  0  0  0  0  0  0  0  0  0  0  0
   -1.1580    7.3143    8.6333 H   0  0  0  0  0  0  0  0  0  0  0  0
   -2.0901    5.6102    7.7338 C   0  0  0  0  0  0  0  0  0  0  0  0
   -2.9584    5.3795    8.5298 O   0  0  0  0  0  0  0  0  0  0  0  0
   -1.9332    4.8197    6.5547 N   0  0  0  0  0  0  0  0  0  0  0  0
  1  7  1  0  0  0  0
  1 24  1  0  0  0  0
  2  1  1  0  0  0  0
  3  1  1  0  0  0  0
  4  5  2  0  0  0  0
  5  6  1  0  0  0  0
  7  5  1  0  0  0  0
  8  9  1  1  0  0  0
  8 20  1  0  0  0  0
  8  7  1  0  0  0  0
 10  9  1  0  0  0  0
 11 16  2  0  0  0  0
 11  9  1  0  0  0  0
 12 11  1  0  0  0  0
 13 12  1  0  0  0  0
 14 12  1  0  0  0  0
 15 12  1  0  0  0  0
 16 18  1  0  0  0  0
 17 16  1  0  0  0  0
 18 19  2  0  0  0  0
 18 20  1  0  0  0  0
 20  4  1  0  0  0  0
 21 37  1  0  0  0  0
 22 21  2  0  0  0  0
 23 22  1  0  0  0  0
 24 22  1  0  0  0  0
 25 24  1  6  0  0  0
 25 26  1  0  0  0  0
 25 37  1  0  0  0  0
 26 28  1  0  0  0  0
 27 26  1  0  0  0  0
 28 29  1  0  0  0  0
 28 33  2  0  0  0  0
 29 31  1  0  0  0  0
 29 32  1  0  0  0  0
 30 29  1  0  0  0  0
 33 34  1  0  0  0  0
 35 33  1  0  0  0  0
 35 36  2  0  0  0  0
 37 35  1  0  0  0  0
M  END
$$$$
