CSD_code = NIBTAT | q = 0 | S = 0 | Stoichiometry = C13H16I2N2O2W | MND = 6
 OpenBabel04212202073D

 36 37  0  0  0  0  0  0  0  0999 V2000
   10.8325   18.1716    7.4661 W   0  0  0  0  0  0  0  0  0  0  0  0
   13.2094   19.5290    7.6430 I   0  0  0  0  0  0  0  0  0  0  0  0
   10.2745   18.4066   10.1478 I   0  0  0  0  0  0  0  0  0  0  0  0
   11.8852   15.2203    7.3951 O   0  0  0  0  0  1  0  0  0  0  0  0
   10.5825   17.6607    4.4093 O   0  0  0  0  0  1  0  0  0  0  0  0
    9.7719   20.2649    7.2812 N   0  0  0  0  0  4  0  0  0  0  0  0
    9.3726   17.2357    6.9736 N   0  0  0  0  0  2  0  0  0  0  0  0
    8.3024   20.1405    7.3975 C   0  0  0  0  0  0  0  0  0  0  0  0
    7.6277   21.5056    7.5252 C   0  0  0  0  0  0  0  0  0  0  0  0
    7.9689   22.3771    6.3197 C   0  0  0  0  0  0  0  0  0  0  0  0
    9.4850   22.4746    6.1742 C   0  0  0  0  0  0  0  0  0  0  0  0
   10.0988   21.0776    6.0889 C   0  0  0  0  0  0  0  0  0  0  0  0
    8.4757   16.4311    6.4006 C   0  0  0  0  0  0  0  0  0  0  0  0
    8.8873   15.3792    5.5555 C   0  0  0  0  0  0  0  0  0  0  0  0
    7.9517   14.5647    4.9562 C   0  0  0  0  0  0  0  0  0  0  0  0
    6.5965   14.7645    5.1739 C   0  0  0  0  0  0  0  0  0  0  0  0
    6.1772   15.7873    6.0119 C   0  0  0  0  0  0  0  0  0  0  0  0
    7.0951   16.6130    6.6220 C   0  0  0  0  0  0  0  0  0  0  0  0
   11.6634   16.3441    7.5217 C   0  0  0  0  0  2  0  0  0  0  0  0
   10.8635   17.9892    5.4822 C   0  0  0  0  0  2  0  0  0  0  0  0
   10.0674   20.8313    8.0931 H   0  0  0  0  0  0  0  0  0  0  0  0
    8.0609   19.5308    8.2758 H   0  0  0  0  0  0  0  0  0  0  0  0
    7.9377   19.6247    6.5002 H   0  0  0  0  0  0  0  0  0  0  0  0
    6.5489   21.3681    7.6027 H   0  0  0  0  0  0  0  0  0  0  0  0
    7.9669   21.9930    8.4430 H   0  0  0  0  0  0  0  0  0  0  0  0
    7.5379   23.3712    6.4402 H   0  0  0  0  0  0  0  0  0  0  0  0
    7.5431   21.9344    5.4164 H   0  0  0  0  0  0  0  0  0  0  0  0
    9.7470   23.0371    5.2779 H   0  0  0  0  0  0  0  0  0  0  0  0
    9.9058   23.0037    7.0334 H   0  0  0  0  0  0  0  0  0  0  0  0
    9.7136   20.5556    5.2046 H   0  0  0  0  0  0  0  0  0  0  0  0
   11.1866   21.1657    5.9944 H   0  0  0  0  0  0  0  0  0  0  0  0
    9.9436   15.2129    5.3981 H   0  0  0  0  0  0  0  0  0  0  0  0
    8.2827   13.7626    4.3134 H   0  0  0  0  0  0  0  0  0  0  0  0
    5.8713   14.1214    4.6999 H   0  0  0  0  0  0  0  0  0  0  0  0
    5.1236   15.9399    6.1935 H   0  0  0  0  0  0  0  0  0  0  0  0
    6.7741   17.4029    7.2865 H   0  0  0  0  0  0  0  0  0  0  0  0
  1 19  1  0  0  0  0
  1  2  1  0  0  0  0
  1  3  1  0  0  0  0
  4 19  1  0  0  0  0
  5 20  1  0  0  0  0
  6  8  1  0  0  0  0
  6  1  1  0  0  0  0
  6 21  1  0  0  0  0
  7  1  1  0  0  0  0
  8  9  1  0  0  0  0
  8 22  1  0  0  0  0
  9 24  1  0  0  0  0
  9 25  1  0  0  0  0
 10 26  1  0  0  0  0
 10  9  1  0  0  0  0
 11 10  1  0  0  0  0
 11 29  1  0  0  0  0
 12 11  1  0  0  0  0
 12  6  1  0  0  0  0
 13 18  1  0  0  0  0
 13  7  1  0  0  0  0
 14 13  2  0  0  0  0
 15 16  2  0  0  0  0
 15 14  1  0  0  0  0
 16 17  1  0  0  0  0
 17 35  1  0  0  0  0
 17 18  2  0  0  0  0
 18 36  1  0  0  0  0
 20  1  1  0  0  0  0
 23  8  1  0  0  0  0
 27 10  1  0  0  0  0
 28 11  1  0  0  0  0
 30 12  1  0  0  0  0
 31 12  1  0  0  0  0
 32 14  1  0  0  0  0
 33 15  1  0  0  0  0
 34 16  1  0  0  0  0
M  END
$$$$
