CSD_code = NIBTEX | q = 0 | S = 0 | Stoichiometry = C28H26ClN2OPPd | MND = 4
 OpenBabel04212202073D

 60 64  0  0  1  0  0  0  0  0999 V2000
    1.7666    0.2542    2.9203 Pd  0  0  1  0  0  0  0  0  0  0  0  0
    3.8043    1.2064    2.3473 Cl  0  0  0  0  0  0  0  0  0  0  0  0
    2.8110   -0.7660    4.5973 P   0  0  0  0  0  4  0  0  0  0  0  0
   -0.7599    2.5923   -0.5657 O   0  0  0  0  0  0  0  0  0  0  0  0
    0.7301    1.2095    1.4559 N   0  0  0  0  0  0  0  0  0  0  0  0
   -0.5616    0.9840    1.5139 N   0  0  0  0  0  0  0  0  0  0  0  0
   -0.0831   -0.4597    3.3356 C   0  0  0  0  0  0  0  0  0  0  0  0
   -0.5524   -1.3515    4.2915 C   0  0  0  0  0  0  0  0  0  0  0  0
   -1.9042   -1.6451    4.3967 C   0  0  0  0  0  0  0  0  0  0  0  0
   -2.8231   -1.0534    3.5469 C   0  0  0  0  0  0  0  0  0  0  0  0
   -2.4119   -0.1631    2.5678 C   0  0  0  0  0  0  0  0  0  0  0  0
   -1.0433    0.1140    2.4809 C   0  0  2  0  0  3  0  0  0  0  0  0
   -3.3910    0.4835    1.6338 C   0  0  0  0  0  0  0  0  0  0  0  0
    1.2359    2.0006    0.5462 C   0  0  0  0  0  3  0  0  0  0  0  0
    0.4637    2.6894   -0.4659 C   0  0  0  0  0  0  0  0  0  0  0  0
    1.2738    3.5450   -1.4037 C   0  0  0  0  0  0  0  0  0  0  0  0
    4.5481   -0.3966    4.9875 C   0  0  0  0  0  0  0  0  0  0  0  0
    5.5251   -0.9394    4.1561 C   0  0  0  0  0  0  0  0  0  0  0  0
    6.8573   -0.6493    4.3732 C   0  0  0  0  0  0  0  0  0  0  0  0
    7.2233    0.1869    5.4169 C   0  0  0  0  0  0  0  0  0  0  0  0
    6.2539    0.7356    6.2385 C   0  0  0  0  0  0  0  0  0  0  0  0
    4.9161    0.4509    6.0250 C   0  0  0  0  0  0  0  0  0  0  0  0
    1.9507   -0.3126    6.1390 C   0  0  0  0  0  0  0  0  0  0  0  0
    1.8605   -1.0957    7.2814 C   0  0  0  0  0  0  0  0  0  0  0  0
    1.1722   -0.6219    8.3857 C   0  0  0  0  0  0  0  0  0  0  0  0
    0.5817    0.6303    8.3573 C   0  0  0  0  0  0  0  0  0  0  0  0
    0.6691    1.4161    7.2180 C   0  0  0  0  0  0  0  0  0  0  0  0
    1.3462    0.9438    6.1104 C   0  0  0  0  0  0  0  0  0  0  0  0
    2.8611   -2.5774    4.4500 C   0  0  0  0  0  0  0  0  0  0  0  0
    3.5631   -3.3910    5.3339 C   0  0  0  0  0  0  0  0  0  0  0  0
    3.5787   -4.7607    5.1418 C   0  0  0  0  0  0  0  0  0  0  0  0
    2.9134   -5.3209    4.0625 C   0  0  0  0  0  0  0  0  0  0  0  0
    2.2423   -4.5105    3.1606 C   0  0  0  0  0  0  0  0  0  0  0  0
    2.2186   -3.1410    3.3515 C   0  0  0  0  0  0  0  0  0  0  0  0
    0.1393   -1.8378    4.9701 H   0  0  0  0  0  0  0  0  0  0  0  0
   -2.2432   -2.3419    5.1497 H   0  0  0  0  0  0  0  0  0  0  0  0
   -3.8736   -1.2876    3.6418 H   0  0  0  0  0  0  0  0  0  0  0  0
   -4.4017    0.1537    1.8607 H   0  0  0  0  0  0  0  0  0  0  0  0
   -3.1718    0.2246    0.5977 H   0  0  0  0  0  0  0  0  0  0  0  0
   -3.3572    1.5693    1.7243 H   0  0  0  0  0  0  0  0  0  0  0  0
    2.3098    2.1356    0.5764 H   0  0  0  0  0  0  0  0  0  0  0  0
    2.0112    2.9308   -1.9167 H   0  0  0  0  0  0  0  0  0  0  0  0
    0.6221    4.0209   -2.1316 H   0  0  0  0  0  0  0  0  0  0  0  0
    1.8075    4.3050   -0.8363 H   0  0  0  0  0  0  0  0  0  0  0  0
   -1.1608    1.4450    0.8194 H   0  0  0  0  0  0  0  0  0  0  0  0
    5.2264   -1.5737    3.3312 H   0  0  0  0  0  0  0  0  0  0  0  0
    7.6124   -1.0661    3.7232 H   0  0  0  0  0  0  0  0  0  0  0  0
    8.2652    0.4180    5.5830 H   0  0  0  0  0  0  0  0  0  0  0  0
    6.5381    1.3952    7.0455 H   0  0  0  0  0  0  0  0  0  0  0  0
    4.1591    0.8905    6.6601 H   0  0  0  0  0  0  0  0  0  0  0  0
    2.3090   -2.0779    7.3046 H   0  0  0  0  0  0  0  0  0  0  0  0
    1.0950   -1.2346    9.2720 H   0  0  0  0  0  0  0  0  0  0  0  0
    0.0465    0.9931    9.2223 H   0  0  0  0  0  0  0  0  0  0  0  0
    0.2032    2.3901    7.1957 H   0  0  0  0  0  0  0  0  0  0  0  0
    1.4152    1.5430    5.1942 H   0  0  0  0  0  0  0  0  0  0  0  0
    4.1119   -2.9493    6.1546 H   0  0  0  0  0  0  0  0  0  0  0  0
    4.1183   -5.3940    5.8308 H   0  0  0  0  0  0  0  0  0  0  0  0
    2.9311   -6.3908    3.9170 H   0  0  0  0  0  0  0  0  0  0  0  0
    1.7431   -4.9472    2.3085 H   0  0  0  0  0  0  0  0  0  0  0  0
    1.7079   -2.4810    2.6458 H   0  0  0  0  0  0  0  0  0  0  0  0
  1  2  1  6  0  0  0
  1  7  2  0  0  0  0
  1  3  1  0  0  0  0
  3 17  1  0  0  0  0
  3 23  1  0  0  0  0
  4 15  2  0  0  0  0
  5  6  1  0  0  0  0
  5  1  1  0  0  0  0
  6 12  1  0  0  0  0
  7  8  1  0  0  0  0
  8  9  2  0  0  0  0
  8 35  1  0  0  0  0
  9 36  1  0  0  0  0
 10 37  1  0  0  0  0
 10  9  1  0  0  0  0
 11 10  2  0  0  0  0
 12 11  1  6  0  0  0
 12  7  1  0  0  0  0
 13 40  1  0  0  0  0
 13 38  1  0  0  0  0
 13 11  1  0  0  0  0
 14 41  1  0  0  0  0
 14  5  1  0  0  0  0
 15 14  1  0  0  0  0
 16 44  1  0  0  0  0
 16 15  1  0  0  0  0
 17 22  1  0  0  0  0
 18 19  1  0  0  0  0
 18 17  2  0  0  0  0
 19 20  2  0  0  0  0
 20 48  1  0  0  0  0
 20 21  1  0  0  0  0
 21 49  1  0  0  0  0
 22 21  2  0  0  0  0
 22 50  1  0  0  0  0
 23 24  1  0  0  0  0
 24 51  1  0  0  0  0
 24 25  2  0  0  0  0
 25 52  1  0  0  0  0
 26 25  1  0  0  0  0
 26 53  1  0  0  0  0
 27 26  2  0  0  0  0
 28 23  2  0  0  0  0
 28 27  1  0  0  0  0
 29  3  1  0  0  0  0
 29 30  1  0  0  0  0
 30 56  1  0  0  0  0
 31 30  2  0  0  0  0
 31 57  1  0  0  0  0
 32 31  1  0  0  0  0
 33 34  1  0  0  0  0
 33 32  2  0  0  0  0
 34 29  2  0  0  0  0
 39 13  1  0  0  0  0
 42 16  1  0  0  0  0
 43 16  1  0  0  0  0
 45  6  1  0  0  0  0
 46 18  1  0  0  0  0
 47 19  1  0  0  0  0
 54 27  1  0  0  0  0
 55 28  1  0  0  0  0
 58 32  1  0  0  0  0
 59 33  1  0  0  0  0
 60 34  1  0  0  0  0
M  END
$$$$
