CSD_code = NICRUP | q = 0 | S = 0 | Stoichiometry = C9H10AuCl2NO2 | MND = 4
 OpenBabel04212202073D

 25 27  0  0  0  0  0  0  0  0999 V2000
    8.7995    6.4121    6.4038 Au  0  0  0  0  0  0  0  0  0  0  0  0
    6.8371    5.4454    6.0176 Cl  0  0  0  0  0  0  0  0  0  0  0  0
    8.8411    7.8100    4.5177 Cl  0  0  0  0  0  0  0  0  0  0  0  0
    9.4467    2.8780   11.3238 O   0  0  0  0  0  0  0  0  0  0  0  0
    7.3801    3.8474   11.0039 O   0  0  0  0  0  0  0  0  0  0  0  0
   10.7223    7.2794    6.7012 N   0  0  0  0  0  4  0  0  0  0  0  0
   10.9457    7.4812    5.7229 H   0  0  0  0  0  0  0  0  0  0  0  0
   10.6237    8.1857    7.1517 H   0  0  0  0  0  0  0  0  0  0  0  0
   11.7563    6.4614    7.3502 C   0  0  0  0  0  0  0  0  0  0  0  0
   11.8232    6.7423    8.4037 H   0  0  0  0  0  0  0  0  0  0  0  0
   12.7262    6.6389    6.8776 H   0  0  0  0  0  0  0  0  0  0  0  0
   11.3970    4.9755    7.2627 C   0  0  0  0  0  0  0  0  0  0  0  0
   11.1270    4.7336    6.2324 H   0  0  0  0  0  0  0  0  0  0  0  0
   12.2687    4.3810    7.5348 H   0  0  0  0  0  0  0  0  0  0  0  0
   10.2591    4.6678    8.2009 C   0  0  0  0  0  0  0  0  0  0  0  0
   10.5020    3.8480    9.3102 C   0  0  0  0  0  0  0  0  0  0  0  0
   11.4666    3.3943    9.4666 H   0  0  0  0  0  0  0  0  0  0  0  0
    9.4681    3.6289   10.1840 C   0  0  0  0  0  0  0  0  0  0  0  0
    8.1328    2.9899   11.8357 C   0  0  0  0  0  0  0  0  0  0  0  0
    8.1700    3.4030   12.8557 H   0  0  0  0  0  0  0  0  0  0  0  0
    7.6625    1.9941   11.8630 H   0  0  0  0  0  0  0  0  0  0  0  0
    8.2153    4.2134    9.9883 C   0  0  0  0  0  0  0  0  0  0  0  0
    7.9632    5.0245    8.9078 C   0  0  0  0  0  0  0  0  0  0  0  0
    6.9884    5.4542    8.7589 H   0  0  0  0  0  0  0  0  0  0  0  0
    9.0104    5.2416    8.0173 C   0  0  0  0  0  0  0  0  0  0  0  0
  1  6  1  0  0  0  0
  1 25  1  0  0  0  0
  2  1  1  0  0  0  0
  3  1  1  0  0  0  0
  4 19  1  0  0  0  0
  5 19  1  0  0  0  0
  6  8  1  0  0  0  0
  6  9  1  0  0  0  0
  7  6  1  0  0  0  0
  9 10  1  0  0  0  0
 11  9  1  0  0  0  0
 12  9  1  0  0  0  0
 12 14  1  0  0  0  0
 12 15  1  0  0  0  0
 13 12  1  0  0  0  0
 15 16  1  0  0  0  0
 16 17  1  0  0  0  0
 16 18  2  0  0  0  0
 18  4  1  0  0  0  0
 19 21  1  0  0  0  0
 19 20  1  0  0  0  0
 22 18  1  0  0  0  0
 22  5  1  0  0  0  0
 23 22  2  0  0  0  0
 24 23  1  0  0  0  0
 25 15  2  0  0  0  0
 25 23  1  0  0  0  0
M  END
$$$$
