CSD_code = NICVOL | q = 0 | S = 0 | Stoichiometry = C27H36AuBrN2 | MND = 2
 OpenBabel04212202073D

 67 69  0  0  1  0  0  0  0  0999 V2000
    2.7283    9.5074    5.5213 Au  0  0  0  0  0  0  0  0  0  0  0  0
    2.7281    9.5079    3.1616 Br  0  0  0  0  0  0  0  0  0  0  0  0
    2.7279    9.5078    7.5325 C   0  0  1  0  0  3  0  0  0  0  0  0
    2.3635    8.5024    8.3453 N   0  0  0  0  0  0  0  0  0  0  0  0
    2.4971    8.8711    9.6585 C   0  0  0  0  0  0  0  0  0  0  0  0
    2.2566    8.2084   10.4636 H   0  0  0  0  0  0  0  0  0  0  0  0
    1.9043    7.2415    7.8759 C   0  0  0  0  0  0  0  0  0  0  0  0
    2.8385    6.2377    7.6148 C   0  0  0  0  0  0  0  0  0  0  0  0
    2.3699    5.0239    7.1307 C   0  0  0  0  0  0  0  0  0  0  0  0
    3.0679    4.2315    6.9113 H   0  0  0  0  0  0  0  0  0  0  0  0
    1.0207    4.8221    6.9132 C   0  0  0  0  0  0  0  0  0  0  0  0
    0.6745    3.8744    6.5296 H   0  0  0  0  0  0  0  0  0  0  0  0
    0.5372    7.0603    7.6594 C   0  0  0  0  0  0  0  0  0  0  0  0
    4.3186    6.4619    7.8163 C   0  0  0  0  0  0  0  0  0  0  0  0
    4.4765    7.4470    8.2682 H   0  0  0  0  0  0  0  0  0  0  0  0
    0.1134    5.8312    7.1727 C   0  0  0  0  0  0  0  0  0  0  0  0
   -0.9353    5.6643    6.9846 H   0  0  0  0  0  0  0  0  0  0  0  0
   -0.4560    8.1714    7.9065 C   0  0  0  0  0  0  0  0  0  0  0  0
    0.0581    9.0178    8.3742 H   0  0  0  0  0  0  0  0  0  0  0  0
    4.9129    5.4177    8.7638 C   0  0  0  0  0  0  0  0  0  0  0  0
    4.3780    5.4121    9.7118 H   0  0  0  0  0  0  0  0  0  0  0  0
    5.9583    5.6462    8.9587 H   0  0  0  0  0  0  0  0  0  0  0  0
    4.8575    4.4219    8.3330 H   0  0  0  0  0  0  0  0  0  0  0  0
   -1.0349    8.6540    6.5745 C   0  0  0  0  0  0  0  0  0  0  0  0
   -0.2365    8.9834    5.9116 H   0  0  0  0  0  0  0  0  0  0  0  0
   -1.7133    9.4879    6.7394 H   0  0  0  0  0  0  0  0  0  0  0  0
   -1.5810    7.8562    6.0785 H   0  0  0  0  0  0  0  0  0  0  0  0
    5.0361    6.4482    6.4647 C   0  0  0  0  0  0  0  0  0  0  0  0
    4.9374    5.4790    5.9831 H   0  0  0  0  0  0  0  0  0  0  0  0
    6.0940    6.6624    6.5981 H   0  0  0  0  0  0  0  0  0  0  0  0
    4.6118    7.2018    5.8031 H   0  0  0  0  0  0  0  0  0  0  0  0
   -1.5670    7.7234    8.8581 C   0  0  0  0  0  0  0  0  0  0  0  0
   -2.1719    6.9386    8.4127 H   0  0  0  0  0  0  0  0  0  0  0  0
   -2.2179    8.5635    9.0897 H   0  0  0  0  0  0  0  0  0  0  0  0
   -1.1456    7.3465    9.7882 H   0  0  0  0  0  0  0  0  0  0  0  0
    3.0924   10.5133    8.3453 N   0  0  0  0  0  0  0  0  0  0  0  0
    2.9587   10.1445    9.6585 C   0  0  0  0  0  0  0  0  0  0  0  0
    3.1992   10.8073   10.4636 H   0  0  0  0  0  0  0  0  0  0  0  0
    3.5515   11.7742    7.8758 C   0  0  0  0  0  0  0  0  0  0  0  0
    2.6173   12.7779    7.6148 C   0  0  0  0  0  0  0  0  0  0  0  0
    3.0859   13.9918    7.1307 C   0  0  0  0  0  0  0  0  0  0  0  0
    2.3879   14.7842    6.9114 H   0  0  0  0  0  0  0  0  0  0  0  0
    4.4351   14.1935    6.9132 C   0  0  0  0  0  0  0  0  0  0  0  0
    4.7813   15.1413    6.5296 H   0  0  0  0  0  0  0  0  0  0  0  0
    4.9186   11.9553    7.6594 C   0  0  0  0  0  0  0  0  0  0  0  0
    1.1372   12.5537    7.8163 C   0  0  0  0  0  0  0  0  0  0  0  0
    0.9793   11.5686    8.2682 H   0  0  0  0  0  0  0  0  0  0  0  0
    5.3424   13.1844    7.1727 C   0  0  0  0  0  0  0  0  0  0  0  0
    6.3912   13.3514    6.9846 H   0  0  0  0  0  0  0  0  0  0  0  0
    5.9118   10.8442    7.9064 C   0  0  0  0  0  0  0  0  0  0  0  0
    5.3977    9.9979    8.3742 H   0  0  0  0  0  0  0  0  0  0  0  0
    0.5430   13.5979    8.7638 C   0  0  0  0  0  0  0  0  0  0  0  0
    1.0778   13.6035    9.7118 H   0  0  0  0  0  0  0  0  0  0  0  0
   -0.5025   13.3694    8.9587 H   0  0  0  0  0  0  0  0  0  0  0  0
    0.5984   14.5937    8.3331 H   0  0  0  0  0  0  0  0  0  0  0  0
    6.4907   10.3616    6.5745 C   0  0  0  0  0  0  0  0  0  0  0  0
    5.6923   10.0322    5.9116 H   0  0  0  0  0  0  0  0  0  0  0  0
    7.1691    9.5277    6.7394 H   0  0  0  0  0  0  0  0  0  0  0  0
    7.0369   11.1594    6.0785 H   0  0  0  0  0  0  0  0  0  0  0  0
    0.4197   12.5675    6.4647 C   0  0  0  0  0  0  0  0  0  0  0  0
    0.5184   13.5367    5.9831 H   0  0  0  0  0  0  0  0  0  0  0  0
   -0.6382   12.3533    6.5982 H   0  0  0  0  0  0  0  0  0  0  0  0
    0.8440   11.8139    5.8031 H   0  0  0  0  0  0  0  0  0  0  0  0
    7.0228   11.2923    8.8581 C   0  0  0  0  0  0  0  0  0  0  0  0
    7.6277   12.0770    8.4127 H   0  0  0  0  0  0  0  0  0  0  0  0
    7.6737   10.4521    9.0897 H   0  0  0  0  0  0  0  0  0  0  0  0
    6.6014   11.6692    9.7881 H   0  0  0  0  0  0  0  0  0  0  0  0
  2  1  1  0  0  0  0
  3  1  1  1  0  0  0
  3 36  1  0  0  0  0
  3  4  1  0  0  0  0
  4  5  1  0  0  0  0
  5  6  1  0  0  0  0
  7  4  1  0  0  0  0
  8 14  1  0  0  0  0
  8  7  2  0  0  0  0
  9  8  1  0  0  0  0
 10  9  1  0  0  0  0
 11  9  2  0  0  0  0
 11 16  1  0  0  0  0
 12 11  1  0  0  0  0
 13  7  1  0  0  0  0
 13 18  1  0  0  0  0
 14 15  1  0  0  0  0
 14 20  1  0  0  0  0
 16 13  2  0  0  0  0
 17 16  1  0  0  0  0
 18 19  1  0  0  0  0
 18 32  1  0  0  0  0
 20 22  1  0  0  0  0
 20 21  1  0  0  0  0
 23 20  1  0  0  0  0
 24 26  1  0  0  0  0
 24 18  1  0  0  0  0
 25 24  1  0  0  0  0
 27 24  1  0  0  0  0
 28 30  1  0  0  0  0
 28 14  1  0  0  0  0
 29 28  1  0  0  0  0
 31 28  1  0  0  0  0
 32 34  1  0  0  0  0
 32 35  1  0  0  0  0
 33 32  1  0  0  0  0
 36 37  1  0  0  0  0
 37  5  2  0  0  0  0
 37 38  1  0  0  0  0
 39 36  1  0  0  0  0
 40 46  1  0  0  0  0
 40 39  2  0  0  0  0
 41 40  1  0  0  0  0
 42 41  1  0  0  0  0
 43 41  2  0  0  0  0
 43 48  1  0  0  0  0
 44 43  1  0  0  0  0
 45 39  1  0  0  0  0
 45 50  1  0  0  0  0
 46 47  1  0  0  0  0
 46 52  1  0  0  0  0
 48 45  2  0  0  0  0
 49 48  1  0  0  0  0
 50 51  1  0  0  0  0
 50 64  1  0  0  0  0
 52 54  1  0  0  0  0
 52 53  1  0  0  0  0
 55 52  1  0  0  0  0
 56 58  1  0  0  0  0
 56 50  1  0  0  0  0
 57 56  1  0  0  0  0
 59 56  1  0  0  0  0
 60 62  1  0  0  0  0
 60 46  1  0  0  0  0
 61 60  1  0  0  0  0
 63 60  1  0  0  0  0
 64 66  1  0  0  0  0
 64 67  1  0  0  0  0
 65 64  1  0  0  0  0
M  END
$$$$
