CSD_code = NICWIG | q = 0 | S = 0 | Stoichiometry = C27H36AuBr3N2 | MND = 4
 OpenBabel04212202073D

 69 71  0  0  0  0  0  0  0  0999 V2000
   -7.3779   -2.1818   13.3308 Au  0  0  0  0  0  0  0  0  0  0  0  0
   -6.0776   -0.9329   11.6906 Br  0  0  0  0  0  0  0  0  0  0  0  0
   -4.5736   -2.8371   14.3028 N   0  0  0  0  0  0  0  0  0  0  0  0
   -4.2309   -1.4700   14.5243 C   0  0  0  0  0  0  0  0  0  0  0  0
   -9.3309   -0.8727   12.7523 Br  0  0  0  0  0  0  0  0  0  0  0  0
   -5.6263   -4.6303   13.7272 N   0  0  0  0  0  0  0  0  0  0  0  0
   -4.8825   -0.7630   15.5390 C   0  0  0  0  0  0  0  0  0  0  0  0
   -8.6973   -3.3910   14.9808 Br  0  0  0  0  0  0  0  0  0  0  0  0
   -4.5617    0.5784   15.7055 C   0  0  0  0  0  0  0  0  0  0  0  0
   -5.0545    1.1484   16.4765 H   0  0  0  0  0  0  0  0  0  0  0  0
   -3.6224    1.1888   14.8992 C   0  0  0  0  0  0  0  0  0  0  0  0
   -3.3958    2.2353   15.0348 H   0  0  0  0  0  0  0  0  0  0  0  0
   -2.9607    0.4602   13.9306 C   0  0  0  0  0  0  0  0  0  0  0  0
   -2.2149    0.9433   13.3216 H   0  0  0  0  0  0  0  0  0  0  0  0
   -3.2464   -0.8817   13.7204 C   0  0  0  0  0  0  0  0  0  0  0  0
   -5.8448   -1.4202   16.5013 C   0  0  0  0  0  0  0  0  0  0  0  0
   -6.1186   -2.4152   16.1371 H   0  0  0  0  0  0  0  0  0  0  0  0
   -5.1499   -1.6090   17.8535 C   0  0  0  0  0  0  0  0  0  0  0  0
   -4.2608   -2.2284   17.7462 H   0  0  0  0  0  0  0  0  0  0  0  0
   -5.8285   -2.0938   18.5508 H   0  0  0  0  0  0  0  0  0  0  0  0
   -4.8507   -0.6495   18.2682 H   0  0  0  0  0  0  0  0  0  0  0  0
   -7.1320   -0.6105   16.6690 C   0  0  0  0  0  0  0  0  0  0  0  0
   -6.9611    0.2878   17.2558 H   0  0  0  0  0  0  0  0  0  0  0  0
   -7.8831   -1.2120   17.1754 H   0  0  0  0  0  0  0  0  0  0  0  0
   -7.5324   -0.3086   15.7020 H   0  0  0  0  0  0  0  0  0  0  0  0
   -2.4638   -1.6559   12.6846 C   0  0  0  0  0  0  0  0  0  0  0  0
   -2.9573   -2.6138   12.4931 H   0  0  0  0  0  0  0  0  0  0  0  0
   -1.0529   -1.9294   13.2204 C   0  0  0  0  0  0  0  0  0  0  0  0
   -0.5195   -0.9933   13.3650 H   0  0  0  0  0  0  0  0  0  0  0  0
   -0.4966   -2.5368   12.5104 H   0  0  0  0  0  0  0  0  0  0  0  0
   -1.0770   -2.4505   14.1754 H   0  0  0  0  0  0  0  0  0  0  0  0
   -2.3699   -0.9190   11.3473 C   0  0  0  0  0  0  0  0  0  0  0  0
   -3.3554   -0.6121   11.0105 H   0  0  0  0  0  0  0  0  0  0  0  0
   -1.9379   -1.5804   10.6001 H   0  0  0  0  0  0  0  0  0  0  0  0
   -1.7371   -0.0399   11.4234 H   0  0  0  0  0  0  0  0  0  0  0  0
   -5.7373   -3.2957   13.8171 C   0  0  0  0  0  0  0  0  0  0  0  0
   -3.7276   -3.8884   14.5236 C   0  0  0  0  0  0  0  0  0  0  0  0
   -2.7475   -3.7513   14.9282 H   0  0  0  0  0  0  0  0  0  0  0  0
   -4.3863   -5.0132   14.1573 C   0  0  0  0  0  0  0  0  0  0  0  0
   -4.0761   -6.0364   14.1546 H   0  0  0  0  0  0  0  0  0  0  0  0
   -6.6350   -5.5280   13.2673 C   0  0  0  0  0  0  0  0  0  0  0  0
   -7.2014   -6.4358   14.1706 C   0  0  0  0  0  0  0  0  0  0  0  0
   -8.2130   -7.2632   13.7027 C   0  0  0  0  0  0  0  0  0  0  0  0
   -8.6756   -7.9652   14.3765 H   0  0  0  0  0  0  0  0  0  0  0  0
   -8.6425   -7.1970   12.3921 C   0  0  0  0  0  0  0  0  0  0  0  0
   -9.4418   -7.8384   12.0538 H   0  0  0  0  0  0  0  0  0  0  0  0
   -8.0384   -6.3262   11.5077 C   0  0  0  0  0  0  0  0  0  0  0  0
   -8.3587   -6.3036   10.4787 H   0  0  0  0  0  0  0  0  0  0  0  0
   -7.0202   -5.4777   11.9237 C   0  0  0  0  0  0  0  0  0  0  0  0
   -6.7183   -6.5841   15.5951 C   0  0  0  0  0  0  0  0  0  0  0  0
   -6.0887   -5.7290   15.8595 H   0  0  0  0  0  0  0  0  0  0  0  0
   -7.8649   -6.6320   16.6062 C   0  0  0  0  0  0  0  0  0  0  0  0
   -8.5262   -5.7811   16.4741 H   0  0  0  0  0  0  0  0  0  0  0  0
   -7.4582   -6.6020   17.6142 H   0  0  0  0  0  0  0  0  0  0  0  0
   -8.4449   -7.5444   16.5052 H   0  0  0  0  0  0  0  0  0  0  0  0
   -5.8813   -7.8648   15.7068 C   0  0  0  0  0  0  0  0  0  0  0  0
   -6.5031   -8.7358   15.5156 H   0  0  0  0  0  0  0  0  0  0  0  0
   -5.4652   -7.9519   16.7076 H   0  0  0  0  0  0  0  0  0  0  0  0
   -5.0626   -7.8766   14.9899 H   0  0  0  0  0  0  0  0  0  0  0  0
   -6.3107   -4.6160   10.9045 C   0  0  0  0  0  0  0  0  0  0  0  0
   -5.6836   -3.8751   11.4094 H   0  0  0  0  0  0  0  0  0  0  0  0
   -7.2886   -3.8632   10.0006 C   0  0  0  0  0  0  0  0  0  0  0  0
   -6.7599   -3.0884    9.4507 H   0  0  0  0  0  0  0  0  0  0  0  0
   -8.0752   -3.3886   10.5857 H   0  0  0  0  0  0  0  0  0  0  0  0
   -7.7588   -4.5302    9.2832 H   0  0  0  0  0  0  0  0  0  0  0  0
   -5.3801   -5.5011   10.0686 C   0  0  0  0  0  0  0  0  0  0  0  0
   -5.9482   -6.2652    9.5437 H   0  0  0  0  0  0  0  0  0  0  0  0
   -4.6457   -5.9950   10.7031 H   0  0  0  0  0  0  0  0  0  0  0  0
   -4.8538   -4.8931    9.3371 H   0  0  0  0  0  0  0  0  0  0  0  0
  1 36  2  0  0  0  0
  1  8  1  0  0  0  0
  2  1  1  0  0  0  0
  3 37  1  0  0  0  0
  3  4  1  0  0  0  0
  4  7  1  0  0  0  0
  5  1  1  0  0  0  0
  6 36  1  0  0  0  0
  6 39  1  0  0  0  0
  7  9  2  0  0  0  0
  7 16  1  0  0  0  0
  9 10  1  0  0  0  0
 11 12  1  0  0  0  0
 11  9  1  0  0  0  0
 13 11  2  0  0  0  0
 14 13  1  0  0  0  0
 15 13  1  0  0  0  0
 15  4  2  0  0  0  0
 16 22  1  0  0  0  0
 16 18  1  0  0  0  0
 17 16  1  0  0  0  0
 18 21  1  0  0  0  0
 18 20  1  0  0  0  0
 19 18  1  0  0  0  0
 22 24  1  0  0  0  0
 22 23  1  0  0  0  0
 25 22  1  0  0  0  0
 26 28  1  0  0  0  0
 26 15  1  0  0  0  0
 27 26  1  0  0  0  0
 28 29  1  0  0  0  0
 28 31  1  0  0  0  0
 30 28  1  0  0  0  0
 32 35  1  0  0  0  0
 32 26  1  0  0  0  0
 33 32  1  0  0  0  0
 34 32  1  0  0  0  0
 36  3  1  0  0  0  0
 37 38  1  0  0  0  0
 39 37  2  0  0  0  0
 40 39  1  0  0  0  0
 41  6  1  0  0  0  0
 41 42  1  0  0  0  0
 42 50  1  0  0  0  0
 43 42  2  0  0  0  0
 43 44  1  0  0  0  0
 45 43  1  0  0  0  0
 46 45  1  0  0  0  0
 47 49  1  0  0  0  0
 47 45  2  0  0  0  0
 48 47  1  0  0  0  0
 49 41  2  0  0  0  0
 50 56  1  0  0  0  0
 50 51  1  0  0  0  0
 50 52  1  0  0  0  0
 52 54  1  0  0  0  0
 53 52  1  0  0  0  0
 55 52  1  0  0  0  0
 56 58  1  0  0  0  0
 57 56  1  0  0  0  0
 59 56  1  0  0  0  0
 60 61  1  0  0  0  0
 60 49  1  0  0  0  0
 62 64  1  0  0  0  0
 62 60  1  0  0  0  0
 63 62  1  0  0  0  0
 65 62  1  0  0  0  0
 66 68  1  0  0  0  0
 66 60  1  0  0  0  0
 67 66  1  0  0  0  0
 69 66  1  0  0  0  0
M  END
$$$$
