CSD_code = NICXEE | q = 0 | S = 0 | Stoichiometry = C22H36ClN2Rh | MND = 6
 OpenBabel04212202073D

 62 63  0  0  1  0  0  0  0  0999 V2000
    6.4555    0.3783    5.5851 Rh  0  0  0  0  0  0  0  0  0  0  0  0
    8.4967   -0.5989    5.8653 Cl  0  0  0  0  0 15  0  0  0  0  0  0
    6.4249   -1.5310    3.2887 N   0  0  0  0  0  0  0  0  0  0  0  0
    7.4198    0.2967    2.7193 N   0  0  0  0  0  0  0  0  0  0  0  0
    5.7439   -2.5253    4.0708 C   0  0  0  0  0  0  0  0  0  0  0  0
    5.7232   -2.1826    5.1115 H   0  0  0  0  0  0  0  0  0  0  0  0
    6.2839   -3.4709    4.0195 H   0  0  0  0  0  0  0  0  0  0  0  0
    4.7224   -2.6759    3.7119 H   0  0  0  0  0  0  0  0  0  0  0  0
    6.6987   -0.2806    3.7061 C   0  0  2  0  0  3  0  0  0  0  0  0
    7.5939   -0.5983    1.6953 C   0  0  0  0  0  0  0  0  0  0  0  0
    8.1347   -0.3810    0.8001 H   0  0  0  0  0  0  0  0  0  0  0  0
    6.9638   -1.7419    2.0487 C   0  0  0  0  0  0  0  0  0  0  0  0
    6.8660   -2.6724    1.5277 H   0  0  0  0  0  0  0  0  0  0  0  0
    8.0289    1.6024    2.8966 C   0  0  1  0  0  0  0  0  0  0  0  0
    7.5738    1.9695    3.8363 H   0  0  0  0  0  0  0  0  0  0  0  0
    9.5371    1.4774    3.1576 C   0  0  0  0  0  0  0  0  0  0  0  0
    9.6953    0.6694    3.8748 H   0  0  0  0  0  0  0  0  0  0  0  0
    9.8701    2.4047    3.6289 H   0  0  0  0  0  0  0  0  0  0  0  0
   10.3694    1.2472    1.8986 C   0  0  1  0  0  0  0  0  0  0  0  0
   10.1082    0.2786    1.4623 H   0  0  0  0  0  0  0  0  0  0  0  0
   10.0745    2.3513    0.8830 C   0  0  0  0  0  0  0  0  0  0  0  0
   10.3908    3.3105    1.3011 H   0  0  0  0  0  0  0  0  0  0  0  0
   10.6527    2.1809   -0.0282 H   0  0  0  0  0  0  0  0  0  0  0  0
    8.5881    2.4168    0.5402 C   0  0  0  0  0  0  0  0  0  0  0  0
    8.2903    1.5017    0.0313 H   0  0  0  0  0  0  0  0  0  0  0  0
    8.4177    3.2431   -0.1535 H   0  0  0  0  0  0  0  0  0  0  0  0
    7.7489    2.6465    1.7990 C   0  0  1  0  0  0  0  0  0  0  0  0
    8.1085    3.5864    2.2367 H   0  0  0  0  0  0  0  0  0  0  0  0
    6.2421    2.8478    1.5247 C   0  0  0  0  0  0  0  0  0  0  0  0
    5.7193    2.6648    2.4700 H   0  0  0  0  0  0  0  0  0  0  0  0
    5.9645    4.2949    1.1141 C   0  0  0  0  0  0  0  0  0  0  0  0
    4.8991    4.4447    0.9546 H   0  0  0  0  0  0  0  0  0  0  0  0
    6.4821    4.5395    0.1893 H   0  0  0  0  0  0  0  0  0  0  0  0
    6.2932    4.9873    1.8860 H   0  0  0  0  0  0  0  0  0  0  0  0
    5.6505    1.9060    0.4772 C   0  0  0  0  0  0  0  0  0  0  0  0
    4.5742    2.0577    0.4219 H   0  0  0  0  0  0  0  0  0  0  0  0
    5.8286    0.8643    0.7271 H   0  0  0  0  0  0  0  0  0  0  0  0
    6.0665    2.1079   -0.5067 H   0  0  0  0  0  0  0  0  0  0  0  0
   11.8537    1.2138    2.2523 C   0  0  0  0  0  0  0  0  0  0  0  0
   12.4554    1.0200    1.3668 H   0  0  0  0  0  0  0  0  0  0  0  0
   12.0498    0.4321    2.9819 H   0  0  0  0  0  0  0  0  0  0  0  0
   12.1661    2.1651    2.6780 H   0  0  0  0  0  0  0  0  0  0  0  0
    6.0730    0.4296    7.7210 C   0  0  0  0  0  3  0  0  0  0  0  0
    6.6660   -0.3807    8.1450 H   0  0  0  0  0  0  0  0  0  0  0  0
    6.7349    1.5797    7.3455 C   0  0  0  0  0  3  0  0  0  0  0  0
    7.8102    1.6308    7.5200 H   0  0  0  0  0  0  0  0  0  0  0  0
    6.0803    2.9281    7.1500 C   0  0  0  0  0  0  0  0  0  0  0  0
    6.8050    3.5894    6.6675 H   0  0  0  0  0  0  0  0  0  0  0  0
    5.8486    3.3626    8.1290 H   0  0  0  0  0  0  0  0  0  0  0  0
    4.8074    2.8650    6.2841 C   0  0  0  0  0  0  0  0  0  0  0  0
    3.9240    2.7391    6.9122 H   0  0  0  0  0  0  0  0  0  0  0  0
    4.6930    3.8160    5.7588 H   0  0  0  0  0  0  0  0  0  0  0  0
    4.8573    1.7421    5.2683 C   0  0  0  0  0  3  0  0  0  0  0  0
    4.8346    2.0814    4.2339 H   0  0  0  0  0  0  0  0  0  0  0  0
    4.3510    0.4612    5.5094 C   0  0  2  0  0  0  0  0  0  0  0  0
    3.9551   -0.0821    4.6501 H   0  0  0  0  0  0  0  0  0  0  0  0
    3.7438    0.0108    6.8195 C   0  0  0  0  0  0  0  0  0  0  0  0
    2.7386    0.4370    6.9185 H   0  0  0  0  0  0  0  0  0  0  0  0
    3.6277   -1.0761    6.7828 H   0  0  0  0  0  0  0  0  0  0  0  0
    4.5971    0.3813    8.0473 C   0  0  0  0  0  0  0  0  0  0  0  0
    4.4289   -0.3613    8.8302 H   0  0  0  0  0  0  0  0  0  0  0  0
    4.2882    1.3475    8.4486 H   0  0  0  0  0  0  0  0  0  0  0  0
  3  9  1  0  0  0  0
  3  5  1  0  0  0  0
  4 14  1  0  0  0  0
  4  9  1  0  0  0  0
  5  6  1  0  0  0  0
  7  5  1  0  0  0  0
  8  5  1  0  0  0  0
  9  1  1  1  0  0  0
 10 12  2  0  0  0  0
 10  4  1  0  0  0  0
 11 10  1  0  0  0  0
 12  3  1  0  0  0  0
 13 12  1  0  0  0  0
 14 16  1  0  0  0  0
 14 15  1  1  0  0  0
 16 18  1  0  0  0  0
 16 17  1  0  0  0  0
 19 20  1  6  0  0  0
 19 39  1  0  0  0  0
 19 16  1  0  0  0  0
 21 22  1  0  0  0  0
 21 19  1  0  0  0  0
 23 21  1  0  0  0  0
 24 21  1  0  0  0  0
 24 27  1  0  0  0  0
 25 24  1  0  0  0  0
 26 24  1  0  0  0  0
 27 28  1  1  0  0  0
 27 14  1  0  0  0  0
 29 27  1  0  0  0  0
 29 30  1  0  0  0  0
 31 29  1  0  0  0  0
 31 34  1  0  0  0  0
 32 31  1  0  0  0  0
 33 31  1  0  0  0  0
 35 37  1  0  0  0  0
 35 29  1  0  0  0  0
 36 35  1  0  0  0  0
 38 35  1  0  0  0  0
 39 42  1  0  0  0  0
 39 41  1  0  0  0  0
 40 39  1  0  0  0  0
 43 60  1  0  0  0  0
 43 44  1  0  0  0  0
 45 46  1  0  0  0  0
 45 43  1  0  0  0  0
 47 45  1  0  0  0  0
 47 49  1  0  0  0  0
 48 47  1  0  0  0  0
 50 51  1  0  0  0  0
 50 47  1  0  0  0  0
 52 50  1  0  0  0  0
 53 55  1  0  0  0  0
 53 50  1  0  0  0  0
 54 53  1  0  0  0  0
 55 56  1  6  0  0  0
 55  1  1  0  0  0  0
 55 57  1  0  0  0  0
 57 58  1  0  0  0  0
 57 60  1  0  0  0  0
 59 57  1  0  0  0  0
 60 62  1  0  0  0  0
 60 61  1  0  0  0  0
M  END
$$$$
