CSD_code = NIDJIU | q = 0 | S = 0 | Stoichiometry = C21H19ClN6O3Ru | MND = 6
 OpenBabel04212202073D

 51 56  0  0  1  0  0  0  0  0999 V2000
    6.7365    1.2126    0.7278 Ru  0  0  0  0  0  0  0  0  0  0  0  0
    5.9716    1.7370    2.8031 Cl  0  0  0  0  0  0  0  0  0  0  0  0
    3.0148   -0.2759    0.0462 O   0  0  0  0  0  0  0  0  0  0  0  0
    7.3052    5.2760    0.3473 O   0  0  0  0  0  0  0  0  0  0  0  0
    7.9082    0.5958   -1.7790 O   0  0  0  0  0  1  0  0  0  0  0  0
    7.9827   -0.1748    1.7671 N   0  0  0  0  0  0  0  0  0  0  0  0
    5.2134   -0.1303    0.6535 N   0  0  0  0  0  0  0  0  0  0  0  0
    5.3213    2.3904    0.1102 N   0  0  0  0  0  0  0  0  0  0  0  0
    7.7380    3.0633    0.7378 N   0  0  0  0  0  0  0  0  0  0  0  0
   10.9211    2.6025    3.4464 N   0  0  0  0  0  0  0  0  0  0  0  0
    7.3918    0.8412   -0.7655 N   0  0  0  0  0  2  0  0  0  0  0  0
    8.8136    0.2792    2.7058 C   0  0  0  0  0  3  0  0  0  0  0  0
    9.0517    1.3334    2.7037 H   0  0  0  0  0  0  0  0  0  0  0  0
    9.3898   -0.5360    3.6629 C   0  0  0  0  0  0  0  0  0  0  0  0
   10.0522   -0.0994    4.3912 H   0  0  0  0  0  0  0  0  0  0  0  0
    9.0847   -1.8861    3.6583 C   0  0  0  0  0  0  0  0  0  0  0  0
    9.4979   -2.5568    4.3962 H   0  0  0  0  0  0  0  0  0  0  0  0
    8.2308   -2.3580    2.6774 C   0  0  0  0  0  0  0  0  0  0  0  0
    7.9697   -3.4041    2.6354 H   0  0  0  0  0  0  0  0  0  0  0  0
    7.6915   -1.4846    1.7381 C   0  0  0  0  0  0  0  0  0  0  0  0
    6.7474   -2.0102    0.6960 C   0  0  0  0  0  0  0  0  0  0  0  0
    6.7670   -3.1000    0.7065 H   0  0  0  0  0  0  0  0  0  0  0  0
    7.0539   -1.6684   -0.2978 H   0  0  0  0  0  0  0  0  0  0  0  0
    5.3094   -1.5307    0.9563 C   0  0  0  0  0  0  0  0  0  0  0  0
    4.6058   -2.0824    0.3203 H   0  0  0  0  0  0  0  0  0  0  0  0
    5.0406   -1.7165    2.0060 H   0  0  0  0  0  0  0  0  0  0  0  0
    4.0460    0.3593    0.2213 C   0  0  0  0  0  0  0  0  0  0  0  0
    4.1160    1.8515   -0.0298 C   0  0  1  0  0  3  0  0  0  0  0  0
    3.0286    2.6645   -0.3228 C   0  0  0  0  0  0  0  0  0  0  0  0
    2.0551    2.2142   -0.4356 H   0  0  0  0  0  0  0  0  0  0  0  0
    3.2376    4.0333   -0.4392 C   0  0  0  0  0  0  0  0  0  0  0  0
    2.4082    4.6867   -0.6652 H   0  0  0  0  0  0  0  0  0  0  0  0
    4.5034    4.5649   -0.2351 C   0  0  0  0  0  0  0  0  0  0  0  0
    4.7042    5.6237   -0.2769 H   0  0  0  0  0  0  0  0  0  0  0  0
    5.5469    3.6928    0.0528 C   0  0  0  0  0  0  0  0  0  0  0  0
    6.9619    4.1009    0.3945 C   0  0  0  0  0  0  0  0  0  0  0  0
    9.0837    3.4084    1.1290 C   0  0  0  0  0  0  0  0  0  0  0  0
    9.4609    4.1847    0.4510 H   0  0  0  0  0  0  0  0  0  0  0  0
    9.7153    2.5200    1.0325 H   0  0  0  0  0  0  0  0  0  0  0  0
    9.1292    3.9450    2.5771 C   0  0  0  0  0  0  0  0  0  0  0  0
    8.7908    4.9805    2.5767 H   0  0  0  0  0  0  0  0  0  0  0  0
    8.4360    3.3571    3.1845 H   0  0  0  0  0  0  0  0  0  0  0  0
   10.5125    3.8296    3.1342 C   0  0  0  0  0  0  0  0  0  0  0  0
   11.3391    4.9403    3.2805 C   0  0  0  0  0  0  0  0  0  0  0  0
   10.9777    5.9209    3.0128 H   0  0  0  0  0  0  0  0  0  0  0  0
   12.6199    4.7627    3.7731 C   0  0  0  0  0  0  0  0  0  0  0  0
   13.2819    5.6072    3.8999 H   0  0  0  0  0  0  0  0  0  0  0  0
   13.0393    3.4821    4.1006 C   0  0  0  0  0  0  0  0  0  0  0  0
   14.0293    3.2982    4.4877 H   0  0  0  0  0  0  0  0  0  0  0  0
   12.1463    2.4402    3.9139 C   0  0  0  0  0  0  0  0  0  0  0  0
   12.4234    1.4193    4.1481 H   0  0  0  0  0  0  0  0  0  0  0  0
  1  9  1  0  0  0  0
  1  6  1  0  0  0  0
  1  2  1  0  0  0  0
  3 27  2  0  0  0  0
  4 36  2  0  0  0  0
  5 11  1  0  0  0  0
  6 12  1  0  0  0  0
  7  1  1  0  0  0  0
  7 24  1  0  0  0  0
  8  1  1  0  0  0  0
  9 37  1  0  0  0  0
 10 50  1  0  0  0  0
 11  1  1  0  0  0  0
 12 14  1  0  0  0  0
 13 12  1  0  0  0  0
 14 15  1  0  0  0  0
 16 14  2  0  0  0  0
 16 17  1  0  0  0  0
 18 16  1  0  0  0  0
 19 18  1  0  0  0  0
 20  6  1  0  0  0  0
 20 18  2  0  0  0  0
 21 22  1  0  0  0  0
 21 24  1  0  0  0  0
 21 20  1  0  0  0  0
 23 21  1  0  0  0  0
 24 26  1  0  0  0  0
 25 24  1  0  0  0  0
 27  7  1  0  0  0  0
 28 29  1  1  0  0  0
 28  8  1  0  0  0  0
 28 27  1  0  0  0  0
 30 29  1  0  0  0  0
 31 29  2  0  0  0  0
 31 33  1  0  0  0  0
 32 31  1  0  0  0  0
 33 35  2  0  0  0  0
 34 33  1  0  0  0  0
 35  8  1  0  0  0  0
 35 36  1  0  0  0  0
 36  9  1  0  0  0  0
 37 40  1  0  0  0  0
 38 37  1  0  0  0  0
 39 37  1  0  0  0  0
 40 43  1  0  0  0  0
 40 42  1  0  0  0  0
 41 40  1  0  0  0  0
 43 44  1  0  0  0  0
 43 10  2  0  0  0  0
 44 46  2  0  0  0  0
 45 44  1  0  0  0  0
 46 47  1  0  0  0  0
 46 48  1  0  0  0  0
 48 49  1  0  0  0  0
 50 48  2  0  0  0  0
 50 51  1  0  0  0  0
M  END
$$$$
