CSD_code = NIDKAO | q = 0 | S = 0 | Stoichiometry = C17H21CdI2N5 | MND = 6
 OpenBabel04212202073D

 46 49  0  0  1  0  0  0  0  0999 V2000
    0.3125   -0.5877   11.4428 Cd  0  0  0  0  0  0  0  0  0  0  0  0
   -0.5719   -3.0417   10.6306 I   0  0  0  0  0  0  0  0  0  0  0  0
   -1.3129    0.8265   13.1034 I   0  0  0  0  0  0  0  0  0  0  0  0
    1.6976   -1.6058   13.3945 N   0  0  0  0  0  0  0  0  0  0  0  0
    3.1496    2.9896   12.6461 C   0  0  0  0  0  0  0  0  0  0  0  0
    3.6339    3.3082   13.5553 H   0  0  0  0  0  0  0  0  0  0  0  0
    0.5527   -0.2443    7.8043 C   0  0  0  0  0  0  0  0  0  0  0  0
    0.7322   -1.3076    7.6336 H   0  0  0  0  0  0  0  0  0  0  0  0
    0.8904    0.3108    6.9086 H   0  0  0  0  0  0  0  0  0  0  0  0
    2.4980    3.3407   10.3793 C   0  0  0  0  0  0  0  0  0  0  0  0
    2.4685    3.9416    9.4825 H   0  0  0  0  0  0  0  0  0  0  0  0
    3.2958   -3.3023   13.9199 C   0  0  0  0  0  0  0  0  0  0  0  0
    4.1165   -3.9245   13.5962 H   0  0  0  0  0  0  0  0  0  0  0  0
    2.5053    1.7640   12.5827 C   0  0  0  0  0  3  0  0  0  0  0  0
    2.4708    1.1017   13.4385 H   0  0  0  0  0  0  0  0  0  0  0  0
    1.7263   -2.5917   15.5647 C   0  0  0  0  0  0  0  0  0  0  0  0
    1.2935   -2.6408   16.5510 H   0  0  0  0  0  0  0  0  0  0  0  0
   -1.1796    1.4337    8.4409 C   0  0  0  0  0  0  0  0  0  0  0  0
   -0.9528    2.1189    7.6036 H   0  0  0  0  0  0  0  0  0  0  0  0
   -2.2192    1.5804    8.7383 H   0  0  0  0  0  0  0  0  0  0  0  0
    2.7311   -0.1739    8.8360 C   0  0  0  0  0  0  0  0  0  0  0  0
    3.3417    0.5563    9.3739 H   0  0  0  0  0  0  0  0  0  0  0  0
    3.0503   -0.1716    7.7822 H   0  0  0  0  0  0  0  0  0  0  0  0
    2.9913   -1.5591    9.4397 C   0  0  0  0  0  0  0  0  0  0  0  0
    2.3486   -2.2895    8.9341 H   0  0  0  0  0  0  0  0  0  0  0  0
    4.0385   -1.8582    9.2817 H   0  0  0  0  0  0  0  0  0  0  0  0
    2.7886   -3.4040   15.2043 C   0  0  0  0  0  0  0  0  0  0  0  0
    3.2108   -4.1080   15.9061 H   0  0  0  0  0  0  0  0  0  0  0  0
    1.8907    1.3315   11.4957 N   0  0  0  0  0  0  0  0  0  0  0  0
    2.6201   -1.5585   10.8170 N   0  0  0  0  0  0  0  0  0  0  0  0
    2.7181   -2.3913   13.0359 C   0  0  0  0  0  0  0  0  0  0  0  0
    3.1452    3.7931   11.5174 C   0  0  0  0  0  0  0  0  0  0  0  0
    3.6317    4.7572   11.5222 H   0  0  0  0  0  0  0  0  0  0  0  0
    1.3245    0.1764    8.9704 N   0  0  1  0  0  0  0  0  0  0  0  0
    1.8785    2.0965   10.4118 C   0  0  0  0  0  0  0  0  0  0  0  0
    1.2181   -1.7072   14.6209 C   0  0  0  0  0  0  0  0  0  0  0  0
    0.3884   -1.0548   14.8657 H   0  0  0  0  0  0  0  0  0  0  0  0
   -0.9398   -0.0091    8.0162 C   0  0  0  0  0  0  0  0  0  0  0  0
   -1.4808   -0.2364    7.0975 H   0  0  0  0  0  0  0  0  0  0  0  0
   -1.3053   -0.6692    8.8046 H   0  0  0  0  0  0  0  0  0  0  0  0
   -0.3270    1.6935    9.5886 N   0  0  0  0  0  0  0  0  0  0  0  0
   -0.5315    2.6015    9.9971 H   0  0  0  0  0  0  0  0  0  0  0  0
    1.0787    1.5883    9.2359 C   0  0  2  0  0  0  0  0  0  0  0  0
    1.3235    2.2051    8.3321 H   0  0  0  0  0  0  0  0  0  0  0  0
    3.1908   -2.3052   11.6574 C   0  0  0  0  0  3  0  0  0  0  0  0
    4.0303   -2.9630   11.3943 H   0  0  0  0  0  0  0  0  0  0  0  0
  1 29  1  0  0  0  0
  1  3  1  0  0  0  0
  2  1  1  0  0  0  0
  4 36  1  0  0  0  0
  5  6  1  0  0  0  0
  7 38  1  0  0  0  0
  8  7  1  0  0  0  0
  9  7  1  0  0  0  0
 10 35  2  0  0  0  0
 10 32  1  0  0  0  0
 11 10  1  0  0  0  0
 12 27  2  0  0  0  0
 13 12  1  0  0  0  0
 14  5  1  0  0  0  0
 14 15  1  0  0  0  0
 16 17  1  0  0  0  0
 18 20  1  0  0  0  0
 18 41  1  0  0  0  0
 19 18  1  0  0  0  0
 21 34  1  0  0  0  0
 21 22  1  0  0  0  0
 21 24  1  0  0  0  0
 23 21  1  0  0  0  0
 24 30  1  0  0  0  0
 25 24  1  0  0  0  0
 26 24  1  0  0  0  0
 27 16  1  0  0  0  0
 27 28  1  0  0  0  0
 29 14  1  0  0  0  0
 30  1  1  0  0  0  0
 30 45  1  0  0  0  0
 31  4  2  0  0  0  0
 31 12  1  0  0  0  0
 32 33  1  0  0  0  0
 32  5  2  0  0  0  0
 34  7  1  6  0  0  0
 34 43  1  0  0  0  0
 35 29  1  0  0  0  0
 36 37  1  0  0  0  0
 36 16  2  0  0  0  0
 38 18  1  0  0  0  0
 38 40  1  0  0  0  0
 39 38  1  0  0  0  0
 41 42  1  0  0  0  0
 43 44  1  6  0  0  0
 43 41  1  0  0  0  0
 43 35  1  0  0  0  0
 45 31  1  0  0  0  0
 46 45  1  0  0  0  0
M  END
$$$$
