CSD_code = NIDLUH | q = 0 | S = 0 | Stoichiometry = C17H24ClN3O3W | MND = 6
 OpenBabel04212202073D

 49 50  0  0  0  0  0  0  0  0999 V2000
    3.3599    1.5662    2.1246 W   0  0  0  0  0  0  0  0  0  0  0  0
    1.0468    0.9498    1.8317 Cl  0  0  0  0  0  0  0  0  0  0  0  0
    4.5593   -1.2788    2.5037 O   0  0  0  0  0  1  0  0  0  0  0  0
    3.3333    1.7010    5.2351 O   0  0  0  0  0  1  0  0  0  0  0  0
   10.2492    0.3801    6.4850 O   0  0  0  0  0  0  0  0  0  0  0  0
   10.3850    1.7047    4.6303 N   0  0  0  0  0  0  0  0  0  0  0  0
    2.7390    3.7642    1.7695 N   0  0  0  0  0  4  0  0  0  0  0  0
    3.4185    1.6168   -0.1514 N   0  0  0  0  0  4  0  0  0  0  0  0
    4.0142   -0.2790    2.3322 C   0  0  0  0  0  2  0  0  0  0  0  0
    3.2493    1.6428    4.0880 C   0  0  0  0  0  2  0  0  0  0  0  0
    5.2040    1.8610    2.5202 C   0  0  0  0  0  2  0  0  0  0  0  0
    6.4913    1.8229    3.0426 C   0  0  0  0  0  0  0  0  0  0  0  0
    7.5544    2.5506    2.4708 C   0  0  0  0  0  0  0  0  0  0  0  0
    8.8175    2.4943    3.0084 C   0  0  0  0  0  0  0  0  0  0  0  0
    9.0792    1.7154    4.1383 C   0  0  0  0  0  0  0  0  0  0  0  0
    8.0385    0.9869    4.7191 C   0  0  0  0  0  0  0  0  0  0  0  0
    6.7749    1.0394    4.1829 C   0  0  0  0  0  0  0  0  0  0  0  0
   10.8928    1.0686    5.7296 C   0  0  0  0  0  0  0  0  0  0  0  0
   12.3780    1.3257    5.8979 C   0  0  0  0  0  0  0  0  0  0  0  0
    3.6113    4.6882    2.5018 C   0  0  0  0  0  0  0  0  0  0  0  0
    1.3607    4.0439    2.1811 C   0  0  0  0  0  0  0  0  0  0  0  0
    2.8861    3.9983    0.3229 C   0  0  0  0  0  0  0  0  0  0  0  0
    2.5411    2.7471   -0.4871 C   0  0  0  0  0  0  0  0  0  0  0  0
    2.8736    0.4006   -0.7626 C   0  0  0  0  0  0  0  0  0  0  0  0
    4.7600    1.8204   -0.7031 C   0  0  0  0  0  0  0  0  0  0  0  0
   11.0360    2.2589    4.0901 H   0  0  0  0  0  0  0  0  0  0  0  0
    7.3674    3.1572    1.5955 H   0  0  0  0  0  0  0  0  0  0  0  0
    9.6207    3.0596    2.5532 H   0  0  0  0  0  0  0  0  0  0  0  0
    8.2365    0.3855    5.5904 H   0  0  0  0  0  0  0  0  0  0  0  0
    5.9677    0.4770    4.6272 H   0  0  0  0  0  0  0  0  0  0  0  0
   12.9242    0.9396    5.0394 H   0  0  0  0  0  0  0  0  0  0  0  0
   12.5709    2.3928    5.9879 H   0  0  0  0  0  0  0  0  0  0  0  0
   12.7253    0.8229    6.7955 H   0  0  0  0  0  0  0  0  0  0  0  0
    3.4877    4.5331    3.5735 H   0  0  0  0  0  0  0  0  0  0  0  0
    4.6559    4.4962    2.2551 H   0  0  0  0  0  0  0  0  0  0  0  0
    3.3664    5.7332    2.2656 H   0  0  0  0  0  0  0  0  0  0  0  0
    1.1001    5.0950    1.9917 H   0  0  0  0  0  0  0  0  0  0  0  0
    0.6636    3.4006    1.6463 H   0  0  0  0  0  0  0  0  0  0  0  0
    1.2524    3.8386    3.2471 H   0  0  0  0  0  0  0  0  0  0  0  0
    2.2402    4.8276   -0.0048 H   0  0  0  0  0  0  0  0  0  0  0  0
    3.9213    4.2911    0.1214 H   0  0  0  0  0  0  0  0  0  0  0  0
    2.6023    2.9825   -1.5631 H   0  0  0  0  0  0  0  0  0  0  0  0
    1.5143    2.4432   -0.2575 H   0  0  0  0  0  0  0  0  0  0  0  0
    1.8821    0.1968   -0.3577 H   0  0  0  0  0  0  0  0  0  0  0  0
    2.8016    0.5056   -1.8539 H   0  0  0  0  0  0  0  0  0  0  0  0
    3.5223   -0.4451   -0.5305 H   0  0  0  0  0  0  0  0  0  0  0  0
    5.3814    0.9585   -0.4602 H   0  0  0  0  0  0  0  0  0  0  0  0
    4.7219    1.9353   -1.7960 H   0  0  0  0  0  0  0  0  0  0  0  0
    5.2334    2.6998   -0.2700 H   0  0  0  0  0  0  0  0  0  0  0  0
  1  9  1  0  0  0  0
  1 11  1  0  0  0  0
  1 10  1  0  0  0  0
  2  1  1  0  0  0  0
  6 18  1  0  0  0  0
  7  1  1  0  0  0  0
  7 21  1  0  0  0  0
  7 20  1  0  0  0  0
  8  1  1  0  0  0  0
  9  3  1  0  0  0  0
 10  4  1  0  0  0  0
 11 12  1  0  0  0  0
 12 17  1  0  0  0  0
 13 14  1  0  0  0  0
 13 12  2  0  0  0  0
 14 15  2  0  0  0  0
 15  6  1  0  0  0  0
 15 16  1  0  0  0  0
 16 29  1  0  0  0  0
 17 30  1  0  0  0  0
 17 16  2  0  0  0  0
 18 19  1  0  0  0  0
 18  5  2  0  0  0  0
 19 32  1  0  0  0  0
 19 33  1  0  0  0  0
 20 34  1  0  0  0  0
 21 39  1  0  0  0  0
 22  7  1  0  0  0  0
 23 43  1  0  0  0  0
 23  8  1  0  0  0  0
 23 22  1  0  0  0  0
 24 46  1  0  0  0  0
 24 44  1  0  0  0  0
 24  8  1  0  0  0  0
 25 47  1  0  0  0  0
 25 49  1  0  0  0  0
 25  8  1  0  0  0  0
 26  6  1  0  0  0  0
 27 13  1  0  0  0  0
 28 14  1  0  0  0  0
 31 19  1  0  0  0  0
 35 20  1  0  0  0  0
 36 20  1  0  0  0  0
 37 21  1  0  0  0  0
 38 21  1  0  0  0  0
 40 22  1  0  0  0  0
 41 22  1  0  0  0  0
 42 23  1  0  0  0  0
 45 24  1  0  0  0  0
 48 25  1  0  0  0  0
M  END
$$$$
