CSD_code = NIDSAV | q = 0 | S = 0 | Stoichiometry = C20H16Cl2N4PdS4 | MND = 4
 OpenBabel04212202073D

 47 50  0  0  0  0  0  0  0  0999 V2000
   -1.2089   -0.0000    5.4580 Pd  0  0  0  0  0  0  0  0  0  0  0  0
   -0.1845    0.1271    3.3926 Cl  0  0  0  0  0  0  0  0  0  0  0  0
    0.3164   -4.9374    6.8801 S   0  0  0  0  0  0  0  0  0  0  0  0
    0.1875    2.4723    6.1088 S   0  0  0  0  0  0  0  0  0  0  0  0
    0.4574   -0.6376    6.2720 N   0  0  0  0  0  0  0  0  0  0  0  0
    0.5254   -1.9706    6.3334 N   0  0  0  0  0  0  0  0  0  0  0  0
    0.1719   -6.4442    6.0801 C   0  0  0  0  0  0  0  0  0  0  0  0
    0.1031   -7.3451    6.6577 H   0  0  0  0  0  0  0  0  0  0  0  0
    0.1599   -6.3227    4.7208 C   0  0  0  0  0  0  0  0  0  0  0  0
    0.0747   -7.1578    4.0489 H   0  0  0  0  0  0  0  0  0  0  0  0
    0.2708   -4.9892    4.3025 C   0  0  0  0  0  0  0  0  0  0  0  0
    0.2762   -4.6745    3.2744 H   0  0  0  0  0  0  0  0  0  0  0  0
    0.3662   -4.1061    5.3548 C   0  0  0  0  0  0  0  0  0  0  0  0
    0.4456   -2.6888    5.2759 C   0  0  0  0  0  0  0  0  0  0  0  0
    0.4393   -2.2443    4.2722 H   0  0  0  0  0  0  0  0  0  0  0  0
    1.3218    0.0686    6.9208 C   0  0  0  0  0  3  0  0  0  0  0  0
    2.1403   -0.4443    7.4258 H   0  0  0  0  0  0  0  0  0  0  0  0
    1.2993    1.4857    7.0083 C   0  0  0  0  0  0  0  0  0  0  0  0
    2.1387    2.2660    7.7778 C   0  0  0  0  0  0  0  0  0  0  0  0
    2.9050    1.8523    8.4083 H   0  0  0  0  0  0  0  0  0  0  0  0
    1.8717    3.6359    7.6620 C   0  0  0  0  0  0  0  0  0  0  0  0
    2.4136    4.3978    8.1930 H   0  0  0  0  0  0  0  0  0  0  0  0
    0.8476    3.8950    6.7989 C   0  0  0  0  0  0  0  0  0  0  0  0
    0.4442    4.8496    6.5235 H   0  0  0  0  0  0  0  0  0  0  0  0
   -2.2331   -0.1268    7.5234 Cl  0  0  0  0  0  0  0  0  0  0  0  0
   -2.7332    4.9377    4.0358 S   0  0  0  0  0  0  0  0  0  0  0  0
   -2.6049   -2.4723    4.8072 S   0  0  0  0  0  0  0  0  0  0  0  0
   -2.8751    0.6376    4.6439 N   0  0  0  0  0  0  0  0  0  0  0  0
   -2.9429    1.9707    4.5825 N   0  0  0  0  0  0  0  0  0  0  0  0
   -2.5888    6.4443    4.8361 C   0  0  0  0  0  0  0  0  0  0  0  0
   -2.5198    7.3453    4.2587 H   0  0  0  0  0  0  0  0  0  0  0  0
   -2.5774    6.3226    6.1954 C   0  0  0  0  0  0  0  0  0  0  0  0
   -2.4923    7.1576    6.8674 H   0  0  0  0  0  0  0  0  0  0  0  0
   -2.6886    4.9891    6.6135 C   0  0  0  0  0  0  0  0  0  0  0  0
   -2.6945    4.6743    7.6415 H   0  0  0  0  0  0  0  0  0  0  0  0
   -2.7837    4.1061    5.5611 C   0  0  0  0  0  0  0  0  0  0  0  0
   -2.8634    2.6889    5.6399 C   0  0  0  0  0  0  0  0  0  0  0  0
   -2.8575    2.2445    6.6436 H   0  0  0  0  0  0  0  0  0  0  0  0
   -3.7399   -0.0687    3.9957 C   0  0  0  0  0  3  0  0  0  0  0  0
   -4.5588    0.4441    3.4911 H   0  0  0  0  0  0  0  0  0  0  0  0
   -3.7172   -1.4858    3.9081 C   0  0  0  0  0  0  0  0  0  0  0  0
   -4.5568   -2.2662    3.1389 C   0  0  0  0  0  0  0  0  0  0  0  0
   -5.3235   -1.8526    2.5089 H   0  0  0  0  0  0  0  0  0  0  0  0
   -4.2895   -3.6360    3.2544 C   0  0  0  0  0  0  0  0  0  0  0  0
   -4.8313   -4.3980    2.7235 H   0  0  0  0  0  0  0  0  0  0  0  0
   -3.2649   -3.8950    4.1171 C   0  0  0  0  0  0  0  0  0  0  0  0
   -2.8611   -4.8495    4.3922 H   0  0  0  0  0  0  0  0  0  0  0  0
  1  5  1  0  0  0  0
  1 25  1  0  0  0  0
  2  1  1  0  0  0  0
  4 23  1  0  0  0  0
  4 18  1  0  0  0  0
  5  6  1  0  0  0  0
  5 16  1  0  0  0  0
  7  8  1  0  0  0  0
  7  3  1  0  0  0  0
  9  7  2  0  0  0  0
 10  9  1  0  0  0  0
 11  9  1  0  0  0  0
 11 13  2  0  0  0  0
 12 11  1  0  0  0  0
 13  3  1  0  0  0  0
 14 13  1  0  0  0  0
 14  6  2  0  0  0  0
 15 14  1  0  0  0  0
 16 18  1  0  0  0  0
 16 17  1  0  0  0  0
 18 19  2  0  0  0  0
 19 20  1  0  0  0  0
 21 19  1  0  0  0  0
 21 22  1  0  0  0  0
 23 21  2  0  0  0  0
 24 23  1  0  0  0  0
 26 30  1  0  0  0  0
 26 36  1  0  0  0  0
 28  1  1  0  0  0  0
 29 28  1  0  0  0  0
 29 37  2  0  0  0  0
 30 32  2  0  0  0  0
 31 30  1  0  0  0  0
 32 34  1  0  0  0  0
 32 33  1  0  0  0  0
 34 35  1  0  0  0  0
 36 37  1  0  0  0  0
 36 34  2  0  0  0  0
 37 38  1  0  0  0  0
 39 28  1  0  0  0  0
 40 39  1  0  0  0  0
 41 39  1  0  0  0  0
 41 27  1  0  0  0  0
 42 44  1  0  0  0  0
 42 41  2  0  0  0  0
 43 42  1  0  0  0  0
 44 46  2  0  0  0  0
 45 44  1  0  0  0  0
 46 47  1  0  0  0  0
 46 27  1  0  0  0  0
M  END
$$$$
