CSD_code = NIDVUR | q = 1 | S = 0 | Stoichiometry = C12H27ClN3Zn(1+) | MND = 4
 OpenBabel04212202073D

 44 46  0  0  1  0  0  0  0  0999 V2000
    3.5994    7.6722    6.2067 Zn  0  0  2  0  0  0  0  0  0  0  0  0
    4.7401    9.4327    6.5119 Cl  0  0  0  0  0  0  0  0  0  0  0  0
    4.2606    6.3057    4.7754 N   0  0  2  0  0  4  0  0  0  0  0  0
    5.7103    6.5035    4.6143 C   0  0  0  0  0  0  0  0  0  0  0  0
    6.0920    5.9102    3.7777 H   0  0  0  0  0  0  0  0  0  0  0  0
    6.2372    6.2097    5.5185 H   0  0  0  0  0  0  0  0  0  0  0  0
    5.9255    7.5542    4.4274 H   0  0  0  0  0  0  0  0  0  0  0  0
    3.6250    6.7117    3.5064 C   0  0  0  0  0  0  0  0  0  0  0  0
    4.0461    6.1170    2.6843 H   0  0  0  0  0  0  0  0  0  0  0  0
    3.9211    7.7510    3.3401 H   0  0  0  0  0  0  0  0  0  0  0  0
    2.0946    6.6004    3.4141 C   0  0  0  0  0  0  0  0  0  0  0  0
    1.7895    7.2746    2.6124 H   0  0  0  0  0  0  0  0  0  0  0  0
    1.8215    5.5957    3.0838 H   0  0  0  0  0  0  0  0  0  0  0  0
    1.2502    6.8776    4.6650 C   0  0  0  0  0  0  0  0  0  0  0  0
    0.2125    7.0296    4.3365 H   0  0  0  0  0  0  0  0  0  0  0  0
    1.2678    5.9911    5.2975 H   0  0  0  0  0  0  0  0  0  0  0  0
    1.6707    8.0157    5.4957 N   0  0  2  0  0  4  0  0  0  0  0  0
    1.5598    9.2627    4.7256 C   0  0  0  0  0  0  0  0  0  0  0  0
    0.5270    9.4287    4.4044 H   0  0  0  0  0  0  0  0  0  0  0  0
    2.1994    9.2256    3.8486 H   0  0  0  0  0  0  0  0  0  0  0  0
    1.8786   10.1034    5.3388 H   0  0  0  0  0  0  0  0  0  0  0  0
    0.7748    8.1408    6.6666 C   0  0  0  0  0  0  0  0  0  0  0  0
   -0.2584    8.2453    6.3072 H   0  0  0  0  0  0  0  0  0  0  0  0
    1.0462    9.0666    7.1806 H   0  0  0  0  0  0  0  0  0  0  0  0
    0.8070    6.9985    7.6838 C   0  0  0  0  0  0  0  0  0  0  0  0
   -0.0179    7.1917    8.3736 H   0  0  0  0  0  0  0  0  0  0  0  0
    0.5823    6.0442    7.2085 H   0  0  0  0  0  0  0  0  0  0  0  0
    2.0623    6.9022    8.5516 C   0  0  0  0  0  0  0  0  0  0  0  0
    2.2650    7.8927    8.9672 H   0  0  0  0  0  0  0  0  0  0  0  0
    1.8527    6.2224    9.3884 H   0  0  0  0  0  0  0  0  0  0  0  0
    3.2975    6.4535    7.8725 N   0  0  2  0  0  4  0  0  0  0  0  0
    4.4116    6.6691    8.8108 C   0  0  0  0  0  0  0  0  0  0  0  0
    4.2311    6.1428    9.7527 H   0  0  0  0  0  0  0  0  0  0  0  0
    4.5253    7.7321    9.0153 H   0  0  0  0  0  0  0  0  0  0  0  0
    5.3445    6.3099    8.3840 H   0  0  0  0  0  0  0  0  0  0  0  0
    3.2136    5.0159    7.5472 C   0  0  0  0  0  0  0  0  0  0  0  0
    2.2251    4.8065    7.1372 H   0  0  0  0  0  0  0  0  0  0  0  0
    3.3133    4.4391    8.4759 H   0  0  0  0  0  0  0  0  0  0  0  0
    4.2613    4.5200    6.5474 C   0  0  0  0  0  0  0  0  0  0  0  0
    4.2597    3.4298    6.6040 H   0  0  0  0  0  0  0  0  0  0  0  0
    5.2560    4.8476    6.8456 H   0  0  0  0  0  0  0  0  0  0  0  0
    3.9953    4.8899    5.0865 C   0  0  0  0  0  0  0  0  0  0  0  0
    4.6181    4.2572    4.4412 H   0  0  0  0  0  0  0  0  0  0  0  0
    2.9536    4.6685    4.8563 H   0  0  0  0  0  0  0  0  0  0  0  0
  1  2  1  1  0  0  0
  1 31  1  0  0  0  0
  3  4  1  6  0  0  0
  3 42  1  0  0  0  0
  3  1  1  0  0  0  0
  4  6  1  0  0  0  0
  5  4  1  0  0  0  0
  7  4  1  0  0  0  0
  8  3  1  0  0  0  0
  9  8  1  0  0  0  0
 10  8  1  0  0  0  0
 11  8  1  0  0  0  0
 11 14  1  0  0  0  0
 12 11  1  0  0  0  0
 13 11  1  0  0  0  0
 14 16  1  0  0  0  0
 14 17  1  0  0  0  0
 15 14  1  0  0  0  0
 17 18  1  6  0  0  0
 17  1  1  0  0  0  0
 17 22  1  0  0  0  0
 18 21  1  0  0  0  0
 19 18  1  0  0  0  0
 20 18  1  0  0  0  0
 22 24  1  0  0  0  0
 22 25  1  0  0  0  0
 23 22  1  0  0  0  0
 25 26  1  0  0  0  0
 25 28  1  0  0  0  0
 27 25  1  0  0  0  0
 28 29  1  0  0  0  0
 28 30  1  0  0  0  0
 31 28  1  0  0  0  0
 31 32  1  1  0  0  0
 32 34  1  0  0  0  0
 32 33  1  0  0  0  0
 35 32  1  0  0  0  0
 36 31  1  0  0  0  0
 36 38  1  0  0  0  0
 37 36  1  0  0  0  0
 39 40  1  0  0  0  0
 39 41  1  0  0  0  0
 39 36  1  0  0  0  0
 42 39  1  0  0  0  0
 43 42  1  0  0  0  0
 44 42  1  0  0  0  0
M  END
$$$$
