CSD_code = NIDWAY | q = 1 | S = 0 | Stoichiometry = C16H26Cl2CoN4O2(1+) | MND = 6
 OpenBabel04212202073D

 51 55  0  0  1  0  0  0  0  0999 V2000
    0.0607    0.7607    3.5569 Co  0  0  0  0  0  0  0  0  0  0  0  0
    1.2972    0.0661    1.9207 Cl  0  0  0  0  0  0  0  0  0  0  0  0
    1.6337    2.1905    4.0552 Cl  0  0  0  0  0  0  0  0  0  0  0  0
   -2.9618    2.7686   -2.8798 O   0  0  0  0  0  0  0  0  0  0  0  0
   -3.3741    2.6039   -3.7428 H   0  0  0  0  0  0  0  0  0  0  0  0
   -3.7404    4.8342   -3.2171 O   0  0  0  0  0  0  0  0  0  0  0  0
   -1.1094    2.0363    2.4843 N   0  0  1  0  0  4  0  0  0  0  0  0
   -1.3078   -0.5993    3.1009 N   0  0  1  0  0  4  0  0  0  0  0  0
   -2.0920   -0.5801    3.7532 H   0  0  0  0  0  0  0  0  0  0  0  0
    0.7213   -0.6450    4.8044 N   0  0  2  0  0  4  0  0  0  0  0  0
    1.7248   -0.7530    4.6554 H   0  0  0  0  0  0  0  0  0  0  0  0
   -0.8543    1.4961    5.1467 N   0  0  2  0  0  4  0  0  0  0  0  0
   -0.1457    2.1999    5.3903 H   0  0  0  0  0  0  0  0  0  0  0  0
   -2.2023    1.2407    1.8577 C   0  0  0  0  0  0  0  0  0  0  0  0
   -3.1061    1.3407    2.4621 H   0  0  0  0  0  0  0  0  0  0  0  0
   -2.4297    1.6322    0.8651 H   0  0  0  0  0  0  0  0  0  0  0  0
   -1.8185   -0.2334    1.7773 C   0  0  0  0  0  0  0  0  0  0  0  0
   -2.6799   -0.8432    1.4840 H   0  0  0  0  0  0  0  0  0  0  0  0
   -1.0141   -0.3813    1.0552 H   0  0  0  0  0  0  0  0  0  0  0  0
   -0.6711   -1.9161    3.2054 C   0  0  0  0  0  0  0  0  0  0  0  0
    0.0461   -2.0066    2.3888 H   0  0  0  0  0  0  0  0  0  0  0  0
   -1.3988   -2.7312    3.1363 H   0  0  0  0  0  0  0  0  0  0  0  0
    0.0588   -1.9496    4.5498 C   0  0  0  0  0  0  0  0  0  0  0  0
   -0.6624   -2.1317    5.3497 H   0  0  0  0  0  0  0  0  0  0  0  0
    0.7853   -2.7642    4.5588 H   0  0  0  0  0  0  0  0  0  0  0  0
    0.4933   -0.1630    6.1808 C   0  0  0  0  0  0  0  0  0  0  0  0
    1.2642    0.5737    6.4162 H   0  0  0  0  0  0  0  0  0  0  0  0
    0.5601   -0.9812    6.9041 H   0  0  0  0  0  0  0  0  0  0  0  0
   -0.8759    0.5248    6.2369 C   0  0  0  0  0  0  0  0  0  0  0  0
   -1.6873   -0.1920    6.0821 H   0  0  0  0  0  0  0  0  0  0  0  0
   -1.0260    0.9996    7.2123 H   0  0  0  0  0  0  0  0  0  0  0  0
   -2.0607    2.2198    4.7648 C   0  0  0  0  0  0  0  0  0  0  0  0
   -2.3782    2.9334    5.5334 H   0  0  0  0  0  0  0  0  0  0  0  0
   -2.8827    1.5167    4.6041 H   0  0  0  0  0  0  0  0  0  0  0  0
   -1.6845    2.9682    3.4823 C   0  0  0  0  0  0  0  0  0  0  0  0
   -0.9131    3.6981    3.7336 H   0  0  0  0  0  0  0  0  0  0  0  0
   -2.5442    3.4990    3.0620 H   0  0  0  0  0  0  0  0  0  0  0  0
   -0.3517    2.7877    1.4475 C   0  0  0  0  0  0  0  0  0  0  0  0
    0.0584    2.0516    0.7545 H   0  0  0  0  0  0  0  0  0  0  0  0
    0.4823    3.2822    1.9483 H   0  0  0  0  0  0  0  0  0  0  0  0
   -1.1607    3.8054    0.6834 C   0  0  0  0  0  0  0  0  0  0  0  0
   -1.7398    3.4666   -0.5326 C   0  0  0  0  0  0  0  0  0  0  0  0
   -1.5868    2.4893   -0.9666 H   0  0  0  0  0  0  0  0  0  0  0  0
   -2.4919    4.3994   -1.2392 C   0  0  0  0  0  0  0  0  0  0  0  0
   -3.1271    4.0557   -2.5376 C   0  0  0  0  0  0  0  0  0  0  0  0
   -2.6510    5.6888   -0.7408 C   0  0  0  0  0  0  0  0  0  0  0  0
   -3.2318    6.3981   -1.3094 H   0  0  0  0  0  0  0  0  0  0  0  0
   -2.0465    6.0405    0.4514 C   0  0  0  0  0  0  0  0  0  0  0  0
   -2.1418    7.0461    0.8299 H   0  0  0  0  0  0  0  0  0  0  0  0
   -1.3073    5.1064    1.1580 C   0  0  0  0  0  0  0  0  0  0  0  0
   -0.8183    5.4039    2.0738 H   0  0  0  0  0  0  0  0  0  0  0  0
  1  3  1  0  0  0  0
  1 10  1  0  0  0  0
  1 12  1  0  0  0  0
  2  1  1  0  0  0  0
  4 45  1  0  0  0  0
  5  4  1  0  0  0  0
  6 45  2  0  0  0  0
  7 38  1  6  0  0  0
  7 35  1  0  0  0  0
  7  1  1  0  0  0  0
  8 20  1  0  0  0  0
  8  1  1  0  0  0  0
  8  9  1  1  0  0  0
 10 11  1  6  0  0  0
 10 26  1  0  0  0  0
 12 13  1  1  0  0  0
 12 29  1  0  0  0  0
 14 15  1  0  0  0  0
 14  7  1  0  0  0  0
 16 14  1  0  0  0  0
 17 14  1  0  0  0  0
 17  8  1  0  0  0  0
 18 17  1  0  0  0  0
 19 17  1  0  0  0  0
 20 23  1  0  0  0  0
 21 20  1  0  0  0  0
 22 20  1  0  0  0  0
 23 25  1  0  0  0  0
 23 10  1  0  0  0  0
 23 24  1  0  0  0  0
 26 29  1  0  0  0  0
 26 27  1  0  0  0  0
 26 28  1  0  0  0  0
 29 31  1  0  0  0  0
 30 29  1  0  0  0  0
 32 12  1  0  0  0  0
 32 33  1  0  0  0  0
 34 32  1  0  0  0  0
 35 36  1  0  0  0  0
 35 32  1  0  0  0  0
 37 35  1  0  0  0  0
 38 40  1  0  0  0  0
 39 38  1  0  0  0  0
 41 50  1  0  0  0  0
 41 38  1  0  0  0  0
 42 41  2  0  0  0  0
 43 42  1  0  0  0  0
 44 46  2  0  0  0  0
 44 42  1  0  0  0  0
 45 44  1  0  0  0  0
 46 48  1  0  0  0  0
 47 46  1  0  0  0  0
 48 49  1  0  0  0  0
 48 50  2  0  0  0  0
 50 51  1  0  0  0  0
M  END
$$$$
