CSD_code = NIFVUU | q = 0 | S = 0 | Stoichiometry = C18H20BrNiP | MND = 5
 OpenBabel04212202073D

 41 41  0  0  0  0  0  0  0  0999 V2000
   10.8151    2.8116    6.2079 Ni  0  0  0  0  0  0  0  0  0  0  0  0
    8.8922    1.9186    5.5480 Br  0  0  0  0  0 15  0  0  0  0  0  0
   10.3188    4.7856    5.4927 P   0  0  0  0  0  0  0  0  0  0  0  0
   12.5648    3.2986    7.0317 C   0  0  0  0  0  0  0  0  0  0  0  0
   12.1730    3.5941    8.0067 H   0  0  0  0  0  0  0  0  0  0  0  0
   13.3264    3.9624    6.6389 H   0  0  0  0  0  0  0  0  0  0  0  0
   12.5555    1.9513    6.6670 C   0  0  0  0  0  3  0  0  0  0  0  0
   13.2239    1.5945    5.8872 H   0  0  0  0  0  0  0  0  0  0  0  0
   11.4816    1.1602    7.0815 C   0  0  0  0  0  0  0  0  0  0  0  0
   11.3859    0.1408    6.7260 H   0  0  0  0  0  0  0  0  0  0  0  0
   11.0154    1.3475    8.0535 H   0  0  0  0  0  0  0  0  0  0  0  0
    8.6459    5.3844    6.0205 C   0  0  0  0  0  0  0  0  0  0  0  0
    8.5464    6.4545    5.8240 H   0  0  0  0  0  0  0  0  0  0  0  0
    7.9317    4.8216    5.4081 H   0  0  0  0  0  0  0  0  0  0  0  0
    8.4125    5.0622    7.4589 C   0  0  0  0  0  0  0  0  0  0  0  0
    8.5470    4.0152    7.7173 H   0  0  0  0  0  0  0  0  0  0  0  0
    8.0578    5.9383    8.3808 C   0  0  0  0  0  0  0  0  0  0  0  0
    7.9063    6.9807    8.1471 H   0  0  0  0  0  0  0  0  0  0  0  0
    7.8900    5.6508    9.4045 H   0  0  0  0  0  0  0  0  0  0  0  0
   10.2052    4.8255    3.6778 C   0  0  0  0  0  0  0  0  0  0  0  0
   10.6287    3.7066    2.9705 C   0  0  0  0  0  0  0  0  0  0  0  0
   10.9973    2.8413    3.5183 H   0  0  0  0  0  0  0  0  0  0  0  0
   10.5672    3.6893    1.5893 C   0  0  0  0  0  0  0  0  0  0  0  0
   10.8906    2.8153    1.0443 H   0  0  0  0  0  0  0  0  0  0  0  0
   10.0833    4.7949    0.9105 C   0  0  0  0  0  0  0  0  0  0  0  0
   10.0294    4.7844   -0.1680 H   0  0  0  0  0  0  0  0  0  0  0  0
    9.6662    5.9163    1.6112 C   0  0  0  0  0  0  0  0  0  0  0  0
    9.2912    6.7774    1.0776 H   0  0  0  0  0  0  0  0  0  0  0  0
    9.7270    5.9370    2.9919 C   0  0  0  0  0  0  0  0  0  0  0  0
    9.4110    6.8144    3.5380 H   0  0  0  0  0  0  0  0  0  0  0  0
   11.3888    6.2198    5.8357 C   0  0  0  0  0  0  0  0  0  0  0  0
   11.3047    6.8701    7.0631 C   0  0  0  0  0  0  0  0  0  0  0  0
   10.5603    6.5582    7.7823 H   0  0  0  0  0  0  0  0  0  0  0  0
   12.1667    7.9098    7.3601 C   0  0  0  0  0  0  0  0  0  0  0  0
   12.0907    8.4152    8.3119 H   0  0  0  0  0  0  0  0  0  0  0  0
   13.1302    8.2980    6.4434 C   0  0  0  0  0  0  0  0  0  0  0  0
   13.8045    9.1084    6.6774 H   0  0  0  0  0  0  0  0  0  0  0  0
   13.2334    7.6388    5.2292 C   0  0  0  0  0  0  0  0  0  0  0  0
   13.9898    7.9330    4.5161 H   0  0  0  0  0  0  0  0  0  0  0  0
   12.3725    6.5995    4.9277 C   0  0  0  0  0  0  0  0  0  0  0  0
   12.4581    6.0806    3.9824 H   0  0  0  0  0  0  0  0  0  0  0  0
  1  4  1  0  0  0  0
  1  9  1  0  0  0  0
  3 31  1  0  0  0  0
  3 12  1  0  0  0  0
  4  5  1  0  0  0  0
  6  4  1  0  0  0  0
  7  4  1  0  0  0  0
  7  9  1  0  0  0  0
  8  7  1  0  0  0  0
  9 11  1  0  0  0  0
 10  9  1  0  0  0  0
 12 15  1  0  0  0  0
 13 12  1  0  0  0  0
 14 12  1  0  0  0  0
 15 16  1  0  0  0  0
 15 17  2  0  0  0  0
 17 19  1  0  0  0  0
 18 17  1  0  0  0  0
 20  3  1  0  0  0  0
 21 22  1  0  0  0  0
 21 20  2  0  0  0  0
 23 21  1  0  0  0  0
 24 23  1  0  0  0  0
 25 23  2  0  0  0  0
 25 27  1  0  0  0  0
 26 25  1  0  0  0  0
 27 29  2  0  0  0  0
 28 27  1  0  0  0  0
 29 30  1  0  0  0  0
 29 20  1  0  0  0  0
 31 32  1  0  0  0  0
 32 34  2  0  0  0  0
 32 33  1  0  0  0  0
 34 35  1  0  0  0  0
 36 37  1  0  0  0  0
 36 34  1  0  0  0  0
 38 36  2  0  0  0  0
 39 38  1  0  0  0  0
 40 38  1  0  0  0  0
 40 31  2  0  0  0  0
 41 40  1  0  0  0  0
M  END
$$$$
