CSD_code = NIGDAK | q = 0 | S = 0 | Stoichiometry = C16H12ClN2O3ReS | MND = 6
 OpenBabel04212202073D

 36 38  0  0  0  0  0  0  0  0999 V2000
    8.4194    4.9495    8.1017 Re  0  0  0  0  0  0  0  0  0  0  0  0
    8.0040    3.7751   10.1260 Cl  0  0  0  0  0  0  0  0  0  0  0  0
    8.8351    0.3164    8.8697 S   0  0  0  0  0  0  0  0  0  0  0  0
    9.0015    3.0036    7.3921 N   0  0  0  0  0  0  0  0  0  0  0  0
    5.4266    4.5210    7.4659 O   0  0  0  0  0  1  0  0  0  0  0  0
   10.4621    4.7324    8.7629 N   0  0  0  0  0  0  0  0  0  0  0  0
    9.1792    6.3526    5.4547 O   0  0  0  0  0  1  0  0  0  0  0  0
    8.0578    6.6114    9.0553 C   0  0  0  0  0  2  0  0  0  0  0  0
   12.3912    5.2892   10.0486 C   0  0  0  0  0  0  0  0  0  0  0  0
   12.9124    6.0288   10.6346 H   0  0  0  0  0  0  0  0  0  0  0  0
   12.9265    4.0229    9.8500 C   0  0  0  0  0  0  0  0  0  0  0  0
   13.8780    3.7513   10.2806 H   0  0  0  0  0  0  0  0  0  0  0  0
   10.1585    2.5965    7.7957 C   0  0  0  0  0  0  0  0  0  0  0  0
   10.5566    1.6215    7.5341 H   0  0  0  0  0  0  0  0  0  0  0  0
    8.1151    2.0888    6.8441 C   0  0  0  0  0  0  0  0  0  0  0  0
    6.5319    4.7464    7.6545 C   0  0  0  0  0  2  0  0  0  0  0  0
    7.8752    7.5316    9.7102 O   0  0  0  0  0  1  0  0  0  0  0  0
   10.9771    3.5019    8.5641 C   0  0  0  0  0  0  0  0  0  0  0  0
    7.3316    2.4548    5.7457 C   0  0  0  0  0  0  0  0  0  0  0  0
    7.5023    3.4223    5.2940 H   0  0  0  0  0  0  0  0  0  0  0  0
    7.9064    0.8351    7.4414 C   0  0  0  0  0  0  0  0  0  0  0  0
   11.1640    5.5966    9.4865 C   0  0  0  0  0  0  0  0  0  0  0  0
   10.7268    6.5769    9.6260 H   0  0  0  0  0  0  0  0  0  0  0  0
    6.1613    0.3667    5.8516 C   0  0  0  0  0  0  0  0  0  0  0  0
    5.4067   -0.3035    5.4700 H   0  0  0  0  0  0  0  0  0  0  0  0
    8.8845    5.8460    6.4433 C   0  0  0  0  0  2  0  0  0  0  0  0
    6.3747    1.5986    5.2474 C   0  0  0  0  0  0  0  0  0  0  0  0
    5.7868    1.8923    4.3919 H   0  0  0  0  0  0  0  0  0  0  0  0
    6.9202   -0.0048    6.9430 C   0  0  0  0  0  0  0  0  0  0  0  0
    6.7644   -0.9650    7.4123 H   0  0  0  0  0  0  0  0  0  0  0  0
    7.5203    0.3317   10.1180 C   0  0  0  0  0  0  0  0  0  0  0  0
    7.9196   -0.1715   10.9930 H   0  0  0  0  0  0  0  0  0  0  0  0
    6.6450   -0.1886    9.7416 H   0  0  0  0  0  0  0  0  0  0  0  0
    7.2941    1.3711   10.3503 H   0  0  0  0  0  0  0  0  0  0  0  0
   12.2111    3.1186    9.0914 C   0  0  0  0  0  0  0  0  0  0  0  0
   12.5736    2.1187    8.9116 H   0  0  0  0  0  0  0  0  0  0  0  0
  1  6  1  0  0  0  0
  1  8  1  0  0  0  0
  1  2  1  0  0  0  0
  3 31  1  0  0  0  0
  4 13  1  0  0  0  0
  4  1  1  0  0  0  0
  5 16  1  0  0  0  0
  6 22  1  0  0  0  0
  7 26  1  0  0  0  0
  8 17  1  0  0  0  0
  9 10  1  0  0  0  0
 11  9  1  0  0  0  0
 11 12  1  0  0  0  0
 13 18  2  0  0  0  0
 14 13  1  0  0  0  0
 15  4  1  0  0  0  0
 15 21  1  0  0  0  0
 16  1  1  0  0  0  0
 18  6  1  0  0  0  0
 18 35  1  0  0  0  0
 19 15  2  0  0  0  0
 20 19  1  0  0  0  0
 21  3  1  0  0  0  0
 22 23  1  0  0  0  0
 22  9  2  0  0  0  0
 24 29  1  0  0  0  0
 25 24  1  0  0  0  0
 26  1  1  0  0  0  0
 27 19  1  0  0  0  0
 27 24  2  0  0  0  0
 28 27  1  0  0  0  0
 29 30  1  0  0  0  0
 29 21  2  0  0  0  0
 31 34  1  0  0  0  0
 31 32  1  0  0  0  0
 33 31  1  0  0  0  0
 35 11  2  0  0  0  0
 36 35  1  0  0  0  0
M  END
$$$$
