CSD_code = NIGMAU | q = 0 | S = 0 | Stoichiometry = C17H21BrMoN4O3 | MND = 6
 OpenBabel04212202073D

 47 49  0  0  0  0  0  0  0  0999 V2000
    2.1720    6.5711   11.7768 Mo  0  0  0  0  0  0  0  0  0  0  0  0
    3.0054    4.1638   12.6825 Br  0  0  0  0  0  0  0  0  0  0  0  0
    0.1448    7.1740   14.0257 O   0  0  0  0  0  1  0  0  0  0  0  0
    3.5204    6.2531   10.2073 N   0  0  0  0  0  0  0  0  0  0  0  0
    1.0673    5.4051   10.4114 N   0  0  0  0  0  0  0  0  0  0  0  0
    4.1200    8.1570   13.5662 O   0  0  0  0  0  1  0  0  0  0  0  0
   -0.0948    2.2764   13.7854 N   0  0  0  0  0  4  0  0  0  0  0  0
   -0.1350    4.8302   10.3324 N   0  0  0  0  0  0  0  0  0  0  0  0
    4.7530    6.7509   10.1356 C   0  0  0  0  0  3  0  0  0  0  0  0
    5.0539    7.3891   10.9571 H   0  0  0  0  0  0  0  0  0  0  0  0
    3.1117    5.4555    9.1967 C   0  0  0  0  0  0  0  0  0  0  0  0
    5.6235    6.4832    9.0987 C   0  0  0  0  0  0  0  0  0  0  0  0
    6.6127    6.9131    9.1021 H   0  0  0  0  0  0  0  0  0  0  0  0
    3.4066    7.5365   12.9075 C   0  0  0  0  0  2  0  0  0  0  0  0
    0.8925    6.8788   13.1820 C   0  0  0  0  0  2  0  0  0  0  0  0
   -0.3025    3.0083   12.4994 C   0  0  0  0  0  0  0  0  0  0  0  0
    0.6949    3.1674   12.0753 H   0  0  0  0  0  0  0  0  0  0  0  0
   -0.8788    2.3591   11.8357 H   0  0  0  0  0  0  0  0  0  0  0  0
   -0.2256    4.0419    9.2252 C   0  0  0  0  0  3  0  0  0  0  0  0
   -1.1251    3.5101    8.9873 H   0  0  0  0  0  0  0  0  0  0  0  0
    1.7637    4.9815    9.3466 C   0  0  0  0  0  0  0  0  0  0  0  0
   -0.9641    4.3736   12.6417 C   0  0  0  0  0  0  0  0  0  0  0  0
   -0.3000    5.0187   13.2118 H   0  0  0  0  0  0  0  0  0  0  0  0
   -1.9306    4.3180   13.1442 H   0  0  0  0  0  0  0  0  0  0  0  0
    0.4067    3.1629   14.8529 C   0  0  0  0  0  0  0  0  0  0  0  0
   -0.3483    3.8863   15.1456 H   0  0  0  0  0  0  0  0  0  0  0  0
    1.2989    3.6836   14.4937 H   0  0  0  0  0  0  0  0  0  0  0  0
    0.6791    2.5648   15.7191 H   0  0  0  0  0  0  0  0  0  0  0  0
    3.9307    5.1329    8.1147 C   0  0  0  0  0  0  0  0  0  0  0  0
    3.5567    4.4839    7.3378 H   0  0  0  0  0  0  0  0  0  0  0  0
   -1.3505    1.6490   14.2239 C   0  0  0  0  0  0  0  0  0  0  0  0
   -1.1998    1.1380   15.1732 H   0  0  0  0  0  0  0  0  0  0  0  0
   -1.6889    0.9234   13.4858 H   0  0  0  0  0  0  0  0  0  0  0  0
   -2.1215    2.4052   14.3559 H   0  0  0  0  0  0  0  0  0  0  0  0
    5.2086    5.6502    8.0625 C   0  0  0  0  0  0  0  0  0  0  0  0
    5.8685    5.4161    7.2410 H   0  0  0  0  0  0  0  0  0  0  0  0
   -1.1904    5.0548   11.2770 C   0  0  0  0  0  0  0  0  0  0  0  0
   -2.1120    4.6889   10.8169 H   0  0  0  0  0  0  0  0  0  0  0  0
   -1.2835    6.1322   11.4516 H   0  0  0  0  0  0  0  0  0  0  0  0
    0.9707    4.1113    8.5675 C   0  0  0  0  0  0  0  0  0  0  0  0
    1.2464    3.6142    7.6607 H   0  0  0  0  0  0  0  0  0  0  0  0
    0.9260    1.2391   13.5451 C   0  0  0  0  0  0  0  0  0  0  0  0
    1.8735    1.7293   13.3048 H   0  0  0  0  0  0  0  0  0  0  0  0
    0.6281    0.6025   12.7150 H   0  0  0  0  0  0  0  0  0  0  0  0
    1.0553    0.6284   14.4354 H   0  0  0  0  0  0  0  0  0  0  0  0
    1.2441    9.3144   10.7523 O   0  0  0  0  0  1  0  0  0  0  0  0
    1.5997    8.2748   11.1004 C   0  0  0  0  0  2  0  0  0  0  0  0
  1  2  1  0  0  0  0
  1 14  1  0  0  0  0
  1 15  1  0  0  0  0
  4  1  1  0  0  0  0
  5  1  1  0  0  0  0
  7 31  1  0  0  0  0
  7 25  1  0  0  0  0
  8  5  1  0  0  0  0
  8 37  1  0  0  0  0
  9  4  1  0  0  0  0
  9 10  1  0  0  0  0
 11 21  1  0  0  0  0
 11  4  1  0  0  0  0
 12 13  1  0  0  0  0
 12  9  1  0  0  0  0
 14  6  1  0  0  0  0
 15  3  1  0  0  0  0
 16 22  1  0  0  0  0
 16  7  1  0  0  0  0
 17 16  1  0  0  0  0
 18 16  1  0  0  0  0
 19  8  1  0  0  0  0
 20 19  1  0  0  0  0
 21  5  1  0  0  0  0
 22 24  1  0  0  0  0
 22 23  1  0  0  0  0
 25 26  1  0  0  0  0
 25 28  1  0  0  0  0
 27 25  1  0  0  0  0
 29 11  2  0  0  0  0
 30 29  1  0  0  0  0
 31 34  1  0  0  0  0
 31 32  1  0  0  0  0
 33 31  1  0  0  0  0
 35 29  1  0  0  0  0
 35 12  2  0  0  0  0
 36 35  1  0  0  0  0
 37 39  1  0  0  0  0
 37 22  1  0  0  0  0
 38 37  1  0  0  0  0
 40 19  1  0  0  0  0
 40 21  2  0  0  0  0
 41 40  1  0  0  0  0
 42  7  1  0  0  0  0
 42 45  1  0  0  0  0
 43 42  1  0  0  0  0
 44 42  1  0  0  0  0
 46 47  1  0  0  0  0
 47  1  1  0  0  0  0
M  END
$$$$
