CSD_code = NIGYEH | q = 0 | S = 0 | Stoichiometry = C27H25ClNO2PPd | MND = 4
 OpenBabel04212202073D

 58 62  0  0  1  0  0  0  0  0999 V2000
    1.8177    1.1597    1.2090 Pd  0  0  1  0  0  0  0  0  0  0  0  0
    0.9839   -1.0007    1.1591 Cl  0  0  0  0  0  0  0  0  0  0  0  0
    0.1396    1.9549    0.0134 P   0  0  0  0  0  4  0  0  0  0  0  0
    6.1115    1.0218    0.1922 O   0  0  0  0  0  0  0  0  0  0  0  0
    3.9646    0.6078   -0.3009 O   0  0  0  0  0  0  0  0  0  0  0  0
    3.4174    0.4486    2.4301 N   0  0  0  0  0  4  0  0  0  0  0  0
    2.7736    2.9101    1.4842 C   0  0  0  0  0  0  0  0  0  0  0  0
    4.1066    2.6921    1.8664 C   0  0  0  0  0  0  0  0  0  0  0  0
    4.9854    3.7354    2.1117 C   0  0  0  0  0  0  0  0  0  0  0  0
    4.5382    5.0403    2.0035 C   0  0  0  0  0  0  0  0  0  0  0  0
    3.2212    5.2844    1.6526 C   0  0  0  0  0  0  0  0  0  0  0  0
    2.3522    4.2340    1.4013 C   0  0  0  0  0  0  0  0  0  0  0  0
    4.5500    1.2374    1.9526 C   0  0  2  0  0  0  0  0  0  0  0  0
    4.8225    0.8945    0.4987 C   0  0  0  0  0  0  0  0  0  0  0  0
    6.4427    0.8603   -1.1833 C   0  0  0  0  0  0  0  0  0  0  0  0
    0.6751    3.1885   -1.2135 C   0  0  0  0  0  0  0  0  0  0  0  0
   -0.0058    4.3527   -1.5390 C   0  0  0  0  0  0  0  0  0  0  0  0
    0.5243    5.2164   -2.4832 C   0  0  0  0  0  0  0  0  0  0  0  0
    1.7251    4.9202   -3.1052 C   0  0  0  0  0  0  0  0  0  0  0  0
    2.4095    3.7590   -2.7788 C   0  0  0  0  0  0  0  0  0  0  0  0
    1.8907    2.8988   -1.8305 C   0  0  0  0  0  0  0  0  0  0  0  0
   -1.1333    2.7334    1.0513 C   0  0  0  0  0  0  0  0  0  0  0  0
   -2.3708    3.1274    0.5509 C   0  0  0  0  0  0  0  0  0  0  0  0
   -3.3022    3.7033    1.3960 C   0  0  0  0  0  0  0  0  0  0  0  0
   -3.0106    3.8761    2.7401 C   0  0  0  0  0  0  0  0  0  0  0  0
   -1.7897    3.4605    3.2473 C   0  0  0  0  0  0  0  0  0  0  0  0
   -0.8533    2.8880    2.4055 C   0  0  0  0  0  0  0  0  0  0  0  0
   -0.8526    0.7961   -0.9762 C   0  0  0  0  0  0  0  0  0  0  0  0
   -0.7148    0.6779   -2.3539 C   0  0  0  0  0  0  0  0  0  0  0  0
   -1.4594   -0.2652   -3.0414 C   0  0  0  0  0  0  0  0  0  0  0  0
   -2.3321   -1.0964   -2.3602 C   0  0  0  0  0  0  0  0  0  0  0  0
   -2.4635   -0.9872   -0.9844 C   0  0  0  0  0  0  0  0  0  0  0  0
   -1.7264   -0.0466   -0.2924 C   0  0  0  0  0  0  0  0  0  0  0  0
    3.2431    0.6090    3.4230 H   0  0  0  0  0  0  0  0  0  0  0  0
    3.5259   -0.5556    2.2670 H   0  0  0  0  0  0  0  0  0  0  0  0
    6.0099    3.5276    2.3897 H   0  0  0  0  0  0  0  0  0  0  0  0
    5.2141    5.8607    2.1950 H   0  0  0  0  0  0  0  0  0  0  0  0
    2.8678    6.3026    1.5699 H   0  0  0  0  0  0  0  0  0  0  0  0
    1.3276    4.4586    1.1259 H   0  0  0  0  0  0  0  0  0  0  0  0
    5.4690    1.1089    2.5426 H   0  0  0  0  0  0  0  0  0  0  0  0
    6.0489   -0.0860   -1.5584 H   0  0  0  0  0  0  0  0  0  0  0  0
    6.0180    1.6788   -1.7673 H   0  0  0  0  0  0  0  0  0  0  0  0
    7.5279    0.8754   -1.2377 H   0  0  0  0  0  0  0  0  0  0  0  0
   -0.9371    4.5947   -1.0475 H   0  0  0  0  0  0  0  0  0  0  0  0
   -0.0020    6.1266   -2.7320 H   0  0  0  0  0  0  0  0  0  0  0  0
    2.1325    5.5986   -3.8405 H   0  0  0  0  0  0  0  0  0  0  0  0
    3.3491    3.5330   -3.2619 H   0  0  0  0  0  0  0  0  0  0  0  0
    2.4167    1.9914   -1.5419 H   0  0  0  0  0  0  0  0  0  0  0  0
   -2.6059    2.9635   -0.4922 H   0  0  0  0  0  0  0  0  0  0  0  0
   -4.2620    4.0126    1.0081 H   0  0  0  0  0  0  0  0  0  0  0  0
   -3.7429    4.3242    3.3956 H   0  0  0  0  0  0  0  0  0  0  0  0
   -1.5733    3.5792    4.2988 H   0  0  0  0  0  0  0  0  0  0  0  0
    0.1100    2.5366    2.7841 H   0  0  0  0  0  0  0  0  0  0  0  0
   -0.0261    1.3194   -2.8862 H   0  0  0  0  0  0  0  0  0  0  0  0
   -1.3513   -0.3553   -4.1128 H   0  0  0  0  0  0  0  0  0  0  0  0
   -2.9051   -1.8360   -2.9003 H   0  0  0  0  0  0  0  0  0  0  0  0
   -3.1342   -1.6442   -0.4508 H   0  0  0  0  0  0  0  0  0  0  0  0
   -1.8064    0.0325    0.7836 H   0  0  0  0  0  0  0  0  0  0  0  0
  1  2  1  6  0  0  0
  1  7  1  0  0  0  0
  1  6  1  0  0  0  0
  3 22  1  0  0  0  0
  3  1  1  0  0  0  0
  4 14  1  0  0  0  0
  5 14  2  0  0  0  0
  6 34  1  0  0  0  0
  7  8  1  0  0  0  0
  8 13  1  0  0  0  0
  8  9  2  0  0  0  0
  9 36  1  0  0  0  0
 10  9  1  0  0  0  0
 10 37  1  0  0  0  0
 11 10  2  0  0  0  0
 12  7  2  0  0  0  0
 12 11  1  0  0  0  0
 13  6  1  0  0  0  0
 13 40  1  1  0  0  0
 14 13  1  0  0  0  0
 15  4  1  0  0  0  0
 16  3  1  0  0  0  0
 17 16  1  0  0  0  0
 17 44  1  0  0  0  0
 18 17  2  0  0  0  0
 19 20  2  0  0  0  0
 19 18  1  0  0  0  0
 20 21  1  0  0  0  0
 21 48  1  0  0  0  0
 21 16  2  0  0  0  0
 22 27  1  0  0  0  0
 23 22  2  0  0  0  0
 23 24  1  0  0  0  0
 24 25  2  0  0  0  0
 25 26  1  0  0  0  0
 25 51  1  0  0  0  0
 26 52  1  0  0  0  0
 27 53  1  0  0  0  0
 27 26  2  0  0  0  0
 28 33  1  0  0  0  0
 28  3  1  0  0  0  0
 29 28  2  0  0  0  0
 30 31  2  0  0  0  0
 30 29  1  0  0  0  0
 31 32  1  0  0  0  0
 32 57  1  0  0  0  0
 32 33  2  0  0  0  0
 33 58  1  0  0  0  0
 35  6  1  0  0  0  0
 38 11  1  0  0  0  0
 39 12  1  0  0  0  0
 41 15  1  0  0  0  0
 42 15  1  0  0  0  0
 43 15  1  0  0  0  0
 45 18  1  0  0  0  0
 46 19  1  0  0  0  0
 47 20  1  0  0  0  0
 49 23  1  0  0  0  0
 50 24  1  0  0  0  0
 54 29  1  0  0  0  0
 55 30  1  0  0  0  0
 56 31  1  0  0  0  0
M  END
$$$$
