CSD_code = NIGYEK | q = 0 | S = 0 | Stoichiometry = C27H27ClNO2PPd | MND = 4
 OpenBabel04212202073D

 60 64  0  0  1  0  0  0  0  0999 V2000
    0.1793    6.6787   10.9314 Pd  0  0  1  0  0  0  0  0  0  0  0  0
    0.2683    5.5261   12.8770 Cl  0  0  0  0  0  0  0  0  0  0  0  0
    2.2579    7.5561   11.1876 N   0  0  0  0  0  0  0  0  0  0  0  0
    3.9715    7.1177    7.2567 O   0  0  0  0  0  0  0  0  0  0  0  0
    0.6163    4.4991    9.2058 O   0  0  0  0  0  0  0  0  0  0  0  0
    0.2670    7.9027    9.0780 P   0  0  2  0  0  4  0  0  0  0  0  0
    0.3440    7.1070    7.4474 C   0  0  0  0  0  0  0  0  0  0  0  0
    1.3799    6.1927    7.2221 C   0  0  0  0  0  0  0  0  0  0  0  0
    1.4811    5.5707    5.9862 C   0  0  0  0  0  0  0  0  0  0  0  0
    2.2904    4.8770    5.8109 H   0  0  0  0  0  0  0  0  0  0  0  0
    0.5456    5.8160    4.9961 C   0  0  0  0  0  0  0  0  0  0  0  0
    0.6341    5.3250    4.0381 H   0  0  0  0  0  0  0  0  0  0  0  0
   -0.5184    6.6662    5.2449 C   0  0  0  0  0  0  0  0  0  0  0  0
   -1.2697    6.8319    4.4867 H   0  0  0  0  0  0  0  0  0  0  0  0
   -0.6219    7.3055    6.4671 C   0  0  0  0  0  0  0  0  0  0  0  0
   -1.4589    7.9602    6.6639 H   0  0  0  0  0  0  0  0  0  0  0  0
    2.3248    5.8296    8.3050 C   0  0  0  0  0  0  0  0  0  0  0  0
    3.6535    6.2614    8.2792 C   0  0  0  0  0  0  0  0  0  0  0  0
    4.5446    5.8400    9.2585 C   0  0  0  0  0  0  0  0  0  0  0  0
    5.5735    6.1611    9.2518 H   0  0  0  0  0  0  0  0  0  0  0  0
    4.0999    4.9997   10.2641 C   0  0  0  0  0  0  0  0  0  0  0  0
    4.7933    4.6819   11.0284 H   0  0  0  0  0  0  0  0  0  0  0  0
    2.7935    4.5506   10.3073 C   0  0  0  0  0  0  0  0  0  0  0  0
    2.4791    3.9015   11.1088 H   0  0  0  0  0  0  0  0  0  0  0  0
    1.8942    4.9566    9.3197 C   0  0  0  0  0  0  0  0  0  0  0  0
    5.3177    7.4886    7.0912 C   0  0  0  0  0  0  0  0  0  0  0  0
    5.6866    8.0681    7.9442 H   0  0  0  0  0  0  0  0  0  0  0  0
    5.3435    8.1090    6.1963 H   0  0  0  0  0  0  0  0  0  0  0  0
    5.9600    6.6152    6.9437 H   0  0  0  0  0  0  0  0  0  0  0  0
    0.2390    3.3992   10.0212 C   0  0  0  0  0  0  0  0  0  0  0  0
    0.9280    2.5599    9.8818 H   0  0  0  0  0  0  0  0  0  0  0  0
   -0.7553    3.1161    9.6794 H   0  0  0  0  0  0  0  0  0  0  0  0
    0.1985    3.6843   11.0797 H   0  0  0  0  0  0  0  0  0  0  0  0
    1.8834    8.8356    9.1340 C   0  0  0  0  0  0  0  0  0  0  0  0
    2.4294    8.7037    8.1946 H   0  0  0  0  0  0  0  0  0  0  0  0
    1.6515    9.9023    9.2381 H   0  0  0  0  0  0  0  0  0  0  0  0
    2.7416    8.4169   10.2934 C   0  0  1  0  0  3  0  0  0  0  0  0
    4.0181    8.9570   10.4301 C   0  0  0  0  0  0  0  0  0  0  0  0
    4.3786    9.6624    9.6957 H   0  0  0  0  0  0  0  0  0  0  0  0
    4.8030    8.5891   11.5072 C   0  0  0  0  0  0  0  0  0  0  0  0
    5.7945    9.0006   11.6295 H   0  0  0  0  0  0  0  0  0  0  0  0
    4.2880    7.6880   12.4256 C   0  0  0  0  0  0  0  0  0  0  0  0
    4.8613    7.3731   13.2825 H   0  0  0  0  0  0  0  0  0  0  0  0
    3.0102    7.1979   12.2231 C   0  0  0  0  0  0  0  0  0  0  0  0
    2.5552    6.4948   12.9140 H   0  0  0  0  0  0  0  0  0  0  0  0
   -0.8613    9.3171    8.8865 C   0  0  0  0  0  0  0  0  0  0  0  0
   -1.7297    9.5763    9.9410 C   0  0  0  0  0  0  0  0  0  0  0  0
   -1.7260    8.9054   10.7969 H   0  0  0  0  0  0  0  0  0  0  0  0
   -2.5686   10.6762    9.8985 C   0  0  0  0  0  0  0  0  0  0  0  0
   -3.2456   10.8729   10.7166 H   0  0  0  0  0  0  0  0  0  0  0  0
   -2.5363   11.5257    8.8051 C   0  0  0  0  0  0  0  0  0  0  0  0
   -3.1941   12.3816    8.7656 H   0  0  0  0  0  0  0  0  0  0  0  0
   -1.6531   11.2862    7.7631 C   0  0  0  0  0  0  0  0  0  0  0  0
   -1.6198   11.9594    6.9186 H   0  0  0  0  0  0  0  0  0  0  0  0
   -0.8114   10.1902    7.8028 C   0  0  0  0  0  0  0  0  0  0  0  0
   -0.1133   10.0093    6.9965 H   0  0  0  0  0  0  0  0  0  0  0  0
   -1.7923    6.1085   10.7632 C   0  0  0  0  0  0  0  0  0  0  0  0
   -2.1856    6.2936    9.7566 H   0  0  0  0  0  0  0  0  0  0  0  0
   -2.3740    6.6833   11.4970 H   0  0  0  0  0  0  0  0  0  0  0  0
   -1.8994    5.0479   11.0019 H   0  0  0  0  0  0  0  0  0  0  0  0
  1  3  1  0  0  0  0
  1  2  1  6  0  0  0
  3 44  1  0  0  0  0
  4 18  1  0  0  0  0
  5 25  1  0  0  0  0
  5 30  1  0  0  0  0
  6  7  1  6  0  0  0
  6 34  1  0  0  0  0
  6  1  1  0  0  0  0
  8  7  1  0  0  0  0
  8 17  1  0  0  0  0
  9  8  2  0  0  0  0
 10  9  1  0  0  0  0
 11 13  2  0  0  0  0
 11  9  1  0  0  0  0
 12 11  1  0  0  0  0
 13 15  1  0  0  0  0
 14 13  1  0  0  0  0
 15 16  1  0  0  0  0
 15  7  2  0  0  0  0
 17 25  1  0  0  0  0
 18 17  2  0  0  0  0
 18 19  1  0  0  0  0
 19 21  2  0  0  0  0
 20 19  1  0  0  0  0
 21 23  1  0  0  0  0
 21 22  1  0  0  0  0
 23 24  1  0  0  0  0
 25 23  2  0  0  0  0
 26  4  1  0  0  0  0
 26 27  1  0  0  0  0
 28 26  1  0  0  0  0
 29 26  1  0  0  0  0
 30 33  1  0  0  0  0
 31 30  1  0  0  0  0
 32 30  1  0  0  0  0
 34 36  1  0  0  0  0
 34 37  1  0  0  0  0
 35 34  1  0  0  0  0
 37 38  1  1  0  0  0
 37  3  1  0  0  0  0
 38 40  2  0  0  0  0
 39 38  1  0  0  0  0
 40 41  1  0  0  0  0
 40 42  1  0  0  0  0
 42 43  1  0  0  0  0
 44 42  2  0  0  0  0
 44 45  1  0  0  0  0
 46  6  1  0  0  0  0
 46 47  1  0  0  0  0
 47 48  1  0  0  0  0
 49 47  2  0  0  0  0
 49 50  1  0  0  0  0
 51 49  1  0  0  0  0
 52 51  1  0  0  0  0
 53 55  1  0  0  0  0
 53 51  2  0  0  0  0
 54 53  1  0  0  0  0
 55 46  2  0  0  0  0
 56 55  1  0  0  0  0
 57  1  1  0  0  0  0
 57 60  1  0  0  0  0
 57 59  1  0  0  0  0
 58 57  1  0  0  0  0
M  END
$$$$
