CSD_code = NIHTUT | q = 0 | S = 0 | Stoichiometry = C6H8I2N4S2Zn | MND = 4
 OpenBabel04212202073D

 23 24  0  0  1  0  0  0  0  0999 V2000
   -0.8089    2.5491    4.0362 Zn  0  0  0  0  0  0  0  0  0  0  0  0
   -0.0163    3.3434    1.7240 I   0  0  0  0  0  0  0  0  0  0  0  0
   -0.1744    0.5793    5.4411 I   0  0  0  0  0  0  0  0  0  0  0  0
   -0.1985    6.4323    6.6537 S   0  0  0  0  0  0  0  0  0  0  0  0
   -5.3306    3.7014    4.0344 S   0  0  0  0  0  0  0  0  0  0  0  0
    0.7379    5.8071    4.2148 N   0  0  0  0  0  0  0  0  0  0  0  0
   -3.1687    4.6974    2.7740 N   0  0  0  0  0  0  0  0  0  0  0  0
   -0.6389    4.2655    5.3344 N   0  0  0  0  0  0  0  0  0  0  0  0
   -2.9504    2.7268    4.0392 N   0  0  0  0  0  0  0  0  0  0  0  0
    0.0027    5.4030    5.2531 C   0  0  2  0  0  3  0  0  0  0  0  0
   -3.6531    3.7122    3.5439 C   0  0  1  0  0  3  0  0  0  0  0  0
   -1.3149    4.1591    6.5212 C   0  0  0  0  0  0  0  0  0  0  0  0
   -3.7178    1.9106    4.8264 C   0  0  0  0  0  0  0  0  0  0  0  0
   -1.2060    5.2089    7.3543 C   0  0  0  0  0  0  0  0  0  0  0  0
   -5.0095    2.2660    4.9499 C   0  0  0  0  0  0  0  0  0  0  0  0
    0.8796    5.2012    3.4171 H   0  0  0  0  0  0  0  0  0  0  0  0
   -2.2850    4.5472    2.2990 H   0  0  0  0  0  0  0  0  0  0  0  0
    1.2508    6.6676    4.2671 H   0  0  0  0  0  0  0  0  0  0  0  0
   -3.8235    5.3144    2.3252 H   0  0  0  0  0  0  0  0  0  0  0  0
   -1.8760    3.2657    6.7267 H   0  0  0  0  0  0  0  0  0  0  0  0
   -3.2689    1.0488    5.2865 H   0  0  0  0  0  0  0  0  0  0  0  0
   -1.6354    5.3467    8.3239 H   0  0  0  0  0  0  0  0  0  0  0  0
   -5.7883    1.7899    5.5071 H   0  0  0  0  0  0  0  0  0  0  0  0
  1  9  1  0  0  0  0
  1  8  1  0  0  0  0
  1  3  1  0  0  0  0
  2  1  1  0  0  0  0
  4 14  1  0  0  0  0
  5 15  1  0  0  0  0
  6 18  1  0  0  0  0
  8 12  1  0  0  0  0
  9 13  1  0  0  0  0
 10  6  1  6  0  0  0
 10  8  1  0  0  0  0
 10  4  1  0  0  0  0
 11  7  1  1  0  0  0
 11  5  1  0  0  0  0
 11  9  1  0  0  0  0
 12 20  1  0  0  0  0
 12 14  2  0  0  0  0
 13 15  2  0  0  0  0
 13 21  1  0  0  0  0
 14 22  1  0  0  0  0
 15 23  1  0  0  0  0
 16  6  1  0  0  0  0
 17  7  1  0  0  0  0
 19  7  1  0  0  0  0
M  END
$$$$
