CSD_code = NIHVAB | q = 0 | S = 0 | Stoichiometry = C14H12Br2N4S2Zn | MND = 4
 OpenBabel04212202073D

 35 38  0  0  1  0  0  0  0  0999 V2000
    0.0018    3.1639   -0.0567 Zn  0  0  0  0  0  0  0  0  0  0  0  0
   -0.5284    3.3550   -2.3685 Br  0  0  0  0  0  0  0  0  0  0  0  0
   -1.5274    3.0034    1.7595 Br  0  0  0  0  0  0  0  0  0  0  0  0
    1.8721    7.3900    0.6677 S   0  0  0  0  0  0  0  0  0  0  0  0
    1.9090   -1.1037    0.1479 S   0  0  0  0  0  0  0  0  0  0  0  0
    0.3408    6.3699   -1.2786 N   0  0  0  0  0  0  0  0  0  0  0  0
   -0.3068   -0.0330    1.2048 N   0  0  0  0  0  0  0  0  0  0  0  0
    1.1199    4.9187    0.3858 N   0  0  0  0  0  0  0  0  0  0  0  0
    1.1601    1.3828    0.0529 N   0  0  0  0  0  0  0  0  0  0  0  0
    1.0182    6.0969   -0.1699 C   0  0  2  0  0  3  0  0  0  0  0  0
    0.7977    0.2139    0.5109 C   0  0  1  0  0  3  0  0  0  0  0  0
    1.8958    4.9517    1.5258 C   0  0  0  0  0  0  0  0  0  0  0  0
    2.3622    1.3224   -0.6211 C   0  0  0  0  0  0  0  0  0  0  0  0
    2.4009    6.2203    1.8536 C   0  0  0  0  0  0  0  0  0  0  0  0
    2.9344    0.0416   -0.6835 C   0  0  0  0  0  0  0  0  0  0  0  0
    3.1926    6.4244    2.9669 C   0  0  0  0  0  0  0  0  0  0  0  0
    4.1349   -0.1902   -1.3262 C   0  0  0  0  0  0  0  0  0  0  0  0
    3.4860    5.3340    3.7653 C   0  0  0  0  0  0  0  0  0  0  0  0
    4.7756    0.8847   -1.9150 C   0  0  0  0  0  0  0  0  0  0  0  0
    2.9972    4.0716    3.4506 C   0  0  0  0  0  0  0  0  0  0  0  0
    4.2241    2.1590   -1.8563 C   0  0  0  0  0  0  0  0  0  0  0  0
    2.2057    3.8691    2.3373 C   0  0  0  0  0  0  0  0  0  0  0  0
    3.0239    2.3892   -1.2133 C   0  0  0  0  0  0  0  0  0  0  0  0
   -0.0877    5.6254   -1.8236 H   0  0  0  0  0  0  0  0  0  0  0  0
    0.3318    7.3052   -1.6434 H   0  0  0  0  0  0  0  0  0  0  0  0
   -0.9212    0.7247    1.4935 H   0  0  0  0  0  0  0  0  0  0  0  0
   -0.4981   -0.9637    1.5290 H   0  0  0  0  0  0  0  0  0  0  0  0
    3.5659    7.4088    3.2001 H   0  0  0  0  0  0  0  0  0  0  0  0
    4.5527   -1.1835   -1.3641 H   0  0  0  0  0  0  0  0  0  0  0  0
    4.1006    5.4677    4.6417 H   0  0  0  0  0  0  0  0  0  0  0  0
    5.7132    0.7293   -2.4253 H   0  0  0  0  0  0  0  0  0  0  0  0
    3.2368    3.2341    4.0874 H   0  0  0  0  0  0  0  0  0  0  0  0
    4.7395    2.9841   -2.3230 H   0  0  0  0  0  0  0  0  0  0  0  0
    1.8281    2.8873    2.0993 H   0  0  0  0  0  0  0  0  0  0  0  0
    2.6006    3.3804   -1.1721 H   0  0  0  0  0  0  0  0  0  0  0  0
  1  9  1  0  0  0  0
  1  8  1  0  0  0  0
  1  3  1  0  0  0  0
  2  1  1  0  0  0  0
  4 14  1  0  0  0  0
  5 11  1  0  0  0  0
  7 26  1  0  0  0  0
  7 27  1  0  0  0  0
  8 12  1  0  0  0  0
  9 11  1  0  0  0  0
 10  6  1  1  0  0  0
 10  8  1  0  0  0  0
 10  4  1  0  0  0  0
 11  7  1  1  0  0  0
 12 14  2  0  0  0  0
 12 22  1  0  0  0  0
 13  9  1  0  0  0  0
 14 16  1  0  0  0  0
 15 13  1  0  0  0  0
 15  5  1  0  0  0  0
 16 28  1  0  0  0  0
 16 18  2  0  0  0  0
 17 15  2  0  0  0  0
 18 30  1  0  0  0  0
 19 21  2  0  0  0  0
 19 17  1  0  0  0  0
 20 18  1  0  0  0  0
 20 32  1  0  0  0  0
 21 23  1  0  0  0  0
 22 20  2  0  0  0  0
 23 35  1  0  0  0  0
 23 13  2  0  0  0  0
 24  6  1  0  0  0  0
 25  6  1  0  0  0  0
 29 17  1  0  0  0  0
 31 19  1  0  0  0  0
 33 21  1  0  0  0  0
 34 22  1  0  0  0  0
M  END
$$$$
