CSD_code = NIHXUY | q = 1 | S = 0 | Stoichiometry = C35H25ClN7Ru(1+) | MND = 6
 OpenBabel04212202073D

 69 78  0  0  1  0  0  0  0  0999 V2000
    5.6551   11.7842    5.0284 Ru  0  0  0  0  0  0  0  0  0  0  0  0
    4.5179    9.9393    5.8921 Cl  0  0  0  0  0  0  0  0  0  0  0  0
    3.8523   12.6422    4.7373 N   0  0  0  0  0  0  0  0  0  0  0  0
    5.4241   12.5502    6.7420 N   0  0  0  0  0  0  0  0  0  0  0  0
    7.3390   11.0993    5.9061 N   0  0  0  0  0  0  0  0  0  0  0  0
    5.9097   10.9759    3.2807 N   0  0  0  0  0  0  0  0  0  0  0  0
    6.5868   13.3085    4.0467 N   0  0  0  0  0  0  0  0  0  0  0  0
    5.8213    9.7048    3.0220 N   0  0  0  0  0  2  0  0  0  0  0  0
    6.3546   11.4055    1.0162 N   0  0  0  0  0  0  0  0  0  0  0  0
    3.0900   12.6269    3.6474 C   0  0  0  0  0  3  0  0  0  0  0  0
    3.5091   12.1485    2.7694 H   0  0  0  0  0  0  0  0  0  0  0  0
    1.8211   13.1744    3.6058 C   0  0  0  0  0  0  0  0  0  0  0  0
    1.2423   13.1256    2.6981 H   0  0  0  0  0  0  0  0  0  0  0  0
    1.3125   13.7709    4.7521 C   0  0  0  0  0  0  0  0  0  0  0  0
    0.3237   14.2009    4.7581 H   0  0  0  0  0  0  0  0  0  0  0  0
    2.0972   13.7956    5.8895 C   0  0  0  0  0  0  0  0  0  0  0  0
    1.7288   14.2461    6.7962 H   0  0  0  0  0  0  0  0  0  0  0  0
    3.3664   13.2203    5.8646 C   0  0  0  0  0  0  0  0  0  0  0  0
    4.2601   13.1614    7.0214 C   0  0  1  0  0  3  0  0  0  0  0  0
    3.9974   13.6160    8.3106 C   0  0  0  0  0  0  0  0  0  0  0  0
    3.0677   14.1060    8.5461 H   0  0  0  0  0  0  0  0  0  0  0  0
    4.9468   13.4059    9.3006 C   0  0  0  0  0  0  0  0  0  0  0  0
    4.7629   13.7511   10.3053 H   0  0  0  0  0  0  0  0  0  0  0  0
    6.1151   12.7179    9.0065 C   0  0  0  0  0  0  0  0  0  0  0  0
    6.8324   12.5097    9.7824 H   0  0  0  0  0  0  0  0  0  0  0  0
    6.3266   12.2827    7.7010 C   0  0  0  0  0  0  0  0  0  0  0  0
    7.4342   11.4638    7.2100 C   0  0  1  0  0  3  0  0  0  0  0  0
    8.4983   11.0377    8.0030 C   0  0  0  0  0  0  0  0  0  0  0  0
    8.5562   11.3438    9.0345 H   0  0  0  0  0  0  0  0  0  0  0  0
    9.4660   10.2123    7.4626 C   0  0  0  0  0  0  0  0  0  0  0  0
   10.2917    9.8674    8.0642 H   0  0  0  0  0  0  0  0  0  0  0  0
    9.3439    9.8271    6.1340 C   0  0  0  0  0  0  0  0  0  0  0  0
   10.0651    9.1710    5.6751 H   0  0  0  0  0  0  0  0  0  0  0  0
    8.2696   10.2946    5.4000 C   0  0  0  0  0  0  0  0  0  0  0  0
    8.1440    9.9986    4.3653 H   0  0  0  0  0  0  0  0  0  0  0  0
    6.7630   13.0997    2.7209 C   0  0  2  0  0  3  0  0  0  0  0  0
    7.2827   14.0739    1.8723 C   0  0  0  0  0  0  0  0  0  0  0  0
    7.3858   13.8451    0.8243 H   0  0  0  0  0  0  0  0  0  0  0  0
    7.6452   15.2960    2.4036 C   0  0  0  0  0  0  0  0  0  0  0  0
    8.0522   16.0724    1.7760 H   0  0  0  0  0  0  0  0  0  0  0  0
    7.4758   15.5033    3.7697 C   0  0  0  0  0  0  0  0  0  0  0  0
    7.7501   16.4406    4.2255 H   0  0  0  0  0  0  0  0  0  0  0  0
    6.9447   14.4916    4.5467 C   0  0  0  0  0  0  0  0  0  0  0  0
    6.7983   14.6300    5.6111 H   0  0  0  0  0  0  0  0  0  0  0  0
    6.3575   11.7804    2.2817 C   0  0  0  0  0  0  0  0  0  0  0  0
    5.9358    9.2256    1.7982 C   0  0  0  0  0  0  0  0  0  0  0  0
    6.0063   10.1632    0.7133 C   0  0  0  0  0  0  0  0  0  0  0  0
    6.0087    7.7772    1.6727 C   0  0  0  0  0  0  0  0  0  0  0  0
    5.3932    6.9854    2.6457 C   0  0  0  0  0  0  0  0  0  0  0  0
    4.8674    7.4675    3.4552 H   0  0  0  0  0  0  0  0  0  0  0  0
    5.4508    5.6088    2.5531 C   0  0  0  0  0  0  0  0  0  0  0  0
    4.9631    5.0012    3.2997 H   0  0  0  0  0  0  0  0  0  0  0  0
    6.1336    5.0090    1.5059 C   0  0  0  0  0  0  0  0  0  0  0  0
    6.1756    3.9330    1.4339 H   0  0  0  0  0  0  0  0  0  0  0  0
    6.7712    5.7909    0.5542 C   0  0  0  0  0  0  0  0  0  0  0  0
    7.3185    5.3242   -0.2505 H   0  0  0  0  0  0  0  0  0  0  0  0
    6.7116    7.1684    0.6310 C   0  0  0  0  0  0  0  0  0  0  0  0
    7.2260    7.7728   -0.1014 H   0  0  0  0  0  0  0  0  0  0  0  0
    5.7024    9.8578   -0.6750 C   0  0  0  0  0  0  0  0  0  0  0  0
    4.7521    8.8895   -1.0077 C   0  0  0  0  0  0  0  0  0  0  0  0
    4.2266    8.3588   -0.2278 H   0  0  0  0  0  0  0  0  0  0  0  0
    4.4664    8.6318   -2.3338 C   0  0  0  0  0  0  0  0  0  0  0  0
    3.7277    7.8864   -2.5854 H   0  0  0  0  0  0  0  0  0  0  0  0
    5.1231    9.3257   -3.3390 C   0  0  0  0  0  0  0  0  0  0  0  0
    4.9029    9.1123   -4.3737 H   0  0  0  0  0  0  0  0  0  0  0  0
    6.0572   10.2975   -3.0148 C   0  0  0  0  0  0  0  0  0  0  0  0
    6.5644   10.8420   -3.7966 H   0  0  0  0  0  0  0  0  0  0  0  0
    6.3401   10.5718   -1.6916 C   0  0  0  0  0  0  0  0  0  0  0  0
    7.0684   11.3218   -1.4240 H   0  0  0  0  0  0  0  0  0  0  0  0
  1  2  1  0  0  0  0
  1  5  1  0  0  0  0
  1  4  1  0  0  0  0
  3  1  1  0  0  0  0
  3 18  1  0  0  0  0
  4 19  1  0  0  0  0
  4 26  1  0  0  0  0
  5 27  1  0  0  0  0
  6  1  1  0  0  0  0
  7 43  1  0  0  0  0
  7  1  1  0  0  0  0
  8  6  1  0  0  0  0
  9 45  2  0  0  0  0
 10  3  1  0  0  0  0
 11 10  1  0  0  0  0
 12 10  1  0  0  0  0
 12 14  2  0  0  0  0
 13 12  1  0  0  0  0
 14 15  1  0  0  0  0
 14 16  1  0  0  0  0
 16 17  1  0  0  0  0
 18 16  2  0  0  0  0
 19 18  1  1  0  0  0
 19 20  1  0  0  0  0
 20 21  1  0  0  0  0
 20 22  2  0  0  0  0
 22 23  1  0  0  0  0
 24 22  1  0  0  0  0
 24 25  1  0  0  0  0
 26 24  2  0  0  0  0
 27 26  1  1  0  0  0
 27 28  1  0  0  0  0
 28 29  1  0  0  0  0
 30 28  2  0  0  0  0
 30 31  1  0  0  0  0
 32 30  1  0  0  0  0
 33 32  1  0  0  0  0
 34  5  1  0  0  0  0
 34 32  2  0  0  0  0
 35 34  1  0  0  0  0
 36 37  1  6  0  0  0
 36  7  1  0  0  0  0
 37 39  2  0  0  0  0
 38 37  1  0  0  0  0
 39 41  1  0  0  0  0
 40 39  1  0  0  0  0
 41 42  1  0  0  0  0
 41 43  2  0  0  0  0
 43 44  1  0  0  0  0
 45 36  1  0  0  0  0
 45  6  1  0  0  0  0
 46  8  1  0  0  0  0
 47  9  1  0  0  0  0
 47 46  2  0  0  0  0
 48 46  1  0  0  0  0
 48 49  1  0  0  0  0
 49 50  1  0  0  0  0
 51 49  2  0  0  0  0
 51 52  1  0  0  0  0
 53 51  1  0  0  0  0
 54 53  1  0  0  0  0
 55 57  1  0  0  0  0
 55 53  2  0  0  0  0
 56 55  1  0  0  0  0
 57 48  2  0  0  0  0
 58 57  1  0  0  0  0
 59 47  1  0  0  0  0
 60 59  1  0  0  0  0
 60 61  1  0  0  0  0
 62 60  2  0  0  0  0
 63 62  1  0  0  0  0
 64 66  2  0  0  0  0
 64 62  1  0  0  0  0
 65 64  1  0  0  0  0
 66 68  1  0  0  0  0
 67 66  1  0  0  0  0
 68 69  1  0  0  0  0
 68 59  2  0  0  0  0
M  END
$$$$
