CSD_code = NIHYOV | q = 0 | S = 0 | Stoichiometry = C28H22BrCuN6 | MND = 4
 OpenBabel04212202073D

 58 65  0  0  1  0  0  0  0  0999 V2000
    7.8801    8.6293   13.8155 C   0  0  2  0  0  0  0  0  0  0  0  0
    8.9755    8.7096   13.7895 H   0  0  0  0  0  0  0  0  0  0  0  0
    8.2603    8.0656   16.2379 C   0  0  0  0  0  3  0  0  0  0  0  0
    9.3185    8.2309   16.2033 H   0  0  0  0  0  0  0  0  0  0  0  0
    7.4304    7.7189   17.2669 C   0  0  0  0  0  0  0  0  0  0  0  0
    7.7027    7.5249   18.2831 H   0  0  0  0  0  0  0  0  0  0  0  0
    6.1353    7.6399   16.6985 C   0  0  0  0  0  0  0  0  0  0  0  0
    4.8892    7.2818   17.3568 C   0  0  0  0  0  0  0  0  0  0  0  0
    4.6991    7.5603   18.7089 C   0  0  0  0  0  0  0  0  0  0  0  0
    5.4786    8.0539   19.2713 H   0  0  0  0  0  0  0  0  0  0  0  0
    3.5043    7.2347   19.3211 C   0  0  0  0  0  0  0  0  0  0  0  0
    3.3602    7.4603   20.3678 H   0  0  0  0  0  0  0  0  0  0  0  0
    2.4893    6.6335   18.5942 C   0  0  0  0  0  0  0  0  0  0  0  0
    1.5529    6.3926   19.0745 H   0  0  0  0  0  0  0  0  0  0  0  0
    2.6752    6.3451   17.2527 C   0  0  0  0  0  0  0  0  0  0  0  0
    1.8843    5.8896   16.6784 H   0  0  0  0  0  0  0  0  0  0  0  0
    3.8711    6.6594   16.6382 C   0  0  0  0  0  0  0  0  0  0  0  0
    4.0297    6.4248   15.5979 H   0  0  0  0  0  0  0  0  0  0  0  0
    7.8826   11.1492   13.7625 C   0  0  0  0  0  3  0  0  0  0  0  0
    8.9075   11.2443   14.0601 H   0  0  0  0  0  0  0  0  0  0  0  0
    6.9208   12.0850   13.5050 C   0  0  0  0  0  0  0  0  0  0  0  0
    7.0296   13.1486   13.5421 H   0  0  0  0  0  0  0  0  0  0  0  0
    5.7606   11.3539   13.1492 C   0  0  0  0  0  0  0  0  0  0  0  0
    4.4615   11.8628   12.7472 C   0  0  0  0  0  0  0  0  0  0  0  0
    4.0528   13.1417   13.1233 C   0  0  0  0  0  0  0  0  0  0  0  0
    4.7026   13.7585   13.7268 H   0  0  0  0  0  0  0  0  0  0  0  0
    2.8077   13.6095   12.7522 C   0  0  0  0  0  0  0  0  0  0  0  0
    2.4950   14.5982   13.0555 H   0  0  0  0  0  0  0  0  0  0  0  0
    1.9561   12.8100   12.0070 C   0  0  0  0  0  0  0  0  0  0  0  0
    0.9786   13.1752   11.7300 H   0  0  0  0  0  0  0  0  0  0  0  0
    2.3566   11.5408   11.6248 C   0  0  0  0  0  0  0  0  0  0  0  0
    1.6918   10.9094   11.0566 H   0  0  0  0  0  0  0  0  0  0  0  0
    3.6028   11.0691   11.9867 C   0  0  0  0  0  0  0  0  0  0  0  0
    3.9221   10.0827   11.6851 H   0  0  0  0  0  0  0  0  0  0  0  0
    8.1716    7.2317   11.7575 C   0  0  0  0  0  3  0  0  0  0  0  0
    9.2153    7.4492   11.6504 H   0  0  0  0  0  0  0  0  0  0  0  0
    7.3164    6.4968   10.9864 C   0  0  0  0  0  0  0  0  0  0  0  0
    7.5559    5.9624   10.0914 H   0  0  0  0  0  0  0  0  0  0  0  0
    6.0586    6.5726   11.6364 C   0  0  0  0  0  0  0  0  0  0  0  0
    4.7979    5.9712   11.2321 C   0  0  0  0  0  0  0  0  0  0  0  0
    4.6122    5.5118    9.9286 C   0  0  0  0  0  0  0  0  0  0  0  0
    5.4096    5.5982    9.2055 H   0  0  0  0  0  0  0  0  0  0  0  0
    3.4007    4.9653    9.5505 C   0  0  0  0  0  0  0  0  0  0  0  0
    3.2653    4.6151    8.5374 H   0  0  0  0  0  0  0  0  0  0  0  0
    2.3593    4.8764   10.4602 C   0  0  0  0  0  0  0  0  0  0  0  0
    1.4112    4.4592   10.1554 H   0  0  0  0  0  0  0  0  0  0  0  0
    2.5358    5.3275   11.7582 C   0  0  0  0  0  0  0  0  0  0  0  0
    1.7270    5.2769   12.4702 H   0  0  0  0  0  0  0  0  0  0  0  0
    3.7485    5.8623   12.1435 C   0  0  0  0  0  0  0  0  0  0  0  0
    3.8933    6.2106   13.1531 H   0  0  0  0  0  0  0  0  0  0  0  0
    7.4887    8.1787   15.1277 N   0  0  1  0  0  0  0  0  0  0  0  0
    6.2033    7.9316   15.4086 N   0  0  0  0  0  0  0  0  0  0  0  0
    7.3147    9.9315   13.5579 N   0  0  2  0  0  0  0  0  0  0  0  0
    6.0267   10.0526   13.2008 N   0  0  0  0  0  0  0  0  0  0  0  0
    7.4522    7.7031   12.8079 N   0  0  2  0  0  0  0  0  0  0  0  0
    6.1747    7.3088   12.7317 N   0  0  0  0  0  0  0  0  0  0  0  0
    4.7738    8.5481   13.9114 Cu  0  0  1  0  0  0  0  0  0  0  0  0
    2.5265    8.7059   14.1671 Br  0  0  0  0  0  0  0  0  0  0  0  0
  1  2  1  6  0  0  0
  1 51  1  0  0  0  0
  3  5  1  0  0  0  0
  4  3  1  0  0  0  0
  5  6  1  0  0  0  0
  7  5  2  0  0  0  0
  7  8  1  0  0  0  0
  8  9  1  0  0  0  0
  9 10  1  0  0  0  0
  9 11  2  0  0  0  0
 11 12  1  0  0  0  0
 13 14  1  0  0  0  0
 13 11  1  0  0  0  0
 15 13  2  0  0  0  0
 16 15  1  0  0  0  0
 17 15  1  0  0  0  0
 17  8  2  0  0  0  0
 18 17  1  0  0  0  0
 19 20  1  0  0  0  0
 21 22  1  0  0  0  0
 21 19  1  0  0  0  0
 23 54  1  0  0  0  0
 23 21  2  0  0  0  0
 24 25  1  0  0  0  0
 24 23  1  0  0  0  0
 25 26  1  0  0  0  0
 27 28  1  0  0  0  0
 27 25  2  0  0  0  0
 29 27  1  0  0  0  0
 30 29  1  0  0  0  0
 31 33  1  0  0  0  0
 31 29  2  0  0  0  0
 32 31  1  0  0  0  0
 33 24  2  0  0  0  0
 34 33  1  0  0  0  0
 36 35  1  0  0  0  0
 37 39  2  0  0  0  0
 37 35  1  0  0  0  0
 38 37  1  0  0  0  0
 39 56  1  0  0  0  0
 40 39  1  0  0  0  0
 40 49  1  0  0  0  0
 41 40  2  0  0  0  0
 42 41  1  0  0  0  0
 43 41  1  0  0  0  0
 43 45  2  0  0  0  0
 44 43  1  0  0  0  0
 45 47  1  0  0  0  0
 46 45  1  0  0  0  0
 47 49  2  0  0  0  0
 47 48  1  0  0  0  0
 49 50  1  0  0  0  0
 51 52  1  0  0  0  0
 51  3  1  1  0  0  0
 52  7  1  0  0  0  0
 53 19  1  1  0  0  0
 53  1  1  0  0  0  0
 54 53  1  0  0  0  0
 54 57  1  0  0  0  0
 55 35  1  6  0  0  0
 55  1  1  0  0  0  0
 56 55  1  0  0  0  0
 56 57  1  0  0  0  0
 57 58  1  1  0  0  0
 57 52  1  0  0  0  0
M  END
$$$$
