CSD_code = NIJCEP | q = 1 | S = 0 | Stoichiometry = C3H12ClN4OPtS(1+) | MND = 4
 OpenBabel04212202073D

 23 23  0  0  1  0  0  0  0  0999 V2000
    1.5968    3.3505    7.3571 Pt  0  0  2  0  0  0  0  0  0  0  0  0
    0.8970    1.7638    5.9568 S   0  0  0  0  0  0  0  0  0  0  0  0
    0.8932    2.0723    9.0282 Cl  0  0  0  0  0  0  0  0  0  0  0  0
    3.3395    6.9626    8.5029 N   0  0  0  0  0  0  0  0  0  0  0  0
    3.3429    7.0130    9.5074 H   0  0  0  0  0  0  0  0  0  0  0  0
    3.7802    7.7122    7.9997 H   0  0  0  0  0  0  0  0  0  0  0  0
    1.6274    0.1271    6.1880 C   0  0  0  0  0  0  0  0  0  0  0  0
    2.7064    0.2169    6.1122 H   0  0  0  0  0  0  0  0  0  0  0  0
    1.2567   -0.5338    5.4123 H   0  0  0  0  0  0  0  0  0  0  0  0
    1.3486   -0.2222    7.1758 H   0  0  0  0  0  0  0  0  0  0  0  0
    2.3411    4.7520    5.8400 N   0  0  0  0  0  4  0  0  0  0  0  0
    3.0256    4.2689    5.2515 H   0  0  0  0  0  0  0  0  0  0  0  0
    1.5557    5.0283    5.2434 H   0  0  0  0  0  0  0  0  0  0  0  0
    1.2165    2.2461    4.6205 O   0  0  0  0  0  1  0  0  0  0  0  0
    2.2950    4.8747    8.5068 N   0  0  0  0  0  0  0  0  0  0  0  0
    2.2646    4.9132    9.5199 H   0  0  0  0  0  0  0  0  0  0  0  0
    2.8378    5.8825    7.8856 C   0  0  2  0  0  3  0  0  0  0  0  0
   -0.8619    1.3552    6.0337 C   0  0  0  0  0  0  0  0  0  0  0  0
   -1.4343    2.2577    5.8446 H   0  0  0  0  0  0  0  0  0  0  0  0
   -1.0706    0.9795    7.0289 H   0  0  0  0  0  0  0  0  0  0  0  0
   -1.0819    0.6131    5.2742 H   0  0  0  0  0  0  0  0  0  0  0  0
    2.9068    5.8407    6.5256 N   0  0  0  0  0  0  0  0  0  0  0  0
    3.2555    6.6308    6.0001 H   0  0  0  0  0  0  0  0  0  0  0  0
  1 15  1  0  0  0  0
  1  3  1  6  0  0  0
  2 18  1  0  0  0  0
  2  7  1  0  0  0  0
  2  1  1  0  0  0  0
  4  5  1  0  0  0  0
  6  4  1  0  0  0  0
  7 10  1  0  0  0  0
  8  7  1  0  0  0  0
  9  7  1  0  0  0  0
 11 22  1  0  0  0  0
 11  1  1  0  0  0  0
 12 11  1  0  0  0  0
 13 11  1  0  0  0  0
 14  2  1  0  0  0  0
 15 16  1  0  0  0  0
 17  4  1  1  0  0  0
 17 15  1  0  0  0  0
 18 20  1  0  0  0  0
 19 18  1  0  0  0  0
 21 18  1  0  0  0  0
 22 17  1  0  0  0  0
 23 22  1  0  0  0  0
M  END
$$$$
