CSD_code = NIJTAE | q = 0 | S = 0 | Stoichiometry = C30H22ClNO6P2Pd | MND = 4
 OpenBabel04212202073D

 63 70  0  0  1  0  0  0  0  0999 V2000
    6.9623    7.6166   -0.3313 C   0  0  0  0  0  0  0  0  0  0  0  0
    7.2403    7.9500   -1.6498 C   0  0  0  0  0  0  0  0  0  0  0  0
    6.8498    8.8788   -2.0371 H   0  0  0  0  0  0  0  0  0  0  0  0
    8.0131    7.1168   -2.4362 C   0  0  0  0  0  0  0  0  0  0  0  0
    8.2234    7.3859   -3.4598 H   0  0  0  0  0  0  0  0  0  0  0  0
    8.5070    5.9373   -1.9040 C   0  0  0  0  0  0  0  0  0  0  0  0
    9.1027    5.2740   -2.5124 H   0  0  0  0  0  0  0  0  0  0  0  0
    8.2363    5.6096   -0.5902 C   0  0  0  0  0  0  0  0  0  0  0  0
    8.6115    4.6840   -0.1799 H   0  0  0  0  0  0  0  0  0  0  0  0
    7.4642    6.4381    0.2259 C   0  0  0  0  0  0  0  0  0  0  0  0
    7.2207    6.0370    1.6225 C   0  0  0  0  0  0  0  0  0  0  0  0
    8.2436    5.4710    2.3817 C   0  0  0  0  0  0  0  0  0  0  0  0
    9.2325    5.3994    1.9549 H   0  0  0  0  0  0  0  0  0  0  0  0
    8.0171    5.0253    3.6699 C   0  0  0  0  0  0  0  0  0  0  0  0
    8.8277    4.5992    4.2405 H   0  0  0  0  0  0  0  0  0  0  0  0
    6.7550    5.1284    4.2285 C   0  0  0  0  0  0  0  0  0  0  0  0
    6.5733    4.7764    5.2318 H   0  0  0  0  0  0  0  0  0  0  0  0
    5.7270    5.6973    3.4990 C   0  0  0  0  0  0  0  0  0  0  0  0
    4.7339    5.8025    3.9073 H   0  0  0  0  0  0  0  0  0  0  0  0
    5.9617    6.1508    2.2123 C   0  0  0  0  0  0  0  0  0  0  0  0
    3.3713    9.0984   -0.8193 C   0  0  0  0  0  0  0  0  0  0  0  0
    3.1534    8.8004   -1.8479 H   0  0  0  0  0  0  0  0  0  0  0  0
    4.1474    9.8908   -0.8228 H   0  0  0  0  0  0  0  0  0  0  0  0
    2.1339    9.6376   -0.1416 C   0  0  1  0  0  3  0  0  0  0  0  0
    0.8824    9.5942   -0.7389 C   0  0  0  0  0  0  0  0  0  0  0  0
    0.7678    9.1671   -1.7226 H   0  0  0  0  0  0  0  0  0  0  0  0
   -0.2058   10.1137   -0.0549 C   0  0  0  0  0  0  0  0  0  0  0  0
   -1.1891   10.0970   -0.4999 H   0  0  0  0  0  0  0  0  0  0  0  0
   -0.0056   10.6588    1.2033 C   0  0  0  0  0  0  0  0  0  0  0  0
   -0.8231   11.0833    1.7634 H   0  0  0  0  0  0  0  0  0  0  0  0
    1.2746   10.6587    1.7326 C   0  0  0  0  0  0  0  0  0  0  0  0
    1.4883   11.0945    2.7019 H   0  0  0  0  0  0  0  0  0  0  0  0
    7.3992    8.4568    4.1017 C   0  0  0  0  0  0  0  0  0  0  0  0
    8.7569    8.1989    3.9989 C   0  0  0  0  0  0  0  0  0  0  0  0
    9.2482    8.3886    3.0576 H   0  0  0  0  0  0  0  0  0  0  0  0
    9.4500    7.7156    5.0945 C   0  0  0  0  0  0  0  0  0  0  0  0
   10.5095    7.5242    5.0138 H   0  0  0  0  0  0  0  0  0  0  0  0
    8.7914    7.4821    6.2902 C   0  0  0  0  0  0  0  0  0  0  0  0
    9.3350    7.1017    7.1422 H   0  0  0  0  0  0  0  0  0  0  0  0
    7.4400    7.7546    6.4015 C   0  0  0  0  0  0  0  0  0  0  0  0
    6.9269    7.6029    7.3401 H   0  0  0  0  0  0  0  0  0  0  0  0
    6.7325    8.2595    5.3189 C   0  0  0  0  0  0  0  0  0  0  0  0
    5.3034    8.6000    5.3806 C   0  0  0  0  0  0  0  0  0  0  0  0
    4.3370    7.7333    5.8793 C   0  0  0  0  0  0  0  0  0  0  0  0
    4.6495    6.7965    6.3168 H   0  0  0  0  0  0  0  0  0  0  0  0
    2.9929    8.0487    5.7852 C   0  0  0  0  0  0  0  0  0  0  0  0
    2.2524    7.3588    6.1621 H   0  0  0  0  0  0  0  0  0  0  0  0
    2.5929    9.2408    5.2019 C   0  0  0  0  0  0  0  0  0  0  0  0
    1.5414    9.4790    5.1291 H   0  0  0  0  0  0  0  0  0  0  0  0
    3.5408   10.1439    4.7352 C   0  0  0  0  0  0  0  0  0  0  0  0
    3.2655   11.1367    4.3838 H   0  0  0  0  0  0  0  0  0  0  0  0
    4.8946    9.8313    4.8542 C   0  0  0  0  0  0  0  0  0  0  0  0
    4.2064   12.4453    2.1607 Cl  0  0  0  0  0  0  0  0  0  0  0  0
    2.3112   10.1540    1.0737 N   0  0  0  0  0  0  0  0  0  0  0  0
    6.2394    8.5383    0.4074 O   0  0  0  0  0  0  0  0  0  0  0  0
    4.8950    6.6542    1.4859 O   0  0  0  0  0  0  0  0  0  0  0  0
    3.8513    7.9410   -0.1569 O   0  0  0  0  0  0  0  0  0  0  0  0
    6.6785    8.8399    3.0004 O   0  0  0  0  0  0  0  0  0  0  0  0
    5.8477   10.7228    4.4299 O   0  0  0  0  0  0  0  0  0  0  0  0
    7.4501   11.2968    2.5357 O   0  0  0  0  0  0  0  0  0  0  0  0
    4.8316    8.2080    1.1192 P   0  0  0  0  0  4  0  0  0  0  0  0
    6.2856   10.4901    2.8625 P   0  0  0  0  0  0  0  0  0  0  0  0
    4.2948   10.2328    1.9084 Pd  0  0  1  0  0  0  0  0  0  0  0  0
  1 10  1  0  0  0  0
  1 55  1  0  0  0  0
  2  1  2  0  0  0  0
  3  2  1  0  0  0  0
  4  6  2  0  0  0  0
  4  2  1  0  0  0  0
  5  4  1  0  0  0  0
  6  8  1  0  0  0  0
  7  6  1  0  0  0  0
  8  9  1  0  0  0  0
  8 10  2  0  0  0  0
 10 11  1  0  0  0  0
 11 20  2  0  0  0  0
 11 12  1  0  0  0  0
 12 14  2  0  0  0  0
 13 12  1  0  0  0  0
 14 16  1  0  0  0  0
 14 15  1  0  0  0  0
 16 17  1  0  0  0  0
 18 19  1  0  0  0  0
 18 16  2  0  0  0  0
 20 18  1  0  0  0  0
 21 57  1  0  0  0  0
 21 24  1  0  0  0  0
 22 21  1  0  0  0  0
 23 21  1  0  0  0  0
 24 25  1  1  0  0  0
 24 54  1  0  0  0  0
 25 27  2  0  0  0  0
 26 25  1  0  0  0  0
 27 29  1  0  0  0  0
 28 27  1  0  0  0  0
 29 31  2  0  0  0  0
 29 30  1  0  0  0  0
 31 32  1  0  0  0  0
 33 42  1  0  0  0  0
 34 33  2  0  0  0  0
 34 36  1  0  0  0  0
 35 34  1  0  0  0  0
 36 38  2  0  0  0  0
 37 36  1  0  0  0  0
 38 40  1  0  0  0  0
 38 39  1  0  0  0  0
 40 41  1  0  0  0  0
 42 43  1  0  0  0  0
 42 40  2  0  0  0  0
 43 44  1  0  0  0  0
 44 45  1  0  0  0  0
 46 44  2  0  0  0  0
 46 47  1  0  0  0  0
 48 46  1  0  0  0  0
 49 48  1  0  0  0  0
 50 52  1  0  0  0  0
 50 48  2  0  0  0  0
 51 50  1  0  0  0  0
 52 43  2  0  0  0  0
 54 31  1  0  0  0  0
 54 63  1  0  0  0  0
 55 61  1  0  0  0  0
 56 20  1  0  0  0  0
 57 61  1  0  0  0  0
 58 33  1  0  0  0  0
 59 52  1  0  0  0  0
 60 62  2  0  0  0  0
 61 56  1  0  0  0  0
 61 63  1  0  0  0  0
 62 58  1  0  0  0  0
 62 59  1  0  0  0  0
 63 53  1  6  0  0  0
 63 62  1  0  0  0  0
M  END
$$$$
