CSD_code = NIKKID | q = 1 | S = 0 | Stoichiometry = C19H25ClN3Pd(1+) | MND = 4
 OpenBabel04212202073D

 49 53  0  0  1  0  0  0  0  0999 V2000
    0.2554    0.3163   19.4394 Pd  0  0  1  0  0  0  0  0  0  0  0  0
   -0.3703   -0.4627   21.4364 Cl  0  0  0  0  0  0  0  0  0  0  0  0
   -0.2761    2.1789   19.8286 N   0  0  0  0  0  0  0  0  0  0  0  0
    1.0162   -1.3923   18.8038 N   0  0  0  0  0  0  0  0  0  0  0  0
    0.8659    1.0939   17.5941 N   0  0  1  0  0  4  0  0  0  0  0  0
   -1.1493    2.6435   20.7177 C   0  0  0  0  0  3  0  0  0  0  0  0
   -1.6113    1.9086   21.3668 H   0  0  0  0  0  0  0  0  0  0  0  0
   -1.4426    3.9943   20.8220 C   0  0  0  0  0  0  0  0  0  0  0  0
   -2.1488    4.3349   21.5609 H   0  0  0  0  0  0  0  0  0  0  0  0
   -0.8125    4.8844   19.9676 C   0  0  0  0  0  0  0  0  0  0  0  0
   -1.0167    5.9420   20.0214 H   0  0  0  0  0  0  0  0  0  0  0  0
    0.0899    4.3928   19.0338 C   0  0  0  0  0  0  0  0  0  0  0  0
    0.5959    5.0584   18.3524 H   0  0  0  0  0  0  0  0  0  0  0  0
    0.3425    3.0312   18.9905 C   0  0  0  0  0  0  0  0  0  0  0  0
    1.3435    2.4163   18.0320 C   0  0  0  0  0  0  0  0  0  0  0  0
    1.5219    3.0925   17.1854 H   0  0  0  0  0  0  0  0  0  0  0  0
    2.2907    2.2911   18.5766 H   0  0  0  0  0  0  0  0  0  0  0  0
    1.9135    0.1692   17.1319 C   0  0  0  0  0  0  0  0  0  0  0  0
    2.8888    0.5249   17.4881 H   0  0  0  0  0  0  0  0  0  0  0  0
    1.9610    0.1335   16.0384 H   0  0  0  0  0  0  0  0  0  0  0  0
    1.7252   -1.2370   17.6714 C   0  0  1  0  0  3  0  0  0  0  0  0
    2.3070   -2.3249   17.0354 C   0  0  0  0  0  0  0  0  0  0  0  0
    2.8744   -2.1773   16.1298 H   0  0  0  0  0  0  0  0  0  0  0  0
    2.1552   -3.5928   17.5761 C   0  0  0  0  0  0  0  0  0  0  0  0
    2.6047   -4.4474   17.0957 H   0  0  0  0  0  0  0  0  0  0  0  0
    1.4159   -3.7367   18.7394 C   0  0  0  0  0  0  0  0  0  0  0  0
    1.2708   -4.7028   19.1934 H   0  0  0  0  0  0  0  0  0  0  0  0
    0.8596   -2.6098   19.3208 C   0  0  0  0  0  0  0  0  0  0  0  0
    0.2752   -2.6706   20.2315 H   0  0  0  0  0  0  0  0  0  0  0  0
   -0.2900    1.2289   16.6706 C   0  0  0  0  0  0  0  0  0  0  0  0
   -0.8901    2.0467   17.0882 H   0  0  0  0  0  0  0  0  0  0  0  0
    0.0985    1.6346   15.2409 C   0  0  0  0  0  0  0  0  0  0  0  0
    1.0889    2.0966   15.2427 H   0  0  0  0  0  0  0  0  0  0  0  0
    0.1392    0.7635   14.5869 H   0  0  0  0  0  0  0  0  0  0  0  0
   -0.8930    2.6519   14.6701 C   0  0  0  0  0  0  0  0  0  0  0  0
   -0.4637    3.0892   13.7670 H   0  0  0  0  0  0  0  0  0  0  0  0
   -1.0279    3.4633   15.3904 H   0  0  0  0  0  0  0  0  0  0  0  0
   -2.2533    2.0604   14.3069 C   0  0  0  0  0  0  0  0  0  0  0  0
   -2.1350    1.3944   13.4498 H   0  0  0  0  0  0  0  0  0  0  0  0
   -2.8991    2.8809   13.9897 H   0  0  0  0  0  0  0  0  0  0  0  0
   -2.9550    1.2875   15.4251 C   0  0  0  0  0  0  0  0  0  0  0  0
   -3.0170    1.8896   16.3332 H   0  0  0  0  0  0  0  0  0  0  0  0
   -3.9786    1.1022   15.0967 H   0  0  0  0  0  0  0  0  0  0  0  0
   -2.3033   -0.0667   15.7151 C   0  0  0  0  0  0  0  0  0  0  0  0
   -1.9521   -0.4834   14.7696 H   0  0  0  0  0  0  0  0  0  0  0  0
   -3.0585   -0.7532   16.0993 H   0  0  0  0  0  0  0  0  0  0  0  0
   -1.1486   -0.0432   16.7274 C   0  0  0  0  0  0  0  0  0  0  0  0
   -1.5667   -0.1305   17.7546 H   0  0  0  0  0  0  0  0  0  0  0  0
   -0.5236   -0.9207   16.5363 H   0  0  0  0  0  0  0  0  0  0  0  0
  1  3  1  0  0  0  0
  1  2  1  6  0  0  0
  3  6  1  0  0  0  0
  4 28  1  0  0  0  0
  4  1  1  0  0  0  0
  5 30  1  6  0  0  0
  5 15  1  0  0  0  0
  5  1  1  0  0  0  0
  6  8  1  0  0  0  0
  6  7  1  0  0  0  0
  8  9  1  0  0  0  0
 10 11  1  0  0  0  0
 10  8  2  0  0  0  0
 12 10  1  0  0  0  0
 13 12  1  0  0  0  0
 14 12  2  0  0  0  0
 14  3  1  0  0  0  0
 15 17  1  0  0  0  0
 15 14  1  0  0  0  0
 16 15  1  0  0  0  0
 18 19  1  0  0  0  0
 18  5  1  0  0  0  0
 18 21  1  0  0  0  0
 20 18  1  0  0  0  0
 21 22  1  1  0  0  0
 21  4  1  0  0  0  0
 22 24  2  0  0  0  0
 23 22  1  0  0  0  0
 24 26  1  0  0  0  0
 25 24  1  0  0  0  0
 26 27  1  0  0  0  0
 26 28  2  0  0  0  0
 28 29  1  0  0  0  0
 30 47  1  0  0  0  0
 30 31  1  0  0  0  0
 32 33  1  0  0  0  0
 32 30  1  0  0  0  0
 34 32  1  0  0  0  0
 35 32  1  0  0  0  0
 35 37  1  0  0  0  0
 36 35  1  0  0  0  0
 38 35  1  0  0  0  0
 38 41  1  0  0  0  0
 39 38  1  0  0  0  0
 40 38  1  0  0  0  0
 41 44  1  0  0  0  0
 41 42  1  0  0  0  0
 43 41  1  0  0  0  0
 44 46  1  0  0  0  0
 44 47  1  0  0  0  0
 45 44  1  0  0  0  0
 47 48  1  0  0  0  0
 49 47  1  0  0  0  0
M  END
$$$$
