CSD_code = NIKKEZ | q = 1 | S = 0 | Stoichiometry = C18H23ClN3Pt(1+) | MND = 4
 OpenBabel04212202073D

 46 50  0  0  1  0  0  0  0  0999 V2000
    1.6636    6.4449    0.8969 Pt  0  0  2  0  0  0  0  0  0  0  0  0
    2.0961    5.5707   -1.1324 Cl  0  0  0  0  0  0  0  0  0  0  0  0
    0.9223    4.7791    1.6539 N   0  0  0  0  0  0  0  0  0  0  0  0
    2.2638    8.2663    0.4350 N   0  0  0  0  0  0  0  0  0  0  0  0
    1.2149    7.2922    2.7597 N   0  0  2  0  0  4  0  0  0  0  0  0
    1.0677    3.5287    1.2164 C   0  0  0  0  0  3  0  0  0  0  0  0
    1.5912    3.4090    0.2764 H   0  0  0  0  0  0  0  0  0  0  0  0
    0.5696    2.4416    1.9136 C   0  0  0  0  0  0  0  0  0  0  0  0
    0.7016    1.4469    1.5217 H   0  0  0  0  0  0  0  0  0  0  0  0
   -0.0938    2.6594    3.1105 C   0  0  0  0  0  0  0  0  0  0  0  0
   -0.4934    1.8358    3.6805 H   0  0  0  0  0  0  0  0  0  0  0  0
   -0.2366    3.9623    3.5669 C   0  0  0  0  0  0  0  0  0  0  0  0
   -0.7488    4.1672    4.4938 H   0  0  0  0  0  0  0  0  0  0  0  0
    0.2810    5.0057    2.8171 C   0  0  0  0  0  0  0  0  0  0  0  0
    0.0984    6.4518    3.2259 C   0  0  0  0  0  0  0  0  0  0  0  0
   -0.0506    6.5267    4.3066 H   0  0  0  0  0  0  0  0  0  0  0  0
   -0.8235    6.8033    2.7462 H   0  0  0  0  0  0  0  0  0  0  0  0
    0.8327    8.6586    2.3605 C   0  0  0  0  0  0  0  0  0  0  0  0
   -0.1664    8.6333    1.9084 H   0  0  0  0  0  0  0  0  0  0  0  0
    0.7955    9.3414    3.2170 H   0  0  0  0  0  0  0  0  0  0  0  0
    1.7934    9.1770    1.3108 C   0  0  2  0  0  3  0  0  0  0  0  0
    2.1464   10.5123    1.2191 C   0  0  0  0  0  0  0  0  0  0  0  0
    1.7585   11.2228    1.9319 H   0  0  0  0  0  0  0  0  0  0  0  0
    2.9950   10.9220    0.1992 C   0  0  0  0  0  0  0  0  0  0  0  0
    3.2771   11.9589    0.1097 H   0  0  0  0  0  0  0  0  0  0  0  0
    3.4696    9.9756   -0.6944 C   0  0  0  0  0  0  0  0  0  0  0  0
    4.1283   10.2510   -1.5013 H   0  0  0  0  0  0  0  0  0  0  0  0
    3.0838    8.6545   -0.5405 C   0  0  0  0  0  0  0  0  0  0  0  0
    3.4239    7.8806   -1.2167 H   0  0  0  0  0  0  0  0  0  0  0  0
    2.3913    7.3281    3.6673 C   0  0  0  0  0  0  0  0  0  0  0  0
    3.0428    8.1147    3.2651 H   0  0  0  0  0  0  0  0  0  0  0  0
    3.1849    6.0206    3.6305 C   0  0  0  0  0  0  0  0  0  0  0  0
    3.4119    5.7467    2.5868 H   0  0  0  0  0  0  0  0  0  0  0  0
    2.6058    5.2139    4.0857 H   0  0  0  0  0  0  0  0  0  0  0  0
    4.4951    6.1951    4.3983 C   0  0  0  0  0  0  0  0  0  0  0  0
    5.0522    5.2584    4.3822 H   0  0  0  0  0  0  0  0  0  0  0  0
    5.1059    6.9540    3.9053 H   0  0  0  0  0  0  0  0  0  0  0  0
    4.2247    6.6159    5.8398 C   0  0  0  0  0  0  0  0  0  0  0  0
    5.1693    6.7779    6.3582 H   0  0  0  0  0  0  0  0  0  0  0  0
    3.6928    5.8167    6.3600 H   0  0  0  0  0  0  0  0  0  0  0  0
    3.3891    7.8915    5.8789 C   0  0  0  0  0  0  0  0  0  0  0  0
    3.1732    8.1631    6.9124 H   0  0  0  0  0  0  0  0  0  0  0  0
    3.9500    8.7130    5.4285 H   0  0  0  0  0  0  0  0  0  0  0  0
    2.0759    7.6865    5.1228 C   0  0  0  0  0  0  0  0  0  0  0  0
    1.5314    6.8761    5.6102 H   0  0  0  0  0  0  0  0  0  0  0  0
    1.4703    8.5931    5.1829 H   0  0  0  0  0  0  0  0  0  0  0  0
  1  2  1  1  0  0  0
  1  3  1  0  0  0  0
  1  5  1  0  0  0  0
  3 14  1  0  0  0  0
  4  1  1  0  0  0  0
  4 21  1  0  0  0  0
  5 15  1  0  0  0  0
  5 30  1  1  0  0  0
  6  3  1  0  0  0  0
  6  8  1  0  0  0  0
  7  6  1  0  0  0  0
  8 10  2  0  0  0  0
  9  8  1  0  0  0  0
 10 12  1  0  0  0  0
 10 11  1  0  0  0  0
 12 13  1  0  0  0  0
 14 15  1  0  0  0  0
 14 12  2  0  0  0  0
 15 16  1  0  0  0  0
 17 15  1  0  0  0  0
 18  5  1  0  0  0  0
 18 20  1  0  0  0  0
 19 18  1  0  0  0  0
 21 22  1  6  0  0  0
 21 18  1  0  0  0  0
 22 23  1  0  0  0  0
 24 22  2  0  0  0  0
 25 24  1  0  0  0  0
 26 28  2  0  0  0  0
 26 24  1  0  0  0  0
 27 26  1  0  0  0  0
 28  4  1  0  0  0  0
 29 28  1  0  0  0  0
 30 44  1  0  0  0  0
 31 30  1  0  0  0  0
 32 30  1  0  0  0  0
 32 34  1  0  0  0  0
 32 35  1  0  0  0  0
 33 32  1  0  0  0  0
 35 38  1  0  0  0  0
 36 35  1  0  0  0  0
 37 35  1  0  0  0  0
 38 41  1  0  0  0  0
 38 39  1  0  0  0  0
 38 40  1  0  0  0  0
 41 42  1  0  0  0  0
 43 41  1  0  0  0  0
 44 46  1  0  0  0  0
 44 45  1  0  0  0  0
 44 41  1  0  0  0  0
M  END
$$$$
