CSD_code = NIKNUR | q = 0 | S = 0 | Stoichiometry = C12H8Cl2N2O2Os | MND = 6
 OpenBabel04212202073D

 27 29  0  0  1  0  0  0  0  0999 V2000
    7.6111    5.3350    1.1910 Os  0  0  0  0  0  0  0  0  0  0  0  0
    8.6110    4.0751    2.9595 Cl  0  0  0  0  0  0  0  0  0  0  0  0
    7.0863    6.5776   -0.7837 Cl  0  0  0  0  0  0  0  0  0  0  0  0
    6.0909    7.1798    3.0484 O   0  0  0  0  0  1  0  0  0  0  0  0
    5.1040    3.6427    1.0704 O   0  0  0  0  0  1  0  0  0  0  0  0
    8.7649    4.1671   -0.0539 N   0  0  0  0  0  0  0  0  0  0  0  0
    9.3778    6.3955    1.1703 N   0  0  0  0  0  0  0  0  0  0  0  0
    6.6663    6.4842    2.3458 C   0  0  0  0  0  2  0  0  0  0  0  0
    6.0527    4.2802    1.1168 C   0  0  0  0  0  2  0  0  0  0  0  0
    8.3832    3.0338   -0.6332 C   0  0  0  0  0  3  0  0  0  0  0  0
    7.3713    2.7052   -0.4370 H   0  0  0  0  0  0  0  0  0  0  0  0
    9.2118    2.2860   -1.4510 C   0  0  0  0  0  0  0  0  0  0  0  0
    8.8490    1.3734   -1.8951 H   0  0  0  0  0  0  0  0  0  0  0  0
   10.5026    2.7360   -1.6788 C   0  0  0  0  0  0  0  0  0  0  0  0
   11.1807    2.1813   -2.3087 H   0  0  0  0  0  0  0  0  0  0  0  0
   10.9066    3.9146   -1.0799 C   0  0  0  0  0  0  0  0  0  0  0  0
   11.9061    4.2827   -1.2410 H   0  0  0  0  0  0  0  0  0  0  0  0
   10.0147    4.6148   -0.2696 C   0  0  0  0  0  0  0  0  0  0  0  0
   10.3546    5.8729    0.4077 C   0  0  1  0  0  3  0  0  0  0  0  0
   11.5929    6.5005    0.2840 C   0  0  0  0  0  0  0  0  0  0  0  0
   12.3648    6.0736   -0.3343 H   0  0  0  0  0  0  0  0  0  0  0  0
   11.8284    7.6832    0.9598 C   0  0  0  0  0  0  0  0  0  0  0  0
   12.7811    8.1826    0.8738 H   0  0  0  0  0  0  0  0  0  0  0  0
   10.8160    8.2094    1.7464 C   0  0  0  0  0  0  0  0  0  0  0  0
   10.9506    9.1278    2.2941 H   0  0  0  0  0  0  0  0  0  0  0  0
    9.6119    7.5314    1.8190 C   0  0  0  0  0  0  0  0  0  0  0  0
    8.8039    7.9200    2.4243 H   0  0  0  0  0  0  0  0  0  0  0  0
  1  8  1  0  0  0  0
  1  2  1  0  0  0  0
  3  1  1  0  0  0  0
  5  9  1  0  0  0  0
  6  1  1  0  0  0  0
  7  1  1  0  0  0  0
  7 26  1  0  0  0  0
  8  4  1  0  0  0  0
  9  1  1  0  0  0  0
 10 11  1  0  0  0  0
 10  6  1  0  0  0  0
 12 10  1  0  0  0  0
 13 12  1  0  0  0  0
 14 12  2  0  0  0  0
 14 16  1  0  0  0  0
 15 14  1  0  0  0  0
 16 18  2  0  0  0  0
 17 16  1  0  0  0  0
 18  6  1  0  0  0  0
 19 18  1  6  0  0  0
 19  7  1  0  0  0  0
 20 19  1  0  0  0  0
 20 22  2  0  0  0  0
 21 20  1  0  0  0  0
 22 24  1  0  0  0  0
 23 22  1  0  0  0  0
 24 26  2  0  0  0  0
 24 25  1  0  0  0  0
 26 27  1  0  0  0  0
M  END
$$$$
