CSD_code = NIKPIH | q = 0 | S = 0 | Stoichiometry = C12H8I2N2O2Os | MND = 6
 OpenBabel04212202073D

 27 29  0  0  1  0  0  0  0  0999 V2000
   -0.1277    1.6375   10.6330 Os  0  0  0  0  0  0  0  0  0  0  0  0
    0.9713    3.0049   12.7166 I   0  0  0  0  0  0  0  0  0  0  0  0
   -0.9417    0.2723    8.4199 I   0  0  0  0  0  0  0  0  0  0  0  0
   -2.5835    3.4197   10.5960 O   0  0  0  0  0  1  0  0  0  0  0  0
   -1.6845   -0.1870   12.4921 O   0  0  0  0  0  1  0  0  0  0  0  0
    1.6428    0.5210   10.5513 N   0  0  0  0  0  0  0  0  0  0  0  0
    1.0760    2.7885    9.3632 N   0  0  0  0  0  0  0  0  0  0  0  0
   -1.6577    2.7475   10.6098 C   0  0  0  0  0  2  0  0  0  0  0  0
   -1.0969    0.4992   11.7901 C   0  0  0  0  0  2  0  0  0  0  0  0
    1.8600   -0.6274   11.1897 C   0  0  0  0  0  3  0  0  0  0  0  0
    1.0505   -1.0039   11.8038 H   0  0  0  0  0  0  0  0  0  0  0  0
    3.0458   -1.3303   11.0967 C   0  0  0  0  0  0  0  0  0  0  0  0
    3.1654   -2.2554   11.6360 H   0  0  0  0  0  0  0  0  0  0  0  0
    4.0610   -0.8195   10.3016 C   0  0  0  0  0  0  0  0  0  0  0  0
    5.0011   -1.3389   10.2026 H   0  0  0  0  0  0  0  0  0  0  0  0
    3.8457    0.3719    9.6362 C   0  0  0  0  0  0  0  0  0  0  0  0
    4.6199    0.7875    9.0136 H   0  0  0  0  0  0  0  0  0  0  0  0
    2.6240    1.0276    9.7767 C   0  0  0  0  0  0  0  0  0  0  0  0
    2.3067    2.2971    9.1114 C   0  0  2  0  0  3  0  0  0  0  0  0
    3.1965    2.9688    8.2753 C   0  0  0  0  0  0  0  0  0  0  0  0
    4.1753    2.5639    8.0816 H   0  0  0  0  0  0  0  0  0  0  0  0
    2.8160    4.1621    7.6921 C   0  0  0  0  0  0  0  0  0  0  0  0
    3.4934    4.6937    7.0424 H   0  0  0  0  0  0  0  0  0  0  0  0
    1.5494    4.6595    7.9600 C   0  0  0  0  0  0  0  0  0  0  0  0
    1.2064    5.5862    7.5305 H   0  0  0  0  0  0  0  0  0  0  0  0
    0.7188    3.9401    8.7976 C   0  0  0  0  0  0  0  0  0  0  0  0
   -0.2758    4.3059    9.0233 H   0  0  0  0  0  0  0  0  0  0  0  0
  1  9  1  0  0  0  0
  1  2  1  0  0  0  0
  3  1  1  0  0  0  0
  4  8  1  0  0  0  0
  6  1  1  0  0  0  0
  6 10  1  0  0  0  0
  7  1  1  0  0  0  0
  8  1  1  0  0  0  0
  9  5  1  0  0  0  0
 10 11  1  0  0  0  0
 12 10  1  0  0  0  0
 12 13  1  0  0  0  0
 14 12  2  0  0  0  0
 15 14  1  0  0  0  0
 16 18  2  0  0  0  0
 16 14  1  0  0  0  0
 17 16  1  0  0  0  0
 18  6  1  0  0  0  0
 19 20  1  1  0  0  0
 19  7  1  0  0  0  0
 19 18  1  0  0  0  0
 21 20  1  0  0  0  0
 22 24  1  0  0  0  0
 22 20  2  0  0  0  0
 23 22  1  0  0  0  0
 24 26  2  0  0  0  0
 25 24  1  0  0  0  0
 26 27  1  0  0  0  0
 26  7  1  0  0  0  0
M  END
$$$$
