CSD_code = NILHUM | q = 0 | S = 0 | Stoichiometry = C10H30Cl3N4Si2Ta | MND = 7
 OpenBabel04212202073D

 50 46  0  0  0  0  0  0  0  0999 V2000
    4.3792   -1.2850   11.1436 C   0  0  0  0  0  0  0  0  0  0  0  0
    4.9074   -2.1985   10.8872 H   0  0  0  0  0  0  0  0  0  0  0  0
    3.7465   -1.5099   11.9953 H   0  0  0  0  0  0  0  0  0  0  0  0
    5.1170   -0.5568   11.4649 H   0  0  0  0  0  0  0  0  0  0  0  0
    2.0502    0.6747   10.2705 C   0  0  0  0  0  0  0  0  0  0  0  0
    2.4668    1.3344   11.0216 H   0  0  0  0  0  0  0  0  0  0  0  0
    1.1611    0.2129   10.6858 H   0  0  0  0  0  0  0  0  0  0  0  0
    1.7528    1.2820    9.4211 H   0  0  0  0  0  0  0  0  0  0  0  0
    2.3464   -2.1140    8.9500 C   0  0  0  0  0  0  0  0  0  0  0  0
    1.8054   -1.8307    8.0526 H   0  0  0  0  0  0  0  0  0  0  0  0
    1.6158   -2.4626    9.6734 H   0  0  0  0  0  0  0  0  0  0  0  0
    2.9820   -2.9611    8.7089 H   0  0  0  0  0  0  0  0  0  0  0  0
    6.3379   -0.9232    8.1454 C   0  0  0  0  0  0  0  0  0  0  0  0
    6.7712   -0.2474    8.8820 H   0  0  0  0  0  0  0  0  0  0  0  0
    7.0626   -1.0865    7.3477 H   0  0  0  0  0  0  0  0  0  0  0  0
    6.0956   -1.8757    8.6259 H   0  0  0  0  0  0  0  0  0  0  0  0
    4.4995   -1.2071    6.6253 C   0  0  0  0  0  0  0  0  0  0  0  0
    4.4187   -2.2225    7.0207 H   0  0  0  0  0  0  0  0  0  0  0  0
    5.0990   -1.2206    5.7131 H   0  0  0  0  0  0  0  0  0  0  0  0
    3.5048   -0.8324    6.3845 H   0  0  0  0  0  0  0  0  0  0  0  0
    4.9360    2.8108   11.2613 C   0  0  0  0  0  0  0  0  0  0  0  0
    4.8610    1.8433   10.7744 H   0  0  0  0  0  0  0  0  0  0  0  0
    4.4736    2.7470   12.2402 H   0  0  0  0  0  0  0  0  0  0  0  0
    5.9899    3.0247   11.4068 H   0  0  0  0  0  0  0  0  0  0  0  0
    2.3130    4.5141   10.6492 C   0  0  0  0  0  0  0  0  0  0  0  0
    1.6421    3.7066   10.3761 H   0  0  0  0  0  0  0  0  0  0  0  0
    1.9446    5.4215   10.1795 H   0  0  0  0  0  0  0  0  0  0  0  0
    2.2401    4.6575   11.7220 H   0  0  0  0  0  0  0  0  0  0  0  0
    5.1260    5.7613   10.2958 C   0  0  0  0  0  0  0  0  0  0  0  0
    6.1417    5.6469    9.9302 H   0  0  0  0  0  0  0  0  0  0  0  0
    5.1872    6.0491   11.3408 H   0  0  0  0  0  0  0  0  0  0  0  0
    4.6663    6.5901    9.7653 H   0  0  0  0  0  0  0  0  0  0  0  0
    2.8435    4.6273    7.0417 C   0  0  0  0  0  0  0  0  0  0  0  0
    2.0479    3.9180    7.2669 H   0  0  0  0  0  0  0  0  0  0  0  0
    2.8026    4.8791    5.9819 H   0  0  0  0  0  0  0  0  0  0  0  0
    2.7034    5.5311    7.6425 H   0  0  0  0  0  0  0  0  0  0  0  0
    5.2254    4.9414    7.0777 C   0  0  0  0  0  0  0  0  0  0  0  0
    5.0172    5.9280    7.4985 H   0  0  0  0  0  0  0  0  0  0  0  0
    5.3564    5.0282    5.9976 H   0  0  0  0  0  0  0  0  0  0  0  0
    6.1454    4.5496    7.5115 H   0  0  0  0  0  0  0  0  0  0  0  0
    4.2927    0.2440    8.5559 N   0  0  0  0  0  0  0  0  0  0  0  0
    5.1378   -0.3032    7.5856 N   0  0  0  0  0  0  0  0  0  0  0  0
    4.1665    3.3765    8.5885 N   0  0  0  0  0  0  0  0  0  0  0  0
    4.1311    4.0020    7.3394 N   0  0  0  0  0  0  0  0  0  0  0  0
    3.3065   -0.6331    9.6961 Si  0  0  0  0  0  0  0  0  0  0  0  0
    4.1246    4.1333   10.1572 Si  0  0  0  0  0  0  0  0  0  0  0  0
    2.4218    1.5018    6.6026 Cl  0  0  0  0  0 15  0  0  0  0  0  0
    5.3770    1.8922    5.3224 Cl  0  0  0  0  0 15  0  0  0  0  0  0
    6.8721    2.1952    8.1898 Cl  0  0  0  0  0 15  0  0  0  0  0  0
    4.6178    1.8398    7.4880 Ta  0  0  0  0  0  0  0  0  0  0  0  0
  1  4  1  0  0  0  0
  1  3  1  0  0  0  0
  2  1  1  0  0  0  0
  5  7  1  0  0  0  0
  5  6  1  0  0  0  0
  8  5  1  0  0  0  0
  9 11  1  0  0  0  0
  9 45  1  0  0  0  0
 10  9  1  0  0  0  0
 12  9  1  0  0  0  0
 13 16  1  0  0  0  0
 13 14  1  0  0  0  0
 15 13  1  0  0  0  0
 17 18  1  0  0  0  0
 17 42  1  0  0  0  0
 19 17  1  0  0  0  0
 20 17  1  0  0  0  0
 21 24  1  0  0  0  0
 21 23  1  0  0  0  0
 22 21  1  0  0  0  0
 25 28  1  0  0  0  0
 26 25  1  0  0  0  0
 27 25  1  0  0  0  0
 29 31  1  0  0  0  0
 30 29  1  0  0  0  0
 32 29  1  0  0  0  0
 33 34  1  0  0  0  0
 33 44  1  0  0  0  0
 33 36  1  0  0  0  0
 35 33  1  0  0  0  0
 37 44  1  0  0  0  0
 37 38  1  0  0  0  0
 37 40  1  0  0  0  0
 39 37  1  0  0  0  0
 41 45  1  0  0  0  0
 42 13  1  0  0  0  0
 42 41  1  0  0  0  0
 43 46  1  0  0  0  0
 44 43  1  0  0  0  0
 45  5  1  0  0  0  0
 45  1  1  0  0  0  0
 46 29  1  0  0  0  0
 46 25  1  0  0  0  0
 46 21  1  0  0  0  0
 50 41  1  0  0  0  0
 50 43  1  0  0  0  0
M  END
$$$$
