CSD_code = NILJEY | q = 0 | S = 0 | Stoichiometry = C16H30ClF5N5Si2Ta | MND = 6
 OpenBabel04212202073D

 60 59  0  0  0  0  0  0  0  0999 V2000
    9.4061    4.3346    9.7458 C   0  0  0  0  0  0  0  0  0  0  0  0
    9.8392    4.8890    8.9195 H   0  0  0  0  0  0  0  0  0  0  0  0
    9.7199    4.8201   10.6641 H   0  0  0  0  0  0  0  0  0  0  0  0
    8.3260    4.4356    9.6889 H   0  0  0  0  0  0  0  0  0  0  0  0
    8.9413    1.6099   11.1312 C   0  0  0  0  0  0  0  0  0  0  0  0
    7.8759    1.8067   11.0520 H   0  0  0  0  0  0  0  0  0  0  0  0
    9.2551    1.9441   12.1152 H   0  0  0  0  0  0  0  0  0  0  0  0
    9.0827    0.5343   11.0920 H   0  0  0  0  0  0  0  0  0  0  0  0
   11.8308    2.3955   10.1906 C   0  0  0  0  0  0  0  0  0  0  0  0
   12.3694    1.9224    9.3728 H   0  0  0  0  0  0  0  0  0  0  0  0
   11.9970    1.8070   11.0861 H   0  0  0  0  0  0  0  0  0  0  0  0
   12.2654    3.3740   10.3627 H   0  0  0  0  0  0  0  0  0  0  0  0
    8.4577    2.8937    6.7468 C   0  0  0  0  0  0  0  0  0  0  0  0
    7.7468    2.7300    5.9353 H   0  0  0  0  0  0  0  0  0  0  0  0
    9.3726    3.3322    6.3478 H   0  0  0  0  0  0  0  0  0  0  0  0
    8.0145    3.5819    7.4732 H   0  0  0  0  0  0  0  0  0  0  0  0
    7.6214    1.0007    7.9774 C   0  0  0  0  0  0  0  0  0  0  0  0
    7.9310    0.0965    8.5015 H   0  0  0  0  0  0  0  0  0  0  0  0
    6.9029    0.7311    7.2024 H   0  0  0  0  0  0  0  0  0  0  0  0
    7.1459    1.6828    8.6910 H   0  0  0  0  0  0  0  0  0  0  0  0
   14.4420    2.4208    5.8523 C   0  0  0  0  0  0  0  0  0  0  0  0
   14.4054    1.6675    6.6357 H   0  0  0  0  0  0  0  0  0  0  0  0
   15.0548    3.2406    6.2129 H   0  0  0  0  0  0  0  0  0  0  0  0
   14.9560    1.9866    4.9998 H   0  0  0  0  0  0  0  0  0  0  0  0
   12.6020    3.7278    3.6627 C   0  0  0  0  0  0  0  0  0  0  0  0
   12.9843    3.0415    2.9132 H   0  0  0  0  0  0  0  0  0  0  0  0
   13.2162    4.6206    3.6190 H   0  0  0  0  0  0  0  0  0  0  0  0
   11.5950    4.0121    3.3725 H   0  0  0  0  0  0  0  0  0  0  0  0
   12.1055    4.3260    6.6874 C   0  0  0  0  0  0  0  0  0  0  0  0
   11.3064    4.9499    6.2992 H   0  0  0  0  0  0  0  0  0  0  0  0
   12.9266    4.9827    6.9509 H   0  0  0  0  0  0  0  0  0  0  0  0
   11.7556    3.8421    7.5935 H   0  0  0  0  0  0  0  0  0  0  0  0
   12.5569    0.0212    4.2929 C   0  0  0  0  0  0  0  0  0  0  0  0
   13.0086    0.6484    3.5176 H   0  0  0  0  0  0  0  0  0  0  0  0
   12.3206   -0.9569    3.8721 H   0  0  0  0  0  0  0  0  0  0  0  0
   13.2623   -0.1052    5.1132 H   0  0  0  0  0  0  0  0  0  0  0  0
   10.3640    0.8681    3.7577 C   0  0  0  0  0  0  0  0  0  0  0  0
    9.4960    1.3658    4.1914 H   0  0  0  0  0  0  0  0  0  0  0  0
   10.0499   -0.0830    3.3265 H   0  0  0  0  0  0  0  0  0  0  0  0
   10.7830    1.5038    2.9708 H   0  0  0  0  0  0  0  0  0  0  0  0
   12.9014   -0.8328    8.6974 C   0  0  0  0  0  0  0  0  0  0  0  0
   14.2558   -1.1934    8.9132 C   0  0  0  0  0  0  0  0  0  0  0  0
   14.6674   -1.8540   10.0537 C   0  0  0  0  0  0  0  0  0  0  0  0
   13.7525   -2.1930   11.0513 C   0  0  0  0  0  0  0  0  0  0  0  0
   12.4058   -1.8681   10.8856 C   0  0  0  0  0  0  0  0  0  0  0  0
   12.0139   -1.2190    9.7393 C   0  0  0  0  0  0  0  0  0  0  0  0
    9.8998    1.6977    8.2343 N   0  0  0  0  0  0  0  0  0  0  0  0
    8.7930    1.6091    7.3571 N   0  0  0  0  0  0  0  0  0  0  0  0
   11.5135    1.7282    5.6606 N   0  0  0  0  0  0  0  0  0  0  0  0
   11.3345    0.6181    4.8174 N   0  0  0  0  0  0  0  0  0  0  0  0
   12.4171   -0.1915    7.6645 N   0  0  0  0  0  2  0  0  0  0  0  0
   15.1565   -0.8682    7.9641 F   0  0  0  0  0  0  0  0  0  0  0  0
   15.9597   -2.1722   10.2182 F   0  0  0  0  0  0  0  0  0  0  0  0
   14.1651   -2.8266   12.1629 F   0  0  0  0  0  0  0  0  0  0  0  0
   11.5155   -2.1882   11.8370 F   0  0  0  0  0  0  0  0  0  0  0  0
   10.6985   -0.8811    9.5065 F   0  0  0  0  0  0  0  0  0  0  0  0
    9.9697    2.5016    9.7807 Si  0  0  0  0  0  0  0  0  0  0  0  0
   12.6689    3.0029    5.4363 Si  0  0  0  0  0  0  0  0  0  0  0  0
    9.5586   -1.3678    6.4916 Cl  0  0  0  0  0 15  0  0  0  0  0  0
   10.8037    0.4699    7.0157 Ta  0  0  0  0  0  0  0  0  0  0  0  0
  1 57  1  0  0  0  0
  1  3  1  0  0  0  0
  2  1  1  0  0  0  0
  4  1  1  0  0  0  0
  5  7  1  0  0  0  0
  6  5  1  0  0  0  0
  8  5  1  0  0  0  0
  9 12  1  0  0  0  0
  9 11  1  0  0  0  0
 10  9  1  0  0  0  0
 13 48  1  0  0  0  0
 13 16  1  0  0  0  0
 14 13  1  0  0  0  0
 15 13  1  0  0  0  0
 17 18  1  0  0  0  0
 17 20  1  0  0  0  0
 19 17  1  0  0  0  0
 21 23  1  0  0  0  0
 21 22  1  0  0  0  0
 24 21  1  0  0  0  0
 25 58  1  0  0  0  0
 26 25  1  0  0  0  0
 27 25  1  0  0  0  0
 28 25  1  0  0  0  0
 29 31  1  0  0  0  0
 29 32  1  0  0  0  0
 30 29  1  0  0  0  0
 33 50  1  0  0  0  0
 33 36  1  0  0  0  0
 34 33  1  0  0  0  0
 35 33  1  0  0  0  0
 37 38  1  0  0  0  0
 37 50  1  0  0  0  0
 39 37  1  0  0  0  0
 40 37  1  0  0  0  0
 41 42  2  0  0  0  0
 41 46  1  0  0  0  0
 42 43  1  0  0  0  0
 43 53  1  0  0  0  0
 43 44  2  0  0  0  0
 44 54  1  0  0  0  0
 45 44  1  0  0  0  0
 45 55  1  0  0  0  0
 46 45  2  0  0  0  0
 47 57  1  0  0  0  0
 48 17  1  0  0  0  0
 48 47  1  0  0  0  0
 49 60  1  0  0  0  0
 50 49  1  0  0  0  0
 51 41  1  0  0  0  0
 52 42  1  0  0  0  0
 56 46  1  0  0  0  0
 57  9  1  0  0  0  0
 57  5  1  0  0  0  0
 58 49  1  0  0  0  0
 58 21  1  0  0  0  0
 58 29  1  0  0  0  0
 60 51  1  0  0  0  0
 60 47  1  0  0  0  0
M  END
$$$$
