CSD_code = NILSAD | q = 0 | S = 0 | Stoichiometry = C30H16Cl4F4N4Ti | MND = 6
 OpenBabel04212202073D

 59 66  0  0  0  0  0  0  0  0999 V2000
    2.5910    3.5046    8.9184 Ti  0  0  0  0  0  0  0  0  0  0  0  0
    4.7181    3.7404    8.3604 Cl  0  0  0  0  0  0  0  0  0  0  0  0
    2.0300    5.3621    8.4931 N   0  0  0  0  0  0  0  0  0  0  0  0
    2.0713    2.7966    6.8888 Cl  0  0  0  0  0  0  0  0  0  0  0  0
    2.9344    1.7180    9.7140 N   0  0  0  0  0  0  0  0  0  0  0  0
   -1.2610    7.2838    7.5265 Cl  0  0  0  0  0  0  0  0  0  0  0  0
   -1.3168    1.9573    7.6363 F   0  0  0  0  0  0  0  0  0  0  0  0
    5.0274    0.1855   12.6684 Cl  0  0  0  0  0  0  0  0  0  0  0  0
    1.8093    8.7898    7.3927 C   0  0  0  0  0  0  0  0  0  0  0  0
    1.0205    9.4587    7.0841 H   0  0  0  0  0  0  0  0  0  0  0  0
    2.8184    0.3975    9.4289 C   0  0  0  0  0  0  0  0  0  0  0  0
    3.2363    4.0647   10.8465 N   0  0  0  0  0  0  0  0  0  0  0  0
    1.0654    2.3219   11.6688 F   0  0  0  0  0  0  0  0  0  0  0  0
    5.7219    5.3087   11.4033 F   0  0  0  0  0  0  0  0  0  0  0  0
    0.3139    6.7337    7.8577 C   0  0  0  0  0  0  0  0  0  0  0  0
    1.0416    5.5619   11.0950 F   0  0  0  0  0  0  0  0  0  0  0  0
    3.7082    1.8110   10.8557 C   0  0  0  0  0  0  0  0  0  0  0  0
   -0.1134    4.3473    8.7046 C   0  0  0  0  0  3  0  0  0  0  0  0
   -1.1958    4.3529    8.5743 H   0  0  0  0  0  0  0  0  0  0  0  0
    0.6626    5.4535    8.3134 C   0  0  0  0  0  0  0  0  0  0  0  0
   -0.0953    2.1831    9.6426 C   0  0  0  0  0  0  0  0  0  0  0  0
    3.3701    5.3861   11.2319 C   0  0  0  0  0  0  0  0  0  0  0  0
    4.0877    0.5337   11.2944 C   0  0  0  0  0  0  0  0  0  0  0  0
    1.5082    7.4709    7.7578 C   0  0  0  0  0  0  0  0  0  0  0  0
    2.5483    6.5697    8.1585 C   0  0  0  0  0  0  0  0  0  0  0  0
    2.1189   -0.2317    8.3914 C   0  0  0  0  0  0  0  0  0  0  0  0
    1.6032    0.3569    7.6461 H   0  0  0  0  0  0  0  0  0  0  0  0
    3.5224   -0.3910   10.3971 C   0  0  0  0  0  0  0  0  0  0  0  0
   -0.9674    1.4496    8.8305 C   0  0  0  0  0  0  0  0  0  0  0  0
    0.2445    1.6008   10.8677 C   0  0  0  0  0  0  0  0  0  0  0  0
    4.5899    6.0303   11.4660 C   0  0  0  0  0  0  0  0  0  0  0  0
    3.8785    7.0070    8.1861 C   0  0  0  0  0  0  0  0  0  0  0  0
    4.6705    6.3268    8.4653 H   0  0  0  0  0  0  0  0  0  0  0  0
    2.1305   -1.6036    8.3436 C   0  0  0  0  0  0  0  0  0  0  0  0
    1.5996   -2.1103    7.5514 H   0  0  0  0  0  0  0  0  0  0  0  0
    4.1389    8.3067    7.8292 C   0  0  0  0  0  0  0  0  0  0  0  0
    5.1575    8.6652    7.8419 H   0  0  0  0  0  0  0  0  0  0  0  0
    3.1181    9.1918    7.4390 C   0  0  0  0  0  0  0  0  0  0  0  0
    3.3809   10.2023    7.1645 H   0  0  0  0  0  0  0  0  0  0  0  0
    2.2263    6.1880   11.2950 C   0  0  0  0  0  0  0  0  0  0  0  0
    3.5023    8.1402   11.7553 C   0  0  0  0  0  0  0  0  0  0  0  0
    3.5569    9.1995   11.9454 H   0  0  0  0  0  0  0  0  0  0  0  0
    2.8206   -2.3772    9.2940 C   0  0  0  0  0  0  0  0  0  0  0  0
    2.7996   -3.4529    9.2051 H   0  0  0  0  0  0  0  0  0  0  0  0
   -1.4421    0.2063    9.2041 C   0  0  0  0  0  0  0  0  0  0  0  0
   -2.0962   -0.3267    8.5330 H   0  0  0  0  0  0  0  0  0  0  0  0
    3.5199   -1.7897   10.3150 C   0  0  0  0  0  0  0  0  0  0  0  0
    4.0605   -2.3748   11.0433 H   0  0  0  0  0  0  0  0  0  0  0  0
    4.6635    7.3878   11.7153 C   0  0  0  0  0  0  0  0  0  0  0  0
    5.6304    7.8395   11.8685 H   0  0  0  0  0  0  0  0  0  0  0  0
   -0.2212    0.3690   11.2705 C   0  0  0  0  0  0  0  0  0  0  0  0
    0.0799   -0.0312   12.2248 H   0  0  0  0  0  0  0  0  0  0  0  0
   -1.0657   -0.3322   10.4225 C   0  0  0  0  0  0  0  0  0  0  0  0
   -1.4313   -1.3029   10.7147 H   0  0  0  0  0  0  0  0  0  0  0  0
    2.2683    7.5402   11.5520 C   0  0  0  0  0  0  0  0  0  0  0  0
    1.3529    8.1080   11.5830 H   0  0  0  0  0  0  0  0  0  0  0  0
    0.5182    3.3671    9.2764 N   0  0  0  0  0  0  0  0  0  0  0  0
    3.8823    3.0907   11.4130 C   0  0  0  0  0  3  0  0  0  0  0  0
    4.4909    3.2303   12.3067 H   0  0  0  0  0  0  0  0  0  0  0  0
  1 57  1  0  0  0  0
  1  5  1  0  0  0  0
  1 12  1  0  0  0  0
  2  1  1  0  0  0  0
  3  1  1  0  0  0  0
  4  1  1  0  0  0  0
  5 17  1  0  0  0  0
  6 15  1  0  0  0  0
  7 29  1  0  0  0  0
  9 38  2  0  0  0  0
  9 24  1  0  0  0  0
 10  9  1  0  0  0  0
 11  5  1  0  0  0  0
 11 28  1  0  0  0  0
 12 22  1  0  0  0  0
 12 58  1  0  0  0  0
 14 31  1  0  0  0  0
 15 20  2  0  0  0  0
 16 40  1  0  0  0  0
 17 23  2  0  0  0  0
 17 58  1  0  0  0  0
 18 57  1  0  0  0  0
 19 18  1  0  0  0  0
 20  3  1  0  0  0  0
 20 18  1  0  0  0  0
 21 30  1  0  0  0  0
 22 40  2  0  0  0  0
 22 31  1  0  0  0  0
 23  8  1  0  0  0  0
 24 15  1  0  0  0  0
 24 25  2  0  0  0  0
 25 32  1  0  0  0  0
 25  3  1  0  0  0  0
 26 11  2  0  0  0  0
 27 26  1  0  0  0  0
 28 23  1  0  0  0  0
 29 45  1  0  0  0  0
 29 21  2  0  0  0  0
 30 51  2  0  0  0  0
 30 13  1  0  0  0  0
 31 49  2  0  0  0  0
 32 33  1  0  0  0  0
 34 26  1  0  0  0  0
 34 43  2  0  0  0  0
 35 34  1  0  0  0  0
 36 37  1  0  0  0  0
 36 32  2  0  0  0  0
 38 36  1  0  0  0  0
 39 38  1  0  0  0  0
 40 55  1  0  0  0  0
 41 42  1  0  0  0  0
 43 47  1  0  0  0  0
 44 43  1  0  0  0  0
 45 53  2  0  0  0  0
 46 45  1  0  0  0  0
 47 28  2  0  0  0  0
 47 48  1  0  0  0  0
 49 41  1  0  0  0  0
 49 50  1  0  0  0  0
 51 52  1  0  0  0  0
 53 54  1  0  0  0  0
 53 51  1  0  0  0  0
 55 56  1  0  0  0  0
 55 41  2  0  0  0  0
 57 21  1  0  0  0  0
 58 59  1  0  0  0  0
M  END
$$$$
