CSD_code = NIMFAR | q = 1 | S = 0 | Stoichiometry = C11H22ClHgN6O4(1+) | MND = 7
 OpenBabel04212202073D

 45 43  0  0  1  0  0  0  0  0999 V2000
    2.0389    2.9254   -1.6210 Hg  0  0  0  0  0  0  0  0  0  0  0  0
    1.8403    3.1366    0.5608 Cl  0  0  0  0  0  0  0  0  0  0  0  0
    2.9659    1.6398   -3.8781 N   0  0  0  0  0  0  0  0  0  0  0  0
    2.0053    1.7525   -4.9829 C   0  0  2  0  0  0  0  0  0  0  0  0
    2.1385    2.7637   -5.3802 H   0  0  0  0  0  0  0  0  0  0  0  0
    0.5534    1.6113   -4.4975 C   0  0  0  0  0  0  0  0  0  0  0  0
   -0.1073    1.6705   -5.3754 H   0  0  0  0  0  0  0  0  0  0  0  0
    0.4278    0.6246   -4.0516 H   0  0  0  0  0  0  0  0  0  0  0  0
    0.1628    2.6031   -3.4971 N   0  0  0  0  0  0  0  0  0  0  0  0
    3.1980    0.2874   -3.3945 C   0  0  0  0  0  0  0  0  0  0  0  0
    3.8634   -0.2885   -4.0542 H   0  0  0  0  0  0  0  0  0  0  0  0
    2.2415   -0.2292   -3.3112 H   0  0  0  0  0  0  0  0  0  0  0  0
    3.7962    0.3260   -1.9907 C   0  0  0  0  0  0  0  0  0  0  0  0
    4.2074   -0.8493   -1.5072 N   0  0  0  0  0  0  0  0  0  0  0  0
    4.5458   -0.8815   -0.5571 H   0  0  0  0  0  0  0  0  0  0  0  0
    4.0451   -1.7184   -1.9860 H   0  0  0  0  0  0  0  0  0  0  0  0
    3.9283    1.3671   -1.3659 O   0  0  0  0  0  0  0  0  0  0  0  0
    2.2458    0.7528   -6.1205 C   0  0  0  0  0  0  0  0  0  0  0  0
    3.2862    0.7560   -6.4350 H   0  0  0  0  0  0  0  0  0  0  0  0
    1.6401    1.0235   -6.9809 H   0  0  0  0  0  0  0  0  0  0  0  0
    1.9769   -0.2571   -5.8228 H   0  0  0  0  0  0  0  0  0  0  0  0
    4.2168    2.3221   -4.1832 C   0  0  0  0  0  0  0  0  0  0  0  0
    4.5831    2.0931   -5.1946 H   0  0  0  0  0  0  0  0  0  0  0  0
    4.9758    2.0060   -3.4633 H   0  0  0  0  0  0  0  0  0  0  0  0
    4.0801    3.8305   -4.0188 C   0  0  0  0  0  0  0  0  0  0  0  0
    5.0612    4.5538   -4.5712 N   0  0  0  0  0  0  0  0  0  0  0  0
    5.0727    5.5511   -4.4188 H   0  0  0  0  0  0  0  0  0  0  0  0
    5.8733    4.1311   -4.9877 H   0  0  0  0  0  0  0  0  0  0  0  0
    3.1383    4.3527   -3.4427 O   0  0  0  0  0  0  0  0  0  0  0  0
   -0.9758    2.1359   -2.7116 C   0  0  0  0  0  0  0  0  0  0  0  0
   -1.7830    1.7498   -3.3538 H   0  0  0  0  0  0  0  0  0  0  0  0
   -1.3636    2.9726   -2.1255 H   0  0  0  0  0  0  0  0  0  0  0  0
   -0.5488    1.0590   -1.7200 C   0  0  0  0  0  0  0  0  0  0  0  0
   -1.5433    0.4783   -1.0416 N   0  0  0  0  0  0  0  0  0  0  0  0
   -1.3074   -0.1701   -0.3053 H   0  0  0  0  0  0  0  0  0  0  0  0
   -2.4921    0.8082   -1.0920 H   0  0  0  0  0  0  0  0  0  0  0  0
    0.6189    0.7277   -1.5843 O   0  0  0  0  0  0  0  0  0  0  0  0
   -0.1169    3.9042   -4.0877 C   0  0  0  0  0  0  0  0  0  0  0  0
   -1.0924    3.9204   -4.5979 H   0  0  0  0  0  0  0  0  0  0  0  0
    0.6622    4.1382   -4.8152 H   0  0  0  0  0  0  0  0  0  0  0  0
   -0.0636    4.9990   -3.0255 C   0  0  0  0  0  0  0  0  0  0  0  0
   -0.5613    6.1839   -3.3976 N   0  0  0  0  0  0  0  0  0  0  0  0
   -0.5017    6.9533   -2.7478 H   0  0  0  0  0  0  0  0  0  0  0  0
   -0.8989    6.3672   -4.3266 H   0  0  0  0  0  0  0  0  0  0  0  0
    0.3847    4.8024   -1.9110 O   0  0  0  0  0  0  0  0  0  0  0  0
  1  2  1  0  0  0  0
  3 10  1  0  0  0  0
  4  5  1  6  0  0  0
  4  6  1  0  0  0  0
  4  3  1  0  0  0  0
  6  8  1  0  0  0  0
  6  9  1  0  0  0  0
  7  6  1  0  0  0  0
  9 30  1  0  0  0  0
 10 12  1  0  0  0  0
 10 13  1  0  0  0  0
 11 10  1  0  0  0  0
 13 14  1  0  0  0  0
 13 17  2  0  0  0  0
 14 15  1  0  0  0  0
 16 14  1  0  0  0  0
 18 21  1  0  0  0  0
 18  4  1  0  0  0  0
 19 18  1  0  0  0  0
 20 18  1  0  0  0  0
 22 25  1  0  0  0  0
 22  3  1  0  0  0  0
 22 24  1  0  0  0  0
 23 22  1  0  0  0  0
 25 29  2  0  0  0  0
 26 27  1  0  0  0  0
 26 25  1  0  0  0  0
 28 26  1  0  0  0  0
 30 32  1  0  0  0  0
 30 33  1  0  0  0  0
 31 30  1  0  0  0  0
 33 37  2  0  0  0  0
 33 34  1  0  0  0  0
 34 35  1  0  0  0  0
 36 34  1  0  0  0  0
 38  9  1  0  0  0  0
 38 41  1  0  0  0  0
 39 38  1  0  0  0  0
 40 38  1  0  0  0  0
 41 45  2  0  0  0  0
 42 41  1  0  0  0  0
 42 43  1  0  0  0  0
 44 42  1  0  0  0  0
M  END
$$$$
