CSD_code = NIMWAK | q = 0 | S = 0 | Stoichiometry = C26H30Cl3N3OPd | MND = 4
 OpenBabel04212202073D

 64 67  0  0  0  0  0  0  0  0999 V2000
    4.5188    2.1332    3.3569 Pd  0  0  0  0  0  0  0  0  0  0  0  0
    6.0728    2.8196    4.9489 Cl  0  0  0  0  0  0  0  0  0  0  0  0
    3.0026    1.3249    1.8351 Cl  0  0  0  0  0  0  0  0  0  0  0  0
    6.0668   -3.0954    4.2330 Cl  0  0  0  0  0  0  0  0  0  0  0  0
    3.5892    1.0801    5.7621 O   0  0  0  0  0  0  0  0  0  0  0  0
    4.3137    1.7145    5.9323 H   0  0  0  0  0  0  0  0  0  0  0  0
    2.2240    3.5335    4.5138 N   0  0  0  0  0  0  0  0  0  0  0  0
    3.6589    4.9523    3.6875 N   0  0  0  0  0  0  0  0  0  0  0  0
    5.6809    0.5885    2.8923 N   0  0  0  0  0  0  0  0  0  0  0  0
    3.3923    3.6447    3.8516 C   0  0  0  0  0  0  0  0  0  0  0  0
    1.6342    2.2711    4.8904 C   0  0  0  0  0  0  0  0  0  0  0  0
    1.7303    1.5797    4.0416 H   0  0  0  0  0  0  0  0  0  0  0  0
    0.5794    2.4307    5.1162 H   0  0  0  0  0  0  0  0  0  0  0  0
    2.3420    1.6354    6.1033 C   0  0  0  0  0  0  0  0  0  0  0  0
    2.4427    2.3726    6.9089 H   0  0  0  0  0  0  0  0  0  0  0  0
    1.7203    0.8058    6.4580 H   0  0  0  0  0  0  0  0  0  0  0  0
    1.7168    4.7875    4.7723 C   0  0  0  0  0  0  0  0  0  0  0  0
    0.5644    5.2192    5.4111 C   0  0  0  0  0  0  0  0  0  0  0  0
   -0.1429    4.5233    5.8343 H   0  0  0  0  0  0  0  0  0  0  0  0
    0.3536    6.5828    5.4835 C   0  0  0  0  0  0  0  0  0  0  0  0
   -0.5333    6.9549    5.9728 H   0  0  0  0  0  0  0  0  0  0  0  0
    1.2579    7.4890    4.9333 C   0  0  0  0  0  0  0  0  0  0  0  0
    1.0499    8.5456    5.0041 H   0  0  0  0  0  0  0  0  0  0  0  0
    2.4114    7.0695    4.2987 C   0  0  0  0  0  0  0  0  0  0  0  0
    3.0953    7.7759    3.8608 H   0  0  0  0  0  0  0  0  0  0  0  0
    2.6392    5.7031    4.2303 C   0  0  0  0  0  0  0  0  0  0  0  0
    4.9056    5.4820    3.1621 C   0  0  0  0  0  0  0  0  0  0  0  0
    5.5242    4.6206    2.8646 H   0  0  0  0  0  0  0  0  0  0  0  0
    5.4308    5.9680    3.9852 H   0  0  0  0  0  0  0  0  0  0  0  0
    4.6977    6.4222    2.0001 C   0  0  0  0  0  0  0  0  0  0  0  0
    5.1020    7.7586    2.0721 C   0  0  0  0  0  0  0  0  0  0  0  0
    4.9216    8.5867    0.9615 C   0  0  0  0  0  0  0  0  0  0  0  0
    4.1880    8.1353   -0.1371 C   0  0  0  0  0  0  0  0  0  0  0  0
    3.7692    6.8048   -0.1986 C   0  0  0  0  0  0  0  0  0  0  0  0
    4.1045    5.9243    0.8343 C   0  0  0  0  0  0  0  0  0  0  0  0
    3.8422    4.4535    0.6763 C   0  0  0  0  0  0  0  0  0  0  0  0
    4.5199    3.8411    1.2845 H   0  0  0  0  0  0  0  0  0  0  0  0
    3.9910    4.1488   -0.3564 H   0  0  0  0  0  0  0  0  0  0  0  0
    2.8220    4.1915    0.9607 H   0  0  0  0  0  0  0  0  0  0  0  0
    2.9664    6.3319   -1.3801 C   0  0  0  0  0  0  0  0  0  0  0  0
    3.5709    6.3382   -2.2869 H   0  0  0  0  0  0  0  0  0  0  0  0
    2.1113    6.9871   -1.5388 H   0  0  0  0  0  0  0  0  0  0  0  0
    2.5771    5.3321   -1.2304 H   0  0  0  0  0  0  0  0  0  0  0  0
    3.8893    9.0929   -1.2577 C   0  0  0  0  0  0  0  0  0  0  0  0
    3.6320   10.0743   -0.8657 H   0  0  0  0  0  0  0  0  0  0  0  0
    3.0635    8.7523   -1.8716 H   0  0  0  0  0  0  0  0  0  0  0  0
    4.7604    9.2004   -1.9054 H   0  0  0  0  0  0  0  0  0  0  0  0
    5.5096    9.9717    0.9521 C   0  0  0  0  0  0  0  0  0  0  0  0
    4.8232   10.6944    1.3965 H   0  0  0  0  0  0  0  0  0  0  0  0
    5.7253   10.2914   -0.0627 H   0  0  0  0  0  0  0  0  0  0  0  0
    6.4420    9.9988    1.5089 H   0  0  0  0  0  0  0  0  0  0  0  0
    5.7593    8.3388    3.2981 C   0  0  0  0  0  0  0  0  0  0  0  0
    6.8446    8.2663    3.2167 H   0  0  0  0  0  0  0  0  0  0  0  0
    5.4614    7.8369    4.2136 H   0  0  0  0  0  0  0  0  0  0  0  0
    5.4966    9.3877    3.4089 H   0  0  0  0  0  0  0  0  0  0  0  0
    6.5744    0.6432    1.9087 C   0  0  0  0  0  3  0  0  0  0  0  0
    6.6504    1.5860    1.3722 H   0  0  0  0  0  0  0  0  0  0  0  0
    7.3688   -0.4407    1.5757 C   0  0  0  0  0  0  0  0  0  0  0  0
    8.0846   -0.3627    0.7728 H   0  0  0  0  0  0  0  0  0  0  0  0
    7.2309   -1.6217    2.2863 C   0  0  0  0  0  0  0  0  0  0  0  0
    7.8305   -2.4884    2.0574 H   0  0  0  0  0  0  0  0  0  0  0  0
    6.2920   -1.6617    3.3095 C   0  0  0  0  0  0  0  0  0  0  0  0
    5.5303   -0.5335    3.5863 C   0  0  0  0  0  0  0  0  0  0  0  0
    4.7843   -0.5285    4.3790 H   0  0  0  0  0  0  0  0  0  0  0  0
  1 10  2  0  0  0  0
  1  2  1  0  0  0  0
  3  1  1  0  0  0  0
  5  6  1  0  0  0  0
  5 14  1  0  0  0  0
  7 17  1  0  0  0  0
  7 11  1  0  0  0  0
  8 10  1  0  0  0  0
  8 26  1  0  0  0  0
  9  1  1  0  0  0  0
  9 63  1  0  0  0  0
 10  7  1  0  0  0  0
 11 13  1  0  0  0  0
 11 14  1  0  0  0  0
 12 11  1  0  0  0  0
 14 16  1  0  0  0  0
 14 15  1  0  0  0  0
 17 18  1  0  0  0  0
 18 20  2  0  0  0  0
 18 19  1  0  0  0  0
 20 21  1  0  0  0  0
 22 23  1  0  0  0  0
 22 20  1  0  0  0  0
 24 22  2  0  0  0  0
 25 24  1  0  0  0  0
 26 24  1  0  0  0  0
 26 17  2  0  0  0  0
 27  8  1  0  0  0  0
 27 29  1  0  0  0  0
 28 27  1  0  0  0  0
 30 31  1  0  0  0  0
 30 27  1  0  0  0  0
 31 52  1  0  0  0  0
 32 31  2  0  0  0  0
 33 32  1  0  0  0  0
 34 33  2  0  0  0  0
 34 35  1  0  0  0  0
 35 30  2  0  0  0  0
 36 35  1  0  0  0  0
 36 39  1  0  0  0  0
 36 37  1  0  0  0  0
 38 36  1  0  0  0  0
 40 43  1  0  0  0  0
 40 34  1  0  0  0  0
 41 40  1  0  0  0  0
 42 40  1  0  0  0  0
 44 45  1  0  0  0  0
 44 33  1  0  0  0  0
 46 44  1  0  0  0  0
 47 44  1  0  0  0  0
 48 32  1  0  0  0  0
 48 49  1  0  0  0  0
 48 51  1  0  0  0  0
 50 48  1  0  0  0  0
 52 55  1  0  0  0  0
 52 54  1  0  0  0  0
 53 52  1  0  0  0  0
 56  9  1  0  0  0  0
 57 56  1  0  0  0  0
 58 56  1  0  0  0  0
 58 60  2  0  0  0  0
 59 58  1  0  0  0  0
 60 62  1  0  0  0  0
 61 60  1  0  0  0  0
 62 63  2  0  0  0  0
 62  4  1  0  0  0  0
 63 64  1  0  0  0  0
M  END
$$$$
