CSD_code = NIMYAK | q = 0 | S = 0 | Stoichiometry = C12H11Cl2N3Pd | MND = 4
 OpenBabel04212202073D

 29 31  0  0  0  0  0  0  0  0999 V2000
    2.9845   -0.9765    4.2626 Pd  0  0  0  0  0  0  0  0  0  0  0  0
    3.0003   -2.1689    6.1249 Cl  0  0  0  0  0  0  0  0  0  0  0  0
    1.7102   -2.5349    3.3380 Cl  0  0  0  0  0  0  0  0  0  0  0  0
    4.2603    2.0562    0.6365 N   0  0  0  0  0  0  0  0  0  0  0  0
    4.1209    0.5036    5.0143 N   0  0  0  0  0  0  0  0  0  0  0  0
    3.0424    0.2032    2.6632 N   0  0  0  0  0  0  0  0  0  0  0  0
    3.7633    2.3952    1.8218 C   0  0  0  0  0  0  0  0  0  0  0  0
    3.3338    3.6915    2.1091 C   0  0  0  0  0  0  0  0  0  0  0  0
    2.9043    3.9240    3.0717 H   0  0  0  0  0  0  0  0  0  0  0  0
    3.4458    4.6572    1.1228 C   0  0  0  0  0  0  0  0  0  0  0  0
    3.1157    5.6684    1.3099 H   0  0  0  0  0  0  0  0  0  0  0  0
    3.9855    4.3039   -0.1044 C   0  0  0  0  0  0  0  0  0  0  0  0
    4.0955    5.0285   -0.8952 H   0  0  0  0  0  0  0  0  0  0  0  0
    4.3725    2.9846   -0.2933 C   0  0  0  0  0  0  0  0  0  0  0  0
    4.7898    2.6491   -1.2331 H   0  0  0  0  0  0  0  0  0  0  0  0
    4.3164    1.5118    4.1322 C   0  0  0  0  0  0  0  0  0  0  0  0
    5.1373    2.5973    4.4530 C   0  0  0  0  0  0  0  0  0  0  0  0
    5.3090    3.3734    3.7241 H   0  0  0  0  0  0  0  0  0  0  0  0
    5.7324    2.6522    5.6972 C   0  0  0  0  0  0  0  0  0  0  0  0
    6.3697    3.4818    5.9619 H   0  0  0  0  0  0  0  0  0  0  0  0
    5.5019    1.6176    6.5984 C   0  0  0  0  0  0  0  0  0  0  0  0
    5.9472    1.6260    7.5797 H   0  0  0  0  0  0  0  0  0  0  0  0
    4.6974    0.5612    6.2135 C   0  0  0  0  0  0  0  0  0  0  0  0
    4.4962   -0.2761    6.8733 H   0  0  0  0  0  0  0  0  0  0  0  0
    3.6673    1.3272    2.8459 C   0  0  0  0  0  0  0  0  0  0  0  0
    2.4179   -0.0866    1.3994 C   0  0  0  0  0  0  0  0  0  0  0  0
    2.0233    0.8143    0.9225 H   0  0  0  0  0  0  0  0  0  0  0  0
    1.6246   -0.8193    1.5614 H   0  0  0  0  0  0  0  0  0  0  0  0
    3.1617   -0.5301    0.7322 H   0  0  0  0  0  0  0  0  0  0  0  0
  1  5  1  0  0  0  0
  1  2  1  0  0  0  0
  3  1  1  0  0  0  0
  4  7  1  0  0  0  0
  5 23  1  0  0  0  0
  6 25  1  0  0  0  0
  6  1  1  0  0  0  0
  7  8  2  0  0  0  0
  7 25  1  0  0  0  0
  8  9  1  0  0  0  0
 10 11  1  0  0  0  0
 10  8  1  0  0  0  0
 12 10  2  0  0  0  0
 13 12  1  0  0  0  0
 14 12  1  0  0  0  0
 14  4  2  0  0  0  0
 15 14  1  0  0  0  0
 16 17  1  0  0  0  0
 16  5  1  0  0  0  0
 17 19  2  0  0  0  0
 18 17  1  0  0  0  0
 19 20  1  0  0  0  0
 19 21  1  0  0  0  0
 21 22  1  0  0  0  0
 23 21  2  0  0  0  0
 23 24  1  0  0  0  0
 25 16  2  0  0  0  0
 26 28  1  0  0  0  0
 26  6  1  0  0  0  0
 27 26  1  0  0  0  0
 29 26  1  0  0  0  0
M  END
$$$$
