CSD_code = NIMYEP | q = 0 | S = 0 | Stoichiometry = C7H21ClN3Ta | MND = 5
 OpenBabel04212202073D

 33 32  0  0  0  0  0  0  0  0999 V2000
    2.5126    9.8507    6.4730 Ta  0  0  0  0  0  0  0  0  0  0  0  0
    3.7370   10.0430    4.5250 Cl  0  0  0  0  0  0  0  0  0  0  0  0
    1.5773   11.5716    6.0746 N   0  0  0  0  0  0  0  0  0  0  0  0
    2.0870    7.9519    6.0237 N   0  0  0  0  0  0  0  0  0  0  0  0
    1.5547    9.6937    8.1848 N   0  0  0  0  0  0  0  0  0  0  0  0
    0.1972   11.6522    5.6681 C   0  0  0  0  0  0  0  0  0  0  0  0
    0.0995   11.6182    4.5720 H   0  0  0  0  0  0  0  0  0  0  0  0
   -0.2711   12.5829    6.0144 H   0  0  0  0  0  0  0  0  0  0  0  0
   -0.3497   10.8099    6.0975 H   0  0  0  0  0  0  0  0  0  0  0  0
    2.3211   12.7402    5.6720 C   0  0  0  0  0  0  0  0  0  0  0  0
    2.4037   12.7911    4.5754 H   0  0  0  0  0  0  0  0  0  0  0  0
    3.3280   12.6977    6.0898 H   0  0  0  0  0  0  0  0  0  0  0  0
    1.8365   13.6607    6.0214 H   0  0  0  0  0  0  0  0  0  0  0  0
    3.1307    7.0337    5.6398 C   0  0  0  0  0  0  0  0  0  0  0  0
    3.2649    7.0326    4.5471 H   0  0  0  0  0  0  0  0  0  0  0  0
    2.8982    6.0090    5.9568 H   0  0  0  0  0  0  0  0  0  0  0  0
    4.0733    7.3344    6.0998 H   0  0  0  0  0  0  0  0  0  0  0  0
    0.7944    7.5144    5.5620 C   0  0  0  0  0  0  0  0  0  0  0  0
    0.7305    7.5454    4.4633 H   0  0  0  0  0  0  0  0  0  0  0  0
    0.0268    8.1707    5.9784 H   0  0  0  0  0  0  0  0  0  0  0  0
    0.5799    6.4849    5.8782 H   0  0  0  0  0  0  0  0  0  0  0  0
    1.0932   10.8013    8.9869 C   0  0  0  0  0  0  0  0  0  0  0  0
    0.0582   10.6493    9.3176 H   0  0  0  0  0  0  0  0  0  0  0  0
    1.1500   11.7164    8.4033 H   0  0  0  0  0  0  0  0  0  0  0  0
    1.7146   10.9168    9.8845 H   0  0  0  0  0  0  0  0  0  0  0  0
    1.3843    8.4770    8.9421 C   0  0  0  0  0  0  0  0  0  0  0  0
    0.3440    8.3538    9.2686 H   0  0  0  0  0  0  0  0  0  0  0  0
    2.0151    8.4863    9.8405 H   0  0  0  0  0  0  0  0  0  0  0  0
    1.6671    7.6274    8.3261 H   0  0  0  0  0  0  0  0  0  0  0  0
    4.4719   10.1283    7.6325 C   0  0  0  0  0  0  0  0  0  0  0  0
    4.4004   10.9774    8.3127 H   0  0  0  0  0  0  0  0  0  0  0  0
    5.3118   10.3020    6.9617 H   0  0  0  0  0  0  0  0  0  0  0  0
    4.6946    9.2440    8.2305 H   0  0  0  0  0  0  0  0  0  0  0  0
  1 30  1  0  0  0  0
  1  5  1  0  0  0  0
  2  1  1  0  0  0  0
  3  1  1  0  0  0  0
  4  1  1  0  0  0  0
  5 26  1  0  0  0  0
  5 22  1  0  0  0  0
  6  8  1  0  0  0  0
  6  3  1  0  0  0  0
  6  9  1  0  0  0  0
  7  6  1  0  0  0  0
 10 13  1  0  0  0  0
 10  3  1  0  0  0  0
 10 12  1  0  0  0  0
 11 10  1  0  0  0  0
 14 16  1  0  0  0  0
 14  4  1  0  0  0  0
 14 17  1  0  0  0  0
 15 14  1  0  0  0  0
 18 21  1  0  0  0  0
 18 20  1  0  0  0  0
 18  4  1  0  0  0  0
 19 18  1  0  0  0  0
 22 23  1  0  0  0  0
 22 25  1  0  0  0  0
 24 22  1  0  0  0  0
 26 27  1  0  0  0  0
 26 28  1  0  0  0  0
 29 26  1  0  0  0  0
 30 33  1  0  0  0  0
 30 31  1  0  0  0  0
 32 30  1  0  0  0  0
M  END
$$$$
