CSD_code = NIMYAL | q = 0 | S = 0 | Stoichiometry = C4H14Cl2N2Zn | MND = 4
 OpenBabel04212202073D

 23 22  0  0  0  0  0  0  0  0999 V2000
    1.6449    1.0827    6.6208 Zn  0  0  0  0  0  0  0  0  0  0  0  0
    0.6087   -0.5691    5.6016 Cl  0  0  0  0  0  0  0  0  0  0  0  0
    0.8953    2.8105    7.7593 Cl  0  0  0  0  0  0  0  0  0  0  0  0
    2.8328   -0.0344    8.1284 N   0  0  0  0  0  4  0  0  0  0  0  0
    3.4668    0.5985    8.6151 H   0  0  0  0  0  0  0  0  0  0  0  0
    2.6970    2.0524    4.9216 N   0  0  0  0  0  4  0  0  0  0  0  0
    3.2346    2.8465    5.2682 H   0  0  0  0  0  0  0  0  0  0  0  0
    1.8763   -0.5341    9.1206 C   0  0  0  0  0  0  0  0  0  0  0  0
    2.3819   -1.0826    9.9227 H   0  0  0  0  0  0  0  0  0  0  0  0
    1.1706   -1.2012    8.6271 H   0  0  0  0  0  0  0  0  0  0  0  0
    1.3278    0.3034    9.5481 H   0  0  0  0  0  0  0  0  0  0  0  0
    3.6178   -1.1349    7.5696 C   0  0  0  0  0  0  0  0  0  0  0  0
    4.0863   -1.7358    8.3565 H   0  0  0  0  0  0  0  0  0  0  0  0
    4.3923   -0.7412    6.9144 H   0  0  0  0  0  0  0  0  0  0  0  0
    2.9573   -1.7712    6.9826 H   0  0  0  0  0  0  0  0  0  0  0  0
    1.6578    2.5875    4.0372 C   0  0  0  0  0  0  0  0  0  0  0  0
    2.0935    3.1109    3.1793 H   0  0  0  0  0  0  0  0  0  0  0  0
    1.0274    3.2768    4.5960 H   0  0  0  0  0  0  0  0  0  0  0  0
    1.0430    1.7647    3.6746 H   0  0  0  0  0  0  0  0  0  0  0  0
    3.5994    1.1703    4.1830 C   0  0  0  0  0  0  0  0  0  0  0  0
    4.0002    1.6604    3.2890 H   0  0  0  0  0  0  0  0  0  0  0  0
    3.0490    0.2804    3.8817 H   0  0  0  0  0  0  0  0  0  0  0  0
    4.4270    0.8701    4.8226 H   0  0  0  0  0  0  0  0  0  0  0  0
  1  3  1  0  0  0  0
  1  4  1  0  0  0  0
  2  1  1  0  0  0  0
  4  5  1  0  0  0  0
  4  8  1  0  0  0  0
  6  7  1  0  0  0  0
  6  1  1  0  0  0  0
  8 11  1  0  0  0  0
  8  9  1  0  0  0  0
 10  8  1  0  0  0  0
 12  4  1  0  0  0  0
 12 13  1  0  0  0  0
 14 12  1  0  0  0  0
 15 12  1  0  0  0  0
 16 18  1  0  0  0  0
 16  6  1  0  0  0  0
 17 16  1  0  0  0  0
 19 16  1  0  0  0  0
 20 23  1  0  0  0  0
 20  6  1  0  0  0  0
 21 20  1  0  0  0  0
 22 20  1  0  0  0  0
M  END
$$$$
