CSD_code = NIMYEO | q = 0 | S = 0 | Stoichiometry = C11H10Cl2N2OPd | MND = 4
 OpenBabel04212202073D

 27 29  0  0  1  0  0  0  0  0999 V2000
    2.2971    3.5148    0.0945 Pd  0  0  0  0  0  0  0  0  0  0  0  0
    2.3972    2.5858   -1.9152 Cl  0  0  0  0  0  0  0  0  0  0  0  0
    1.3754    5.3474   -0.7398 Cl  0  0  0  0  0  0  0  0  0  0  0  0
    3.1266    1.8510    0.9267 N   0  0  0  0  0  0  0  0  0  0  0  0
    2.2437    4.3250    1.9752 N   0  0  0  0  0  0  0  0  0  0  0  0
    5.6185    3.5562    2.9511 O   0  0  0  0  0  0  0  0  0  0  0  0
    6.3939    3.2470    2.4709 H   0  0  0  0  0  0  0  0  0  0  0  0
    4.0507    2.0188    1.8771 C   0  0  2  0  0  3  0  0  0  0  0  0
    4.5511    0.9578    2.6139 C   0  0  0  0  0  0  0  0  0  0  0  0
    5.2812    1.1419    3.3867 H   0  0  0  0  0  0  0  0  0  0  0  0
    4.0948   -0.3216    2.3366 C   0  0  0  0  0  0  0  0  0  0  0  0
    4.4715   -1.1670    2.8910 H   0  0  0  0  0  0  0  0  0  0  0  0
    3.1512   -0.4900    1.3340 C   0  0  0  0  0  0  0  0  0  0  0  0
    2.7767   -1.4686    1.0816 H   0  0  0  0  0  0  0  0  0  0  0  0
    2.6878    0.6230    0.6541 C   0  0  0  0  0  0  0  0  0  0  0  0
    1.9604    0.5447   -0.1461 H   0  0  0  0  0  0  0  0  0  0  0  0
    3.3128    4.1637    2.7602 C   0  0  1  0  0  3  0  0  0  0  0  0
    3.3358    4.5937    4.0761 C   0  0  0  0  0  0  0  0  0  0  0  0
    4.2264    4.4423    4.6631 H   0  0  0  0  0  0  0  0  0  0  0  0
    2.2139    5.2268    4.5878 C   0  0  0  0  0  0  0  0  0  0  0  0
    2.2052    5.5807    5.6071 H   0  0  0  0  0  0  0  0  0  0  0  0
    1.1105    5.3997    3.7655 C   0  0  0  0  0  0  0  0  0  0  0  0
    0.2209    5.8922    4.1232 H   0  0  0  0  0  0  0  0  0  0  0  0
    1.1645    4.9332    2.4634 C   0  0  0  0  0  0  0  0  0  0  0  0
    0.3375    5.0609    1.7741 H   0  0  0  0  0  0  0  0  0  0  0  0
    4.4937    3.4544    2.1244 C   0  0  1  0  0  0  0  0  0  0  0  0
    4.6666    3.9326    1.1285 H   0  0  0  0  0  0  0  0  0  0  0  0
  1  4  1  0  0  0  0
  1  5  1  0  0  0  0
  2  1  1  0  0  0  0
  3  1  1  0  0  0  0
  4  8  1  0  0  0  0
  5 24  1  0  0  0  0
  5 17  1  0  0  0  0
  7  6  1  0  0  0  0
  8 26  1  0  0  0  0
  8  9  1  1  0  0  0
  9 10  1  0  0  0  0
 11  9  2  0  0  0  0
 11 12  1  0  0  0  0
 13 11  1  0  0  0  0
 14 13  1  0  0  0  0
 15  4  1  0  0  0  0
 15 13  2  0  0  0  0
 16 15  1  0  0  0  0
 17 18  1  1  0  0  0
 18 20  2  0  0  0  0
 18 19  1  0  0  0  0
 20 21  1  0  0  0  0
 22 23  1  0  0  0  0
 22 20  1  0  0  0  0
 24 22  2  0  0  0  0
 25 24  1  0  0  0  0
 26 27  1  6  0  0  0
 26 17  1  0  0  0  0
 26  6  1  0  0  0  0
M  END
$$$$
