CSD_code = NINCES | q = 0 | S = 0 | Stoichiometry = C19H15Cl5N3Re | MND = 6
 OpenBabel04212202073D

 43 46  0  0  0  0  0  0  0  0999 V2000
    3.7326   -0.1443    1.6886 Re  0  0  0  0  0  0  0  0  0  0  0  0
    3.7639    0.3372    3.9076 Cl  0  0  0  0  0  0  0  0  0  0  0  0
    6.0393   -0.6190    1.8310 Cl  0  0  0  0  0  0  0  0  0  0  0  0
    1.6708    0.9886    1.5456 Cl  0  0  0  0  0  0  0  0  0  0  0  0
    2.0941   -5.2516   -2.7491 Cl  0  0  0  0  0  0  0  0  0  0  0  0
    1.3538   -7.2179    0.5835 Cl  0  0  0  0  0  0  0  0  0  0  0  0
    4.4939    1.8043    1.1406 N   0  0  0  0  0  0  0  0  0  0  0  0
    3.8558   -0.1600   -0.3710 N   0  0  0  0  0  0  0  0  0  0  0  0
    3.1325   -1.7972    1.7258 N   0  0  0  0  0  2  0  0  0  0  0  0
    4.6574    2.0082   -0.1845 C   0  0  0  0  0  0  0  0  0  0  0  0
    5.1485    3.2211   -0.6783 C   0  0  0  0  0  0  0  0  0  0  0  0
    5.4701    4.2264    0.2093 C   0  0  0  0  0  0  0  0  0  0  0  0
    5.2955    4.0017    1.5700 C   0  0  0  0  0  0  0  0  0  0  0  0
    4.8061    2.7775    1.9870 C   0  0  0  0  0  0  0  0  0  0  0  0
    4.2859    0.8830   -1.0136 C   0  0  0  0  0  0  0  0  0  0  0  0
    3.4570   -1.3336   -1.0488 C   0  0  0  0  0  0  0  0  0  0  0  0
    2.1156   -1.5217   -1.3690 C   0  0  0  0  0  0  0  0  0  0  0  0
    1.6987   -2.7234   -1.9085 C   0  0  0  0  0  0  0  0  0  0  0  0
    2.6237   -3.7333   -2.1273 C   0  0  0  0  0  0  0  0  0  0  0  0
    3.9652   -3.5454   -1.8309 C   0  0  0  0  0  0  0  0  0  0  0  0
    4.3831   -2.3434   -1.2921 C   0  0  0  0  0  0  0  0  0  0  0  0
    4.3999    0.9545   -2.5021 C   0  0  0  0  0  0  0  0  0  0  0  0
    2.7191   -3.0387    1.5269 C   0  0  0  0  0  0  0  0  0  0  0  0
    1.3485   -3.3206    1.3415 C   0  0  0  0  0  0  0  0  0  0  0  0
    0.9360   -4.6010    1.0592 C   0  0  0  0  0  0  0  0  0  0  0  0
    1.8733   -5.6250    0.9600 C   0  0  0  0  0  0  0  0  0  0  0  0
    3.2270   -5.3731    1.1619 C   0  0  0  0  0  0  0  0  0  0  0  0
    3.6505   -4.0964    1.4448 C   0  0  0  0  0  0  0  0  0  0  0  0
    5.2713    3.3596   -1.7397 H   0  0  0  0  0  0  0  0  0  0  0  0
    5.8516    5.1707   -0.1477 H   0  0  0  0  0  0  0  0  0  0  0  0
    5.5343    4.7596    2.2978 H   0  0  0  0  0  0  0  0  0  0  0  0
    4.6555    2.5620    3.0377 H   0  0  0  0  0  0  0  0  0  0  0  0
    1.4076   -0.7347   -1.1595 H   0  0  0  0  0  0  0  0  0  0  0  0
    0.6593   -2.8817   -2.1472 H   0  0  0  0  0  0  0  0  0  0  0  0
    4.6742   -4.3376   -2.0098 H   0  0  0  0  0  0  0  0  0  0  0  0
    5.4169   -2.1884   -1.0246 H   0  0  0  0  0  0  0  0  0  0  0  0
    4.0678    0.0238   -2.9545 H   0  0  0  0  0  0  0  0  0  0  0  0
    3.7882    1.7698   -2.8857 H   0  0  0  0  0  0  0  0  0  0  0  0
    5.4340    1.1365   -2.7911 H   0  0  0  0  0  0  0  0  0  0  0  0
    0.6449   -2.5072    1.4217 H   0  0  0  0  0  0  0  0  0  0  0  0
   -0.1105   -4.8170    0.9111 H   0  0  0  0  0  0  0  0  0  0  0  0
    3.9380   -6.1814    1.0933 H   0  0  0  0  0  0  0  0  0  0  0  0
    4.6929   -3.8708    1.6047 H   0  0  0  0  0  0  0  0  0  0  0  0
  1  9  1  0  0  0  0
  1  3  1  0  0  0  0
  1  2  1  0  0  0  0
  4  1  1  0  0  0  0
  5 19  1  0  0  0  0
  6 26  1  0  0  0  0
  7  1  1  0  0  0  0
  7 14  1  0  0  0  0
  8  1  1  0  0  0  0
 10  7  1  0  0  0  0
 11 10  1  0  0  0  0
 11 12  2  0  0  0  0
 12 13  1  0  0  0  0
 13 14  2  0  0  0  0
 13 31  1  0  0  0  0
 14 32  1  0  0  0  0
 15  8  1  0  0  0  0
 15 10  2  0  0  0  0
 16  8  1  0  0  0  0
 17 33  1  0  0  0  0
 17 16  2  0  0  0  0
 18 17  1  0  0  0  0
 19 18  2  0  0  0  0
 19 20  1  0  0  0  0
 20 21  2  0  0  0  0
 21 16  1  0  0  0  0
 21 36  1  0  0  0  0
 22 15  1  0  0  0  0
 23  9  1  0  0  0  0
 24 40  1  0  0  0  0
 24 23  2  0  0  0  0
 25 24  1  0  0  0  0
 26 25  2  0  0  0  0
 26 27  1  0  0  0  0
 27 28  2  0  0  0  0
 28 23  1  0  0  0  0
 28 43  1  0  0  0  0
 29 11  1  0  0  0  0
 30 12  1  0  0  0  0
 34 18  1  0  0  0  0
 35 20  1  0  0  0  0
 37 22  1  0  0  0  0
 38 22  1  0  0  0  0
 39 22  1  0  0  0  0
 41 25  1  0  0  0  0
 42 27  1  0  0  0  0
M  END
$$$$
