CSD_code = NINFEW | q = 0 | S = 0 | Stoichiometry = C30H22Br2HgN2S2 | MND = 4
 OpenBabel04212202073D

 59 62  0  0  0  0  0  0  0  0999 V2000
   -1.3461    4.0557    3.6891 Hg  0  0  0  0  0  0  0  0  0  0  0  0
   -0.9920    3.2908    5.9845 Br  0  0  0  0  0  0  0  0  0  0  0  0
    0.7778    8.5158    3.2065 S   0  0  0  0  0  0  0  0  0  0  0  0
    0.3179    5.9770    3.3786 N   0  0  0  0  0  0  0  0  0  0  0  0
   -0.0713    7.0485    2.7463 C   0  0  0  0  0  0  0  0  0  0  0  0
    1.7435    7.5778    4.3027 C   0  0  0  0  0  0  0  0  0  0  0  0
    2.7708    8.0006    5.1277 C   0  0  0  0  0  0  0  0  0  0  0  0
    3.0609    9.0387    5.1534 H   0  0  0  0  0  0  0  0  0  0  0  0
    3.4079    7.0549    5.9052 C   0  0  0  0  0  0  0  0  0  0  0  0
    4.2127    7.3590    6.5561 H   0  0  0  0  0  0  0  0  0  0  0  0
    3.0313    5.7139    5.8548 C   0  0  0  0  0  0  0  0  0  0  0  0
    3.5511    4.9940    6.4674 H   0  0  0  0  0  0  0  0  0  0  0  0
    2.0106    5.2892    5.0338 C   0  0  0  0  0  0  0  0  0  0  0  0
    1.7296    4.2480    4.9862 H   0  0  0  0  0  0  0  0  0  0  0  0
    1.3438    6.2277    4.2484 C   0  0  0  0  0  0  0  0  0  0  0  0
   -1.0916    7.0635    1.7504 C   0  0  0  0  0  0  0  0  0  0  0  0
   -1.3962    6.0921    1.3909 H   0  0  0  0  0  0  0  0  0  0  0  0
   -1.6759    8.1810    1.2832 C   0  0  0  0  0  0  0  0  0  0  0  0
   -1.3574    9.1383    1.6821 H   0  0  0  0  0  0  0  0  0  0  0  0
   -2.7460    8.2304    0.3136 C   0  0  0  0  0  0  0  0  0  0  0  0
   -3.3717    9.4579    0.0690 C   0  0  0  0  0  0  0  0  0  0  0  0
   -3.0316   10.3376    0.5971 H   0  0  0  0  0  0  0  0  0  0  0  0
   -4.4162    9.5542   -0.8277 C   0  0  0  0  0  0  0  0  0  0  0  0
   -4.8892   10.5092   -1.0031 H   0  0  0  0  0  0  0  0  0  0  0  0
   -4.8546    8.4270   -1.5043 C   0  0  0  0  0  0  0  0  0  0  0  0
   -5.6699    8.5011   -2.2084 H   0  0  0  0  0  0  0  0  0  0  0  0
   -4.2393    7.2054   -1.2782 C   0  0  0  0  0  0  0  0  0  0  0  0
   -4.5740    6.3261   -1.8073 H   0  0  0  0  0  0  0  0  0  0  0  0
   -3.1968    7.1020   -0.3798 C   0  0  0  0  0  0  0  0  0  0  0  0
   -2.7306    6.1420   -0.2247 H   0  0  0  0  0  0  0  0  0  0  0  0
   -1.7002    3.2908    1.3929 Br  0  0  0  0  0  0  0  0  0  0  0  0
   -3.4701    8.5159    4.1701 S   0  0  0  0  0  0  0  0  0  0  0  0
   -3.0104    5.9769    3.9987 N   0  0  0  0  0  0  0  0  0  0  0  0
   -2.6212    7.0485    4.6308 C   0  0  0  0  0  0  0  0  0  0  0  0
   -4.4356    7.5777    3.0739 C   0  0  0  0  0  0  0  0  0  0  0  0
   -5.4625    8.0004    2.2483 C   0  0  0  0  0  0  0  0  0  0  0  0
   -5.7523    9.0386    2.2223 H   0  0  0  0  0  0  0  0  0  0  0  0
   -6.0994    7.0547    1.4708 C   0  0  0  0  0  0  0  0  0  0  0  0
   -6.9039    7.3587    0.8194 H   0  0  0  0  0  0  0  0  0  0  0  0
   -5.7231    5.7136    1.5218 C   0  0  0  0  0  0  0  0  0  0  0  0
   -6.2429    4.9937    0.9092 H   0  0  0  0  0  0  0  0  0  0  0  0
   -4.7029    5.2890    2.3433 C   0  0  0  0  0  0  0  0  0  0  0  0
   -4.4221    4.2477    2.3913 H   0  0  0  0  0  0  0  0  0  0  0  0
   -4.0361    6.2276    3.1286 C   0  0  0  0  0  0  0  0  0  0  0  0
   -1.6010    7.0637    5.6268 C   0  0  0  0  0  0  0  0  0  0  0  0
   -1.2963    6.0923    5.9863 H   0  0  0  0  0  0  0  0  0  0  0  0
   -1.0166    8.1812    6.0938 C   0  0  0  0  0  0  0  0  0  0  0  0
   -1.3351    9.1386    5.6950 H   0  0  0  0  0  0  0  0  0  0  0  0
    0.0537    8.2304    7.0632 C   0  0  0  0  0  0  0  0  0  0  0  0
    0.6797    9.4579    7.3076 C   0  0  0  0  0  0  0  0  0  0  0  0
    0.3396   10.3377    6.7797 H   0  0  0  0  0  0  0  0  0  0  0  0
    1.7245    9.5541    8.2040 C   0  0  0  0  0  0  0  0  0  0  0  0
    2.1978   10.5090    8.3792 H   0  0  0  0  0  0  0  0  0  0  0  0
    2.1630    8.4268    8.8805 C   0  0  0  0  0  0  0  0  0  0  0  0
    2.9787    8.5008    9.5842 H   0  0  0  0  0  0  0  0  0  0  0  0
    1.5474    7.2053    8.6545 C   0  0  0  0  0  0  0  0  0  0  0  0
    1.8821    6.3259    9.1835 H   0  0  0  0  0  0  0  0  0  0  0  0
    0.5046    7.1021    7.7565 C   0  0  0  0  0  0  0  0  0  0  0  0
    0.0382    6.1422    7.6017 H   0  0  0  0  0  0  0  0  0  0  0  0
  1  2  1  0  0  0  0
  3  6  1  0  0  0  0
  4 15  1  0  0  0  0
  5  3  1  0  0  0  0
  5  4  2  0  0  0  0
  6  7  1  0  0  0  0
  7  8  1  0  0  0  0
  7  9  2  0  0  0  0
  9 10  1  0  0  0  0
 11  9  1  0  0  0  0
 11 12  1  0  0  0  0
 13 11  2  0  0  0  0
 14 13  1  0  0  0  0
 15  6  2  0  0  0  0
 15 13  1  0  0  0  0
 16  5  1  0  0  0  0
 17 16  1  0  0  0  0
 18 19  1  0  0  0  0
 18 16  2  0  0  0  0
 20 18  1  0  0  0  0
 21 20  1  0  0  0  0
 21 22  1  0  0  0  0
 23 21  2  0  0  0  0
 24 23  1  0  0  0  0
 25 27  2  0  0  0  0
 25 23  1  0  0  0  0
 26 25  1  0  0  0  0
 27 29  1  0  0  0  0
 28 27  1  0  0  0  0
 29 30  1  0  0  0  0
 29 20  2  0  0  0  0
 31  1  1  0  0  0  0
 32 34  1  0  0  0  0
 33 34  2  0  0  0  0
 34 45  1  0  0  0  0
 35 44  1  0  0  0  0
 35 32  1  0  0  0  0
 36 35  2  0  0  0  0
 37 36  1  0  0  0  0
 38 40  2  0  0  0  0
 38 36  1  0  0  0  0
 39 38  1  0  0  0  0
 40 42  1  0  0  0  0
 41 40  1  0  0  0  0
 42 43  1  0  0  0  0
 42 44  2  0  0  0  0
 44 33  1  0  0  0  0
 45 46  1  0  0  0  0
 45 47  2  0  0  0  0
 47 49  1  0  0  0  0
 48 47  1  0  0  0  0
 49 50  2  0  0  0  0
 49 58  1  0  0  0  0
 50 52  1  0  0  0  0
 51 50  1  0  0  0  0
 52 53  1  0  0  0  0
 52 54  2  0  0  0  0
 54 55  1  0  0  0  0
 56 54  1  0  0  0  0
 56 57  1  0  0  0  0
 58 56  2  0  0  0  0
 59 58  1  0  0  0  0
M  END
$$$$
