CSD_code = NINFUL | q = 0 | S = 0 | Stoichiometry = C22H28Cl2N4O2Ru | MND = 6
 OpenBabel04212202073D

 59 64  0  0  1  0  0  0  0  0999 V2000
   15.8327    6.0080    2.3805 Ru  0  0  0  0  0  0  0  0  0  0  0  0
   16.6180    7.8652    3.6254 Cl  0  0  0  0  0  0  0  0  0  0  0  0
   15.0416    4.2868    0.9559 Cl  0  0  0  0  0  0  0  0  0  0  0  0
   13.9216    6.6581    2.5058 N   0  0  0  0  0  0  0  0  0  0  0  0
   12.7226    6.4297    3.2861 C   0  0  2  0  0  0  0  0  0  0  0  0
   11.6722    7.2988    2.5521 C   0  0  0  0  0  0  0  0  0  0  0  0
   12.3838    7.9360    1.4895 O   0  0  0  0  0  0  0  0  0  0  0  0
   13.6441    7.4831    1.5473 C   0  0  0  0  0  0  0  0  0  0  0  0
   14.6712    7.8174    0.5922 C   0  0  0  0  0  0  0  0  0  0  0  0
   15.7947    7.1400    0.8846 N   0  0  0  0  0  0  0  0  0  0  0  0
   14.6084    8.6664   -0.5101 C   0  0  0  0  0  0  0  0  0  0  0  0
   15.7390    8.7980   -1.3064 C   0  0  0  0  0  0  0  0  0  0  0  0
   16.8976    8.0952   -1.0005 C   0  0  0  0  0  0  0  0  0  0  0  0
   16.8911    7.2642    0.1172 C   0  0  0  0  0  0  0  0  0  0  0  0
   17.9564    6.4609    0.6640 C   0  0  2  0  0  3  0  0  0  0  0  0
   17.7312    5.7567    1.7268 N   0  0  1  0  0  0  0  0  0  0  0  0
   19.2019    6.4235    0.1702 O   0  0  0  0  0  0  0  0  0  0  0  0
   19.9625    5.5875    1.0442 C   0  0  0  0  0  0  0  0  0  0  0  0
   18.9608    5.0986    2.1189 C   0  0  2  0  0  0  0  0  0  0  0  0
   12.9440    6.7592    4.7756 C   0  0  0  0  0  0  0  0  0  0  0  0
   13.3299    8.2176    5.0039 C   0  0  0  0  0  0  0  0  0  0  0  0
   11.7107    6.3700    5.5862 C   0  0  0  0  0  0  0  0  0  0  0  0
   18.7806    3.5712    2.2225 C   0  0  0  0  0  0  0  0  0  0  0  0
   18.3586    2.9379    0.9001 C   0  0  0  0  0  0  0  0  0  0  0  0
   20.0523    2.9309    2.7724 C   0  0  0  0  0  0  0  0  0  0  0  0
   15.8758    4.7726    4.0112 N   0  0  0  0  0  0  0  0  0  0  0  0
   16.6908    5.0130    5.0475 C   0  0  0  0  0  3  0  0  0  0  0  0
   16.7527    4.2010    6.1646 C   0  0  0  0  0  0  0  0  0  0  0  0
   15.9445    3.0768    6.2343 C   0  0  0  0  0  0  0  0  0  0  0  0
   15.1002    2.8230    5.1646 C   0  0  0  0  0  0  0  0  0  0  0  0
   15.0939    3.6868    4.0852 C   0  0  0  0  0  0  0  0  0  0  0  0
   12.4679    5.3635    3.2104 H   0  0  0  0  0  0  0  0  0  0  0  0
   10.8683    6.7013    2.1146 H   0  0  0  0  0  0  0  0  0  0  0  0
   11.2395    8.0755    3.1860 H   0  0  0  0  0  0  0  0  0  0  0  0
   13.6957    9.1978   -0.7238 H   0  0  0  0  0  0  0  0  0  0  0  0
   15.7172    9.4489   -2.1663 H   0  0  0  0  0  0  0  0  0  0  0  0
   17.7896    8.1784   -1.5992 H   0  0  0  0  0  0  0  0  0  0  0  0
   20.7730    6.1851    1.4692 H   0  0  0  0  0  0  0  0  0  0  0  0
   20.3872    4.7737    0.4527 H   0  0  0  0  0  0  0  0  0  0  0  0
   19.2420    5.4735    3.1130 H   0  0  0  0  0  0  0  0  0  0  0  0
   13.7891    6.1393    5.0992 H   0  0  0  0  0  0  0  0  0  0  0  0
   12.5475    8.9016    4.6828 H   0  0  0  0  0  0  0  0  0  0  0  0
   13.5091    8.3839    6.0631 H   0  0  0  0  0  0  0  0  0  0  0  0
   14.2486    8.4509    4.4705 H   0  0  0  0  0  0  0  0  0  0  0  0
   11.8954    6.5366    6.6442 H   0  0  0  0  0  0  0  0  0  0  0  0
   10.8488    6.9653    5.2931 H   0  0  0  0  0  0  0  0  0  0  0  0
   11.4683    5.3194    5.4415 H   0  0  0  0  0  0  0  0  0  0  0  0
   17.9667    3.4114    2.9401 H   0  0  0  0  0  0  0  0  0  0  0  0
   18.2082    1.8706    1.0407 H   0  0  0  0  0  0  0  0  0  0  0  0
   19.1095    3.0735    0.1250 H   0  0  0  0  0  0  0  0  0  0  0  0
   17.4167    3.3649    0.5628 H   0  0  0  0  0  0  0  0  0  0  0  0
   20.8847    3.0670    2.0855 H   0  0  0  0  0  0  0  0  0  0  0  0
   20.3225    3.3682    3.7311 H   0  0  0  0  0  0  0  0  0  0  0  0
   19.8985    1.8642    2.9134 H   0  0  0  0  0  0  0  0  0  0  0  0
   17.2978    5.9081    4.9816 H   0  0  0  0  0  0  0  0  0  0  0  0
   17.4284    4.4515    6.9671 H   0  0  0  0  0  0  0  0  0  0  0  0
   15.9718    2.4220    7.0916 H   0  0  0  0  0  0  0  0  0  0  0  0
   14.4489    1.9633    5.1612 H   0  0  0  0  0  0  0  0  0  0  0  0
   14.4575    3.4956    3.2293 H   0  0  0  0  0  0  0  0  0  0  0  0
  1  4  1  0  0  0  0
  1  2  1  0  0  0  0
  1 26  1  0  0  0  0
  3  1  1  0  0  0  0
  4  5  1  0  0  0  0
  5 32  1  6  0  0  0
  5 20  1  0  0  0  0
  6 34  1  0  0  0  0
  6  5  1  0  0  0  0
  7  8  1  0  0  0  0
  7  6  1  0  0  0  0
  8  4  1  0  0  0  0
  9 10  1  0  0  0  0
  9  8  2  0  0  0  0
 10  1  1  0  0  0  0
 11  9  1  0  0  0  0
 12 13  1  0  0  0  0
 12 11  2  0  0  0  0
 13 14  2  0  0  0  0
 14 10  1  0  0  0  0
 15 14  1  1  0  0  0
 15 16  1  0  0  0  0
 16 19  1  0  0  0  0
 16  1  1  0  0  0  0
 17 15  1  0  0  0  0
 17 18  1  0  0  0  0
 18 38  1  0  0  0  0
 18 19  1  0  0  0  0
 19 23  1  0  0  0  0
 19 40  1  0  0  0  0
 20 21  1  0  0  0  0
 20 41  1  0  0  0  0
 20 22  1  0  0  0  0
 21 43  1  0  0  0  0
 22 45  1  0  0  0  0
 23 25  1  0  0  0  0
 23 48  1  0  0  0  0
 24 49  1  0  0  0  0
 24 23  1  0  0  0  0
 25 54  1  0  0  0  0
 25 53  1  0  0  0  0
 26 31  1  0  0  0  0
 26 27  1  0  0  0  0
 27 28  1  0  0  0  0
 28 29  2  0  0  0  0
 28 56  1  0  0  0  0
 29 57  1  0  0  0  0
 30 29  1  0  0  0  0
 31 30  2  0  0  0  0
 33  6  1  0  0  0  0
 35 11  1  0  0  0  0
 36 12  1  0  0  0  0
 37 13  1  0  0  0  0
 39 18  1  0  0  0  0
 42 21  1  0  0  0  0
 44 21  1  0  0  0  0
 46 22  1  0  0  0  0
 47 22  1  0  0  0  0
 50 24  1  0  0  0  0
 51 24  1  0  0  0  0
 52 25  1  0  0  0  0
 55 27  1  0  0  0  0
 58 30  1  0  0  0  0
 59 31  1  0  0  0  0
M  END
$$$$
