CSD_code = NINFIZ | q = 1 | S = 0 | Stoichiometry = C27H33ClN5O2Ru(1+) | MND = 6
 OpenBabel04212202073D

 69 75  0  0  1  0  0  0  0  0999 V2000
    4.0225    6.0082   15.5210 Ru  0  0  0  0  0  0  0  0  0  0  0  0
    2.6966    4.1820   14.8976 Cl  0  0  0  0  0  0  0  0  0  0  0  0
    4.8466    6.0293   13.6302 N   0  0  0  0  0  0  0  0  0  0  0  0
    5.9792    5.5119   12.8783 C   0  0  2  0  0  0  0  0  0  0  0  0
    5.7547    6.1192   11.4735 C   0  0  0  0  0  0  0  0  0  0  0  0
    4.4549    6.7147   11.5332 O   0  0  0  0  0  0  0  0  0  0  0  0
    4.0499    6.6210   12.7966 C   0  0  0  0  0  0  0  0  0  0  0  0
    2.7980    7.1676   13.2721 C   0  0  0  0  0  0  0  0  0  0  0  0
    2.6945    7.0116   14.6034 N   0  0  0  0  0  0  0  0  0  0  0  0
    1.7706    7.7348   12.5216 C   0  0  0  0  0  0  0  0  0  0  0  0
    0.6112    8.1229   13.1775 C   0  0  0  0  0  0  0  0  0  0  0  0
    0.4813    7.9014   14.5446 C   0  0  0  0  0  0  0  0  0  0  0  0
    1.5494    7.3289   15.2256 C   0  0  0  0  0  0  0  0  0  0  0  0
    1.5742    6.8692   16.6010 C   0  0  2  0  0  3  0  0  0  0  0  0
    2.6199    6.2670   17.0662 N   0  0  1  0  0  0  0  0  0  0  0  0
    0.5210    6.9684   17.4002 O   0  0  0  0  0  0  0  0  0  0  0  0
    0.8475    6.2757   18.6081 C   0  0  0  0  0  0  0  0  0  0  0  0
    2.2975    5.7750   18.3992 C   0  0  2  0  0  0  0  0  0  0  0  0
    6.0228    3.9670   12.9175 C   0  0  0  0  0  0  0  0  0  0  0  0
    4.8380    3.3202   12.2061 C   0  0  0  0  0  0  0  0  0  0  0  0
    7.3498    3.4731   12.3490 C   0  0  0  0  0  0  0  0  0  0  0  0
    3.3137    6.2400   19.4570 C   0  0  0  0  0  0  0  0  0  0  0  0
    3.0021    5.6038   20.8086 C   0  0  0  0  0  0  0  0  0  0  0  0
    3.3789    7.7623   19.5655 C   0  0  0  0  0  0  0  0  0  0  0  0
    5.3676    4.7147   16.3940 N   0  0  0  0  0  0  0  0  0  0  0  0
    4.9279    3.6069   17.0006 C   0  0  0  0  0  3  0  0  0  0  0  0
    5.7706    2.6086   17.4581 C   0  0  0  0  0  0  0  0  0  0  0  0
    7.1391    2.7473   17.2929 C   0  0  0  0  0  0  0  0  0  0  0  0
    7.6036    3.8971   16.6713 C   0  0  0  0  0  0  0  0  0  0  0  0
    6.6927    4.8435   16.2407 C   0  0  0  0  0  0  0  0  0  0  0  0
    5.1195    7.6430   16.1002 N   0  0  0  0  0  0  0  0  0  0  0  0
    5.8099    7.6863   17.2474 C   0  0  0  0  0  3  0  0  0  0  0  0
    6.5110    8.7982   17.6749 C   0  0  0  0  0  0  0  0  0  0  0  0
    6.5123    9.9419   16.8910 C   0  0  0  0  0  0  0  0  0  0  0  0
    5.8023    9.9058   15.7001 C   0  0  0  0  0  0  0  0  0  0  0  0
    5.1288    8.7511   15.3474 C   0  0  0  0  0  0  0  0  0  0  0  0
    6.9070    5.8899   13.3251 H   0  0  0  0  0  0  0  0  0  0  0  0
    6.4772    6.9049   11.2343 H   0  0  0  0  0  0  0  0  0  0  0  0
    5.7564    5.3770   10.6756 H   0  0  0  0  0  0  0  0  0  0  0  0
    1.8854    7.8415   11.4553 H   0  0  0  0  0  0  0  0  0  0  0  0
   -0.2013    8.5641   12.6234 H   0  0  0  0  0  0  0  0  0  0  0  0
   -0.4262    8.1393   15.0747 H   0  0  0  0  0  0  0  0  0  0  0  0
    0.7472    6.9773   19.4382 H   0  0  0  0  0  0  0  0  0  0  0  0
    0.1333    5.4601   18.7371 H   0  0  0  0  0  0  0  0  0  0  0  0
    2.3226    4.6783   18.3681 H   0  0  0  0  0  0  0  0  0  0  0  0
    5.9637    3.6856   13.9750 H   0  0  0  0  0  0  0  0  0  0  0  0
    4.8427    3.5159   11.1369 H   0  0  0  0  0  0  0  0  0  0  0  0
    4.8815    2.2438   12.3472 H   0  0  0  0  0  0  0  0  0  0  0  0
    3.8996    3.6696   12.6295 H   0  0  0  0  0  0  0  0  0  0  0  0
    7.3997    2.3903   12.4191 H   0  0  0  0  0  0  0  0  0  0  0  0
    8.1907    3.8904   12.8989 H   0  0  0  0  0  0  0  0  0  0  0  0
    7.4522    3.7495   11.3024 H   0  0  0  0  0  0  0  0  0  0  0  0
    4.2887    5.8687   19.1197 H   0  0  0  0  0  0  0  0  0  0  0  0
    2.0291    5.9201   21.1752 H   0  0  0  0  0  0  0  0  0  0  0  0
    3.0049    4.5192   20.7357 H   0  0  0  0  0  0  0  0  0  0  0  0
    3.7511    5.8992   21.5383 H   0  0  0  0  0  0  0  0  0  0  0  0
    2.4865    8.1632   20.0392 H   0  0  0  0  0  0  0  0  0  0  0  0
    3.4841    8.2170   18.5815 H   0  0  0  0  0  0  0  0  0  0  0  0
    4.2327    8.0541   20.1710 H   0  0  0  0  0  0  0  0  0  0  0  0
    3.8548    3.5061   17.0981 H   0  0  0  0  0  0  0  0  0  0  0  0
    5.3535    1.7346   17.9316 H   0  0  0  0  0  0  0  0  0  0  0  0
    7.8222    1.9855   17.6333 H   0  0  0  0  0  0  0  0  0  0  0  0
    8.6581    4.0575   16.5143 H   0  0  0  0  0  0  0  0  0  0  0  0
    7.0386    5.7458   15.7486 H   0  0  0  0  0  0  0  0  0  0  0  0
    5.7979    6.7892   17.8515 H   0  0  0  0  0  0  0  0  0  0  0  0
    7.0451    8.7645   18.6107 H   0  0  0  0  0  0  0  0  0  0  0  0
    7.0456   10.8278   17.1955 H   0  0  0  0  0  0  0  0  0  0  0  0
    5.7673   10.7632   15.0474 H   0  0  0  0  0  0  0  0  0  0  0  0
    4.5798    8.7193   14.4141 H   0  0  0  0  0  0  0  0  0  0  0  0
  1 31  1  0  0  0  0
  1 25  1  0  0  0  0
  1 15  1  0  0  0  0
  2  1  1  0  0  0  0
  3  1  1  0  0  0  0
  4 19  1  0  0  0  0
  4 37  1  1  0  0  0
  4  3  1  0  0  0  0
  5  6  1  0  0  0  0
  5  4  1  0  0  0  0
  6  7  1  0  0  0  0
  7  8  2  0  0  0  0
  7  3  1  0  0  0  0
  8  9  1  0  0  0  0
  9 13  1  0  0  0  0
  9  1  1  0  0  0  0
 10 11  2  0  0  0  0
 10  8  1  0  0  0  0
 11 12  1  0  0  0  0
 12 42  1  0  0  0  0
 12 13  2  0  0  0  0
 14 13  1  6  0  0  0
 14 15  1  0  0  0  0
 14 16  1  0  0  0  0
 15 18  1  0  0  0  0
 16 17  1  0  0  0  0
 17 44  1  0  0  0  0
 17 43  1  0  0  0  0
 18 17  1  0  0  0  0
 18 22  1  0  0  0  0
 19 46  1  0  0  0  0
 20 48  1  0  0  0  0
 20 49  1  0  0  0  0
 20 19  1  0  0  0  0
 21 50  1  0  0  0  0
 21 51  1  0  0  0  0
 21 19  1  0  0  0  0
 22 24  1  0  0  0  0
 22 23  1  0  0  0  0
 23 54  1  0  0  0  0
 23 56  1  0  0  0  0
 24 57  1  0  0  0  0
 24 59  1  0  0  0  0
 25 26  1  0  0  0  0
 26 60  1  0  0  0  0
 26 27  1  0  0  0  0
 27 61  1  0  0  0  0
 28 27  2  0  0  0  0
 28 62  1  0  0  0  0
 29 28  1  0  0  0  0
 30 25  1  0  0  0  0
 30 29  2  0  0  0  0
 31 32  1  0  0  0  0
 32 33  1  0  0  0  0
 32 65  1  0  0  0  0
 33 66  1  0  0  0  0
 34 67  1  0  0  0  0
 34 33  2  0  0  0  0
 35 34  1  0  0  0  0
 36 35  2  0  0  0  0
 36 31  1  0  0  0  0
 38  5  1  0  0  0  0
 39  5  1  0  0  0  0
 40 10  1  0  0  0  0
 41 11  1  0  0  0  0
 45 18  1  0  0  0  0
 47 20  1  0  0  0  0
 52 21  1  0  0  0  0
 53 22  1  0  0  0  0
 55 23  1  0  0  0  0
 58 24  1  0  0  0  0
 63 29  1  0  0  0  0
 64 30  1  0  0  0  0
 68 35  1  0  0  0  0
 69 36  1  0  0  0  0
M  END
$$$$
