CSD_code = NINJUP | q = 0 | S = 0 | Stoichiometry = C28H33ClN2O4PRh | MND = 6
 OpenBabel04212202073D

 70 71  0  0  1  0  0  0  0  0999 V2000
   -0.3307    4.1121    2.8978 Rh  0  0  0  0  0  0  0  0  0  0  0  0
    1.8807    4.0704    3.4393 Cl  0  0  0  0  0 15  0  0  0  0  0  0
    0.4111    5.4388    1.2092 P   0  0  1  0  0  0  0  0  0  0  0  0
   -0.5891    2.2449    3.9375 C   0  0  0  0  0  3  0  0  0  0  0  0
   -0.9857    3.2726    4.7766 C   0  0  0  0  0  3  0  0  0  0  0  0
   -2.4359    3.5759    5.0895 C   0  0  0  0  0  0  0  0  0  0  0  0
   -3.0457    4.6164    4.1290 C   0  0  0  0  0  0  0  0  0  0  0  0
   -2.3726    4.6467    2.7757 C   0  0  2  0  0  0  0  0  0  0  0  0
   -2.1594    3.5133    1.9896 C   0  0  0  0  0  3  0  0  0  0  0  0
   -2.6197    2.1294    2.4012 C   0  0  0  0  0  0  0  0  0  0  0  0
   -1.5280    1.3516    3.1605 C   0  0  0  0  0  0  0  0  0  0  0  0
   -0.7606    6.4460    0.2353 C   0  0  0  0  0  0  0  0  0  0  0  0
   -1.0266    7.7717    0.5543 C   0  0  0  0  0  0  0  0  0  0  0  0
   -1.9727    8.4852   -0.1599 C   0  0  0  0  0  0  0  0  0  0  0  0
   -2.6674    7.8806   -1.1939 C   0  0  0  0  0  0  0  0  0  0  0  0
   -2.4143    6.5558   -1.5117 C   0  0  0  0  0  0  0  0  0  0  0  0
   -1.4715    5.8416   -0.7975 C   0  0  0  0  0  0  0  0  0  0  0  0
    1.2946    4.5582   -0.1010 C   0  0  1  0  0  3  0  0  0  0  0  0
    1.5393    3.1951    0.0298 C   0  0  0  0  0  0  0  0  0  0  0  0
    2.1771    2.5058   -0.9806 C   0  0  0  0  0  0  0  0  0  0  0  0
    2.5488    3.2211   -2.1201 C   0  0  0  0  0  0  0  0  0  0  0  0
    1.7013    5.1720   -1.2923 C   0  0  0  0  0  0  0  0  0  0  0  0
    3.5313    3.3317   -4.2450 C   0  0  0  0  0  0  0  0  0  0  0  0
    1.8369    7.0672   -2.6681 C   0  0  0  0  0  0  0  0  0  0  0  0
    1.5840    6.6703    1.8313 C   0  0  2  0  0  3  0  0  0  0  0  0
    2.8186    7.0203    1.3051 C   0  0  0  0  0  0  0  0  0  0  0  0
    3.6290    7.9056    1.9897 C   0  0  0  0  0  0  0  0  0  0  0  0
    3.1823    8.3961    3.2154 C   0  0  0  0  0  0  0  0  0  0  0  0
    1.2541    7.1987    3.0881 C   0  0  0  0  0  0  0  0  0  0  0  0
    3.4907    9.6845    5.1469 C   0  0  0  0  0  0  0  0  0  0  0  0
   -0.1495    7.2461    4.9579 C   0  0  0  0  0  0  0  0  0  0  0  0
    2.3094    4.5197   -2.2694 N   0  0  0  0  0  4  0  0  0  0  0  0
    2.0196    8.0444    3.7535 N   0  0  0  0  0  4  0  0  0  0  0  0
    3.1676    2.5665   -3.1129 O   0  0  0  0  0  0  0  0  0  0  0  0
    1.4544    6.4817   -1.4413 O   0  0  0  0  0  0  0  0  0  0  0  0
    3.9641    9.2577    3.8845 O   0  0  0  0  0  0  0  0  0  0  0  0
    0.0866    6.8158    3.6294 O   0  0  0  0  0  0  0  0  0  0  0  0
    0.4014    1.8178    4.0917 H   0  0  0  0  0  0  0  0  0  0  0  0
   -0.2689    3.6117    5.5252 H   0  0  0  0  0  0  0  0  0  0  0  0
   -3.0051    2.6454    5.0501 H   0  0  0  0  0  0  0  0  0  0  0  0
   -2.5076    3.9530    6.1121 H   0  0  0  0  0  0  0  0  0  0  0  0
   -4.1161    4.4206    3.9948 H   0  0  0  0  0  0  0  0  0  0  0  0
   -2.9589    5.6110    4.5718 H   0  0  0  0  0  0  0  0  0  0  0  0
   -2.4756    5.6045    2.2640 H   0  0  0  0  0  0  0  0  0  0  0  0
   -2.0899    3.6607    0.9123 H   0  0  0  0  0  0  0  0  0  0  0  0
   -2.8962    1.5648    1.5084 H   0  0  0  0  0  0  0  0  0  0  0  0
   -3.5179    2.2215    3.0140 H   0  0  0  0  0  0  0  0  0  0  0  0
   -1.9866    0.6299    3.8458 H   0  0  0  0  0  0  0  0  0  0  0  0
   -0.9339    0.7813    2.4421 H   0  0  0  0  0  0  0  0  0  0  0  0
   -0.4845    8.2468    1.3592 H   0  0  0  0  0  0  0  0  0  0  0  0
   -2.1683    9.5183    0.0898 H   0  0  0  0  0  0  0  0  0  0  0  0
   -3.4042    8.4397   -1.7519 H   0  0  0  0  0  0  0  0  0  0  0  0
   -2.9542    6.0806   -2.3183 H   0  0  0  0  0  0  0  0  0  0  0  0
   -1.2657    4.8096   -1.0515 H   0  0  0  0  0  0  0  0  0  0  0  0
    1.2241    2.6965    0.9413 H   0  0  0  0  0  0  0  0  0  0  0  0
    2.3932    1.4530   -0.9199 H   0  0  0  0  0  0  0  0  0  0  0  0
    3.1528    6.5939    0.3731 H   0  0  0  0  0  0  0  0  0  0  0  0
    4.5949    8.2046    1.6196 H   0  0  0  0  0  0  0  0  0  0  0  0
    4.0151    2.6394   -4.9305 H   0  0  0  0  0  0  0  0  0  0  0  0
    2.6490    3.7750   -4.7122 H   0  0  0  0  0  0  0  0  0  0  0  0
    4.2198    4.1322   -3.9656 H   0  0  0  0  0  0  0  0  0  0  0  0
    1.5522    8.1149   -2.5990 H   0  0  0  0  0  0  0  0  0  0  0  0
    2.9144    6.9745   -2.8233 H   0  0  0  0  0  0  0  0  0  0  0  0
    1.3190    6.5879   -3.5019 H   0  0  0  0  0  0  0  0  0  0  0  0
    4.2582   10.3440    5.5464 H   0  0  0  0  0  0  0  0  0  0  0  0
    2.5448   10.2217    5.0440 H   0  0  0  0  0  0  0  0  0  0  0  0
    3.3392    8.8305    5.8104 H   0  0  0  0  0  0  0  0  0  0  0  0
   -1.1095    6.8247    5.2470 H   0  0  0  0  0  0  0  0  0  0  0  0
    0.6389    6.8812    5.6195 H   0  0  0  0  0  0  0  0  0  0  0  0
   -0.1784    8.3375    5.0064 H   0  0  0  0  0  0  0  0  0  0  0  0
  3 12  1  6  0  0  0
  4 38  1  0  0  0  0
  4  5  1  0  0  0  0
  5  6  1  0  0  0  0
  5 39  1  0  0  0  0
  6 41  1  0  0  0  0
  7 43  1  0  0  0  0
  7  6  1  0  0  0  0
  8 44  1  6  0  0  0
  8  1  1  0  0  0  0
  8  7  1  0  0  0  0
  9 10  1  0  0  0  0
  9  8  1  0  0  0  0
 10 47  1  0  0  0  0
 10 11  1  0  0  0  0
 11 48  1  0  0  0  0
 11  4  1  0  0  0  0
 12 13  1  0  0  0  0
 13 50  1  0  0  0  0
 14 51  1  0  0  0  0
 14 13  2  0  0  0  0
 15 14  1  0  0  0  0
 16 15  2  0  0  0  0
 16 17  1  0  0  0  0
 17 12  2  0  0  0  0
 18 19  1  0  0  0  0
 18  3  1  6  0  0  0
 19 55  1  0  0  0  0
 20 56  1  0  0  0  0
 20 19  2  0  0  0  0
 21 20  1  0  0  0  0
 22 18  1  0  0  0  0
 23 61  1  0  0  0  0
 23 34  1  0  0  0  0
 24 62  1  0  0  0  0
 24 35  1  0  0  0  0
 25  3  1  1  0  0  0
 25 29  1  0  0  0  0
 26 25  1  0  0  0  0
 26 27  2  0  0  0  0
 27 28  1  0  0  0  0
 28 33  2  0  0  0  0
 28 36  1  0  0  0  0
 29 37  1  0  0  0  0
 29 33  2  0  0  0  0
 30 65  1  0  0  0  0
 30 67  1  0  0  0  0
 31 70  1  0  0  0  0
 31 68  1  0  0  0  0
 31 69  1  0  0  0  0
 32 21  2  0  0  0  0
 32 22  2  0  0  0  0
 34 21  1  0  0  0  0
 35 22  1  0  0  0  0
 36 30  1  0  0  0  0
 37 31  1  0  0  0  0
 40  6  1  0  0  0  0
 42  7  1  0  0  0  0
 45  9  1  0  0  0  0
 46 10  1  0  0  0  0
 49 11  1  0  0  0  0
 52 15  1  0  0  0  0
 53 16  1  0  0  0  0
 54 17  1  0  0  0  0
 57 26  1  0  0  0  0
 58 27  1  0  0  0  0
 59 23  1  0  0  0  0
 60 23  1  0  0  0  0
 63 24  1  0  0  0  0
 64 24  1  0  0  0  0
 66 30  1  0  0  0  0
M  END
$$$$
