CSD_code = NINKEB | q = 0 | S = 0 | Stoichiometry = C17H22Cl2Zr | MND = 12
 OpenBabel04212202073D

 42 42  0  0  1  0  0  0  0  0999 V2000
   -0.4902    9.3904    0.9249 Zr  0  0  0  0  0  0  0  0  0  0  0  0
    0.7936    8.7527    2.7674 Cl  0  0  0  0  0  0  0  0  0  0  0  0
   -2.3810    8.4964    1.9975 Cl  0  0  0  0  0  0  0  0  0  0  0  0
    1.0159    8.1755   -0.5664 C   0  0  2  0  0  0  0  0  0  0  0  0
    0.2511    9.0425   -1.3940 C   0  0  0  0  0  3  0  0  0  0  0  0
   -1.0978    8.6087   -1.3723 C   0  0  0  0  0  0  0  0  0  0  0  0
   -1.1704    7.4634   -0.5543 C   0  0  0  0  0  0  0  0  0  0  0  0
    0.1196    7.2039   -0.0398 C   0  0  0  0  0  3  0  0  0  0  0  0
    2.5263    8.2109   -0.4336 C   0  0  0  0  0  0  0  0  0  0  0  0
    2.9548    9.5873    0.1072 C   0  0  0  0  0  0  0  0  0  0  0  0
    2.6941   10.3794   -0.5938 H   0  0  0  0  0  0  0  0  0  0  0  0
    4.0341    9.6095    0.2476 H   0  0  0  0  0  0  0  0  0  0  0  0
    2.4769    9.7754    1.0746 H   0  0  0  0  0  0  0  0  0  0  0  0
    3.0189    7.1378    0.5416 C   0  0  0  0  0  0  0  0  0  0  0  0
    2.5955    7.3074    1.5299 H   0  0  0  0  0  0  0  0  0  0  0  0
    4.1030    7.1801    0.6204 H   0  0  0  0  0  0  0  0  0  0  0  0
    2.7415    6.1428    0.2060 H   0  0  0  0  0  0  0  0  0  0  0  0
    3.1652    8.0105   -1.8264 C   0  0  0  0  0  0  0  0  0  0  0  0
    2.9274    8.8723   -2.4540 H   0  0  0  0  0  0  0  0  0  0  0  0
    4.2507    7.9746   -1.7135 H   0  0  0  0  0  0  0  0  0  0  0  0
    2.6892    6.7483   -2.5535 C   0  0  0  0  0  0  0  0  0  0  0  0
    3.0094    5.8639   -1.9988 H   0  0  0  0  0  0  0  0  0  0  0  0
    1.5997    6.7460   -2.6084 H   0  0  0  0  0  0  0  0  0  0  0  0
    3.2673    6.6902   -3.9313 C   0  0  0  0  0  0  0  0  0  0  0  0
    2.5548    6.7202   -5.0414 C   0  0  0  0  0  0  0  0  0  0  0  0
    0.1627   11.7142    0.2599 C   0  0  0  0  0  0  0  0  0  0  0  0
   -1.1884   11.5591   -0.1325 C   0  0  0  0  0  0  0  0  0  0  0  0
   -1.9654   11.3966    1.0330 C   0  0  0  0  0  0  0  0  0  0  0  0
   -1.0983   11.4516    2.1489 C   0  0  0  0  0  0  0  0  0  0  0  0
    0.2167   11.6524    1.6720 C   0  0  0  0  0  3  0  0  0  0  0  0
    0.6493    9.7974   -2.0605 H   0  0  0  0  0  0  0  0  0  0  0  0
   -1.9005    8.9930   -1.9903 H   0  0  0  0  0  0  0  0  0  0  0  0
   -2.0454    6.8432   -0.4057 H   0  0  0  0  0  0  0  0  0  0  0  0
    0.3836    6.3462    0.5668 H   0  0  0  0  0  0  0  0  0  0  0  0
    4.3478    6.6355   -3.9789 H   0  0  0  0  0  0  0  0  0  0  0  0
    1.4785    6.7764   -5.0193 H   0  0  0  0  0  0  0  0  0  0  0  0
    3.0100    6.6824   -6.0165 H   0  0  0  0  0  0  0  0  0  0  0  0
    0.9750   12.0181   -0.3877 H   0  0  0  0  0  0  0  0  0  0  0  0
   -1.5742   11.6902   -1.1359 H   0  0  0  0  0  0  0  0  0  0  0  0
   -3.0463   11.3369    1.0754 H   0  0  0  0  0  0  0  0  0  0  0  0
   -1.4011   11.4288    3.1897 H   0  0  0  0  0  0  0  0  0  0  0  0
    1.0888   11.8459    2.2863 H   0  0  0  0  0  0  0  0  0  0  0  0
  1  3  1  0  0  0  0
  1  2  1  0  0  0  0
  4  9  1  1  0  0  0
  4  8  1  0  0  0  0
  4  1  1  0  0  0  0
  5  6  1  0  0  0  0
  5  4  1  0  0  0  0
  6  7  2  0  0  0  0
  7 33  1  0  0  0  0
  7  8  1  0  0  0  0
  8 34  1  0  0  0  0
  9 10  1  0  0  0  0
  9 14  1  0  0  0  0
 10 12  1  0  0  0  0
 10 13  1  0  0  0  0
 11 10  1  0  0  0  0
 14 16  1  0  0  0  0
 14 15  1  0  0  0  0
 17 14  1  0  0  0  0
 18 20  1  0  0  0  0
 18  9  1  0  0  0  0
 19 18  1  0  0  0  0
 21 22  1  0  0  0  0
 21 18  1  0  0  0  0
 23 21  1  0  0  0  0
 24 21  1  0  0  0  0
 25 36  1  0  0  0  0
 25 24  2  0  0  0  0
 26 30  1  0  0  0  0
 27 26  2  0  0  0  0
 27 28  1  0  0  0  0
 28 40  1  0  0  0  0
 28 29  2  0  0  0  0
 29 41  1  0  0  0  0
 30 29  1  0  0  0  0
 30 42  1  0  0  0  0
 31  5  1  0  0  0  0
 32  6  1  0  0  0  0
 35 24  1  0  0  0  0
 37 25  1  0  0  0  0
 38 26  1  0  0  0  0
 39 27  1  0  0  0  0
M  END
$$$$
