CSD_code = NINKOM | q = 0 | S = 0 | Stoichiometry = C6H6Cl2N2Pt | MND = 4
 OpenBabel04212202073D

 17 18  0  0  0  0  0  0  0  0999 V2000
   -1.2784    5.8009    3.7535 Pt  0  0  0  0  0  0  0  0  0  0  0  0
   -0.3024    3.8138    3.9034 Cl  0  0  0  0  0  0  0  0  0  0  0  0
   -1.1637    5.7127    1.5271 Cl  0  0  0  0  0  0  0  0  0  0  0  0
   -1.4831    6.0939    5.7408 N   0  0  0  0  0  0  0  0  0  0  0  0
   -2.1323    7.5336    3.7246 N   0  0  0  0  0  0  0  0  0  0  0  0
   -2.3654    8.0558    2.8812 H   0  0  0  0  0  0  0  0  0  0  0  0
   -1.1158    5.2914    6.7352 C   0  0  0  0  0  0  0  0  0  0  0  0
   -0.6510    4.3592    6.4404 H   0  0  0  0  0  0  0  0  0  0  0  0
   -1.3135    5.6237    8.0625 C   0  0  0  0  0  0  0  0  0  0  0  0
   -1.0002    4.9443    8.8380 H   0  0  0  0  0  0  0  0  0  0  0  0
   -1.9179    6.8387    8.3775 C   0  0  0  0  0  0  0  0  0  0  0  0
   -2.0816    7.1200    9.4061 H   0  0  0  0  0  0  0  0  0  0  0  0
   -2.3030    7.6761    7.3511 C   0  0  0  0  0  0  0  0  0  0  0  0
   -2.7748    8.6260    7.5470 H   0  0  0  0  0  0  0  0  0  0  0  0
   -2.0752    7.2828    6.0291 C   0  0  0  0  0  0  0  0  0  0  0  0
   -2.4243    8.0578    4.8728 C   0  0  0  0  0  0  0  0  0  0  0  0
   -2.9048    9.0246    4.9791 H   0  0  0  0  0  0  0  0  0  0  0  0
  1  2  1  0  0  0  0
  1  4  1  0  0  0  0
  3  1  1  0  0  0  0
  4 15  1  0  0  0  0
  4  7  1  0  0  0  0
  5  1  1  0  0  0  0
  5 16  1  0  0  0  0
  6  5  1  0  0  0  0
  7  9  2  0  0  0  0
  8  7  1  0  0  0  0
  9 11  1  0  0  0  0
  9 10  1  0  0  0  0
 11 12  1  0  0  0  0
 13 14  1  0  0  0  0
 13 11  2  0  0  0  0
 15 13  1  0  0  0  0
 16 17  1  0  0  0  0
 16 15  2  0  0  0  0
M  END
$$$$
