CSD_code = NIPVIR | q = 0 | S = 0 | Stoichiometry = C8H16Cl3O3Sc | MND = 6
 OpenBabel04212202073D

 31 30  0  0  0  0  0  0  0  0999 V2000
    1.1510    2.0607    5.5280 Sc  0  0  0  0  0  0  0  0  0  0  0  0
   -0.2676    3.7652    4.9502 Cl  0  0  0  0  0  0  0  0  0  0  0  0
    3.4021    2.2569    5.8579 Cl  0  0  0  0  0  0  0  0  0  0  0  0
   -1.1427    0.3799    6.0262 Cl  0  0  0  0  0  0  0  0  0  0  0  0
    0.4718    0.3639    5.6692 O   0  0  0  0  0  0  0  0  0  0  0  0
    1.4738    1.7638    3.4177 O   0  0  0  0  0  0  0  0  0  0  0  0
    2.3977    2.5268    2.6210 C   0  0  0  0  0  0  0  0  0  0  0  0
    2.2959    1.9149    1.2315 C   0  0  0  0  0  0  0  0  0  0  0  0
    0.7916    1.6726    1.1282 C   0  0  0  0  0  0  0  0  0  0  0  0
    0.4173    1.2773    2.5592 C   0  0  0  0  0  0  0  0  0  0  0  0
    0.8077    2.4471    7.6288 O   0  0  0  0  0  0  0  0  0  0  0  0
    1.4677    1.6795    8.6434 C   0  0  0  0  0  0  0  0  0  0  0  0
    0.3355    0.9159    9.3304 C   0  0  0  0  0  0  0  0  0  0  0  0
   -0.8450    1.8995    9.2469 C   0  0  0  0  0  0  0  0  0  0  0  0
   -0.3434    2.9939    8.2891 C   0  0  0  0  0  0  0  0  0  0  0  0
    3.3864    2.4353    3.0812 H   0  0  0  0  0  0  0  0  0  0  0  0
    2.0825    3.5821    2.6107 H   0  0  0  0  0  0  0  0  0  0  0  0
    2.6747    2.5765    0.4571 H   0  0  0  0  0  0  0  0  0  0  0  0
    2.8410    0.9708    1.1977 H   0  0  0  0  0  0  0  0  0  0  0  0
    0.2818    2.5935    0.8448 H   0  0  0  0  0  0  0  0  0  0  0  0
    0.5356    0.8947    0.4130 H   0  0  0  0  0  0  0  0  0  0  0  0
   -0.5356    1.7232    2.8762 H   0  0  0  0  0  0  0  0  0  0  0  0
    0.3748    0.1884    2.6891 H   0  0  0  0  0  0  0  0  0  0  0  0
    1.9642    2.3708    9.3398 H   0  0  0  0  0  0  0  0  0  0  0  0
    2.2121    1.0358    8.1635 H   0  0  0  0  0  0  0  0  0  0  0  0
    0.5891    0.6475   10.3529 H   0  0  0  0  0  0  0  0  0  0  0  0
    0.1139    0.0068    8.7708 H   0  0  0  0  0  0  0  0  0  0  0  0
   -1.7310    1.4092    8.8485 H   0  0  0  0  0  0  0  0  0  0  0  0
   -1.0888    2.3229   10.2193 H   0  0  0  0  0  0  0  0  0  0  0  0
   -0.0287    3.8889    8.8440 H   0  0  0  0  0  0  0  0  0  0  0  0
   -1.0732    3.2764    7.5254 H   0  0  0  0  0  0  0  0  0  0  0  0
  1  5  1  0  0  0  0
  1  3  1  0  0  0  0
  2  1  1  0  0  0  0
  5  4  1  0  0  0  0
  7 16  1  0  0  0  0
  7  6  1  0  0  0  0
  8  7  1  0  0  0  0
  9  8  1  0  0  0  0
  9 10  1  0  0  0  0
 10 23  1  0  0  0  0
 10 22  1  0  0  0  0
 10  6  1  0  0  0  0
 11 15  1  0  0  0  0
 11 12  1  0  0  0  0
 12 13  1  0  0  0  0
 12 24  1  0  0  0  0
 13 26  1  0  0  0  0
 14 13  1  0  0  0  0
 14 29  1  0  0  0  0
 15 30  1  0  0  0  0
 15 14  1  0  0  0  0
 17  7  1  0  0  0  0
 18  8  1  0  0  0  0
 19  8  1  0  0  0  0
 20  9  1  0  0  0  0
 21  9  1  0  0  0  0
 25 12  1  0  0  0  0
 27 13  1  0  0  0  0
 28 14  1  0  0  0  0
 31 15  1  0  0  0  0
M  END
$$$$
