CSD_code = NIQKOO | q = 0 | S = 0 | Stoichiometry = C15H13Cl2N3Pd | MND = 4
 OpenBabel04212202073D

 34 37  0  0  0  0  0  0  0  0999 V2000
    6.7626    7.8985    9.3234 Pd  0  0  0  0  0  0  0  0  0  0  0  0
    5.0738    6.4975    5.8946 C   0  0  0  0  0  0  0  0  0  0  0  0
    4.6395    5.9225    4.7087 C   0  0  0  0  0  0  0  0  0  0  0  0
    3.7254    5.3457    4.6939 H   0  0  0  0  0  0  0  0  0  0  0  0
    5.3618    6.0955    3.5402 C   0  0  0  0  0  0  0  0  0  0  0  0
    5.0102    5.6506    2.6212 H   0  0  0  0  0  0  0  0  0  0  0  0
    6.5305    6.8360    3.5516 C   0  0  0  0  0  0  0  0  0  0  0  0
    7.0941    6.9716    2.6408 H   0  0  0  0  0  0  0  0  0  0  0  0
    6.9729    7.4083    4.7336 C   0  0  0  0  0  0  0  0  0  0  0  0
    7.8798    7.9935    4.7456 H   0  0  0  0  0  0  0  0  0  0  0  0
    6.2494    7.2416    5.9006 C   0  0  0  0  0  0  0  0  0  0  0  0
    6.6004    7.7221    6.8242 H   0  0  0  0  0  0  0  0  0  0  0  0
    4.2962    6.3022    7.1773 C   0  0  0  0  0  0  0  0  0  0  0  0
    4.1260    7.2801    7.6532 H   0  0  0  0  0  0  0  0  0  0  0  0
    3.3474    5.7984    6.9870 H   0  0  0  0  0  0  0  0  0  0  0  0
    5.1308    4.1594    8.1638 C   0  0  0  0  0  0  0  0  0  0  0  0
    4.4530    3.5362    7.6166 H   0  0  0  0  0  0  0  0  0  0  0  0
    6.1577    3.8227    9.0156 C   0  0  0  0  0  0  0  0  0  0  0  0
    6.4731    2.8398    9.2965 H   0  0  0  0  0  0  0  0  0  0  0  0
    6.7043    5.0527    9.4201 C   0  0  0  0  0  0  0  0  0  0  0  0
    7.8660    5.4064   10.2078 C   0  0  0  0  0  0  0  0  0  0  0  0
    8.6125    4.4825   10.9358 C   0  0  0  0  0  0  0  0  0  0  0  0
    8.3076    3.4486   10.9556 H   0  0  0  0  0  0  0  0  0  0  0  0
    9.7287    4.9150   11.6272 C   0  0  0  0  0  0  0  0  0  0  0  0
   10.3207    4.2190   12.2014 H   0  0  0  0  0  0  0  0  0  0  0  0
   10.0704    6.2598   11.5693 C   0  0  0  0  0  0  0  0  0  0  0  0
   10.9342    6.6373   12.0917 H   0  0  0  0  0  0  0  0  0  0  0  0
    9.2809    7.1230   10.8293 C   0  0  0  0  0  0  0  0  0  0  0  0
    9.5047    8.1817   10.7585 H   0  0  0  0  0  0  0  0  0  0  0  0
    5.0742    5.5022    8.0930 N   0  0  0  0  0  0  0  0  0  0  0  0
    6.0103    6.0472    8.8490 N   0  0  0  0  0  0  0  0  0  0  0  0
    8.2051    6.7121   10.1641 N   0  0  0  0  0  0  0  0  0  0  0  0
    4.9789    9.1124    8.7473 Cl  0  0  0  0  0  0  0  0  0  0  0  0
    7.8052    9.7881    9.8322 Cl  0  0  0  0  0  0  0  0  0  0  0  0
  1 34  1  0  0  0  0
  1 32  1  0  0  0  0
  2 11  1  0  0  0  0
  2 13  1  0  0  0  0
  3  2  2  0  0  0  0
  4  3  1  0  0  0  0
  5  7  2  0  0  0  0
  5  3  1  0  0  0  0
  6  5  1  0  0  0  0
  7  9  1  0  0  0  0
  8  7  1  0  0  0  0
  9 10  1  0  0  0  0
  9 11  2  0  0  0  0
 11 12  1  0  0  0  0
 13 14  1  0  0  0  0
 13 30  1  0  0  0  0
 15 13  1  0  0  0  0
 16 18  2  0  0  0  0
 17 16  1  0  0  0  0
 18 19  1  0  0  0  0
 18 20  1  0  0  0  0
 20 21  2  0  0  0  0
 21 22  1  0  0  0  0
 22 23  1  0  0  0  0
 22 24  2  0  0  0  0
 24 25  1  0  0  0  0
 26 24  1  0  0  0  0
 26 27  1  0  0  0  0
 28 26  2  0  0  0  0
 29 28  1  0  0  0  0
 30 16  1  0  0  0  0
 30 31  1  0  0  0  0
 31  1  1  0  0  0  0
 31 20  1  0  0  0  0
 32 21  1  0  0  0  0
 32 28  1  0  0  0  0
 33  1  1  0  0  0  0
M  END
$$$$
