CSD_code = NIRGOK | q = 0 | S = 0 | Stoichiometry = C22H18Cl2PdS2 | MND = 4
 OpenBabel04212202073D

 45 49  0  0  0  0  0  0  0  0999 V2000
    3.0638   17.3507    7.9681 Pd  0  0  0  0  0  0  0  0  0  0  0  0
    3.0022   16.9366    5.7643 Cl  0  0  0  0  0  0  0  0  0  0  0  0
    5.2735   17.0236    7.9247 Cl  0  0  0  0  0  0  0  0  0  0  0  0
    3.9161   19.7312    9.5877 C   0  0  0  0  0  0  0  0  0  0  0  0
    4.7578   19.5404    8.9171 H   0  0  0  0  0  0  0  0  0  0  0  0
    4.2369   20.3757   10.4018 H   0  0  0  0  0  0  0  0  0  0  0  0
    3.0792   20.1714    9.0412 H   0  0  0  0  0  0  0  0  0  0  0  0
    3.4395   18.0902   10.2283 S   0  0  1  0  0  3  0  0  0  0  0  0
    0.9062   17.3885   10.9718 C   0  0  0  0  0  0  0  0  0  0  0  0
    1.8369   18.4087   10.9540 C   0  0  0  0  0  0  0  0  0  0  0  0
    1.5586   19.6410   11.5693 C   0  0  0  0  0  0  0  0  0  0  0  0
    2.3057   20.4180   11.5768 H   0  0  0  0  0  0  0  0  0  0  0  0
    0.3478   19.8541   12.1619 C   0  0  0  0  0  0  0  0  0  0  0  0
    0.1337   20.8038   12.6296 H   0  0  0  0  0  0  0  0  0  0  0  0
   -0.6398   18.8476   12.1829 C   0  0  0  0  0  0  0  0  0  0  0  0
   -0.3560   17.5936   11.5822 C   0  0  0  0  0  0  0  0  0  0  0  0
   -1.3465   16.5885   11.5999 C   0  0  0  0  0  0  0  0  0  0  0  0
   -1.1295   15.6352   11.1413 H   0  0  0  0  0  0  0  0  0  0  0  0
   -2.5583   16.8173   12.1889 C   0  0  0  0  0  0  0  0  0  0  0  0
   -3.3110   16.0431   12.1982 H   0  0  0  0  0  0  0  0  0  0  0  0
   -2.8379   18.0560   12.7867 C   0  0  0  0  0  0  0  0  0  0  0  0
   -3.8009   18.2171   13.2478 H   0  0  0  0  0  0  0  0  0  0  0  0
   -1.8989   19.0492   12.7838 C   0  0  0  0  0  0  0  0  0  0  0  0
   -2.1070   20.0060   13.2403 H   0  0  0  0  0  0  0  0  0  0  0  0
    1.2125   16.1089   10.2901 C   0  0  0  0  0  0  0  0  0  0  0  0
    1.1492   16.0762    8.9092 C   0  0  0  0  0  0  0  0  0  0  0  0
    1.4958   14.9084    8.1888 C   0  0  0  0  0  0  0  0  0  0  0  0
    1.4346   14.8941    7.1066 H   0  0  0  0  0  0  0  0  0  0  0  0
    1.8969   13.7952    8.8756 C   0  0  0  0  0  0  0  0  0  0  0  0
    2.1745   12.9028    8.3346 H   0  0  0  0  0  0  0  0  0  0  0  0
    1.9723   13.7861   10.2863 C   0  0  0  0  0  0  0  0  0  0  0  0
    1.6303   14.9608   11.0076 C   0  0  0  0  0  0  0  0  0  0  0  0
    1.7246   14.9532   12.4149 C   0  0  0  0  0  0  0  0  0  0  0  0
    1.4692   15.8504   12.9594 H   0  0  0  0  0  0  0  0  0  0  0  0
    2.1346   13.8292   13.0761 C   0  0  0  0  0  0  0  0  0  0  0  0
    2.2063   13.8312   14.1536 H   0  0  0  0  0  0  0  0  0  0  0  0
    2.4698   12.6667   12.3658 C   0  0  0  0  0  0  0  0  0  0  0  0
    2.7945   11.7901   12.9061 H   0  0  0  0  0  0  0  0  0  0  0  0
    2.3909   12.6462   11.0008 C   0  0  0  0  0  0  0  0  0  0  0  0
    2.6532   11.7567   10.4470 H   0  0  0  0  0  0  0  0  0  0  0  0
    0.6515   17.6001    8.0857 S   0  0  2  0  0  3  0  0  0  0  0  0
   -0.1453   17.0026    6.5697 C   0  0  0  0  0  0  0  0  0  0  0  0
   -0.7437   17.8330    6.2056 H   0  0  0  0  0  0  0  0  0  0  0  0
   -0.7855   16.1630    6.8237 H   0  0  0  0  0  0  0  0  0  0  0  0
    0.6172   16.7409    5.8356 H   0  0  0  0  0  0  0  0  0  0  0  0
  1 41  1  0  0  0  0
  1  8  1  0  0  0  0
  2  1  1  0  0  0  0
  3  1  1  0  0  0  0
  4  6  1  0  0  0  0
  5  4  1  0  0  0  0
  7  4  1  0  0  0  0
  8  4  1  6  0  0  0
  8 10  1  0  0  0  0
  9 16  1  0  0  0  0
 10  9  2  0  0  0  0
 10 11  1  0  0  0  0
 11 12  1  0  0  0  0
 11 13  2  0  0  0  0
 13 15  1  0  0  0  0
 13 14  1  0  0  0  0
 15 23  1  0  0  0  0
 16 17  1  0  0  0  0
 16 15  2  0  0  0  0
 17 19  2  0  0  0  0
 18 17  1  0  0  0  0
 19 20  1  0  0  0  0
 19 21  1  0  0  0  0
 21 22  1  0  0  0  0
 23 21  2  0  0  0  0
 23 24  1  0  0  0  0
 25  9  1  0  0  0  0
 25 32  1  0  0  0  0
 26 25  2  0  0  0  0
 27 29  2  0  0  0  0
 27 26  1  0  0  0  0
 28 27  1  0  0  0  0
 29 31  1  0  0  0  0
 30 29  1  0  0  0  0
 31 39  2  0  0  0  0
 31 32  1  0  0  0  0
 32 33  2  0  0  0  0
 33 34  1  0  0  0  0
 33 35  1  0  0  0  0
 35 36  1  0  0  0  0
 37 38  1  0  0  0  0
 37 35  2  0  0  0  0
 39 37  1  0  0  0  0
 40 39  1  0  0  0  0
 41 42  1  6  0  0  0
 41 26  1  0  0  0  0
 42 44  1  0  0  0  0
 43 42  1  0  0  0  0
 45 42  1  0  0  0  0
M  END
$$$$
