CSD_code = NIRHUT | q = 0 | S = 0 | Stoichiometry = C14H9BrMnN3O3 | MND = 6
 OpenBabel04212202073D

 31 33  0  0  0  0  0  0  0  0999 V2000
    0.9588    9.4232    7.4875 Mn  0  0  0  0  0  0  0  0  0  0  0  0
    0.6484   10.4575    5.2246 Br  0  0  0  0  0  0  0  0  0  0  0  0
    1.4147    8.2236   10.1226 O   0  0  0  0  0  1  0  0  0  0  0  0
    3.6378   10.6315    7.2564 O   0  0  0  0  0  1  0  0  0  0  0  0
    1.9772    7.1076    5.9952 O   0  0  0  0  0  1  0  0  0  0  0  0
    0.0822   11.0968    8.2224 N   0  0  0  0  0  0  0  0  0  0  0  0
   -1.7640    9.8157    7.6827 N   0  0  0  0  0  2  0  0  0  0  0  0
   -0.8719    8.9373    7.4155 N   0  0  0  0  0  0  0  0  0  0  0  0
    1.2418    8.7038    9.0932 C   0  0  0  0  0  2  0  0  0  0  0  0
    2.6066   10.1569    7.3921 C   0  0  0  0  0  2  0  0  0  0  0  0
    1.5536    7.9770    6.6086 C   0  0  0  0  0  2  0  0  0  0  0  0
    0.5890   12.2525    8.6467 C   0  0  0  0  0  3  0  0  0  0  0  0
    1.6671   12.3147    8.7243 H   0  0  0  0  0  0  0  0  0  0  0  0
   -0.1968   13.3413    8.9728 C   0  0  0  0  0  0  0  0  0  0  0  0
    0.2708   14.2536    9.3054 H   0  0  0  0  0  0  0  0  0  0  0  0
   -1.5814   13.2449    8.8593 C   0  0  0  0  0  0  0  0  0  0  0  0
   -2.2120   14.0860    9.1022 H   0  0  0  0  0  0  0  0  0  0  0  0
   -2.1268   12.0573    8.4291 C   0  0  0  0  0  0  0  0  0  0  0  0
   -3.1871   11.9084    8.3115 H   0  0  0  0  0  0  0  0  0  0  0  0
   -1.2650   11.0003    8.1161 C   0  0  0  0  0  0  0  0  0  0  0  0
   -1.4207    7.7473    6.9141 C   0  0  0  0  0  0  0  0  0  0  0  0
   -2.4918    7.8076    6.0201 C   0  0  0  0  0  0  0  0  0  0  0  0
   -2.8670    8.7745    5.7202 H   0  0  0  0  0  0  0  0  0  0  0  0
   -3.0160    6.6428    5.4965 C   0  0  0  0  0  0  0  0  0  0  0  0
   -3.8281    6.6951    4.7876 H   0  0  0  0  0  0  0  0  0  0  0  0
   -2.5004    5.4136    5.8757 C   0  0  0  0  0  0  0  0  0  0  0  0
   -2.9118    4.5045    5.4644 H   0  0  0  0  0  0  0  0  0  0  0  0
   -1.4542    5.3502    6.7842 C   0  0  0  0  0  0  0  0  0  0  0  0
   -1.0612    4.3932    7.0917 H   0  0  0  0  0  0  0  0  0  0  0  0
   -0.9069    6.5079    7.3001 C   0  0  0  0  0  0  0  0  0  0  0  0
   -0.1058    6.4589    8.0267 H   0  0  0  0  0  0  0  0  0  0  0  0
  1  6  1  0  0  0  0
  1  9  1  0  0  0  0
  2  1  1  0  0  0  0
  4 10  1  0  0  0  0
  5 11  1  0  0  0  0
  6 12  1  0  0  0  0
  7 20  1  0  0  0  0
  8  1  1  0  0  0  0
  8  7  1  0  0  0  0
  9  3  1  0  0  0  0
 10  1  1  0  0  0  0
 11  1  1  0  0  0  0
 12 13  1  0  0  0  0
 12 14  1  0  0  0  0
 14 15  1  0  0  0  0
 16 14  2  0  0  0  0
 16 17  1  0  0  0  0
 18 16  1  0  0  0  0
 19 18  1  0  0  0  0
 20  6  1  0  0  0  0
 20 18  2  0  0  0  0
 21 30  1  0  0  0  0
 21  8  1  0  0  0  0
 22 21  2  0  0  0  0
 23 22  1  0  0  0  0
 24 26  2  0  0  0  0
 24 22  1  0  0  0  0
 25 24  1  0  0  0  0
 26 28  1  0  0  0  0
 27 26  1  0  0  0  0
 28 29  1  0  0  0  0
 28 30  2  0  0  0  0
 30 31  1  0  0  0  0
M  END
$$$$
