CSD_code = NISFOK | q = 0 | S = 0 | Stoichiometry = C30H22Cl2Hf | MND = 12
 OpenBabel04212202073D

 55 60  0  0  1  0  0  0  0  0999 V2000
   -1.5177    6.1125   15.8323 Hf  0  0  0  0  0  0  0  0  0  0  0  0
   -1.8212    3.8787   16.3766 Cl  0  0  0  0  0  0  0  0  0  0  0  0
   -2.8340    5.7932   13.9635 Cl  0  0  0  0  0  0  0  0  0  0  0  0
    1.4814    7.0274   17.5626 C   0  0  0  0  0  0  0  0  0  0  0  0
    1.5339    8.0664   17.8569 H   0  0  0  0  0  0  0  0  0  0  0  0
    2.0080    6.0465   18.3651 C   0  0  0  0  0  0  0  0  0  0  0  0
    2.4633    6.3136   19.3061 H   0  0  0  0  0  0  0  0  0  0  0  0
    1.9709    4.6953   17.9862 C   0  0  0  0  0  0  0  0  0  0  0  0
    2.3892    3.9572   18.6529 H   0  0  0  0  0  0  0  0  0  0  0  0
    1.4407    4.3040   16.7823 C   0  0  0  0  0  0  0  0  0  0  0  0
    1.4425    3.2661   16.4838 H   0  0  0  0  0  0  0  0  0  0  0  0
    0.9264    5.2837   15.9146 C   0  0  0  0  0  0  0  0  0  0  0  0
    0.9174    6.6675   16.3254 C   0  0  0  0  0  0  0  0  0  0  0  0
    0.3866    7.4378   15.2404 C   0  0  1  0  0  0  0  0  0  0  0  0
    0.4774    8.5117   15.1431 H   0  0  0  0  0  0  0  0  0  0  0  0
    0.1895    6.5462   14.1380 C   0  0  0  0  0  0  0  0  0  0  0  0
    0.4526    5.2252   14.5708 C   0  0  0  0  0  0  0  0  0  0  0  0
    0.4141    4.3378   13.9542 H   0  0  0  0  0  0  0  0  0  0  0  0
   -0.1873    6.9682   12.7866 C   0  0  0  0  0  0  0  0  0  0  0  0
   -1.0253    8.0701   12.6072 C   0  0  0  0  0  0  0  0  0  0  0  0
   -1.4274    8.5816   13.4731 H   0  0  0  0  0  0  0  0  0  0  0  0
   -1.3801    8.4806   11.3376 C   0  0  0  0  0  0  0  0  0  0  0  0
   -2.0400    9.3261   11.2121 H   0  0  0  0  0  0  0  0  0  0  0  0
   -0.9010    7.8038   10.2273 C   0  0  0  0  0  0  0  0  0  0  0  0
   -1.1821    8.1239    9.2352 H   0  0  0  0  0  0  0  0  0  0  0  0
   -0.0670    6.7116   10.3947 C   0  0  0  0  0  0  0  0  0  0  0  0
    0.3070    6.1805    9.5320 H   0  0  0  0  0  0  0  0  0  0  0  0
    0.2885    6.2941   11.6638 C   0  0  0  0  0  0  0  0  0  0  0  0
    0.9466    5.4478   11.7906 H   0  0  0  0  0  0  0  0  0  0  0  0
   -3.3138    9.1146   15.3310 C   0  0  0  0  0  0  0  0  0  0  0  0
   -2.6788    9.9657   15.1208 H   0  0  0  0  0  0  0  0  0  0  0  0
   -4.5182    8.9598   14.6919 C   0  0  0  0  0  0  0  0  0  0  0  0
   -4.8242    9.6772   13.9456 H   0  0  0  0  0  0  0  0  0  0  0  0
   -5.3762    7.8897   14.9957 C   0  0  0  0  0  0  0  0  0  0  0  0
   -6.3165    7.8132   14.4720 H   0  0  0  0  0  0  0  0  0  0  0  0
   -5.0453    6.9529   15.9416 C   0  0  0  0  0  0  0  0  0  0  0  0
   -5.7141    6.1376   16.1762 H   0  0  0  0  0  0  0  0  0  0  0  0
   -3.8168    7.0701   16.6144 C   0  0  0  0  0  0  0  0  0  0  0  0
   -2.9348    8.1721   16.3054 C   0  0  0  0  0  0  0  0  0  0  0  0
   -1.8099    8.0851   17.1815 C   0  0  1  0  0  0  0  0  0  0  0  0
   -1.0817    8.8673   17.3432 H   0  0  0  0  0  0  0  0  0  0  0  0
   -2.0074    6.9559   18.0354 C   0  0  0  0  0  0  0  0  0  0  0  0
   -3.2134    6.3082   17.6519 C   0  0  0  0  0  0  0  0  0  0  0  0
   -3.6832    5.4955   18.1877 H   0  0  0  0  0  0  0  0  0  0  0  0
   -1.1827    6.5905   19.1935 C   0  0  0  0  0  0  0  0  0  0  0  0
   -0.9807    5.2498   19.5240 C   0  0  0  0  0  0  0  0  0  0  0  0
   -1.3943    4.4730   18.8956 H   0  0  0  0  0  0  0  0  0  0  0  0
   -0.2340    4.9116   20.6367 C   0  0  0  0  0  0  0  0  0  0  0  0
   -0.0811    3.8710   20.8800 H   0  0  0  0  0  0  0  0  0  0  0  0
    0.3182    5.8989   21.4363 C   0  0  0  0  0  0  0  0  0  0  0  0
    0.8996    5.6311   22.3060 H   0  0  0  0  0  0  0  0  0  0  0  0
    0.1206    7.2319   21.1172 C   0  0  0  0  0  0  0  0  0  0  0  0
    0.5447    8.0062   21.7397 H   0  0  0  0  0  0  0  0  0  0  0  0
   -0.6241    7.5773   20.0056 C   0  0  0  0  0  0  0  0  0  0  0  0
   -0.7943    8.6183   19.7738 H   0  0  0  0  0  0  0  0  0  0  0  0
  1  2  1  0  0  0  0
  1 40  1  0  0  0  0
  3  1  1  0  0  0  0
  4  5  1  0  0  0  0
  4  6  1  0  0  0  0
  6  7  1  0  0  0  0
  8  6  2  0  0  0  0
  8  9  1  0  0  0  0
 10  8  1  0  0  0  0
 11 10  1  0  0  0  0
 12 13  1  0  0  0  0
 12 10  2  0  0  0  0
 13  4  2  0  0  0  0
 14 15  1  6  0  0  0
 14  1  1  0  0  0  0
 14 13  1  0  0  0  0
 16 17  2  0  0  0  0
 16 14  1  0  0  0  0
 17 12  1  0  0  0  0
 18 17  1  0  0  0  0
 19 16  1  0  0  0  0
 20 19  1  0  0  0  0
 20 21  1  0  0  0  0
 22 20  2  0  0  0  0
 23 22  1  0  0  0  0
 24 26  2  0  0  0  0
 24 22  1  0  0  0  0
 25 24  1  0  0  0  0
 26 28  1  0  0  0  0
 27 26  1  0  0  0  0
 28 29  1  0  0  0  0
 28 19  2  0  0  0  0
 30 39  1  0  0  0  0
 31 30  1  0  0  0  0
 32 34  1  0  0  0  0
 32 30  2  0  0  0  0
 33 32  1  0  0  0  0
 34 36  2  0  0  0  0
 35 34  1  0  0  0  0
 36 37  1  0  0  0  0
 36 38  1  0  0  0  0
 38 43  1  0  0  0  0
 39 38  2  0  0  0  0
 39 40  1  0  0  0  0
 40 41  1  1  0  0  0
 40 42  1  0  0  0  0
 42 45  1  0  0  0  0
 43 42  2  0  0  0  0
 43 44  1  0  0  0  0
 45 46  2  0  0  0  0
 45 54  1  0  0  0  0
 46 48  1  0  0  0  0
 47 46  1  0  0  0  0
 48 49  1  0  0  0  0
 48 50  2  0  0  0  0
 50 51  1  0  0  0  0
 52 50  1  0  0  0  0
 52 53  1  0  0  0  0
 54 52  2  0  0  0  0
 55 54  1  0  0  0  0
M  END
$$$$
