CSD_code = NISLIM | q = 0 | S = 0 | Stoichiometry = C25H29ClN2Pd | MND = 4
 OpenBabel04212202073D

 58 61  0  0  1  0  0  0  0  0999 V2000
    1.8015    2.6081    2.5170 Pd  0  0  2  0  0  0  0  0  0  0  0  0
    1.9208    4.6938    3.6624 Cl  0  0  0  0  0  0  0  0  0  0  0  0
    3.4750    2.0176    3.5743 N   0  0  0  0  0  4  0  0  0  0  0  0
    3.4137    2.7263    4.3164 H   0  0  0  0  0  0  0  0  0  0  0  0
    3.4180    1.0919    4.0036 H   0  0  0  0  0  0  0  0  0  0  0  0
    0.2539    3.3257    1.5836 N   0  0  0  0  0  0  0  0  0  0  0  0
    2.9181    1.2158   -0.0459 C   0  0  0  0  0  0  0  0  0  0  0  0
    4.1679    1.6845    0.3802 C   0  0  0  0  0  0  0  0  0  0  0  0
    4.8853    2.5247   -0.4688 C   0  0  0  0  0  0  0  0  0  0  0  0
    5.8757    2.8470   -0.1814 H   0  0  0  0  0  0  0  0  0  0  0  0
    4.3724    2.9403   -1.6827 C   0  0  0  0  0  0  0  0  0  0  0  0
    4.9484    3.5996   -2.3152 H   0  0  0  0  0  0  0  0  0  0  0  0
    3.1269    2.4938   -2.0902 C   0  0  0  0  0  0  0  0  0  0  0  0
    2.7173    2.8092   -3.0391 H   0  0  0  0  0  0  0  0  0  0  0  0
    2.4186    1.6266   -1.2812 C   0  0  0  0  0  0  0  0  0  0  0  0
    1.4532    1.2587   -1.6004 H   0  0  0  0  0  0  0  0  0  0  0  0
    2.1103    0.2685    0.7667 C   0  0  1  0  0  3  0  0  0  0  0  0
    1.5347    0.7221    1.8716 C   0  0  0  0  0  0  0  0  0  0  0  0
    4.7574    2.1817    2.8673 C   0  0  0  0  0  0  0  0  0  0  0  0
    4.8174    1.2087    1.6585 C   0  0  0  0  0  0  0  0  0  0  0  0
    5.8720    1.0232    1.4416 H   0  0  0  0  0  0  0  0  0  0  0  0
    4.3626    0.2621    1.9604 H   0  0  0  0  0  0  0  0  0  0  0  0
    4.8540    3.6449    2.4363 C   0  0  0  0  0  0  0  0  0  0  0  0
    3.9953    3.9048    1.8022 H   0  0  0  0  0  0  0  0  0  0  0  0
    5.7740    3.8311    1.8902 H   0  0  0  0  0  0  0  0  0  0  0  0
    4.8337    4.2942    3.3100 H   0  0  0  0  0  0  0  0  0  0  0  0
    5.9007    1.8413    3.8341 C   0  0  0  0  0  0  0  0  0  0  0  0
    5.8278    2.4475    4.7354 H   0  0  0  0  0  0  0  0  0  0  0  0
    6.8655    2.0377    3.3742 H   0  0  0  0  0  0  0  0  0  0  0  0
    5.8663    0.7906    4.1192 H   0  0  0  0  0  0  0  0  0  0  0  0
    1.9705   -1.1290    0.2192 C   0  0  0  0  0  0  0  0  0  0  0  0
    2.9511   -1.5980    0.1301 H   0  0  0  0  0  0  0  0  0  0  0  0
    1.5243   -1.1083   -0.7744 H   0  0  0  0  0  0  0  0  0  0  0  0
    1.3459   -1.7322    0.8738 H   0  0  0  0  0  0  0  0  0  0  0  0
    0.6961   -0.0318    2.7994 C   0  0  0  0  0  0  0  0  0  0  0  0
    1.2555   -0.8842    3.7584 C   0  0  0  0  0  0  0  0  0  0  0  0
    2.3274   -1.0397    3.7690 H   0  0  0  0  0  0  0  0  0  0  0  0
    0.4572   -1.5423    4.6738 C   0  0  0  0  0  0  0  0  0  0  0  0
    0.9084   -2.1962    5.4072 H   0  0  0  0  0  0  0  0  0  0  0  0
   -0.9173   -1.3726    4.6524 C   0  0  0  0  0  0  0  0  0  0  0  0
   -1.5391   -1.8859    5.3709 H   0  0  0  0  0  0  0  0  0  0  0  0
   -1.4896   -0.5476    3.6968 C   0  0  0  0  0  0  0  0  0  0  0  0
   -2.5632   -0.4241    3.6661 H   0  0  0  0  0  0  0  0  0  0  0  0
   -0.6966    0.1147    2.7807 C   0  0  0  0  0  0  0  0  0  0  0  0
   -1.1472    0.7410    2.0205 H   0  0  0  0  0  0  0  0  0  0  0  0
    0.3924    3.9739    0.4284 C   0  0  0  0  0  3  0  0  0  0  0  0
    1.3015    3.7751   -0.1335 H   0  0  0  0  0  0  0  0  0  0  0  0
   -0.5623    4.8543   -0.0448 C   0  0  0  0  0  0  0  0  0  0  0  0
   -0.4029    5.3622   -0.9836 H   0  0  0  0  0  0  0  0  0  0  0  0
   -1.7160    5.0893    0.6973 C   0  0  0  0  0  0  0  0  0  0  0  0
   -1.8431    4.4036    1.9031 C   0  0  0  0  0  0  0  0  0  0  0  0
   -2.7110    4.5525    2.5271 H   0  0  0  0  0  0  0  0  0  0  0  0
   -0.8440    3.5421    2.3106 C   0  0  0  0  0  0  0  0  0  0  0  0
   -0.9108    3.0099    3.2582 H   0  0  0  0  0  0  0  0  0  0  0  0
   -2.7574    6.0568    0.2397 C   0  0  0  0  0  0  0  0  0  0  0  0
   -2.5562    7.0380    0.6706 H   0  0  0  0  0  0  0  0  0  0  0  0
   -3.7470    5.7448    0.5651 H   0  0  0  0  0  0  0  0  0  0  0  0
   -2.7486    6.1554   -0.8430 H   0  0  0  0  0  0  0  0  0  0  0  0
  1  3  1  0  0  0  0
  1  2  1  1  0  0  0
  3  5  1  0  0  0  0
  3  4  1  0  0  0  0
  6 53  1  0  0  0  0
  6  1  1  0  0  0  0
  7  8  1  0  0  0  0
  7 17  1  0  0  0  0
  8 20  1  0  0  0  0
  9 10  1  0  0  0  0
  9  8  2  0  0  0  0
 11  9  1  0  0  0  0
 12 11  1  0  0  0  0
 13 11  2  0  0  0  0
 13 15  1  0  0  0  0
 14 13  1  0  0  0  0
 15  7  2  0  0  0  0
 16 15  1  0  0  0  0
 17 31  1  6  0  0  0
 17 18  1  0  0  0  0
 18  1  2  0  0  0  0
 18 35  1  0  0  0  0
 19  3  1  0  0  0  0
 19 27  1  0  0  0  0
 20 22  1  0  0  0  0
 20 19  1  0  0  0  0
 21 20  1  0  0  0  0
 23 19  1  0  0  0  0
 23 26  1  0  0  0  0
 24 23  1  0  0  0  0
 25 23  1  0  0  0  0
 27 30  1  0  0  0  0
 27 28  1  0  0  0  0
 29 27  1  0  0  0  0
 31 34  1  0  0  0  0
 32 31  1  0  0  0  0
 33 31  1  0  0  0  0
 35 36  1  0  0  0  0
 36 37  1  0  0  0  0
 36 38  2  0  0  0  0
 38 39  1  0  0  0  0
 40 38  1  0  0  0  0
 40 41  1  0  0  0  0
 42 40  2  0  0  0  0
 43 42  1  0  0  0  0
 44 35  2  0  0  0  0
 44 42  1  0  0  0  0
 45 44  1  0  0  0  0
 46  6  1  0  0  0  0
 47 46  1  0  0  0  0
 48 46  1  0  0  0  0
 48 50  2  0  0  0  0
 49 48  1  0  0  0  0
 50 51  1  0  0  0  0
 51 53  2  0  0  0  0
 51 52  1  0  0  0  0
 53 54  1  0  0  0  0
 55 57  1  0  0  0  0
 55 56  1  0  0  0  0
 55 50  1  0  0  0  0
 58 55  1  0  0  0  0
M  END
$$$$
