CSD_code = NISZIY | q = 0 | S = 0 | Stoichiometry = C14H22Cl3Si2Ta | MND = 11
 OpenBabel04212202073D

 42 41  0  0  1  0  0  0  0  0999 V2000
    1.1265    2.8718    3.7070 Ta  0  0  0  0  0  0  0  0  0  0  0  0
    1.5707    0.9980    2.4557 Cl  0  0  0  0  0 15  0  0  0  0  0  0
    2.1296    4.4104    2.3872 Cl  0  0  0  0  0  0  0  0  0  0  0  0
    3.0106    2.4004    4.9243 Cl  0  0  0  0  0 15  0  0  0  0  0  0
   -0.1349    2.1219    6.9705 Si  0  0  0  0  0  0  0  0  0  0  0  0
   -1.5474    2.7384    0.5274 Si  0  0  0  0  0  0  0  0  0  0  0  0
   -0.0196    3.4838    5.6679 C   0  0  1  0  0  3  0  0  0  0  0  0
   -0.8569    3.5309    4.4948 C   0  0  2  0  0  0  0  0  0  0  0  0
   -1.1044    2.5978    3.4244 C   0  0  0  0  0  3  0  0  0  0  0  0
   -1.3902    3.4393    2.2651 C   0  0  0  0  0  0  0  0  0  0  0  0
   -1.2508    4.7730    2.6063 C   0  0  0  0  0  0  0  0  0  0  0  0
   -0.8471    4.8568    3.9635 C   0  0  2  0  0  3  0  0  0  0  0  0
   -0.1777    5.6857    4.9041 C   0  0  0  0  0  0  0  0  0  0  0  0
    0.3189    4.8720    5.8993 C   0  0  0  0  0  0  0  0  0  0  0  0
    1.2860    2.3147    8.2239 C   0  0  0  0  0  0  0  0  0  0  0  0
   -1.8377    2.2515    7.8243 C   0  0  0  0  0  0  0  0  0  0  0  0
   -0.0015    0.4405    6.0667 C   0  0  0  0  0  0  0  0  0  0  0  0
   -1.8326    0.8577    0.6546 C   0  0  0  0  0  0  0  0  0  0  0  0
   -2.9865    3.5839   -0.3961 C   0  0  0  0  0  0  0  0  0  0  0  0
    0.1046    3.0855   -0.3650 C   0  0  0  0  0  0  0  0  0  0  0  0
   -1.6243    1.6531    3.5348 H   0  0  0  0  0  0  0  0  0  0  0  0
   -1.3722    5.6004    1.9287 H   0  0  0  0  0  0  0  0  0  0  0  0
   -0.0326    6.7492    4.8272 H   0  0  0  0  0  0  0  0  0  0  0  0
    0.8864    5.2107    6.7500 H   0  0  0  0  0  0  0  0  0  0  0  0
    1.2049    3.2454    8.7764 H   0  0  0  0  0  0  0  0  0  0  0  0
    2.2493    2.3065    7.7238 H   0  0  0  0  0  0  0  0  0  0  0  0
    1.2795    1.5055    8.9466 H   0  0  0  0  0  0  0  0  0  0  0  0
   -1.9378    3.1912    8.3576 H   0  0  0  0  0  0  0  0  0  0  0  0
   -1.9707    1.4496    8.5424 H   0  0  0  0  0  0  0  0  0  0  0  0
   -2.6506    2.1940    7.1073 H   0  0  0  0  0  0  0  0  0  0  0  0
   -0.8698    0.2524    5.4418 H   0  0  0  0  0  0  0  0  0  0  0  0
    0.0645   -0.3782    6.7764 H   0  0  0  0  0  0  0  0  0  0  0  0
    0.8848    0.3965    5.4331 H   0  0  0  0  0  0  0  0  0  0  0  0
   -2.7433    0.6220    1.1969 H   0  0  0  0  0  0  0  0  0  0  0  0
   -1.0037    0.3754    1.1644 H   0  0  0  0  0  0  0  0  0  0  0  0
   -1.9169    0.4103   -0.3306 H   0  0  0  0  0  0  0  0  0  0  0  0
   -2.8423    4.6574   -0.4594 H   0  0  0  0  0  0  0  0  0  0  0  0
   -3.9362    3.4088    0.0988 H   0  0  0  0  0  0  0  0  0  0  0  0
   -3.0674    3.2033   -1.4090 H   0  0  0  0  0  0  0  0  0  0  0  0
    0.3120    4.1509   -0.4082 H   0  0  0  0  0  0  0  0  0  0  0  0
    0.0983    2.7108   -1.3838 H   0  0  0  0  0  0  0  0  0  0  0  0
    0.9321    2.6114    0.1572 H   0  0  0  0  0  0  0  0  0  0  0  0
  3  1  1  0  0  0  0
  5 16  1  0  0  0  0
  5 15  1  0  0  0  0
  6 18  1  0  0  0  0
  6 10  1  0  0  0  0
  7 14  1  0  0  0  0
  7  5  1  1  0  0  0
  8  1  1  6  0  0  0
  8  7  1  0  0  0  0
  9 21  1  0  0  0  0
  9  8  1  0  0  0  0
 10 11  2  0  0  0  0
 10  9  1  0  0  0  0
 12 11  1  6  0  0  0
 12  8  1  0  0  0  0
 12 13  1  0  0  0  0
 13 14  2  0  0  0  0
 14 24  1  0  0  0  0
 15 25  1  0  0  0  0
 15 27  1  0  0  0  0
 16 28  1  0  0  0  0
 16 29  1  0  0  0  0
 17 32  1  0  0  0  0
 17  5  1  0  0  0  0
 18 35  1  0  0  0  0
 18 34  1  0  0  0  0
 19 38  1  0  0  0  0
 19  6  1  0  0  0  0
 20 42  1  0  0  0  0
 20  6  1  0  0  0  0
 22 11  1  0  0  0  0
 23 13  1  0  0  0  0
 26 15  1  0  0  0  0
 30 16  1  0  0  0  0
 31 17  1  0  0  0  0
 33 17  1  0  0  0  0
 36 18  1  0  0  0  0
 37 19  1  0  0  0  0
 39 19  1  0  0  0  0
 40 20  1  0  0  0  0
 41 20  1  0  0  0  0
M  END
$$$$
