CSD_code = NITYEU | q = 0 | S = 0 | Stoichiometry = C18H42Br2OsP2 | MND = 4
 OpenBabel04212202073D

 65 64  0  0  0  0  0  0  0  0999 V2000
   -0.9162   14.8910    7.2615 Os  0  0  0  0  0  0  0  0  0  0  0  0
   -2.4235   15.9602    8.8969 Br  0  0  0  0  0  0  0  0  0  0  0  0
   -1.8673   12.9519    6.0664 Br  0  0  0  0  0  0  0  0  0  0  0  0
    0.1250   13.5058    8.8218 P   0  0  0  0  0  4  0  0  0  0  0  0
    0.7255   14.3950   10.3670 C   0  0  0  0  0  0  0  0  0  0  0  0
    1.0542   15.8589   10.0604 C   0  0  0  0  0  0  0  0  0  0  0  0
    1.9050   13.7787   11.1155 C   0  0  0  0  0  0  0  0  0  0  0  0
   -0.8665   12.0537    9.4458 C   0  0  0  0  0  0  0  0  0  0  0  0
   -2.2422   12.5376    9.9014 C   0  0  0  0  0  0  0  0  0  0  0  0
   -0.2167   11.1898   10.5212 C   0  0  0  0  0  0  0  0  0  0  0  0
    1.6799   12.7156    8.1301 C   0  0  0  0  0  0  0  0  0  0  0  0
    2.4250   13.7943    7.3422 C   0  0  0  0  0  0  0  0  0  0  0  0
    1.3843   11.5232    7.2239 C   0  0  0  0  0  0  0  0  0  0  0  0
   -1.4875   16.4415    5.6165 P   0  0  0  0  0  4  0  0  0  0  0  0
   -0.6292   18.0902    5.8734 C   0  0  0  0  0  0  0  0  0  0  0  0
   -1.2984   18.9446    6.9469 C   0  0  0  0  0  0  0  0  0  0  0  0
    0.8165   17.7914    6.2738 C   0  0  0  0  0  0  0  0  0  0  0  0
   -3.2914   16.9005    5.4894 C   0  0  0  0  0  0  0  0  0  0  0  0
   -4.1358   15.6284    5.4371 C   0  0  0  0  0  0  0  0  0  0  0  0
   -3.6798   17.8509    4.3621 C   0  0  0  0  0  0  0  0  0  0  0  0
   -0.9807   15.9422    3.8748 C   0  0  0  0  0  0  0  0  0  0  0  0
   -0.7274   17.0641    2.8706 C   0  0  0  0  0  0  0  0  0  0  0  0
    0.2488   15.0298    3.9061 C   0  0  0  0  0  0  0  0  0  0  0  0
   -0.1584   14.3848   11.0194 H   0  0  0  0  0  0  0  0  0  0  0  0
    1.9900   15.9475    9.5091 H   0  0  0  0  0  0  0  0  0  0  0  0
    0.2615   16.3383    9.4852 H   0  0  0  0  0  0  0  0  0  0  0  0
    1.1631   16.4173   10.9888 H   0  0  0  0  0  0  0  0  0  0  0  0
    1.7659   12.7230   11.3225 H   0  0  0  0  0  0  0  0  0  0  0  0
    2.8303   13.9052   10.5558 H   0  0  0  0  0  0  0  0  0  0  0  0
    2.0254   14.2939   12.0681 H   0  0  0  0  0  0  0  0  0  0  0  0
   -1.0184   11.4438    8.5458 H   0  0  0  0  0  0  0  0  0  0  0  0
   -2.1696   13.2343   10.7346 H   0  0  0  0  0  0  0  0  0  0  0  0
   -2.7638   13.0331    9.0839 H   0  0  0  0  0  0  0  0  0  0  0  0
   -2.8464   11.6897   10.2174 H   0  0  0  0  0  0  0  0  0  0  0  0
   -0.8090   10.2854   10.6550 H   0  0  0  0  0  0  0  0  0  0  0  0
    0.7929   10.8887   10.2482 H   0  0  0  0  0  0  0  0  0  0  0  0
   -0.1920   11.7115   11.4753 H   0  0  0  0  0  0  0  0  0  0  0  0
    2.3069   12.3773    8.9608 H   0  0  0  0  0  0  0  0  0  0  0  0
    3.2974   13.3760    6.8415 H   0  0  0  0  0  0  0  0  0  0  0  0
    1.7717   14.2183    6.5705 H   0  0  0  0  0  0  0  0  0  0  0  0
    2.7635   14.6019    7.9894 H   0  0  0  0  0  0  0  0  0  0  0  0
    0.9700   10.6888    7.7831 H   0  0  0  0  0  0  0  0  0  0  0  0
    0.6830   11.7868    6.4346 H   0  0  0  0  0  0  0  0  0  0  0  0
    2.3075   11.1851    6.7539 H   0  0  0  0  0  0  0  0  0  0  0  0
   -0.6351   18.6451    4.9302 H   0  0  0  0  0  0  0  0  0  0  0  0
   -1.4082   18.3972    7.8811 H   0  0  0  0  0  0  0  0  0  0  0  0
   -0.6884   19.8259    7.1437 H   0  0  0  0  0  0  0  0  0  0  0  0
   -2.2818   19.2835    6.6328 H   0  0  0  0  0  0  0  0  0  0  0  0
    0.8381   17.1484    7.1614 H   0  0  0  0  0  0  0  0  0  0  0  0
    1.3594   17.2923    5.4728 H   0  0  0  0  0  0  0  0  0  0  0  0
    1.3485   18.7098    6.5196 H   0  0  0  0  0  0  0  0  0  0  0  0
   -3.4982   17.3883    6.4509 H   0  0  0  0  0  0  0  0  0  0  0  0
   -5.1925   15.8868    5.4137 H   0  0  0  0  0  0  0  0  0  0  0  0
   -3.9110   15.0305    4.5557 H   0  0  0  0  0  0  0  0  0  0  0  0
   -3.9614   15.0164    6.3208 H   0  0  0  0  0  0  0  0  0  0  0  0
   -3.0488   18.7373    4.3398 H   0  0  0  0  0  0  0  0  0  0  0  0
   -3.6315   17.3496    3.3981 H   0  0  0  0  0  0  0  0  0  0  0  0
   -4.7078   18.1780    4.5126 H   0  0  0  0  0  0  0  0  0  0  0  0
   -1.8314   15.3380    3.5310 H   0  0  0  0  0  0  0  0  0  0  0  0
    0.1968   17.5916    3.1009 H   0  0  0  0  0  0  0  0  0  0  0  0
   -0.6175   16.6295    1.8774 H   0  0  0  0  0  0  0  0  0  0  0  0
   -1.5379   17.7841    2.8317 H   0  0  0  0  0  0  0  0  0  0  0  0
    0.1380   14.2288    4.6376 H   0  0  0  0  0  0  0  0  0  0  0  0
    0.3888   14.5619    2.9328 H   0  0  0  0  0  0  0  0  0  0  0  0
    1.1535   15.5921    4.1361 H   0  0  0  0  0  0  0  0  0  0  0  0
  1  4  1  0  0  0  0
  1  2  1  0  0  0  0
  3  1  1  0  0  0  0
  4  8  1  0  0  0  0
  4  5  1  0  0  0  0
  5 24  1  0  0  0  0
  5  7  1  0  0  0  0
  6  5  1  0  0  0  0
  6 27  1  0  0  0  0
  7 28  1  0  0  0  0
  7 30  1  0  0  0  0
  8  9  1  0  0  0  0
  8 10  1  0  0  0  0
  9 34  1  0  0  0  0
  9 32  1  0  0  0  0
 10 35  1  0  0  0  0
 10 37  1  0  0  0  0
 11  4  1  0  0  0  0
 11 38  1  0  0  0  0
 12 41  1  0  0  0  0
 12 11  1  0  0  0  0
 13 42  1  0  0  0  0
 13 11  1  0  0  0  0
 14 15  1  0  0  0  0
 14  1  1  0  0  0  0
 15 17  1  0  0  0  0
 15 16  1  0  0  0  0
 16 47  1  0  0  0  0
 16 46  1  0  0  0  0
 17 51  1  0  0  0  0
 17 49  1  0  0  0  0
 18 14  1  0  0  0  0
 18 52  1  0  0  0  0
 19 18  1  0  0  0  0
 19 55  1  0  0  0  0
 20 58  1  0  0  0  0
 20 18  1  0  0  0  0
 21 23  1  0  0  0  0
 21 14  1  0  0  0  0
 22 60  1  0  0  0  0
 22 21  1  0  0  0  0
 23 65  1  0  0  0  0
 23 63  1  0  0  0  0
 25  6  1  0  0  0  0
 26  6  1  0  0  0  0
 29  7  1  0  0  0  0
 31  8  1  0  0  0  0
 33  9  1  0  0  0  0
 36 10  1  0  0  0  0
 39 12  1  0  0  0  0
 40 12  1  0  0  0  0
 43 13  1  0  0  0  0
 44 13  1  0  0  0  0
 45 15  1  0  0  0  0
 48 16  1  0  0  0  0
 50 17  1  0  0  0  0
 53 19  1  0  0  0  0
 54 19  1  0  0  0  0
 56 20  1  0  0  0  0
 57 20  1  0  0  0  0
 59 21  1  0  0  0  0
 61 22  1  0  0  0  0
 62 22  1  0  0  0  0
 64 23  1  0  0  0  0
M  END
$$$$
