CSD_code = NIVPUG | q = 0 | S = 0 | Stoichiometry = C6H12AuCl2O2PS2 | MND = 4
 OpenBabel04212202073D

 26 27  0  0  0  0  0  0  0  0999 V2000
    2.9201    7.6589   11.3663 Au  0  0  0  0  0  0  0  0  0  0  0  0
    2.9389    9.2794   12.9466 Cl  0  0  0  0  0  0  0  0  0  0  0  0
    2.8622    9.2677    9.7750 Cl  0  0  0  0  0  0  0  0  0  0  0  0
    3.0068    4.6797   11.3751 P   0  0  0  0  0  4  0  0  0  0  0  0
    2.9093    5.8816    9.7526 S   0  0  0  0  0  0  0  0  0  0  0  0
    2.9875    5.8946   12.9915 S   0  0  0  0  0  0  0  0  0  0  0  0
    1.8634    3.5831   11.4731 O   0  0  0  0  0  0  0  0  0  0  0  0
    4.2555    3.7029   11.2835 O   0  0  0  0  0  0  0  0  0  0  0  0
    2.3888    2.2712   11.1455 C   0  0  0  0  0  0  0  0  0  0  0  0
    3.8661    2.3507   11.6352 C   0  0  0  0  0  0  0  0  0  0  0  0
    4.8179    1.3992   10.9291 C   0  0  0  0  0  0  0  0  0  0  0  0
    4.8988    1.6420    9.8744 H   0  0  0  0  0  0  0  0  0  0  0  0
    4.4685    0.3766   11.0407 H   0  0  0  0  0  0  0  0  0  0  0  0
    5.8056    1.4843   11.3740 H   0  0  0  0  0  0  0  0  0  0  0  0
    2.2888    2.1055    9.6345 C   0  0  0  0  0  0  0  0  0  0  0  0
    1.2621    2.2930    9.3284 H   0  0  0  0  0  0  0  0  0  0  0  0
    2.5670    1.0993    9.3353 H   0  0  0  0  0  0  0  0  0  0  0  0
    2.9271    2.8315    9.1315 H   0  0  0  0  0  0  0  0  0  0  0  0
    3.9804    2.2229   13.1490 C   0  0  0  0  0  0  0  0  0  0  0  0
    4.9816    2.5218   13.4515 H   0  0  0  0  0  0  0  0  0  0  0  0
    3.8080    1.1988   13.4662 H   0  0  0  0  0  0  0  0  0  0  0  0
    3.2693    2.8874   13.6393 H   0  0  0  0  0  0  0  0  0  0  0  0
    1.5388    1.2400   11.8696 C   0  0  0  0  0  0  0  0  0  0  0  0
    1.4301    1.4939   12.9192 H   0  0  0  0  0  0  0  0  0  0  0  0
    1.9934    0.2574   11.7789 H   0  0  0  0  0  0  0  0  0  0  0  0
    0.5489    1.2127   11.4222 H   0  0  0  0  0  0  0  0  0  0  0  0
  1  2  1  0  0  0  0
  1  6  1  0  0  0  0
  3  1  1  0  0  0  0
  4  7  1  0  0  0  0
  4  6  1  0  0  0  0
  5  1  1  0  0  0  0
  5  4  1  0  0  0  0
  8  4  1  0  0  0  0
  8 10  1  0  0  0  0
  9  7  1  0  0  0  0
  9 10  1  0  0  0  0
  9 23  1  0  0  0  0
 10 19  1  0  0  0  0
 11 13  1  0  0  0  0
 11 14  1  0  0  0  0
 11 10  1  0  0  0  0
 12 11  1  0  0  0  0
 15  9  1  0  0  0  0
 16 15  1  0  0  0  0
 17 15  1  0  0  0  0
 18 15  1  0  0  0  0
 19 20  1  0  0  0  0
 19 21  1  0  0  0  0
 19 22  1  0  0  0  0
 23 24  1  0  0  0  0
 25 23  1  0  0  0  0
 26 23  1  0  0  0  0
M  END
$$$$
