CSD_code = NIVXUM | q = 0 | S = 0 | Stoichiometry = C17H21Cl2NOTi | MND = 8
 OpenBabel04212202073D

 43 44  0  0  1  0  0  0  0  0999 V2000
    1.1138    5.0666   13.3689 Ti  0  0  0  0  0  0  0  0  0  0  0  0
   -0.7800    5.1169   12.2890 Cl  0  0  0  0  0  0  0  0  0  0  0  0
    0.2705    4.2451   15.2018 Cl  0  0  0  0  0  0  0  0  0  0  0  0
    1.7882    3.7154   12.6496 O   0  0  0  0  0  0  0  0  0  0  0  0
    4.6782    2.6391   15.1857 N   0  0  0  0  0  0  0  0  0  0  0  0
    1.5191    7.1927   12.5218 C   0  0  0  0  0  0  0  0  0  0  0  0
    1.1536    7.3150   13.8815 C   0  0  2  0  0  0  0  0  0  0  0  0
    2.1499    6.6835   14.6587 C   0  0  0  0  0  0  0  0  0  0  0  0
    3.1248    6.1569   13.7789 C   0  0  0  0  0  0  0  0  0  0  0  0
    2.7343    6.4733   12.4567 C   0  0  0  0  0  0  0  0  0  0  0  0
    2.8405    3.1135   12.1134 C   0  0  0  0  0  0  0  0  0  0  0  0
    2.9284    2.9886   10.7159 C   0  0  0  0  0  0  0  0  0  0  0  0
    4.0611    2.4041   10.1746 C   0  0  0  0  0  0  0  0  0  0  0  0
    5.0950    1.9534   10.9858 C   0  0  0  0  0  0  0  0  0  0  0  0
    5.0095    2.0779   12.3580 C   0  0  0  0  0  0  0  0  0  0  0  0
    3.8831    2.6520   12.9430 C   0  0  0  0  0  0  0  0  0  0  0  0
    1.7881    3.4980    9.8873 C   0  0  0  0  0  0  0  0  0  0  0  0
    3.7187    2.7884   14.3827 C   0  0  0  0  0  0  0  0  0  0  0  0
    4.4880    2.7657   16.6185 C   0  0  0  0  0  0  0  0  0  0  0  0
    3.9163    4.1424   16.9866 C   0  0  0  0  0  0  0  0  0  0  0  0
    3.5436    1.6666   17.1228 C   0  0  0  0  0  0  0  0  0  0  0  0
    5.8751    2.5924   17.2452 C   0  0  0  0  0  0  0  0  0  0  0  0
    1.0097    7.6558   11.6854 H   0  0  0  0  0  0  0  0  0  0  0  0
    0.3242    7.8998   14.2645 H   0  0  0  0  0  0  0  0  0  0  0  0
    2.2158    6.7032   15.7398 H   0  0  0  0  0  0  0  0  0  0  0  0
    4.0654    5.7033   14.0662 H   0  0  0  0  0  0  0  0  0  0  0  0
    3.3280    6.3032   11.5660 H   0  0  0  0  0  0  0  0  0  0  0  0
    4.1373    2.3022    9.1018 H   0  0  0  0  0  0  0  0  0  0  0  0
    5.9670    1.5025   10.5372 H   0  0  0  0  0  0  0  0  0  0  0  0
    5.7979    1.7353   13.0088 H   0  0  0  0  0  0  0  0  0  0  0  0
    1.5087    4.5097   10.2051 H   0  0  0  0  0  0  0  0  0  0  0  0
    0.9115    2.8626   10.0311 H   0  0  0  0  0  0  0  0  0  0  0  0
    2.0453    3.5069    8.8318 H   0  0  0  0  0  0  0  0  0  0  0  0
    2.6843    3.0320   14.6952 H   0  0  0  0  0  0  0  0  0  0  0  0
    2.9149    4.2709   16.5759 H   0  0  0  0  0  0  0  0  0  0  0  0
    4.5626    4.9299   16.6024 H   0  0  0  0  0  0  0  0  0  0  0  0
    3.8588    4.2374   18.0680 H   0  0  0  0  0  0  0  0  0  0  0  0
    2.5463    1.7984   16.7088 H   0  0  0  0  0  0  0  0  0  0  0  0
    3.4759    1.7033   18.2070 H   0  0  0  0  0  0  0  0  0  0  0  0
    3.9178    0.6889   16.8272 H   0  0  0  0  0  0  0  0  0  0  0  0
    5.8178    2.6600   18.3283 H   0  0  0  0  0  0  0  0  0  0  0  0
    6.5474    3.3631   16.8777 H   0  0  0  0  0  0  0  0  0  0  0  0
    6.2845    1.6238   16.9722 H   0  0  0  0  0  0  0  0  0  0  0  0
  1  7  1  0  0  0  0
  1  3  1  0  0  0  0
  2  1  1  0  0  0  0
  4  1  1  0  0  0  0
  5 19  1  0  0  0  0
  6  7  1  0  0  0  0
  7 24  1  1  0  0  0
  7  8  1  0  0  0  0
  8 25  1  0  0  0  0
  9 26  1  0  0  0  0
  9  8  2  0  0  0  0
 10  6  2  0  0  0  0
 10  9  1  0  0  0  0
 11  4  1  0  0  0  0
 11 16  1  0  0  0  0
 12 11  2  0  0  0  0
 13 12  1  0  0  0  0
 13 14  2  0  0  0  0
 14 15  1  0  0  0  0
 15 16  2  0  0  0  0
 15 30  1  0  0  0  0
 16 18  1  0  0  0  0
 17 32  1  0  0  0  0
 17 31  1  0  0  0  0
 17 12  1  0  0  0  0
 18 34  1  0  0  0  0
 18  5  2  0  0  0  0
 19 20  1  0  0  0  0
 19 21  1  0  0  0  0
 19 22  1  0  0  0  0
 20 37  1  0  0  0  0
 21 39  1  0  0  0  0
 22 41  1  0  0  0  0
 23  6  1  0  0  0  0
 27 10  1  0  0  0  0
 28 13  1  0  0  0  0
 29 14  1  0  0  0  0
 33 17  1  0  0  0  0
 35 20  1  0  0  0  0
 36 20  1  0  0  0  0
 38 21  1  0  0  0  0
 40 21  1  0  0  0  0
 42 22  1  0  0  0  0
 43 22  1  0  0  0  0
M  END
$$$$
