CSD_code = NIXCUU | q = 0 | S = 0 | Stoichiometry = C19H29Cl2N4V | MND = 4
 OpenBabel04212202073D

 55 56  0  0  1  0  0  0  0  0999 V2000
    5.1212   -1.1963    3.9247 V   0  0  0  0  0  0  0  0  0  0  0  0
    5.3094   -2.1734    2.0849 Cl  0  0  0  0  0  0  0  0  0  0  0  0
    3.7887   -2.2657    5.1117 Cl  0  0  0  0  0  0  0  0  0  0  0  0
    6.5880   -1.1573    4.5936 N   0  0  0  0  0  2  0  0  0  0  0  0
    4.6795    0.4166    3.7910 N   0  0  0  0  0  2  0  0  0  0  0  0
    4.2293    2.5456    4.7640 N   0  0  0  0  0  0  0  0  0  0  0  0
    4.2184    2.3905    2.5538 N   0  0  0  0  0  0  0  0  0  0  0  0
    7.7921   -1.1680    5.1632 C   0  0  0  0  0  0  0  0  0  0  0  0
    7.9679   -1.7250    6.4534 C   0  0  0  0  0  0  0  0  0  0  0  0
    9.2293   -1.7313    7.0189 C   0  0  0  0  0  0  0  0  0  0  0  0
   10.3181   -1.2029    6.3445 C   0  0  0  0  0  0  0  0  0  0  0  0
   10.1489   -0.6506    5.0843 C   0  0  0  0  0  0  0  0  0  0  0  0
    8.9059   -0.6190    4.4824 C   0  0  0  0  0  0  0  0  0  0  0  0
    6.7774   -2.2981    7.1558 C   0  0  0  0  0  0  0  0  0  0  0  0
    8.6861   -0.0195    3.1283 C   0  0  0  0  0  0  0  0  0  0  0  0
    4.4058    1.6659    3.7138 C   0  0  2  0  0  3  0  0  0  0  0  0
    3.9255    3.6879    2.8987 C   0  0  0  0  0  0  0  0  0  0  0  0
    3.9289    3.7812    4.2421 C   0  0  0  0  0  0  0  0  0  0  0  0
    4.3776    2.2121    6.1830 C   0  0  0  0  0  0  0  0  0  0  0  0
    3.3591    1.1302    6.5500 C   0  0  0  0  0  0  0  0  0  0  0  0
    4.1220    3.4518    7.0432 C   0  0  0  0  0  0  0  0  0  0  0  0
    5.8082    1.7193    6.4218 C   0  0  0  0  0  0  0  0  0  0  0  0
    4.2932    1.8399    1.1976 C   0  0  0  0  0  0  0  0  0  0  0  0
    4.0052    2.9351    0.1687 C   0  0  0  0  0  0  0  0  0  0  0  0
    5.7043    1.2922    0.9669 C   0  0  0  0  0  0  0  0  0  0  0  0
    3.2430    0.7337    1.0576 C   0  0  0  0  0  0  0  0  0  0  0  0
    5.9834   -1.5506    7.2273 H   0  0  0  0  0  0  0  0  0  0  0  0
    6.3777   -3.1387    6.5833 H   0  0  0  0  0  0  0  0  0  0  0  0
    7.0408   -2.6435    8.1525 H   0  0  0  0  0  0  0  0  0  0  0  0
    9.3641   -2.1600    8.0021 H   0  0  0  0  0  0  0  0  0  0  0  0
   11.2971   -1.2211    6.7997 H   0  0  0  0  0  0  0  0  0  0  0  0
   10.9998   -0.2368    4.5614 H   0  0  0  0  0  0  0  0  0  0  0  0
    9.6207    0.3350    2.7013 H   0  0  0  0  0  0  0  0  0  0  0  0
    7.9827    0.8129    3.2063 H   0  0  0  0  0  0  0  0  0  0  0  0
    8.2420   -0.7602    2.4602 H   0  0  0  0  0  0  0  0  0  0  0  0
    3.7367    4.4544    2.1793 H   0  0  0  0  0  0  0  0  0  0  0  0
    3.7358    4.6392    4.8479 H   0  0  0  0  0  0  0  0  0  0  0  0
    4.8327    4.2430    6.8171 H   0  0  0  0  0  0  0  0  0  0  0  0
    3.1089    3.8240    6.9102 H   0  0  0  0  0  0  0  0  0  0  0  0
    4.2451    3.1798    8.0879 H   0  0  0  0  0  0  0  0  0  0  0  0
    2.3482    1.4750    6.3402 H   0  0  0  0  0  0  0  0  0  0  0  0
    3.4337    0.8962    7.6083 H   0  0  0  0  0  0  0  0  0  0  0  0
    3.5507    0.2225    5.9799 H   0  0  0  0  0  0  0  0  0  0  0  0
    6.0053    0.8327    5.8184 H   0  0  0  0  0  0  0  0  0  0  0  0
    6.5239    2.4942    6.1547 H   0  0  0  0  0  0  0  0  0  0  0  0
    5.9433    1.4692    7.4702 H   0  0  0  0  0  0  0  0  0  0  0  0
    4.0709    2.5026   -0.8260 H   0  0  0  0  0  0  0  0  0  0  0  0
    4.7345    3.7390    0.2339 H   0  0  0  0  0  0  0  0  0  0  0  0
    3.0043    3.3421    0.2928 H   0  0  0  0  0  0  0  0  0  0  0  0
    6.4387    2.0886    1.0716 H   0  0  0  0  0  0  0  0  0  0  0  0
    5.9281    0.5064    1.6881 H   0  0  0  0  0  0  0  0  0  0  0  0
    5.7803    0.8765   -0.0340 H   0  0  0  0  0  0  0  0  0  0  0  0
    2.2452    1.1362    1.2249 H   0  0  0  0  0  0  0  0  0  0  0  0
    3.2867    0.3072    0.0593 H   0  0  0  0  0  0  0  0  0  0  0  0
    3.4285   -0.0613    1.7796 H   0  0  0  0  0  0  0  0  0  0  0  0
  1  4  1  0  0  0  0
  1  3  1  0  0  0  0
  2  1  1  0  0  0  0
  4  8  1  0  0  0  0
  5  1  1  0  0  0  0
  6 19  1  0  0  0  0
  7 17  1  0  0  0  0
  7 16  1  0  0  0  0
  8  9  1  0  0  0  0
  9 10  2  0  0  0  0
  9 14  1  0  0  0  0
 10 30  1  0  0  0  0
 11 31  1  0  0  0  0
 11 10  1  0  0  0  0
 12 11  2  0  0  0  0
 13 12  1  0  0  0  0
 13  8  2  0  0  0  0
 14 27  1  0  0  0  0
 14 29  1  0  0  0  0
 15 34  1  0  0  0  0
 15 13  1  0  0  0  0
 16  5  1  1  0  0  0
 16  6  1  0  0  0  0
 17 18  2  0  0  0  0
 18  6  1  0  0  0  0
 18 37  1  0  0  0  0
 19 22  1  0  0  0  0
 19 20  1  0  0  0  0
 19 21  1  0  0  0  0
 20 42  1  0  0  0  0
 21 40  1  0  0  0  0
 22 46  1  0  0  0  0
 23  7  1  0  0  0  0
 24 48  1  0  0  0  0
 24 49  1  0  0  0  0
 24 23  1  0  0  0  0
 25 50  1  0  0  0  0
 25 23  1  0  0  0  0
 25 51  1  0  0  0  0
 26 23  1  0  0  0  0
 26 53  1  0  0  0  0
 26 55  1  0  0  0  0
 28 14  1  0  0  0  0
 32 12  1  0  0  0  0
 33 15  1  0  0  0  0
 35 15  1  0  0  0  0
 36 17  1  0  0  0  0
 38 21  1  0  0  0  0
 39 21  1  0  0  0  0
 41 20  1  0  0  0  0
 43 20  1  0  0  0  0
 44 22  1  0  0  0  0
 45 22  1  0  0  0  0
 47 24  1  0  0  0  0
 52 25  1  0  0  0  0
 54 26  1  0  0  0  0
M  END
$$$$
