CSD_code = NIXKIR | q = 0 | S = 0 | Stoichiometry = C24H33Cl2NPt | MND = 5
 OpenBabel04212202073D

 61 61  0  0  1  0  0  0  0  0999 V2000
   -2.2644   16.8449   11.1510 Pt  0  0  0  0  0  0  0  0  0  0  0  0
   -3.5268   15.3680    9.8350 Cl  0  0  0  0  0 15  0  0  0  0  0  0
   -1.3797   18.3807   12.6919 Cl  0  0  0  0  0 15  0  0  0  0  0  0
   -4.0661   17.5601   11.7549 N   0  0  0  0  0  0  0  0  0  0  0  0
   -7.8199   18.9443   13.2286 C   0  0  0  0  0  0  0  0  0  0  0  0
   -6.5082   18.4627   12.7029 C   0  0  0  0  0  0  0  0  0  0  0  0
   -5.8113   17.4477   13.3502 C   0  0  0  0  0  0  0  0  0  0  0  0
   -4.5929   17.0133   12.8569 C   0  0  1  0  0  3  0  0  0  0  0  0
   -3.8172   15.9237   13.5203 C   0  0  0  0  0  0  0  0  0  0  0  0
   -5.9367   18.9970   11.5574 C   0  0  0  0  0  0  0  0  0  0  0  0
   -4.7136   18.5256   11.1017 C   0  0  0  0  0  0  0  0  0  0  0  0
   -0.3625   16.4044   10.0577 C   0  0  2  0  0  3  0  0  0  0  0  0
   -0.5414   15.5924   11.1797 C   0  0  1  0  0  0  0  0  0  0  0  0
    0.3744   15.5549   12.3666 C   0  0  0  0  0  0  0  0  0  0  0  0
    1.4152   14.4604   12.0648 C   0  0  0  0  0  0  0  0  0  0  0  0
    2.0923   14.6011   10.6939 C   0  0  0  0  0  0  0  0  0  0  0  0
    1.3248   14.0018    9.4938 C   0  0  0  0  0  0  0  0  0  0  0  0
    0.8559   14.9936    8.4203 C   0  0  0  0  0  0  0  0  0  0  0  0
   -0.4721   15.7224    8.7157 C   0  0  0  0  0  0  0  0  0  0  0  0
   -4.0746   19.0855    9.8738 C   0  0  0  0  0  0  0  0  0  0  0  0
    0.4804   17.6631   10.0494 C   0  0  0  0  0  0  0  0  0  0  0  0
   -0.2587   18.8408    9.3885 C   0  0  0  0  0  0  0  0  0  0  0  0
    0.5797   20.0836    9.4524 C   0  0  0  0  0  0  0  0  0  0  0  0
    1.3484   20.4840    8.3679 C   0  0  0  0  0  0  0  0  0  0  0  0
    2.1406   21.6163    8.4459 C   0  0  0  0  0  0  0  0  0  0  0  0
    2.1750   22.3595    9.6129 C   0  0  0  0  0  0  0  0  0  0  0  0
    1.4146   21.9648   10.7012 C   0  0  0  0  0  0  0  0  0  0  0  0
    0.6228   20.8339   10.6216 C   0  0  0  0  0  0  0  0  0  0  0  0
   -7.6942   19.3470   14.2328 H   0  0  0  0  0  0  0  0  0  0  0  0
   -8.5263   18.1179   13.2897 H   0  0  0  0  0  0  0  0  0  0  0  0
   -8.2375   19.7181   12.5904 H   0  0  0  0  0  0  0  0  0  0  0  0
   -6.2183   16.9924   14.2397 H   0  0  0  0  0  0  0  0  0  0  0  0
   -2.8702   16.3229   13.8915 H   0  0  0  0  0  0  0  0  0  0  0  0
   -3.5988   15.1339   12.7961 H   0  0  0  0  0  0  0  0  0  0  0  0
   -4.3712   15.4996   14.3533 H   0  0  0  0  0  0  0  0  0  0  0  0
   -6.4367   19.7812   11.0103 H   0  0  0  0  0  0  0  0  0  0  0  0
   -0.9712   14.6067   10.9764 H   0  0  0  0  0  0  0  0  0  0  0  0
   -0.1601   15.2924   13.2822 H   0  0  0  0  0  0  0  0  0  0  0  0
    0.8732   16.5089   12.5278 H   0  0  0  0  0  0  0  0  0  0  0  0
    2.1817   14.5037   12.8417 H   0  0  0  0  0  0  0  0  0  0  0  0
    0.9387   13.4799   12.1303 H   0  0  0  0  0  0  0  0  0  0  0  0
    3.0570   14.0930   10.7610 H   0  0  0  0  0  0  0  0  0  0  0  0
    2.3051   15.6539   10.5149 H   0  0  0  0  0  0  0  0  0  0  0  0
    1.9902   13.2942    8.9933 H   0  0  0  0  0  0  0  0  0  0  0  0
    0.4696   13.4235    9.8433 H   0  0  0  0  0  0  0  0  0  0  0  0
    0.7116   14.4421    7.4880 H   0  0  0  0  0  0  0  0  0  0  0  0
    1.6475   15.7234    8.2405 H   0  0  0  0  0  0  0  0  0  0  0  0
   -0.6665   16.4312    7.9099 H   0  0  0  0  0  0  0  0  0  0  0  0
   -1.2770   14.9878    8.7200 H   0  0  0  0  0  0  0  0  0  0  0  0
   -3.5378   18.2953    9.3408 H   0  0  0  0  0  0  0  0  0  0  0  0
   -3.3646   19.8648   10.1551 H   0  0  0  0  0  0  0  0  0  0  0  0
   -4.8191   19.5221    9.2132 H   0  0  0  0  0  0  0  0  0  0  0  0
    1.4027   17.4836    9.4927 H   0  0  0  0  0  0  0  0  0  0  0  0
    0.7434   17.9632   11.0630 H   0  0  0  0  0  0  0  0  0  0  0  0
   -0.4966   18.6027    8.3509 H   0  0  0  0  0  0  0  0  0  0  0  0
   -1.1899   19.0020    9.9392 H   0  0  0  0  0  0  0  0  0  0  0  0
    1.3238   19.9076    7.4531 H   0  0  0  0  0  0  0  0  0  0  0  0
    2.7320   21.9192    7.5935 H   0  0  0  0  0  0  0  0  0  0  0  0
    2.7924   23.2440    9.6738 H   0  0  0  0  0  0  0  0  0  0  0  0
    1.4385   22.5416   11.6145 H   0  0  0  0  0  0  0  0  0  0  0  0
    0.0317   20.5237   11.4710 H   0  0  0  0  0  0  0  0  0  0  0  0
  1 13  1  0  0  0  0
  1  4  1  0  0  0  0
  4  8  1  0  0  0  0
  5 30  1  0  0  0  0
  5 29  1  0  0  0  0
  6  5  1  0  0  0  0
  6  7  2  0  0  0  0
  7 32  1  0  0  0  0
  8  7  1  0  0  0  0
  8  9  1  6  0  0  0
  9 33  1  0  0  0  0
  9 35  1  0  0  0  0
 10  6  1  0  0  0  0
 11 10  2  0  0  0  0
 11  4  1  0  0  0  0
 12 21  1  1  0  0  0
 12 13  1  0  0  0  0
 13 37  1  6  0  0  0
 13 14  1  0  0  0  0
 14 39  1  0  0  0  0
 14 38  1  0  0  0  0
 15 41  1  0  0  0  0
 15 14  1  0  0  0  0
 15 40  1  0  0  0  0
 16 42  1  0  0  0  0
 16 15  1  0  0  0  0
 17 45  1  0  0  0  0
 17 16  1  0  0  0  0
 18 19  1  0  0  0  0
 18 17  1  0  0  0  0
 19 49  1  0  0  0  0
 19 12  1  0  0  0  0
 20 51  1  0  0  0  0
 20 11  1  0  0  0  0
 21 54  1  0  0  0  0
 22 23  1  0  0  0  0
 22 56  1  0  0  0  0
 22 21  1  0  0  0  0
 23 28  1  0  0  0  0
 24 25  1  0  0  0  0
 24 23  2  0  0  0  0
 25 26  2  0  0  0  0
 26 59  1  0  0  0  0
 26 27  1  0  0  0  0
 27 60  1  0  0  0  0
 28 27  2  0  0  0  0
 28 61  1  0  0  0  0
 31  5  1  0  0  0  0
 34  9  1  0  0  0  0
 36 10  1  0  0  0  0
 43 16  1  0  0  0  0
 44 17  1  0  0  0  0
 46 18  1  0  0  0  0
 47 18  1  0  0  0  0
 48 19  1  0  0  0  0
 50 20  1  0  0  0  0
 52 20  1  0  0  0  0
 53 21  1  0  0  0  0
 55 22  1  0  0  0  0
 57 24  1  0  0  0  0
 58 25  1  0  0  0  0
M  END
$$$$
