CSD_code = NIXLIQ | q = 0 | S = 0 | Stoichiometry = C21H24BrCuN2 | MND = 2
 OpenBabel04212202073D

 49 51  0  0  1  0  0  0  0  0999 V2000
    3.7263    7.3715   -2.8732 Br  0  0  0  0  0  0  0  0  0  0  0  0
    3.7267    7.3731   -0.6428 Cu  0  0  0  0  0  0  0  0  0  0  0  0
    2.8557    7.9966    2.1014 N   0  0  0  0  0  0  0  0  0  0  0  0
    3.7267    7.3734    1.2790 C   0  0  2  0  0  3  0  0  0  0  0  0
    3.1761    7.7674    3.4121 C   0  0  0  0  0  0  0  0  0  0  0  0
    2.6031    8.1775    4.2181 H   0  0  0  0  0  0  0  0  0  0  0  0
    1.7618    8.7905    1.6614 C   0  0  0  0  0  0  0  0  0  0  0  0
    1.9569   10.1559    1.4542 C   0  0  0  0  0  0  0  0  0  0  0  0
    0.8787   10.9154    1.0326 C   0  0  0  0  0  0  0  0  0  0  0  0
    1.0138   11.9734    0.8620 H   0  0  0  0  0  0  0  0  0  0  0  0
   -0.3693   10.3448    0.8142 C   0  0  0  0  0  0  0  0  0  0  0  0
   -0.5286    8.9827    1.0205 C   0  0  0  0  0  0  0  0  0  0  0  0
   -1.4913    8.5258    0.8436 H   0  0  0  0  0  0  0  0  0  0  0  0
    0.5260    8.1865    1.4422 C   0  0  0  0  0  0  0  0  0  0  0  0
    3.3104   10.7639    1.6631 C   0  0  0  0  0  0  0  0  0  0  0  0
    3.2776   11.8371    1.4994 H   0  0  0  0  0  0  0  0  0  0  0  0
    4.0255   10.3300    0.9635 H   0  0  0  0  0  0  0  0  0  0  0  0
    3.6734   10.5750    2.6735 H   0  0  0  0  0  0  0  0  0  0  0  0
   -1.5092   11.1948    0.3462 C   0  0  0  0  0  0  0  0  0  0  0  0
   -2.4409   10.6352    0.3463 H   0  0  0  0  0  0  0  0  0  0  0  0
   -1.3184   11.5482   -0.6665 H   0  0  0  0  0  0  0  0  0  0  0  0
   -1.6222   12.0679    0.9867 H   0  0  0  0  0  0  0  0  0  0  0  0
    0.3605    6.7102    1.6373 C   0  0  0  0  0  0  0  0  0  0  0  0
    0.9687    6.1704    0.9104 H   0  0  0  0  0  0  0  0  0  0  0  0
   -0.6772    6.4195    1.4993 H   0  0  0  0  0  0  0  0  0  0  0  0
    0.6804    6.4059    2.6341 H   0  0  0  0  0  0  0  0  0  0  0  0
    4.5978    6.7504    2.1015 N   0  0  0  0  0  0  0  0  0  0  0  0
    4.2774    6.9797    3.4121 C   0  0  0  0  0  0  0  0  0  0  0  0
    4.8506    6.5698    4.2181 H   0  0  0  0  0  0  0  0  0  0  0  0
    5.6917    5.9565    1.6614 C   0  0  0  0  0  0  0  0  0  0  0  0
    5.4966    4.5911    1.4541 C   0  0  0  0  0  0  0  0  0  0  0  0
    6.5749    3.8317    1.0325 C   0  0  0  0  0  0  0  0  0  0  0  0
    6.4398    2.7737    0.8617 H   0  0  0  0  0  0  0  0  0  0  0  0
    7.8229    4.4024    0.8141 C   0  0  0  0  0  0  0  0  0  0  0  0
    7.9821    5.7644    1.0206 C   0  0  0  0  0  0  0  0  0  0  0  0
    8.9449    6.2214    0.8438 H   0  0  0  0  0  0  0  0  0  0  0  0
    6.9275    6.5606    1.4423 C   0  0  0  0  0  0  0  0  0  0  0  0
    4.1431    3.9831    1.6628 C   0  0  0  0  0  0  0  0  0  0  0  0
    4.1760    2.9099    1.4992 H   0  0  0  0  0  0  0  0  0  0  0  0
    3.4281    4.4170    0.9631 H   0  0  0  0  0  0  0  0  0  0  0  0
    3.7800    4.1720    2.6731 H   0  0  0  0  0  0  0  0  0  0  0  0
    8.9627    3.5524    0.3461 C   0  0  0  0  0  0  0  0  0  0  0  0
    9.8945    4.1120    0.3462 H   0  0  0  0  0  0  0  0  0  0  0  0
    8.7720    3.1990   -0.6666 H   0  0  0  0  0  0  0  0  0  0  0  0
    9.0758    2.6793    0.9866 H   0  0  0  0  0  0  0  0  0  0  0  0
    7.0930    8.0369    1.6376 C   0  0  0  0  0  0  0  0  0  0  0  0
    6.4847    8.5768    0.9108 H   0  0  0  0  0  0  0  0  0  0  0  0
    8.1306    8.3276    1.4995 H   0  0  0  0  0  0  0  0  0  0  0  0
    6.7732    8.3410    2.6345 H   0  0  0  0  0  0  0  0  0  0  0  0
  1  2  1  0  0  0  0
  3  5  1  0  0  0  0
  4  2  1  6  0  0  0
  4  3  1  0  0  0  0
  4 27  1  0  0  0  0
  5 28  2  0  0  0  0
  5  6  1  0  0  0  0
  7  3  1  0  0  0  0
  8  7  1  0  0  0  0
  8 15  1  0  0  0  0
  9  8  2  0  0  0  0
 10  9  1  0  0  0  0
 11 12  2  0  0  0  0
 11  9  1  0  0  0  0
 12 14  1  0  0  0  0
 13 12  1  0  0  0  0
 14 23  1  0  0  0  0
 14  7  2  0  0  0  0
 15 18  1  0  0  0  0
 16 15  1  0  0  0  0
 17 15  1  0  0  0  0
 19 20  1  0  0  0  0
 19 11  1  0  0  0  0
 19 22  1  0  0  0  0
 21 19  1  0  0  0  0
 23 26  1  0  0  0  0
 24 23  1  0  0  0  0
 25 23  1  0  0  0  0
 27 28  1  0  0  0  0
 28 29  1  0  0  0  0
 30 27  1  0  0  0  0
 31 30  1  0  0  0  0
 31 38  1  0  0  0  0
 32 31  2  0  0  0  0
 33 32  1  0  0  0  0
 34 35  2  0  0  0  0
 34 32  1  0  0  0  0
 35 37  1  0  0  0  0
 36 35  1  0  0  0  0
 37 46  1  0  0  0  0
 37 30  2  0  0  0  0
 38 41  1  0  0  0  0
 39 38  1  0  0  0  0
 40 38  1  0  0  0  0
 42 43  1  0  0  0  0
 42 34  1  0  0  0  0
 42 45  1  0  0  0  0
 44 42  1  0  0  0  0
 46 49  1  0  0  0  0
 47 46  1  0  0  0  0
 48 46  1  0  0  0  0
M  END
$$$$
