CSD_code = NIXMIQ | q = 0 | S = 0 | Stoichiometry = C16H18Cl2N6O8Pt | MND = 4
 OpenBabel04212202073D

 51 52  0  0  0  0  0  0  0  0999 V2000
   -0.2115    2.5141   11.2177 Pt  0  0  0  0  0  0  0  0  0  0  0  0
   -1.3434    1.7689    9.3479 Cl  0  0  0  0  0  0  0  0  0  0  0  0
    4.9580    2.5296    9.4609 O   0  0  0  0  0  0  0  0  0  0  0  0
    7.1134    5.7750    7.1570 O   0  0  0  0  0  0  0  0  0  0  0  0
    8.3397    5.2259    5.4176 O   0  0  0  0  0  0  0  0  0  0  0  0
    7.3872    7.1459    5.5205 O   0  0  0  0  0  0  0  0  0  0  0  0
    0.9694    3.5736   10.0962 N   0  0  0  0  0  0  0  0  0  0  0  0
    5.4823    4.7102    9.2137 N   0  0  0  0  0  0  0  0  0  0  0  0
    7.6721    6.0697    5.9100 N   0  0  0  0  0  0  0  0  0  0  0  0
    2.2752    3.3195   10.0535 C   0  0  0  0  0  3  0  0  0  0  0  0
    3.1642    4.0804    9.3040 C   0  0  0  0  0  0  0  0  0  0  0  0
    2.6612    5.1331    8.5439 C   0  0  0  0  0  0  0  0  0  0  0  0
    1.2983    5.3829    8.5848 C   0  0  0  0  0  0  0  0  0  0  0  0
    0.4873    4.5886    9.3740 C   0  0  0  0  0  0  0  0  0  0  0  0
    4.6077    3.6820    9.3254 C   0  0  0  0  0  0  0  0  0  0  0  0
    6.9028    4.4850    9.1393 C   0  0  0  0  0  0  0  0  0  0  0  0
    7.3931    4.4875    7.6907 C   0  0  0  0  0  0  0  0  0  0  0  0
    5.1541    5.6498    9.0633 H   0  0  0  0  0  0  0  0  0  0  0  0
    2.6472    2.4865   10.6405 H   0  0  0  0  0  0  0  0  0  0  0  0
    3.3025    5.7297    7.9121 H   0  0  0  0  0  0  0  0  0  0  0  0
    0.8664    6.1840    8.0065 H   0  0  0  0  0  0  0  0  0  0  0  0
   -0.5833    4.7521    9.4227 H   0  0  0  0  0  0  0  0  0  0  0  0
    7.1018    3.5019    9.5723 H   0  0  0  0  0  0  0  0  0  0  0  0
    7.4238    5.2592    9.7058 H   0  0  0  0  0  0  0  0  0  0  0  0
    6.8663    3.7257    7.1063 H   0  0  0  0  0  0  0  0  0  0  0  0
    8.4689    4.2911    7.6455 H   0  0  0  0  0  0  0  0  0  0  0  0
    0.9203    3.2593   13.0880 Cl  0  0  0  0  0  0  0  0  0  0  0  0
   -1.3895    1.4517   12.3396 N   0  0  0  0  0  0  0  0  0  0  0  0
   -2.6963    1.6992   12.3878 C   0  0  0  0  0  3  0  0  0  0  0  0
   -3.5786    0.9319   13.1388 C   0  0  0  0  0  0  0  0  0  0  0  0
   -3.0674   -0.1203   13.8942 C   0  0  0  0  0  0  0  0  0  0  0  0
   -1.7036   -0.3635   13.8472 C   0  0  0  0  0  0  0  0  0  0  0  0
   -0.8997    0.4369   13.0570 C   0  0  0  0  0  0  0  0  0  0  0  0
    0.1715    0.2786   13.0036 H   0  0  0  0  0  0  0  0  0  0  0  0
   -1.2655   -1.1641   14.4215 H   0  0  0  0  0  0  0  0  0  0  0  0
   -3.7032   -0.7216   14.5273 H   0  0  0  0  0  0  0  0  0  0  0  0
   -5.0244    1.3225   13.1251 C   0  0  0  0  0  0  0  0  0  0  0  0
   -5.3818    2.4730   12.9929 O   0  0  0  0  0  0  0  0  0  0  0  0
   -5.8926    0.2892   13.2406 N   0  0  0  0  0  0  0  0  0  0  0  0
   -7.3138    0.5060   13.3248 C   0  0  0  0  0  0  0  0  0  0  0  0
   -7.7946    0.4973   14.7766 C   0  0  0  0  0  0  0  0  0  0  0  0
   -7.5053   -0.7902   15.3050 O   0  0  0  0  0  0  0  0  0  0  0  0
   -8.0563   -1.0917   16.5539 N   0  0  0  0  0  0  0  0  0  0  0  0
   -8.7258   -0.2529   17.0523 O   0  0  0  0  0  0  0  0  0  0  0  0
   -7.7639   -2.1676   16.9387 O   0  0  0  0  0  0  0  0  0  0  0  0
   -7.2676    1.2600   15.3595 H   0  0  0  0  0  0  0  0  0  0  0  0
   -8.8709    0.6885   14.8293 H   0  0  0  0  0  0  0  0  0  0  0  0
   -7.5213    1.4889   12.8954 H   0  0  0  0  0  0  0  0  0  0  0  0
   -7.8341   -0.2698   12.7599 H   0  0  0  0  0  0  0  0  0  0  0  0
   -5.5581   -0.6488   13.3872 H   0  0  0  0  0  0  0  0  0  0  0  0
   -3.0746    2.5320   11.8045 H   0  0  0  0  0  0  0  0  0  0  0  0
  1 28  1  0  0  0  0
  1 27  1  0  0  0  0
  2  1  1  0  0  0  0
  4 17  1  0  0  0  0
  5  9  2  0  0  0  0
  6  9  2  0  0  0  0
  7  1  1  0  0  0  0
  8 15  1  0  0  0  0
  9  4  1  0  0  0  0
 10  7  1  0  0  0  0
 10 19  1  0  0  0  0
 11 15  1  0  0  0  0
 11 10  1  0  0  0  0
 12 13  1  0  0  0  0
 12 11  2  0  0  0  0
 13 14  2  0  0  0  0
 14 22  1  0  0  0  0
 14  7  1  0  0  0  0
 15  3  2  0  0  0  0
 16  8  1  0  0  0  0
 16 23  1  0  0  0  0
 16 24  1  0  0  0  0
 17 16  1  0  0  0  0
 18  8  1  0  0  0  0
 20 12  1  0  0  0  0
 21 13  1  0  0  0  0
 25 17  1  0  0  0  0
 26 17  1  0  0  0  0
 28 29  1  0  0  0  0
 28 33  1  0  0  0  0
 29 30  1  0  0  0  0
 30 31  2  0  0  0  0
 31 36  1  0  0  0  0
 32 31  1  0  0  0  0
 32 35  1  0  0  0  0
 33 32  2  0  0  0  0
 34 33  1  0  0  0  0
 37 30  1  0  0  0  0
 37 39  1  0  0  0  0
 38 37  2  0  0  0  0
 39 40  1  0  0  0  0
 39 50  1  0  0  0  0
 40 41  1  0  0  0  0
 41 47  1  0  0  0  0
 41 42  1  0  0  0  0
 41 46  1  0  0  0  0
 42 43  1  0  0  0  0
 43 45  2  0  0  0  0
 43 44  2  0  0  0  0
 48 40  1  0  0  0  0
 49 40  1  0  0  0  0
 51 29  1  0  0  0  0
M  END
$$$$
