CSD_code = NIYJUB | q = 0 | S = 0 | Stoichiometry = C26H35Cl2N2PPd | MND = 4
 OpenBabel04212202073D

 67 71  0  0  1  0  0  0  0  0999 V2000
    3.7858   16.5241    4.8674 Pd  0  0  0  0  0  0  0  0  0  0  0  0
    3.6028   14.2794    4.5493 Cl  0  0  0  0  0  0  0  0  0  0  0  0
    3.7612   16.8228    2.6385 Cl  0  0  0  0  0  0  0  0  0  0  0  0
    3.1567   18.6205    5.1892 P   0  0  0  0  0  4  0  0  0  0  0  0
    3.9563   16.6079    6.9583 N   0  0  2  0  0  0  0  0  0  0  0  0
    2.8221   18.6047    6.8916 N   0  0  2  0  0  0  0  0  0  0  0  0
    3.3700   17.5589    7.5977 C   0  0  2  0  0  3  0  0  0  0  0  0
    4.9081   15.7058    7.5826 C   0  0  0  0  0  0  0  0  0  0  0  0
    5.2725   16.1339    8.5285 H   0  0  0  0  0  0  0  0  0  0  0  0
    6.1176   15.5829    6.6408 C   0  0  0  0  0  0  0  0  0  0  0  0
    6.5584   16.5775    6.4892 H   0  0  0  0  0  0  0  0  0  0  0  0
    5.7803   15.1880    5.6682 H   0  0  0  0  0  0  0  0  0  0  0  0
    7.1506   14.6257    7.2265 C   0  0  0  0  0  0  0  0  0  0  0  0
    7.9919   14.5338    6.5379 H   0  0  0  0  0  0  0  0  0  0  0  0
    7.5327   15.0242    8.1713 H   0  0  0  0  0  0  0  0  0  0  0  0
    6.5192   13.2578    7.4657 C   0  0  0  0  0  0  0  0  0  0  0  0
    6.1642   12.8558    6.5158 H   0  0  0  0  0  0  0  0  0  0  0  0
    7.2618   12.5695    7.8741 H   0  0  0  0  0  0  0  0  0  0  0  0
    5.3389   13.3828    8.4232 C   0  0  0  0  0  0  0  0  0  0  0  0
    5.6898   13.7576    9.3901 H   0  0  0  0  0  0  0  0  0  0  0  0
    4.8879   12.4032    8.5881 H   0  0  0  0  0  0  0  0  0  0  0  0
    4.2914   14.3297    7.8481 C   0  0  0  0  0  0  0  0  0  0  0  0
    3.9146   13.9349    6.9021 H   0  0  0  0  0  0  0  0  0  0  0  0
    3.4487   14.4294    8.5379 H   0  0  0  0  0  0  0  0  0  0  0  0
    1.8253   19.5708    7.3626 C   0  0  0  0  0  0  0  0  0  0  0  0
    1.6822   20.2273    6.4942 H   0  0  0  0  0  0  0  0  0  0  0  0
    0.4684   18.9233    7.6551 C   0  0  0  0  0  0  0  0  0  0  0  0
    0.5054   18.3370    8.5747 H   0  0  0  0  0  0  0  0  0  0  0  0
    0.2050   18.2470    6.8395 H   0  0  0  0  0  0  0  0  0  0  0  0
   -0.5892   20.0155    7.7951 C   0  0  0  0  0  0  0  0  0  0  0  0
   -0.6855   20.5441    6.8440 H   0  0  0  0  0  0  0  0  0  0  0  0
   -1.5553   19.5632    8.0239 H   0  0  0  0  0  0  0  0  0  0  0  0
   -0.2028   21.0021    8.8938 C   0  0  0  0  0  0  0  0  0  0  0  0
   -0.1881   20.4851    9.8561 H   0  0  0  0  0  0  0  0  0  0  0  0
   -0.9477   21.7969    8.9553 H   0  0  0  0  0  0  0  0  0  0  0  0
    1.1738   21.6034    8.6235 C   0  0  0  0  0  0  0  0  0  0  0  0
    1.4450   22.2858    9.4309 H   0  0  0  0  0  0  0  0  0  0  0  0
    1.1461   22.1783    7.6953 H   0  0  0  0  0  0  0  0  0  0  0  0
    2.2262   20.5000    8.5124 C   0  0  0  0  0  0  0  0  0  0  0  0
    2.2706   19.9758    9.4650 H   0  0  0  0  0  0  0  0  0  0  0  0
    3.2045   20.9409    8.3187 H   0  0  0  0  0  0  0  0  0  0  0  0
    3.3251   17.6118    9.1010 C   0  0  0  0  0  0  0  0  0  0  0  0
    3.5432   16.6350    9.5211 H   0  0  0  0  0  0  0  0  0  0  0  0
    2.3373   17.9020    9.4398 H   0  0  0  0  0  0  0  0  0  0  0  0
    4.0525   18.3305    9.4766 H   0  0  0  0  0  0  0  0  0  0  0  0
    1.4862   18.7377    4.4551 C   0  0  0  0  0  0  0  0  0  0  0  0
    0.8124   17.5274    4.2833 C   0  0  0  0  0  0  0  0  0  0  0  0
    1.3091   16.5850    4.5508 H   0  0  0  0  0  0  0  0  0  0  0  0
   -0.4660   17.5118    3.7570 C   0  0  0  0  0  0  0  0  0  0  0  0
   -0.9789   16.5722    3.6178 H   0  0  0  0  0  0  0  0  0  0  0  0
   -1.0817   18.7008    3.3978 C   0  0  0  0  0  0  0  0  0  0  0  0
   -2.0773   18.6887    2.9801 H   0  0  0  0  0  0  0  0  0  0  0  0
   -0.4167   19.9040    3.5637 C   0  0  0  0  0  0  0  0  0  0  0  0
   -0.8934   20.8300    3.2768 H   0  0  0  0  0  0  0  0  0  0  0  0
    0.8632   19.9272    4.0905 C   0  0  0  0  0  0  0  0  0  0  0  0
    1.3797   20.8713    4.2021 H   0  0  0  0  0  0  0  0  0  0  0  0
    3.9223   20.2266    4.8619 C   0  0  0  0  0  0  0  0  0  0  0  0
    4.6590   20.9205    5.8154 C   0  0  0  0  0  0  0  0  0  0  0  0
    4.7172   20.5398    6.8256 H   0  0  0  0  0  0  0  0  0  0  0  0
    5.3221   22.0824    5.4648 C   0  0  0  0  0  0  0  0  0  0  0  0
    5.8813   22.6290    6.2102 H   0  0  0  0  0  0  0  0  0  0  0  0
    5.2809   22.5376    4.1567 C   0  0  0  0  0  0  0  0  0  0  0  0
    5.8001   23.4448    3.8863 H   0  0  0  0  0  0  0  0  0  0  0  0
    4.5963   21.8162    3.1899 C   0  0  0  0  0  0  0  0  0  0  0  0
    4.5925   22.1545    2.1646 H   0  0  0  0  0  0  0  0  0  0  0  0
    3.9261   20.6585    3.5353 C   0  0  0  0  0  0  0  0  0  0  0  0
    3.4141   20.0675    2.7874 H   0  0  0  0  0  0  0  0  0  0  0  0
  1  4  1  0  0  0  0
  1  5  1  0  0  0  0
  2  1  1  0  0  0  0
  3  1  1  0  0  0  0
  4  6  1  0  0  0  0
  5  8  1  6  0  0  0
  5  7  1  0  0  0  0
  6 25  1  6  0  0  0
  6  7  1  0  0  0  0
  7 42  1  1  0  0  0
  8 22  1  0  0  0  0
  8  9  1  0  0  0  0
 10 13  1  0  0  0  0
 10  8  1  0  0  0  0
 11 10  1  0  0  0  0
 12 10  1  0  0  0  0
 13 16  1  0  0  0  0
 13 15  1  0  0  0  0
 14 13  1  0  0  0  0
 16 18  1  0  0  0  0
 16 19  1  0  0  0  0
 17 16  1  0  0  0  0
 19 21  1  0  0  0  0
 19 20  1  0  0  0  0
 22 19  1  0  0  0  0
 22 24  1  0  0  0  0
 23 22  1  0  0  0  0
 25 27  1  0  0  0  0
 25 39  1  0  0  0  0
 26 25  1  0  0  0  0
 27 30  1  0  0  0  0
 27 28  1  0  0  0  0
 29 27  1  0  0  0  0
 30 32  1  0  0  0  0
 30 33  1  0  0  0  0
 31 30  1  0  0  0  0
 33 35  1  0  0  0  0
 33 34  1  0  0  0  0
 36 33  1  0  0  0  0
 36 37  1  0  0  0  0
 38 36  1  0  0  0  0
 39 36  1  0  0  0  0
 39 40  1  0  0  0  0
 41 39  1  0  0  0  0
 42 44  1  0  0  0  0
 42 45  1  0  0  0  0
 42 43  1  0  0  0  0
 46  4  1  0  0  0  0
 47 46  1  0  0  0  0
 47 48  1  0  0  0  0
 49 47  2  0  0  0  0
 50 49  1  0  0  0  0
 51 53  2  0  0  0  0
 51 49  1  0  0  0  0
 52 51  1  0  0  0  0
 53 55  1  0  0  0  0
 54 53  1  0  0  0  0
 55 56  1  0  0  0  0
 55 46  2  0  0  0  0
 57  4  1  0  0  0  0
 57 58  1  0  0  0  0
 58 59  1  0  0  0  0
 60 58  2  0  0  0  0
 60 61  1  0  0  0  0
 62 60  1  0  0  0  0
 63 62  1  0  0  0  0
 64 66  1  0  0  0  0
 64 62  2  0  0  0  0
 65 64  1  0  0  0  0
 66 57  2  0  0  0  0
 67 66  1  0  0  0  0
M  END
$$$$
