CSD_code = NIYTIA | q = 0 | S = 0 | Stoichiometry = C18H12AuCl3N2 | MND = 4
 OpenBabel04212202073D

 36 40  0  0  0  0  0  0  0  0999 V2000
    3.6699    4.7479    1.6269 Au  0  0  0  0  0  0  0  0  0  0  0  0
    2.3172    5.7164    3.1883 Cl  0  0  0  0  0  0  0  0  0  0  0  0
    4.1951    6.7208    0.7472 Cl  0  0  0  0  0  0  0  0  0  0  0  0
    5.2127    3.6778    0.3022 Cl  0  0  0  0  0  0  0  0  0  0  0  0
    3.3116    2.9152    2.4866 N   0  0  0  0  0  0  0  0  0  0  0  0
    2.0317    3.6332    0.1774 N   0  0  0  0  0  0  0  0  0  0  0  0
    3.8174    2.6110    3.6636 C   0  0  0  0  0  0  0  0  0  0  0  0
    4.2638    3.4177    4.2253 H   0  0  0  0  0  0  0  0  0  0  0  0
    3.7845    1.3134    4.1713 C   0  0  0  0  0  0  0  0  0  0  0  0
    4.2057    1.1150    5.1435 H   0  0  0  0  0  0  0  0  0  0  0  0
    3.2385    0.3118    3.4050 C   0  0  0  0  0  0  0  0  0  0  0  0
    3.2303   -0.7117    3.7503 H   0  0  0  0  0  0  0  0  0  0  0  0
    2.6851    0.6218    2.1524 C   0  0  0  0  0  0  0  0  0  0  0  0
    2.7152    1.9732    1.7353 C   0  0  0  0  0  0  0  0  0  0  0  0
    2.1237   -0.3637    1.2928 C   0  0  0  0  0  0  0  0  0  0  0  0
    2.1217   -1.3889    1.6309 H   0  0  0  0  0  0  0  0  0  0  0  0
    1.6266   -0.0287    0.0764 C   0  0  0  0  0  0  0  0  0  0  0  0
    1.2286   -0.7836   -0.5857 H   0  0  0  0  0  0  0  0  0  0  0  0
    1.6028    1.3246   -0.3547 C   0  0  0  0  0  0  0  0  0  0  0  0
    2.1089    2.3364    0.4883 C   0  0  0  0  0  0  0  0  0  0  0  0
    1.0877    1.7335   -1.6015 C   0  0  0  0  0  0  0  0  0  0  0  0
    0.7089    0.9882   -2.2864 H   0  0  0  0  0  0  0  0  0  0  0  0
    1.0687    3.0631   -1.9232 C   0  0  0  0  0  0  0  0  0  0  0  0
    0.6760    3.4036   -2.8684 H   0  0  0  0  0  0  0  0  0  0  0  0
    1.5276    4.0125   -0.9825 C   0  0  0  0  0  0  0  0  0  0  0  0
    1.4489    5.4511   -1.2294 C   0  0  0  0  0  0  0  0  0  0  0  0
    1.7578    5.9847   -2.4794 C   0  0  0  0  0  0  0  0  0  0  0  0
    2.0662    5.3313   -3.2828 H   0  0  0  0  0  0  0  0  0  0  0  0
    1.7273    7.3523   -2.6730 C   0  0  0  0  0  0  0  0  0  0  0  0
    1.9909    7.7627   -3.6365 H   0  0  0  0  0  0  0  0  0  0  0  0
    1.3730    8.1970   -1.6332 C   0  0  0  0  0  0  0  0  0  0  0  0
    1.3578    9.2655   -1.7875 H   0  0  0  0  0  0  0  0  0  0  0  0
    1.0473    7.6717   -0.3936 C   0  0  0  0  0  0  0  0  0  0  0  0
    0.7758    8.3254    0.4208 H   0  0  0  0  0  0  0  0  0  0  0  0
    1.0901    6.3068   -0.1883 C   0  0  0  0  0  0  0  0  0  0  0  0
    0.8339    5.8911    0.7739 H   0  0  0  0  0  0  0  0  0  0  0  0
  1  5  1  0  0  0  0
  1  2  1  0  0  0  0
  3  1  1  0  0  0  0
  4  1  1  0  0  0  0
  5  7  1  0  0  0  0
  6 20  1  0  0  0  0
  6  1  1  0  0  0  0
  7  9  2  0  0  0  0
  7  8  1  0  0  0  0
  9 10  1  0  0  0  0
 11 12  1  0  0  0  0
 11  9  1  0  0  0  0
 13 11  2  0  0  0  0
 14 13  1  0  0  0  0
 14  5  1  0  0  0  0
 15 16  1  0  0  0  0
 15 13  1  0  0  0  0
 17 15  2  0  0  0  0
 18 17  1  0  0  0  0
 19 17  1  0  0  0  0
 19 20  1  0  0  0  0
 20 14  2  0  0  0  0
 21 19  2  0  0  0  0
 22 21  1  0  0  0  0
 23 21  1  0  0  0  0
 23 25  2  0  0  0  0
 24 23  1  0  0  0  0
 25  6  1  0  0  0  0
 26 25  1  0  0  0  0
 26 35  1  0  0  0  0
 27 26  2  0  0  0  0
 28 27  1  0  0  0  0
 29 27  1  0  0  0  0
 29 31  2  0  0  0  0
 30 29  1  0  0  0  0
 31 33  1  0  0  0  0
 32 31  1  0  0  0  0
 33 35  2  0  0  0  0
 33 34  1  0  0  0  0
 35 36  1  0  0  0  0
M  END
$$$$
