CSD_code = NOBCEN | q = 0 | S = 0 | Stoichiometry = C25H31Cl2NORuS | MND = 5
 OpenBabel04212202073D

 62 64  0  0  1  0  0  0  0  0999 V2000
   10.3507    0.0716   10.0107 Ru  0  0  0  0  0  0  0  0  0  0  0  0
   10.4855   -1.2937   11.8444 Cl  0  0  0  0  0  0  0  0  0  0  0  0
    9.5842    1.7800    8.6989 Cl  0  0  0  0  0  0  0  0  0  0  0  0
   13.6631    0.2310    9.6370 S   0  0  0  0  0  0  0  0  0  0  0  0
    8.3641   -0.8739    9.6131 O   0  0  0  0  0  0  0  0  0  0  0  0
   12.4191    1.8053   11.1190 N   0  0  0  0  0  0  0  0  0  0  0  0
   12.1614    0.7914   10.2834 C   0  0  2  0  0  3  0  0  0  0  0  0
   13.7402    2.1713   11.2915 C   0  0  0  0  0  0  0  0  0  0  0  0
   14.5779    1.4128   10.5522 C   0  0  0  0  0  0  0  0  0  0  0  0
   14.1129    3.2787   12.2180 C   0  0  0  0  0  0  0  0  0  0  0  0
   16.0587    1.4780   10.4529 C   0  0  0  0  0  0  0  0  0  0  0  0
   11.3057    2.4532   11.7457 C   0  0  0  0  0  0  0  0  0  0  0  0
   10.7031    3.5385   11.0976 C   0  0  0  0  0  0  0  0  0  0  0  0
    9.5533    4.0774   11.6610 C   0  0  0  0  0  0  0  0  0  0  0  0
    9.0305    3.5682   12.8349 C   0  0  0  0  0  0  0  0  0  0  0  0
    9.6837    2.5477   13.4997 C   0  0  0  0  0  0  0  0  0  0  0  0
   10.8422    1.9808   12.9794 C   0  0  0  0  0  0  0  0  0  0  0  0
   11.2859    4.1726    9.8653 C   0  0  0  0  0  0  0  0  0  0  0  0
   11.8943    5.5391   10.1859 C   0  0  0  0  0  0  0  0  0  0  0  0
   11.5915    0.9609   13.7913 C   0  0  0  0  0  0  0  0  0  0  0  0
   12.2024    1.6023   15.0388 C   0  0  0  0  0  0  0  0  0  0  0  0
   10.8179   -1.1482    8.6437 C   0  0  0  0  0  3  0  0  0  0  0  0
    9.7760   -1.9280    8.0912 C   0  0  0  0  0  0  0  0  0  0  0  0
    9.9744   -2.8414    7.0418 C   0  0  0  0  0  0  0  0  0  0  0  0
    8.9240   -3.5692    6.5292 C   0  0  0  0  0  0  0  0  0  0  0  0
    7.6468   -3.4045    7.0472 C   0  0  0  0  0  0  0  0  0  0  0  0
    7.4104   -2.5178    8.0866 C   0  0  0  0  0  0  0  0  0  0  0  0
    8.4589   -1.7813    8.6148 C   0  0  0  0  0  0  0  0  0  0  0  0
    7.1669   -0.6905   10.3655 C   0  0  0  0  0  0  0  0  0  0  0  0
    7.3618    0.6182   11.1250 C   0  0  0  0  0  0  0  0  0  0  0  0
    6.9593   -1.8638   11.3215 C   0  0  0  0  0  0  0  0  0  0  0  0
   14.7275    2.8990   13.0332 H   0  0  0  0  0  0  0  0  0  0  0  0
   13.2187    3.7347   12.6352 H   0  0  0  0  0  0  0  0  0  0  0  0
   14.6859    4.0392   11.6900 H   0  0  0  0  0  0  0  0  0  0  0  0
   16.4504    2.2416   11.1192 H   0  0  0  0  0  0  0  0  0  0  0  0
   16.3597    1.7098    9.4323 H   0  0  0  0  0  0  0  0  0  0  0  0
   16.4967    0.5173   10.7184 H   0  0  0  0  0  0  0  0  0  0  0  0
    9.0590    4.8942   11.1575 H   0  0  0  0  0  0  0  0  0  0  0  0
    8.1191    3.9800   13.2426 H   0  0  0  0  0  0  0  0  0  0  0  0
    9.2924    2.1727   14.4338 H   0  0  0  0  0  0  0  0  0  0  0  0
   10.4916    4.2993    9.1292 H   0  0  0  0  0  0  0  0  0  0  0  0
   12.0434    3.5287    9.4168 H   0  0  0  0  0  0  0  0  0  0  0  0
   11.1430    6.2056   10.6029 H   0  0  0  0  0  0  0  0  0  0  0  0
   12.2887    5.9895    9.2783 H   0  0  0  0  0  0  0  0  0  0  0  0
   12.7051    5.4490   10.9050 H   0  0  0  0  0  0  0  0  0  0  0  0
   12.3792    0.4934   13.1991 H   0  0  0  0  0  0  0  0  0  0  0  0
   10.9056    0.1695   14.0973 H   0  0  0  0  0  0  0  0  0  0  0  0
   12.8975    2.3945   14.7702 H   0  0  0  0  0  0  0  0  0  0  0  0
   12.7400    0.8522   15.6134 H   0  0  0  0  0  0  0  0  0  0  0  0
   11.4285    2.0307   15.6711 H   0  0  0  0  0  0  0  0  0  0  0  0
   11.8179   -1.2997    8.2243 H   0  0  0  0  0  0  0  0  0  0  0  0
   10.9710   -2.9584    6.6426 H   0  0  0  0  0  0  0  0  0  0  0  0
    9.0910   -4.2668    5.7228 H   0  0  0  0  0  0  0  0  0  0  0  0
    6.8223   -3.9712    6.6417 H   0  0  0  0  0  0  0  0  0  0  0  0
    6.4060   -2.4092    8.4654 H   0  0  0  0  0  0  0  0  0  0  0  0
    6.3195   -0.5916    9.6712 H   0  0  0  0  0  0  0  0  0  0  0  0
    8.2657    0.5493   11.7421 H   0  0  0  0  0  0  0  0  0  0  0  0
    6.5156    0.8122   11.7781 H   0  0  0  0  0  0  0  0  0  0  0  0
    7.4686    1.4495   10.4271 H   0  0  0  0  0  0  0  0  0  0  0  0
    6.8414   -2.7978   10.7768 H   0  0  0  0  0  0  0  0  0  0  0  0
    6.0742   -1.6967   11.9292 H   0  0  0  0  0  0  0  0  0  0  0  0
    7.8282   -1.9547   11.9717 H   0  0  0  0  0  0  0  0  0  0  0  0
  1  2  1  0  0  0  0
  3  1  1  0  0  0  0
  4  7  1  0  0  0  0
  4  9  1  0  0  0  0
  5 29  1  0  0  0  0
  6  8  1  0  0  0  0
  6 12  1  0  0  0  0
  7  1  1  1  0  0  0
  7  6  1  0  0  0  0
  8 10  1  0  0  0  0
  9  8  2  0  0  0  0
 10 33  1  0  0  0  0
 10 32  1  0  0  0  0
 11  9  1  0  0  0  0
 11 37  1  0  0  0  0
 11 35  1  0  0  0  0
 12 17  1  0  0  0  0
 13 14  1  0  0  0  0
 13 12  2  0  0  0  0
 14 15  2  0  0  0  0
 15 39  1  0  0  0  0
 15 16  1  0  0  0  0
 16 40  1  0  0  0  0
 17 16  2  0  0  0  0
 17 20  1  0  0  0  0
 18 19  1  0  0  0  0
 18 13  1  0  0  0  0
 19 43  1  0  0  0  0
 19 45  1  0  0  0  0
 20 47  1  0  0  0  0
 20 21  1  0  0  0  0
 21 49  1  0  0  0  0
 21 50  1  0  0  0  0
 22  1  1  0  0  0  0
 23 28  1  0  0  0  0
 23 22  1  0  0  0  0
 24 23  2  0  0  0  0
 25 24  1  0  0  0  0
 25 26  2  0  0  0  0
 26 27  1  0  0  0  0
 27 55  1  0  0  0  0
 27 28  2  0  0  0  0
 28  5  1  0  0  0  0
 29 30  1  0  0  0  0
 29 31  1  0  0  0  0
 30 57  1  0  0  0  0
 30 58  1  0  0  0  0
 31 61  1  0  0  0  0
 31 62  1  0  0  0  0
 34 10  1  0  0  0  0
 36 11  1  0  0  0  0
 38 14  1  0  0  0  0
 41 18  1  0  0  0  0
 42 18  1  0  0  0  0
 44 19  1  0  0  0  0
 46 20  1  0  0  0  0
 48 21  1  0  0  0  0
 51 22  1  0  0  0  0
 52 24  1  0  0  0  0
 53 25  1  0  0  0  0
 54 26  1  0  0  0  0
 56 29  1  0  0  0  0
 59 30  1  0  0  0  0
 60 31  1  0  0  0  0
M  END
$$$$
