CSD_code = NOBGER | q = 0 | S = 0 | Stoichiometry = C16H16ClNOPdS | MND = 4
 OpenBabel04212202073D

 37 40  0  0  0  0  0  0  0  0999 V2000
    5.3212    1.1255    1.0805 Pd  0  0  2  0  0  0  0  0  0  0  0  0
    3.5925   -0.2661    0.5379 S   0  0  2  0  0  3  0  0  0  0  0  0
    5.3954    0.2665    3.1482 Cl  0  0  0  0  0  0  0  0  0  0  0  0
    6.7452    2.4271    1.5898 O   0  0  0  0  0  0  0  0  0  0  0  0
    5.2238    1.9100   -0.8248 N   0  0  0  0  0  0  0  0  0  0  0  0
    7.5675    2.8904    0.7180 C   0  0  0  0  0  0  0  0  0  0  0  0
    7.2542    3.1773   -0.6510 C   0  0  0  0  0  0  0  0  0  0  0  0
    8.2522    3.7583   -1.4581 C   0  0  0  0  0  3  0  0  0  0  0  0
    8.0484    3.9271   -2.5050 H   0  0  0  0  0  0  0  0  0  0  0  0
    9.5010    4.0549   -0.9798 C   0  0  0  0  0  0  0  0  0  0  0  0
   10.2493    4.4718   -1.6364 H   0  0  0  0  0  0  0  0  0  0  0  0
    9.8019    3.8064    0.3619 C   0  0  0  0  0  0  0  0  0  0  0  0
   10.7815    4.0492    0.7475 H   0  0  0  0  0  0  0  0  0  0  0  0
    8.8642    3.2447    1.1804 C   0  0  0  0  0  0  0  0  0  0  0  0
    9.0735    3.0355    2.2184 H   0  0  0  0  0  0  0  0  0  0  0  0
    5.9691    2.8875   -1.2410 C   0  0  0  0  0  0  0  0  0  0  0  0
    5.5134    3.7578   -2.3861 C   0  0  0  0  0  0  0  0  0  0  0  0
    5.6643    3.2544   -3.3419 H   0  0  0  0  0  0  0  0  0  0  0  0
    6.0579    4.6960   -2.3955 H   0  0  0  0  0  0  0  0  0  0  0  0
    4.4528    3.9829   -2.2814 H   0  0  0  0  0  0  0  0  0  0  0  0
    3.9966    1.5647   -1.5174 C   0  0  0  0  0  0  0  0  0  0  0  0
    4.1056    1.6963   -2.6018 H   0  0  0  0  0  0  0  0  0  0  0  0
    3.1704    2.2063   -1.1727 H   0  0  0  0  0  0  0  0  0  0  0  0
    3.6419    0.1052   -1.2585 C   0  0  0  0  0  0  0  0  0  0  0  0
    4.4149   -0.5547   -1.6561 H   0  0  0  0  0  0  0  0  0  0  0  0
    2.6782   -0.1496   -1.6991 H   0  0  0  0  0  0  0  0  0  0  0  0
    2.2250    0.8105    0.9874 C   0  0  0  0  0  0  0  0  0  0  0  0
    0.9476    0.4704    0.5666 C   0  0  0  0  0  0  0  0  0  0  0  0
    0.7921   -0.4324   -0.0049 H   0  0  0  0  0  0  0  0  0  0  0  0
   -0.1205    1.2888    0.8907 C   0  0  0  0  0  0  0  0  0  0  0  0
   -1.1147    1.0274    0.5611 H   0  0  0  0  0  0  0  0  0  0  0  0
    0.0864    2.4330    1.6441 C   0  0  0  0  0  0  0  0  0  0  0  0
   -0.7483    3.0686    1.8981 H   0  0  0  0  0  0  0  0  0  0  0  0
    1.3613    2.7570    2.0805 C   0  0  0  0  0  0  0  0  0  0  0  0
    1.5213    3.6418    2.6775 H   0  0  0  0  0  0  0  0  0  0  0  0
    2.4390    1.9492    1.7554 C   0  0  0  0  0  0  0  0  0  0  0  0
    3.4484    2.1952    2.1195 H   0  0  0  0  0  0  0  0  0  0  0  0
  1  4  1  0  0  0  0
  1  3  1  6  0  0  0
  2 27  1  1  0  0  0
  2  1  1  0  0  0  0
  5  1  1  0  0  0  0
  6 14  2  0  0  0  0
  6  4  1  0  0  0  0
  7  6  1  0  0  0  0
  8 10  1  0  0  0  0
  8  7  1  0  0  0  0
  9  8  1  0  0  0  0
 10 12  2  0  0  0  0
 11 10  1  0  0  0  0
 12 13  1  0  0  0  0
 12 14  1  0  0  0  0
 14 15  1  0  0  0  0
 16  5  1  0  0  0  0
 16  7  2  0  0  0  0
 17 20  1  0  0  0  0
 17 16  1  0  0  0  0
 18 17  1  0  0  0  0
 19 17  1  0  0  0  0
 21 24  1  0  0  0  0
 21 23  1  0  0  0  0
 21  5  1  0  0  0  0
 22 21  1  0  0  0  0
 24  2  1  0  0  0  0
 25 24  1  0  0  0  0
 26 24  1  0  0  0  0
 27 36  1  0  0  0  0
 28 30  1  0  0  0  0
 28 27  2  0  0  0  0
 29 28  1  0  0  0  0
 30 32  2  0  0  0  0
 31 30  1  0  0  0  0
 32 33  1  0  0  0  0
 32 34  1  0  0  0  0
 34 35  1  0  0  0  0
 36 34  2  0  0  0  0
 36 37  1  0  0  0  0
M  END
$$$$
