CSD_code = NOBYUA | q = 0 | S = 0 | Stoichiometry = C15H18CdI2N2OS | MND = 5
 OpenBabel04212202073D

 40 42  0  0  0  0  0  0  0  0999 V2000
   -1.3284    9.4486    5.1969 I   0  0  0  0  0  0  0  0  0  0  0  0
    1.1931    6.5595    2.2612 I   0  0  0  0  0  0  0  0  0  0  0  0
    0.8599    8.0058    4.5047 Cd  0  0  0  0  0  0  0  0  0  0  0  0
   -0.8656    5.1091    6.0063 S   0  0  0  0  0  3  0  0  0  0  0  0
    0.2362    6.0997    5.8979 O   0  0  0  0  0  0  0  0  0  0  0  0
    2.3690    8.5841    6.2925 N   0  0  0  0  0  0  0  0  0  0  0  0
    2.3633    9.8762    3.8812 N   0  0  0  0  0  0  0  0  0  0  0  0
    2.3208    8.0092    7.4801 C   0  0  0  0  0  3  0  0  0  0  0  0
    1.7374    7.0988    7.5382 H   0  0  0  0  0  0  0  0  0  0  0  0
    2.9720    8.5237    8.5934 C   0  0  0  0  0  0  0  0  0  0  0  0
    2.9051    8.0196    9.5442 H   0  0  0  0  0  0  0  0  0  0  0  0
    3.7025    9.6935    8.4516 C   0  0  0  0  0  0  0  0  0  0  0  0
    4.2204   10.1267    9.2943 H   0  0  0  0  0  0  0  0  0  0  0  0
    3.7556   10.2987    7.2089 C   0  0  0  0  0  0  0  0  0  0  0  0
    4.3096   11.2126    7.0571 H   0  0  0  0  0  0  0  0  0  0  0  0
    3.0693    9.7143    6.1424 C   0  0  0  0  0  0  0  0  0  0  0  0
    3.0953   10.3234    4.8217 C   0  0  0  0  0  3  0  0  0  0  0  0
    3.7532   11.1897    4.6997 H   0  0  0  0  0  0  0  0  0  0  0  0
    2.4076   10.3693    2.5905 C   0  0  0  0  0  0  0  0  0  0  0  0
    3.5937   10.8037    1.9919 C   0  0  0  0  0  0  0  0  0  0  0  0
    4.5213   10.7627    2.5454 H   0  0  0  0  0  0  0  0  0  0  0  0
    3.5945   11.2144    0.6752 C   0  0  0  0  0  0  0  0  0  0  0  0
    4.5230   11.5257    0.2183 H   0  0  0  0  0  0  0  0  0  0  0  0
    2.4234   11.2246   -0.0747 C   0  0  0  0  0  0  0  0  0  0  0  0
    1.2434   10.7958    0.5284 C   0  0  0  0  0  0  0  0  0  0  0  0
    0.3267   10.7910   -0.0421 H   0  0  0  0  0  0  0  0  0  0  0  0
    1.2307   10.3605    1.8347 C   0  0  0  0  0  0  0  0  0  0  0  0
    0.3038   10.0370    2.2907 H   0  0  0  0  0  0  0  0  0  0  0  0
    2.4288   11.6507   -1.5077 C   0  0  0  0  0  0  0  0  0  0  0  0
    3.3313   12.2068   -1.7486 H   0  0  0  0  0  0  0  0  0  0  0  0
    1.5603   12.2676   -1.7290 H   0  0  0  0  0  0  0  0  0  0  0  0
    2.3851   10.7725   -2.1522 H   0  0  0  0  0  0  0  0  0  0  0  0
   -1.8588    5.2943    4.4785 C   0  0  0  0  0  0  0  0  0  0  0  0
   -1.2594    4.9424    3.6430 H   0  0  0  0  0  0  0  0  0  0  0  0
   -2.1238    6.3389    4.3329 H   0  0  0  0  0  0  0  0  0  0  0  0
   -2.7486    4.6829    4.5758 H   0  0  0  0  0  0  0  0  0  0  0  0
   -2.0986    5.8950    7.1205 C   0  0  0  0  0  0  0  0  0  0  0  0
   -1.6704    5.9408    8.1171 H   0  0  0  0  0  0  0  0  0  0  0  0
   -2.9918    5.2815    7.1319 H   0  0  0  0  0  0  0  0  0  0  0  0
   -2.3223    6.8981    6.7710 H   0  0  0  0  0  0  0  0  0  0  0  0
  2  3  1  0  0  0  0
  3  1  1  0  0  0  0
  3  5  1  0  0  0  0
  3  6  1  0  0  0  0
  4 37  1  0  0  0  0
  5  4  1  0  0  0  0
  6  8  1  0  0  0  0
  7  3  1  0  0  0  0
  7 17  1  0  0  0  0
  8  9  1  0  0  0  0
  8 10  1  0  0  0  0
 10 11  1  0  0  0  0
 12 10  2  0  0  0  0
 12 13  1  0  0  0  0
 14 12  1  0  0  0  0
 15 14  1  0  0  0  0
 16  6  1  0  0  0  0
 16 14  2  0  0  0  0
 17 16  1  0  0  0  0
 18 17  1  0  0  0  0
 19  7  1  0  0  0  0
 20 21  1  0  0  0  0
 20 19  1  0  0  0  0
 22 20  2  0  0  0  0
 23 22  1  0  0  0  0
 24 25  2  0  0  0  0
 24 22  1  0  0  0  0
 25 27  1  0  0  0  0
 26 25  1  0  0  0  0
 27 28  1  0  0  0  0
 27 19  2  0  0  0  0
 29 24  1  0  0  0  0
 30 29  1  0  0  0  0
 31 29  1  0  0  0  0
 32 29  1  0  0  0  0
 33 36  1  0  0  0  0
 33  4  1  0  0  0  0
 34 33  1  0  0  0  0
 35 33  1  0  0  0  0
 37 39  1  0  0  0  0
 37 38  1  0  0  0  0
 40 37  1  0  0  0  0
M  END
$$$$
