CSD_code = NOCCOY | q = 0 | S = 0 | Stoichiometry = C10H18ClCuN2 | MND = 3
 OpenBabel04212202073D

 32 31  0  0  0  0  0  0  0  0999 V2000
    3.2670    3.1154   10.6008 Cu  0  0  0  0  0  0  0  0  0  0  0  0
    2.4886    1.7689    8.9992 Cl  0  0  0  0  0  0  0  0  0  0  0  0
    1.8699    2.7516   11.7772 C   0  0  0  0  0  3  0  0  0  0  0  0
    0.8806    2.1780   12.0012 N   0  0  0  0  0  2  0  0  0  0  0  0
   -0.2611    1.3542   11.9550 C   0  0  0  0  0  0  0  0  0  0  0  0
   -1.1004    1.5996   13.2096 C   0  0  0  0  0  0  0  0  0  0  0  0
   -0.5290    1.3608   14.1041 H   0  0  0  0  0  0  0  0  0  0  0  0
   -1.9878    0.9729   13.1850 H   0  0  0  0  0  0  0  0  0  0  0  0
   -1.4104    2.6411   13.2632 H   0  0  0  0  0  0  0  0  0  0  0  0
    0.2322   -0.0941   11.8844 C   0  0  0  0  0  0  0  0  0  0  0  0
    0.8648   -0.2238   11.0089 H   0  0  0  0  0  0  0  0  0  0  0  0
   -0.6166   -0.7686   11.8099 H   0  0  0  0  0  0  0  0  0  0  0  0
    0.8081   -0.3480   12.7720 H   0  0  0  0  0  0  0  0  0  0  0  0
   -1.0288    1.7220   10.6816 C   0  0  0  0  0  0  0  0  0  0  0  0
   -1.3799    2.7507   10.7287 H   0  0  0  0  0  0  0  0  0  0  0  0
   -1.8838    1.0619   10.5624 H   0  0  0  0  0  0  0  0  0  0  0  0
   -0.3764    1.6173    9.8170 H   0  0  0  0  0  0  0  0  0  0  0  0
    4.7617    3.6406    9.6213 C   0  0  0  0  0  2  0  0  0  0  0  0
    5.3840    3.5677    8.6388 N   0  0  0  0  0  2  0  0  0  0  0  0
    5.8803    3.2616    7.3564 C   0  0  0  0  0  0  0  0  0  0  0  0
    4.8648    3.7959    6.3420 C   0  0  0  0  0  0  0  0  0  0  0  0
    3.8927    3.3422    6.5228 H   0  0  0  0  0  0  0  0  0  0  0  0
    5.1875    3.5497    5.3339 H   0  0  0  0  0  0  0  0  0  0  0  0
    4.7673    4.8762    6.4277 H   0  0  0  0  0  0  0  0  0  0  0  0
    5.9774    1.7357    7.2651 C   0  0  0  0  0  0  0  0  0  0  0  0
    6.7000    1.3532    7.9828 H   0  0  0  0  0  0  0  0  0  0  0  0
    6.2852    1.4447    6.2643 H   0  0  0  0  0  0  0  0  0  0  0  0
    5.0067    1.2933    7.4804 H   0  0  0  0  0  0  0  0  0  0  0  0
    7.2476    3.9245    7.1832 C   0  0  0  0  0  0  0  0  0  0  0  0
    7.1628    5.0051    7.2774 H   0  0  0  0  0  0  0  0  0  0  0  0
    7.6464    3.6903    6.1999 H   0  0  0  0  0  0  0  0  0  0  0  0
    7.9442    3.5638    7.9370 H   0  0  0  0  0  0  0  0  0  0  0  0
  1  3  2  0  0  0  0
  2  1  1  0  0  0  0
  3  4  1  0  0  0  0
  5  4  1  0  0  0  0
  5  6  1  0  0  0  0
  6  9  1  0  0  0  0
  6  7  1  0  0  0  0
  8  6  1  0  0  0  0
 10  5  1  0  0  0  0
 10 13  1  0  0  0  0
 11 10  1  0  0  0  0
 12 10  1  0  0  0  0
 14 15  1  0  0  0  0
 14  5  1  0  0  0  0
 16 14  1  0  0  0  0
 17 14  1  0  0  0  0
 18  1  1  0  0  0  0
 19 18  1  0  0  0  0
 20 19  1  0  0  0  0
 21 24  1  0  0  0  0
 21 22  1  0  0  0  0
 21 20  1  0  0  0  0
 23 21  1  0  0  0  0
 25 20  1  0  0  0  0
 25 28  1  0  0  0  0
 25 26  1  0  0  0  0
 27 25  1  0  0  0  0
 29 30  1  0  0  0  0
 29 20  1  0  0  0  0
 29 32  1  0  0  0  0
 31 29  1  0  0  0  0
M  END
$$$$
