CSD_code = NOCCIT | q = 0 | S = 0 | Stoichiometry = C13H12CdI2N2O | MND = 5
 OpenBabel04212202073D

 31 33  0  0  0  0  0  0  0  0999 V2000
    2.7180    8.3074    1.4421 I   0  0  0  0  0  0  0  0  0  0  0  0
    0.0510    9.4565    5.4795 I   0  0  0  0  0  0  0  0  0  0  0  0
    2.1549    8.6140    4.0494 Cd  0  0  0  0  0  0  0  0  0  0  0  0
    2.9658   11.1635    3.9156 O   0  0  0  0  0  0  0  0  0  0  0  0
    3.4776    6.6890    4.8268 N   0  0  0  0  0  0  0  0  0  0  0  0
    3.9738    9.2985    5.5018 N   0  0  0  0  0  0  0  0  0  0  0  0
    3.2916    5.4409    4.4352 C   0  0  0  0  0  3  0  0  0  0  0  0
    2.3510    5.2292    3.9388 H   0  0  0  0  0  0  0  0  0  0  0  0
    4.2314    4.4374    4.6317 C   0  0  0  0  0  0  0  0  0  0  0  0
    4.0335    3.4338    4.2916 H   0  0  0  0  0  0  0  0  0  0  0  0
    5.4206    4.7605    5.2670 C   0  0  0  0  0  0  0  0  0  0  0  0
    6.1772    4.0094    5.4374 H   0  0  0  0  0  0  0  0  0  0  0  0
    5.6224    6.0662    5.6774 C   0  0  0  0  0  0  0  0  0  0  0  0
    6.5368    6.3593    6.1704 H   0  0  0  0  0  0  0  0  0  0  0  0
    4.6259    7.0142    5.4353 C   0  0  0  0  0  0  0  0  0  0  0  0
    4.8106    8.3986    5.8409 C   0  0  0  0  0  3  0  0  0  0  0  0
    5.7078    8.6142    6.4282 H   0  0  0  0  0  0  0  0  0  0  0  0
    4.0332   10.6081    5.9352 C   0  0  0  0  0  0  0  0  0  0  0  0
    4.5580   10.9793    7.1750 C   0  0  0  0  0  0  0  0  0  0  0  0
    4.9617   10.2184    7.8261 H   0  0  0  0  0  0  0  0  0  0  0  0
    4.5006   12.2904    7.5991 C   0  0  0  0  0  0  0  0  0  0  0  0
    4.8927   12.5610    8.5668 H   0  0  0  0  0  0  0  0  0  0  0  0
    3.9216   13.2514    6.7861 C   0  0  0  0  0  0  0  0  0  0  0  0
    3.8683   14.2770    7.1169 H   0  0  0  0  0  0  0  0  0  0  0  0
    3.3924   12.9102    5.5536 C   0  0  0  0  0  0  0  0  0  0  0  0
    2.9333   13.6753    4.9493 H   0  0  0  0  0  0  0  0  0  0  0  0
    3.4351   11.5934    5.1121 C   0  0  0  0  0  0  0  0  0  0  0  0
    2.3107   12.0947    3.0697 C   0  0  0  0  0  0  0  0  0  0  0  0
    2.9911   12.8969    2.7708 H   0  0  0  0  0  0  0  0  0  0  0  0
    1.4241   12.5119    3.5571 H   0  0  0  0  0  0  0  0  0  0  0  0
    2.0102   11.5326    2.1847 H   0  0  0  0  0  0  0  0  0  0  0  0
  1  3  1  0  0  0  0
  3  5  1  0  0  0  0
  3  2  1  0  0  0  0
  3  6  1  0  0  0  0
  4 27  1  0  0  0  0
  5 15  1  0  0  0  0
  6 16  1  0  0  0  0
  6 18  1  0  0  0  0
  7  9  1  0  0  0  0
  7  5  1  0  0  0  0
  8  7  1  0  0  0  0
  9 11  2  0  0  0  0
 10  9  1  0  0  0  0
 11 12  1  0  0  0  0
 11 13  1  0  0  0  0
 13 14  1  0  0  0  0
 15 13  2  0  0  0  0
 15 16  1  0  0  0  0
 16 17  1  0  0  0  0
 18 19  1  0  0  0  0
 19 21  2  0  0  0  0
 19 20  1  0  0  0  0
 21 22  1  0  0  0  0
 23 24  1  0  0  0  0
 23 21  1  0  0  0  0
 25 23  2  0  0  0  0
 26 25  1  0  0  0  0
 27 25  1  0  0  0  0
 27 18  2  0  0  0  0
 28 30  1  0  0  0  0
 28  4  1  0  0  0  0
 29 28  1  0  0  0  0
 31 28  1  0  0  0  0
M  END
$$$$
