CSD_code = NOCDEQ | q = 0 | S = 0 | Stoichiometry = C21H38Cl2N2O5Zn | MND = 4
 OpenBabel04212202073D

 69 69  0  0  0  0  0  0  0  0999 V2000
    9.8736    6.8612    5.0029 Zn  0  0  0  0  0  0  0  0  0  0  0  0
   10.9286    4.9443    4.8365 Cl  0  0  0  0  0  0  0  0  0  0  0  0
    8.6736    7.6674    6.6889 Cl  0  0  0  0  0  0  0  0  0  0  0  0
    9.3809    7.3392    2.9571 N   0  0  0  0  0  4  0  0  0  0  0  0
   11.7412   10.5488    6.3709 N   0  0  0  0  0  0  0  0  0  0  0  0
   11.2924    9.1073    5.7025 H   0  0  0  0  0  0  0  0  0  0  0  0
   11.2491    8.4453    4.9431 O   0  0  0  0  0  0  0  0  0  0  0  0
   14.2567   11.1632    8.0893 O   0  0  0  0  0  0  0  0  0  0  0  0
    8.6912   11.1788    5.0586 O   0  0  0  0  0  0  0  0  0  0  0  0
    6.3548    6.5259    2.8222 O   0  0  0  0  0  0  0  0  0  0  0  0
    9.2031    9.9114    0.9271 O   0  0  0  0  0  0  0  0  0  0  0  0
   11.7705    9.1159    3.8664 C   0  0  0  0  0  0  0  0  0  0  0  0
   11.4802    8.7161    2.5641 C   0  0  0  0  0  0  0  0  0  0  0  0
   12.0451    9.4323    1.5155 C   0  0  0  0  0  0  0  0  0  0  0  0
   11.8255    9.1291    0.5034 H   0  0  0  0  0  0  0  0  0  0  0  0
   12.8587   10.5333    1.7267 C   0  0  0  0  0  0  0  0  0  0  0  0
   13.4529   11.2793    0.5708 C   0  0  0  0  0  0  0  0  0  0  0  0
   13.5992   12.3279    0.8189 H   0  0  0  0  0  0  0  0  0  0  0  0
   12.8123   11.2074   -0.3045 H   0  0  0  0  0  0  0  0  0  0  0  0
   14.4240   10.8558    0.3136 H   0  0  0  0  0  0  0  0  0  0  0  0
   13.1266   10.9165    3.0337 C   0  0  0  0  0  0  0  0  0  0  0  0
   13.7638   11.7688    3.2224 H   0  0  0  0  0  0  0  0  0  0  0  0
   12.6006   10.2176    4.1056 C   0  0  0  0  0  0  0  0  0  0  0  0
   12.9367   10.5971    5.5274 C   0  0  0  0  0  0  0  0  0  0  0  0
   13.6563    9.8796    5.9332 H   0  0  0  0  0  0  0  0  0  0  0  0
   13.4169   11.5838    5.5469 H   0  0  0  0  0  0  0  0  0  0  0  0
   12.0118   10.3638    7.7878 C   0  0  0  0  0  0  0  0  0  0  0  0
   12.4918    9.3896    7.9147 H   0  0  0  0  0  0  0  0  0  0  0  0
   11.0526   10.3468    8.3083 H   0  0  0  0  0  0  0  0  0  0  0  0
   12.9170   11.4099    8.4508 C   0  0  0  0  0  0  0  0  0  0  0  0
   12.6269   12.4301    8.1529 H   0  0  0  0  0  0  0  0  0  0  0  0
   12.8044   11.3368    9.5433 H   0  0  0  0  0  0  0  0  0  0  0  0
   15.1658   12.0298    8.7146 C   0  0  0  0  0  0  0  0  0  0  0  0
   16.1572   11.7395    8.3738 H   0  0  0  0  0  0  0  0  0  0  0  0
   15.1131   11.9408    9.8067 H   0  0  0  0  0  0  0  0  0  0  0  0
   14.9752   13.0751    8.4390 H   0  0  0  0  0  0  0  0  0  0  0  0
   10.8101   11.6301    6.0716 C   0  0  0  0  0  0  0  0  0  0  0  0
   11.0501   12.5374    6.6406 H   0  0  0  0  0  0  0  0  0  0  0  0
   10.9000   11.8681    5.0089 H   0  0  0  0  0  0  0  0  0  0  0  0
    9.3501   11.2268    6.3101 C   0  0  0  0  0  0  0  0  0  0  0  0
    9.2859   10.2410    6.7907 H   0  0  0  0  0  0  0  0  0  0  0  0
    8.8427   11.9577    6.9574 H   0  0  0  0  0  0  0  0  0  0  0  0
    7.3307   10.8366    5.1921 C   0  0  0  0  0  0  0  0  0  0  0  0
    6.9082   10.8290    4.1897 H   0  0  0  0  0  0  0  0  0  0  0  0
    6.8019   11.5770    5.8047 H   0  0  0  0  0  0  0  0  0  0  0  0
    7.2224    9.8504    5.6549 H   0  0  0  0  0  0  0  0  0  0  0  0
   10.6620    7.4952    2.2368 C   0  0  0  0  0  0  0  0  0  0  0  0
   10.4729    7.5017    1.1571 H   0  0  0  0  0  0  0  0  0  0  0  0
   11.2626    6.6099    2.4765 H   0  0  0  0  0  0  0  0  0  0  0  0
    8.5474    8.5517    2.9009 C   0  0  0  0  0  0  0  0  0  0  0  0
    9.0546    9.3326    3.4694 H   0  0  0  0  0  0  0  0  0  0  0  0
    7.6123    8.3186    3.4075 H   0  0  0  0  0  0  0  0  0  0  0  0
    8.2051    9.1011    1.5070 C   0  0  0  0  0  0  0  0  0  0  0  0
    8.0344    8.2904    0.7961 H   0  0  0  0  0  0  0  0  0  0  0  0
    7.2692    9.6712    1.5902 H   0  0  0  0  0  0  0  0  0  0  0  0
    9.2471   11.2232    1.4341 C   0  0  0  0  0  0  0  0  0  0  0  0
   10.0651   11.7219    0.9190 H   0  0  0  0  0  0  0  0  0  0  0  0
    9.4331   11.2487    2.5123 H   0  0  0  0  0  0  0  0  0  0  0  0
    8.3076   11.7510    1.2269 H   0  0  0  0  0  0  0  0  0  0  0  0
    8.7030    6.1596    2.3979 C   0  0  0  0  0  0  0  0  0  0  0  0
    9.4157    5.3329    2.4369 H   0  0  0  0  0  0  0  0  0  0  0  0
    8.4145    6.3265    1.3540 H   0  0  0  0  0  0  0  0  0  0  0  0
    7.4634    5.7315    3.1744 C   0  0  0  0  0  0  0  0  0  0  0  0
    7.2497    4.6762    2.9453 H   0  0  0  0  0  0  0  0  0  0  0  0
    7.6566    5.8009    4.2601 H   0  0  0  0  0  0  0  0  0  0  0  0
    5.2057    6.2202    3.5725 C   0  0  0  0  0  0  0  0  0  0  0  0
    4.4187    6.8829    3.2190 H   0  0  0  0  0  0  0  0  0  0  0  0
    5.3769    6.3894    4.6423 H   0  0  0  0  0  0  0  0  0  0  0  0
    4.9016    5.1772    3.4244 H   0  0  0  0  0  0  0  0  0  0  0  0
  1  3  1  0  0  0  0
  2  1  1  0  0  0  0
  4  1  1  0  0  0  0
  5 27  1  0  0  0  0
  7  6  1  0  0  0  0
  8 30  1  0  0  0  0
  8 33  1  0  0  0  0
  9 43  1  0  0  0  0
  9 40  1  0  0  0  0
 10 63  1  0  0  0  0
 10 66  1  0  0  0  0
 11 56  1  0  0  0  0
 11 53  1  0  0  0  0
 12 23  1  0  0  0  0
 12  7  1  0  0  0  0
 13 12  2  0  0  0  0
 14 16  2  0  0  0  0
 14 13  1  0  0  0  0
 15 14  1  0  0  0  0
 16 21  1  0  0  0  0
 17 18  1  0  0  0  0
 17 16  1  0  0  0  0
 19 17  1  0  0  0  0
 20 17  1  0  0  0  0
 21 22  1  0  0  0  0
 21 23  2  0  0  0  0
 23 24  1  0  0  0  0
 24 26  1  0  0  0  0
 24 25  1  0  0  0  0
 24  5  1  0  0  0  0
 27 28  1  0  0  0  0
 27 29  1  0  0  0  0
 27 30  1  0  0  0  0
 30 32  1  0  0  0  0
 31 30  1  0  0  0  0
 33 35  1  0  0  0  0
 34 33  1  0  0  0  0
 36 33  1  0  0  0  0
 37 40  1  0  0  0  0
 37  5  1  0  0  0  0
 37 38  1  0  0  0  0
 39 37  1  0  0  0  0
 40 41  1  0  0  0  0
 40 42  1  0  0  0  0
 43 46  1  0  0  0  0
 43 45  1  0  0  0  0
 44 43  1  0  0  0  0
 47 49  1  0  0  0  0
 47 13  1  0  0  0  0
 47  4  1  0  0  0  0
 48 47  1  0  0  0  0
 50  4  1  0  0  0  0
 50 52  1  0  0  0  0
 50 51  1  0  0  0  0
 53 55  1  0  0  0  0
 53 50  1  0  0  0  0
 54 53  1  0  0  0  0
 56 58  1  0  0  0  0
 57 56  1  0  0  0  0
 59 56  1  0  0  0  0
 60 61  1  0  0  0  0
 60  4  1  0  0  0  0
 60 63  1  0  0  0  0
 62 60  1  0  0  0  0
 63 65  1  0  0  0  0
 64 63  1  0  0  0  0
 66 68  1  0  0  0  0
 67 66  1  0  0  0  0
 69 66  1  0  0  0  0
M  END
$$$$
