CSD_code = NOCFOD | q = 0 | S = 0 | Stoichiometry = C24H26Cl2FeN2 | MND = 4
 OpenBabel04212202073D

 55 59  0  0  1  0  0  0  0  0999 V2000
    6.6128    2.6234    3.6699 Fe  0  0  0  0  0  0  0  0  0  0  0  0
    5.1897    1.2315    4.1829 Cl  0  0  0  0  0  0  0  0  0  0  0  0
    8.6100    2.5306    3.2316 Cl  0  0  0  0  0  0  0  0  0  0  0  0
    6.1335    4.2520    4.3283 N   0  0  0  0  0  0  0  0  0  0  0  0
    5.9287    3.3288    2.0547 N   0  0  0  0  0  0  0  0  0  0  0  0
    6.7886    5.4713    9.8498 C   0  0  0  0  0  0  0  0  0  0  0  0
    5.9345    6.0323   10.2253 H   0  0  0  0  0  0  0  0  0  0  0  0
    6.8512    4.5431   10.4172 H   0  0  0  0  0  0  0  0  0  0  0  0
    7.6931    6.0462   10.0302 H   0  0  0  0  0  0  0  0  0  0  0  0
    6.3010    4.5698    5.6866 C   0  0  0  0  0  0  0  0  0  0  0  0
    5.4950    4.6098    2.1706 C   0  0  0  0  0  0  0  0  0  0  0  0
    5.6189    5.1242    3.4744 C   0  0  1  0  0  3  0  0  0  0  0  0
    5.3034    3.4082   -0.2862 C   0  0  0  0  0  0  0  0  0  0  0  0
    4.8585    4.7497   -0.1255 C   0  0  0  0  0  0  0  0  0  0  0  0
    4.4510    5.2710   -0.9793 H   0  0  0  0  0  0  0  0  0  0  0  0
    5.8376    2.7228    0.8368 C   0  0  0  0  0  0  0  0  0  0  0  0
    6.2778    1.3978    0.6794 C   0  0  0  0  0  0  0  0  0  0  0  0
    6.6824    0.8802    1.5405 H   0  0  0  0  0  0  0  0  0  0  0  0
    4.9549    5.3541    1.0891 C   0  0  0  0  0  0  0  0  0  0  0  0
    5.1779    6.5207    3.7946 C   0  0  0  0  0  0  0  0  0  0  0  0
    4.8285    6.5791    4.8278 H   0  0  0  0  0  0  0  0  0  0  0  0
    6.0310    7.2010    3.6968 H   0  0  0  0  0  0  0  0  0  0  0  0
    6.1969    0.7726   -0.5388 C   0  0  0  0  0  0  0  0  0  0  0  0
    6.5387   -0.2457   -0.6455 H   0  0  0  0  0  0  0  0  0  0  0  0
    5.4457    4.5948    7.9294 C   0  0  0  0  0  0  0  0  0  0  0  0
    4.6630    4.3837    8.6403 H   0  0  0  0  0  0  0  0  0  0  0  0
    5.2530    4.3008    6.5911 C   0  0  0  0  0  0  0  0  0  0  0  0
    5.6737    1.4463   -1.6457 C   0  0  0  0  0  0  0  0  0  0  0  0
    5.6166    0.9444   -2.5998 H   0  0  0  0  0  0  0  0  0  0  0  0
    7.4884    5.1679    6.1306 C   0  0  0  0  0  0  0  0  0  0  0  0
    4.5440    6.7704    1.3710 C   0  0  0  0  0  0  0  0  0  0  0  0
    5.4044    7.4248    1.1975 H   0  0  0  0  0  0  0  0  0  0  0  0
    3.7549    7.0710    0.6795 H   0  0  0  0  0  0  0  0  0  0  0  0
    5.2349    2.7402   -1.5179 C   0  0  0  0  0  3  0  0  0  0  0  0
    4.8284    3.2685   -2.3683 H   0  0  0  0  0  0  0  0  0  0  0  0
    7.6225    5.4640    7.4794 C   0  0  0  0  0  0  0  0  0  0  0  0
    8.5289    5.9419    7.8211 H   0  0  0  0  0  0  0  0  0  0  0  0
    4.0756    6.9325    2.8175 C   0  0  0  0  0  0  0  0  0  0  0  0
    3.1970    6.3050    2.9814 H   0  0  0  0  0  0  0  0  0  0  0  0
    3.7902    7.9699    2.9992 H   0  0  0  0  0  0  0  0  0  0  0  0
    6.6229    5.1714    8.3915 C   0  0  0  0  0  0  0  0  0  0  0  0
    8.6049    5.5141    5.1842 C   0  0  0  0  0  0  0  0  0  0  0  0
    8.3234    5.2557    4.1624 H   0  0  0  0  0  0  0  0  0  0  0  0
    8.7819    6.5931    5.2294 H   0  0  0  0  0  0  0  0  0  0  0  0
    3.9651    3.7204    6.0782 C   0  0  0  0  0  0  0  0  0  0  0  0
    3.7441    4.1628    5.1031 H   0  0  0  0  0  0  0  0  0  0  0  0
    4.1156    2.6518    5.8978 H   0  0  0  0  0  0  0  0  0  0  0  0
    2.7598    3.9082    6.9925 C   0  0  0  0  0  0  0  0  0  0  0  0
    1.8620    3.5738    6.4782 H   0  0  0  0  0  0  0  0  0  0  0  0
    2.8582    3.3224    7.9027 H   0  0  0  0  0  0  0  0  0  0  0  0
    2.6327    4.9557    7.2602 H   0  0  0  0  0  0  0  0  0  0  0  0
    9.8980    4.7786    5.5354 C   0  0  0  0  0  0  0  0  0  0  0  0
   10.6782    5.0444    4.8270 H   0  0  0  0  0  0  0  0  0  0  0  0
   10.2368    5.0312    6.5369 H   0  0  0  0  0  0  0  0  0  0  0  0
    9.7418    3.7051    5.4799 H   0  0  0  0  0  0  0  0  0  0  0  0
  1  2  1  0  0  0  0
  1  4  1  0  0  0  0
  3  1  1  0  0  0  0
  4 10  1  0  0  0  0
  5 11  1  0  0  0  0
  5  1  1  0  0  0  0
  6  9  1  0  0  0  0
  6  7  1  0  0  0  0
  6  8  1  0  0  0  0
 10 30  2  0  0  0  0
 10 27  1  0  0  0  0
 12 11  1  1  0  0  0
 12 20  1  0  0  0  0
 12  4  1  0  0  0  0
 13 14  2  0  0  0  0
 13 16  1  0  0  0  0
 14 19  1  0  0  0  0
 15 14  1  0  0  0  0
 16  5  1  0  0  0  0
 17 16  2  0  0  0  0
 17 18  1  0  0  0  0
 19 31  1  0  0  0  0
 19 11  2  0  0  0  0
 20 21  1  0  0  0  0
 22 20  1  0  0  0  0
 23 17  1  0  0  0  0
 24 23  1  0  0  0  0
 25 41  1  0  0  0  0
 25 26  1  0  0  0  0
 27 25  2  0  0  0  0
 28 34  1  0  0  0  0
 28 23  2  0  0  0  0
 29 28  1  0  0  0  0
 30 36  1  0  0  0  0
 31 38  1  0  0  0  0
 32 31  1  0  0  0  0
 33 31  1  0  0  0  0
 34 13  1  0  0  0  0
 35 34  1  0  0  0  0
 36 37  1  0  0  0  0
 36 41  2  0  0  0  0
 38 39  1  0  0  0  0
 38 40  1  0  0  0  0
 38 20  1  0  0  0  0
 41  6  1  0  0  0  0
 42 44  1  0  0  0  0
 42 52  1  0  0  0  0
 42 30  1  0  0  0  0
 43 42  1  0  0  0  0
 45 27  1  0  0  0  0
 45 48  1  0  0  0  0
 46 45  1  0  0  0  0
 47 45  1  0  0  0  0
 48 51  1  0  0  0  0
 48 50  1  0  0  0  0
 49 48  1  0  0  0  0
 52 54  1  0  0  0  0
 53 52  1  0  0  0  0
 55 52  1  0  0  0  0
M  END
$$$$
