CSD_code = NOCKUO | q = 0 | S = 0 | Stoichiometry = C24H34Cl2N4Ni | MND = 6
 OpenBabel04212202073D

 65 71  0  0  1  0  0  0  0  0999 V2000
    4.2452    5.0979    4.9769 Ni  0  0  0  0  0  0  0  0  0  0  0  0
    3.1959    3.6081    5.9960 Cl  0  0  0  0  0  0  0  0  0  0  0  0
    3.2602    6.7422    5.8870 N   0  0  2  0  0  4  0  0  0  0  0  0
    2.5786    5.7534    3.3805 N   0  0  1  0  0  4  0  0  0  0  0  0
    1.8399    6.4687    5.6703 C   0  0  0  0  0  0  0  0  0  0  0  0
    1.2100    7.2493    6.1258 H   0  0  0  0  0  0  0  0  0  0  0  0
    1.6135    5.5151    6.1501 H   0  0  0  0  0  0  0  0  0  0  0  0
    1.4962    6.3548    4.1605 C   0  0  0  0  0  0  0  0  0  0  0  0
    0.6005    5.7381    4.0907 H   0  0  0  0  0  0  0  0  0  0  0  0
    1.2277    7.3390    3.7566 H   0  0  0  0  0  0  0  0  0  0  0  0
    3.2957    6.6815    2.5037 C   0  0  0  0  0  0  0  0  0  0  0  0
    2.9795    7.7062    2.7109 H   0  0  0  0  0  0  0  0  0  0  0  0
    3.0594    6.4884    1.4512 H   0  0  0  0  0  0  0  0  0  0  0  0
    4.8242    6.5849    2.6695 C   0  0  0  0  0  0  0  0  0  0  0  0
    5.1588    5.6019    2.3318 H   0  0  0  0  0  0  0  0  0  0  0  0
    5.2952    7.3538    2.0341 H   0  0  0  0  0  0  0  0  0  0  0  0
    3.5956    8.0815    5.3881 C   0  0  0  0  0  0  0  0  0  0  0  0
    3.6852    8.7850    6.2266 H   0  0  0  0  0  0  0  0  0  0  0  0
    2.7749    8.4405    4.7685 H   0  0  0  0  0  0  0  0  0  0  0  0
    2.1950    4.5020    2.6965 C   0  0  0  0  0  0  0  0  0  0  0  0
    1.7821    3.8338    3.4562 H   0  0  0  0  0  0  0  0  0  0  0  0
    3.1145    4.0461    2.3195 H   0  0  0  0  0  0  0  0  0  0  0  0
    1.2169    4.6734    1.5618 C   0  0  0  0  0  0  0  0  0  0  0  0
   -0.1564    4.6783    1.7821 C   0  0  0  0  0  0  0  0  0  0  0  0
   -0.5445    4.4968    2.7744 H   0  0  0  0  0  0  0  0  0  0  0  0
   -1.0433    4.8792    0.7392 C   0  0  0  0  0  0  0  0  0  0  0  0
   -2.1065    4.8778    0.9313 H   0  0  0  0  0  0  0  0  0  0  0  0
   -0.5723    5.0708   -0.5481 C   0  0  0  0  0  0  0  0  0  0  0  0
   -1.2642    5.2286   -1.3623 H   0  0  0  0  0  0  0  0  0  0  0  0
    0.7901    5.0334   -0.7887 C   0  0  0  0  0  0  0  0  0  0  0  0
    1.1655    5.1541   -1.7947 H   0  0  0  0  0  0  0  0  0  0  0  0
    1.6743    4.8306    0.2564 C   0  0  0  0  0  0  0  0  0  0  0  0
    2.7338    4.7651    0.0492 H   0  0  0  0  0  0  0  0  0  0  0  0
    5.2301    6.7423    4.0669 N   0  0  2  0  0  4  0  0  0  0  0  0
    5.9117    5.7533    6.5734 N   0  0  1  0  0  4  0  0  0  0  0  0
    6.6504    6.4688    4.2836 C   0  0  0  0  0  0  0  0  0  0  0  0
    7.2802    7.2494    3.8282 H   0  0  0  0  0  0  0  0  0  0  0  0
    6.8769    5.5153    3.8038 H   0  0  0  0  0  0  0  0  0  0  0  0
    6.9941    6.3548    5.7935 C   0  0  0  0  0  0  0  0  0  0  0  0
    7.8898    5.7381    5.8632 H   0  0  0  0  0  0  0  0  0  0  0  0
    7.2626    7.3390    6.1975 H   0  0  0  0  0  0  0  0  0  0  0  0
    5.1946    6.6815    7.4503 C   0  0  0  0  0  0  0  0  0  0  0  0
    5.5107    7.7062    7.2431 H   0  0  0  0  0  0  0  0  0  0  0  0
    5.4308    6.4884    8.5028 H   0  0  0  0  0  0  0  0  0  0  0  0
    3.6661    6.5849    7.2845 C   0  0  0  0  0  0  0  0  0  0  0  0
    3.3315    5.6018    7.6221 H   0  0  0  0  0  0  0  0  0  0  0  0
    3.1950    7.3537    7.9199 H   0  0  0  0  0  0  0  0  0  0  0  0
    4.8946    8.0816    4.5659 C   0  0  0  0  0  0  0  0  0  0  0  0
    4.8050    8.7850    3.7275 H   0  0  0  0  0  0  0  0  0  0  0  0
    5.7153    8.4405    5.1855 H   0  0  0  0  0  0  0  0  0  0  0  0
    6.2952    4.5019    7.2575 C   0  0  0  0  0  0  0  0  0  0  0  0
    6.7083    3.8338    6.4978 H   0  0  0  0  0  0  0  0  0  0  0  0
    5.3758    4.0461    7.6345 H   0  0  0  0  0  0  0  0  0  0  0  0
    7.2733    4.6734    8.3923 C   0  0  0  0  0  0  0  0  0  0  0  0
    8.6466    4.6783    8.1720 C   0  0  0  0  0  0  0  0  0  0  0  0
    9.0348    4.4969    7.1797 H   0  0  0  0  0  0  0  0  0  0  0  0
    9.5334    4.8793    9.2150 C   0  0  0  0  0  0  0  0  0  0  0  0
   10.5966    4.8779    9.0230 H   0  0  0  0  0  0  0  0  0  0  0  0
    9.0623    5.0708   10.5022 C   0  0  0  0  0  0  0  0  0  0  0  0
    9.7542    5.2287   11.3164 H   0  0  0  0  0  0  0  0  0  0  0  0
    7.7000    5.0334   10.7428 C   0  0  0  0  0  0  0  0  0  0  0  0
    7.3245    5.1540   11.7487 H   0  0  0  0  0  0  0  0  0  0  0  0
    6.8158    4.8306    9.6976 C   0  0  0  0  0  0  0  0  0  0  0  0
    5.7563    4.7650    9.9048 H   0  0  0  0  0  0  0  0  0  0  0  0
    5.2941    3.6076    3.9583 Cl  0  0  0  0  0  0  0  0  0  0  0  0
  1  3  1  0  0  0  0
  1  2  1  0  0  0  0
  1 35  1  0  0  0  0
  3 17  1  6  0  0  0
  3 45  1  0  0  0  0
  4 20  1  6  0  0  0
  4  8  1  0  0  0  0
  4  1  1  0  0  0  0
  5  3  1  0  0  0  0
  5  6  1  0  0  0  0
  5  7  1  0  0  0  0
  8  5  1  0  0  0  0
  9  8  1  0  0  0  0
 10  8  1  0  0  0  0
 11 14  1  0  0  0  0
 11 12  1  0  0  0  0
 11  4  1  0  0  0  0
 13 11  1  0  0  0  0
 15 14  1  0  0  0  0
 16 14  1  0  0  0  0
 17 18  1  0  0  0  0
 19 17  1  0  0  0  0
 20 21  1  0  0  0  0
 22 20  1  0  0  0  0
 23 24  1  0  0  0  0
 23 20  1  0  0  0  0
 24 25  1  0  0  0  0
 26 27  1  0  0  0  0
 26 24  2  0  0  0  0
 28 26  1  0  0  0  0
 29 28  1  0  0  0  0
 30 28  2  0  0  0  0
 30 32  1  0  0  0  0
 31 30  1  0  0  0  0
 32 23  2  0  0  0  0
 33 32  1  0  0  0  0
 34 14  1  6  0  0  0
 34 36  1  0  0  0  0
 34 48  1  0  0  0  0
 34  1  1  0  0  0  0
 35 51  1  1  0  0  0
 35 42  1  0  0  0  0
 36 39  1  0  0  0  0
 37 36  1  0  0  0  0
 38 36  1  0  0  0  0
 39 40  1  0  0  0  0
 39 41  1  0  0  0  0
 39 35  1  0  0  0  0
 42 44  1  0  0  0  0
 43 42  1  0  0  0  0
 45 42  1  0  0  0  0
 45 46  1  0  0  0  0
 45 47  1  0  0  0  0
 48 50  1  0  0  0  0
 48 17  1  0  0  0  0
 49 48  1  0  0  0  0
 51 53  1  0  0  0  0
 51 54  1  0  0  0  0
 52 51  1  0  0  0  0
 54 63  1  0  0  0  0
 55 54  2  0  0  0  0
 55 57  1  0  0  0  0
 56 55  1  0  0  0  0
 57 59  2  0  0  0  0
 58 57  1  0  0  0  0
 59 61  1  0  0  0  0
 59 60  1  0  0  0  0
 61 62  1  0  0  0  0
 63 64  1  0  0  0  0
 63 61  2  0  0  0  0
 65  1  1  0  0  0  0
M  END
$$$$
