CSD_code = NOCRED | q = 0 | S = 0 | Stoichiometry = C25H21Br2PPd | MND = 4
 OpenBabel04212202073D

 50 53  0  0  0  0  0  0  0  0999 V2000
    2.2090    9.0308    0.5224 Pd  0  0  0  0  0  0  0  0  0  0  0  0
    1.8579    9.6984   -1.7630 Br  0  0  0  0  0  0  0  0  0  0  0  0
    1.9628    6.6526    0.0731 Br  0  0  0  0  0  0  0  0  0  0  0  0
    2.3828    8.5423    2.7055 P   0  0  0  0  0  4  0  0  0  0  0  0
    2.4124   10.9578    0.8726 C   0  0  0  0  0  0  0  0  0  0  0  0
    1.2422   11.7084    0.8038 C   0  0  0  0  0  0  0  0  0  0  0  0
    1.0631   13.0077    1.2802 C   0  0  0  0  0  0  0  0  0  0  0  0
    2.0388   13.9788    1.4220 C   0  0  0  0  0  0  0  0  0  0  0  0
    3.4007   13.8785    1.1417 C   0  0  0  0  0  0  0  0  0  0  0  0
    4.1576   12.7296    0.9784 C   0  0  0  0  0  0  0  0  0  0  0  0
    3.7114   11.4159    1.0931 C   0  0  0  0  0  3  0  0  0  0  0  0
    3.0133    9.8509    3.8045 C   0  0  0  0  0  0  0  0  0  0  0  0
    4.3250    9.8630    4.2654 C   0  0  0  0  0  0  0  0  0  0  0  0
    4.7970   10.9485    4.9824 C   0  0  0  0  0  0  0  0  0  0  0  0
    3.9706   12.0305    5.2342 C   0  0  0  0  0  0  0  0  0  0  0  0
    2.6622   12.0249    4.7754 C   0  0  0  0  0  0  0  0  0  0  0  0
    2.1867   10.9434    4.0612 C   0  0  0  0  0  0  0  0  0  0  0  0
    0.7377    8.2176    3.3943 C   0  0  0  0  0  0  0  0  0  0  0  0
    0.5175    8.0997    4.7644 C   0  0  0  0  0  0  0  0  0  0  0  0
   -0.7612    7.8675    5.2352 C   0  0  0  0  0  0  0  0  0  0  0  0
   -1.8224    7.7643    4.3487 C   0  0  0  0  0  0  0  0  0  0  0  0
   -1.6116    7.9101    2.9873 C   0  0  0  0  0  0  0  0  0  0  0  0
   -0.3345    8.1414    2.5091 C   0  0  0  0  0  0  0  0  0  0  0  0
    3.4663    7.1302    3.0569 C   0  0  0  0  0  0  0  0  0  0  0  0
    4.5881    7.0325    2.2341 C   0  0  0  0  0  0  0  0  0  0  0  0
    5.4891    6.0016    2.4085 C   0  0  0  0  0  0  0  0  0  0  0  0
    5.2661    5.0566    3.3987 C   0  0  0  0  0  0  0  0  0  0  0  0
    4.1425    5.1407    4.2031 C   0  0  0  0  0  0  0  0  0  0  0  0
    3.2377    6.1758    4.0377 C   0  0  0  0  0  0  0  0  0  0  0  0
    0.3478   11.2026    0.4361 H   0  0  0  0  0  0  0  0  0  0  0  0
    0.0406   13.3244    1.4511 H   0  0  0  0  0  0  0  0  0  0  0  0
    1.6882   14.9668    1.6944 H   0  0  0  0  0  0  0  0  0  0  0  0
    3.9494   14.8120    1.1339 H   0  0  0  0  0  0  0  0  0  0  0  0
    5.2251   12.8720    0.8567 H   0  0  0  0  0  0  0  0  0  0  0  0
    4.4844   10.6608    1.2521 H   0  0  0  0  0  0  0  0  0  0  0  0
    4.9724    9.0194    4.0673 H   0  0  0  0  0  0  0  0  0  0  0  0
    5.8150   10.9500    5.3431 H   0  0  0  0  0  0  0  0  0  0  0  0
    4.3441   12.8780    5.7892 H   0  0  0  0  0  0  0  0  0  0  0  0
    2.0148   12.8665    4.9733 H   0  0  0  0  0  0  0  0  0  0  0  0
    1.1657   10.9322    3.6990 H   0  0  0  0  0  0  0  0  0  0  0  0
    1.3445    8.2083    5.4537 H   0  0  0  0  0  0  0  0  0  0  0  0
   -0.9323    7.7693    6.2973 H   0  0  0  0  0  0  0  0  0  0  0  0
   -2.8181    7.5784    4.7229 H   0  0  0  0  0  0  0  0  0  0  0  0
   -2.4408    7.8428    2.2994 H   0  0  0  0  0  0  0  0  0  0  0  0
   -0.1647    8.2613    1.4344 H   0  0  0  0  0  0  0  0  0  0  0  0
    4.7251    7.7595    1.4302 H   0  0  0  0  0  0  0  0  0  0  0  0
    6.3533    5.9222    1.7662 H   0  0  0  0  0  0  0  0  0  0  0  0
    5.9628    4.2424    3.5307 H   0  0  0  0  0  0  0  0  0  0  0  0
    3.9622    4.3907    4.9590 H   0  0  0  0  0  0  0  0  0  0  0  0
    2.3503    6.2255    4.6514 H   0  0  0  0  0  0  0  0  0  0  0  0
  1  5  1  0  0  0  0
  1  4  1  0  0  0  0
  2  1  1  0  0  0  0
  3  1  1  0  0  0  0
  4 24  1  0  0  0  0
  4 18  1  0  0  0  0
  4 12  1  0  0  0  0
  5 11  1  0  0  0  0
  6  5  2  0  0  0  0
  6  7  1  0  0  0  0
  7  8  2  0  0  0  0
  7 31  1  0  0  0  0
  8 32  1  0  0  0  0
  9  8  1  0  0  0  0
 10 11  1  0  0  0  0
 10  9  2  0  0  0  0
 11 35  1  0  0  0  0
 12 17  2  0  0  0  0
 12 13  1  0  0  0  0
 13 14  2  0  0  0  0
 14 15  1  0  0  0  0
 14 37  1  0  0  0  0
 15 38  1  0  0  0  0
 16 39  1  0  0  0  0
 16 15  2  0  0  0  0
 17 16  1  0  0  0  0
 18 19  1  0  0  0  0
 19 20  2  0  0  0  0
 19 41  1  0  0  0  0
 20 42  1  0  0  0  0
 21 43  1  0  0  0  0
 21 20  1  0  0  0  0
 22 21  2  0  0  0  0
 23 22  1  0  0  0  0
 23 18  2  0  0  0  0
 24 29  1  0  0  0  0
 25 26  1  0  0  0  0
 25 24  2  0  0  0  0
 26 27  2  0  0  0  0
 27 48  1  0  0  0  0
 27 28  1  0  0  0  0
 28 49  1  0  0  0  0
 29 28  2  0  0  0  0
 29 50  1  0  0  0  0
 30  6  1  0  0  0  0
 33  9  1  0  0  0  0
 34 10  1  0  0  0  0
 36 13  1  0  0  0  0
 40 17  1  0  0  0  0
 44 22  1  0  0  0  0
 45 23  1  0  0  0  0
 46 25  1  0  0  0  0
 47 26  1  0  0  0  0
M  END
$$$$
