CSD_code = NODCAM | q = 0 | S = 0 | Stoichiometry = C17H24Cl2N2O2Pd | MND = 4
 OpenBabel04212202073D

 48 51  0  0  1  0  0  0  0  0999 V2000
    2.3584    9.7157    7.6351 Pd  0  0  0  0  0  0  0  0  0  0  0  0
    0.9666    8.6051    8.9919 Cl  0  0  0  0  0  0  0  0  0  0  0  0
    1.3087    9.0155    5.8057 Cl  0  0  0  0  0  0  0  0  0  0  0  0
    3.5132    9.3345   10.2814 O   0  0  0  0  0  0  0  0  0  0  0  0
    2.6190    8.8819   10.2285 H   0  0  0  0  0  0  0  0  0  0  0  0
    5.7482   10.7648    4.6379 O   0  0  0  0  0  0  0  0  0  0  0  0
    3.5043   10.1595    9.1904 N   0  0  0  0  0  0  0  0  0  0  0  0
    3.9191   10.8215    6.6123 N   0  0  0  0  0  4  0  0  0  0  0  0
    4.6672   10.1449    6.4307 H   0  0  0  0  0  0  0  0  0  0  0  0
    5.7719   12.3249    7.3752 C   0  0  1  0  0  0  0  0  0  0  0  0
    5.7547   12.8923    6.4445 H   0  0  0  0  0  0  0  0  0  0  0  0
    4.3872   11.7515    7.6956 C   0  0  2  0  0  0  0  0  0  0  0  0
    4.5150   10.9027    8.9514 C   0  0  2  0  0  3  0  0  0  0  0  0
    5.7909   10.8603    9.7430 C   0  0  0  0  0  0  0  0  0  0  0  0
    6.0454    9.8059    9.8986 H   0  0  0  0  0  0  0  0  0  0  0  0
    5.6374   11.2836   10.7388 H   0  0  0  0  0  0  0  0  0  0  0  0
    6.9111   11.5720    8.9906 C   0  0  2  0  0  0  0  0  0  0  0  0
    7.8700   11.4525    9.4940 H   0  0  0  0  0  0  0  0  0  0  0  0
    6.4801   13.0000    8.5886 C   0  0  0  0  0  0  0  0  0  0  0  0
    6.8004   11.1817    7.5108 C   0  0  0  0  0  0  0  0  0  0  0  0
    6.4596   10.1669    7.3122 H   0  0  0  0  0  0  0  0  0  0  0  0
    7.7084   11.3535    6.9422 H   0  0  0  0  0  0  0  0  0  0  0  0
    5.7342   13.8261    9.6282 C   0  0  0  0  0  0  0  0  0  0  0  0
    6.4420   14.1304   10.3980 H   0  0  0  0  0  0  0  0  0  0  0  0
    4.9352   13.2810   10.1182 H   0  0  0  0  0  0  0  0  0  0  0  0
    5.3272   14.7281    9.1762 H   0  0  0  0  0  0  0  0  0  0  0  0
    7.6568   13.8493    8.1051 C   0  0  0  0  0  0  0  0  0  0  0  0
    7.2889   14.7875    7.6946 H   0  0  0  0  0  0  0  0  0  0  0  0
    8.2412   13.3519    7.3381 H   0  0  0  0  0  0  0  0  0  0  0  0
    8.3177   14.0785    8.9383 H   0  0  0  0  0  0  0  0  0  0  0  0
    3.2917   12.8119    7.8715 C   0  0  0  0  0  0  0  0  0  0  0  0
    3.4783   13.4428    8.7301 H   0  0  0  0  0  0  0  0  0  0  0  0
    2.3264   12.3065    8.0231 H   0  0  0  0  0  0  0  0  0  0  0  0
    3.2355   13.4402    6.9861 H   0  0  0  0  0  0  0  0  0  0  0  0
    3.6016   11.4035    5.3427 C   0  0  0  0  0  0  0  0  0  0  0  0
    2.3438   11.9289    5.0894 C   0  0  0  0  0  0  0  0  0  0  0  0
    1.5823   11.8772    5.8603 H   0  0  0  0  0  0  0  0  0  0  0  0
    2.0420   12.4546    3.8452 C   0  0  0  0  0  0  0  0  0  0  0  0
    1.0591   12.8550    3.6561 H   0  0  0  0  0  0  0  0  0  0  0  0
    2.9944   12.4387    2.8438 C   0  0  0  0  0  0  0  0  0  0  0  0
    2.7648   12.8414    1.8692 H   0  0  0  0  0  0  0  0  0  0  0  0
    4.2435   11.8835    3.0678 C   0  0  0  0  0  0  0  0  0  0  0  0
    4.9627   11.8585    2.2649 H   0  0  0  0  0  0  0  0  0  0  0  0
    4.5559   11.3573    4.3132 C   0  0  0  0  0  0  0  0  0  0  0  0
    6.6913   10.5525    3.6156 C   0  0  0  0  0  0  0  0  0  0  0  0
    6.2710    9.9557    2.8013 H   0  0  0  0  0  0  0  0  0  0  0  0
    7.5096   10.0039    4.0799 H   0  0  0  0  0  0  0  0  0  0  0  0
    7.0714   11.4988    3.2181 H   0  0  0  0  0  0  0  0  0  0  0  0
  1  2  1  0  0  0  0
  1  7  1  0  0  0  0
  3  1  1  0  0  0  0
  5  4  1  0  0  0  0
  7  4  1  0  0  0  0
  8  1  1  0  0  0  0
  8 12  1  0  0  0  0
  9  8  1  0  0  0  0
 10 11  1  6  0  0  0
 10 20  1  0  0  0  0
 10 12  1  0  0  0  0
 10 19  1  0  0  0  0
 12 31  1  1  0  0  0
 12 13  1  0  0  0  0
 13  7  1  6  0  0  0
 13 14  1  0  0  0  0
 14 15  1  0  0  0  0
 14 16  1  0  0  0  0
 17 18  1  1  0  0  0
 17 14  1  0  0  0  0
 19 17  1  0  0  0  0
 19 23  1  0  0  0  0
 20 17  1  0  0  0  0
 21 20  1  0  0  0  0
 22 20  1  0  0  0  0
 23 25  1  0  0  0  0
 23 24  1  0  0  0  0
 26 23  1  0  0  0  0
 27 19  1  0  0  0  0
 27 30  1  0  0  0  0
 28 27  1  0  0  0  0
 29 27  1  0  0  0  0
 31 33  1  0  0  0  0
 31 32  1  0  0  0  0
 34 31  1  0  0  0  0
 35  8  1  0  0  0  0
 36 35  1  0  0  0  0
 36 37  1  0  0  0  0
 38 36  2  0  0  0  0
 39 38  1  0  0  0  0
 40 42  2  0  0  0  0
 40 38  1  0  0  0  0
 41 40  1  0  0  0  0
 42 44  1  0  0  0  0
 43 42  1  0  0  0  0
 44  6  1  0  0  0  0
 44 35  2  0  0  0  0
 45 47  1  0  0  0  0
 45  6  1  0  0  0  0
 46 45  1  0  0  0  0
 48 45  1  0  0  0  0
M  END
$$$$
