CSD_code = NODLEA | q = 0 | S = 0 | Stoichiometry = C28H39ClOTi | MND = 12
 OpenBabel04212202073D

 70 75  0  0  1  0  0  0  0  0999 V2000
    0.9492    3.6207    5.6820 Ti  0  0  2  0  0  0  0  0  0  0  0  0
    2.8322    3.5283    4.4280 Cl  0  0  0  0  0  0  0  0  0  0  0  0
    1.7210    4.2196    7.1048 O   0  0  0  0  0  0  0  0  0  0  0  0
    1.1096    1.7922    7.1492 C   0  0  2  0  0  3  0  0  0  0  0  0
    1.5968    1.3062    5.9147 C   0  0  0  0  0  0  0  0  0  0  0  0
    0.5243    1.3551    4.9777 C   0  0  0  0  0  0  0  0  0  0  0  0
   -0.6378    1.8041    5.6497 C   0  0  2  0  0  3  0  0  0  0  0  0
   -0.2595    2.1475    6.9799 C   0  0  2  0  0  0  0  0  0  0  0  0
    2.9022    0.6156    5.6633 C   0  0  0  0  0  0  0  0  0  0  0  0
    3.4807    1.1267    4.8934 H   0  0  0  0  0  0  0  0  0  0  0  0
    2.7099   -0.4022    5.3181 H   0  0  0  0  0  0  0  0  0  0  0  0
    3.4979    0.5651    6.5720 H   0  0  0  0  0  0  0  0  0  0  0  0
    0.6238    0.8357    3.5740 C   0  0  0  0  0  0  0  0  0  0  0  0
   -0.2035    1.1849    2.9577 H   0  0  0  0  0  0  0  0  0  0  0  0
    0.6143   -0.2570    3.5697 H   0  0  0  0  0  0  0  0  0  0  0  0
    1.5584    1.1677    3.1200 H   0  0  0  0  0  0  0  0  0  0  0  0
   -2.0508    1.6205    5.1731 C   0  0  0  0  0  0  0  0  0  0  0  0
   -2.6959    2.4618    5.4209 H   0  0  0  0  0  0  0  0  0  0  0  0
   -2.4683    0.7310    5.6524 H   0  0  0  0  0  0  0  0  0  0  0  0
   -2.0889    1.4612    4.0976 H   0  0  0  0  0  0  0  0  0  0  0  0
   -1.1777    2.5641    8.0945 C   0  0  0  0  0  0  0  0  0  0  0  0
   -0.8579    3.5109    8.5352 H   0  0  0  0  0  0  0  0  0  0  0  0
   -1.1793    1.8072    8.8824 H   0  0  0  0  0  0  0  0  0  0  0  0
   -2.1991    2.6741    7.7364 H   0  0  0  0  0  0  0  0  0  0  0  0
    1.9222    2.1650    8.3460 C   0  0  0  0  0  0  0  0  0  0  0  0
    2.7595    1.4814    8.4928 H   0  0  0  0  0  0  0  0  0  0  0  0
    1.2983    2.1476    9.2422 H   0  0  0  0  0  0  0  0  0  0  0  0
    2.4657    3.6250    8.1110 C   0  0  0  0  0  0  0  0  0  0  0  0
    2.3409    4.4478    9.4055 C   0  0  0  0  0  0  0  0  0  0  0  0
    2.7278    5.4516    9.2414 H   0  0  0  0  0  0  0  0  0  0  0  0
    2.9067    3.9775   10.2055 H   0  0  0  0  0  0  0  0  0  0  0  0
    1.2959    4.5195    9.7041 H   0  0  0  0  0  0  0  0  0  0  0  0
    3.9396    3.5782    7.6756 C   0  0  0  0  0  0  0  0  0  0  0  0
    4.0277    3.0167    6.7473 H   0  0  0  0  0  0  0  0  0  0  0  0
    4.5540    3.1196    8.4466 H   0  0  0  0  0  0  0  0  0  0  0  0
    4.2917    4.5925    7.4936 H   0  0  0  0  0  0  0  0  0  0  0  0
   -0.1054    5.7712    5.8994 C   0  0  0  0  0  0  0  0  0  0  0  0
   -1.0681    4.8079    5.5190 C   0  0  1  0  0  0  0  0  0  0  0  0
   -1.9857    4.5957    6.0481 H   0  0  0  0  0  0  0  0  0  0  0  0
   -0.7623    4.3524    4.2112 C   0  0  0  0  0  0  0  0  0  0  0  0
   -1.3974    3.7435    3.5828 H   0  0  0  0  0  0  0  0  0  0  0  0
    0.4105    4.9905    3.8005 C   0  0  0  0  0  0  0  0  0  0  0  0
    0.8713    4.9188    2.8231 H   0  0  0  0  0  0  0  0  0  0  0  0
    0.8382    5.8403    4.8503 C   0  0  0  0  0  0  0  0  0  0  0  0
    1.6945    6.5002    4.7929 H   0  0  0  0  0  0  0  0  0  0  0  0
   -0.0939    6.5907    7.1690 C   0  0  1  0  0  0  0  0  0  0  0  0
    0.5330    6.0627    7.9019 H   0  0  0  0  0  0  0  0  0  0  0  0
    0.5190    7.9850    6.9563 C   0  0  2  0  0  0  0  0  0  0  0  0
    1.5212    7.8782    6.5296 H   0  0  0  0  0  0  0  0  0  0  0  0
    0.6342    8.7022    8.3014 C   0  0  0  0  0  0  0  0  0  0  0  0
    1.2745    8.1286    8.9763 H   0  0  0  0  0  0  0  0  0  0  0  0
    1.0946    9.6826    8.1574 H   0  0  0  0  0  0  0  0  0  0  0  0
   -0.7540    8.8666    8.9156 C   0  0  2  0  0  0  0  0  0  0  0  0
   -0.6705    9.3781    9.8817 H   0  0  0  0  0  0  0  0  0  0  0  0
   -1.3785    7.4882    9.1206 C   0  0  0  0  0  0  0  0  0  0  0  0
   -2.3694    7.5923    9.5698 H   0  0  0  0  0  0  0  0  0  0  0  0
   -0.7616    6.9001    9.8054 H   0  0  0  0  0  0  0  0  0  0  0  0
   -1.4948    6.7712    7.7750 C   0  0  1  0  0  0  0  0  0  0  0  0
   -1.9535    5.7902    7.9422 H   0  0  0  0  0  0  0  0  0  0  0  0
   -0.3599    8.8066    6.0145 C   0  0  0  0  0  0  0  0  0  0  0  0
   -0.4419    8.3011    5.0501 H   0  0  0  0  0  0  0  0  0  0  0  0
    0.0934    9.7865    5.8458 H   0  0  0  0  0  0  0  0  0  0  0  0
   -1.6323    9.6909    7.9758 C   0  0  0  0  0  0  0  0  0  0  0  0
   -1.1956   10.6821    7.8332 H   0  0  0  0  0  0  0  0  0  0  0  0
   -2.6248    9.8228    8.4138 H   0  0  0  0  0  0  0  0  0  0  0  0
   -2.3739    7.5964    6.8356 C   0  0  0  0  0  0  0  0  0  0  0  0
   -3.3746    7.7012    7.2631 H   0  0  0  0  0  0  0  0  0  0  0  0
   -2.4679    7.0914    5.8723 H   0  0  0  0  0  0  0  0  0  0  0  0
   -1.7476    8.9743    6.6311 C   0  0  2  0  0  0  0  0  0  0  0  0
   -2.3785    9.5647    5.9566 H   0  0  0  0  0  0  0  0  0  0  0  0
  1  2  1  6  0  0  0
  1  8  1  0  0  0  0
  1  3  1  0  0  0  0
  3 28  1  0  0  0  0
  4  5  1  6  0  0  0
  4 25  1  0  0  0  0
  6  7  1  0  0  0  0
  6  5  2  0  0  0  0
  7 17  1  1  0  0  0
  7  8  1  0  0  0  0
  8  4  1  0  0  0  0
  8 21  1  1  0  0  0
  9  5  1  0  0  0  0
  9 12  1  0  0  0  0
 10  9  1  0  0  0  0
 11  9  1  0  0  0  0
 13  6  1  0  0  0  0
 14 13  1  0  0  0  0
 15 13  1  0  0  0  0
 16 13  1  0  0  0  0
 17 18  1  0  0  0  0
 17 19  1  0  0  0  0
 20 17  1  0  0  0  0
 21 22  1  0  0  0  0
 21 23  1  0  0  0  0
 24 21  1  0  0  0  0
 25 26  1  0  0  0  0
 25 27  1  0  0  0  0
 28 25  1  0  0  0  0
 28 29  1  0  0  0  0
 29 32  1  0  0  0  0
 29 31  1  0  0  0  0
 30 29  1  0  0  0  0
 33 28  1  0  0  0  0
 33 35  1  0  0  0  0
 34 33  1  0  0  0  0
 36 33  1  0  0  0  0
 37 46  1  0  0  0  0
 38  1  1  0  0  0  0
 38 37  1  0  0  0  0
 38 39  1  1  0  0  0
 40 38  1  0  0  0  0
 41 40  1  0  0  0  0
 42 40  2  0  0  0  0
 42 44  1  0  0  0  0
 43 42  1  0  0  0  0
 44 37  2  0  0  0  0
 45 44  1  0  0  0  0
 46 58  1  0  0  0  0
 46 47  1  1  0  0  0
 48 49  1  6  0  0  0
 48 46  1  0  0  0  0
 48 50  1  0  0  0  0
 50 53  1  0  0  0  0
 50 51  1  0  0  0  0
 52 50  1  0  0  0  0
 53 55  1  0  0  0  0
 53 54  1  1  0  0  0
 55 56  1  0  0  0  0
 55 57  1  0  0  0  0
 58 59  1  1  0  0  0
 58 55  1  0  0  0  0
 60 69  1  0  0  0  0
 60 48  1  0  0  0  0
 61 60  1  0  0  0  0
 62 60  1  0  0  0  0
 63 65  1  0  0  0  0
 63 53  1  0  0  0  0
 64 63  1  0  0  0  0
 66 67  1  0  0  0  0
 66 58  1  0  0  0  0
 68 66  1  0  0  0  0
 69 70  1  6  0  0  0
 69 66  1  0  0  0  0
 69 63  1  0  0  0  0
M  END
$$$$
