CSD_code = NODXAF | q = 1 | S = 0 | Stoichiometry = C18H33ClN3Pt(1+) | MND = 6
 OpenBabel04212202073D

 56 58  0  0  0  0  0  0  0  0999 V2000
   -2.1816    7.7782    9.6780 Pt  0  0  0  0  0  0  0  0  0  0  0  0
   -2.7971    9.9536    9.6218 Cl  0  0  0  0  0  0  0  0  0  0  0  0
   -4.4120    7.3671    9.7967 N   0  0  0  0  0  0  0  0  0  0  0  0
   -2.8661    7.6173    7.5144 N   0  0  0  0  0  0  0  0  0  0  0  0
   -1.6804    5.8515    9.7082 N   0  0  0  0  0  2  0  0  0  0  0  0
   -5.1712    7.2482   11.0087 C   0  0  0  0  0  0  0  0  0  0  0  0
   -4.7919    5.9127   11.6732 C   0  0  0  0  0  0  0  0  0  0  0  0
   -5.4233    5.8195   13.0588 C   0  0  0  0  0  0  0  0  0  0  0  0
   -6.9390    5.9656   12.9687 C   0  0  0  0  0  0  0  0  0  0  0  0
   -7.3092    7.2795   12.2881 C   0  0  0  0  0  0  0  0  0  0  0  0
   -6.6905    7.3584   10.8930 C   0  0  0  0  0  0  0  0  0  0  0  0
   -2.0450    7.7887    6.3493 C   0  0  0  0  0  0  0  0  0  0  0  0
   -2.6017    7.2437    5.0322 C   0  0  0  0  0  0  0  0  0  0  0  0
   -1.5464    7.4119    3.9410 C   0  0  0  0  0  0  0  0  0  0  0  0
   -1.2001    8.8877    3.7641 C   0  0  0  0  0  0  0  0  0  0  0  0
   -0.7101    9.4875    5.0786 C   0  0  0  0  0  0  0  0  0  0  0  0
   -1.7407    9.2915    6.1846 C   0  0  0  0  0  0  0  0  0  0  0  0
   -4.1349    7.5450    7.4479 C   0  0  0  0  0  0  0  0  0  0  0  0
   -4.9466    7.4407    8.6451 C   0  0  0  0  0  0  0  0  0  0  0  0
   -1.7352    8.0234   11.6883 C   0  0  0  0  0  0  0  0  0  0  0  0
   -0.1878    8.2572    9.3741 C   0  0  0  0  0  0  0  0  0  0  0  0
   -1.2875    4.7722    9.7655 C   0  0  0  0  0  2  0  0  0  0  0  0
   -0.8083    3.4378    9.8380 C   0  0  0  0  0  0  0  0  0  0  0  0
   -4.8160    8.0599   11.6583 H   0  0  0  0  0  0  0  0  0  0  0  0
   -5.1567    5.0957   11.0455 H   0  0  0  0  0  0  0  0  0  0  0  0
   -3.7042    5.8315   11.7426 H   0  0  0  0  0  0  0  0  0  0  0  0
   -5.0178    6.6067   13.6976 H   0  0  0  0  0  0  0  0  0  0  0  0
   -5.1673    4.8590   13.5083 H   0  0  0  0  0  0  0  0  0  0  0  0
   -7.3528    5.1307   12.3991 H   0  0  0  0  0  0  0  0  0  0  0  0
   -7.3722    5.9334   13.9682 H   0  0  0  0  0  0  0  0  0  0  0  0
   -8.3933    7.3628   12.2071 H   0  0  0  0  0  0  0  0  0  0  0  0
   -6.9555    8.1178   12.8917 H   0  0  0  0  0  0  0  0  0  0  0  0
   -7.0834    6.5400   10.2844 H   0  0  0  0  0  0  0  0  0  0  0  0
   -6.9633    8.3076   10.4260 H   0  0  0  0  0  0  0  0  0  0  0  0
   -1.0989    7.2750    6.5647 H   0  0  0  0  0  0  0  0  0  0  0  0
   -3.4937    7.7963    4.7323 H   0  0  0  0  0  0  0  0  0  0  0  0
   -2.8676    6.1895    5.1473 H   0  0  0  0  0  0  0  0  0  0  0  0
   -0.6475    6.8517    4.2079 H   0  0  0  0  0  0  0  0  0  0  0  0
   -1.9262    7.0047    3.0033 H   0  0  0  0  0  0  0  0  0  0  0  0
   -0.4309    8.9968    2.9994 H   0  0  0  0  0  0  0  0  0  0  0  0
   -2.0854    9.4293    3.4248 H   0  0  0  0  0  0  0  0  0  0  0  0
   -0.5241   10.5546    4.9531 H   0  0  0  0  0  0  0  0  0  0  0  0
    0.2318    9.0164    5.3680 H   0  0  0  0  0  0  0  0  0  0  0  0
   -2.6684    9.8077    5.9293 H   0  0  0  0  0  0  0  0  0  0  0  0
   -1.3752    9.7029    7.1262 H   0  0  0  0  0  0  0  0  0  0  0  0
   -4.6764    7.5628    6.5044 H   0  0  0  0  0  0  0  0  0  0  0  0
   -6.0235    7.4357    8.4926 H   0  0  0  0  0  0  0  0  0  0  0  0
   -1.1982    7.1590   12.0789 H   0  0  0  0  0  0  0  0  0  0  0  0
   -1.1407    8.9193   11.8504 H   0  0  0  0  0  0  0  0  0  0  0  0
   -2.6787    8.1376   12.2187 H   0  0  0  0  0  0  0  0  0  0  0  0
    0.4667    7.7868   10.1059 H   0  0  0  0  0  0  0  0  0  0  0  0
    0.0833    7.9071    8.3782 H   0  0  0  0  0  0  0  0  0  0  0  0
   -0.0583    9.3359    9.4250 H   0  0  0  0  0  0  0  0  0  0  0  0
   -0.2281    3.3083   10.7526 H   0  0  0  0  0  0  0  0  0  0  0  0
   -1.6450    2.7387    9.8438 H   0  0  0  0  0  0  0  0  0  0  0  0
   -0.1703    3.2266    8.9792 H   0  0  0  0  0  0  0  0  0  0  0  0
  1  5  1  0  0  0  0
  1  3  1  0  0  0  0
  1 20  1  0  0  0  0
  2  1  1  0  0  0  0
  3  6  1  0  0  0  0
  4  1  1  0  0  0  0
  5 22  1  0  0  0  0
  6 24  1  0  0  0  0
  6  7  1  0  0  0  0
  7 26  1  0  0  0  0
  7  8  1  0  0  0  0
  8 28  1  0  0  0  0
  8 27  1  0  0  0  0
  9  8  1  0  0  0  0
  9 30  1  0  0  0  0
 10 32  1  0  0  0  0
 10  9  1  0  0  0  0
 11  6  1  0  0  0  0
 11 10  1  0  0  0  0
 12 35  1  0  0  0  0
 12  4  1  0  0  0  0
 13 37  1  0  0  0  0
 13 12  1  0  0  0  0
 14 38  1  0  0  0  0
 14 13  1  0  0  0  0
 15 14  1  0  0  0  0
 15 16  1  0  0  0  0
 16 43  1  0  0  0  0
 16 17  1  0  0  0  0
 17 12  1  0  0  0  0
 17 45  1  0  0  0  0
 18  4  1  0  0  0  0
 18 19  2  0  0  0  0
 19  3  1  0  0  0  0
 20 49  1  0  0  0  0
 20 48  1  0  0  0  0
 20 50  1  0  0  0  0
 21 53  1  0  0  0  0
 21  1  1  0  0  0  0
 21 51  1  0  0  0  0
 22 23  1  0  0  0  0
 23 55  1  0  0  0  0
 23 54  1  0  0  0  0
 25  7  1  0  0  0  0
 29  9  1  0  0  0  0
 31 10  1  0  0  0  0
 33 11  1  0  0  0  0
 34 11  1  0  0  0  0
 36 13  1  0  0  0  0
 39 14  1  0  0  0  0
 40 15  1  0  0  0  0
 41 15  1  0  0  0  0
 42 16  1  0  0  0  0
 44 17  1  0  0  0  0
 46 18  1  0  0  0  0
 47 19  1  0  0  0  0
 52 21  1  0  0  0  0
 56 23  1  0  0  0  0
M  END
$$$$
