CSD_code = NODZAI | q = 0 | S = 0 | Stoichiometry = C27H26Cl2Zr | MND = 12
 OpenBabel04212202073D

 56 61  0  0  1  0  0  0  0  0999 V2000
    7.9048    5.4718    8.3739 Zr  0  0  0  0  0  0  0  0  0  0  0  0
    6.6590    3.8164    7.2812 Cl  0  0  0  0  0  0  0  0  0  0  0  0
    6.0944    6.9441    8.1808 Cl  0  0  0  0  0  0  0  0  0  0  0  0
   10.0339    2.1875    9.0833 C   0  0  2  0  0  0  0  0  0  0  0  0
   10.8184    2.6619    9.6800 H   0  0  0  0  0  0  0  0  0  0  0  0
   10.0469    2.7051    7.6192 C   0  0  2  0  0  0  0  0  0  0  0  0
    9.0108    2.9190    7.3169 H   0  0  0  0  0  0  0  0  0  0  0  0
   10.5045    1.4611    6.8312 C   0  0  1  0  0  0  0  0  0  0  0  0
   10.3223    1.5471    5.7610 H   0  0  0  0  0  0  0  0  0  0  0  0
   11.9579    1.1144    7.1791 C   0  0  0  0  0  0  0  0  0  0  0  0
   12.6182    1.9768    7.1193 H   0  0  0  0  0  0  0  0  0  0  0  0
   12.3377    0.3591    6.4910 H   0  0  0  0  0  0  0  0  0  0  0  0
   10.3578    0.6888    8.9191 C   0  0  1  0  0  0  0  0  0  0  0  0
   10.0308    0.0792    9.7600 H   0  0  0  0  0  0  0  0  0  0  0  0
    9.7412    0.3585    7.5606 C   0  0  0  0  0  0  0  0  0  0  0  0
    8.6625    0.4919    7.5242 H   0  0  0  0  0  0  0  0  0  0  0  0
    9.9953   -0.6411    7.2139 H   0  0  0  0  0  0  0  0  0  0  0  0
   11.8532    0.5565    8.6123 C   0  0  0  0  0  0  0  0  0  0  0  0
   12.1609   -0.4884    8.6524 H   0  0  0  0  0  0  0  0  0  0  0  0
   12.4666    1.1111    9.3218 H   0  0  0  0  0  0  0  0  0  0  0  0
    8.6912    2.3912    9.7959 C   0  0  0  0  0  0  0  0  0  0  0  0
    8.7223    1.8455   10.7481 H   0  0  0  0  0  0  0  0  0  0  0  0
    7.8875    1.9521    9.1959 H   0  0  0  0  0  0  0  0  0  0  0  0
    8.3599    3.8331   10.0818 C   0  0  1  0  0  0  0  0  0  0  0  0
    9.2705    4.8868   10.3394 C   0  0  0  0  0  0  0  0  0  0  0  0
   10.3472    4.7869   10.3737 H   0  0  0  0  0  0  0  0  0  0  0  0
    8.5651    6.0592   10.7009 C   0  0  0  0  0  0  0  0  0  0  0  0
    9.0081    6.9837   11.0502 H   0  0  0  0  0  0  0  0  0  0  0  0
    7.1835    5.7184   10.7899 C   0  0  0  0  0  0  0  0  0  0  0  0
    7.0460    4.3361   10.3874 C   0  0  0  0  0  0  0  0  0  0  0  0
    5.7671    3.7414   10.3741 C   0  0  0  0  0  0  0  0  0  0  0  0
    5.6472    2.7084   10.0748 H   0  0  0  0  0  0  0  0  0  0  0  0
    4.6863    4.4880   10.7696 C   0  0  0  0  0  0  0  0  0  0  0  0
    3.7015    4.0452   10.7690 H   0  0  0  0  0  0  0  0  0  0  0  0
    4.8269    5.8232   11.1915 C   0  0  0  0  0  0  0  0  0  0  0  0
    3.9474    6.3638   11.5071 H   0  0  0  0  0  0  0  0  0  0  0  0
    6.0492    6.4436   11.2041 C   0  0  0  0  0  0  0  0  0  0  0  0
    6.1523    7.4715   11.5253 H   0  0  0  0  0  0  0  0  0  0  0  0
   10.8987    3.9630    7.3406 C   0  0  0  0  0  0  0  0  0  0  0  0
   11.6480    4.1054    8.1231 H   0  0  0  0  0  0  0  0  0  0  0  0
   11.4382    3.8092    6.3993 H   0  0  0  0  0  0  0  0  0  0  0  0
   10.0557    5.2025    7.2006 C   0  0  0  0  0  0  0  0  0  0  0  0
    9.0745    5.3842    6.1899 C   0  0  0  0  0  0  0  0  0  0  0  0
    8.8474    4.6659    5.4086 H   0  0  0  0  0  0  0  0  0  0  0  0
    8.5050    6.6668    6.2983 C   0  0  0  0  0  0  0  0  0  0  0  0
    7.7742    7.1018    5.6270 H   0  0  0  0  0  0  0  0  0  0  0  0
    9.1724    7.3458    7.3623 C   0  0  0  0  0  0  0  0  0  0  0  0
   10.1804    6.4480    7.8946 C   0  0  2  0  0  3  0  0  0  0  0  0
   11.0889    6.9359    8.8570 C   0  0  0  0  0  0  0  0  0  0  0  0
   11.9106    6.3199    9.1988 H   0  0  0  0  0  0  0  0  0  0  0  0
   10.9455    8.2171    9.3257 C   0  0  0  0  0  0  0  0  0  0  0  0
   11.6449    8.6020   10.0531 H   0  0  0  0  0  0  0  0  0  0  0  0
    9.9092    9.0543    8.8720 C   0  0  0  0  0  0  0  0  0  0  0  0
    9.8273   10.0495    9.2826 H   0  0  0  0  0  0  0  0  0  0  0  0
    9.0346    8.6415    7.8983 C   0  0  0  0  0  0  0  0  0  0  0  0
    8.2702    9.3044    7.5151 H   0  0  0  0  0  0  0  0  0  0  0  0
  2  1  1  0  0  0  0
  3  1  1  0  0  0  0
  4  5  1  1  0  0  0
  4 21  1  0  0  0  0
  6  7  1  6  0  0  0
  6  4  1  0  0  0  0
  8  9  1  6  0  0  0
  8 10  1  0  0  0  0
  8 15  1  0  0  0  0
  8  6  1  0  0  0  0
 10 18  1  0  0  0  0
 11 10  1  0  0  0  0
 12 10  1  0  0  0  0
 13  4  1  0  0  0  0
 13 14  1  1  0  0  0
 15 13  1  0  0  0  0
 16 15  1  0  0  0  0
 17 15  1  0  0  0  0
 18 19  1  0  0  0  0
 18 13  1  0  0  0  0
 18 20  1  0  0  0  0
 21 24  1  0  0  0  0
 21 22  1  0  0  0  0
 23 21  1  0  0  0  0
 24  1  1  6  0  0  0
 24 25  1  0  0  0  0
 24 30  1  0  0  0  0
 25 26  1  0  0  0  0
 25 27  2  0  0  0  0
 27 29  1  0  0  0  0
 27 28  1  0  0  0  0
 29 37  1  0  0  0  0
 30 29  2  0  0  0  0
 31 30  1  0  0  0  0
 31 33  2  0  0  0  0
 32 31  1  0  0  0  0
 33 35  1  0  0  0  0
 34 33  1  0  0  0  0
 35 37  2  0  0  0  0
 35 36  1  0  0  0  0
 37 38  1  0  0  0  0
 39  6  1  0  0  0  0
 39 40  1  0  0  0  0
 41 39  1  0  0  0  0
 42 39  1  0  0  0  0
 43 45  1  0  0  0  0
 43 42  2  0  0  0  0
 44 43  1  0  0  0  0
 45 47  2  0  0  0  0
 46 45  1  0  0  0  0
 47 48  1  0  0  0  0
 47 55  1  0  0  0  0
 48 42  1  6  0  0  0
 48 49  1  0  0  0  0
 49 50  1  0  0  0  0
 49 51  2  0  0  0  0
 51 52  1  0  0  0  0
 53 54  1  0  0  0  0
 53 51  1  0  0  0  0
 55 53  2  0  0  0  0
 56 55  1  0  0  0  0
M  END
$$$$
