CSD_code = NOFLEA | q = 0 | S = 0 | Stoichiometry = C20H20Cl2P4Ru | MND = 6
 OpenBabel04212202073D

 47 50  0  0  0  0  0  0  0  0999 V2000
    0.0035   -0.0020   -0.0031 Ru  0  0  0  0  0  0  0  0  0  0  0  0
   -1.5808    0.7368   -1.5002 P   0  0  1  0  0  4  0  0  0  0  0  0
   -1.5097    0.6606    1.7670 Cl  0  0  0  0  0  0  0  0  0  0  0  0
   -3.1340    0.0545   -1.7900 C   0  0  0  0  0  0  0  0  0  0  0  0
   -3.3838   -0.8641   -1.2675 H   0  0  0  0  0  0  0  0  0  0  0  0
   -4.0534    0.6316   -2.6427 C   0  0  0  0  0  0  0  0  0  0  0  0
   -5.0101    0.1401   -2.7671 H   0  0  0  0  0  0  0  0  0  0  0  0
   -3.8257    1.8034   -3.3487 C   0  0  0  0  0  0  0  0  0  0  0  0
   -4.6088    2.1755   -3.9933 H   0  0  0  0  0  0  0  0  0  0  0  0
   -2.6436    2.5230   -3.2638 C   0  0  0  0  0  0  0  0  0  0  0  0
   -2.5562    3.4294   -3.8496 H   0  0  0  0  0  0  0  0  0  0  0  0
   -1.5732    2.1573   -2.4719 C   0  0  0  0  0  0  0  0  0  0  0  0
   -0.6796    2.7727   -2.4559 H   0  0  0  0  0  0  0  0  0  0  0  0
    0.9930    2.0756    0.0044 P   0  0  2  0  0  4  0  0  0  0  0  0
    2.0333    2.7662   -1.1790 C   0  0  0  0  0  0  0  0  0  0  0  0
    2.2437    2.1722   -2.0597 H   0  0  0  0  0  0  0  0  0  0  0  0
    2.5970    4.0169   -1.0260 C   0  0  0  0  0  0  0  0  0  0  0  0
    3.2423    4.3830   -1.8148 H   0  0  0  0  0  0  0  0  0  0  0  0
    2.3871    4.8330    0.0762 C   0  0  0  0  0  0  0  0  0  0  0  0
    2.8737    5.7976    0.1004 H   0  0  0  0  0  0  0  0  0  0  0  0
    1.5857    4.4720    1.1491 C   0  0  0  0  0  0  0  0  0  0  0  0
    1.4820    5.1747    1.9663 H   0  0  0  0  0  0  0  0  0  0  0  0
    0.9141    3.2690    1.2401 C   0  0  0  0  0  0  0  0  0  0  0  0
    0.2979    3.0488    2.1028 H   0  0  0  0  0  0  0  0  0  0  0  0
    1.5849   -0.7400    1.4978 P   0  0  2  0  0  4  0  0  0  0  0  0
    1.5146   -0.6640   -1.7729 Cl  0  0  0  0  0  0  0  0  0  0  0  0
    3.1354   -0.0542    1.7945 C   0  0  0  0  0  0  0  0  0  0  0  0
    3.3862    0.8641    1.2719 H   0  0  0  0  0  0  0  0  0  0  0  0
    4.0515   -0.6282    2.6528 C   0  0  0  0  0  0  0  0  0  0  0  0
    5.0067   -0.1348    2.7812 H   0  0  0  0  0  0  0  0  0  0  0  0
    3.8224   -1.7993    3.3596 C   0  0  0  0  0  0  0  0  0  0  0  0
    4.6029   -2.1687    4.0089 H   0  0  0  0  0  0  0  0  0  0  0  0
    2.6421   -2.5212    3.2697 C   0  0  0  0  0  0  0  0  0  0  0  0
    2.5535   -3.4270    3.8564 H   0  0  0  0  0  0  0  0  0  0  0  0
    1.5751   -2.1588    2.4718 C   0  0  0  0  0  0  0  0  0  0  0  0
    0.6828   -2.7761    2.4520 H   0  0  0  0  0  0  0  0  0  0  0  0
   -0.9877   -2.0793   -0.0093 P   0  0  1  0  0  4  0  0  0  0  0  0
   -2.0301   -2.7670    1.1740 C   0  0  0  0  0  0  0  0  0  0  0  0
   -2.2387   -2.1725    2.0548 H   0  0  0  0  0  0  0  0  0  0  0  0
   -2.5977   -4.0159    1.0209 C   0  0  0  0  0  0  0  0  0  0  0  0
   -3.2441   -4.3801    1.8098 H   0  0  0  0  0  0  0  0  0  0  0  0
   -2.3906   -4.8324   -0.0815 C   0  0  0  0  0  0  0  0  0  0  0  0
   -2.8802   -5.7954   -0.1059 H   0  0  0  0  0  0  0  0  0  0  0  0
   -1.5880   -4.4737   -1.1544 C   0  0  0  0  0  0  0  0  0  0  0  0
   -1.4866   -5.1766   -1.9716 H   0  0  0  0  0  0  0  0  0  0  0  0
   -0.9128   -3.2727   -1.2453 C   0  0  0  0  0  0  0  0  0  0  0  0
   -0.2960   -3.0542   -2.1080 H   0  0  0  0  0  0  0  0  0  0  0  0
  1  3  1  0  0  0  0
  2  1  1  1  0  0  0
  4  2  2  0  0  0  0
  4  5  1  0  0  0  0
  6  4  1  0  0  0  0
  7  6  1  0  0  0  0
  8 10  1  0  0  0  0
  8  6  2  0  0  0  0
  9  8  1  0  0  0  0
 10 12  2  0  0  0  0
 11 10  1  0  0  0  0
 12 13  1  0  0  0  0
 12  2  1  0  0  0  0
 14  1  1  1  0  0  0
 14 23  1  0  0  0  0
 15 17  1  0  0  0  0
 15 14  2  0  0  0  0
 16 15  1  0  0  0  0
 17 19  2  0  0  0  0
 18 17  1  0  0  0  0
 19 20  1  0  0  0  0
 19 21  1  0  0  0  0
 21 23  2  0  0  0  0
 21 22  1  0  0  0  0
 23 24  1  0  0  0  0
 25  1  1  6  0  0  0
 25 27  2  0  0  0  0
 25 35  1  0  0  0  0
 26  1  1  0  0  0  0
 27 29  1  0  0  0  0
 28 27  1  0  0  0  0
 29 30  1  0  0  0  0
 29 31  2  0  0  0  0
 31 32  1  0  0  0  0
 33 31  1  0  0  0  0
 33 34  1  0  0  0  0
 35 33  2  0  0  0  0
 36 35  1  0  0  0  0
 37  1  1  6  0  0  0
 37 38  2  0  0  0  0
 38 39  1  0  0  0  0
 40 38  1  0  0  0  0
 40 41  1  0  0  0  0
 42 40  2  0  0  0  0
 43 42  1  0  0  0  0
 44 42  1  0  0  0  0
 45 44  1  0  0  0  0
 46 44  2  0  0  0  0
 46 37  1  0  0  0  0
 47 46  1  0  0  0  0
M  END
$$$$
