CSD_code = NOFNOM | q = 0 | S = 0 | Stoichiometry = C20H22ClN3OPd | MND = 4
 OpenBabel04212202073D

 48 51  0  0  1  0  0  0  0  0999 V2000
    0.6207    3.3724    2.2026 Pd  0  0  0  0  0  0  0  0  0  0  0  0
   -1.2097    2.1775    2.5293 Cl  0  0  0  0  0  0  0  0  0  0  0  0
   -0.4307    5.2385    3.1387 O   0  0  0  0  0  0  0  0  0  0  0  0
    5.6586    3.4729   -0.3542 N   0  0  0  0  0  0  0  0  0  0  0  0
    3.5367    3.4538    0.7577 N   0  0  0  0  0  0  0  0  0  0  0  0
    2.0480    4.8005    2.0058 N   0  0  0  0  0  0  0  0  0  0  0  0
    6.8153    4.1204   -0.7655 C   0  0  0  0  0  0  0  0  0  0  0  0
    6.8837    4.7039   -2.0288 C   0  0  0  0  0  0  0  0  0  0  0  0
    6.0034    4.7106   -2.6548 H   0  0  0  0  0  0  0  0  0  0  0  0
    8.0686    5.2626   -2.4683 C   0  0  0  0  0  0  0  0  0  0  0  0
    8.1116    5.7166   -3.4477 H   0  0  0  0  0  0  0  0  0  0  0  0
    9.1948    5.2447   -1.6623 C   0  0  0  0  0  0  0  0  0  0  0  0
   10.1180    5.6829   -2.0098 H   0  0  0  0  0  0  0  0  0  0  0  0
    9.1311    4.6565   -0.4098 C   0  0  0  0  0  0  0  0  0  0  0  0
   10.0060    4.6354    0.2234 H   0  0  0  0  0  0  0  0  0  0  0  0
    7.9520    4.0946    0.0402 C   0  0  0  0  0  0  0  0  0  0  0  0
    7.8967    3.6305    1.0141 H   0  0  0  0  0  0  0  0  0  0  0  0
    4.7207    3.9991    0.2838 C   0  0  0  0  0  0  0  0  0  0  0  0
    4.3566    5.3764    0.8711 C   0  0  0  0  0  0  0  0  0  0  0  0
    5.2911    5.8460    1.9777 C   0  0  0  0  0  0  0  0  0  0  0  0
    4.8954    6.7339    2.4675 H   0  0  0  0  0  0  0  0  0  0  0  0
    6.2642    6.0881    1.5545 H   0  0  0  0  0  0  0  0  0  0  0  0
    5.4225    5.0658    2.7250 H   0  0  0  0  0  0  0  0  0  0  0  0
    4.1159    6.4466   -0.1863 C   0  0  0  0  0  0  0  0  0  0  0  0
    3.7278    7.3594    0.2625 H   0  0  0  0  0  0  0  0  0  0  0  0
    3.4064    6.0954   -0.9330 H   0  0  0  0  0  0  0  0  0  0  0  0
    5.0548    6.6818   -0.6841 H   0  0  0  0  0  0  0  0  0  0  0  0
    3.1133    4.6192    1.3376 C   0  0  1  0  0  3  0  0  0  0  0  0
    1.7435    6.0695    2.6313 C   0  0  0  0  0  0  0  0  0  0  0  0
    2.2887    6.8952    2.1585 H   0  0  0  0  0  0  0  0  0  0  0  0
    2.0334    6.0079    3.6885 H   0  0  0  0  0  0  0  0  0  0  0  0
    0.2379    6.3395    2.5586 C   0  0  0  0  0  0  0  0  0  0  0  0
   -0.0009    7.2603    3.1143 H   0  0  0  0  0  0  0  0  0  0  0  0
   -0.0752    6.4696    1.5078 H   0  0  0  0  0  0  0  0  0  0  0  0
   -1.8332    5.4001    3.2032 C   0  0  0  0  0  0  0  0  0  0  0  0
   -2.0887    6.2253    3.8792 H   0  0  0  0  0  0  0  0  0  0  0  0
   -2.2335    4.4607    3.5844 H   0  0  0  0  0  0  0  0  0  0  0  0
   -2.2573    5.5966    2.2115 H   0  0  0  0  0  0  0  0  0  0  0  0
    2.9767    2.1665    0.7591 C   0  0  1  0  0  3  0  0  0  0  0  0
    3.7218    1.1553    0.1544 C   0  0  0  0  0  0  0  0  0  0  0  0
    4.6666    1.4065   -0.3014 H   0  0  0  0  0  0  0  0  0  0  0  0
    3.2507   -0.1413    0.1506 C   0  0  0  0  0  0  0  0  0  0  0  0
    3.8295   -0.9225   -0.3190 H   0  0  0  0  0  0  0  0  0  0  0  0
    2.0396   -0.4255    0.7559 C   0  0  0  0  0  0  0  0  0  0  0  0
    1.6627   -1.4374    0.7678 H   0  0  0  0  0  0  0  0  0  0  0  0
    1.2975    0.5847    1.3484 C   0  0  0  0  0  0  0  0  0  0  0  0
    0.3537    0.3233    1.8056 H   0  0  0  0  0  0  0  0  0  0  0  0
    1.7324    1.9119    1.3649 C   0  0  0  0  0  0  0  0  0  0  0  0
  1  2  1  0  0  0  0
  3 35  1  0  0  0  0
  4 18  2  0  0  0  0
  5 39  1  0  0  0  0
  6  1  1  0  0  0  0
  6 29  1  0  0  0  0
  7  4  1  0  0  0  0
  7 16  1  0  0  0  0
  8  7  2  0  0  0  0
  9  8  1  0  0  0  0
 10  8  1  0  0  0  0
 10 12  2  0  0  0  0
 11 10  1  0  0  0  0
 12 14  1  0  0  0  0
 13 12  1  0  0  0  0
 14 16  2  0  0  0  0
 14 15  1  0  0  0  0
 16 17  1  0  0  0  0
 18  5  1  0  0  0  0
 18 19  1  0  0  0  0
 19 28  1  0  0  0  0
 19 20  1  0  0  0  0
 20 21  1  0  0  0  0
 20 23  1  0  0  0  0
 22 20  1  0  0  0  0
 24 25  1  0  0  0  0
 24 19  1  0  0  0  0
 26 24  1  0  0  0  0
 27 24  1  0  0  0  0
 28  5  1  1  0  0  0
 28  6  1  0  0  0  0
 29 31  1  0  0  0  0
 30 29  1  0  0  0  0
 32 29  1  0  0  0  0
 32 33  1  0  0  0  0
 32  3  1  0  0  0  0
 34 32  1  0  0  0  0
 35 37  1  0  0  0  0
 35 36  1  0  0  0  0
 38 35  1  0  0  0  0
 39 40  1  1  0  0  0
 39 48  1  0  0  0  0
 41 40  1  0  0  0  0
 42 40  2  0  0  0  0
 42 44  1  0  0  0  0
 43 42  1  0  0  0  0
 44 45  1  0  0  0  0
 44 46  2  0  0  0  0
 46 48  1  0  0  0  0
 46 47  1  0  0  0  0
 48  1  2  0  0  0  0
M  END
$$$$
