CSD_code = NOGTEI | q = 0 | S = 0 | Stoichiometry = C21H37ClF2P3RhSi | MND = 6
 OpenBabel04212202073D

 66 67  0  0  0  0  0  0  0  0999 V2000
   22.8668    2.3808    2.5820 Rh  0  0  0  0  0  0  0  0  0  0  0  0
   22.9047    0.1875    3.6638 Cl  0  0  0  0  0  0  0  0  0  0  0  0
   21.2930    1.3660    1.2563 P   0  0  0  0  0  4  0  0  0  0  0  0
   24.1408    2.9583    4.4002 P   0  0  0  0  0  4  0  0  0  0  0  0
   24.6720    1.8200    1.2066 P   0  0  0  0  0  4  0  0  0  0  0  0
   22.4474    4.5576    1.7427 Si  0  0  0  0  0  0  0  0  0  0  0  0
   26.2110    6.7653   -2.4422 F   0  0  0  0  0  0  0  0  0  0  0  0
   21.6604    8.9411    5.8371 F   0  0  0  0  0  0  0  0  0  0  0  0
   23.6518    5.2693    0.4347 C   0  0  0  0  0  0  0  0  0  0  0  0
   24.8772    5.8276    0.7820 C   0  0  0  0  0  0  0  0  0  0  0  0
   25.7425    6.3392   -0.1699 C   0  0  0  0  0  0  0  0  0  0  0  0
   25.3709    6.2783   -1.4997 C   0  0  0  0  0  0  0  0  0  0  0  0
   24.1626    5.7323   -1.8900 C   0  0  0  0  0  0  0  0  0  0  0  0
   23.3165    5.2361   -0.9140 C   0  0  0  0  0  0  0  0  0  0  0  0
   22.2277    5.9627    3.0319 C   0  0  0  0  0  0  0  0  0  0  0  0
   22.7664    7.2310    2.8508 C   0  0  0  0  0  0  0  0  0  0  0  0
   22.5845    8.2381    3.7829 C   0  0  0  0  0  0  0  0  0  0  0  0
   21.8363    7.9680    4.9124 C   0  0  0  0  0  0  0  0  0  0  0  0
   21.2579    6.7294    5.1183 C   0  0  0  0  0  0  0  0  0  0  0  0
   21.4607    5.7429    4.1710 C   0  0  0  0  0  0  0  0  0  0  0  0
   20.6471    2.1010   -0.2990 C   0  0  0  0  0  0  0  0  0  0  0  0
   21.6183   -0.3478    0.6855 C   0  0  0  0  0  0  0  0  0  0  0  0
   19.7248    1.0832    2.1522 C   0  0  0  0  0  0  0  0  0  0  0  0
   25.4812    1.8045    4.8919 C   0  0  0  0  0  0  0  0  0  0  0  0
   23.1920    2.9709    5.9627 C   0  0  0  0  0  0  0  0  0  0  0  0
   25.0265    4.5621    4.5363 C   0  0  0  0  0  0  0  0  0  0  0  0
   25.3141    0.1150    1.4081 C   0  0  0  0  0  0  0  0  0  0  0  0
   24.4603    1.8704   -0.6193 C   0  0  0  0  0  0  0  0  0  0  0  0
   26.2565    2.7509    1.2770 C   0  0  0  0  0  0  0  0  0  0  0  0
   21.6907    2.7004    3.4724 H   0  0  0  0  0  0  0  0  0  0  0  0
   21.1473    4.7496    1.0047 H   0  0  0  0  0  0  0  0  0  0  0  0
   25.1588    5.8754    1.8237 H   0  0  0  0  0  0  0  0  0  0  0  0
   26.6895    6.7796    0.1033 H   0  0  0  0  0  0  0  0  0  0  0  0
   23.8988    5.7067   -2.9363 H   0  0  0  0  0  0  0  0  0  0  0  0
   22.3639    4.8201   -1.2070 H   0  0  0  0  0  0  0  0  0  0  0  0
   23.3359    7.4442    1.9594 H   0  0  0  0  0  0  0  0  0  0  0  0
   23.0083    9.2205    3.6416 H   0  0  0  0  0  0  0  0  0  0  0  0
   20.6632    6.5547    6.0020 H   0  0  0  0  0  0  0  0  0  0  0  0
   21.0068    4.7735    4.3143 H   0  0  0  0  0  0  0  0  0  0  0  0
   20.1303    3.0279   -0.0646 H   0  0  0  0  0  0  0  0  0  0  0  0
   21.4637    2.3217   -0.9820 H   0  0  0  0  0  0  0  0  0  0  0  0
   19.9525    1.4074   -0.7712 H   0  0  0  0  0  0  0  0  0  0  0  0
   20.7098   -0.7499    0.2363 H   0  0  0  0  0  0  0  0  0  0  0  0
   22.4235   -0.3708   -0.0462 H   0  0  0  0  0  0  0  0  0  0  0  0
   21.8991   -0.9498    1.5484 H   0  0  0  0  0  0  0  0  0  0  0  0
   19.2970    2.0433    2.4380 H   0  0  0  0  0  0  0  0  0  0  0  0
   19.0211    0.5332    1.5267 H   0  0  0  0  0  0  0  0  0  0  0  0
   19.9470    0.5112    3.0525 H   0  0  0  0  0  0  0  0  0  0  0  0
   25.0464    0.8155    5.0295 H   0  0  0  0  0  0  0  0  0  0  0  0
   26.2535    1.7483    4.1279 H   0  0  0  0  0  0  0  0  0  0  0  0
   25.9218    2.1485    5.8278 H   0  0  0  0  0  0  0  0  0  0  0  0
   23.8649    3.1049    6.8100 H   0  0  0  0  0  0  0  0  0  0  0  0
   22.4642    3.7794    5.9403 H   0  0  0  0  0  0  0  0  0  0  0  0
   22.6699    2.0189    6.0525 H   0  0  0  0  0  0  0  0  0  0  0  0
   25.5063    4.6352    5.5116 H   0  0  0  0  0  0  0  0  0  0  0  0
   25.7824    4.6373    3.7575 H   0  0  0  0  0  0  0  0  0  0  0  0
   24.3158    5.3775    4.4202 H   0  0  0  0  0  0  0  0  0  0  0  0
   24.5066   -0.5977    1.2550 H   0  0  0  0  0  0  0  0  0  0  0  0
   26.1214   -0.0727    0.6997 H   0  0  0  0  0  0  0  0  0  0  0  0
   25.6730   -0.0129    2.4278 H   0  0  0  0  0  0  0  0  0  0  0  0
   24.2297    2.8918   -0.9188 H   0  0  0  0  0  0  0  0  0  0  0  0
   25.3793    1.5489   -1.1089 H   0  0  0  0  0  0  0  0  0  0  0  0
   23.6439    1.2209   -0.9276 H   0  0  0  0  0  0  0  0  0  0  0  0
   26.6301    2.8054    2.2969 H   0  0  0  0  0  0  0  0  0  0  0  0
   26.9997    2.2599    0.6489 H   0  0  0  0  0  0  0  0  0  0  0  0
   26.0864    3.7614    0.9107 H   0  0  0  0  0  0  0  0  0  0  0  0
  1 30  1  0  0  0  0
  1  2  1  0  0  0  0
  1  4  1  0  0  0  0
  3 23  1  0  0  0  0
  3  1  1  0  0  0  0
  4 26  1  0  0  0  0
  4 24  1  0  0  0  0
  4 25  1  0  0  0  0
  5 29  1  0  0  0  0
  5 27  1  0  0  0  0
  5  1  1  0  0  0  0
  6  1  1  0  0  0  0
  6 15  1  0  0  0  0
  7 12  1  0  0  0  0
  9 10  1  0  0  0  0
  9  6  1  0  0  0  0
 10 32  1  0  0  0  0
 11 33  1  0  0  0  0
 11 10  2  0  0  0  0
 12 11  1  0  0  0  0
 13 12  2  0  0  0  0
 13 14  1  0  0  0  0
 14  9  2  0  0  0  0
 15 20  1  0  0  0  0
 16 15  2  0  0  0  0
 16 17  1  0  0  0  0
 17 18  2  0  0  0  0
 18 19  1  0  0  0  0
 18  8  1  0  0  0  0
 19 38  1  0  0  0  0
 20 39  1  0  0  0  0
 20 19  2  0  0  0  0
 21 40  1  0  0  0  0
 21  3  1  0  0  0  0
 22  3  1  0  0  0  0
 22 45  1  0  0  0  0
 23 46  1  0  0  0  0
 23 48  1  0  0  0  0
 24 49  1  0  0  0  0
 24 51  1  0  0  0  0
 25 54  1  0  0  0  0
 25 52  1  0  0  0  0
 26 55  1  0  0  0  0
 27 60  1  0  0  0  0
 28  5  1  0  0  0  0
 29 64  1  0  0  0  0
 31  6  1  0  0  0  0
 34 13  1  0  0  0  0
 35 14  1  0  0  0  0
 36 16  1  0  0  0  0
 37 17  1  0  0  0  0
 41 21  1  0  0  0  0
 42 21  1  0  0  0  0
 43 22  1  0  0  0  0
 44 22  1  0  0  0  0
 47 23  1  0  0  0  0
 50 24  1  0  0  0  0
 53 25  1  0  0  0  0
 56 26  1  0  0  0  0
 57 26  1  0  0  0  0
 58 27  1  0  0  0  0
 59 27  1  0  0  0  0
 61 28  1  0  0  0  0
 62 28  1  0  0  0  0
 63 28  1  0  0  0  0
 65 29  1  0  0  0  0
 66 29  1  0  0  0  0
M  END
$$$$
