CSD_code = NOGVAG | q = 0 | S = 0 | Stoichiometry = C23H42Cl2NPPt | MND = 4
 OpenBabel04212202073D

 70 71  0  0  0  0  0  0  0  0999 V2000
    1.9305    2.2961    3.6003 Pt  0  0  0  0  0  0  0  0  0  0  0  0
    1.8360    0.0341    3.5078 P   0  0  0  0  0  4  0  0  0  0  0  0
    2.2262    4.6338    3.7734 Cl  0  0  0  0  0  0  0  0  0  0  0  0
    0.3614    2.7139    1.8440 Cl  0  0  0  0  0  0  0  0  0  0  0  0
    1.5110    4.2471    6.6327 N   0  0  0  0  0  4  0  0  0  0  0  0
    3.4077    2.0898    5.0588 C   0  0  0  0  0  0  0  0  0  0  0  0
    2.8799    1.3905    6.2309 C   0  0  0  0  0  0  0  0  0  0  0  0
    2.7234   -0.0117    6.1725 C   0  0  0  0  0  0  0  0  0  0  0  0
    2.3803   -0.7245    7.3181 C   0  0  0  0  0  0  0  0  0  0  0  0
    2.0979   -0.0283    8.4859 C   0  0  0  0  0  0  0  0  0  0  0  0
    2.1132    1.3560    8.5391 C   0  0  0  0  0  0  0  0  0  0  0  0
    2.5166    2.0724    7.4105 C   0  0  0  0  0  0  0  0  0  0  0  0
    2.3079   -2.2254    7.3444 C   0  0  0  0  0  0  0  0  0  0  0  0
    1.7198    2.0259    9.8270 C   0  0  0  0  0  0  0  0  0  0  0  0
    2.9138   -0.6921    4.8523 C   0  0  0  0  0  0  0  0  0  0  0  0
    2.6994   -0.5906    1.9482 C   0  0  0  0  0  0  0  0  0  0  0  0
    0.1466   -0.7755    3.7884 C   0  0  0  0  0  0  0  0  0  0  0  0
    3.2665   -2.0063    2.0532 C   0  0  0  0  0  0  0  0  0  0  0  0
    1.7430   -0.4969    0.7608 C   0  0  0  0  0  0  0  0  0  0  0  0
    3.8406    0.4067    1.7194 C   0  0  0  0  0  0  0  0  0  0  0  0
    0.1655   -2.2998    3.8602 C   0  0  0  0  0  0  0  0  0  0  0  0
   -0.8561   -0.3380    2.7199 C   0  0  0  0  0  0  0  0  0  0  0  0
   -0.3139   -0.1761    5.1208 C   0  0  0  0  0  0  0  0  0  0  0  0
    2.5599    3.5788    7.4579 C   0  0  0  0  0  0  0  0  0  0  0  0
    1.4155    5.6851    6.9560 C   0  0  0  0  0  0  0  0  0  0  0  0
    0.1890    3.5899    6.7451 C   0  0  0  0  0  0  0  0  0  0  0  0
    2.7013    6.4446    6.6721 C   0  0  0  0  0  0  0  0  0  0  0  0
   -0.6758    3.8076    5.5152 C   0  0  0  0  0  0  0  0  0  0  0  0
    1.8064    4.2304    5.5761 H   0  0  0  0  0  0  0  0  0  0  0  0
    4.2086    1.5091    4.5948 H   0  0  0  0  0  0  0  0  0  0  0  0
    3.8184    3.0691    5.3055 H   0  0  0  0  0  0  0  0  0  0  0  0
    1.8349   -0.5842    9.3741 H   0  0  0  0  0  0  0  0  0  0  0  0
    1.4567   -2.5915    6.7703 H   0  0  0  0  0  0  0  0  0  0  0  0
    2.1913   -2.5742    8.3675 H   0  0  0  0  0  0  0  0  0  0  0  0
    3.2147   -2.6689    6.9359 H   0  0  0  0  0  0  0  0  0  0  0  0
    1.4140    1.2769   10.5527 H   0  0  0  0  0  0  0  0  0  0  0  0
    0.8854    2.7114    9.6837 H   0  0  0  0  0  0  0  0  0  0  0  0
    2.5558    2.5796   10.2545 H   0  0  0  0  0  0  0  0  0  0  0  0
    2.7341   -1.7623    4.9215 H   0  0  0  0  0  0  0  0  0  0  0  0
    3.9401   -0.5443    4.5057 H   0  0  0  0  0  0  0  0  0  0  0  0
    4.0583   -2.0723    2.7956 H   0  0  0  0  0  0  0  0  0  0  0  0
    3.6915   -2.2881    1.0901 H   0  0  0  0  0  0  0  0  0  0  0  0
    2.4966   -2.7313    2.3024 H   0  0  0  0  0  0  0  0  0  0  0  0
    1.2024    0.4479    0.7855 H   0  0  0  0  0  0  0  0  0  0  0  0
    1.0304   -1.3174    0.7614 H   0  0  0  0  0  0  0  0  0  0  0  0
    2.3041   -0.5444   -0.1719 H   0  0  0  0  0  0  0  0  0  0  0  0
    4.5953    0.3451    2.5019 H   0  0  0  0  0  0  0  0  0  0  0  0
    3.4428    1.4270    1.6936 H   0  0  0  0  0  0  0  0  0  0  0  0
    4.3302    0.2091    0.7669 H   0  0  0  0  0  0  0  0  0  0  0  0
    0.8667   -2.6741    4.6014 H   0  0  0  0  0  0  0  0  0  0  0  0
    0.4121   -2.7345    2.8944 H   0  0  0  0  0  0  0  0  0  0  0  0
   -0.8284   -2.6522    4.1360 H   0  0  0  0  0  0  0  0  0  0  0  0
   -0.7493   -0.9080    1.8030 H   0  0  0  0  0  0  0  0  0  0  0  0
   -0.7351    0.7180    2.4870 H   0  0  0  0  0  0  0  0  0  0  0  0
   -1.8697   -0.4925    3.0881 H   0  0  0  0  0  0  0  0  0  0  0  0
    0.3077   -0.4978    5.9511 H   0  0  0  0  0  0  0  0  0  0  0  0
   -1.3431   -0.4645    5.3301 H   0  0  0  0  0  0  0  0  0  0  0  0
   -0.2689    0.9117    5.0505 H   0  0  0  0  0  0  0  0  0  0  0  0
    2.4317    3.9189    8.4860 H   0  0  0  0  0  0  0  0  0  0  0  0
    3.5264    3.9312    7.0965 H   0  0  0  0  0  0  0  0  0  0  0  0
    1.1276    5.7898    8.0079 H   0  0  0  0  0  0  0  0  0  0  0  0
    0.6253    6.1029    6.3322 H   0  0  0  0  0  0  0  0  0  0  0  0
    0.3631    2.5193    6.8664 H   0  0  0  0  0  0  0  0  0  0  0  0
   -0.3105    3.9644    7.6448 H   0  0  0  0  0  0  0  0  0  0  0  0
    2.5121    7.5106    6.7608 H   0  0  0  0  0  0  0  0  0  0  0  0
    3.0254    6.2360    5.6561 H   0  0  0  0  0  0  0  0  0  0  0  0
    3.4933    6.1854    7.3687 H   0  0  0  0  0  0  0  0  0  0  0  0
   -1.6218    3.2883    5.6418 H   0  0  0  0  0  0  0  0  0  0  0  0
   -0.1820    3.4021    4.6270 H   0  0  0  0  0  0  0  0  0  0  0  0
   -0.8853    4.8586    5.3383 H   0  0  0  0  0  0  0  0  0  0  0  0
  1  3  1  0  0  0  0
  1  6  1  0  0  0  0
  2  1  1  0  0  0  0
  2 17  1  0  0  0  0
  2 15  1  0  0  0  0
  4  1  1  0  0  0  0
  5 26  1  0  0  0  0
  5 25  1  0  0  0  0
  5 24  1  0  0  0  0
  6 31  1  0  0  0  0
  6  7  1  0  0  0  0
  7 12  1  0  0  0  0
  8  7  2  0  0  0  0
  8  9  1  0  0  0  0
  9 13  1  0  0  0  0
  9 10  2  0  0  0  0
 10 11  1  0  0  0  0
 10 32  1  0  0  0  0
 11 14  1  0  0  0  0
 12 24  1  0  0  0  0
 12 11  2  0  0  0  0
 13 34  1  0  0  0  0
 14 38  1  0  0  0  0
 14 36  1  0  0  0  0
 15 39  1  0  0  0  0
 15  8  1  0  0  0  0
 16 18  1  0  0  0  0
 16  2  1  0  0  0  0
 17 21  1  0  0  0  0
 17 23  1  0  0  0  0
 18 43  1  0  0  0  0
 18 41  1  0  0  0  0
 19 45  1  0  0  0  0
 19 44  1  0  0  0  0
 19 16  1  0  0  0  0
 20 16  1  0  0  0  0
 20 47  1  0  0  0  0
 21 52  1  0  0  0  0
 21 50  1  0  0  0  0
 22 55  1  0  0  0  0
 22 17  1  0  0  0  0
 23 57  1  0  0  0  0
 23 56  1  0  0  0  0
 24 59  1  0  0  0  0
 25 61  1  0  0  0  0
 26 63  1  0  0  0  0
 26 64  1  0  0  0  0
 27 65  1  0  0  0  0
 27 25  1  0  0  0  0
 27 67  1  0  0  0  0
 28 68  1  0  0  0  0
 28 26  1  0  0  0  0
 29  5  1  0  0  0  0
 30  6  1  0  0  0  0
 33 13  1  0  0  0  0
 35 13  1  0  0  0  0
 37 14  1  0  0  0  0
 40 15  1  0  0  0  0
 42 18  1  0  0  0  0
 46 19  1  0  0  0  0
 48 20  1  0  0  0  0
 49 20  1  0  0  0  0
 51 21  1  0  0  0  0
 53 22  1  0  0  0  0
 54 22  1  0  0  0  0
 58 23  1  0  0  0  0
 60 24  1  0  0  0  0
 62 25  1  0  0  0  0
 66 27  1  0  0  0  0
 69 28  1  0  0  0  0
 70 28  1  0  0  0  0
M  END
$$$$
