CSD_code = NOHDIX | q = 0 | S = 0 | Stoichiometry = C15H26Cl2N2OTi | MND = 6
 OpenBabel04212202073D

 47 49  0  0  0  0  0  0  0  0999 V2000
    1.9524    2.9764    6.3535 Ti  0  0  0  0  0  0  0  0  0  0  0  0
    1.7581    2.6331    4.1372 Cl  0  0  0  0  0  0  0  0  0  0  0  0
    3.6096    4.4368    6.6109 Cl  0  0  0  0  0  0  0  0  0  0  0  0
    2.4968    1.3775    6.5060 O   0  0  0  0  0  0  0  0  0  0  0  0
    0.7087    5.0009    5.6583 N   0  0  0  0  0  4  0  0  0  0  0  0
    2.1040    2.7574    8.7655 N   0  0  0  0  0  4  0  0  0  0  0  0
    0.0570    2.8537    7.0818 C   0  0  0  0  0  0  0  0  0  0  0  0
   -1.0059    3.5089    6.4589 C   0  0  0  0  0  0  0  0  0  0  0  0
   -2.3008    3.3882    6.9475 C   0  0  0  0  0  0  0  0  0  0  0  0
   -2.5365    2.6369    8.0882 C   0  0  0  0  0  0  0  0  0  0  0  0
   -1.4783    2.0780    8.7886 C   0  0  0  0  0  0  0  0  0  0  0  0
   -0.1883    2.1999    8.2896 C   0  0  0  0  0  0  0  0  0  0  0  0
   -0.6166    4.4381    5.3353 C   0  0  0  0  0  0  0  0  0  0  0  0
    1.2558    5.7203    4.5081 C   0  0  0  0  0  0  0  0  0  0  0  0
    0.5689    5.9595    6.7551 C   0  0  0  0  0  0  0  0  0  0  0  0
    1.0500    1.7651    9.0353 C   0  0  0  0  0  0  0  0  0  0  0  0
    3.4129    2.2594    9.1711 C   0  0  0  0  0  0  0  0  0  0  0  0
    1.8268    3.9860    9.5035 C   0  0  0  0  0  0  0  0  0  0  0  0
    3.2443    0.4575    5.7967 C   0  0  0  0  0  0  0  0  0  0  0  0
    3.3896   -0.8537    6.5814 C   0  0  0  0  0  0  0  0  0  0  0  0
    4.6159    1.0644    5.4657 C   0  0  0  0  0  0  0  0  0  0  0  0
   -3.1208    3.8894    6.4515 H   0  0  0  0  0  0  0  0  0  0  0  0
   -3.5441    2.5310    8.4629 H   0  0  0  0  0  0  0  0  0  0  0  0
   -1.6594    1.5633    9.7227 H   0  0  0  0  0  0  0  0  0  0  0  0
   -0.5336    3.8798    4.3955 H   0  0  0  0  0  0  0  0  0  0  0  0
   -1.3637    5.2383    5.2015 H   0  0  0  0  0  0  0  0  0  0  0  0
    1.3615    5.0449    3.6604 H   0  0  0  0  0  0  0  0  0  0  0  0
    2.2408    6.1117    4.7675 H   0  0  0  0  0  0  0  0  0  0  0  0
    0.6052    6.5589    4.2188 H   0  0  0  0  0  0  0  0  0  0  0  0
    0.0396    5.5010    7.5904 H   0  0  0  0  0  0  0  0  0  0  0  0
   -0.0001    6.8449    6.4318 H   0  0  0  0  0  0  0  0  0  0  0  0
    1.5577    6.2808    7.0857 H   0  0  0  0  0  0  0  0  0  0  0  0
    0.8606    1.6706   10.1175 H   0  0  0  0  0  0  0  0  0  0  0  0
    1.3895    0.7968    8.6505 H   0  0  0  0  0  0  0  0  0  0  0  0
    3.6405    1.3500    8.6172 H   0  0  0  0  0  0  0  0  0  0  0  0
    3.4431    2.0418   10.2496 H   0  0  0  0  0  0  0  0  0  0  0  0
    4.1680    3.0122    8.9392 H   0  0  0  0  0  0  0  0  0  0  0  0
    0.8023    4.3071    9.3186 H   0  0  0  0  0  0  0  0  0  0  0  0
    2.5154    4.7664    9.1765 H   0  0  0  0  0  0  0  0  0  0  0  0
    1.9508    3.8321   10.5865 H   0  0  0  0  0  0  0  0  0  0  0  0
    2.7129    0.2354    4.8480 H   0  0  0  0  0  0  0  0  0  0  0  0
    3.8816   -1.6026    5.9674 H   0  0  0  0  0  0  0  0  0  0  0  0
    2.4045   -1.2207    6.8650 H   0  0  0  0  0  0  0  0  0  0  0  0
    3.9809   -0.6946    7.4821 H   0  0  0  0  0  0  0  0  0  0  0  0
    5.2071    0.3717    4.8719 H   0  0  0  0  0  0  0  0  0  0  0  0
    5.1500    1.2962    6.3885 H   0  0  0  0  0  0  0  0  0  0  0  0
    4.4735    1.9890    4.8998 H   0  0  0  0  0  0  0  0  0  0  0  0
  1  4  1  0  0  0  0
  1  3  1  0  0  0  0
  1  7  1  0  0  0  0
  1  6  1  0  0  0  0
  2  1  1  0  0  0  0
  5  1  1  0  0  0  0
  5 15  1  0  0  0  0
  6 16  1  0  0  0  0
  6 17  1  0  0  0  0
  6 18  1  0  0  0  0
  7 12  1  0  0  0  0
  8  9  1  0  0  0  0
  8  7  2  0  0  0  0
  9 10  2  0  0  0  0
 10 23  1  0  0  0  0
 10 11  1  0  0  0  0
 11 24  1  0  0  0  0
 12 11  2  0  0  0  0
 12 16  1  0  0  0  0
 13  5  1  0  0  0  0
 13  8  1  0  0  0  0
 14 28  1  0  0  0  0
 14  5  1  0  0  0  0
 15 32  1  0  0  0  0
 15 30  1  0  0  0  0
 16 33  1  0  0  0  0
 17 36  1  0  0  0  0
 18 40  1  0  0  0  0
 19  4  1  0  0  0  0
 19 20  1  0  0  0  0
 20 43  1  0  0  0  0
 20 44  1  0  0  0  0
 21 19  1  0  0  0  0
 21 46  1  0  0  0  0
 22  9  1  0  0  0  0
 25 13  1  0  0  0  0
 26 13  1  0  0  0  0
 27 14  1  0  0  0  0
 29 14  1  0  0  0  0
 31 15  1  0  0  0  0
 34 16  1  0  0  0  0
 35 17  1  0  0  0  0
 37 17  1  0  0  0  0
 38 18  1  0  0  0  0
 39 18  1  0  0  0  0
 41 19  1  0  0  0  0
 42 20  1  0  0  0  0
 45 21  1  0  0  0  0
 47 21  1  0  0  0  0
M  END
$$$$
