CSD_code = NOHPIL | q = 0 | S = 0 | Stoichiometry = C19H23Cl2N3Pt | MND = 4
 OpenBabel04212202073D

 48 51  0  0  0  0  0  0  0  0999 V2000
    2.0157    4.0454    4.5940 Pt  0  0  1  0  0  0  0  0  0  0  0  0
    0.7094    3.8319    2.6461 Cl  0  0  0  0  0  0  0  0  0  0  0  0
    7.8758    4.5915   15.8969 Cl  0  0  0  0  0  0  0  0  0  0  0  0
    3.3534    5.4930    3.8890 N   0  0  0  0  0  4  0  0  0  0  0  0
    1.0020    2.6547    5.7826 N   0  0  0  0  0  4  0  0  0  0  0  0
    5.1224    4.0130   10.7351 N   0  0  0  0  0  0  0  0  0  0  0  0
    3.0867    4.2234    6.1891 C   0  0  0  0  0  0  0  0  0  0  0  0
    4.2498    4.9851    6.1391 C   0  0  0  0  0  0  0  0  0  0  0  0
    5.0143    5.1170    7.2814 C   0  0  0  0  0  0  0  0  0  0  0  0
    5.9231    5.7041    7.2796 H   0  0  0  0  0  0  0  0  0  0  0  0
    4.6133    4.4732    8.4609 C   0  0  0  0  0  0  0  0  0  0  0  0
    3.4403    3.7029    8.4938 C   0  0  0  0  0  0  0  0  0  0  0  0
    3.1720    3.2270    9.4246 H   0  0  0  0  0  0  0  0  0  0  0  0
    2.6721    3.5848    7.3551 C   0  0  0  0  0  0  0  0  0  0  0  0
    4.5635    5.5323    4.7656 C   0  0  0  0  0  0  0  0  0  0  0  0
    5.3308    4.8952    4.3135 H   0  0  0  0  0  0  0  0  0  0  0  0
    4.9591    6.5551    4.8042 H   0  0  0  0  0  0  0  0  0  0  0  0
    2.6020    6.7444    4.0334 C   0  0  0  0  0  0  0  0  0  0  0  0
    3.1871    7.5949    3.6619 H   0  0  0  0  0  0  0  0  0  0  0  0
    2.3627    6.9098    5.0854 H   0  0  0  0  0  0  0  0  0  0  0  0
    1.6746    6.6775    3.4613 H   0  0  0  0  0  0  0  0  0  0  0  0
    3.7430    5.3182    2.4901 C   0  0  0  0  0  0  0  0  0  0  0  0
    2.8462    5.2904    1.8710 H   0  0  0  0  0  0  0  0  0  0  0  0
    4.2688    4.3706    2.3693 H   0  0  0  0  0  0  0  0  0  0  0  0
    4.3891    6.1377    2.1541 H   0  0  0  0  0  0  0  0  0  0  0  0
    1.3459    2.8728    7.2213 C   0  0  0  0  0  0  0  0  0  0  0  0
    0.5734    3.5112    7.6621 H   0  0  0  0  0  0  0  0  0  0  0  0
    1.3323    1.9149    7.7551 H   0  0  0  0  0  0  0  0  0  0  0  0
    1.5461    1.3671    5.3384 C   0  0  0  0  0  0  0  0  0  0  0  0
    1.0657    0.5372    5.8711 H   0  0  0  0  0  0  0  0  0  0  0  0
    2.6203    1.3370    5.5292 H   0  0  0  0  0  0  0  0  0  0  0  0
    1.3686    1.2491    4.2677 H   0  0  0  0  0  0  0  0  0  0  0  0
   -0.4493    2.6584    5.6001 C   0  0  0  0  0  0  0  0  0  0  0  0
   -0.6771    2.4988    4.5461 H   0  0  0  0  0  0  0  0  0  0  0  0
   -0.8553    3.6273    5.8927 H   0  0  0  0  0  0  0  0  0  0  0  0
   -0.9246    1.8705    6.1960 H   0  0  0  0  0  0  0  0  0  0  0  0
    5.4183    4.6096    9.6525 C   0  0  0  0  0  0  0  0  0  0  0  0
    6.3173    5.2348    9.5566 H   0  0  0  0  0  0  0  0  0  0  0  0
    5.8178    4.1793   11.9084 C   0  0  0  0  0  0  0  0  0  0  0  0
    6.2019    5.4371   12.3842 C   0  0  0  0  0  0  0  0  0  0  0  0
    5.9807    6.3160   11.7959 H   0  0  0  0  0  0  0  0  0  0  0  0
    6.8247    5.5656   13.6096 C   0  0  0  0  0  0  0  0  0  0  0  0
    7.1130    6.5384   13.9774 H   0  0  0  0  0  0  0  0  0  0  0  0
    7.0827    4.4342   14.3661 C   0  0  0  0  0  0  0  0  0  0  0  0
    6.7055    3.1772   13.9159 C   0  0  0  0  0  0  0  0  0  0  0  0
    6.9082    2.3060   14.5191 H   0  0  0  0  0  0  0  0  0  0  0  0
    6.0653    3.0545   12.7012 C   0  0  0  0  0  0  0  0  0  0  0  0
    5.7650    2.0852   12.3351 H   0  0  0  0  0  0  0  0  0  0  0  0
  1  2  1  6  0  0  0
  1  5  1  0  0  0  0
  1  7  1  0  0  0  0
  4 18  1  0  0  0  0
  4  1  1  0  0  0  0
  4 15  1  0  0  0  0
  5 26  1  0  0  0  0
  6 39  1  0  0  0  0
  7 14  1  0  0  0  0
  8  7  2  0  0  0  0
  8  9  1  0  0  0  0
  9 11  2  0  0  0  0
 10  9  1  0  0  0  0
 11 12  1  0  0  0  0
 11 37  1  0  0  0  0
 12 13  1  0  0  0  0
 14 12  2  0  0  0  0
 15 17  1  0  0  0  0
 15  8  1  0  0  0  0
 16 15  1  0  0  0  0
 18 20  1  0  0  0  0
 19 18  1  0  0  0  0
 21 18  1  0  0  0  0
 22  4  1  0  0  0  0
 23 22  1  0  0  0  0
 24 22  1  0  0  0  0
 25 22  1  0  0  0  0
 26 14  1  0  0  0  0
 26 27  1  0  0  0  0
 26 28  1  0  0  0  0
 29 31  1  0  0  0  0
 29  5  1  0  0  0  0
 29 30  1  0  0  0  0
 32 29  1  0  0  0  0
 33  5  1  0  0  0  0
 33 35  1  0  0  0  0
 33 36  1  0  0  0  0
 34 33  1  0  0  0  0
 37  6  2  0  0  0  0
 38 37  1  0  0  0  0
 39 40  2  0  0  0  0
 39 47  1  0  0  0  0
 40 42  1  0  0  0  0
 41 40  1  0  0  0  0
 42 43  1  0  0  0  0
 42 44  2  0  0  0  0
 44  3  1  0  0  0  0
 45 44  1  0  0  0  0
 45 46  1  0  0  0  0
 47 45  2  0  0  0  0
 48 47  1  0  0  0  0
M  END
$$$$
