CSD_code = NOJBAQ | q = 0 | S = 0 | Stoichiometry = C11H10Cl2N2Zn | MND = 4
 OpenBabel04212202073D

 26 28  0  0  1  0  0  0  0  0999 V2000
    1.6849    2.6486    1.5572 Zn  0  0  0  0  0  0  0  0  0  0  0  0
    3.6812    3.2547    2.2507 Cl  0  0  0  0  0  0  0  0  0  0  0  0
   -0.3667    3.2648    2.0633 Cl  0  0  0  0  0  0  0  0  0  0  0  0
    2.0114    2.2973   -0.5257 N   0  0  0  0  0  0  0  0  0  0  0  0
    1.5732    0.5337    1.4632 N   0  0  0  0  0  0  0  0  0  0  0  0
    2.3968    3.2067   -1.4049 C   0  0  0  0  0  3  0  0  0  0  0  0
    2.2470    4.2381   -1.1170 H   0  0  0  0  0  0  0  0  0  0  0  0
    2.9623    2.8737   -2.6255 C   0  0  0  0  0  0  0  0  0  0  0  0
    3.2633    3.6452   -3.3153 H   0  0  0  0  0  0  0  0  0  0  0  0
    3.1413    1.5319   -2.9216 C   0  0  0  0  0  0  0  0  0  0  0  0
    3.5965    1.2283   -3.8523 H   0  0  0  0  0  0  0  0  0  0  0  0
    2.7336    0.5815   -2.0015 C   0  0  0  0  0  0  0  0  0  0  0  0
    2.8848   -0.4666   -2.2023 H   0  0  0  0  0  0  0  0  0  0  0  0
    2.1584    1.0001   -0.8027 C   0  0  0  0  0  0  0  0  0  0  0  0
    1.7010    0.0499    0.2266 C   0  0  2  0  0  3  0  0  0  0  0  0
    1.4058   -1.2788   -0.0614 C   0  0  0  0  0  0  0  0  0  0  0  0
    1.4740   -1.6583   -1.0674 H   0  0  0  0  0  0  0  0  0  0  0  0
    0.9898   -2.1058    0.9709 C   0  0  0  0  0  0  0  0  0  0  0  0
    0.7508   -3.1403    0.7748 H   0  0  0  0  0  0  0  0  0  0  0  0
    0.8839   -1.5901    2.2480 C   0  0  0  0  0  0  0  0  0  0  0  0
    0.5678   -2.2103    3.0716 H   0  0  0  0  0  0  0  0  0  0  0  0
    1.1797   -0.2435    2.4649 C   0  0  0  0  0  0  0  0  0  0  0  0
    1.0569    0.3891    3.8032 C   0  0  0  0  0  0  0  0  0  0  0  0
    0.2046    1.0710    3.7960 H   0  0  0  0  0  0  0  0  0  0  0  0
    1.9449    0.9840    4.0178 H   0  0  0  0  0  0  0  0  0  0  0  0
    0.9136   -0.3526    4.5837 H   0  0  0  0  0  0  0  0  0  0  0  0
  1  3  1  0  0  0  0
  1  2  1  0  0  0  0
  4  1  1  0  0  0  0
  5  1  1  0  0  0  0
  5 22  1  0  0  0  0
  6  7  1  0  0  0  0
  6  4  1  0  0  0  0
  8  6  1  0  0  0  0
  9  8  1  0  0  0  0
 10  8  2  0  0  0  0
 10 12  1  0  0  0  0
 11 10  1  0  0  0  0
 12 14  2  0  0  0  0
 13 12  1  0  0  0  0
 14  4  1  0  0  0  0
 15 14  1  6  0  0  0
 15  5  1  0  0  0  0
 16 15  1  0  0  0  0
 16 18  2  0  0  0  0
 17 16  1  0  0  0  0
 18 20  1  0  0  0  0
 19 18  1  0  0  0  0
 20 22  2  0  0  0  0
 20 21  1  0  0  0  0
 22 23  1  0  0  0  0
 23 25  1  0  0  0  0
 23 26  1  0  0  0  0
 24 23  1  0  0  0  0
M  END
$$$$
