CSD_code = NOJKOM | q = -1 | S = 0 | Stoichiometry = C4H6ClN2O3Pt(1-) | MND = 4
 OpenBabel04212202073D

 17 18  0  0  0  0  0  0  0  0999 V2000
    2.3522    0.2054    0.6464 Pt  0  0  1  0  0  0  0  0  0  0  0  0
    1.3781    0.4542   -1.4125 Cl  0  0  0  0  0  0  0  0  0  0  0  0
    2.7428    0.7894    4.6191 O   0  0  0  0  0  0  0  0  0  0  0  0
    3.9465   -0.9660    0.2267 O   0  0  0  0  0  0  0  0  0  0  0  0
    5.7370   -1.8632    1.1493 O   0  0  0  0  0  0  0  0  0  0  0  0
    0.9423    1.4528    1.5202 N   0  0  0  0  0  4  0  0  0  0  0  0
    3.0590    0.0980    2.4543 N   0  0  0  0  0  0  0  0  0  0  0  0
    1.0215    1.2320    2.9791 C   0  0  0  0  0  0  0  0  0  0  0  0
    2.4115    0.6796    3.4392 C   0  0  0  0  0  0  0  0  0  0  0  0
    4.3309   -0.5656    2.5933 C   0  0  0  0  0  0  0  0  0  0  0  0
    4.7213   -1.1918    1.2279 C   0  0  0  0  0  0  0  0  0  0  0  0
    1.2616    2.3937    1.2827 H   0  0  0  0  0  0  0  0  0  0  0  0
   -0.0067    1.3470    1.1603 H   0  0  0  0  0  0  0  0  0  0  0  0
    0.8024    2.1476    3.5410 H   0  0  0  0  0  0  0  0  0  0  0  0
    0.2846    0.4758    3.2631 H   0  0  0  0  0  0  0  0  0  0  0  0
    5.1217    0.1344    2.8953 H   0  0  0  0  0  0  0  0  0  0  0  0
    4.2870   -1.3576    3.3514 H   0  0  0  0  0  0  0  0  0  0  0  0
  1  2  1  1  0  0  0
  1  6  1  0  0  0  0
  1  7  1  0  0  0  0
  4  1  1  0  0  0  0
  4 11  1  0  0  0  0
  5 11  2  0  0  0  0
  6  8  1  0  0  0  0
  7 10  1  0  0  0  0
  7  9  1  0  0  0  0
  8 15  1  0  0  0  0
  8  9  1  0  0  0  0
  8 14  1  0  0  0  0
  9  3  2  0  0  0  0
 10 16  1  0  0  0  0
 10 17  1  0  0  0  0
 11 10  1  0  0  0  0
 12  6  1  0  0  0  0
 13  6  1  0  0  0  0
M  END
$$$$
