CSD_code = NOJKUS | q = -1 | S = 0 | Stoichiometry = C4H7Cl2N2O3Pt(1-) | MND = 4
 OpenBabel04212202073D

 19 19  0  0  0  0  0  0  0  0999 V2000
   -1.1784    3.6743    5.8856 Pt  0  0  0  0  0  0  0  0  0  0  0  0
   -0.8943    1.7356    4.7511 Cl  0  0  0  0  0  0  0  0  0  0  0  0
   -3.3659    3.1919    6.4424 Cl  0  0  0  0  0  0  0  0  0  0  0  0
    2.1342    6.0422    6.2015 O   0  0  0  0  0  0  0  0  0  0  0  0
    1.2504    2.2275    6.8539 O   0  0  0  0  0  0  0  0  0  0  0  0
    2.6172    1.3814    5.3097 O   0  0  0  0  0  0  0  0  0  0  0  0
   -1.4143    5.5498    6.7646 N   0  0  0  0  0  4  0  0  0  0  0  0
    0.6872    4.3828    5.5817 N   0  0  0  0  0  0  0  0  0  0  0  0
   -0.1026    6.1275    7.0567 C   0  0  0  0  0  0  0  0  0  0  0  0
    1.0285    5.4947    6.2093 C   0  0  0  0  0  0  0  0  0  0  0  0
    1.7441    3.6088    4.9853 C   0  0  0  0  0  0  0  0  0  0  0  0
    1.9142    2.2821    5.6937 C   0  0  0  0  0  0  0  0  0  0  0  0
   -1.8968    6.0737    6.0350 H   0  0  0  0  0  0  0  0  0  0  0  0
   -2.0280    5.5019    7.5764 H   0  0  0  0  0  0  0  0  0  0  0  0
   -0.0858    7.2158    6.9167 H   0  0  0  0  0  0  0  0  0  0  0  0
    0.1613    5.9191    8.0977 H   0  0  0  0  0  0  0  0  0  0  0  0
    1.5395    3.3948    3.9311 H   0  0  0  0  0  0  0  0  0  0  0  0
    2.6893    4.1658    5.0593 H   0  0  0  0  0  0  0  0  0  0  0  0
    1.2542    1.3201    7.1930 H   0  0  0  0  0  0  0  0  0  0  0  0
  1  3  1  0  0  0  0
  1  7  1  0  0  0  0
  2  1  1  0  0  0  0
  4 10  2  0  0  0  0
  5 19  1  0  0  0  0
  6 12  2  0  0  0  0
  7  9  1  0  0  0  0
  7 14  1  0  0  0  0
  8  1  1  0  0  0  0
  8 10  1  0  0  0  0
  9 16  1  0  0  0  0
 10  9  1  0  0  0  0
 11 18  1  0  0  0  0
 11  8  1  0  0  0  0
 11 12  1  0  0  0  0
 12  5  1  0  0  0  0
 13  7  1  0  0  0  0
 15  9  1  0  0  0  0
 17 11  1  0  0  0  0
M  END
$$$$
