CSD_code = NOKJAA | q = 0 | S = 0 | Stoichiometry = C23H32I2N8Zn | MND = 4
 OpenBabel04212202073D

 66 70  0  0  1  0  0  0  0  0999 V2000
    6.3129    3.4109   11.0782 I   0  0  0  0  0  0  0  0  0  0  0  0
    5.8434    2.0755   15.5569 I   0  0  0  0  0  0  0  0  0  0  0  0
    5.2715    2.3434   13.1124 Zn  0  0  0  0  0  0  0  0  0  0  0  0
    1.9696    3.3014    8.8429 N   0  0  0  0  0  0  0  0  0  0  0  0
    0.4372    1.7423    9.7858 N   0  0  0  0  0  0  0  0  0  0  0  0
    3.4635   -0.0059   12.1508 N   0  0  1  0  0  0  0  0  0  0  0  0
    1.8176    4.6342    8.9304 N   0  0  0  0  0  0  0  0  0  0  0  0
    2.4465    0.9547   11.8054 C   0  0  1  0  0  0  0  0  0  0  0  0
    1.5138    0.3954   11.6891 H   0  0  0  0  0  0  0  0  0  0  0  0
    1.6320    2.5259   10.0059 C   0  0  0  0  0  0  0  0  0  0  0  0
    1.4102    3.2824   10.7728 H   0  0  0  0  0  0  0  0  0  0  0  0
    3.1749    2.8442   13.1509 N   0  0  0  0  0  0  0  0  0  0  0  0
    3.3791   -1.3506   12.0135 C   0  0  2  0  0  3  0  0  0  0  0  0
    2.2387    1.9235   12.8485 N   0  0  1  0  0  0  0  0  0  0  0  0
    1.0771    2.1853   13.4982 C   0  0  1  0  0  3  0  0  0  0  0  0
    2.1538    5.1292    7.7561 C   0  0  0  0  0  0  0  0  0  0  0  0
    0.4920    0.4167    9.5652 N   0  0  0  0  0  0  0  0  0  0  0  0
    2.3841    2.9256    7.6029 C   0  0  0  0  0  0  0  0  0  0  0  0
    2.7815    1.6307   10.4672 C   0  0  0  0  0  0  0  0  0  0  0  0
    3.6788    2.2418   10.5563 H   0  0  0  0  0  0  0  0  0  0  0  0
    2.9550    0.8467    9.7325 H   0  0  0  0  0  0  0  0  0  0  0  0
    2.6240    3.6962   14.0019 C   0  0  0  0  0  0  0  0  0  0  0  0
    4.7076    0.3665   12.5019 N   0  0  0  0  0  0  0  0  0  0  0  0
    2.1299    6.5887    7.4809 C   0  0  0  0  0  0  0  0  0  0  0  0
    1.5228    6.8006    6.6021 H   0  0  0  0  0  0  0  0  0  0  0  0
    3.1407    6.9465    7.2910 H   0  0  0  0  0  0  0  0  0  0  0  0
    1.7236    7.1164    8.3389 H   0  0  0  0  0  0  0  0  0  0  0  0
    2.5147    4.0877    6.8797 C   0  0  0  0  0  0  0  0  0  0  0  0
    2.8300    4.1804    5.8608 H   0  0  0  0  0  0  0  0  0  0  0  0
   -0.7521    0.0236    9.3515 C   0  0  0  0  0  0  0  0  0  0  0  0
    5.4264   -0.7408   12.6201 C   0  0  0  0  0  0  0  0  0  0  0  0
   -0.1396    1.3429   13.3812 C   0  0  0  0  0  0  0  0  0  0  0  0
   -0.5212    1.3251   12.3604 H   0  0  0  0  0  0  0  0  0  0  0  0
   -0.9133    1.7457   14.0286 H   0  0  0  0  0  0  0  0  0  0  0  0
    0.0673    0.3184   13.6903 H   0  0  0  0  0  0  0  0  0  0  0  0
    1.2953    3.3175   14.2491 C   0  0  0  0  0  0  0  0  0  0  0  0
    0.5994    3.8081   14.8973 H   0  0  0  0  0  0  0  0  0  0  0  0
    2.6229    1.5204    7.1856 C   0  0  0  0  0  0  0  0  0  0  0  0
    3.6224    1.1987    7.4802 H   0  0  0  0  0  0  0  0  0  0  0  0
    2.5576    1.4556    6.1024 H   0  0  0  0  0  0  0  0  0  0  0  0
    1.8901    0.8450    7.6235 H   0  0  0  0  0  0  0  0  0  0  0  0
    4.6248   -1.8516   12.3190 C   0  0  0  0  0  0  0  0  0  0  0  0
    4.9256   -2.8785   12.3239 H   0  0  0  0  0  0  0  0  0  0  0  0
   -1.1779    3.6359    9.9375 C   0  0  0  0  0  0  0  0  0  0  0  0
   -2.2143    3.8097    9.6632 H   0  0  0  0  0  0  0  0  0  0  0  0
   -0.5352    4.2912    9.3516 H   0  0  0  0  0  0  0  0  0  0  0  0
   -1.0491    3.8986   10.9890 H   0  0  0  0  0  0  0  0  0  0  0  0
   -0.8347    2.2112    9.7100 C   0  0  0  0  0  0  0  0  0  0  0  0
    3.3615    4.8503   14.5671 C   0  0  0  0  0  0  0  0  0  0  0  0
    3.7058    4.6176   15.5754 H   0  0  0  0  0  0  0  0  0  0  0  0
    2.7087    5.7185   14.6236 H   0  0  0  0  0  0  0  0  0  0  0  0
    4.2268    5.0932   13.9525 H   0  0  0  0  0  0  0  0  0  0  0  0
   -1.0921   -1.3987    9.0845 C   0  0  0  0  0  0  0  0  0  0  0  0
   -0.1872   -1.9714    8.8999 H   0  0  0  0  0  0  0  0  0  0  0  0
   -1.7446   -1.4703    8.2169 H   0  0  0  0  0  0  0  0  0  0  0  0
   -1.6161   -1.8303    9.9373 H   0  0  0  0  0  0  0  0  0  0  0  0
    2.1375   -2.0495   11.5993 C   0  0  0  0  0  0  0  0  0  0  0  0
    1.3814   -1.9954   12.3834 H   0  0  0  0  0  0  0  0  0  0  0  0
    2.3618   -3.0965   11.4168 H   0  0  0  0  0  0  0  0  0  0  0  0
    1.7234   -1.6113   10.6913 H   0  0  0  0  0  0  0  0  0  0  0  0
   -1.6292    1.1205    9.4351 C   0  0  0  0  0  0  0  0  0  0  0  0
   -2.6917    1.1084    9.3066 H   0  0  0  0  0  0  0  0  0  0  0  0
    6.8540   -0.7284   13.0194 C   0  0  0  0  0  0  0  0  0  0  0  0
    7.3559   -1.6126   12.6353 H   0  0  0  0  0  0  0  0  0  0  0  0
    6.9405   -0.7297   14.1066 H   0  0  0  0  0  0  0  0  0  0  0  0
    7.3557    0.1606   12.6388 H   0  0  0  0  0  0  0  0  0  0  0  0
  1  3  1  0  0  0  0
  3 12  1  0  0  0  0
  3  2  1  0  0  0  0
  4  7  1  0  0  0  0
  4 10  1  0  0  0  0
  5 10  1  0  0  0  0
  6 23  1  6  0  0  0
  8  9  1  6  0  0  0
  8  6  1  0  0  0  0
  8 14  1  0  0  0  0
 10 19  1  0  0  0  0
 10 11  1  0  0  0  0
 12 22  1  0  0  0  0
 13 57  1  6  0  0  0
 13  6  1  0  0  0  0
 13 42  1  0  0  0  0
 14 12  1  6  0  0  0
 14 15  1  0  0  0  0
 15 32  1  1  0  0  0
 15 36  1  0  0  0  0
 16  7  2  0  0  0  0
 17  5  1  0  0  0  0
 18  4  1  0  0  0  0
 19 20  1  0  0  0  0
 19  8  1  0  0  0  0
 21 19  1  0  0  0  0
 22 36  2  0  0  0  0
 22 49  1  0  0  0  0
 23 31  1  0  0  0  0
 23  3  1  0  0  0  0
 24 16  1  0  0  0  0
 24 27  1  0  0  0  0
 25 24  1  0  0  0  0
 26 24  1  0  0  0  0
 28 18  2  0  0  0  0
 28 16  1  0  0  0  0
 29 28  1  0  0  0  0
 30 61  1  0  0  0  0
 30 17  2  0  0  0  0
 31 63  1  0  0  0  0
 32 35  1  0  0  0  0
 32 34  1  0  0  0  0
 33 32  1  0  0  0  0
 36 37  1  0  0  0  0
 38 39  1  0  0  0  0
 38 18  1  0  0  0  0
 38 41  1  0  0  0  0
 40 38  1  0  0  0  0
 42 43  1  0  0  0  0
 42 31  2  0  0  0  0
 44 47  1  0  0  0  0
 45 44  1  0  0  0  0
 46 44  1  0  0  0  0
 48  5  1  0  0  0  0
 48 44  1  0  0  0  0
 49 51  1  0  0  0  0
 49 50  1  0  0  0  0
 52 49  1  0  0  0  0
 53 30  1  0  0  0  0
 53 56  1  0  0  0  0
 54 53  1  0  0  0  0
 55 53  1  0  0  0  0
 57 58  1  0  0  0  0
 59 57  1  0  0  0  0
 60 57  1  0  0  0  0
 61 48  2  0  0  0  0
 62 61  1  0  0  0  0
 63 65  1  0  0  0  0
 64 63  1  0  0  0  0
 66 63  1  0  0  0  0
M  END
$$$$
