CSD_code = NOKQEL | q = 0 | S = 0 | Stoichiometry = C14H29ClN6P2Pt | MND = 4
 OpenBabel04212202073D

 53 58  0  0  1  0  0  0  0  0999 V2000
    3.5428    9.3031    6.5919 Pt  0  0  1  0  0  0  0  0  0  0  0  0
    4.2440    9.3391    4.4422 P   0  0  1  0  0  4  0  0  0  0  0  0
    2.5597    9.4665    8.6254 P   0  0  1  0  0  4  0  0  0  0  0  0
    1.3078    9.7480    5.8592 Cl  0  0  0  0  0  0  0  0  0  0  0  0
    3.6454    9.5156    1.7635 N   0  0  2  0  0  0  0  0  0  0  0  0
    5.5582   10.8128    2.5189 N   0  0  2  0  0  0  0  0  0  0  0  0
    5.7280    8.3929    2.3225 N   0  0  1  0  0  0  0  0  0  0  0  0
    2.4789    9.4797   11.3839 N   0  0  2  0  0  0  0  0  0  0  0  0
    0.5482    8.5276   10.2494 N   0  0  1  0  0  0  0  0  0  0  0  0
    0.8936   10.9338   10.2495 N   0  0  1  0  0  0  0  0  0  0  0  0
    5.4006    8.7517    7.3101 C   0  0  0  0  0  0  0  0  0  0  0  0
    6.2166    8.9991    6.6226 H   0  0  0  0  0  0  0  0  0  0  0  0
    5.6290    9.2336    8.2661 H   0  0  0  0  0  0  0  0  0  0  0  0
    5.3487    7.2383    7.5042 C   0  0  0  0  0  0  0  0  0  0  0  0
    4.5766    6.9643    8.2258 H   0  0  0  0  0  0  0  0  0  0  0  0
    6.3026    6.8592    7.8764 H   0  0  0  0  0  0  0  0  0  0  0  0
    5.1334    6.7302    6.5626 H   0  0  0  0  0  0  0  0  0  0  0  0
    3.0076    9.3657    3.0569 C   0  0  0  0  0  0  0  0  0  0  0  0
    2.4282    8.4359    3.0712 H   0  0  0  0  0  0  0  0  0  0  0  0
    2.3096   10.1933    3.2200 H   0  0  0  0  0  0  0  0  0  0  0  0
    5.1979   10.8506    3.9227 C   0  0  0  0  0  0  0  0  0  0  0  0
    4.5838   11.7388    4.1104 H   0  0  0  0  0  0  0  0  0  0  0  0
    6.1095   10.9315    4.5256 H   0  0  0  0  0  0  0  0  0  0  0  0
    5.3938    8.0755    3.6970 C   0  0  0  0  0  0  0  0  0  0  0  0
    6.3167    8.0234    4.2839 H   0  0  0  0  0  0  0  0  0  0  0  0
    4.9142    7.0904    3.7241 H   0  0  0  0  0  0  0  0  0  0  0  0
    4.5459    8.4142    1.4736 C   0  0  0  0  0  0  0  0  0  0  0  0
    4.8789    8.5104    0.4350 H   0  0  0  0  0  0  0  0  0  0  0  0
    4.0068    7.4702    1.5889 H   0  0  0  0  0  0  0  0  0  0  0  0
    4.3796   10.7647    1.6658 C   0  0  0  0  0  0  0  0  0  0  0  0
    3.7153   11.5919    1.9286 H   0  0  0  0  0  0  0  0  0  0  0  0
    4.7091   10.8859    0.6288 H   0  0  0  0  0  0  0  0  0  0  0  0
    6.4077    9.6735    2.2143 C   0  0  0  0  0  0  0  0  0  0  0  0
    6.7623    9.7815    1.1841 H   0  0  0  0  0  0  0  0  0  0  0  0
    7.2680    9.6790    2.8894 H   0  0  0  0  0  0  0  0  0  0  0  0
    3.4121    9.3484   10.2805 C   0  0  0  0  0  0  0  0  0  0  0  0
    3.9252    8.3846   10.3665 H   0  0  0  0  0  0  0  0  0  0  0  0
    4.1639   10.1417   10.3601 H   0  0  0  0  0  0  0  0  0  0  0  0
    1.5961   11.0144    8.9846 C   0  0  0  0  0  0  0  0  0  0  0  0
    2.2802   11.8709    9.0087 H   0  0  0  0  0  0  0  0  0  0  0  0
    0.8748   11.1697    8.1758 H   0  0  0  0  0  0  0  0  0  0  0  0
    1.1981    8.2538    8.9835 C   0  0  0  0  0  0  0  0  0  0  0  0
    0.4609    8.3124    8.1758 H   0  0  0  0  0  0  0  0  0  0  0  0
    1.6088    7.2374    9.0051 H   0  0  0  0  0  0  0  0  0  0  0  0
    1.4736    8.4287   11.3647 C   0  0  0  0  0  0  0  0  0  0  0  0
    0.8960    8.4983   12.2923 H   0  0  0  0  0  0  0  0  0  0  0  0
    1.9746    7.4571   11.3296 H   0  0  0  0  0  0  0  0  0  0  0  0
   -0.0689    9.8444   10.2594 C   0  0  0  0  0  0  0  0  0  0  0  0
   -0.6699    9.9303   11.1707 H   0  0  0  0  0  0  0  0  0  0  0  0
   -0.7213    9.9379    9.3881 H   0  0  0  0  0  0  0  0  0  0  0  0
    1.8070   10.7699   11.3665 C   0  0  0  0  0  0  0  0  0  0  0  0
    2.5591   11.5631   11.3340 H   0  0  0  0  0  0  0  0  0  0  0  0
    1.2311   10.8623   12.2933 H   0  0  0  0  0  0  0  0  0  0  0  0
  1  4  1  6  0  0  0
  1 11  1  0  0  0  0
  2  1  1  1  0  0  0
  3  1  1  6  0  0  0
  3 42  1  0  0  0  0
  3 39  1  0  0  0  0
  3 36  1  0  0  0  0
  5 27  1  1  0  0  0
  5 18  1  0  0  0  0
  6 30  1  6  0  0  0
  6 21  1  0  0  0  0
  7 27  1  6  0  0  0
  7 24  1  0  0  0  0
  8 36  1  6  0  0  0
  9 42  1  6  0  0  0
  9 48  1  0  0  0  0
  9 45  1  0  0  0  0
 10 39  1  6  0  0  0
 10 48  1  0  0  0  0
 10 51  1  0  0  0  0
 11 14  1  0  0  0  0
 11 13  1  0  0  0  0
 12 11  1  0  0  0  0
 14 16  1  0  0  0  0
 14 15  1  0  0  0  0
 17 14  1  0  0  0  0
 18 19  1  0  0  0  0
 18 20  1  0  0  0  0
 18  2  1  0  0  0  0
 21 22  1  0  0  0  0
 21  2  1  0  0  0  0
 21 23  1  0  0  0  0
 24 26  1  0  0  0  0
 24 25  1  0  0  0  0
 24  2  1  0  0  0  0
 27 29  1  0  0  0  0
 28 27  1  0  0  0  0
 30  5  1  0  0  0  0
 30 31  1  0  0  0  0
 32 30  1  0  0  0  0
 33  7  1  0  0  0  0
 33  6  1  0  0  0  0
 33 35  1  0  0  0  0
 34 33  1  0  0  0  0
 36 38  1  0  0  0  0
 36 37  1  0  0  0  0
 39 40  1  0  0  0  0
 41 39  1  0  0  0  0
 42 44  1  0  0  0  0
 43 42  1  0  0  0  0
 45  8  1  0  0  0  0
 45 46  1  0  0  0  0
 47 45  1  0  0  0  0
 48 49  1  0  0  0  0
 50 48  1  0  0  0  0
 51  8  1  0  0  0  0
 51 53  1  0  0  0  0
 52 51  1  0  0  0  0
M  END
$$$$
