CSD_code = NOKREM | q = 1 | S = 0 | Stoichiometry = C12H12AuCl2N2(1+) | MND = 4
 OpenBabel04212202073D

 29 31  0  0  0  0  0  0  0  0999 V2000
    4.8062   13.5580    1.1657 C   0  0  0  0  0  0  0  0  0  0  0  0
    4.9812   13.9889    0.1892 H   0  0  0  0  0  0  0  0  0  0  0  0
    4.8582   12.1958    1.3847 C   0  0  0  0  0  0  0  0  0  0  0  0
    5.0786   11.5334    0.5628 H   0  0  0  0  0  0  0  0  0  0  0  0
    4.6265   11.6962    2.6653 C   0  0  0  0  0  0  0  0  0  0  0  0
    4.6681   10.2438    2.9633 C   0  0  0  0  0  0  0  0  0  0  0  0
    3.6846    9.9006    3.2839 H   0  0  0  0  0  0  0  0  0  0  0  0
    5.3595   10.0432    3.7804 H   0  0  0  0  0  0  0  0  0  0  0  0
    4.9706    9.6690    2.0936 H   0  0  0  0  0  0  0  0  0  0  0  0
    4.3460   12.6232    3.6731 C   0  0  0  0  0  0  0  0  0  0  0  0
    4.1620   12.2673    4.6739 H   0  0  0  0  0  0  0  0  0  0  0  0
    4.3059   13.9806    3.3951 C   0  0  0  0  0  0  0  0  0  0  0  0
    4.0218   15.0169    4.3927 C   0  0  0  0  0  0  0  0  0  0  0  0
    3.7470   14.7583    5.7265 C   0  0  0  0  0  0  0  0  0  0  0  0
    3.7287   13.7441    6.0912 H   0  0  0  0  0  0  0  0  0  0  0  0
    3.4887   15.8035    6.6177 C   0  0  0  0  0  0  0  0  0  0  0  0
    3.1899   15.5253    8.0437 C   0  0  0  0  0  0  0  0  0  0  0  0
    3.9851   14.9290    8.4889 H   0  0  0  0  0  0  0  0  0  0  0  0
    2.2704   14.9462    8.1261 H   0  0  0  0  0  0  0  0  0  0  0  0
    3.0755   16.4434    8.6115 H   0  0  0  0  0  0  0  0  0  0  0  0
    3.5211   17.1004    6.1075 C   0  0  0  0  0  0  0  0  0  0  0  0
    3.3320   17.9507    6.7430 H   0  0  0  0  0  0  0  0  0  0  0  0
    3.7982   17.2988    4.7695 C   0  0  0  0  0  0  0  0  0  0  0  0
    3.8321   18.2871    4.3315 H   0  0  0  0  0  0  0  0  0  0  0  0
    4.5401   14.4188    2.1402 N   0  0  0  0  0  0  0  0  0  0  0  0
    4.0394   16.2892    3.9425 N   0  0  0  0  0  0  0  0  0  0  0  0
    4.3200   18.6861    1.8793 Cl  0  0  0  0  0  0  0  0  0  0  0  0
    4.9059   16.4835   -0.2449 Cl  0  0  0  0  0  0  0  0  0  0  0  0
    4.4503   16.4624    1.9355 Au  0  0  0  0  0  0  0  0  0  0  0  0
  1  3  2  0  0  0  0
  1 25  1  0  0  0  0
  2  1  1  0  0  0  0
  3  5  1  0  0  0  0
  4  3  1  0  0  0  0
  5  6  1  0  0  0  0
  5 10  2  0  0  0  0
  6  7  1  0  0  0  0
  6  8  1  0  0  0  0
  9  6  1  0  0  0  0
 10 11  1  0  0  0  0
 12 10  1  0  0  0  0
 12 13  2  0  0  0  0
 13 14  1  0  0  0  0
 14 15  1  0  0  0  0
 14 16  2  0  0  0  0
 16 17  1  0  0  0  0
 17 19  1  0  0  0  0
 17 18  1  0  0  0  0
 17 20  1  0  0  0  0
 21 16  1  0  0  0  0
 21 22  1  0  0  0  0
 23 21  2  0  0  0  0
 24 23  1  0  0  0  0
 25 12  1  0  0  0  0
 26 13  1  0  0  0  0
 26 23  1  0  0  0  0
 27 29  1  0  0  0  0
 28 29  1  0  0  0  0
 29 25  1  0  0  0  0
 29 26  1  0  0  0  0
M  END
$$$$
