CSD_code = NOKRUC | q = 1 | S = 0 | Stoichiometry = C12H12AuBr2N2(1+) | MND = 4
 OpenBabel04212202073D

 29 31  0  0  0  0  0  0  0  0999 V2000
   -3.0660   12.2252    6.5478 Au  0  0  0  0  0  0  0  0  0  0  0  0
   -4.6233   13.9615    7.0466 Br  0  0  0  0  0  0  0  0  0  0  0  0
   -1.7950   10.6117    6.1477 N   0  0  0  0  0  0  0  0  0  0  0  0
   -2.3648    9.4036    6.3348 C   0  0  0  0  0  0  0  0  0  0  0  0
   -0.2917    8.3157    5.7177 C   0  0  0  0  0  0  0  0  0  0  0  0
   -0.5290   10.6993    5.7569 C   0  0  0  0  0  0  0  0  0  0  0  0
   -0.1287   11.6940    5.6213 H   0  0  0  0  0  0  0  0  0  0  0  0
   -1.6260    8.2487    6.1254 C   0  0  0  0  0  0  0  0  0  0  0  0
   -2.0755    7.2811    6.2784 H   0  0  0  0  0  0  0  0  0  0  0  0
    0.2528    9.5846    5.5307 C   0  0  0  0  0  0  0  0  0  0  0  0
    1.2754    9.7109    5.2137 H   0  0  0  0  0  0  0  0  0  0  0  0
    0.4985    7.0792    5.5023 C   0  0  0  0  0  0  0  0  0  0  0  0
    1.4990    7.3059    5.1469 H   0  0  0  0  0  0  0  0  0  0  0  0
    0.0030    6.4325    4.7792 H   0  0  0  0  0  0  0  0  0  0  0  0
    0.5762    6.5185    6.4338 H   0  0  0  0  0  0  0  0  0  0  0  0
   -4.3368   10.6117    6.9484 N   0  0  0  0  0  0  0  0  0  0  0  0
   -3.7671    9.4036    6.7612 C   0  0  0  0  0  0  0  0  0  0  0  0
   -5.8401    8.3157    7.3783 C   0  0  0  0  0  0  0  0  0  0  0  0
   -5.6028   10.6993    7.3391 C   0  0  0  0  0  0  0  0  0  0  0  0
   -6.0032   11.6940    7.4748 H   0  0  0  0  0  0  0  0  0  0  0  0
   -4.5058    8.2487    6.9706 C   0  0  0  0  0  0  0  0  0  0  0  0
   -4.0564    7.2812    6.8175 H   0  0  0  0  0  0  0  0  0  0  0  0
   -6.3846    9.5846    7.5653 C   0  0  0  0  0  0  0  0  0  0  0  0
   -7.4073    9.7109    7.8822 H   0  0  0  0  0  0  0  0  0  0  0  0
   -6.6303    7.0792    7.5937 C   0  0  0  0  0  0  0  0  0  0  0  0
   -7.6309    7.3059    7.9492 H   0  0  0  0  0  0  0  0  0  0  0  0
   -6.1348    6.4326    8.3168 H   0  0  0  0  0  0  0  0  0  0  0  0
   -6.7080    6.5185    6.6622 H   0  0  0  0  0  0  0  0  0  0  0  0
   -1.5085   13.9615    6.0495 Br  0  0  0  0  0  0  0  0  0  0  0  0
  1 16  1  0  0  0  0
  1  2  1  0  0  0  0
  3  4  1  0  0  0  0
  3  1  1  0  0  0  0
  4 17  2  0  0  0  0
  5  8  2  0  0  0  0
  6  3  1  0  0  0  0
  7  6  1  0  0  0  0
  8  9  1  0  0  0  0
  8  4  1  0  0  0  0
 10  5  1  0  0  0  0
 10  6  2  0  0  0  0
 11 10  1  0  0  0  0
 12  5  1  0  0  0  0
 12 15  1  0  0  0  0
 13 12  1  0  0  0  0
 14 12  1  0  0  0  0
 16 19  1  0  0  0  0
 17 16  1  0  0  0  0
 17 21  1  0  0  0  0
 18 23  1  0  0  0  0
 18 25  1  0  0  0  0
 19 20  1  0  0  0  0
 19 23  2  0  0  0  0
 21 18  2  0  0  0  0
 22 21  1  0  0  0  0
 23 24  1  0  0  0  0
 25 26  1  0  0  0  0
 25 27  1  0  0  0  0
 28 25  1  0  0  0  0
 29  1  1  0  0  0  0
M  END
$$$$
