CSD_code = NOKYIX | q = 0 | S = 0 | Stoichiometry = C10H11Cl2N3O2Ru | MND = 6
 OpenBabel04212202073D

 29 30  0  0  0  0  0  0  0  0999 V2000
    6.7993    5.6467    2.9090 Ru  0  0  0  0  0  0  0  0  0  0  0  0
    5.2638    4.1007    3.8955 Cl  0  0  0  0  0  0  0  0  0  0  0  0
    8.4401    7.1580    2.1063 Cl  0  0  0  0  0  0  0  0  0  0  0  0
    7.8279    5.4432    4.5299 O   0  0  0  0  0  0  0  0  0  0  0  0
    7.5005    4.8553    5.2198 H   0  0  0  0  0  0  0  0  0  0  0  0
    5.8387    7.1981    3.8764 N   0  0  0  0  0  0  0  0  0  0  0  0
    5.8554    5.7742    1.5321 N   0  0  0  0  0  2  0  0  0  0  0  0
    7.8990    4.0608    2.1741 N   0  0  0  0  0  0  0  0  0  0  0  0
    8.0666    1.9367    1.1174 C   0  0  0  0  0  0  0  0  0  0  0  0
    7.5697    1.1287    0.6050 H   0  0  0  0  0  0  0  0  0  0  0  0
    9.4287    1.8966    1.3735 C   0  0  0  0  0  0  0  0  0  0  0  0
   10.0242    1.0522    1.0614 H   0  0  0  0  0  0  0  0  0  0  0  0
    6.0040    9.0677    5.3357 C   0  0  0  0  0  0  0  0  0  0  0  0
    6.6374    9.7311    5.9023 H   0  0  0  0  0  0  0  0  0  0  0  0
    3.8697    8.3289    4.5840 C   0  0  0  0  0  0  0  0  0  0  0  0
    2.7943    8.3989    4.5525 H   0  0  0  0  0  0  0  0  0  0  0  0
    9.2050    4.0272    2.4286 C   0  0  0  0  0  3  0  0  0  0  0  0
    9.6150    4.8795    2.9591 H   0  0  0  0  0  0  0  0  0  0  0  0
   10.0042    2.9640    2.0427 C   0  0  0  0  0  0  0  0  0  0  0  0
   11.0584    2.9805    2.2679 H   0  0  0  0  0  0  0  0  0  0  0  0
    4.5130    7.3335    3.8703 C   0  0  0  0  0  3  0  0  0  0  0  0
    3.9449    6.6141    3.2916 H   0  0  0  0  0  0  0  0  0  0  0  0
    4.6272    9.2182    5.3310 C   0  0  0  0  0  0  0  0  0  0  0  0
    4.1539   10.0059    5.8972 H   0  0  0  0  0  0  0  0  0  0  0  0
    6.5723    8.0431    4.5971 C   0  0  0  0  0  0  0  0  0  0  0  0
    7.6452    7.8876    4.5782 H   0  0  0  0  0  0  0  0  0  0  0  0
    7.3372    3.0363    1.5333 C   0  0  0  0  0  0  0  0  0  0  0  0
    6.2680    3.0861    1.3616 H   0  0  0  0  0  0  0  0  0  0  0  0
    5.1154    5.7790    0.6364 O   0  0  0  0  0  1  0  0  0  0  0  0
  1  6  1  0  0  0  0
  1  2  1  0  0  0  0
  1  4  1  0  0  0  0
  3  1  1  0  0  0  0
  4  5  1  0  0  0  0
  6 25  1  0  0  0  0
  7  1  1  0  0  0  0
  8 17  1  0  0  0  0
  8  1  1  0  0  0  0
  9 11  1  0  0  0  0
  9 27  2  0  0  0  0
 10  9  1  0  0  0  0
 11 19  2  0  0  0  0
 12 11  1  0  0  0  0
 13 14  1  0  0  0  0
 15 23  2  0  0  0  0
 16 15  1  0  0  0  0
 17 18  1  0  0  0  0
 19 20  1  0  0  0  0
 19 17  1  0  0  0  0
 21  6  1  0  0  0  0
 21 15  1  0  0  0  0
 22 21  1  0  0  0  0
 23 13  1  0  0  0  0
 23 24  1  0  0  0  0
 25 13  2  0  0  0  0
 26 25  1  0  0  0  0
 27  8  1  0  0  0  0
 28 27  1  0  0  0  0
 29  7  1  0  0  0  0
M  END
$$$$
