CSD_code = NOLGUR | q = 0 | S = 0 | Stoichiometry = C14H16Cl2N4Pd | MND = 4
 OpenBabel04212202073D

 37 40  0  0  1  0  0  0  0  0999 V2000
    7.9921    4.5489   12.0861 Pd  0  0  0  0  0  0  0  0  0  0  0  0
    8.0934    2.6893   13.2727 Cl  0  0  0  0  0  0  0  0  0  0  0  0
    9.4760    5.5125   13.4063 Cl  0  0  0  0  0  0  0  0  0  0  0  0
    6.5852    3.7442   10.7829 N   0  0  0  0  0  0  0  0  0  0  0  0
    5.6043    3.4837    8.8043 N   0  0  0  0  0  0  0  0  0  0  0  0
    7.9270    6.2383   10.8995 N   0  0  1  0  0  0  0  0  0  0  0  0
    7.7563    6.1415    9.5801 N   0  0  0  0  0  0  0  0  0  0  0  0
    6.6533    4.0062    9.4974 C   0  0  1  0  0  3  0  0  0  0  0  0
    5.4504    2.9997   10.9782 C   0  0  0  0  0  0  0  0  0  0  0  0
    4.9026    2.4731   12.1432 C   0  0  0  0  0  0  0  0  0  0  0  0
    5.4024    2.6228   13.0887 H   0  0  0  0  0  0  0  0  0  0  0  0
    3.7351    1.7532   12.0146 C   0  0  0  0  0  0  0  0  0  0  0  0
    3.2778    1.3221   12.8915 H   0  0  0  0  0  0  0  0  0  0  0  0
    3.1227    1.5625   10.7721 C   0  0  0  0  0  0  0  0  0  0  0  0
    2.2101    0.9882   10.7210 H   0  0  0  0  0  0  0  0  0  0  0  0
    3.6507    2.0859    9.6097 C   0  0  0  0  0  0  0  0  0  0  0  0
    3.1680    1.9301    8.6572 H   0  0  0  0  0  0  0  0  0  0  0  0
    4.8262    2.8147    9.7266 C   0  0  0  0  0  0  0  0  0  0  0  0
    5.3961    3.4850    7.3797 C   0  0  0  0  0  0  0  0  0  0  0  0
    5.7255    4.4417    6.9639 H   0  0  0  0  0  0  0  0  0  0  0  0
    4.3223    3.3936    7.1993 H   0  0  0  0  0  0  0  0  0  0  0  0
    6.1363    2.3281    6.7007 C   0  0  0  0  0  0  0  0  0  0  0  0
    7.2067    2.4181    6.8984 H   0  0  0  0  0  0  0  0  0  0  0  0
    5.7968    1.3878    7.1388 H   0  0  0  0  0  0  0  0  0  0  0  0
    5.8857    2.3194    5.1989 C   0  0  0  0  0  0  0  0  0  0  0  0
    4.8250    2.2068    4.9875 H   0  0  0  0  0  0  0  0  0  0  0  0
    6.4165    1.4931    4.7348 H   0  0  0  0  0  0  0  0  0  0  0  0
    6.2298    3.2458    4.7442 H   0  0  0  0  0  0  0  0  0  0  0  0
    7.7642    4.8452    8.9405 C   0  0  0  0  0  0  0  0  0  0  0  0
    8.7235    4.3508    9.1795 H   0  0  0  0  0  0  0  0  0  0  0  0
    7.6818    4.9787    7.8615 H   0  0  0  0  0  0  0  0  0  0  0  0
    7.8889    7.5225   11.2079 C   0  0  0  0  0  3  0  0  0  0  0  0
    8.0230    7.8424   12.2241 H   0  0  0  0  0  0  0  0  0  0  0  0
    7.6844    8.2806   10.0491 C   0  0  0  0  0  0  0  0  0  0  0  0
    7.6111    9.3452    9.9735 H   0  0  0  0  0  0  0  0  0  0  0  0
    7.6025    7.3627    9.0283 C   0  0  0  0  0  0  0  0  0  0  0  0
    7.4589    7.4957    7.9749 H   0  0  0  0  0  0  0  0  0  0  0  0
  1  2  1  0  0  0  0
  1  3  1  0  0  0  0
  4  9  1  0  0  0  0
  4  1  1  0  0  0  0
  5 18  1  0  0  0  0
  6 32  1  1  0  0  0
  6  1  1  0  0  0  0
  7  6  1  0  0  0  0
  8  5  1  1  0  0  0
  8  4  1  0  0  0  0
  9 10  1  0  0  0  0
 10 11  1  0  0  0  0
 12 10  2  0  0  0  0
 12 13  1  0  0  0  0
 14 12  1  0  0  0  0
 15 14  1  0  0  0  0
 16 18  1  0  0  0  0
 16 14  2  0  0  0  0
 17 16  1  0  0  0  0
 18  9  2  0  0  0  0
 19  5  1  0  0  0  0
 20 19  1  0  0  0  0
 21 19  1  0  0  0  0
 22 23  1  0  0  0  0
 22 24  1  0  0  0  0
 22 19  1  0  0  0  0
 25 22  1  0  0  0  0
 26 25  1  0  0  0  0
 27 25  1  0  0  0  0
 28 25  1  0  0  0  0
 29 30  1  0  0  0  0
 29  8  1  0  0  0  0
 29  7  1  0  0  0  0
 31 29  1  0  0  0  0
 32 33  1  0  0  0  0
 34 32  1  0  0  0  0
 35 34  1  0  0  0  0
 36  7  1  0  0  0  0
 36 34  2  0  0  0  0
 37 36  1  0  0  0  0
M  END
$$$$
