CSD_code = NOLHAY | q = 0 | S = 0 | Stoichiometry = C16H20Cl2N4Pd | MND = 4
 OpenBabel04212202073D

 43 46  0  0  1  0  0  0  0  0999 V2000
    1.7459   12.4991    0.7982 Pd  0  0  0  0  0  0  0  0  0  0  0  0
    0.8403   13.1644   -1.1081 Cl  0  0  0  0  0  0  0  0  0  0  0  0
    3.7594   12.5217   -0.1194 Cl  0  0  0  0  0  0  0  0  0  0  0  0
    2.5357   12.0654    2.6646 N   0  0  0  0  0  0  0  0  0  0  0  0
    2.6756   12.3720    4.8613 N   0  0  0  0  0  0  0  0  0  0  0  0
   -0.0804   12.4849    1.7802 N   0  0  0  0  0  0  0  0  0  0  0  0
   -0.1800   13.0818    2.9767 N   0  0  2  0  0  0  0  0  0  0  0  0
    2.0801   12.7425    3.6938 C   0  0  2  0  0  3  0  0  0  0  0  0
    3.4993   11.2162    3.1387 C   0  0  0  0  0  0  0  0  0  0  0  0
    4.2944   10.2907    2.4721 C   0  0  0  0  0  0  0  0  0  0  0  0
    4.2023   10.1740    1.4028 H   0  0  0  0  0  0  0  0  0  0  0  0
    5.1952    9.5785    3.2331 C   0  0  0  0  0  0  0  0  0  0  0  0
    5.8384    8.8547    2.7574 H   0  0  0  0  0  0  0  0  0  0  0  0
    5.3034    9.7718    4.6137 C   0  0  0  0  0  0  0  0  0  0  0  0
    6.0260    9.1920    5.1679 H   0  0  0  0  0  0  0  0  0  0  0  0
    4.5178   10.6840    5.2884 C   0  0  0  0  0  0  0  0  0  0  0  0
    4.6158   10.8255    6.3539 H   0  0  0  0  0  0  0  0  0  0  0  0
    3.6070   11.4083    4.5323 C   0  0  0  0  0  0  0  0  0  0  0  0
    2.4983   12.9534    6.1660 C   0  0  0  0  0  0  0  0  0  0  0  0
    2.7434   12.1902    6.9090 H   0  0  0  0  0  0  0  0  0  0  0  0
    1.4482   13.2289    6.3014 H   0  0  0  0  0  0  0  0  0  0  0  0
    3.3949   14.1795    6.3651 C   0  0  0  0  0  0  0  0  0  0  0  0
    3.1595   14.9259    5.6033 H   0  0  0  0  0  0  0  0  0  0  0  0
    4.4355   13.8812    6.2258 H   0  0  0  0  0  0  0  0  0  0  0  0
    3.2088   14.7780    7.7526 C   0  0  0  0  0  0  0  0  0  0  0  0
    2.1790   15.0958    7.9013 H   0  0  0  0  0  0  0  0  0  0  0  0
    3.8547   15.6422    7.8784 H   0  0  0  0  0  0  0  0  0  0  0  0
    3.4574   14.0499    8.5211 H   0  0  0  0  0  0  0  0  0  0  0  0
    0.9798   13.7489    3.5236 C   0  0  0  0  0  0  0  0  0  0  0  0
    0.7147   14.2392    4.4595 H   0  0  0  0  0  0  0  0  0  0  0  0
    1.3156   14.5058    2.7887 H   0  0  0  0  0  0  0  0  0  0  0  0
   -1.3952   12.8502    3.5295 C   0  0  2  0  0  3  0  0  0  0  0  0
   -2.0916   12.0775    2.6248 C   0  0  0  0  0  0  0  0  0  0  0  0
   -3.0926   11.7128    2.7286 H   0  0  0  0  0  0  0  0  0  0  0  0
   -1.2239   11.8645    1.5402 C   0  0  0  0  0  0  0  0  0  0  0  0
   -1.7996   13.3777    4.8580 C   0  0  0  0  0  0  0  0  0  0  0  0
   -1.1804   12.9586    5.6523 H   0  0  0  0  0  0  0  0  0  0  0  0
   -2.8327   13.1054    5.0522 H   0  0  0  0  0  0  0  0  0  0  0  0
   -1.7183   14.4642    4.8894 H   0  0  0  0  0  0  0  0  0  0  0  0
   -1.4268   11.0765    0.3001 C   0  0  0  0  0  0  0  0  0  0  0  0
   -0.4495   10.8250   -0.1257 H   0  0  0  0  0  0  0  0  0  0  0  0
   -1.9682   11.6684   -0.4364 H   0  0  0  0  0  0  0  0  0  0  0  0
   -1.9913   10.1703    0.5074 H   0  0  0  0  0  0  0  0  0  0  0  0
  1  6  1  0  0  0  0
  1  4  1  0  0  0  0
  2  1  1  0  0  0  0
  3  1  1  0  0  0  0
  4  9  1  0  0  0  0
  5 19  1  0  0  0  0
  7  6  1  1  0  0  0
  7 29  1  0  0  0  0
  7 32  1  0  0  0  0
  8  4  1  1  0  0  0
  8  5  1  0  0  0  0
  9 18  1  0  0  0  0
 10  9  2  0  0  0  0
 10 12  1  0  0  0  0
 11 10  1  0  0  0  0
 12 14  2  0  0  0  0
 13 12  1  0  0  0  0
 14 15  1  0  0  0  0
 14 16  1  0  0  0  0
 16 17  1  0  0  0  0
 18  5  1  0  0  0  0
 18 16  2  0  0  0  0
 19 21  1  0  0  0  0
 19 22  1  0  0  0  0
 19 20  1  0  0  0  0
 22 25  1  0  0  0  0
 23 22  1  0  0  0  0
 24 22  1  0  0  0  0
 25 27  1  0  0  0  0
 25 26  1  0  0  0  0
 25 28  1  0  0  0  0
 29  8  1  0  0  0  0
 29 30  1  0  0  0  0
 31 29  1  0  0  0  0
 32 36  1  6  0  0  0
 33 34  1  0  0  0  0
 33 32  1  0  0  0  0
 35  6  1  0  0  0  0
 35 33  2  0  0  0  0
 36 39  1  0  0  0  0
 36 38  1  0  0  0  0
 36 37  1  0  0  0  0
 40 43  1  0  0  0  0
 40 35  1  0  0  0  0
 41 40  1  0  0  0  0
 42 40  1  0  0  0  0
M  END
$$$$
