CSD_code = NOLPIN | q = 0 | S = 0 | Stoichiometry = C18H39Cl3P3Rh | MND = 6
 OpenBabel04212202073D

 64 66  0  0  0  0  0  0  0  0999 V2000
   -1.9250    8.7685   10.6708 Rh  0  0  0  0  0  0  0  0  0  0  0  0
   -2.9775    8.5200   12.7332 Cl  0  0  0  0  0  0  0  0  0  0  0  0
   -3.6680   10.2261   10.0522 Cl  0  0  0  0  0  0  0  0  0  0  0  0
   -2.9208    6.7558    9.9526 Cl  0  0  0  0  0  0  0  0  0  0  0  0
   -0.9480   10.7193   11.3192 P   0  0  2  0  0  4  0  0  0  0  0  0
   -1.1039    8.9697    8.5562 P   0  0  1  0  0  4  0  0  0  0  0  0
   -0.2945    7.3128   11.3093 P   0  0  1  0  0  4  0  0  0  0  0  0
   -0.7913   11.8983    9.9093 C   0  0  0  0  0  0  0  0  0  0  0  0
    0.1566   11.5460    8.7550 C   0  0  0  0  0  0  0  0  0  0  0  0
    0.3830   10.0598    8.4881 C   0  0  0  0  0  0  0  0  0  0  0  0
   -0.3998    7.4218    7.8603 C   0  0  0  0  0  0  0  0  0  0  0  0
    0.7627    6.8388    8.6589 C   0  0  0  0  0  0  0  0  0  0  0  0
    0.3401    6.2017    9.9791 C   0  0  0  0  0  0  0  0  0  0  0  0
    1.2813    8.1033   11.8877 C   0  0  0  0  0  0  0  0  0  0  0  0
    1.0850    9.3530   12.7504 C   0  0  0  0  0  0  0  0  0  0  0  0
    0.7934   10.6237   11.9498 C   0  0  0  0  0  0  0  0  0  0  0  0
   -1.8678   11.7189   12.5992 C   0  0  0  0  0  0  0  0  0  0  0  0
   -1.5514   11.2310   14.0123 C   0  0  0  0  0  0  0  0  0  0  0  0
   -1.6558   13.2283   12.5084 C   0  0  0  0  0  0  0  0  0  0  0  0
   -2.2064    9.5951    7.1999 C   0  0  0  0  0  0  0  0  0  0  0  0
   -3.3481    8.6056    6.9796 C   0  0  0  0  0  0  0  0  0  0  0  0
   -1.4936    9.9057    5.8865 C   0  0  0  0  0  0  0  0  0  0  0  0
   -0.7228    6.0737   12.6407 C   0  0  0  0  0  0  0  0  0  0  0  0
   -0.5999    6.6716   14.0414 C   0  0  0  0  0  0  0  0  0  0  0  0
    0.0715    4.7701   12.5769 C   0  0  0  0  0  0  0  0  0  0  0  0
   -1.8191   11.9854    9.5409 H   0  0  0  0  0  0  0  0  0  0  0  0
   -0.4866   12.8664   10.3107 H   0  0  0  0  0  0  0  0  0  0  0  0
    1.1355   11.9986    8.9442 H   0  0  0  0  0  0  0  0  0  0  0  0
   -0.2378   12.0188    7.8524 H   0  0  0  0  0  0  0  0  0  0  0  0
    1.0517    9.6601    9.2552 H   0  0  0  0  0  0  0  0  0  0  0  0
    0.8723    9.9307    7.5179 H   0  0  0  0  0  0  0  0  0  0  0  0
   -1.2180    6.6973    7.8253 H   0  0  0  0  0  0  0  0  0  0  0  0
   -0.0685    7.6371    6.8400 H   0  0  0  0  0  0  0  0  0  0  0  0
    1.5298    7.5980    8.8278 H   0  0  0  0  0  0  0  0  0  0  0  0
    1.2254    6.0530    8.0523 H   0  0  0  0  0  0  0  0  0  0  0  0
    1.1982    5.6700   10.4000 H   0  0  0  0  0  0  0  0  0  0  0  0
   -0.4659    5.4884    9.7864 H   0  0  0  0  0  0  0  0  0  0  0  0
    1.8216    7.3432   12.4598 H   0  0  0  0  0  0  0  0  0  0  0  0
    1.8903    8.3427   11.0112 H   0  0  0  0  0  0  0  0  0  0  0  0
    0.2644    9.1794   13.4469 H   0  0  0  0  0  0  0  0  0  0  0  0
    1.9952    9.5151   13.3368 H   0  0  0  0  0  0  0  0  0  0  0  0
    1.4835   10.7057   11.1077 H   0  0  0  0  0  0  0  0  0  0  0  0
    0.9498   11.5017   12.5832 H   0  0  0  0  0  0  0  0  0  0  0  0
   -2.9209   11.4959   12.3891 H   0  0  0  0  0  0  0  0  0  0  0  0
   -1.7309   10.1617   14.0919 H   0  0  0  0  0  0  0  0  0  0  0  0
   -2.2139   11.7289   14.7180 H   0  0  0  0  0  0  0  0  0  0  0  0
   -0.5254   11.4567   14.2974 H   0  0  0  0  0  0  0  0  0  0  0  0
   -2.0852   13.6429   11.6004 H   0  0  0  0  0  0  0  0  0  0  0  0
   -0.5995   13.4914   12.5638 H   0  0  0  0  0  0  0  0  0  0  0  0
   -2.1575   13.6984   13.3526 H   0  0  0  0  0  0  0  0  0  0  0  0
   -2.6318   10.5214    7.6070 H   0  0  0  0  0  0  0  0  0  0  0  0
   -3.8127    8.3445    7.9281 H   0  0  0  0  0  0  0  0  0  0  0  0
   -2.9912    7.6930    6.5062 H   0  0  0  0  0  0  0  0  0  0  0  0
   -4.1090    9.0510    6.3419 H   0  0  0  0  0  0  0  0  0  0  0  0
   -0.7116   10.6513    6.0068 H   0  0  0  0  0  0  0  0  0  0  0  0
   -2.2231   10.3007    5.1814 H   0  0  0  0  0  0  0  0  0  0  0  0
   -1.0617    9.0107    5.4439 H   0  0  0  0  0  0  0  0  0  0  0  0
   -1.7812    5.8545   12.4526 H   0  0  0  0  0  0  0  0  0  0  0  0
   -1.1939    7.5779   14.1224 H   0  0  0  0  0  0  0  0  0  0  0  0
    0.4371    6.8812   14.2972 H   0  0  0  0  0  0  0  0  0  0  0  0
   -0.9878    5.9589   14.7671 H   0  0  0  0  0  0  0  0  0  0  0  0
   -0.1389    4.2021   11.6756 H   0  0  0  0  0  0  0  0  0  0  0  0
   -0.2145    4.1529   13.4270 H   0  0  0  0  0  0  0  0  0  0  0  0
    1.1439    4.9496   12.6471 H   0  0  0  0  0  0  0  0  0  0  0  0
  1  7  1  0  0  0  0
  1  5  1  0  0  0  0
  1  2  1  0  0  0  0
  3  1  1  0  0  0  0
  4  1  1  0  0  0  0
  5 16  1  0  0  0  0
  5 17  1  1  0  0  0
  6 20  1  6  0  0  0
  6  1  1  0  0  0  0
  7 14  1  0  0  0  0
  7 23  1  1  0  0  0
  8 27  1  0  0  0  0
  8  5  1  0  0  0  0
  9 28  1  0  0  0  0
  9  8  1  0  0  0  0
 10  6  1  0  0  0  0
 10  9  1  0  0  0  0
 10 30  1  0  0  0  0
 11  6  1  0  0  0  0
 11 12  1  0  0  0  0
 12 34  1  0  0  0  0
 12 13  1  0  0  0  0
 13 36  1  0  0  0  0
 13  7  1  0  0  0  0
 14 38  1  0  0  0  0
 14 15  1  0  0  0  0
 15 41  1  0  0  0  0
 15 40  1  0  0  0  0
 16 43  1  0  0  0  0
 16 15  1  0  0  0  0
 17 18  1  0  0  0  0
 18 45  1  0  0  0  0
 18 47  1  0  0  0  0
 18 46  1  0  0  0  0
 19 49  1  0  0  0  0
 19 17  1  0  0  0  0
 19 50  1  0  0  0  0
 20 51  1  0  0  0  0
 21 20  1  0  0  0  0
 21 52  1  0  0  0  0
 22 55  1  0  0  0  0
 22 20  1  0  0  0  0
 23 24  1  0  0  0  0
 24 59  1  0  0  0  0
 24 60  1  0  0  0  0
 24 61  1  0  0  0  0
 25 23  1  0  0  0  0
 25 64  1  0  0  0  0
 25 63  1  0  0  0  0
 26  8  1  0  0  0  0
 29  9  1  0  0  0  0
 31 10  1  0  0  0  0
 32 11  1  0  0  0  0
 33 11  1  0  0  0  0
 35 12  1  0  0  0  0
 37 13  1  0  0  0  0
 39 14  1  0  0  0  0
 42 16  1  0  0  0  0
 44 17  1  0  0  0  0
 48 19  1  0  0  0  0
 53 21  1  0  0  0  0
 54 21  1  0  0  0  0
 56 22  1  0  0  0  0
 57 22  1  0  0  0  0
 58 23  1  0  0  0  0
 62 25  1  0  0  0  0
M  END
$$$$
