CSD_code = NOLQAG | q = 0 | S = 0 | Stoichiometry = C18H18Cl2MoN4O2 | MND = 6
 OpenBabel04212202073D

 45 45  0  0  0  0  0  0  0  0999 V2000
    3.1664    1.3445    9.6672 Mo  0  0  0  0  0  0  0  0  0  0  0  0
    4.0720    3.3791   10.2499 Cl  0  0  0  0  0  0  0  0  0  0  0  0
    1.5196    0.1050    8.5415 Cl  0  0  0  0  0  0  0  0  0  0  0  0
    2.9903    0.6077   11.2495 N   0  0  0  0  0  2  0  0  0  0  0  0
    2.9989   -0.0607   12.3919 C   0  0  0  0  0  0  0  0  0  0  0  0
    3.2013    0.5999   13.6337 C   0  0  0  0  0  0  0  0  0  0  0  0
    3.2425   -0.1249   14.8227 C   0  0  0  0  0  0  0  0  0  0  0  0
    3.0677   -1.4933   14.8104 C   0  0  0  0  0  0  0  0  0  0  0  0
    2.8443   -2.1514   13.6033 C   0  0  0  0  0  0  0  0  0  0  0  0
    2.8101   -1.4572   12.4169 C   0  0  0  0  0  0  0  0  0  0  0  0
    3.3178    2.0025   13.6314 C   0  0  0  0  0  0  0  0  0  0  0  0
    3.3487    3.1512   13.6349 N   0  0  0  0  0  0  0  0  0  0  0  0
    4.5958    0.5864    8.9922 N   0  0  0  0  0  2  0  0  0  0  0  0
    5.7081   -0.0132    8.5918 C   0  0  0  0  0  0  0  0  0  0  0  0
    6.7684    0.7354    8.0122 C   0  0  0  0  0  0  0  0  0  0  0  0
    7.9505    0.1089    7.6266 C   0  0  0  0  0  0  0  0  0  0  0  0
    8.0959   -1.2545    7.7853 C   0  0  0  0  0  0  0  0  0  0  0  0
    7.0562   -2.0050    8.3285 C   0  0  0  0  0  0  0  0  0  0  0  0
    5.8847   -1.4039    8.7271 C   0  0  0  0  0  0  0  0  0  0  0  0
    6.5627    2.1130    7.8038 C   0  0  0  0  0  0  0  0  0  0  0  0
    6.3540    3.2200    7.5768 N   0  0  0  0  0  0  0  0  0  0  0  0
    1.1822    2.6936    9.9706 O   0  0  0  0  0  0  0  0  0  0  0  0
    2.7580    2.6499    7.6758 O   0  0  0  0  0  0  0  0  0  0  0  0
    0.8855    3.1188   11.2911 C   0  0  0  0  0  0  0  0  0  0  0  0
    1.1504    3.7643    9.0430 C   0  0  0  0  0  0  0  0  0  0  0  0
    1.4581    3.2085    7.6583 C   0  0  0  0  0  0  0  0  0  0  0  0
    3.1337    2.1217    6.4177 C   0  0  0  0  0  0  0  0  0  0  0  0
    3.4076    0.4035   15.7506 H   0  0  0  0  0  0  0  0  0  0  0  0
    3.0996   -2.0510   15.7334 H   0  0  0  0  0  0  0  0  0  0  0  0
    2.7010   -3.2221   13.5981 H   0  0  0  0  0  0  0  0  0  0  0  0
    2.6377   -1.9526   11.4705 H   0  0  0  0  0  0  0  0  0  0  0  0
    8.7443    0.7042    7.1989 H   0  0  0  0  0  0  0  0  0  0  0  0
    9.0128   -1.7377    7.4855 H   0  0  0  0  0  0  0  0  0  0  0  0
    7.1740   -3.0724    8.4450 H   0  0  0  0  0  0  0  0  0  0  0  0
    5.0688   -1.9697    9.1556 H   0  0  0  0  0  0  0  0  0  0  0  0
    0.8291    2.2217   11.9073 H   0  0  0  0  0  0  0  0  0  0  0  0
   -0.0814    3.6342   11.3065 H   0  0  0  0  0  0  0  0  0  0  0  0
    1.6686    3.7790   11.6803 H   0  0  0  0  0  0  0  0  0  0  0  0
    1.9016    4.5211    9.3176 H   0  0  0  0  0  0  0  0  0  0  0  0
    0.1480    4.2184    9.0434 H   0  0  0  0  0  0  0  0  0  0  0  0
    0.7194    2.4332    7.3926 H   0  0  0  0  0  0  0  0  0  0  0  0
    1.4176    4.0217    6.9184 H   0  0  0  0  0  0  0  0  0  0  0  0
    4.1758    1.8163    6.5018 H   0  0  0  0  0  0  0  0  0  0  0  0
    3.0469    2.8957    5.6472 H   0  0  0  0  0  0  0  0  0  0  0  0
    2.5082    1.2604    6.1514 H   0  0  0  0  0  0  0  0  0  0  0  0
  1  2  1  0  0  0  0
  1  4  1  0  0  0  0
  3  1  1  0  0  0  0
  4  5  1  0  0  0  0
  5 10  2  0  0  0  0
  5  6  1  0  0  0  0
  6  7  2  0  0  0  0
  7 28  1  0  0  0  0
  8  7  1  0  0  0  0
  8 29  1  0  0  0  0
  9  8  2  0  0  0  0
 10  9  1  0  0  0  0
 11  6  1  0  0  0  0
 11 12  3  0  0  0  0
 13  1  1  0  0  0  0
 14 19  1  0  0  0  0
 14 13  1  0  0  0  0
 15 14  2  0  0  0  0
 16 17  2  0  0  0  0
 16 15  1  0  0  0  0
 17 18  1  0  0  0  0
 18 34  1  0  0  0  0
 18 19  2  0  0  0  0
 19 35  1  0  0  0  0
 20 15  1  0  0  0  0
 21 20  3  0  0  0  0
 22 24  1  0  0  0  0
 24 37  1  0  0  0  0
 24 38  1  0  0  0  0
 24 36  1  0  0  0  0
 25 40  1  0  0  0  0
 25 39  1  0  0  0  0
 25 22  1  0  0  0  0
 26 23  1  0  0  0  0
 26 25  1  0  0  0  0
 27 43  1  0  0  0  0
 27 23  1  0  0  0  0
 30  9  1  0  0  0  0
 31 10  1  0  0  0  0
 32 16  1  0  0  0  0
 33 17  1  0  0  0  0
 41 26  1  0  0  0  0
 42 26  1  0  0  0  0
 44 27  1  0  0  0  0
 45 27  1  0  0  0  0
M  END
$$$$
