CSD_code = NOMBEW | q = 0 | S = 0 | Stoichiometry = C8H11Cl2N2O2Re | MND = 6
 OpenBabel04212202073D

 26 28  0  0  1  0  0  0  0  0999 V2000
    1.8159    1.6086    4.1881 Re  0  0  0  0  0  0  0  0  0  0  0  0
    0.5925   -0.0396    5.1578 Cl  0  0  0  0  0  0  0  0  0  0  0  0
    3.4009    1.4262    5.8269 Cl  0  0  0  0  0  0  0  0  0  0  0  0
    1.0463    2.9405    4.7927 O   0  0  0  0  0  1  0  0  0  0  0  0
    2.7264    0.5175    3.0680 O   0  0  0  0  0  0  0  0  0  0  0  0
    3.0534    3.0341    2.5414 N   0  0  1  0  0  4  0  0  0  0  0  0
    0.4868    1.8028    2.2898 N   0  0  0  0  0  0  0  0  0  0  0  0
    4.0118    2.1344    1.9184 C   0  0  0  0  0  0  0  0  0  0  0  0
    3.4234    0.6942    1.9123 C   0  0  0  0  0  0  0  0  0  0  0  0
    0.9354    2.5985    1.3216 C   0  0  1  0  0  3  0  0  0  0  0  0
    0.3748    2.5598    0.0498 C   0  0  0  0  0  0  0  0  0  0  0  0
   -0.6700    1.6855   -0.2031 C   0  0  0  0  0  0  0  0  0  0  0  0
   -1.1245    0.8700    0.8216 C   0  0  0  0  0  0  0  0  0  0  0  0
   -0.5058    0.9596    2.0579 C   0  0  0  0  0  0  0  0  0  0  0  0
    2.0268    3.5848    1.6632 C   0  0  0  0  0  0  0  0  0  0  0  0
    3.5179    3.7740    3.0540 H   0  0  0  0  0  0  0  0  0  0  0  0
    4.2642    2.4375    0.8944 H   0  0  0  0  0  0  0  0  0  0  0  0
    4.9147    2.1276    2.5315 H   0  0  0  0  0  0  0  0  0  0  0  0
    2.7537    0.5645    1.0421 H   0  0  0  0  0  0  0  0  0  0  0  0
    4.2380   -0.0397    1.8234 H   0  0  0  0  0  0  0  0  0  0  0  0
    0.7514    3.2079   -0.7266 H   0  0  0  0  0  0  0  0  0  0  0  0
   -1.1176    1.6420   -1.1844 H   0  0  0  0  0  0  0  0  0  0  0  0
   -1.9360    0.1777    0.6689 H   0  0  0  0  0  0  0  0  0  0  0  0
   -0.8033    0.3469    2.8990 H   0  0  0  0  0  0  0  0  0  0  0  0
    1.5465    4.4075    2.2036 H   0  0  0  0  0  0  0  0  0  0  0  0
    2.4653    3.9788    0.7342 H   0  0  0  0  0  0  0  0  0  0  0  0
  1  4  1  0  0  0  0
  1  2  1  0  0  0  0
  1  3  1  0  0  0  0
  5  1  1  0  0  0  0
  6 16  1  1  0  0  0
  6  1  1  0  0  0  0
  7  1  1  0  0  0  0
  8 18  1  0  0  0  0
  8  6  1  0  0  0  0
  9  8  1  0  0  0  0
  9  5  1  0  0  0  0
 10 11  1  1  0  0  0
 10 15  1  0  0  0  0
 10  7  1  0  0  0  0
 12 11  2  0  0  0  0
 12 13  1  0  0  0  0
 13 14  2  0  0  0  0
 14  7  1  0  0  0  0
 14 24  1  0  0  0  0
 15 25  1  0  0  0  0
 15  6  1  0  0  0  0
 17  8  1  0  0  0  0
 19  9  1  0  0  0  0
 20  9  1  0  0  0  0
 21 11  1  0  0  0  0
 22 12  1  0  0  0  0
 23 13  1  0  0  0  0
 26 15  1  0  0  0  0
M  END
$$$$
