CSD_code = NOMGOO | q = 0 | S = 0 | Stoichiometry = C13H21Cl3NNbO2 | MND = 6
 OpenBabel04212202073D

 41 40  0  0  0  0  0  0  0  0999 V2000
    7.4570    3.2690    7.2896 Nb  0  0  0  0  0  0  0  0  0  0  0  0
    9.6298    3.3368    6.4552 Cl  0  0  0  0  0  0  0  0  0  0  0  0
    7.7386    1.5907    8.8233 Cl  0  0  0  0  0  0  0  0  0  0  0  0
    5.2110    2.8734    6.7765 Cl  0  0  0  0  0  0  0  0  0  0  0  0
    7.5058    1.4697    5.3556 O   0  0  0  0  0  0  0  0  0  0  0  0
    7.1490    4.2803    4.8219 O   0  0  0  0  0  0  0  0  0  0  0  0
    7.3536    4.7758    8.2203 N   0  0  0  0  0  2  0  0  0  0  0  0
    7.2560    5.8864    8.9588 C   0  0  0  0  0  0  0  0  0  0  0  0
    6.1907    6.0308    9.8777 C   0  0  0  0  0  0  0  0  0  0  0  0
    6.1081    7.1840   10.6332 C   0  0  0  0  0  0  0  0  0  0  0  0
    5.2963    7.2941   11.3385 H   0  0  0  0  0  0  0  0  0  0  0  0
    7.0440    8.2059   10.5103 C   0  0  0  0  0  0  0  0  0  0  0  0
    8.0893    8.0525    9.6060 C   0  0  0  0  0  0  0  0  0  0  0  0
    8.8238    8.8398    9.5092 H   0  0  0  0  0  0  0  0  0  0  0  0
    8.2164    6.9150    8.8321 C   0  0  0  0  0  0  0  0  0  0  0  0
    8.3298    0.3434    5.5729 C   0  0  0  0  0  0  0  0  0  0  0  0
    9.3899    0.6248    5.5698 H   0  0  0  0  0  0  0  0  0  0  0  0
    8.1529   -0.4148    4.8009 H   0  0  0  0  0  0  0  0  0  0  0  0
    8.0626   -0.0614    6.5495 H   0  0  0  0  0  0  0  0  0  0  0  0
    7.7250    2.0682    4.0946 C   0  0  0  0  0  0  0  0  0  0  0  0
    7.5343    1.3324    3.2989 H   0  0  0  0  0  0  0  0  0  0  0  0
    8.7641    2.4236    4.0210 H   0  0  0  0  0  0  0  0  0  0  0  0
    6.7742    3.2485    3.9258 C   0  0  0  0  0  0  0  0  0  0  0  0
    6.8366    3.6226    2.8932 H   0  0  0  0  0  0  0  0  0  0  0  0
    5.7442    2.9241    4.1372 H   0  0  0  0  0  0  0  0  0  0  0  0
    6.2882    5.4023    4.7496 C   0  0  0  0  0  0  0  0  0  0  0  0
    5.2614    5.1244    5.0151 H   0  0  0  0  0  0  0  0  0  0  0  0
    6.3086    5.8266    3.7387 H   0  0  0  0  0  0  0  0  0  0  0  0
    6.6645    6.1277    5.4715 H   0  0  0  0  0  0  0  0  0  0  0  0
    5.2007    4.9163    9.9968 C   0  0  0  0  0  0  0  0  0  0  0  0
    5.7224    3.9783   10.2088 H   0  0  0  0  0  0  0  0  0  0  0  0
    4.6719    4.7850    9.0503 H   0  0  0  0  0  0  0  0  0  0  0  0
    4.4797    5.1143   10.7851 H   0  0  0  0  0  0  0  0  0  0  0  0
    6.9465    9.4356   11.3601 C   0  0  0  0  0  0  0  0  0  0  0  0
    7.3781   10.2945   10.8518 H   0  0  0  0  0  0  0  0  0  0  0  0
    7.4934    9.2866   12.2919 H   0  0  0  0  0  0  0  0  0  0  0  0
    5.9112    9.6545   11.6104 H   0  0  0  0  0  0  0  0  0  0  0  0
    9.3458    6.7197    7.8711 C   0  0  0  0  0  0  0  0  0  0  0  0
    9.9674    7.6085    7.8098 H   0  0  0  0  0  0  0  0  0  0  0  0
    8.9633    6.4731    6.8772 H   0  0  0  0  0  0  0  0  0  0  0  0
    9.9595    5.8762    8.1950 H   0  0  0  0  0  0  0  0  0  0  0  0
  1  7  1  0  0  0  0
  1  3  1  0  0  0  0
  2  1  1  0  0  0  0
  4  1  1  0  0  0  0
  5 16  1  0  0  0  0
  7  8  1  0  0  0  0
  8  9  1  0  0  0  0
  9 30  1  0  0  0  0
  9 10  2  0  0  0  0
 10 11  1  0  0  0  0
 12 10  1  0  0  0  0
 12 34  1  0  0  0  0
 13 12  2  0  0  0  0
 14 13  1  0  0  0  0
 15  8  2  0  0  0  0
 15 13  1  0  0  0  0
 16 19  1  0  0  0  0
 17 16  1  0  0  0  0
 18 16  1  0  0  0  0
 20  5  1  0  0  0  0
 21 20  1  0  0  0  0
 22 20  1  0  0  0  0
 23 20  1  0  0  0  0
 23 25  1  0  0  0  0
 23  6  1  0  0  0  0
 24 23  1  0  0  0  0
 26  6  1  0  0  0  0
 26 27  1  0  0  0  0
 26 29  1  0  0  0  0
 28 26  1  0  0  0  0
 30 31  1  0  0  0  0
 30 33  1  0  0  0  0
 32 30  1  0  0  0  0
 34 37  1  0  0  0  0
 34 36  1  0  0  0  0
 35 34  1  0  0  0  0
 38 41  1  0  0  0  0
 38 15  1  0  0  0  0
 39 38  1  0  0  0  0
 40 38  1  0  0  0  0
M  END
$$$$
