CSD_code = NOMGUU | q = 0 | S = 0 | Stoichiometry = C8H19Cl3NO2Ta | MND = 6
 OpenBabel04212202073D

 34 32  0  0  0  0  0  0  0  0999 V2000
    3.4450    6.8023    3.6165 Ta  0  0  0  0  0  0  0  0  0  0  0  0
    2.5706    4.9249    2.5870 Cl  0  0  0  0  0  0  0  0  0  0  0  0
    5.4919    6.7354    2.6255 Cl  0  0  0  0  0  0  0  0  0  0  0  0
    4.1417    7.6843    5.6449 Cl  0  0  0  0  0  0  0  0  0  0  0  0
    4.2964    4.6894    5.0626 O   0  0  0  0  0  0  0  0  0  0  0  0
    1.6787    5.8386    5.4140 O   0  0  0  0  0  0  0  0  0  0  0  0
    2.5017    8.1485    2.9284 N   0  0  0  0  0  2  0  0  0  0  0  0
    1.9119    9.2510    2.2866 C   0  0  0  0  0  0  0  0  0  0  0  0
    0.6141    9.6402    3.0182 C   0  0  0  0  0  0  0  0  0  0  0  0
   -0.0886    8.8119    2.9804 H   0  0  0  0  0  0  0  0  0  0  0  0
    0.1641   10.5105    2.5487 H   0  0  0  0  0  0  0  0  0  0  0  0
    0.8379    9.8677    4.0571 H   0  0  0  0  0  0  0  0  0  0  0  0
    2.9078   10.4248    2.3274 C   0  0  0  0  0  0  0  0  0  0  0  0
    3.1341   10.6693    3.3619 H   0  0  0  0  0  0  0  0  0  0  0  0
    2.4931   11.2968    1.8296 H   0  0  0  0  0  0  0  0  0  0  0  0
    3.8298   10.1282    1.8337 H   0  0  0  0  0  0  0  0  0  0  0  0
    1.6008    8.8722    0.8274 C   0  0  0  0  0  0  0  0  0  0  0  0
    2.5212    8.5779    0.3299 H   0  0  0  0  0  0  0  0  0  0  0  0
    1.1558    9.7119    0.3012 H   0  0  0  0  0  0  0  0  0  0  0  0
    0.9156    8.0291    0.8096 H   0  0  0  0  0  0  0  0  0  0  0  0
    5.1836    3.7841    4.4364 C   0  0  0  0  0  0  0  0  0  0  0  0
    4.6726    3.2180    3.6501 H   0  0  0  0  0  0  0  0  0  0  0  0
    5.6063    3.0904    5.1709 H   0  0  0  0  0  0  0  0  0  0  0  0
    5.9804    4.3802    3.9948 H   0  0  0  0  0  0  0  0  0  0  0  0
    3.2229    4.0335    5.7090 C   0  0  0  0  0  0  0  0  0  0  0  0
    3.6157    3.3302    6.4570 H   0  0  0  0  0  0  0  0  0  0  0  0
    2.6224    3.4839    4.9702 H   0  0  0  0  0  0  0  0  0  0  0  0
    2.3485    5.0715    6.4012 C   0  0  0  0  0  0  0  0  0  0  0  0
    1.6080    4.5640    7.0347 H   0  0  0  0  0  0  0  0  0  0  0  0
    2.9758    5.7278    7.0198 H   0  0  0  0  0  0  0  0  0  0  0  0
    0.8503    6.8436    5.9703 C   0  0  0  0  0  0  0  0  0  0  0  0
    1.4441    7.5588    6.5484 H   0  0  0  0  0  0  0  0  0  0  0  0
    0.0839    6.3926    6.6097 H   0  0  0  0  0  0  0  0  0  0  0  0
    0.3893    7.3526    5.1266 H   0  0  0  0  0  0  0  0  0  0  0  0
  1  4  1  0  0  0  0
  2  1  1  0  0  0  0
  3  1  1  0  0  0  0
  5 25  1  0  0  0  0
  6 31  1  0  0  0  0
  6 28  1  0  0  0  0
  7  1  1  0  0  0  0
  8 13  1  0  0  0  0
  8  7  1  0  0  0  0
  8  9  1  0  0  0  0
  9 12  1  0  0  0  0
 10  9  1  0  0  0  0
 11  9  1  0  0  0  0
 13 14  1  0  0  0  0
 15 13  1  0  0  0  0
 16 13  1  0  0  0  0
 17  8  1  0  0  0  0
 18 17  1  0  0  0  0
 19 17  1  0  0  0  0
 20 17  1  0  0  0  0
 21  5  1  0  0  0  0
 21 23  1  0  0  0  0
 22 21  1  0  0  0  0
 24 21  1  0  0  0  0
 25 28  1  0  0  0  0
 25 26  1  0  0  0  0
 27 25  1  0  0  0  0
 28 30  1  0  0  0  0
 28 29  1  0  0  0  0
 31 32  1  0  0  0  0
 31 33  1  0  0  0  0
 34 31  1  0  0  0  0
M  END
$$$$
