CSD_code = NOMQAH | q = 0 | S = 0 | Stoichiometry = C7H5ClNO2Rh | MND = 4
 OpenBabel04212202073D

 17 17  0  0  0  0  0  0  0  0999 V2000
   12.2355    7.1383   11.2379 Rh  0  0  0  0  0  0  0  0  0  0  0  0
   11.0526    7.9049   12.9341 Cl  0  0  0  0  0  0  0  0  0  0  0  0
   13.7393    6.0519    8.8862 O   0  0  0  0  0  1  0  0  0  0  0  0
   14.5570    8.3162   12.6914 O   0  0  0  0  0  1  0  0  0  0  0  0
   10.4544    6.4723   10.5427 N   0  0  0  0  0  0  0  0  0  0  0  0
   13.1624    6.4676    9.7863 C   0  0  0  0  0  2  0  0  0  0  0  0
   13.7164    7.8439   12.0849 C   0  0  0  0  0  2  0  0  0  0  0  0
    9.6429    7.3053    9.8905 C   0  0  0  0  0  3  0  0  0  0  0  0
    8.3078    7.0204    9.6638 C   0  0  0  0  0  0  0  0  0  0  0  0
    7.7880    5.8243   10.1328 C   0  0  0  0  0  0  0  0  0  0  0  0
    8.6332    4.9578   10.8080 C   0  0  0  0  0  0  0  0  0  0  0  0
    9.9562    5.3197   10.9914 C   0  0  0  0  0  0  0  0  0  0  0  0
   10.0807    8.2365    9.5430 H   0  0  0  0  0  0  0  0  0  0  0  0
    7.6881    7.7277    9.1359 H   0  0  0  0  0  0  0  0  0  0  0  0
    6.7491    5.5752    9.9792 H   0  0  0  0  0  0  0  0  0  0  0  0
    8.2732    4.0176   11.1945 H   0  0  0  0  0  0  0  0  0  0  0  0
   10.6437    4.6675   11.5220 H   0  0  0  0  0  0  0  0  0  0  0  0
  1  7  1  0  0  0  0
  1  2  1  0  0  0  0
  3  6  1  0  0  0  0
  5 12  1  0  0  0  0
  5  1  1  0  0  0  0
  6  1  1  0  0  0  0
  7  4  1  0  0  0  0
  8  5  1  0  0  0  0
  9  8  1  0  0  0  0
  9 10  2  0  0  0  0
 10 11  1  0  0  0  0
 11 12  2  0  0  0  0
 11 16  1  0  0  0  0
 12 17  1  0  0  0  0
 13  8  1  0  0  0  0
 14  9  1  0  0  0  0
 15 10  1  0  0  0  0
M  END
$$$$
