CSD_code = NOMSOX | q = 0 | S = 0 | Stoichiometry = C11H17Cl2NTi | MND = 8
 OpenBabel04212202073D

 32 33  0  0  1  0  0  0  0  0999 V2000
    1.1121    2.0075    1.9270 Ti  0  0  0  0  0  0  0  0  0  0  0  0
    2.2637    0.2748    1.2591 Cl  0  0  0  0  0  0  0  0  0  0  0  0
    0.0528    1.0855    3.5979 Cl  0  0  0  0  0  0  0  0  0  0  0  0
    2.3723    2.9383    2.8134 N   0  0  0  0  0  0  0  0  0  0  0  0
    1.0085    3.3381    0.0653 C   0  0  1  0  0  0  0  0  0  0  0  0
    0.3794    2.1207   -0.2853 C   0  0  0  0  0  0  0  0  0  0  0  0
   -0.7545    1.9619    0.5310 C   0  0  0  0  0  0  0  0  0  0  0  0
   -0.8504    3.0924    1.3743 C   0  0  0  0  0  0  0  0  0  0  0  0
    0.2322    3.9547    1.0821 C   0  0  0  0  0  0  0  0  0  0  0  0
    0.4856    5.2927    1.7087 C   0  0  0  0  0  0  0  0  0  0  0  0
    1.2753    5.1438    3.0158 C   0  0  0  0  0  0  0  0  0  0  0  0
    2.5880    4.3705    2.7945 C   0  0  0  0  0  0  0  0  0  0  0  0
    3.1826    2.1926    3.7702 C   0  0  0  0  0  0  0  0  0  0  0  0
    2.8907    2.6074    5.2199 C   0  0  0  0  0  0  0  0  0  0  0  0
    4.6760    2.2900    3.4284 C   0  0  0  0  0  0  0  0  0  0  0  0
    1.8374    3.7940   -0.4649 H   0  0  0  0  0  0  0  0  0  0  0  0
    0.6763    1.4680   -1.0966 H   0  0  0  0  0  0  0  0  0  0  0  0
   -1.4838    1.1642    0.4587 H   0  0  0  0  0  0  0  0  0  0  0  0
   -1.6713    3.3143    2.0467 H   0  0  0  0  0  0  0  0  0  0  0  0
   -0.4663    5.7888    1.9176 H   0  0  0  0  0  0  0  0  0  0  0  0
    1.0536    5.9214    1.0161 H   0  0  0  0  0  0  0  0  0  0  0  0
    1.4960    6.1344    3.4201 H   0  0  0  0  0  0  0  0  0  0  0  0
    0.6709    4.5902    3.7456 H   0  0  0  0  0  0  0  0  0  0  0  0
    3.0296    4.6754    1.8306 H   0  0  0  0  0  0  0  0  0  0  0  0
    3.2941    4.6542    3.5810 H   0  0  0  0  0  0  0  0  0  0  0  0
    2.8934    1.1331    3.6773 H   0  0  0  0  0  0  0  0  0  0  0  0
    3.4040    1.9331    5.9004 H   0  0  0  0  0  0  0  0  0  0  0  0
    1.8180    2.5384    5.4018 H   0  0  0  0  0  0  0  0  0  0  0  0
    3.2234    3.6219    5.4282 H   0  0  0  0  0  0  0  0  0  0  0  0
    5.2446    1.6143    4.0618 H   0  0  0  0  0  0  0  0  0  0  0  0
    5.0551    3.2994    3.5729 H   0  0  0  0  0  0  0  0  0  0  0  0
    4.8212    2.0016    2.3871 H   0  0  0  0  0  0  0  0  0  0  0  0
  1  4  1  0  0  0  0
  1  3  1  0  0  0  0
  2  1  1  0  0  0  0
  4 13  1  0  0  0  0
  5 16  1  6  0  0  0
  5  9  1  0  0  0  0
  5  1  1  0  0  0  0
  6  5  1  0  0  0  0
  6  7  2  0  0  0  0
  7  8  1  0  0  0  0
  8 19  1  0  0  0  0
  9  8  2  0  0  0  0
  9 10  1  0  0  0  0
 10 20  1  0  0  0  0
 10 11  1  0  0  0  0
 11 22  1  0  0  0  0
 11 23  1  0  0  0  0
 12  4  1  0  0  0  0
 12 11  1  0  0  0  0
 12 25  1  0  0  0  0
 13 14  1  0  0  0  0
 14 28  1  0  0  0  0
 14 29  1  0  0  0  0
 14 27  1  0  0  0  0
 15 31  1  0  0  0  0
 15 13  1  0  0  0  0
 15 30  1  0  0  0  0
 17  6  1  0  0  0  0
 18  7  1  0  0  0  0
 21 10  1  0  0  0  0
 24 12  1  0  0  0  0
 26 13  1  0  0  0  0
 32 15  1  0  0  0  0
M  END
$$$$
