CSD_code = NOMTUG | q = 0 | S = 0 | Stoichiometry = C26H34Cl2N4Pd | MND = 4
 OpenBabel04212202073D

 67 69  0  0  0  0  0  0  0  0999 V2000
   -5.0190    2.5828   22.2337 C   0  0  0  0  0  0  0  0  0  0  0  0
   -5.2896    0.8076   23.5097 C   0  0  0  0  0  0  0  0  0  0  0  0
   -6.6983    4.0004   23.5055 C   0  0  0  0  0  0  0  0  0  0  0  0
   -8.1374    3.7834   23.0346 C   0  0  0  0  0  0  0  0  0  0  0  0
   -8.7398    4.6589   23.2591 H   0  0  0  0  0  0  0  0  0  0  0  0
   -8.5665    2.9191   23.5355 H   0  0  0  0  0  0  0  0  0  0  0  0
   -8.1509    3.6085   21.9604 H   0  0  0  0  0  0  0  0  0  0  0  0
   -6.6418    4.1597   25.0280 C   0  0  0  0  0  0  0  0  0  0  0  0
   -5.6158    4.3182   25.3539 H   0  0  0  0  0  0  0  0  0  0  0  0
   -7.0293    3.2684   25.5129 H   0  0  0  0  0  0  0  0  0  0  0  0
   -7.2407    5.0138   25.3306 H   0  0  0  0  0  0  0  0  0  0  0  0
   -6.0847    5.2363   22.8410 C   0  0  0  0  0  0  0  0  0  0  0  0
   -6.2873    5.2479   21.7595 H   0  0  0  0  0  0  0  0  0  0  0  0
   -5.0042    5.2845   23.0250 H   0  0  0  0  0  0  0  0  0  0  0  0
   -6.5425    6.1246   23.2714 H   0  0  0  0  0  0  0  0  0  0  0  0
   -5.1840   -0.5311   24.0619 C   0  0  0  0  0  0  0  0  0  0  0  0
   -5.6536   -0.7538   25.3569 C   0  0  0  0  0  0  0  0  0  0  0  0
   -6.0733    0.0744   25.9053 H   0  0  0  0  0  0  0  0  0  0  0  0
   -5.5734   -2.0123   25.9189 C   0  0  0  0  0  0  0  0  0  0  0  0
   -5.9339   -2.1763   26.9234 H   0  0  0  0  0  0  0  0  0  0  0  0
   -5.0287   -3.0632   25.1975 C   0  0  0  0  0  0  0  0  0  0  0  0
   -4.9617   -4.0462   25.6392 H   0  0  0  0  0  0  0  0  0  0  0  0
   -4.5741   -2.8508   23.9067 C   0  0  0  0  0  0  0  0  0  0  0  0
   -4.1565   -3.6685   23.3384 H   0  0  0  0  0  0  0  0  0  0  0  0
   -4.6499   -1.5936   23.3358 C   0  0  0  0  0  0  0  0  0  0  0  0
   -4.2979   -1.4429   22.3276 H   0  0  0  0  0  0  0  0  0  0  0  0
   -3.3550    0.7965   21.9239 C   0  0  0  0  0  0  0  0  0  0  0  0
   -3.2847    0.3827   20.5907 C   0  0  0  0  0  0  0  0  0  0  0  0
   -2.0797   -0.1298   20.1248 C   0  0  0  0  0  0  0  0  0  0  0  0
   -2.0029   -0.4548   19.0989 H   0  0  0  0  0  0  0  0  0  0  0  0
   -0.9797   -0.2231   20.9525 C   0  0  0  0  0  0  0  0  0  0  0  0
   -0.0499   -0.6210   20.5737 H   0  0  0  0  0  0  0  0  0  0  0  0
   -1.0644    0.2055   22.2621 C   0  0  0  0  0  0  0  0  0  0  0  0
   -0.1932    0.1466   22.8950 H   0  0  0  0  0  0  0  0  0  0  0  0
   -2.2446    0.7247   22.7763 C   0  0  0  0  0  0  0  0  0  0  0  0
   -4.4627    0.4711   19.6475 C   0  0  0  0  0  0  0  0  0  0  0  0
   -5.3159    0.9326   20.1595 H   0  0  0  0  0  0  0  0  0  0  0  0
   -4.9037   -0.9168   19.1769 C   0  0  0  0  0  0  0  0  0  0  0  0
   -4.0964   -1.4331   18.6625 H   0  0  0  0  0  0  0  0  0  0  0  0
   -5.7433   -0.8200   18.4930 H   0  0  0  0  0  0  0  0  0  0  0  0
   -5.2208   -1.5279   20.0200 H   0  0  0  0  0  0  0  0  0  0  0  0
   -4.0918    1.3626   18.4536 C   0  0  0  0  0  0  0  0  0  0  0  0
   -3.5922    2.2784   18.8128 H   0  0  0  0  0  0  0  0  0  0  0  0
   -4.9915    1.6367   17.9050 H   0  0  0  0  0  0  0  0  0  0  0  0
   -3.4132    0.8486   17.7759 H   0  0  0  0  0  0  0  0  0  0  0  0
   -2.2625    1.2153   24.2056 C   0  0  0  0  0  0  0  0  0  0  0  0
   -3.2599    1.5827   24.4624 H   0  0  0  0  0  0  0  0  0  0  0  0
   -1.9198    0.0869   25.1824 C   0  0  0  0  0  0  0  0  0  0  0  0
   -2.5937   -0.7574   25.0537 H   0  0  0  0  0  0  0  0  0  0  0  0
   -2.0095    0.4459   26.2052 H   0  0  0  0  0  0  0  0  0  0  0  0
   -0.9011   -0.2607   25.0323 H   0  0  0  0  0  0  0  0  0  0  0  0
   -1.2911    2.3878   24.3668 C   0  0  0  0  0  0  0  0  0  0  0  0
   -0.2643    2.0673   24.2131 H   0  0  0  0  0  0  0  0  0  0  0  0
   -1.3754    2.8056   25.3677 H   0  0  0  0  0  0  0  0  0  0  0  0
   -1.5200    3.1637   23.6400 H   0  0  0  0  0  0  0  0  0  0  0  0
   -3.7492    5.7075   18.5569 C   0  0  0  0  0  2  0  0  0  0  0  0
   -3.2022    6.7498   17.7448 C   0  0  0  0  0  0  0  0  0  0  0  0
   -2.2812    7.1140   18.2004 H   0  0  0  0  0  0  0  0  0  0  0  0
   -3.9178    7.5682   17.6674 H   0  0  0  0  0  0  0  0  0  0  0  0
   -2.9858    6.3626   16.7492 H   0  0  0  0  0  0  0  0  0  0  0  0
   -4.5974    3.6757   20.6921 Pd  0  0  0  0  0  0  0  0  0  0  0  0
   -6.7039    3.2314   19.8600 Cl  0  0  0  0  0  0  0  0  0  0  0  0
   -2.5181    4.1478   21.5283 Cl  0  0  0  0  0  0  0  0  0  0  0  0
   -5.9358    2.7936   23.1782 N   0  0  0  0  0  0  0  0  0  0  0  0
   -6.1218    1.7075   23.9472 N   0  0  0  0  0  0  0  0  0  0  0  0
   -4.5727    1.3194   22.4528 N   0  0  0  0  0  0  0  0  0  0  0  0
   -4.1910    4.8593   19.1907 N   0  0  0  0  0  2  0  0  0  0  0  0
  1 66  1  0  0  0  0
  1 64  1  0  0  0  0
  2 65  2  0  0  0  0
  2 16  1  0  0  0  0
  3  8  1  0  0  0  0
  4  5  1  0  0  0  0
  4  3  1  0  0  0  0
  4  6  1  0  0  0  0
  7  4  1  0  0  0  0
  8 11  1  0  0  0  0
  8  9  1  0  0  0  0
  8 10  1  0  0  0  0
 12 14  1  0  0  0  0
 12 15  1  0  0  0  0
 12  3  1  0  0  0  0
 13 12  1  0  0  0  0
 16 17  1  0  0  0  0
 17 18  1  0  0  0  0
 17 19  2  0  0  0  0
 19 20  1  0  0  0  0
 21 22  1  0  0  0  0
 21 19  1  0  0  0  0
 23 21  2  0  0  0  0
 24 23  1  0  0  0  0
 25 23  1  0  0  0  0
 25 16  2  0  0  0  0
 26 25  1  0  0  0  0
 27 66  1  0  0  0  0
 27 35  1  0  0  0  0
 28 27  2  0  0  0  0
 29 28  1  0  0  0  0
 29 31  2  0  0  0  0
 30 29  1  0  0  0  0
 31 33  1  0  0  0  0
 32 31  1  0  0  0  0
 33 35  2  0  0  0  0
 33 34  1  0  0  0  0
 35 46  1  0  0  0  0
 36 37  1  0  0  0  0
 36 28  1  0  0  0  0
 38 36  1  0  0  0  0
 38 41  1  0  0  0  0
 39 38  1  0  0  0  0
 40 38  1  0  0  0  0
 42 43  1  0  0  0  0
 42 36  1  0  0  0  0
 44 42  1  0  0  0  0
 45 42  1  0  0  0  0
 46 52  1  0  0  0  0
 46 47  1  0  0  0  0
 46 48  1  0  0  0  0
 48 50  1  0  0  0  0
 49 48  1  0  0  0  0
 51 48  1  0  0  0  0
 52 54  1  0  0  0  0
 53 52  1  0  0  0  0
 55 52  1  0  0  0  0
 56 67  1  0  0  0  0
 57 58  1  0  0  0  0
 57 56  1  0  0  0  0
 59 57  1  0  0  0  0
 60 57  1  0  0  0  0
 61 63  1  0  0  0  0
 61  1  2  0  0  0  0
 62 61  1  0  0  0  0
 64  3  1  0  0  0  0
 64 65  1  0  0  0  0
 66  2  1  0  0  0  0
 67 61  1  0  0  0  0
M  END
$$$$
