CSD_code = NOMZEW | q = 0 | S = 0 | Stoichiometry = C19H24ClN2Rh | MND = 6
 OpenBabel04212202073D

 47 48  0  0  1  0  0  0  0  0999 V2000
    7.1933    7.4850    7.4109 Rh  0  0  0  0  0  0  0  0  0  0  0  0
    7.1651    9.7078    6.8483 Cl  0  0  0  0  0 15  0  0  0  0  0  0
    5.2977    7.4691    6.8041 C   0  0  2  0  0  3  0  0  0  0  0  0
    4.8179    7.0082    5.6209 N   0  0  0  0  0  0  0  0  0  0  0  0
    4.2354    7.9732    7.4553 N   0  0  0  0  0  0  0  0  0  0  0  0
    6.9167    5.8109    8.6627 C   0  0  1  0  0  0  0  0  0  0  0  0
    9.3419    7.4438    7.3372 C   0  0  0  0  0  3  0  0  0  0  0  0
    5.5946    6.3803    4.6306 C   0  0  0  0  0  0  0  0  0  0  0  0
    5.0831    5.2947    3.9283 C   0  0  0  0  0  0  0  0  0  0  0  0
    7.4415    5.3754    7.4421 C   0  0  0  0  0  3  0  0  0  0  0  0
    7.6546    6.1937    3.4161 C   0  0  0  0  0  0  0  0  0  0  0  0
    7.1494    5.1073    2.7210 C   0  0  0  0  0  0  0  0  0  0  0  0
    8.9736    7.7193    8.6366 C   0  0  0  0  0  3  0  0  0  0  0  0
    6.8836    6.8369    4.3673 C   0  0  0  0  0  0  0  0  0  0  0  0
    4.2967    8.6413    8.7328 C   0  0  0  0  0  0  0  0  0  0  0  0
    8.8796    4.9357    7.2637 C   0  0  0  0  0  0  0  0  0  0  0  0
    3.4616    7.2226    5.5494 C   0  0  0  0  0  0  0  0  0  0  0  0
    5.8625    4.6640    2.9753 C   0  0  0  0  0  0  0  0  0  0  0  0
    4.1210   10.1471    8.5718 C   0  0  0  0  0  0  0  0  0  0  0  0
    9.8034    6.0935    6.8380 C   0  0  0  0  0  0  0  0  0  0  0  0
    9.0440    6.7017    9.7537 C   0  0  0  0  0  0  0  0  0  0  0  0
    7.7136    5.9493    9.9410 C   0  0  0  0  0  0  0  0  0  0  0  0
    3.1019    7.8373    6.6975 C   0  0  0  0  0  0  0  0  0  0  0  0
    5.4656    3.8177    2.4346 H   0  0  0  0  0  0  0  0  0  0  0  0
    2.8802    6.9538    4.6921 H   0  0  0  0  0  0  0  0  0  0  0  0
    4.0878    4.9330    4.1411 H   0  0  0  0  0  0  0  0  0  0  0  0
    5.8584    5.6154    8.8460 H   0  0  0  0  0  0  0  0  0  0  0  0
    8.9186    4.1587    6.4973 H   0  0  0  0  0  0  0  0  0  0  0  0
    7.2621    7.7098    4.8916 H   0  0  0  0  0  0  0  0  0  0  0  0
    3.5246    8.2256    9.3890 H   0  0  0  0  0  0  0  0  0  0  0  0
    6.7466    4.9023    6.7494 H   0  0  0  0  0  0  0  0  0  0  0  0
    9.8404    6.1296    5.7467 H   0  0  0  0  0  0  0  0  0  0  0  0
    9.6515    8.2782    6.7068 H   0  0  0  0  0  0  0  0  0  0  0  0
    8.9794    8.7604    8.9585 H   0  0  0  0  0  0  0  0  0  0  0  0
    7.7546    4.6080    1.9794 H   0  0  0  0  0  0  0  0  0  0  0  0
    9.8518    5.9991    9.5440 H   0  0  0  0  0  0  0  0  0  0  0  0
    9.2331    4.4883    8.1944 H   0  0  0  0  0  0  0  0  0  0  0  0
    7.0983    6.4912   10.6645 H   0  0  0  0  0  0  0  0  0  0  0  0
    3.1617   10.3826    8.1164 H   0  0  0  0  0  0  0  0  0  0  0  0
    4.1771   10.6314    9.5423 H   0  0  0  0  0  0  0  0  0  0  0  0
    4.9183   10.5325    7.9403 H   0  0  0  0  0  0  0  0  0  0  0  0
    5.2899    8.4340    9.1537 H   0  0  0  0  0  0  0  0  0  0  0  0
   10.8240    5.9084    7.1915 H   0  0  0  0  0  0  0  0  0  0  0  0
    8.6519    6.5508    3.2078 H   0  0  0  0  0  0  0  0  0  0  0  0
    9.2944    7.2121   10.6861 H   0  0  0  0  0  0  0  0  0  0  0  0
    2.1431    8.1762    7.0323 H   0  0  0  0  0  0  0  0  0  0  0  0
    7.9004    4.9537   10.3599 H   0  0  0  0  0  0  0  0  0  0  0  0
  1  6  1  0  0  0  0
  3  1  1  6  0  0  0
  3  5  1  0  0  0  0
  4  3  1  0  0  0  0
  5 15  1  0  0  0  0
  6 27  1  1  0  0  0
  6 22  1  0  0  0  0
  7 13  1  0  0  0  0
  8  4  1  0  0  0  0
  9 26  1  0  0  0  0
  9  8  2  0  0  0  0
 10  6  1  0  0  0  0
 11 14  2  0  0  0  0
 12 18  2  0  0  0  0
 12 11  1  0  0  0  0
 13 34  1  0  0  0  0
 13 21  1  0  0  0  0
 14  8  1  0  0  0  0
 14 29  1  0  0  0  0
 15 42  1  0  0  0  0
 15 30  1  0  0  0  0
 16 10  1  0  0  0  0
 16 37  1  0  0  0  0
 17  4  1  0  0  0  0
 17 23  2  0  0  0  0
 18  9  1  0  0  0  0
 19 15  1  0  0  0  0
 19 40  1  0  0  0  0
 20 43  1  0  0  0  0
 20 16  1  0  0  0  0
 20  7  1  0  0  0  0
 21 22  1  0  0  0  0
 21 45  1  0  0  0  0
 22 47  1  0  0  0  0
 22 38  1  0  0  0  0
 23 46  1  0  0  0  0
 23  5  1  0  0  0  0
 24 18  1  0  0  0  0
 25 17  1  0  0  0  0
 28 16  1  0  0  0  0
 31 10  1  0  0  0  0
 32 20  1  0  0  0  0
 33  7  1  0  0  0  0
 35 12  1  0  0  0  0
 36 21  1  0  0  0  0
 39 19  1  0  0  0  0
 41 19  1  0  0  0  0
 44 11  1  0  0  0  0
M  END
$$$$
