CSD_code = NONCOK | q = 0 | S = 0 | Stoichiometry = C14H18Br2N2Pd | MND = 4
 OpenBabel04212202073D

 37 38  0  0  1  0  0  0  0  0999 V2000
    3.5487    3.9255    0.0003 Pd  0  0  0  0  0  0  0  0  0  0  0  0
    5.6091    5.0359   -0.7054 Br  0  0  0  0  0  0  0  0  0  0  0  0
    3.6944    2.6753   -1.5433 N   0  0  0  0  0  0  0  0  0  0  0  0
    3.1200    2.9894   -2.7072 C   0  0  2  0  0  3  0  0  0  0  0  0
    3.2000    2.1358   -3.7986 C   0  0  0  0  0  0  0  0  0  0  0  0
    2.7269    2.4111   -4.7275 H   0  0  0  0  0  0  0  0  0  0  0  0
    3.8877    0.9415   -3.6760 C   0  0  0  0  0  0  0  0  0  0  0  0
    3.9631    0.2624   -4.5111 H   0  0  0  0  0  0  0  0  0  0  0  0
    4.4772    0.6347   -2.4624 C   0  0  0  0  0  0  0  0  0  0  0  0
    5.0223   -0.2856   -2.3269 H   0  0  0  0  0  0  0  0  0  0  0  0
    4.3624    1.5273   -1.4059 C   0  0  0  0  0  0  0  0  0  0  0  0
    2.3933    4.2948   -2.7762 C   0  0  0  0  0  0  0  0  0  0  0  0
    1.5802    4.3014   -2.0398 H   0  0  0  0  0  0  0  0  0  0  0  0
    1.9699    4.4523   -3.7643 H   0  0  0  0  0  0  0  0  0  0  0  0
    3.0904    5.1133   -2.5578 H   0  0  0  0  0  0  0  0  0  0  0  0
    4.9760    1.2536   -0.0696 C   0  0  0  0  0  0  0  0  0  0  0  0
    5.7078    2.0368    0.1646 H   0  0  0  0  0  0  0  0  0  0  0  0
    5.4814    0.2915   -0.0639 H   0  0  0  0  0  0  0  0  0  0  0  0
    4.1925    1.2443    0.6987 H   0  0  0  0  0  0  0  0  0  0  0  0
    1.4850    2.8155    0.7066 Br  0  0  0  0  0  0  0  0  0  0  0  0
    3.4037    5.1771    1.5429 N   0  0  0  0  0  0  0  0  0  0  0  0
    3.9775    4.8629    2.7070 C   0  0  1  0  0  3  0  0  0  0  0  0
    3.8972    5.7163    3.7985 C   0  0  0  0  0  0  0  0  0  0  0  0
    4.3701    5.4409    4.7275 H   0  0  0  0  0  0  0  0  0  0  0  0
    3.2094    6.9105    3.6759 C   0  0  0  0  0  0  0  0  0  0  0  0
    3.1338    7.5896    4.5111 H   0  0  0  0  0  0  0  0  0  0  0  0
    2.6200    7.2174    2.4623 C   0  0  0  0  0  0  0  0  0  0  0  0
    2.0747    8.1376    2.3269 H   0  0  0  0  0  0  0  0  0  0  0  0
    2.7351    6.3249    1.4056 C   0  0  0  0  0  0  0  0  0  0  0  0
    4.7039    3.5572    2.7761 C   0  0  0  0  0  0  0  0  0  0  0  0
    5.5172    3.5506    2.0398 H   0  0  0  0  0  0  0  0  0  0  0  0
    5.1271    3.3997    3.7644 H   0  0  0  0  0  0  0  0  0  0  0  0
    4.0067    2.7389    2.5575 H   0  0  0  0  0  0  0  0  0  0  0  0
    2.1212    6.5985    0.0695 C   0  0  0  0  0  0  0  0  0  0  0  0
    1.3895    5.8151   -0.1646 H   0  0  0  0  0  0  0  0  0  0  0  0
    1.6156    7.5604    0.0639 H   0  0  0  0  0  0  0  0  0  0  0  0
    2.9047    6.6079   -0.6989 H   0  0  0  0  0  0  0  0  0  0  0  0
  1 20  1  0  0  0  0
  1 21  1  0  0  0  0
  2  1  1  0  0  0  0
  3 11  1  0  0  0  0
  3  1  1  0  0  0  0
  4 12  1  6  0  0  0
  4  3  1  0  0  0  0
  5  7  2  0  0  0  0
  5  4  1  0  0  0  0
  6  5  1  0  0  0  0
  7  9  1  0  0  0  0
  8  7  1  0  0  0  0
  9 10  1  0  0  0  0
  9 11  2  0  0  0  0
 11 16  1  0  0  0  0
 12 15  1  0  0  0  0
 12 13  1  0  0  0  0
 14 12  1  0  0  0  0
 16 18  1  0  0  0  0
 16 17  1  0  0  0  0
 16 19  1  0  0  0  0
 21 22  1  0  0  0  0
 22 30  1  1  0  0  0
 22 23  1  0  0  0  0
 23 24  1  0  0  0  0
 25 23  2  0  0  0  0
 25 26  1  0  0  0  0
 27 25  1  0  0  0  0
 28 27  1  0  0  0  0
 29 21  1  0  0  0  0
 29 27  2  0  0  0  0
 30 32  1  0  0  0  0
 31 30  1  0  0  0  0
 33 30  1  0  0  0  0
 34 29  1  0  0  0  0
 35 34  1  0  0  0  0
 36 34  1  0  0  0  0
 37 34  1  0  0  0  0
M  END
$$$$
