CSD_code = NONCIE | q = 0 | S = 0 | Stoichiometry = C14H18Br2N2Pd | MND = 4
 OpenBabel04212202073D

 37 38  0  0  0  0  0  0  0  0999 V2000
    7.8301    0.0002   -0.0001 Pd  0  0  0  0  0  0  0  0  0  0  0  0
    8.1429   -2.1317    1.1353 Br  0  0  0  0  0  0  0  0  0  0  0  0
    6.5425    0.5325    1.3596 N   0  0  0  0  0  0  0  0  0  0  0  0
    5.3342   -0.0183    1.3863 C   0  0  0  0  0  3  0  0  0  0  0  0
    5.1193   -0.7612    0.6183 H   0  0  0  0  0  0  0  0  0  0  0  0
    4.3844    0.3167    2.3432 C   0  0  0  0  0  0  0  0  0  0  0  0
    4.7398    1.2650    3.2942 C   0  0  0  0  0  0  0  0  0  0  0  0
    4.0313    1.5547    4.0569 H   0  0  0  0  0  0  0  0  0  0  0  0
    6.0037    1.8464    3.2705 C   0  0  0  0  0  0  0  0  0  0  0  0
    6.8765    1.4412    2.2711 C   0  0  0  0  0  0  0  0  0  0  0  0
    7.8772    1.8657    2.1910 H   0  0  0  0  0  0  0  0  0  0  0  0
    3.0455   -0.3456    2.3569 C   0  0  0  0  0  0  0  0  0  0  0  0
    2.2901    0.3195    2.7682 H   0  0  0  0  0  0  0  0  0  0  0  0
    3.0868   -1.2394    2.9799 H   0  0  0  0  0  0  0  0  0  0  0  0
    2.7502   -0.6467    1.3550 H   0  0  0  0  0  0  0  0  0  0  0  0
    6.4056    2.8657    4.2860 C   0  0  0  0  0  0  0  0  0  0  0  0
    5.6683    3.6651    4.3299 H   0  0  0  0  0  0  0  0  0  0  0  0
    7.3749    3.2940    4.0467 H   0  0  0  0  0  0  0  0  0  0  0  0
    6.4604    2.4071    5.2728 H   0  0  0  0  0  0  0  0  0  0  0  0
    7.5156    2.1330   -1.1381 Br  0  0  0  0  0  0  0  0  0  0  0  0
    9.1184   -0.5331   -1.3588 N   0  0  0  0  0  0  0  0  0  0  0  0
   10.3265    0.0179   -1.3858 C   0  0  0  0  0  3  0  0  0  0  0  0
   10.5415    0.7609   -0.6179 H   0  0  0  0  0  0  0  0  0  0  0  0
   11.2761   -0.3168   -2.3430 C   0  0  0  0  0  0  0  0  0  0  0  0
   10.9206   -1.2650   -3.2941 C   0  0  0  0  0  0  0  0  0  0  0  0
   11.6290   -1.5546   -4.0569 H   0  0  0  0  0  0  0  0  0  0  0  0
    9.6568   -1.8465   -3.2703 C   0  0  0  0  0  0  0  0  0  0  0  0
    8.7842   -1.4416   -2.2706 C   0  0  0  0  0  0  0  0  0  0  0  0
    7.7834   -1.8660   -2.1905 H   0  0  0  0  0  0  0  0  0  0  0  0
   12.6150    0.3456   -2.3569 C   0  0  0  0  0  0  0  0  0  0  0  0
   13.3703   -0.3193   -2.7683 H   0  0  0  0  0  0  0  0  0  0  0  0
   12.5735    1.2395   -2.9799 H   0  0  0  0  0  0  0  0  0  0  0  0
   12.9104    0.6466   -1.3550 H   0  0  0  0  0  0  0  0  0  0  0  0
    9.2548   -2.8656   -4.2860 C   0  0  0  0  0  0  0  0  0  0  0  0
    9.9921   -3.6650   -4.3301 H   0  0  0  0  0  0  0  0  0  0  0  0
    8.2855   -3.2940   -4.0467 H   0  0  0  0  0  0  0  0  0  0  0  0
    9.1999   -2.4069   -5.2727 H   0  0  0  0  0  0  0  0  0  0  0  0
  1  2  1  0  0  0  0
  1  3  1  0  0  0  0
  3  4  1  0  0  0  0
  3 10  1  0  0  0  0
  4  6  1  0  0  0  0
  5  4  1  0  0  0  0
  6 12  1  0  0  0  0
  6  7  2  0  0  0  0
  7  8  1  0  0  0  0
  9  7  1  0  0  0  0
  9 16  1  0  0  0  0
 10  9  2  0  0  0  0
 11 10  1  0  0  0  0
 12 13  1  0  0  0  0
 12 14  1  0  0  0  0
 15 12  1  0  0  0  0
 16 17  1  0  0  0  0
 16 19  1  0  0  0  0
 18 16  1  0  0  0  0
 20  1  1  0  0  0  0
 21  1  1  0  0  0  0
 22 21  1  0  0  0  0
 22 23  1  0  0  0  0
 24 22  1  0  0  0  0
 25 27  1  0  0  0  0
 25 24  2  0  0  0  0
 26 25  1  0  0  0  0
 27 28  2  0  0  0  0
 28 29  1  0  0  0  0
 28 21  1  0  0  0  0
 30 24  1  0  0  0  0
 30 33  1  0  0  0  0
 31 30  1  0  0  0  0
 32 30  1  0  0  0  0
 34 36  1  0  0  0  0
 34 27  1  0  0  0  0
 35 34  1  0  0  0  0
 37 34  1  0  0  0  0
M  END
$$$$
