CSD_code = NONHUU | q = 0 | S = 0 | Stoichiometry = C24H36ClP3Pd | MND = 4
 OpenBabel04212202073D

 65 68  0  0  0  0  0  0  0  0999 V2000
    6.5030   10.4501    3.5664 Pd  0  0  2  0  0  0  0  0  0  0  0  0
    8.0225   11.4160    5.0193 Cl  0  0  0  0  0  0  0  0  0  0  0  0
    5.0099    9.1793    2.4343 P   0  0  1  0  0  0  0  0  0  0  0  0
    8.0838    9.3504    2.4373 P   0  0  0  0  0  4  0  0  0  0  0  0
    4.7017   11.6058    4.2509 P   0  0  0  0  0  4  0  0  0  0  0  0
    3.7330   10.3845    1.9743 C   0  0  0  0  0  0  0  0  0  0  0  0
    2.8884   10.2813    0.8704 C   0  0  0  0  0  0  0  0  0  0  0  0
    3.0917    9.5537    0.1015 H   0  0  0  0  0  0  0  0  0  0  0  0
    1.7965   11.1178    0.7313 C   0  0  0  0  0  0  0  0  0  0  0  0
    1.1658   11.0313   -0.1419 H   0  0  0  0  0  0  0  0  0  0  0  0
    1.4971   12.0502    1.7104 C   0  0  0  0  0  0  0  0  0  0  0  0
    0.6302   12.6865    1.6120 H   0  0  0  0  0  0  0  0  0  0  0  0
    2.3302   12.1776    2.8097 C   0  0  0  0  0  0  0  0  0  0  0  0
    2.1033   12.9217    3.5597 H   0  0  0  0  0  0  0  0  0  0  0  0
    3.4516   11.3732    2.9411 C   0  0  0  0  0  0  0  0  0  0  0  0
    3.9879   10.9906    5.8476 C   0  0  0  0  0  0  0  0  0  0  0  0
    4.6176   11.4350    6.6303 H   0  0  0  0  0  0  0  0  0  0  0  0
    4.2080    9.4772    5.8555 C   0  0  0  0  0  0  0  0  0  0  0  0
    3.9297    9.0481    6.8168 H   0  0  0  0  0  0  0  0  0  0  0  0
    5.2712    9.2549    5.6685 H   0  0  0  0  0  0  0  0  0  0  0  0
    3.6109    9.0007    5.0751 H   0  0  0  0  0  0  0  0  0  0  0  0
    2.5309   11.3689    6.0751 C   0  0  0  0  0  0  0  0  0  0  0  0
    1.8982   10.9390    5.3002 H   0  0  0  0  0  0  0  0  0  0  0  0
    2.4028   12.4500    6.0714 H   0  0  0  0  0  0  0  0  0  0  0  0
    2.1952   10.9911    7.0399 H   0  0  0  0  0  0  0  0  0  0  0  0
    4.8580   13.4514    4.3540 C   0  0  0  0  0  0  0  0  0  0  0  0
    3.8678   13.9139    4.2642 H   0  0  0  0  0  0  0  0  0  0  0  0
    5.5256   13.8896    5.6521 C   0  0  0  0  0  0  0  0  0  0  0  0
    6.4407   13.3198    5.8126 H   0  0  0  0  0  0  0  0  0  0  0  0
    4.8663   13.7506    6.5069 H   0  0  0  0  0  0  0  0  0  0  0  0
    5.7886   14.9449    5.5946 H   0  0  0  0  0  0  0  0  0  0  0  0
    5.7167   13.8245    3.1445 C   0  0  0  0  0  0  0  0  0  0  0  0
    5.8143   14.9045    3.0479 H   0  0  0  0  0  0  0  0  0  0  0  0
    5.2772   13.4306    2.2230 H   0  0  0  0  0  0  0  0  0  0  0  0
    6.7175   13.3989    3.2775 H   0  0  0  0  0  0  0  0  0  0  0  0
    5.8887    8.5776    0.9589 C   0  0  0  0  0  0  0  0  0  0  0  0
    5.2520    7.9188   -0.0935 C   0  0  0  0  0  0  0  0  0  0  0  0
    4.1739    7.8872   -0.1348 H   0  0  0  0  0  0  0  0  0  0  0  0
    5.9823    7.2717   -1.0717 C   0  0  0  0  0  0  0  0  0  0  0  0
    5.4695    6.7901   -1.8919 H   0  0  0  0  0  0  0  0  0  0  0  0
    7.3638    7.1988   -0.9833 C   0  0  0  0  0  0  0  0  0  0  0  0
    7.9298    6.6663   -1.7334 H   0  0  0  0  0  0  0  0  0  0  0  0
    8.0127    7.7939    0.0840 C   0  0  0  0  0  0  0  0  0  0  0  0
    9.0846    7.7004    0.1786 H   0  0  0  0  0  0  0  0  0  0  0  0
    7.2922    8.5052    1.0336 C   0  0  0  0  0  0  0  0  0  0  0  0
    8.9764    8.0003    3.3317 C   0  0  0  0  0  0  0  0  0  0  0  0
    9.3938    7.2858    2.6105 H   0  0  0  0  0  0  0  0  0  0  0  0
    7.8713    7.3321    4.1540 C   0  0  0  0  0  0  0  0  0  0  0  0
    8.2642    6.5132    4.7539 H   0  0  0  0  0  0  0  0  0  0  0  0
    7.0859    6.9430    3.5010 H   0  0  0  0  0  0  0  0  0  0  0  0
    7.4244    8.0771    4.8296 H   0  0  0  0  0  0  0  0  0  0  0  0
   10.0675    8.5653    4.2339 C   0  0  0  0  0  0  0  0  0  0  0  0
    9.6630    9.3695    4.8487 H   0  0  0  0  0  0  0  0  0  0  0  0
   10.8997    8.9602    3.6548 H   0  0  0  0  0  0  0  0  0  0  0  0
   10.4481    7.7871    4.8939 H   0  0  0  0  0  0  0  0  0  0  0  0
    9.2748   10.5801    1.7267 C   0  0  0  0  0  0  0  0  0  0  0  0
    9.7253   11.0397    2.6192 H   0  0  0  0  0  0  0  0  0  0  0  0
   10.3723   10.0564    0.8098 C   0  0  0  0  0  0  0  0  0  0  0  0
    9.9611    9.7523   -0.1503 H   0  0  0  0  0  0  0  0  0  0  0  0
   10.8956    9.2118    1.2546 H   0  0  0  0  0  0  0  0  0  0  0  0
   11.0998   10.8465    0.6273 H   0  0  0  0  0  0  0  0  0  0  0  0
    8.3959   11.6214    1.0286 C   0  0  0  0  0  0  0  0  0  0  0  0
    8.9712   12.5087    0.7709 H   0  0  0  0  0  0  0  0  0  0  0  0
    7.5699   11.9204    1.6970 H   0  0  0  0  0  0  0  0  0  0  0  0
    7.9652   11.2065    0.1160 H   0  0  0  0  0  0  0  0  0  0  0  0
  1  5  1  0  0  0  0
  1  2  1  1  0  0  0
  3 36  1  6  0  0  0
  3  1  1  0  0  0  0
  4 46  1  0  0  0  0
  4  1  1  0  0  0  0
  5 26  1  0  0  0  0
  5 16  1  0  0  0  0
  6  3  1  0  0  0  0
  6 15  1  0  0  0  0
  7  6  2  0  0  0  0
  8  7  1  0  0  0  0
  9  7  1  0  0  0  0
  9 11  2  0  0  0  0
 10  9  1  0  0  0  0
 11 13  1  0  0  0  0
 12 11  1  0  0  0  0
 13 15  2  0  0  0  0
 13 14  1  0  0  0  0
 15  5  1  0  0  0  0
 16 18  1  0  0  0  0
 16 22  1  0  0  0  0
 16 17  1  0  0  0  0
 18 19  1  0  0  0  0
 20 18  1  0  0  0  0
 21 18  1  0  0  0  0
 22 25  1  0  0  0  0
 23 22  1  0  0  0  0
 24 22  1  0  0  0  0
 26 28  1  0  0  0  0
 27 26  1  0  0  0  0
 28 29  1  0  0  0  0
 28 30  1  0  0  0  0
 31 28  1  0  0  0  0
 32 35  1  0  0  0  0
 32 26  1  0  0  0  0
 33 32  1  0  0  0  0
 34 32  1  0  0  0  0
 36 45  1  0  0  0  0
 37 36  2  0  0  0  0
 38 37  1  0  0  0  0
 39 41  2  0  0  0  0
 39 37  1  0  0  0  0
 40 39  1  0  0  0  0
 41 43  1  0  0  0  0
 42 41  1  0  0  0  0
 43 44  1  0  0  0  0
 43 45  2  0  0  0  0
 45  4  1  0  0  0  0
 46 48  1  0  0  0  0
 46 52  1  0  0  0  0
 47 46  1  0  0  0  0
 48 49  1  0  0  0  0
 48 51  1  0  0  0  0
 50 48  1  0  0  0  0
 52 53  1  0  0  0  0
 52 55  1  0  0  0  0
 54 52  1  0  0  0  0
 56  4  1  0  0  0  0
 56 57  1  0  0  0  0
 58 60  1  0  0  0  0
 58 56  1  0  0  0  0
 59 58  1  0  0  0  0
 61 58  1  0  0  0  0
 62 64  1  0  0  0  0
 62 56  1  0  0  0  0
 63 62  1  0  0  0  0
 65 62  1  0  0  0  0
M  END
$$$$
