CSD_code = NONNEK | q = 0 | S = 0 | Stoichiometry = C22H30Cl2N4O2Pd | MND = 4
 OpenBabel04212202073D

 61 64  0  0  1  0  0  0  0  0999 V2000
    2.6450    3.0324   10.5197 Pd  0  0  0  0  0  0  0  0  0  0  0  0
    1.4335    1.5230   11.7628 Cl  0  0  0  0  0  0  0  0  0  0  0  0
    3.9344    4.4762    9.2966 Cl  0  0  0  0  0  0  0  0  0  0  0  0
    2.4216   -0.7578    8.2318 O   0  0  0  0  0  0  0  0  0  0  0  0
    5.0278   -0.5595   11.1462 O   0  0  0  0  0  0  0  0  0  0  0  0
    1.4648    2.7255    8.9607 N   0  0  1  0  0  0  0  0  0  0  0  0
    1.7442    1.9874    7.8844 N   0  0  0  0  0  0  0  0  0  0  0  0
    4.9715    2.8603   12.3671 N   0  0  2  0  0  0  0  0  0  0  0  0
    3.7916    3.4089   12.0770 N   0  0  0  0  0  0  0  0  0  0  0  0
    0.1928    3.0898    8.8917 C   0  0  2  0  0  3  0  0  0  0  0  0
   -0.3676    2.5490    7.7287 C   0  0  0  0  0  0  0  0  0  0  0  0
   -1.3769    2.6572    7.3885 H   0  0  0  0  0  0  0  0  0  0  0  0
    0.6485    1.8439    7.1119 C   0  0  0  0  0  0  0  0  0  0  0  0
   -0.4044    3.9462    9.9534 C   0  0  0  0  0  0  0  0  0  0  0  0
    0.3961    4.5330   10.4298 H   0  0  0  0  0  0  0  0  0  0  0  0
   -0.8801    3.3236   10.7132 H   0  0  0  0  0  0  0  0  0  0  0  0
   -1.1505    4.6173    9.5341 H   0  0  0  0  0  0  0  0  0  0  0  0
    0.6438    1.0416    5.8637 C   0  0  0  0  0  0  0  0  0  0  0  0
    1.0172    0.0391    6.0673 H   0  0  0  0  0  0  0  0  0  0  0  0
    1.2745    1.5013    5.1023 H   0  0  0  0  0  0  0  0  0  0  0  0
   -0.3693    0.9739    5.4783 H   0  0  0  0  0  0  0  0  0  0  0  0
    3.0712    1.4643    7.6837 C   0  0  0  0  0  0  0  0  0  0  0  0
    3.7930    2.2604    7.9152 H   0  0  0  0  0  0  0  0  0  0  0  0
    3.1731    1.1574    6.6428 H   0  0  0  0  0  0  0  0  0  0  0  0
    3.3126    0.2701    8.6099 C   0  0  0  0  0  0  0  0  0  0  0  0
    4.3562   -0.0671    8.5372 H   0  0  0  0  0  0  0  0  0  0  0  0
    3.1140    0.5804    9.6578 H   0  0  0  0  0  0  0  0  0  0  0  0
    2.3000   -1.7848    9.1979 C   0  0  0  0  0  0  0  0  0  0  0  0
    1.4335   -2.3696    8.8748 H   0  0  0  0  0  0  0  0  0  0  0  0
    2.0765   -1.3416   10.1751 H   0  0  0  0  0  0  0  0  0  0  0  0
    3.5202   -2.6787    9.2357 C   0  0  0  0  0  0  0  0  0  0  0  0
    3.7124   -3.5178    8.1415 C   0  0  0  0  0  0  0  0  0  0  0  0
    2.9815   -3.5026    7.3460 H   0  0  0  0  0  0  0  0  0  0  0  0
    4.8108   -4.3497    8.0523 C   0  0  0  0  0  0  0  0  0  0  0  0
    4.9378   -4.9903    7.1923 H   0  0  0  0  0  0  0  0  0  0  0  0
    5.7444   -4.3571    9.0744 C   0  0  0  0  0  0  0  0  0  0  0  0
    6.6076   -5.0038    9.0211 H   0  0  0  0  0  0  0  0  0  0  0  0
    5.5657   -3.5287   10.1651 C   0  0  0  0  0  0  0  0  0  0  0  0
    6.2959   -3.5284   10.9612 H   0  0  0  0  0  0  0  0  0  0  0  0
    4.4647   -2.6834   10.2635 C   0  0  0  0  0  0  0  0  0  0  0  0
    4.3791   -1.7792   11.4659 C   0  0  0  0  0  0  0  0  0  0  0  0
    3.3385   -1.5826   11.7568 H   0  0  0  0  0  0  0  0  0  0  0  0
    4.8828   -2.2507   12.3246 H   0  0  0  0  0  0  0  0  0  0  0  0
    4.8446    0.4307   12.1273 C   0  0  0  0  0  0  0  0  0  0  0  0
    5.3273    0.1335   13.0727 H   0  0  0  0  0  0  0  0  0  0  0  0
    3.7690    0.5813   12.3213 H   0  0  0  0  0  0  0  0  0  0  0  0
    5.4434    1.7426   11.5984 C   0  0  0  0  0  0  0  0  0  0  0  0
    5.1038    1.8805   10.5558 H   0  0  0  0  0  0  0  0  0  0  0  0
    6.5337    1.7100   11.6162 H   0  0  0  0  0  0  0  0  0  0  0  0
    5.5042    3.4406   13.4653 C   0  0  2  0  0  3  0  0  0  0  0  0
    4.6136    4.4165   13.8693 C   0  0  0  0  0  0  0  0  0  0  0  0
    4.7208    5.0814   14.7014 H   0  0  0  0  0  0  0  0  0  0  0  0
    3.5476    4.3614   12.9627 C   0  0  0  0  0  0  0  0  0  0  0  0
    6.8151    3.0391   14.0346 C   0  0  0  0  0  0  0  0  0  0  0  0
    6.8100    1.9881   14.3209 H   0  0  0  0  0  0  0  0  0  0  0  0
    7.0276    3.6389   14.9147 H   0  0  0  0  0  0  0  0  0  0  0  0
    7.6135    3.1924   13.3087 H   0  0  0  0  0  0  0  0  0  0  0  0
    2.2956    5.1610   12.8599 C   0  0  0  0  0  0  0  0  0  0  0  0
    2.2666    5.6620   11.8839 H   0  0  0  0  0  0  0  0  0  0  0  0
    2.2470    5.9093   13.6458 H   0  0  0  0  0  0  0  0  0  0  0  0
    1.4300    4.4945   12.9419 H   0  0  0  0  0  0  0  0  0  0  0  0
  1  2  1  0  0  0  0
  1  9  1  0  0  0  0
  3  1  1  0  0  0  0
  4 25  1  0  0  0  0
  4 28  1  0  0  0  0
  5 41  1  0  0  0  0
  5 44  1  0  0  0  0
  6  7  1  1  0  0  0
  6  1  1  0  0  0  0
  8 47  1  1  0  0  0
  8 50  1  0  0  0  0
  9  8  1  0  0  0  0
  9 53  1  0  0  0  0
 10  6  1  0  0  0  0
 10 14  1  6  0  0  0
 11 10  1  0  0  0  0
 12 11  1  0  0  0  0
 13 11  2  0  0  0  0
 13  7  1  0  0  0  0
 14 15  1  0  0  0  0
 14 16  1  0  0  0  0
 17 14  1  0  0  0  0
 18 19  1  0  0  0  0
 18 13  1  0  0  0  0
 20 18  1  0  0  0  0
 21 18  1  0  0  0  0
 22  7  1  0  0  0  0
 22 23  1  0  0  0  0
 22 25  1  0  0  0  0
 24 22  1  0  0  0  0
 25 27  1  0  0  0  0
 26 25  1  0  0  0  0
 28 31  1  0  0  0  0
 28 30  1  0  0  0  0
 29 28  1  0  0  0  0
 31 40  1  0  0  0  0
 32 31  2  0  0  0  0
 33 32  1  0  0  0  0
 34 32  1  0  0  0  0
 34 36  2  0  0  0  0
 35 34  1  0  0  0  0
 36 38  1  0  0  0  0
 37 36  1  0  0  0  0
 38 40  2  0  0  0  0
 38 39  1  0  0  0  0
 40 41  1  0  0  0  0
 41 42  1  0  0  0  0
 41 43  1  0  0  0  0
 44 46  1  0  0  0  0
 44 45  1  0  0  0  0
 47 49  1  0  0  0  0
 47 44  1  0  0  0  0
 48 47  1  0  0  0  0
 50 51  1  0  0  0  0
 50 54  1  6  0  0  0
 51 52  1  0  0  0  0
 53 51  2  0  0  0  0
 54 55  1  0  0  0  0
 54 56  1  0  0  0  0
 57 54  1  0  0  0  0
 58 61  1  0  0  0  0
 58 53  1  0  0  0  0
 58 60  1  0  0  0  0
 59 58  1  0  0  0  0
M  END
$$$$
