CSD_code = NONPIQ | q = 0 | S = 0 | Stoichiometry = C10H15AuClN3 | MND = 2
 OpenBabel04212202073D

 30 30  0  0  1  0  0  0  0  0999 V2000
   -3.8468    9.2709    2.6207 Au  0  0  0  0  0  0  0  0  0  0  0  0
   -2.6457    8.2765    1.3267 C   0  0  2  0  0  3  0  0  0  0  0  0
   -1.5773    6.0423    0.9772 C   0  0  0  0  0  0  0  0  0  0  0  0
   -1.4387    4.7689    1.5465 C   0  0  0  0  0  0  0  0  0  0  0  0
   -1.9133    4.5425    2.4890 H   0  0  0  0  0  0  0  0  0  0  0  0
   -0.6902    3.8238    0.8783 C   0  0  0  0  0  0  0  0  0  0  0  0
   -0.5670    2.8344    1.2926 H   0  0  0  0  0  0  0  0  0  0  0  0
   -0.0974    4.1598   -0.3346 C   0  0  0  0  0  0  0  0  0  0  0  0
    0.4933    3.4459   -0.8845 H   0  0  0  0  0  0  0  0  0  0  0  0
   -0.2888    5.4399   -0.8150 C   0  0  0  0  0  0  0  0  0  0  0  0
    0.1447    5.7657   -1.7509 H   0  0  0  0  0  0  0  0  0  0  0  0
   -2.2991   10.0388   -0.3998 C   0  0  0  0  0  0  0  0  0  0  0  0
   -1.4670   10.0198   -1.6842 C   0  0  0  0  0  0  0  0  0  0  0  0
   -0.4187    9.8373   -1.4572 H   0  0  0  0  0  0  0  0  0  0  0  0
   -1.5442   10.9754   -2.1948 H   0  0  0  0  0  0  0  0  0  0  0  0
   -1.8211    9.2426   -2.3583 H   0  0  0  0  0  0  0  0  0  0  0  0
   -1.7725   11.1257    0.5389 C   0  0  0  0  0  0  0  0  0  0  0  0
   -2.3632   11.1626    1.4509 H   0  0  0  0  0  0  0  0  0  0  0  0
   -1.8299   12.0942    0.0506 H   0  0  0  0  0  0  0  0  0  0  0  0
   -0.7363   10.9284    0.8041 H   0  0  0  0  0  0  0  0  0  0  0  0
   -3.7710   10.2823   -0.7395 C   0  0  0  0  0  0  0  0  0  0  0  0
   -4.1466    9.4918   -1.3855 H   0  0  0  0  0  0  0  0  0  0  0  0
   -3.8803   11.2336   -1.2520 H   0  0  0  0  0  0  0  0  0  0  0  0
   -4.3717   10.3056    0.1664 H   0  0  0  0  0  0  0  0  0  0  0  0
   -5.1854   10.3660    4.0555 Cl  0  0  0  0  0  0  0  0  0  0  0  0
   -2.1353    8.7182    0.2051 N   0  0  0  0  0  0  0  0  0  0  0  0
   -1.5574    8.0556   -0.3252 H   0  0  0  0  0  0  0  0  0  0  0  0
   -2.3354    6.9890    1.6481 N   0  0  0  0  0  0  0  0  0  0  0  0
   -2.7291    6.6587    2.5170 H   0  0  0  0  0  0  0  0  0  0  0  0
   -1.0055    6.3576   -0.1826 N   0  0  0  0  0  0  0  0  0  0  0  0
  1 25  1  0  0  0  0
  2 28  1  0  0  0  0
  2  1  1  6  0  0  0
  3  4  1  0  0  0  0
  3 28  1  0  0  0  0
  4  5  1  0  0  0  0
  6  7  1  0  0  0  0
  6  4  2  0  0  0  0
  8  6  1  0  0  0  0
  9  8  1  0  0  0  0
 10  8  2  0  0  0  0
 10 30  1  0  0  0  0
 11 10  1  0  0  0  0
 12 26  1  0  0  0  0
 12 17  1  0  0  0  0
 13 14  1  0  0  0  0
 13 12  1  0  0  0  0
 15 13  1  0  0  0  0
 16 13  1  0  0  0  0
 17 20  1  0  0  0  0
 17 18  1  0  0  0  0
 19 17  1  0  0  0  0
 21 12  1  0  0  0  0
 21 24  1  0  0  0  0
 22 21  1  0  0  0  0
 23 21  1  0  0  0  0
 26  2  1  0  0  0  0
 27 26  1  0  0  0  0
 28 29  1  0  0  0  0
 30  3  2  0  0  0  0
M  END
$$$$
