CSD_code = NONPAI | q = 0 | S = 0 | Stoichiometry = C19H19ClN2Ni | MND = 4
 OpenBabel04212202073D

 42 45  0  0  0  0  0  0  0  0999 V2000
    9.9959    2.1882    2.5695 Ni  0  0  1  0  0  0  0  0  0  0  0  0
   11.1946    1.2831    3.9548 Cl  0  0  0  0  0  0  0  0  0  0  0  0
    9.8350    0.6172    1.3320 N   0  0  0  0  0  0  0  0  0  0  0  0
    8.8398    3.0429    1.2352 N   0  0  0  0  0  0  0  0  0  0  0  0
   10.1069    3.7072    3.6663 C   0  0  0  0  0  0  0  0  0  0  0  0
    9.1400    3.9312    4.6473 C   0  0  0  0  0  0  0  0  0  0  0  0
    9.1484    5.1290    5.3488 C   0  0  0  0  0  0  0  0  0  0  0  0
    8.3946    5.3000    6.1058 H   0  0  0  0  0  0  0  0  0  0  0  0
   10.1072    6.1025    5.1038 C   0  0  0  0  0  0  0  0  0  0  0  0
   11.0700    5.8581    4.1375 C   0  0  0  0  0  0  0  0  0  0  0  0
   11.8313    6.6001    3.9366 H   0  0  0  0  0  0  0  0  0  0  0  0
   11.0867    4.6678    3.4199 C   0  0  0  0  0  0  0  0  0  0  0  0
    8.0981    2.8844    4.9392 C   0  0  0  0  0  0  0  0  0  0  0  0
    8.2103    2.0441    4.2385 H   0  0  0  0  0  0  0  0  0  0  0  0
    7.0930    3.2945    4.8447 H   0  0  0  0  0  0  0  0  0  0  0  0
    8.2207    2.5022    5.9515 H   0  0  0  0  0  0  0  0  0  0  0  0
   10.1030    7.3812    5.8897 C   0  0  0  0  0  0  0  0  0  0  0  0
   10.8064    8.0972    5.4717 H   0  0  0  0  0  0  0  0  0  0  0  0
   10.3855    7.1867    6.9242 H   0  0  0  0  0  0  0  0  0  0  0  0
    9.1094    7.8273    5.8944 H   0  0  0  0  0  0  0  0  0  0  0  0
   12.1510    4.4197    2.3844 C   0  0  0  0  0  0  0  0  0  0  0  0
   12.1567    5.2081    1.6320 H   0  0  0  0  0  0  0  0  0  0  0  0
   11.9697    3.4540    1.8901 H   0  0  0  0  0  0  0  0  0  0  0  0
   13.1333    4.3836    2.8531 H   0  0  0  0  0  0  0  0  0  0  0  0
   10.3884   -0.5783    1.4690 C   0  0  0  0  0  0  0  0  0  0  0  0
   10.9859   -0.7181    2.3626 H   0  0  0  0  0  0  0  0  0  0  0  0
   10.2218   -1.5907    0.5381 C   0  0  0  0  0  0  0  0  0  0  0  0
   10.6904   -2.5496    0.6894 H   0  0  0  0  0  0  0  0  0  0  0  0
    9.4446   -1.3379   -0.5816 C   0  0  0  0  0  0  0  0  0  0  0  0
    9.2907   -2.0993   -1.3319 H   0  0  0  0  0  0  0  0  0  0  0  0
    8.8653   -0.0904   -0.7269 C   0  0  0  0  0  0  0  0  0  0  0  0
    8.2596    0.1210   -1.5929 H   0  0  0  0  0  0  0  0  0  0  0  0
    9.0775    0.8780    0.2540 C   0  0  0  0  0  0  0  0  0  0  0  0
    8.5140    2.2332    0.2060 C   0  0  0  0  0  0  0  0  0  0  0  0
    7.6910    2.6715   -0.8306 C   0  0  0  0  0  0  0  0  0  0  0  0
    7.4382    2.0117   -1.6443 H   0  0  0  0  0  0  0  0  0  0  0  0
    7.1952    3.9608   -0.8135 C   0  0  0  0  0  0  0  0  0  0  0  0
    6.5569    4.3137   -1.6094 H   0  0  0  0  0  0  0  0  0  0  0  0
    7.5377    4.7849    0.2481 C   0  0  0  0  0  0  0  0  0  0  0  0
    7.1773    5.7991    0.3076 H   0  0  0  0  0  0  0  0  0  0  0  0
    8.3575    4.2833    1.2427 C   0  0  0  0  0  0  0  0  0  0  0  0
    8.6404    4.9035    2.0826 H   0  0  0  0  0  0  0  0  0  0  0  0
  1  5  1  0  0  0  0
  1  2  1  1  0  0  0
  3 25  1  0  0  0  0
  3  1  1  0  0  0  0
  4 41  1  0  0  0  0
  4  1  1  0  0  0  0
  5  6  1  0  0  0  0
  6 13  1  0  0  0  0
  6  7  2  0  0  0  0
  7  8  1  0  0  0  0
  9  7  1  0  0  0  0
  9 17  1  0  0  0  0
 10  9  2  0  0  0  0
 11 10  1  0  0  0  0
 12  5  2  0  0  0  0
 12 10  1  0  0  0  0
 13 16  1  0  0  0  0
 14 13  1  0  0  0  0
 15 13  1  0  0  0  0
 17 20  1  0  0  0  0
 17 19  1  0  0  0  0
 18 17  1  0  0  0  0
 21 24  1  0  0  0  0
 21 12  1  0  0  0  0
 22 21  1  0  0  0  0
 23 21  1  0  0  0  0
 25 26  1  0  0  0  0
 27 28  1  0  0  0  0
 27 25  2  0  0  0  0
 29 27  1  0  0  0  0
 30 29  1  0  0  0  0
 31 29  2  0  0  0  0
 31 33  1  0  0  0  0
 32 31  1  0  0  0  0
 33  3  1  0  0  0  0
 34 33  2  0  0  0  0
 34  4  1  0  0  0  0
 35 37  2  0  0  0  0
 35 34  1  0  0  0  0
 36 35  1  0  0  0  0
 37 39  1  0  0  0  0
 38 37  1  0  0  0  0
 39 40  1  0  0  0  0
 39 41  2  0  0  0  0
 41 42  1  0  0  0  0
M  END
$$$$
