CSD_code = NONPEM | q = 0 | S = 0 | Stoichiometry = C19H19IN2Ni | MND = 4
 OpenBabel04212202073D

 42 45  0  0  0  0  0  0  0  0999 V2000
    4.3372    1.5603   11.1675 I   0  0  0  0  0  0  0  0  0  0  0  0
    5.3399    3.2799   12.5425 Ni  0  0  1  0  0  0  0  0  0  0  0  0
    4.0286    3.3370   14.0805 N   0  0  0  0  0  0  0  0  0  0  0  0
    4.3717    4.2367   15.0164 C   0  0  0  0  0  0  0  0  0  0  0  0
    3.5242    4.5333   16.0826 C   0  0  0  0  0  0  0  0  0  0  0  0
    3.7938    5.2820   16.8095 H   0  0  0  0  0  0  0  0  0  0  0  0
    2.3164    3.8692   16.1963 C   0  0  0  0  0  0  0  0  0  0  0  0
    1.6488    4.0886   17.0161 H   0  0  0  0  0  0  0  0  0  0  0  0
    1.9868    2.9239   15.2398 C   0  0  0  0  0  0  0  0  0  0  0  0
    1.0616    2.3731   15.2878 H   0  0  0  0  0  0  0  0  0  0  0  0
    2.8719    2.6994   14.1981 C   0  0  0  0  0  0  0  0  0  0  0  0
    2.6371    1.9749   13.4292 H   0  0  0  0  0  0  0  0  0  0  0  0
    6.2912    4.6658   13.6571 N   0  0  0  0  0  0  0  0  0  0  0  0
    5.6763    4.8876   14.8318 C   0  0  0  0  0  0  0  0  0  0  0  0
    6.2583    5.6847   15.8172 C   0  0  0  0  0  0  0  0  0  0  0  0
    5.7704    5.8250   16.7677 H   0  0  0  0  0  0  0  0  0  0  0  0
    7.4790    6.2854   15.5771 C   0  0  0  0  0  0  0  0  0  0  0  0
    7.9430    6.9036   16.3308 H   0  0  0  0  0  0  0  0  0  0  0  0
    8.0879    6.0750   14.3503 C   0  0  0  0  0  0  0  0  0  0  0  0
    9.0355    6.5284   14.1085 H   0  0  0  0  0  0  0  0  0  0  0  0
    7.4597    5.2548   13.4297 C   0  0  0  0  0  0  0  0  0  0  0  0
    7.9190    5.0658   12.4690 H   0  0  0  0  0  0  0  0  0  0  0  0
    6.6241    3.4371   11.1955 C   0  0  0  0  0  0  0  0  0  0  0  0
    7.8010    2.7010   11.2783 C   0  0  0  0  0  0  0  0  0  0  0  0
    8.8343    2.9923   10.3953 C   0  0  0  0  0  0  0  0  0  0  0  0
    9.7532    2.4258   10.4633 H   0  0  0  0  0  0  0  0  0  0  0  0
    8.6995    3.9797    9.4313 C   0  0  0  0  0  0  0  0  0  0  0  0
    7.5028    4.6806    9.3516 C   0  0  0  0  0  0  0  0  0  0  0  0
    7.3782    5.4436    8.5952 H   0  0  0  0  0  0  0  0  0  0  0  0
    6.4519    4.4129   10.2179 C   0  0  0  0  0  0  0  0  0  0  0  0
    7.9389    1.6066   12.3015 C   0  0  0  0  0  0  0  0  0  0  0  0
    7.8736    0.6331   11.8155 H   0  0  0  0  0  0  0  0  0  0  0  0
    7.1243    1.6734   13.0378 H   0  0  0  0  0  0  0  0  0  0  0  0
    8.8926    1.6698   12.8241 H   0  0  0  0  0  0  0  0  0  0  0  0
    9.8152    4.2887    8.4768 C   0  0  0  0  0  0  0  0  0  0  0  0
   10.6718    3.6444    8.6580 H   0  0  0  0  0  0  0  0  0  0  0  0
   10.1320    5.3264    8.5816 H   0  0  0  0  0  0  0  0  0  0  0  0
    9.4841    4.1445    7.4493 H   0  0  0  0  0  0  0  0  0  0  0  0
    5.1426    5.1460   10.1054 C   0  0  0  0  0  0  0  0  0  0  0  0
    4.5168    4.9378   10.9868 H   0  0  0  0  0  0  0  0  0  0  0  0
    4.6018    4.8090    9.2212 H   0  0  0  0  0  0  0  0  0  0  0  0
    5.2958    6.2215   10.0287 H   0  0  0  0  0  0  0  0  0  0  0  0
  2  1  1  1  0  0  0
  2 13  1  0  0  0  0
  2  3  1  0  0  0  0
  3 11  1  0  0  0  0
  3  4  1  0  0  0  0
  4  5  1  0  0  0  0
  5  7  2  0  0  0  0
  5  6  1  0  0  0  0
  7  8  1  0  0  0  0
  9 10  1  0  0  0  0
  9  7  1  0  0  0  0
 11  9  2  0  0  0  0
 12 11  1  0  0  0  0
 13 14  1  0  0  0  0
 14  4  2  0  0  0  0
 14 15  1  0  0  0  0
 15 16  1  0  0  0  0
 17 15  2  0  0  0  0
 17 18  1  0  0  0  0
 19 17  1  0  0  0  0
 20 19  1  0  0  0  0
 21 13  1  0  0  0  0
 21 19  2  0  0  0  0
 22 21  1  0  0  0  0
 23 24  1  0  0  0  0
 23  2  1  0  0  0  0
 24 31  1  0  0  0  0
 25 26  1  0  0  0  0
 25 24  2  0  0  0  0
 27 25  1  0  0  0  0
 28 27  2  0  0  0  0
 28 30  1  0  0  0  0
 29 28  1  0  0  0  0
 30 23  2  0  0  0  0
 31 34  1  0  0  0  0
 31 33  1  0  0  0  0
 32 31  1  0  0  0  0
 35 37  1  0  0  0  0
 35 36  1  0  0  0  0
 35 27  1  0  0  0  0
 38 35  1  0  0  0  0
 39 30  1  0  0  0  0
 39 40  1  0  0  0  0
 41 39  1  0  0  0  0
 42 39  1  0  0  0  0
M  END
$$$$
