CSD_code = NONRAJ | q = 0 | S = 0 | Stoichiometry = C19H23Cl2HfNSi | MND = 8
 OpenBabel04212202073D

 47 50  0  0  0  0  0  0  0  0999 V2000
    2.2174    0.6868    3.0886 Hf  0  0  0  0  0  0  0  0  0  0  0  0
    2.7890   -0.9198    4.6073 Cl  0  0  0  0  0  0  0  0  0  0  0  0
    4.3999    1.1082    2.4921 Cl  0  0  0  0  0  0  0  0  0  0  0  0
    1.4481    2.0354    4.3040 N   0  0  0  0  0  0  0  0  0  0  0  0
   -0.1728    1.7329    4.8021 Si  0  0  0  0  0  0  0  0  0  0  0  0
    0.0305    0.6432    2.2156 C   0  0  0  0  0  0  0  0  0  0  0  0
    0.8415    1.3889    1.3031 C   0  0  0  0  0  0  0  0  0  0  0  0
    0.8763    2.7638    0.9796 C   0  0  0  0  0  0  0  0  0  0  0  0
    1.7973    3.2108    0.0653 C   0  0  0  0  0  0  0  0  0  0  0  0
    2.7011    2.3357   -0.5610 C   0  0  0  0  0  0  0  0  0  0  0  0
    2.7123    0.9933   -0.2643 C   0  0  0  0  0  0  0  0  0  0  0  0
    1.8040    0.4959    0.6803 C   0  0  0  0  0  0  0  0  0  0  0  0
    1.5944   -0.8131    1.2419 C   0  0  0  0  0  0  0  0  0  0  0  0
    2.2362   -2.0455    1.0484 C   0  0  0  0  0  0  0  0  0  0  0  0
    1.7886   -3.1480    1.7389 C   0  0  0  0  0  0  0  0  0  0  0  0
    0.6990   -3.0600    2.6214 C   0  0  0  0  0  0  0  0  0  0  0  0
    0.0460   -1.8738    2.8445 C   0  0  0  0  0  0  0  0  0  0  0  0
    0.4803   -0.7127    2.1700 C   0  0  0  0  0  0  0  0  0  0  0  0
   -1.0053    1.2090    3.1265 C   0  0  0  0  0  0  0  0  0  0  0  0
   -0.3171    0.2456    6.0029 C   0  0  0  0  0  0  0  0  0  0  0  0
   -1.1843    3.2042    5.4802 C   0  0  0  0  0  0  0  0  0  0  0  0
    2.5002    2.7836    4.9770 C   0  0  0  0  0  0  0  0  0  0  0  0
    2.0890    3.3753    6.3230 C   0  0  0  0  0  0  0  0  0  0  0  0
    2.9709    3.8982    4.0281 C   0  0  0  0  0  0  0  0  0  0  0  0
    0.1672    3.4438    1.4314 H   0  0  0  0  0  0  0  0  0  0  0  0
    1.8297    4.2595   -0.1905 H   0  0  0  0  0  0  0  0  0  0  0  0
    3.3980    2.7310   -1.2832 H   0  0  0  0  0  0  0  0  0  0  0  0
    3.4096    0.3267   -0.7522 H   0  0  0  0  0  0  0  0  0  0  0  0
    3.0600   -2.1259    0.3518 H   0  0  0  0  0  0  0  0  0  0  0  0
    2.2755   -4.1010    1.6016 H   0  0  0  0  0  0  0  0  0  0  0  0
    0.3743   -3.9520    3.1355 H   0  0  0  0  0  0  0  0  0  0  0  0
   -0.7998   -1.8258    3.5162 H   0  0  0  0  0  0  0  0  0  0  0  0
   -1.7828    0.4700    3.3162 H   0  0  0  0  0  0  0  0  0  0  0  0
   -1.4893    2.0617    2.6509 H   0  0  0  0  0  0  0  0  0  0  0  0
   -0.0037    0.5146    7.0070 H   0  0  0  0  0  0  0  0  0  0  0  0
    0.3152   -0.5788    5.6785 H   0  0  0  0  0  0  0  0  0  0  0  0
   -1.3374   -0.1186    6.0735 H   0  0  0  0  0  0  0  0  0  0  0  0
   -0.9769    3.3809    6.5288 H   0  0  0  0  0  0  0  0  0  0  0  0
   -2.2447    2.9943    5.3917 H   0  0  0  0  0  0  0  0  0  0  0  0
   -0.9867    4.1240    4.9400 H   0  0  0  0  0  0  0  0  0  0  0  0
    3.3530    2.0912    5.1615 H   0  0  0  0  0  0  0  0  0  0  0  0
    1.7238    2.5902    6.9783 H   0  0  0  0  0  0  0  0  0  0  0  0
    1.3061    4.1134    6.1831 H   0  0  0  0  0  0  0  0  0  0  0  0
    2.9455    3.8533    6.7916 H   0  0  0  0  0  0  0  0  0  0  0  0
    3.2382    3.4749    3.0542 H   0  0  0  0  0  0  0  0  0  0  0  0
    3.8367    4.4121    4.4379 H   0  0  0  0  0  0  0  0  0  0  0  0
    2.1648    4.6161    3.8885 H   0  0  0  0  0  0  0  0  0  0  0  0
  1  4  1  0  0  0  0
  1  2  1  0  0  0  0
  3  1  1  0  0  0  0
  4  5  1  0  0  0  0
  4 22  1  0  0  0  0
  5 21  1  0  0  0  0
  5 20  1  0  0  0  0
  6  1  1  0  0  0  0
  6 19  1  0  0  0  0
  7  6  1  0  0  0  0
  8  7  1  0  0  0  0
  8 25  1  0  0  0  0
  9  8  2  0  0  0  0
 10 11  2  0  0  0  0
 10  9  1  0  0  0  0
 11 12  1  0  0  0  0
 12 13  1  0  0  0  0
 12  7  2  0  0  0  0
 13 18  1  0  0  0  0
 14 13  2  0  0  0  0
 14 15  1  0  0  0  0
 15 16  2  0  0  0  0
 16 17  1  0  0  0  0
 16 31  1  0  0  0  0
 17 32  1  0  0  0  0
 18  6  1  0  0  0  0
 18 17  2  0  0  0  0
 19 33  1  0  0  0  0
 19  5  1  0  0  0  0
 20 37  1  0  0  0  0
 20 35  1  0  0  0  0
 21 38  1  0  0  0  0
 22 41  1  0  0  0  0
 22 23  1  0  0  0  0
 23 44  1  0  0  0  0
 23 42  1  0  0  0  0
 24 46  1  0  0  0  0
 24 22  1  0  0  0  0
 26  9  1  0  0  0  0
 27 10  1  0  0  0  0
 28 11  1  0  0  0  0
 29 14  1  0  0  0  0
 30 15  1  0  0  0  0
 34 19  1  0  0  0  0
 36 20  1  0  0  0  0
 39 21  1  0  0  0  0
 40 21  1  0  0  0  0
 43 23  1  0  0  0  0
 45 24  1  0  0  0  0
 47 24  1  0  0  0  0
M  END
$$$$
