CSD_code = NONTIT | q = 0 | S = 0 | Stoichiometry = C6H6Cl4I2N4Ti | MND = 6
 OpenBabel04212202073D

 23 24  0  0  0  0  0  0  0  0999 V2000
    3.5906   -4.0154    4.8030 Ti  0  0  0  0  0  0  0  0  0  0  0  0
    5.0782    0.1248    9.3021 I   0  0  0  0  0  0  0  0  0  0  0  0
    3.5870   -5.4007    6.4626 Cl  0  0  0  0  0  0  0  0  0  0  0  0
    5.8563   -3.7830    4.7944 Cl  0  0  0  0  0  0  0  0  0  0  0  0
    3.5545   -2.3999    6.2413 N   0  0  0  0  0  0  0  0  0  0  0  0
    2.4906   -2.3174    7.0461 N   0  0  0  0  0  0  0  0  0  0  0  0
    2.7360   -1.5505    8.1122 C   0  0  0  0  0  3  0  0  0  0  0  0
    4.0426   -1.1143    7.9898 C   0  0  0  0  0  0  0  0  0  0  0  0
    4.5153   -1.6728    6.8008 C   0  0  0  0  0  0  0  0  0  0  0  0
    1.6350   -2.8010    6.7481 H   0  0  0  0  0  0  0  0  0  0  0  0
    2.0117   -1.3594    8.8783 H   0  0  0  0  0  0  0  0  0  0  0  0
    5.4892   -1.5811    6.3533 H   0  0  0  0  0  0  0  0  0  0  0  0
    3.5933   -5.4051    3.1474 Cl  0  0  0  0  0  0  0  0  0  0  0  0
    1.3256   -3.7801    4.8140 Cl  0  0  0  0  0  0  0  0  0  0  0  0
    3.6282   -2.4032    3.3618 N   0  0  0  0  0  0  0  0  0  0  0  0
    4.6957   -2.3159    2.5624 N   0  0  0  0  0  0  0  0  0  0  0  0
    4.4535   -1.5465    1.4973 C   0  0  0  0  0  3  0  0  0  0  0  0
    3.1453   -1.1138    1.6146 C   0  0  0  0  0  0  0  0  0  0  0  0
    2.1133    0.1273    0.3015 I   0  0  0  0  0  0  0  0  0  0  0  0
    2.6683   -1.6768    2.7998 C   0  0  0  0  0  0  0  0  0  0  0  0
    1.6921   -1.5890    3.2429 H   0  0  0  0  0  0  0  0  0  0  0  0
    5.1811   -1.3512    0.7353 H   0  0  0  0  0  0  0  0  0  0  0  0
    5.5509   -2.7985    2.8631 H   0  0  0  0  0  0  0  0  0  0  0  0
  1 14  1  0  0  0  0
  1  5  1  0  0  0  0
  1  3  1  0  0  0  0
  4  1  1  0  0  0  0
  5  9  1  0  0  0  0
  5  6  1  0  0  0  0
  6  7  1  0  0  0  0
  7 11  1  0  0  0  0
  8  7  1  0  0  0  0
  8  2  1  0  0  0  0
  9  8  2  0  0  0  0
 10  6  1  0  0  0  0
 12  9  1  0  0  0  0
 13  1  1  0  0  0  0
 15  1  1  0  0  0  0
 16 23  1  0  0  0  0
 16 15  1  0  0  0  0
 17 18  1  0  0  0  0
 17 16  1  0  0  0  0
 18 20  2  0  0  0  0
 19 18  1  0  0  0  0
 20 21  1  0  0  0  0
 20 15  1  0  0  0  0
 22 17  1  0  0  0  0
M  END
$$$$
