CSD_code = NONVIV | q = 0 | S = 0 | Stoichiometry = C18H42Cl2HfN4Si2 | MND = 4
 OpenBabel04212202073D

 69 71  0  0  1  0  0  0  0  0999 V2000
    6.7264    2.7879    4.6421 Hf  0  0  0  0  0  0  0  0  0  0  0  0
    8.4003    4.2534    5.4102 Cl  0  0  0  0  0  0  0  0  0  0  0  0
    8.0145    0.8278    4.8038 Cl  0  0  0  0  0  0  0  0  0  0  0  0
    4.8518    2.5868    2.5774 Si  0  0  2  0  0  0  0  0  0  0  0  0
    4.0155    2.2422    5.0570 Si  0  0  1  0  0  0  0  0  0  0  0  0
    4.6667    3.5886    4.0590 N   0  0  1  0  0  4  0  0  0  0  0  0
    4.2079    1.2983    3.5859 N   0  0  0  0  0  0  0  0  0  0  0  0
    5.3606    2.1931    6.0872 N   0  0  0  0  0  0  0  0  0  0  0  0
    6.5442    2.6820    2.5775 N   0  0  0  0  0  0  0  0  0  0  0  0
    3.7554    3.0296    1.0986 C   0  0  0  0  0  0  0  0  0  0  0  0
    2.2220    2.3993    5.6433 C   0  0  0  0  0  0  0  0  0  0  0  0
    4.5650    5.0216    4.2236 C   0  0  0  0  0  0  0  0  0  0  0  0
    3.1724    5.5365    3.8267 C   0  0  0  0  0  0  0  0  0  0  0  0
    5.6322    5.6995    3.3505 C   0  0  0  0  0  0  0  0  0  0  0  0
    4.8445    5.3747    5.6927 C   0  0  0  0  0  0  0  0  0  0  0  0
    3.7656   -0.0417    3.2505 C   0  0  0  0  0  0  0  0  0  0  0  0
    3.8768   -0.9351    4.4877 C   0  0  0  0  0  0  0  0  0  0  0  0
    2.3099   -0.0242    2.7593 C   0  0  0  0  0  0  0  0  0  0  0  0
    4.6682   -0.6120    2.1545 C   0  0  0  0  0  0  0  0  0  0  0  0
    5.5858    1.7184    7.4413 C   0  0  0  0  0  0  0  0  0  0  0  0
    6.9338    2.3068    7.9009 C   0  0  0  0  0  0  0  0  0  0  0  0
    4.4775    2.2046    8.3853 C   0  0  0  0  0  0  0  0  0  0  0  0
    5.6653    0.1856    7.4984 C   0  0  0  0  0  0  0  0  0  0  0  0
    7.5695    2.5389    1.5587 C   0  0  0  0  0  0  0  0  0  0  0  0
    8.8733    3.1021    2.1566 C   0  0  0  0  0  0  0  0  0  0  0  0
    7.2081    3.3394    0.2997 C   0  0  0  0  0  0  0  0  0  0  0  0
    7.7893    1.0669    1.1794 C   0  0  0  0  0  0  0  0  0  0  0  0
    2.7107    3.0892    1.3788 H   0  0  0  0  0  0  0  0  0  0  0  0
    3.8533    2.2725    0.3305 H   0  0  0  0  0  0  0  0  0  0  0  0
    4.0488    3.9760    0.6620 H   0  0  0  0  0  0  0  0  0  0  0  0
    1.5511    2.6217    4.8224 H   0  0  0  0  0  0  0  0  0  0  0  0
    2.1202    3.1762    6.3907 H   0  0  0  0  0  0  0  0  0  0  0  0
    1.9010    1.4691    6.0951 H   0  0  0  0  0  0  0  0  0  0  0  0
    2.9689    5.2929    2.7877 H   0  0  0  0  0  0  0  0  0  0  0  0
    3.1100    6.6148    3.9516 H   0  0  0  0  0  0  0  0  0  0  0  0
    2.4129    5.0686    4.4468 H   0  0  0  0  0  0  0  0  0  0  0  0
    5.4468    5.4880    2.3000 H   0  0  0  0  0  0  0  0  0  0  0  0
    6.6265    5.3195    3.6170 H   0  0  0  0  0  0  0  0  0  0  0  0
    5.6187    6.7778    3.4960 H   0  0  0  0  0  0  0  0  0  0  0  0
    4.0912    4.9259    6.3359 H   0  0  0  0  0  0  0  0  0  0  0  0
    4.8283    6.4529    5.8378 H   0  0  0  0  0  0  0  0  0  0  0  0
    5.8311    4.9937    5.9852 H   0  0  0  0  0  0  0  0  0  0  0  0
    3.2298   -0.5622    5.2775 H   0  0  0  0  0  0  0  0  0  0  0  0
    4.9032   -0.9321    4.8442 H   0  0  0  0  0  0  0  0  0  0  0  0
    3.5859   -1.9552    4.2491 H   0  0  0  0  0  0  0  0  0  0  0  0
    2.2238    0.6024    1.8758 H   0  0  0  0  0  0  0  0  0  0  0  0
    1.6615    0.3756    3.5341 H   0  0  0  0  0  0  0  0  0  0  0  0
    1.9803   -1.0299    2.5099 H   0  0  0  0  0  0  0  0  0  0  0  0
    4.5929   -0.0058    1.2554 H   0  0  0  0  0  0  0  0  0  0  0  0
    4.3789   -1.6322    1.9144 H   0  0  0  0  0  0  0  0  0  0  0  0
    5.6995   -0.6058    2.4964 H   0  0  0  0  0  0  0  0  0  0  0  0
    6.9050    3.3973    7.8532 H   0  0  0  0  0  0  0  0  0  0  0  0
    7.7426    1.9368    7.2632 H   0  0  0  0  0  0  0  0  0  0  0  0
    7.1473    2.0132    8.9265 H   0  0  0  0  0  0  0  0  0  0  0  0
    4.4094    3.2890    8.3534 H   0  0  0  0  0  0  0  0  0  0  0  0
    4.6882    1.8955    9.4059 H   0  0  0  0  0  0  0  0  0  0  0  0
    3.5221    1.7870    8.0823 H   0  0  0  0  0  0  0  0  0  0  0  0
    4.7005   -0.2456    7.2461 H   0  0  0  0  0  0  0  0  0  0  0  0
    5.9468   -0.1425    8.4961 H   0  0  0  0  0  0  0  0  0  0  0  0
    6.4090   -0.1713    6.7890 H   0  0  0  0  0  0  0  0  0  0  0  0
    9.1695    2.5165    3.0325 H   0  0  0  0  0  0  0  0  0  0  0  0
    8.7349    4.1453    2.4484 H   0  0  0  0  0  0  0  0  0  0  0  0
    9.6785    3.0535    1.4266 H   0  0  0  0  0  0  0  0  0  0  0  0
    6.2972    2.9463   -0.1419 H   0  0  0  0  0  0  0  0  0  0  0  0
    8.0094    3.2746   -0.4317 H   0  0  0  0  0  0  0  0  0  0  0  0
    7.0486    4.3840    0.5546 H   0  0  0  0  0  0  0  0  0  0  0  0
    7.9906    0.4820    2.0745 H   0  0  0  0  0  0  0  0  0  0  0  0
    8.6340    0.9722    0.5014 H   0  0  0  0  0  0  0  0  0  0  0  0
    6.9019    0.6728    0.6919 H   0  0  0  0  0  0  0  0  0  0  0  0
  1  3  1  0  0  0  0
  1  2  1  0  0  0  0
  1  8  1  0  0  0  0
  4 10  1  6  0  0  0
  4  9  1  0  0  0  0
  4  7  1  0  0  0  0
  4  6  1  0  0  0  0
  5 11  1  1  0  0  0
  5  8  1  0  0  0  0
  6 12  1  1  0  0  0
  6  1  1  0  0  0  0
  6  5  1  0  0  0  0
  7  5  1  0  0  0  0
  8 20  1  0  0  0  0
  9  1  1  0  0  0  0
 10 28  1  0  0  0  0
 11 33  1  0  0  0  0
 11 32  1  0  0  0  0
 12 15  1  0  0  0  0
 13 35  1  0  0  0  0
 13 12  1  0  0  0  0
 13 36  1  0  0  0  0
 14 39  1  0  0  0  0
 14 38  1  0  0  0  0
 14 12  1  0  0  0  0
 15 41  1  0  0  0  0
 15 42  1  0  0  0  0
 15 40  1  0  0  0  0
 16  7  1  0  0  0  0
 16 17  1  0  0  0  0
 17 44  1  0  0  0  0
 17 43  1  0  0  0  0
 18 16  1  0  0  0  0
 18 47  1  0  0  0  0
 19 51  1  0  0  0  0
 19 16  1  0  0  0  0
 20 23  1  0  0  0  0
 20 21  1  0  0  0  0
 20 22  1  0  0  0  0
 21 54  1  0  0  0  0
 22 56  1  0  0  0  0
 23 59  1  0  0  0  0
 24 25  1  0  0  0  0
 24  9  1  0  0  0  0
 25 62  1  0  0  0  0
 25 61  1  0  0  0  0
 26 66  1  0  0  0  0
 26 24  1  0  0  0  0
 27 24  1  0  0  0  0
 27 67  1  0  0  0  0
 29 10  1  0  0  0  0
 30 10  1  0  0  0  0
 31 11  1  0  0  0  0
 34 13  1  0  0  0  0
 37 14  1  0  0  0  0
 45 17  1  0  0  0  0
 46 18  1  0  0  0  0
 48 18  1  0  0  0  0
 49 19  1  0  0  0  0
 50 19  1  0  0  0  0
 52 21  1  0  0  0  0
 53 21  1  0  0  0  0
 55 22  1  0  0  0  0
 57 22  1  0  0  0  0
 58 23  1  0  0  0  0
 60 23  1  0  0  0  0
 63 25  1  0  0  0  0
 64 26  1  0  0  0  0
 65 26  1  0  0  0  0
 68 27  1  0  0  0  0
 69 27  1  0  0  0  0
M  END
$$$$
