CSD_code = NONWOE | q = 0 | S = 0 | Stoichiometry = C18H33ClO3P2Pd | MND = 4
 OpenBabel04212202073D

 58 59  0  0  0  0  0  0  0  0999 V2000
    5.4480    4.8243    1.8794 C   0  0  0  0  0  0  0  0  0  0  0  0
    4.8918    5.6917    2.2499 H   0  0  0  0  0  0  0  0  0  0  0  0
    5.6507    4.9620    0.8144 H   0  0  0  0  0  0  0  0  0  0  0  0
    6.4017    4.8008    2.4133 H   0  0  0  0  0  0  0  0  0  0  0  0
    6.1919    0.6178    3.1921 C   0  0  0  0  0  0  0  0  0  0  0  0
    6.5290   -0.3976    3.4238 H   0  0  0  0  0  0  0  0  0  0  0  0
    5.7095    1.0593    4.0740 H   0  0  0  0  0  0  0  0  0  0  0  0
    7.3350    1.5096    2.7450 C   0  0  0  0  0  0  0  0  0  0  0  0
    7.8170    1.1020    1.8591 H   0  0  0  0  0  0  0  0  0  0  0  0
    8.0615    1.6008    3.5474 H   0  0  0  0  0  0  0  0  0  0  0  0
    6.9284    2.5060    2.5225 H   0  0  0  0  0  0  0  0  0  0  0  0
    2.7276   -1.0033    4.3830 C   0  0  0  0  0  0  0  0  0  0  0  0
    2.4324   -2.0542    4.4546 H   0  0  0  0  0  0  0  0  0  0  0  0
    1.8382   -0.3832    4.2459 H   0  0  0  0  0  0  0  0  0  0  0  0
    3.4789   -0.5579    5.6252 C   0  0  0  0  0  0  0  0  0  0  0  0
    4.3981   -1.1286    5.7357 H   0  0  0  0  0  0  0  0  0  0  0  0
    2.8563   -0.7093    6.5029 H   0  0  0  0  0  0  0  0  0  0  0  0
    3.7237    0.4990    5.5467 H   0  0  0  0  0  0  0  0  0  0  0  0
    2.9298    0.1817    0.8071 C   0  0  0  0  0  0  0  0  0  0  0  0
    2.4051   -1.0718    0.5284 C   0  0  0  0  0  0  0  0  0  0  0  0
    2.5992   -1.8838    1.2120 H   0  0  0  0  0  0  0  0  0  0  0  0
    1.6492   -1.2773   -0.6084 C   0  0  0  0  0  0  0  0  0  0  0  0
    1.2553   -2.2596   -0.8251 H   0  0  0  0  0  0  0  0  0  0  0  0
    1.3651   -0.2182   -1.4650 C   0  0  0  0  0  0  0  0  0  0  0  0
    1.8955    1.0316   -1.1789 C   0  0  0  0  0  0  0  0  0  0  0  0
    1.6636    1.8526   -1.8398 H   0  0  0  0  0  0  0  0  0  0  0  0
    2.7005    1.2464   -0.0631 C   0  0  0  0  0  0  0  0  0  0  0  0
    0.5002   -0.4325   -2.6684 C   0  0  0  0  0  0  0  0  0  0  0  0
   -0.5068   -0.7118   -2.3608 H   0  0  0  0  0  0  0  0  0  0  0  0
    0.8953   -1.2419   -3.2800 H   0  0  0  0  0  0  0  0  0  0  0  0
    0.4398    0.4674   -3.2749 H   0  0  0  0  0  0  0  0  0  0  0  0
    2.0684    4.0281    0.0718 C   0  0  0  0  0  0  0  0  0  0  0  0
    1.3948    3.6851   -0.7219 H   0  0  0  0  0  0  0  0  0  0  0  0
    2.5421    5.4454   -0.2274 C   0  0  0  0  0  0  0  0  0  0  0  0
    1.6943    6.1289   -0.2232 H   0  0  0  0  0  0  0  0  0  0  0  0
    3.0256    5.5101   -1.2000 H   0  0  0  0  0  0  0  0  0  0  0  0
    3.2456    5.7668    0.5388 H   0  0  0  0  0  0  0  0  0  0  0  0
    1.3424    3.9816    1.4189 C   0  0  0  0  0  0  0  0  0  0  0  0
    2.0360    4.2779    2.2277 H   0  0  0  0  0  0  0  0  0  0  0  0
    0.9828    2.9722    1.6296 H   0  0  0  0  0  0  0  0  0  0  0  0
    0.4918    4.6615    1.4266 H   0  0  0  0  0  0  0  0  0  0  0  0
    4.6411    3.0595   -1.1943 C   0  0  0  0  0  0  0  0  0  0  0  0
    4.9791    4.1009   -1.1220 H   0  0  0  0  0  0  0  0  0  0  0  0
    4.0660    2.8323   -2.5854 C   0  0  0  0  0  0  0  0  0  0  0  0
    4.8142    3.1028   -3.3298 H   0  0  0  0  0  0  0  0  0  0  0  0
    3.1851    3.4470   -2.7584 H   0  0  0  0  0  0  0  0  0  0  0  0
    3.8088    1.7864   -2.7354 H   0  0  0  0  0  0  0  0  0  0  0  0
    5.8351    2.1458   -0.9233 C   0  0  0  0  0  0  0  0  0  0  0  0
    5.5341    1.0993   -0.9723 H   0  0  0  0  0  0  0  0  0  0  0  0
    6.2297    2.3440    0.0766 H   0  0  0  0  0  0  0  0  0  0  0  0
    6.6256    2.3143   -1.6526 H   0  0  0  0  0  0  0  0  0  0  0  0
    4.9560    3.5367    4.4881 Cl  0  0  0  0  0  0  0  0  0  0  0  0
    3.0366    1.5540    3.1889 O   0  0  0  0  0  0  0  0  0  0  0  0
    5.2437    0.5285    2.1076 O   0  0  0  0  0  0  0  0  0  0  0  0
    3.5507   -0.9214    3.2201 O   0  0  0  0  0  0  0  0  0  0  0  0
    3.5069    2.8583    0.2734 P   0  0  0  0  0  4  0  0  0  0  0  0
    3.6816    0.4686    2.4269 P   0  0  0  0  0  4  0  0  0  0  0  0
    4.3622    3.1654    2.3394 Pd  0  0  1  0  0  0  0  0  0  0  0  0
  1  2  1  0  0  0  0
  1 58  1  0  0  0  0
  1  4  1  0  0  0  0
  3  1  1  0  0  0  0
  5  6  1  0  0  0  0
  5  7  1  0  0  0  0
  8  5  1  0  0  0  0
  8 10  1  0  0  0  0
  9  8  1  0  0  0  0
 11  8  1  0  0  0  0
 12 13  1  0  0  0  0
 12 15  1  0  0  0  0
 14 12  1  0  0  0  0
 15 16  1  0  0  0  0
 15 17  1  0  0  0  0
 18 15  1  0  0  0  0
 19 57  1  0  0  0  0
 20 19  1  0  0  0  0
 20 21  1  0  0  0  0
 22 20  2  0  0  0  0
 23 22  1  0  0  0  0
 24 25  2  0  0  0  0
 24 22  1  0  0  0  0
 25 27  1  0  0  0  0
 26 25  1  0  0  0  0
 27 56  1  0  0  0  0
 27 19  2  0  0  0  0
 28 29  1  0  0  0  0
 28 24  1  0  0  0  0
 30 28  1  0  0  0  0
 31 28  1  0  0  0  0
 32 56  1  0  0  0  0
 32 38  1  0  0  0  0
 33 32  1  0  0  0  0
 34 35  1  0  0  0  0
 34 32  1  0  0  0  0
 34 37  1  0  0  0  0
 36 34  1  0  0  0  0
 38 41  1  0  0  0  0
 38 40  1  0  0  0  0
 38 39  1  0  0  0  0
 42 43  1  0  0  0  0
 42 48  1  0  0  0  0
 42 56  1  0  0  0  0
 44 42  1  0  0  0  0
 45 44  1  0  0  0  0
 46 44  1  0  0  0  0
 47 44  1  0  0  0  0
 48 50  1  0  0  0  0
 49 48  1  0  0  0  0
 51 48  1  0  0  0  0
 54 57  1  0  0  0  0
 54  5  1  0  0  0  0
 55 12  1  0  0  0  0
 56 58  1  0  0  0  0
 57 53  1  0  0  0  0
 57 55  1  0  0  0  0
 58 53  1  0  0  0  0
 58 52  1  6  0  0  0
M  END
$$$$
