CSD_code = NONWES | q = 0 | S = 0 | Stoichiometry = C6H12Cl2OPdS2 | MND = 4
 OpenBabel04212202073D

 24 25  0  0  0  0  0  0  0  0999 V2000
   -1.2139    4.8461    3.4010 Pd  0  0  0  0  0  0  0  0  0  0  0  0
   -1.2853    5.9249    1.4377 Cl  0  0  0  0  0  0  0  0  0  0  0  0
   -3.3694    4.2696    3.1981 Cl  0  0  0  0  0  0  0  0  0  0  0  0
    1.0811    5.3259    3.5918 S   0  0  1  0  0  3  0  0  0  0  0  0
   -1.1371    3.6869    5.4082 S   0  0  2  0  0  3  0  0  0  0  0  0
    0.0200    2.6096    2.7451 O   0  0  0  0  0  0  0  0  0  0  0  0
    1.6636    4.2715    5.0016 C   0  0  0  0  0  0  0  0  0  0  0  0
    0.5865    3.9198    6.0212 C   0  0  0  0  0  0  0  0  0  0  0  0
   -1.1836    1.9868    4.7282 C   0  0  0  0  0  0  0  0  0  0  0  0
   -0.0656    1.6281    3.7553 C   0  0  0  0  0  0  0  0  0  0  0  0
    1.2896    2.8518    2.1764 C   0  0  0  0  0  0  0  0  0  0  0  0
    1.5842    4.3551    2.1192 C   0  0  0  0  0  0  0  0  0  0  0  0
    2.1185    3.3846    4.5710 H   0  0  0  0  0  0  0  0  0  0  0  0
    2.4461    4.8507    5.4944 H   0  0  0  0  0  0  0  0  0  0  0  0
    0.4673    4.7420    6.7284 H   0  0  0  0  0  0  0  0  0  0  0  0
    0.8572    3.0203    6.5752 H   0  0  0  0  0  0  0  0  0  0  0  0
   -1.1927    1.2885    5.5648 H   0  0  0  0  0  0  0  0  0  0  0  0
   -2.1473    1.9728    4.2112 H   0  0  0  0  0  0  0  0  0  0  0  0
   -0.2992    0.6500    3.3066 H   0  0  0  0  0  0  0  0  0  0  0  0
    0.8894    1.5332    4.2936 H   0  0  0  0  0  0  0  0  0  0  0  0
    2.0708    2.3230    2.7406 H   0  0  0  0  0  0  0  0  0  0  0  0
    1.3023    2.4668    1.1476 H   0  0  0  0  0  0  0  0  0  0  0  0
    0.9895    4.8263    1.3295 H   0  0  0  0  0  0  0  0  0  0  0  0
    2.6469    4.5246    1.9463 H   0  0  0  0  0  0  0  0  0  0  0  0
  1  4  1  0  0  0  0
  1  5  1  0  0  0  0
  2  1  1  0  0  0  0
  3  1  1  0  0  0  0
  4 12  1  6  0  0  0
  4  7  1  0  0  0  0
  5  9  1  6  0  0  0
  5  8  1  0  0  0  0
  6 10  1  0  0  0  0
  7 14  1  0  0  0  0
  7  8  1  0  0  0  0
  8 16  1  0  0  0  0
  8 15  1  0  0  0  0
  9 17  1  0  0  0  0
 10 20  1  0  0  0  0
 10  9  1  0  0  0  0
 11 21  1  0  0  0  0
 11  6  1  0  0  0  0
 12 11  1  0  0  0  0
 13  7  1  0  0  0  0
 18  9  1  0  0  0  0
 19 10  1  0  0  0  0
 22 11  1  0  0  0  0
 23 12  1  0  0  0  0
 24 12  1  0  0  0  0
M  END
$$$$
