CSD_code = NONZAT | q = 0 | S = 0 | Stoichiometry = C28H25Br2N2PPd | MND = 4
 OpenBabel04212202073D

 59 64  0  0  1  0  0  0  0  0999 V2000
    6.7435    2.9309   12.4313 Pd  0  0  0  0  0  0  0  0  0  0  0  0
    8.1527    2.9090   10.4669 Br  0  0  0  0  0  0  0  0  0  0  0  0
    8.1148    4.5081   13.6400 Br  0  0  0  0  0  0  0  0  0  0  0  0
    5.1650    3.3104   13.9859 P   0  0  0  0  0  4  0  0  0  0  0  0
    4.9014    1.6193   10.5155 N   0  0  0  0  0  0  0  0  0  0  0  0
    4.2163    0.4703   10.2237 N   0  0  1  0  0  0  0  0  0  0  0  0
    5.6539    1.5177   11.5918 C   0  0  0  0  0  0  0  0  0  0  0  0
    5.4490    0.1782   12.0473 C   0  0  0  0  0  0  0  0  0  0  0  0
    5.9728   -0.5232   13.1332 C   0  0  0  0  0  0  0  0  0  0  0  0
    6.6834   -0.0386   13.7943 H   0  0  0  0  0  0  0  0  0  0  0  0
    5.5639   -1.8224   13.3219 C   0  0  0  0  0  0  0  0  0  0  0  0
    5.9485   -2.3942   14.1526 H   0  0  0  0  0  0  0  0  0  0  0  0
    4.6520   -2.4272   12.4481 C   0  0  0  0  0  0  0  0  0  0  0  0
    4.3578   -3.4501   12.6308 H   0  0  0  0  0  0  0  0  0  0  0  0
    4.1231   -1.7626   11.3634 C   0  0  0  0  0  0  0  0  0  0  0  0
    3.4240   -2.2395   10.6941 H   0  0  0  0  0  0  0  0  0  0  0  0
    4.5304   -0.4476   11.1634 C   0  0  1  0  0  3  0  0  0  0  0  0
    3.4099    0.6131    9.0477 C   0  0  0  0  0  0  0  0  0  0  0  0
    2.3657    0.8118    9.3239 H   0  0  0  0  0  0  0  0  0  0  0  0
    3.4499   -0.2847    8.4288 H   0  0  0  0  0  0  0  0  0  0  0  0
    4.0589    1.8320    8.3708 C   0  0  0  0  0  0  0  0  0  0  0  0
    3.3472    2.4052    7.7828 H   0  0  0  0  0  0  0  0  0  0  0  0
    4.8701    1.5056    7.7199 H   0  0  0  0  0  0  0  0  0  0  0  0
    4.6338    2.6415    9.5409 C   0  0  0  0  0  0  0  0  0  0  0  0
    5.5584    3.1698    9.2863 H   0  0  0  0  0  0  0  0  0  0  0  0
    3.9009    3.3524    9.9414 H   0  0  0  0  0  0  0  0  0  0  0  0
    5.3775    2.8778   15.7312 C   0  0  0  0  0  0  0  0  0  0  0  0
    6.6227    2.4228   16.1512 C   0  0  0  0  0  0  0  0  0  0  0  0
    7.4397    2.3598   15.4384 H   0  0  0  0  0  0  0  0  0  0  0  0
    6.8171    2.0608   17.4720 C   0  0  0  0  0  0  0  0  0  0  0  0
    7.7862    1.7141   17.7982 H   0  0  0  0  0  0  0  0  0  0  0  0
    5.7678    2.1442   18.3721 C   0  0  0  0  0  0  0  0  0  0  0  0
    5.9187    1.8650   19.4045 H   0  0  0  0  0  0  0  0  0  0  0  0
    4.5186    2.5747   17.9505 C   0  0  0  0  0  0  0  0  0  0  0  0
    3.6985    2.6248   18.6521 H   0  0  0  0  0  0  0  0  0  0  0  0
    4.3163    2.9363   16.6320 C   0  0  0  0  0  0  0  0  0  0  0  0
    3.3364    3.2466   16.2932 H   0  0  0  0  0  0  0  0  0  0  0  0
    4.7851    5.0867   13.8728 C   0  0  0  0  0  0  0  0  0  0  0  0
    4.3145    5.8590   14.9255 C   0  0  0  0  0  0  0  0  0  0  0  0
    4.1657    5.4179   15.9000 H   0  0  0  0  0  0  0  0  0  0  0  0
    4.0681    7.2076   14.7296 C   0  0  0  0  0  0  0  0  0  0  0  0
    3.7136    7.8097   15.5531 H   0  0  0  0  0  0  0  0  0  0  0  0
    4.2864    7.7870   13.4918 C   0  0  0  0  0  0  0  0  0  0  0  0
    4.0995    8.8407   13.3485 H   0  0  0  0  0  0  0  0  0  0  0  0
    4.7680    7.0219   12.4401 C   0  0  0  0  0  0  0  0  0  0  0  0
    4.9621    7.4776   11.4806 H   0  0  0  0  0  0  0  0  0  0  0  0
    5.0220    5.6783   12.6306 C   0  0  0  0  0  0  0  0  0  0  0  0
    5.4481    5.0774   11.8145 H   0  0  0  0  0  0  0  0  0  0  0  0
    3.5696    2.5274   13.5667 C   0  0  0  0  0  0  0  0  0  0  0  0
    3.3019    1.2368   14.0175 C   0  0  0  0  0  0  0  0  0  0  0  0
    3.9542    0.7824   14.7510 H   0  0  0  0  0  0  0  0  0  0  0  0
    2.2151    0.5366   13.5297 C   0  0  0  0  0  0  0  0  0  0  0  0
    2.0209   -0.4654   13.8823 H   0  0  0  0  0  0  0  0  0  0  0  0
    1.3855    1.1128   12.5809 C   0  0  0  0  0  0  0  0  0  0  0  0
    0.5421    0.5608   12.1930 H   0  0  0  0  0  0  0  0  0  0  0  0
    1.6373    2.4007   12.1360 C   0  0  0  0  0  0  0  0  0  0  0  0
    0.9840    2.8591   11.4066 H   0  0  0  0  0  0  0  0  0  0  0  0
    2.7252    3.1034   12.6214 C   0  0  0  0  0  0  0  0  0  0  0  0
    2.9205    4.1105   12.2747 H   0  0  0  0  0  0  0  0  0  0  0  0
  1  3  1  0  0  0  0
  1  4  1  0  0  0  0
  2  1  1  0  0  0  0
  4 27  1  0  0  0  0
  5  7  1  0  0  0  0
  6 18  1  1  0  0  0
  6  5  1  0  0  0  0
  6 17  1  0  0  0  0
  7  8  2  0  0  0  0
  7  1  1  0  0  0  0
  8  9  1  0  0  0  0
  9 11  2  0  0  0  0
  9 10  1  0  0  0  0
 11 12  1  0  0  0  0
 13 14  1  0  0  0  0
 13 11  1  0  0  0  0
 15 13  2  0  0  0  0
 16 15  1  0  0  0  0
 17 15  1  1  0  0  0
 17  8  1  0  0  0  0
 18 19  1  0  0  0  0
 20 18  1  0  0  0  0
 21 18  1  0  0  0  0
 21 24  1  0  0  0  0
 22 21  1  0  0  0  0
 23 21  1  0  0  0  0
 24 26  1  0  0  0  0
 24  5  1  0  0  0  0
 25 24  1  0  0  0  0
 27 28  2  0  0  0  0
 27 36  1  0  0  0  0
 28 30  1  0  0  0  0
 29 28  1  0  0  0  0
 30 31  1  0  0  0  0
 30 32  2  0  0  0  0
 32 33  1  0  0  0  0
 34 32  1  0  0  0  0
 34 35  1  0  0  0  0
 36 34  2  0  0  0  0
 37 36  1  0  0  0  0
 38  4  1  0  0  0  0
 38 39  1  0  0  0  0
 39 40  1  0  0  0  0
 41 39  2  0  0  0  0
 41 42  1  0  0  0  0
 43 41  1  0  0  0  0
 44 43  1  0  0  0  0
 45 47  1  0  0  0  0
 45 43  2  0  0  0  0
 46 45  1  0  0  0  0
 47 38  2  0  0  0  0
 48 47  1  0  0  0  0
 49  4  1  0  0  0  0
 49 50  1  0  0  0  0
 50 51  1  0  0  0  0
 52 53  1  0  0  0  0
 52 50  2  0  0  0  0
 54 52  1  0  0  0  0
 55 54  1  0  0  0  0
 56 54  2  0  0  0  0
 56 58  1  0  0  0  0
 57 56  1  0  0  0  0
 58 49  2  0  0  0  0
 59 58  1  0  0  0  0
M  END
$$$$
