CSD_code = NOPNUC | q = 0 | S = 0 | Stoichiometry = C21H16Cl2NPZn | MND = 4
 OpenBabel04212202073D

 42 46  0  0  0  0  0  0  0  0999 V2000
    8.5641    3.8934    3.9702 Zn  0  0  0  0  0  0  0  0  0  0  0  0
    7.0920    5.5229    3.5811 Cl  0  0  0  0  0  0  0  0  0  0  0  0
   10.1936    3.5827    5.4001 Cl  0  0  0  0  0  0  0  0  0  0  0  0
    7.3318    2.2099    2.5667 P   0  0  0  0  0  4  0  0  0  0  0  0
    9.5675    4.0223    2.0395 N   0  0  0  0  0  0  0  0  0  0  0  0
   10.6952    4.6844    1.9427 C   0  0  0  0  0  0  0  0  0  0  0  0
   11.0530    5.4257    0.8081 C   0  0  0  0  0  0  0  0  0  0  0  0
   10.1731    5.4980   -0.2383 C   0  0  0  0  0  0  0  0  0  0  0  0
    8.9575    4.7873   -0.1711 C   0  0  0  0  0  0  0  0  0  0  0  0
    7.9954    4.8033   -1.2016 C   0  0  0  0  0  3  0  0  0  0  0  0
    6.8364    4.0896   -1.0737 C   0  0  0  0  0  0  0  0  0  0  0  0
    6.6000    3.3085    0.0666 C   0  0  0  0  0  0  0  0  0  0  0  0
    7.5155    3.2589    1.0905 C   0  0  0  0  0  0  0  0  0  0  0  0
    8.7042    4.0257    1.0000 C   0  0  0  0  0  0  0  0  0  0  0  0
    5.5712    1.7789    2.5389 C   0  0  0  0  0  0  0  0  0  0  0  0
    4.6639    2.8299    2.6753 C   0  0  0  0  0  0  0  0  0  0  0  0
    3.3089    2.5640    2.7237 C   0  0  0  0  0  0  0  0  0  0  0  0
    2.8545    1.2555    2.6542 C   0  0  0  0  0  0  0  0  0  0  0  0
    3.7572    0.2105    2.5467 C   0  0  0  0  0  0  0  0  0  0  0  0
    5.1168    0.4656    2.4967 C   0  0  0  0  0  0  0  0  0  0  0  0
    8.2343    0.7321    2.0014 C   0  0  0  0  0  0  0  0  0  0  0  0
    7.9477    0.1194    0.7847 C   0  0  0  0  0  0  0  0  0  0  0  0
    8.6646   -0.9956    0.3935 C   0  0  0  0  0  0  0  0  0  0  0  0
    9.6693   -1.4986    1.2066 C   0  0  0  0  0  0  0  0  0  0  0  0
    9.9623   -0.8839    2.4125 C   0  0  0  0  0  0  0  0  0  0  0  0
    9.2472    0.2320    2.8118 C   0  0  0  0  0  0  0  0  0  0  0  0
   11.3481    4.6368    2.8043 H   0  0  0  0  0  0  0  0  0  0  0  0
   11.9962    5.9478    0.7889 H   0  0  0  0  0  0  0  0  0  0  0  0
   10.3895    6.0919   -1.1148 H   0  0  0  0  0  0  0  0  0  0  0  0
    8.1922    5.3903   -2.0866 H   0  0  0  0  0  0  0  0  0  0  0  0
    6.0935    4.1126   -1.8569 H   0  0  0  0  0  0  0  0  0  0  0  0
    5.6783    2.7488    0.1401 H   0  0  0  0  0  0  0  0  0  0  0  0
    5.0337    3.8445    2.7479 H   0  0  0  0  0  0  0  0  0  0  0  0
    2.6056    3.3770    2.8238 H   0  0  0  0  0  0  0  0  0  0  0  0
    1.7952    1.0493    2.6946 H   0  0  0  0  0  0  0  0  0  0  0  0
    3.4027   -0.8090    2.5064 H   0  0  0  0  0  0  0  0  0  0  0  0
    5.8222   -0.3502    2.4235 H   0  0  0  0  0  0  0  0  0  0  0  0
    7.1658    0.5170    0.1521 H   0  0  0  0  0  0  0  0  0  0  0  0
    8.4412   -1.4747   -0.5486 H   0  0  0  0  0  0  0  0  0  0  0  0
   10.2256   -2.3704    0.8955 H   0  0  0  0  0  0  0  0  0  0  0  0
   10.7479   -1.2727    3.0427 H   0  0  0  0  0  0  0  0  0  0  0  0
    9.4722    0.7238    3.7490 H   0  0  0  0  0  0  0  0  0  0  0  0
  1  3  1  0  0  0  0
  2  1  1  0  0  0  0
  4  1  1  0  0  0  0
  5  1  1  0  0  0  0
  6  5  1  0  0  0  0
  6 27  1  0  0  0  0
  7  6  2  0  0  0  0
  8  9  2  0  0  0  0
  8  7  1  0  0  0  0
  9 14  1  0  0  0  0
 10 11  1  0  0  0  0
 10  9  1  0  0  0  0
 11 12  2  0  0  0  0
 12 32  1  0  0  0  0
 12 13  1  0  0  0  0
 13  4  1  0  0  0  0
 14 13  2  0  0  0  0
 14  5  1  0  0  0  0
 15  4  1  0  0  0  0
 15 16  1  0  0  0  0
 16 17  2  0  0  0  0
 16 33  1  0  0  0  0
 17 34  1  0  0  0  0
 18 35  1  0  0  0  0
 18 17  1  0  0  0  0
 19 18  2  0  0  0  0
 20 15  2  0  0  0  0
 20 19  1  0  0  0  0
 21  4  1  0  0  0  0
 21 26  1  0  0  0  0
 22 21  2  0  0  0  0
 23 22  1  0  0  0  0
 23 24  2  0  0  0  0
 24 25  1  0  0  0  0
 25 26  2  0  0  0  0
 25 41  1  0  0  0  0
 26 42  1  0  0  0  0
 28  7  1  0  0  0  0
 29  8  1  0  0  0  0
 30 10  1  0  0  0  0
 31 11  1  0  0  0  0
 36 19  1  0  0  0  0
 37 20  1  0  0  0  0
 38 22  1  0  0  0  0
 39 23  1  0  0  0  0
 40 24  1  0  0  0  0
M  END
$$$$
