CSD_code = NOPXOF | q = 0 | S = 0 | Stoichiometry = C20H12I2N4Pd | MND = 4
 OpenBabel04212202073D

 39 42  0  0  0  0  0  0  0  0999 V2000
    0.6851   13.0116   -0.5288 I   0  0  0  0  0  0  0  0  0  0  0  0
    2.9448   11.8322    0.0684 Pd  0  0  0  0  0  0  0  0  0  0  0  0
    4.1629   14.6322    0.3641 N   0  0  0  0  0  2  0  0  0  0  0  0
    6.5367   17.2763    0.8917 N   0  0  0  0  0  0  0  0  0  0  0  0
    4.2428   20.6639    0.2448 C   0  0  0  0  0  0  0  0  0  0  0  0
    5.6061   20.7630    0.5703 C   0  0  0  0  0  0  0  0  0  0  0  0
    6.3577   19.6401    0.7836 C   0  0  0  0  0  0  0  0  0  0  0  0
    5.7689   18.3653    0.6766 C   0  0  0  0  0  0  0  0  0  0  0  0
    4.3862   18.2636    0.3447 C   0  0  0  0  0  0  0  0  0  0  0  0
    3.8299   16.9772    0.2395 C   0  0  0  0  0  0  0  0  0  0  0  0
    3.6407   19.4417    0.1338 C   0  0  0  0  0  0  0  0  0  0  0  0
    6.0127   16.0966    0.7920 C   0  0  0  0  0  0  0  0  0  0  0  0
    3.7400   13.5493    0.2689 C   0  0  0  0  0  2  0  0  0  0  0  0
    4.6473   15.8903    0.4617 C   0  0  0  0  0  0  0  0  0  0  0  0
    3.6719   21.5656    0.0819 H   0  0  0  0  0  0  0  0  0  0  0  0
    6.0578   21.7403    0.6506 H   0  0  0  0  0  0  0  0  0  0  0  0
    7.4050   19.6936    1.0347 H   0  0  0  0  0  0  0  0  0  0  0  0
    2.7864   16.8459   -0.0117 H   0  0  0  0  0  0  0  0  0  0  0  0
    2.5932   19.3569   -0.1163 H   0  0  0  0  0  0  0  0  0  0  0  0
    6.6613   15.2490    0.9711 H   0  0  0  0  0  0  0  0  0  0  0  0
    5.2061   10.6530    0.6579 I   0  0  0  0  0  0  0  0  0  0  0  0
    2.1473   10.1171   -0.1393 C   0  0  0  0  0  2  0  0  0  0  0  0
    1.7181    9.0384   -0.2519 N   0  0  0  0  0  2  0  0  0  0  0  0
    1.2156    7.7910   -0.3864 C   0  0  0  0  0  0  0  0  0  0  0  0
    2.0156    6.6858   -0.1931 C   0  0  0  0  0  0  0  0  0  0  0  0
    1.4431    5.4116   -0.3482 C   0  0  0  0  0  0  0  0  0  0  0  0
    0.0628    5.3407   -0.6978 C   0  0  0  0  0  0  0  0  0  0  0  0
   -0.6893    6.4469   -0.8767 N   0  0  0  0  0  0  0  0  0  0  0  0
   -0.1506    7.6151   -0.7308 C   0  0  0  0  0  0  0  0  0  0  0  0
   -0.7867    8.4773   -0.8830 H   0  0  0  0  0  0  0  0  0  0  0  0
   -0.5399    4.0787   -0.8639 C   0  0  0  0  0  0  0  0  0  0  0  0
    0.1961    2.9388   -0.6903 C   0  0  0  0  0  0  0  0  0  0  0  0
    1.5562    3.0076   -0.3443 C   0  0  0  0  0  0  0  0  0  0  0  0
    2.1713    4.2166   -0.1752 C   0  0  0  0  0  0  0  0  0  0  0  0
    3.2165    4.2780    0.0909 H   0  0  0  0  0  0  0  0  0  0  0  0
    2.1145    2.0929   -0.2125 H   0  0  0  0  0  0  0  0  0  0  0  0
   -0.2655    1.9712   -0.8186 H   0  0  0  0  0  0  0  0  0  0  0  0
   -1.5847    4.0485   -1.1288 H   0  0  0  0  0  0  0  0  0  0  0  0
    3.0587    6.7937    0.0704 H   0  0  0  0  0  0  0  0  0  0  0  0
  1  2  1  0  0  0  0
  2 13  1  0  0  0  0
  2 21  1  0  0  0  0
  3 14  1  0  0  0  0
  5  6  1  0  0  0  0
  6 16  1  0  0  0  0
  6  7  2  0  0  0  0
  7 17  1  0  0  0  0
  8  7  1  0  0  0  0
  8  4  2  0  0  0  0
  9  8  1  0  0  0  0
 10  9  2  0  0  0  0
 10 14  1  0  0  0  0
 11  5  2  0  0  0  0
 11  9  1  0  0  0  0
 12  4  1  0  0  0  0
 12 20  1  0  0  0  0
 13  3  1  0  0  0  0
 14 12  2  0  0  0  0
 15  5  1  0  0  0  0
 18 10  1  0  0  0  0
 19 11  1  0  0  0  0
 22  2  1  0  0  0  0
 23 22  1  0  0  0  0
 24 23  1  0  0  0  0
 24 25  1  0  0  0  0
 25 39  1  0  0  0  0
 26 25  2  0  0  0  0
 26 34  1  0  0  0  0
 27 26  1  0  0  0  0
 28 29  1  0  0  0  0
 28 27  2  0  0  0  0
 29 24  2  0  0  0  0
 30 29  1  0  0  0  0
 31 27  1  0  0  0  0
 31 32  2  0  0  0  0
 32 33  1  0  0  0  0
 33 36  1  0  0  0  0
 33 34  2  0  0  0  0
 34 35  1  0  0  0  0
 37 32  1  0  0  0  0
 38 31  1  0  0  0  0
M  END
$$$$
