CSD_code = NOQLUB | q = 0 | S = 0 | Stoichiometry = C14H18Cl2N2Pd | MND = 4
 OpenBabel04212202073D

 37 38  0  0  0  0  0  0  0  0999 V2000
   -0.0000    4.0326   -0.0002 Pd  0  0  0  0  0  0  0  0  0  0  0  0
   -0.4051    5.8513    1.3528 Cl  0  0  0  0  0  0  0  0  0  0  0  0
    0.8041    3.1517    1.6984 N   0  0  0  0  0  4  0  0  0  0  0  0
    0.9187    4.0116    2.2527 H   0  0  0  0  0  0  0  0  0  0  0  0
    0.1167    2.5423    2.1492 H   0  0  0  0  0  0  0  0  0  0  0  0
    2.0296    2.4601    1.4772 C   0  0  0  0  0  0  0  0  0  0  0  0
    3.1414    3.1498    0.9758 C   0  0  0  0  0  0  0  0  0  0  0  0
    4.3129    2.4386    0.7588 C   0  0  0  0  0  0  0  0  0  0  0  0
    5.1751    2.9575    0.3660 H   0  0  0  0  0  0  0  0  0  0  0  0
    4.3919    1.0825    1.0225 C   0  0  0  0  0  0  0  0  0  0  0  0
    5.3133    0.5511    0.8397 H   0  0  0  0  0  0  0  0  0  0  0  0
    3.2851    0.4083    1.5066 C   0  0  0  0  0  0  0  0  0  0  0  0
    3.3333   -0.6516    1.7035 H   0  0  0  0  0  0  0  0  0  0  0  0
    2.1092    1.0978    1.7370 C   0  0  0  0  0  0  0  0  0  0  0  0
    1.2370    0.5744    2.1047 H   0  0  0  0  0  0  0  0  0  0  0  0
    3.0440    4.6046    0.6303 C   0  0  0  0  0  0  0  0  0  0  0  0
    2.2804    4.7526   -0.1658 H   0  0  0  0  0  0  0  0  0  0  0  0
    3.9976    4.9725    0.2605 H   0  0  0  0  0  0  0  0  0  0  0  0
    2.7502    5.2065    1.4936 H   0  0  0  0  0  0  0  0  0  0  0  0
    0.4050    2.2141   -1.3533 Cl  0  0  0  0  0  0  0  0  0  0  0  0
   -0.8042    4.9136   -1.6988 N   0  0  0  0  0  4  0  0  0  0  0  0
   -0.9189    4.0539   -2.2532 H   0  0  0  0  0  0  0  0  0  0  0  0
   -0.1168    5.5232   -2.1496 H   0  0  0  0  0  0  0  0  0  0  0  0
   -2.0297    5.6053   -1.4773 C   0  0  0  0  0  0  0  0  0  0  0  0
   -3.1414    4.9155   -0.9760 C   0  0  0  0  0  0  0  0  0  0  0  0
   -4.3129    5.6266   -0.7586 C   0  0  0  0  0  0  0  0  0  0  0  0
   -5.1751    5.1076   -0.3659 H   0  0  0  0  0  0  0  0  0  0  0  0
   -4.3918    6.9828   -1.0217 C   0  0  0  0  0  0  0  0  0  0  0  0
   -5.3131    7.5143   -0.8385 H   0  0  0  0  0  0  0  0  0  0  0  0
   -3.2850    7.6572   -1.5056 C   0  0  0  0  0  0  0  0  0  0  0  0
   -3.3331    8.7172   -1.7020 H   0  0  0  0  0  0  0  0  0  0  0  0
   -2.1092    6.9677   -1.7365 C   0  0  0  0  0  0  0  0  0  0  0  0
   -1.2370    7.4912   -2.1040 H   0  0  0  0  0  0  0  0  0  0  0  0
   -3.0441    3.4604   -0.6311 C   0  0  0  0  0  0  0  0  0  0  0  0
   -2.2803    3.3121    0.1648 H   0  0  0  0  0  0  0  0  0  0  0  0
   -3.9976    3.0925   -0.2612 H   0  0  0  0  0  0  0  0  0  0  0  0
   -2.7505    2.8589   -1.4946 H   0  0  0  0  0  0  0  0  0  0  0  0
  1  2  1  0  0  0  0
  1  3  1  0  0  0  0
  3  5  1  0  0  0  0
  3  4  1  0  0  0  0
  6  3  1  0  0  0  0
  6 14  1  0  0  0  0
  7  6  2  0  0  0  0
  8  7  1  0  0  0  0
  8 10  2  0  0  0  0
  9  8  1  0  0  0  0
 10 12  1  0  0  0  0
 11 10  1  0  0  0  0
 12 13  1  0  0  0  0
 12 14  2  0  0  0  0
 14 15  1  0  0  0  0
 16  7  1  0  0  0  0
 16 19  1  0  0  0  0
 17 16  1  0  0  0  0
 18 16  1  0  0  0  0
 20  1  1  0  0  0  0
 21 24  1  0  0  0  0
 21  1  1  0  0  0  0
 22 21  1  0  0  0  0
 23 21  1  0  0  0  0
 24 25  1  0  0  0  0
 25 26  2  0  0  0  0
 25 34  1  0  0  0  0
 26 27  1  0  0  0  0
 28 29  1  0  0  0  0
 28 26  1  0  0  0  0
 30 28  2  0  0  0  0
 31 30  1  0  0  0  0
 32 30  1  0  0  0  0
 32 24  2  0  0  0  0
 33 32  1  0  0  0  0
 34 36  1  0  0  0  0
 34 35  1  0  0  0  0
 37 34  1  0  0  0  0
M  END
$$$$
