CSD_code = NOQMAH | q = 0 | S = 0 | Stoichiometry = C24H27ClN2W | MND = 8
 OpenBabel04212202073D

 55 58  0  0  1  0  0  0  0  0999 V2000
    1.4303   12.3238    3.5384 W   0  0  0  0  0  0  0  0  0  0  0  0
    3.2195   13.6913    2.9417 Cl  0  0  0  0  0  0  0  0  0  0  0  0
    1.8031   10.9447    2.4463 N   0  0  0  0  0  2  0  0  0  0  0  0
    1.9810   11.9050    5.2028 N   0  0  0  0  0  2  0  0  0  0  0  0
    1.9898    9.7160    1.9445 C   0  0  0  0  0  0  0  0  0  0  0  0
    1.6650    9.4118    0.6088 C   0  0  0  0  0  0  0  0  0  0  0  0
    1.8240    8.1361    0.1124 C   0  0  0  0  0  0  0  0  0  0  0  0
    2.3131    7.1277    0.9277 C   0  0  0  0  0  0  0  0  0  0  0  0
    2.6528    7.4095    2.2428 C   0  0  0  0  0  0  0  0  0  0  0  0
    2.5069    8.6791    2.7662 C   0  0  0  0  0  0  0  0  0  0  0  0
    2.8681    9.0084    4.1819 C   0  0  0  0  0  0  0  0  0  0  0  0
    1.6107    9.1302    5.0725 C   0  0  0  0  0  0  0  0  0  0  0  0
    1.9552    9.8170    6.3588 C   0  0  0  0  0  0  0  0  0  0  0  0
    2.0956    9.1304    7.5477 C   0  0  0  0  0  0  0  0  0  0  0  0
    2.4620    9.7786    8.7186 C   0  0  0  0  0  0  0  0  0  0  0  0
    2.6949   11.1447    8.7012 C   0  0  0  0  0  0  0  0  0  0  0  0
    2.5427   11.8611    7.5342 C   0  0  0  0  0  0  0  0  0  0  0  0
    2.1701   11.2237    6.3351 C   0  0  0  0  0  0  0  0  0  0  0  0
   -1.6049   11.0191    2.4968 C   0  0  0  0  0  0  0  0  0  0  0  0
   -0.8256   12.2128    2.9855 C   0  0  2  0  0  0  0  0  0  0  0  0
   -0.3164   13.2737    0.6522 C   0  0  0  0  0  0  0  0  0  0  0  0
   -0.2734   13.2369    2.1539 C   0  0  0  0  0  0  0  0  0  0  0  0
    0.6713   15.6297    2.5156 C   0  0  0  0  0  0  0  0  0  0  0  0
    0.1755   14.2965    2.9944 C   0  0  0  0  0  0  0  0  0  0  0  0
    0.0284   14.8573    5.5376 C   0  0  0  0  0  0  0  0  0  0  0  0
   -0.1206   13.9565    4.3449 C   0  0  0  0  0  0  0  0  0  0  0  0
   -1.3804   12.0245    5.5535 C   0  0  0  0  0  0  0  0  0  0  0  0
   -0.7304   12.6652    4.3556 C   0  0  0  0  0  0  0  0  0  0  0  0
    1.2956   10.2082   -0.0233 H   0  0  0  0  0  0  0  0  0  0  0  0
    1.5674    7.9233   -0.9159 H   0  0  0  0  0  0  0  0  0  0  0  0
    2.4376    6.1281    0.5391 H   0  0  0  0  0  0  0  0  0  0  0  0
    3.0477    6.6235    2.8720 H   0  0  0  0  0  0  0  0  0  0  0  0
    3.3843    9.9801    4.1887 H   0  0  0  0  0  0  0  0  0  0  0  0
    3.5315    8.2483    4.5977 H   0  0  0  0  0  0  0  0  0  0  0  0
    0.8656    9.7409    4.5291 H   0  0  0  0  0  0  0  0  0  0  0  0
    1.1959    8.1377    5.2588 H   0  0  0  0  0  0  0  0  0  0  0  0
    1.9279    8.0618    7.5598 H   0  0  0  0  0  0  0  0  0  0  0  0
    2.5741    9.2189    9.6349 H   0  0  0  0  0  0  0  0  0  0  0  0
    2.9924   11.6534    9.6072 H   0  0  0  0  0  0  0  0  0  0  0  0
    2.7303   12.9259    7.5084 H   0  0  0  0  0  0  0  0  0  0  0  0
   -1.7613   10.3002    3.2988 H   0  0  0  0  0  0  0  0  0  0  0  0
   -1.0787   10.5100    1.6893 H   0  0  0  0  0  0  0  0  0  0  0  0
   -2.5813   11.3361    2.1248 H   0  0  0  0  0  0  0  0  0  0  0  0
   -1.1442   13.9021    0.3156 H   0  0  0  0  0  0  0  0  0  0  0  0
   -0.4613   12.2757    0.2447 H   0  0  0  0  0  0  0  0  0  0  0  0
    0.6059   13.6831    0.2398 H   0  0  0  0  0  0  0  0  0  0  0  0
   -0.1717   16.3118    2.3832 H   0  0  0  0  0  0  0  0  0  0  0  0
    1.1890   15.5365    1.5628 H   0  0  0  0  0  0  0  0  0  0  0  0
    1.3624   16.0745    3.2296 H   0  0  0  0  0  0  0  0  0  0  0  0
    0.8515   15.5567    5.4006 H   0  0  0  0  0  0  0  0  0  0  0  0
    0.2154   14.2787    6.4407 H   0  0  0  0  0  0  0  0  0  0  0  0
   -0.8862   15.4354    5.6883 H   0  0  0  0  0  0  0  0  0  0  0  0
   -0.7537   12.1299    6.4389 H   0  0  0  0  0  0  0  0  0  0  0  0
   -1.5498   10.9619    5.3891 H   0  0  0  0  0  0  0  0  0  0  0  0
   -2.3424   12.4999    5.7564 H   0  0  0  0  0  0  0  0  0  0  0  0
  1  4  1  0  0  0  0
  2  1  1  0  0  0  0
  3  1  1  0  0  0  0
  4 18  1  0  0  0  0
  5  3  1  0  0  0  0
  5 10  1  0  0  0  0
  6  5  2  0  0  0  0
  7  6  1  0  0  0  0
  7  8  2  0  0  0  0
  8  9  1  0  0  0  0
  9 10  2  0  0  0  0
  9 32  1  0  0  0  0
 10 11  1  0  0  0  0
 11 33  1  0  0  0  0
 11 34  1  0  0  0  0
 11 12  1  0  0  0  0
 12 36  1  0  0  0  0
 12 13  1  0  0  0  0
 13 14  1  0  0  0  0
 14 37  1  0  0  0  0
 14 15  2  0  0  0  0
 15 38  1  0  0  0  0
 16 15  1  0  0  0  0
 16 39  1  0  0  0  0
 17 16  2  0  0  0  0
 18 13  2  0  0  0  0
 18 17  1  0  0  0  0
 19 41  1  0  0  0  0
 20 19  1  6  0  0  0
 20  1  1  0  0  0  0
 20 28  1  0  0  0  0
 21 22  1  0  0  0  0
 22 20  1  0  0  0  0
 22 24  2  0  0  0  0
 23 24  1  0  0  0  0
 23 49  1  0  0  0  0
 24 26  1  0  0  0  0
 25 52  1  0  0  0  0
 25 51  1  0  0  0  0
 26 28  2  0  0  0  0
 26 25  1  0  0  0  0
 27 55  1  0  0  0  0
 27 53  1  0  0  0  0
 28 27  1  0  0  0  0
 29  6  1  0  0  0  0
 30  7  1  0  0  0  0
 31  8  1  0  0  0  0
 35 12  1  0  0  0  0
 40 17  1  0  0  0  0
 42 19  1  0  0  0  0
 43 19  1  0  0  0  0
 44 21  1  0  0  0  0
 45 21  1  0  0  0  0
 46 21  1  0  0  0  0
 47 23  1  0  0  0  0
 48 23  1  0  0  0  0
 50 25  1  0  0  0  0
 54 27  1  0  0  0  0
M  END
$$$$
