CSD_code = NOQPIT | q = 0 | S = 0 | Stoichiometry = C14H20BrIN2O3Zn | MND = 4
 OpenBabel04212202073D

 42 44  0  0  1  0  0  0  0  0999 V2000
    3.4841   13.9294    2.4008 Zn  0  0  1  0  0  0  0  0  0  0  0  0
    1.0263   14.0624    2.1091 I   0  0  0  0  0  0  0  0  0  0  0  0
    7.9976    8.0940    1.4171 Br  0  0  0  0  0  0  0  0  0  0  0  0
    4.0268   12.2528    3.1239 O   0  0  0  0  0  0  0  0  0  0  0  0
    4.7261   17.8238    4.0272 O   0  0  0  0  0  0  0  0  0  0  0  0
    3.2420   14.3542    4.7633 O   0  0  0  0  0  0  0  0  0  0  0  0
    4.7211   13.6591    0.8062 N   0  0  2  0  0  0  0  0  0  0  0  0
    4.1120   16.1257    1.7958 N   0  0  0  0  0  4  0  0  0  0  0  0
    5.6494   11.5456    1.5180 C   0  0  0  0  0  0  0  0  0  0  0  0
    4.8809   11.3954    2.7145 C   0  0  0  0  0  0  0  0  0  0  0  0
    5.0969   10.2153    3.4794 C   0  0  0  0  0  0  0  0  0  0  0  0
    4.5103   10.0922    4.3774 H   0  0  0  0  0  0  0  0  0  0  0  0
    5.9929    9.2571    3.1013 C   0  0  0  0  0  0  0  0  0  0  0  0
    6.1325    8.3671    3.6964 H   0  0  0  0  0  0  0  0  0  0  0  0
    6.7381    9.4326    1.9303 C   0  0  0  0  0  0  0  0  0  0  0  0
    6.5743   10.5471    1.1562 C   0  0  0  0  0  0  0  0  0  0  0  0
    7.1511   10.6706    0.2504 H   0  0  0  0  0  0  0  0  0  0  0  0
    5.5379   12.6746    0.6658 C   0  0  0  0  0  3  0  0  0  0  0  0
    6.2265   12.6891   -0.1874 H   0  0  0  0  0  0  0  0  0  0  0  0
    4.7857   14.7381   -0.1507 C   0  0  0  0  0  0  0  0  0  0  0  0
    4.3643   14.4100   -1.1089 H   0  0  0  0  0  0  0  0  0  0  0  0
    5.8300   15.0250   -0.3323 H   0  0  0  0  0  0  0  0  0  0  0  0
    3.9760   15.9346    0.3507 C   0  0  0  0  0  0  0  0  0  0  0  0
    4.2910   16.8357   -0.1965 H   0  0  0  0  0  0  0  0  0  0  0  0
    2.9175   15.7670    0.1393 H   0  0  0  0  0  0  0  0  0  0  0  0
    3.2329   17.2240    2.2134 C   0  0  0  0  0  0  0  0  0  0  0  0
    2.1954   16.9620    2.0012 H   0  0  0  0  0  0  0  0  0  0  0  0
    3.4868   18.1360    1.6520 H   0  0  0  0  0  0  0  0  0  0  0  0
    3.3918   17.5007    3.7060 C   0  0  0  0  0  0  0  0  0  0  0  0
    2.7864   18.3604    3.9960 H   0  0  0  0  0  0  0  0  0  0  0  0
    3.0738   16.6194    4.2789 H   0  0  0  0  0  0  0  0  0  0  0  0
    5.5810   16.7776    3.6456 C   0  0  0  0  0  0  0  0  0  0  0  0
    5.3258   15.8615    4.1976 H   0  0  0  0  0  0  0  0  0  0  0  0
    6.5933   17.0893    3.9094 H   0  0  0  0  0  0  0  0  0  0  0  0
    5.4852   16.4947    2.1476 C   0  0  0  0  0  0  0  0  0  0  0  0
    5.7877   17.3959    1.5915 H   0  0  0  0  0  0  0  0  0  0  0  0
    6.1636   15.6779    1.8986 H   0  0  0  0  0  0  0  0  0  0  0  0
    3.9994   13.7595    5.8040 C   0  0  0  0  0  0  0  0  0  0  0  0
    4.0054   12.6722    5.7120 H   0  0  0  0  0  0  0  0  0  0  0  0
    3.5975   14.0498    6.7781 H   0  0  0  0  0  0  0  0  0  0  0  0
    5.0208   14.1250    5.7161 H   0  0  0  0  0  0  0  0  0  0  0  0
    2.3291   14.0480    4.8590 H   0  0  0  0  0  0  0  0  0  0  0  0
  1  2  1  6  0  0  0
  1  4  1  0  0  0  0
  3 15  1  0  0  0  0
  6 42  1  0  0  0  0
  6 38  1  0  0  0  0
  7 18  1  1  0  0  0
  7  1  1  0  0  0  0
  8 35  1  0  0  0  0
  8 26  1  0  0  0  0
  8  1  1  0  0  0  0
  9 10  1  0  0  0  0
 10  4  1  0  0  0  0
 10 11  2  0  0  0  0
 11 12  1  0  0  0  0
 13 11  1  0  0  0  0
 13 14  1  0  0  0  0
 15 13  2  0  0  0  0
 16  9  2  0  0  0  0
 16 15  1  0  0  0  0
 17 16  1  0  0  0  0
 18  9  1  0  0  0  0
 19 18  1  0  0  0  0
 20 23  1  0  0  0  0
 20  7  1  0  0  0  0
 21 20  1  0  0  0  0
 22 20  1  0  0  0  0
 23  8  1  0  0  0  0
 24 23  1  0  0  0  0
 25 23  1  0  0  0  0
 26 29  1  0  0  0  0
 27 26  1  0  0  0  0
 28 26  1  0  0  0  0
 29 30  1  0  0  0  0
 29  5  1  0  0  0  0
 29 31  1  0  0  0  0
 32 34  1  0  0  0  0
 32  5  1  0  0  0  0
 32 33  1  0  0  0  0
 35 32  1  0  0  0  0
 36 35  1  0  0  0  0
 37 35  1  0  0  0  0
 38 40  1  0  0  0  0
 39 38  1  0  0  0  0
 41 38  1  0  0  0  0
M  END
$$$$
