CSD_code = NOQSOD | q = 0 | S = 0 | Stoichiometry = C29H24BrCuN3P | MND = 4
 OpenBabel04212202073D

 59 64  0  0  0  0  0  0  0  0999 V2000
    3.2336    5.8224    0.8862 Cu  0  0  2  0  0  0  0  0  0  0  0  0
    3.5863    3.7086    0.1108 Br  0  0  0  0  0  0  0  0  0  0  0  0
    2.5839    5.5887    3.0341 P   0  0  0  0  0  4  0  0  0  0  0  0
    2.1847    7.1664    3.8498 C   0  0  0  0  0  0  0  0  0  0  0  0
    1.3690    7.2678    4.9738 C   0  0  0  0  0  0  0  0  0  0  0  0
    0.9327    6.3772    5.4055 H   0  0  0  0  0  0  0  0  0  0  0  0
    2.7538    8.3145    3.3072 C   0  0  0  0  0  0  0  0  0  0  0  0
    3.3972    8.2280    2.4392 H   0  0  0  0  0  0  0  0  0  0  0  0
    2.5044    9.5523    3.8711 C   0  0  0  0  0  0  0  0  0  0  0  0
    2.9474   10.4395    3.4430 H   0  0  0  0  0  0  0  0  0  0  0  0
    1.1222    8.5076    5.5339 C   0  0  0  0  0  0  0  0  0  0  0  0
    0.4895    8.5845    6.4061 H   0  0  0  0  0  0  0  0  0  0  0  0
    1.6845    9.6491    4.9831 C   0  0  0  0  0  0  0  0  0  0  0  0
    1.4842   10.6144    5.4236 H   0  0  0  0  0  0  0  0  0  0  0  0
    1.1223    4.5508    3.3288 C   0  0  0  0  0  0  0  0  0  0  0  0
    3.8556    4.8666    4.1240 C   0  0  0  0  0  0  0  0  0  0  0  0
   -0.1488    5.1156    3.2272 C   0  0  0  0  0  0  0  0  0  0  0  0
   -0.2551    6.1834    3.0825 H   0  0  0  0  0  0  0  0  0  0  0  0
    1.2528    3.1745    3.4901 C   0  0  0  0  0  0  0  0  0  0  0  0
    2.2339    2.7258    3.5395 H   0  0  0  0  0  0  0  0  0  0  0  0
    4.1497    5.3878    5.3802 C   0  0  0  0  0  0  0  0  0  0  0  0
    3.6103    6.2458    5.7556 H   0  0  0  0  0  0  0  0  0  0  0  0
    4.5802    3.7771    3.6414 C   0  0  0  0  0  0  0  0  0  0  0  0
    4.3812    3.3818    2.6540 H   0  0  0  0  0  0  0  0  0  0  0  0
   -1.2713    4.3159    3.3251 C   0  0  0  0  0  0  0  0  0  0  0  0
   -2.2537    4.7605    3.2548 H   0  0  0  0  0  0  0  0  0  0  0  0
    0.1237    2.3815    3.5837 C   0  0  0  0  0  0  0  0  0  0  0  0
    0.2309    1.3149    3.7108 H   0  0  0  0  0  0  0  0  0  0  0  0
    5.5663    3.2015    4.4218 C   0  0  0  0  0  0  0  0  0  0  0  0
    6.1190    2.3558    4.0412 H   0  0  0  0  0  0  0  0  0  0  0  0
    5.1399    4.8071    6.1516 C   0  0  0  0  0  0  0  0  0  0  0  0
    5.3617    5.2138    7.1276 H   0  0  0  0  0  0  0  0  0  0  0  0
   -1.1375    2.9483    3.5050 C   0  0  0  0  0  0  0  0  0  0  0  0
   -2.0169    2.3257    3.5758 H   0  0  0  0  0  0  0  0  0  0  0  0
    5.8459    3.7132    5.6782 C   0  0  0  0  0  0  0  0  0  0  0  0
    6.6178    3.2654    6.2863 H   0  0  0  0  0  0  0  0  0  0  0  0
    1.9340    7.1174    0.1288 N   0  0  0  0  0  0  0  0  0  0  0  0
    4.4968    7.0292    0.1158 N   0  0  0  0  0  0  0  0  0  0  0  0
    0.6231    7.2448    0.2834 C   0  0  0  0  0  3  0  0  0  0  0  0
    0.1184    6.3905    0.7179 H   0  0  0  0  0  0  0  0  0  0  0  0
    5.8169    6.7114   -0.1430 C   0  0  0  0  0  0  0  0  0  0  0  0
    3.9547    7.9472   -0.6317 N   0  0  0  0  0  2  0  0  0  0  0  0
    2.6392    8.1278   -0.4370 C   0  0  0  0  0  0  0  0  0  0  0  0
    6.4670    5.8649    0.7620 C   0  0  0  0  0  0  0  0  0  0  0  0
    5.9176    5.4773    1.6103 H   0  0  0  0  0  0  0  0  0  0  0  0
    7.7876    5.5263    0.5615 C   0  0  0  0  0  0  0  0  0  0  0  0
    8.2817    4.8642    1.2563 H   0  0  0  0  0  0  0  0  0  0  0  0
    0.6450    9.4196   -0.7022 C   0  0  0  0  0  0  0  0  0  0  0  0
    0.1257   10.3098   -1.0248 H   0  0  0  0  0  0  0  0  0  0  0  0
   -0.0674    8.3666   -0.1169 C   0  0  0  0  0  0  0  0  0  0  0  0
   -1.1381    8.4161   -0.0034 H   0  0  0  0  0  0  0  0  0  0  0  0
    6.5200    7.2249   -1.2384 C   0  0  0  0  0  0  0  0  0  0  0  0
    6.0030    7.8789   -1.9236 H   0  0  0  0  0  0  0  0  0  0  0  0
    8.4787    6.0339   -0.5295 C   0  0  0  0  0  0  0  0  0  0  0  0
    9.5129    5.7650   -0.6846 H   0  0  0  0  0  0  0  0  0  0  0  0
    2.0012    9.3065   -0.8659 C   0  0  0  0  0  0  0  0  0  0  0  0
    2.6023   10.0902   -1.2967 H   0  0  0  0  0  0  0  0  0  0  0  0
    7.8431    6.8846   -1.4227 C   0  0  0  0  0  0  0  0  0  0  0  0
    8.3839    7.2771   -2.2713 H   0  0  0  0  0  0  0  0  0  0  0  0
  1  2  1  6  0  0  0
  1  3  1  0  0  0  0
  3 15  1  0  0  0  0
  3  4  1  0  0  0  0
  3 16  1  0  0  0  0
  4  5  1  0  0  0  0
  5  6  1  0  0  0  0
  5 11  2  0  0  0  0
  7  4  2  0  0  0  0
  7  9  1  0  0  0  0
  8  7  1  0  0  0  0
  9 13  2  0  0  0  0
 10  9  1  0  0  0  0
 11 12  1  0  0  0  0
 13 14  1  0  0  0  0
 13 11  1  0  0  0  0
 15 19  1  0  0  0  0
 16 21  1  0  0  0  0
 17 25  1  0  0  0  0
 17 15  2  0  0  0  0
 18 17  1  0  0  0  0
 19 20  1  0  0  0  0
 19 27  2  0  0  0  0
 21 22  1  0  0  0  0
 21 31  2  0  0  0  0
 23 16  2  0  0  0  0
 23 29  1  0  0  0  0
 24 23  1  0  0  0  0
 25 33  2  0  0  0  0
 26 25  1  0  0  0  0
 27 28  1  0  0  0  0
 29 35  2  0  0  0  0
 30 29  1  0  0  0  0
 31 32  1  0  0  0  0
 33 34  1  0  0  0  0
 33 27  1  0  0  0  0
 35 31  1  0  0  0  0
 35 36  1  0  0  0  0
 37 39  1  0  0  0  0
 37  1  1  0  0  0  0
 38  1  1  0  0  0  0
 39 40  1  0  0  0  0
 41 38  1  0  0  0  0
 41 44  1  0  0  0  0
 42 43  1  0  0  0  0
 42 38  1  0  0  0  0
 43 37  1  0  0  0  0
 44 45  1  0  0  0  0
 46 44  2  0  0  0  0
 46 47  1  0  0  0  0
 48 50  2  0  0  0  0
 49 48  1  0  0  0  0
 50 51  1  0  0  0  0
 50 39  1  0  0  0  0
 52 41  2  0  0  0  0
 53 52  1  0  0  0  0
 54 46  1  0  0  0  0
 55 54  1  0  0  0  0
 56 48  1  0  0  0  0
 56 43  2  0  0  0  0
 57 56  1  0  0  0  0
 58 52  1  0  0  0  0
 58 54  2  0  0  0  0
 59 58  1  0  0  0  0
M  END
$$$$
