CSD_code = NORDUT | q = 0 | S = 0 | Stoichiometry = C34H24Cl2N8Zn | MND = 4
 OpenBabel04212202073D

 69 76  0  0  1  0  0  0  0  0999 V2000
    6.3396    3.3682    2.3152 Zn  0  0  0  0  0  0  0  0  0  0  0  0
    7.4982    5.1998    2.5001 Cl  0  0  0  0  0  0  0  0  0  0  0  0
    5.8398    1.0943   -1.0270 N   0  0  0  0  0  0  0  0  0  0  0  0
    6.0325    2.2580   -0.4597 C   0  0  0  0  0  0  0  0  0  0  0  0
    6.8618    2.2381    0.5963 N   0  0  0  0  0  0  0  0  0  0  0  0
    7.2140    0.9638    0.7065 C   0  0  2  0  0  3  0  0  0  0  0  0
    8.0305    0.4110    1.5748 N   0  0  0  0  0  0  0  0  0  0  0  0
    8.1759   -0.9032    1.5210 C   0  0  0  0  0  0  0  0  0  0  0  0
    7.5259   -1.6793    0.5421 C   0  0  0  0  0  0  0  0  0  0  0  0
    6.7087   -1.0943   -0.4048 C   0  0  0  0  0  0  0  0  0  0  0  0
    6.5654    0.2480   -0.2950 N   0  0  0  0  0  0  0  0  0  0  0  0
    9.0354   -1.4956    2.5501 C   0  0  0  0  0  0  0  0  0  0  0  0
    9.9981   -0.6956    3.1668 C   0  0  0  0  0  0  0  0  0  0  0  0
   10.8137   -1.2171    4.1519 C   0  0  0  0  0  0  0  0  0  0  0  0
   10.6715   -2.5384    4.5458 C   0  0  0  0  0  0  0  0  0  0  0  0
    9.7053   -3.3345    3.9531 C   0  0  0  0  0  0  0  0  0  0  0  0
    8.8936   -2.8211    2.9594 C   0  0  0  0  0  0  0  0  0  0  0  0
    6.0156   -1.8482   -1.4473 C   0  0  0  0  0  0  0  0  0  0  0  0
    6.5086   -3.0899   -1.8591 C   0  0  0  0  0  0  0  0  0  0  0  0
    5.8428   -3.8269   -2.8179 C   0  0  0  0  0  0  0  0  0  0  0  0
    4.6737   -3.3428   -3.3833 C   0  0  0  0  0  0  0  0  0  0  0  0
    4.1843   -2.1085   -2.9917 C   0  0  0  0  0  0  0  0  0  0  0  0
    4.8466   -1.3618   -2.0356 C   0  0  0  0  0  0  0  0  0  0  0  0
    5.5649    3.1537   -0.8166 H   0  0  0  0  0  0  0  0  0  0  0  0
    7.6702   -2.7451    0.5270 H   0  0  0  0  0  0  0  0  0  0  0  0
   10.0923    0.3320    2.8518 H   0  0  0  0  0  0  0  0  0  0  0  0
   11.5618   -0.5919    4.6149 H   0  0  0  0  0  0  0  0  0  0  0  0
   11.3076   -2.9473    5.3159 H   0  0  0  0  0  0  0  0  0  0  0  0
    9.5827   -4.3599    4.2689 H   0  0  0  0  0  0  0  0  0  0  0  0
    8.1329   -3.4488    2.5199 H   0  0  0  0  0  0  0  0  0  0  0  0
    7.4334   -3.4698   -1.4524 H   0  0  0  0  0  0  0  0  0  0  0  0
    6.2403   -4.7811   -3.1302 H   0  0  0  0  0  0  0  0  0  0  0  0
    4.1549   -3.9223   -4.1321 H   0  0  0  0  0  0  0  0  0  0  0  0
    3.2806   -1.7195   -3.4354 H   0  0  0  0  0  0  0  0  0  0  0  0
    4.4609   -0.4005   -1.7414 H   0  0  0  0  0  0  0  0  0  0  0  0
    4.1532    3.0489    2.0632 Cl  0  0  0  0  0  0  0  0  0  0  0  0
    6.9257    2.1392    3.8867 N   0  0  0  0  0  0  0  0  0  0  0  0
    7.7733    2.1546    4.9233 C   0  0  0  0  0  0  0  0  0  0  0  0
    7.9004    1.0040    5.5381 N   0  0  0  0  0  0  0  0  0  0  0  0
    7.0919    0.1788    4.8643 N   0  0  0  0  0  0  0  0  0  0  0  0
    6.4866    0.8883    3.8380 C   0  0  2  0  0  3  0  0  0  0  0  0
    5.6527    0.3601    2.9794 N   0  0  0  0  0  0  0  0  0  0  0  0
    5.3848   -0.9282    3.0986 C   0  0  0  0  0  0  0  0  0  0  0  0
    5.9502   -1.6975    4.1375 C   0  0  0  0  0  0  0  0  0  0  0  0
    6.8175   -1.1368    5.0536 C   0  0  0  0  0  0  0  0  0  0  0  0
    7.4259   -1.8861    6.1517 C   0  0  0  0  0  0  0  0  0  0  0  0
    6.8078   -3.0421    6.6371 C   0  0  0  0  0  0  0  0  0  0  0  0
    7.3866   -3.7736    7.6550 C   0  0  0  0  0  0  0  0  0  0  0  0
    8.5918   -3.3697    8.2073 C   0  0  0  0  0  0  0  0  0  0  0  0
    9.2050   -2.2184    7.7432 C   0  0  0  0  0  0  0  0  0  0  0  0
    8.6298   -1.4773    6.7282 C   0  0  0  0  0  0  0  0  0  0  0  0
    9.1100   -0.5785    6.3802 H   0  0  0  0  0  0  0  0  0  0  0  0
   10.1371   -1.8898    8.1772 H   0  0  0  0  0  0  0  0  0  0  0  0
    9.0422   -3.9443    9.0025 H   0  0  0  0  0  0  0  0  0  0  0  0
    6.8923   -4.6598    8.0241 H   0  0  0  0  0  0  0  0  0  0  0  0
    5.8542   -3.3557    6.2411 H   0  0  0  0  0  0  0  0  0  0  0  0
    5.6997   -2.7408    4.2194 H   0  0  0  0  0  0  0  0  0  0  0  0
    4.4844   -1.4811    2.0871 C   0  0  0  0  0  0  0  0  0  0  0  0
    3.6137   -0.6112    1.4260 C   0  0  0  0  0  0  0  0  0  0  0  0
    2.7565   -1.0972    0.4576 C   0  0  0  0  0  0  0  0  0  0  0  0
    2.7676   -2.4428    0.1250 C   0  0  0  0  0  0  0  0  0  0  0  0
    3.6442   -3.3062    0.7625 C   0  0  0  0  0  0  0  0  0  0  0  0
    4.4953   -2.8327    1.7424 C   0  0  0  0  0  0  0  0  0  0  0  0
    5.1838   -3.5130    2.2224 H   0  0  0  0  0  0  0  0  0  0  0  0
    3.6638   -4.3521    0.4939 H   0  0  0  0  0  0  0  0  0  0  0  0
    2.0983   -2.8214   -0.6329 H   0  0  0  0  0  0  0  0  0  0  0  0
    2.0776   -0.4209   -0.0386 H   0  0  0  0  0  0  0  0  0  0  0  0
    3.6180    0.4369    1.6900 H   0  0  0  0  0  0  0  0  0  0  0  0
    8.3052    3.0351    5.2235 H   0  0  0  0  0  0  0  0  0  0  0  0
  1  2  1  0  0  0  0
  1 37  1  0  0  0  0
  3  4  2  0  0  0  0
  3 11  1  0  0  0  0
  4  5  1  0  0  0  0
  5  6  1  0  0  0  0
  5  1  1  0  0  0  0
  6  7  1  6  0  0  0
  8  7  2  0  0  0  0
  8 12  1  0  0  0  0
  9  8  1  0  0  0  0
 10 11  1  0  0  0  0
 10  9  2  0  0  0  0
 11  6  1  0  0  0  0
 12 17  2  0  0  0  0
 12 13  1  0  0  0  0
 13 14  2  0  0  0  0
 14 15  1  0  0  0  0
 14 27  1  0  0  0  0
 15 28  1  0  0  0  0
 16 29  1  0  0  0  0
 16 15  2  0  0  0  0
 17 16  1  0  0  0  0
 18 10  1  0  0  0  0
 19 31  1  0  0  0  0
 19 18  1  0  0  0  0
 20 19  2  0  0  0  0
 21 22  2  0  0  0  0
 21 20  1  0  0  0  0
 22 23  1  0  0  0  0
 23 35  1  0  0  0  0
 23 18  2  0  0  0  0
 24  4  1  0  0  0  0
 25  9  1  0  0  0  0
 26 13  1  0  0  0  0
 30 17  1  0  0  0  0
 32 20  1  0  0  0  0
 33 21  1  0  0  0  0
 34 22  1  0  0  0  0
 36  1  1  0  0  0  0
 37 38  1  0  0  0  0
 38 69  1  0  0  0  0
 38 39  2  0  0  0  0
 40 45  1  0  0  0  0
 40 39  1  0  0  0  0
 41 42  1  6  0  0  0
 41 37  1  0  0  0  0
 41 40  1  0  0  0  0
 42 43  2  0  0  0  0
 43 44  1  0  0  0  0
 44 57  1  0  0  0  0
 44 45  2  0  0  0  0
 45 46  1  0  0  0  0
 46 47  2  0  0  0  0
 46 51  1  0  0  0  0
 47 48  1  0  0  0  0
 48 55  1  0  0  0  0
 48 49  2  0  0  0  0
 49 54  1  0  0  0  0
 50 53  1  0  0  0  0
 50 49  1  0  0  0  0
 51 50  2  0  0  0  0
 52 51  1  0  0  0  0
 56 47  1  0  0  0  0
 58 43  1  0  0  0  0
 59 68  1  0  0  0  0
 59 58  2  0  0  0  0
 60 59  1  0  0  0  0
 61 60  2  0  0  0  0
 61 62  1  0  0  0  0
 62 63  2  0  0  0  0
 63 58  1  0  0  0  0
 63 64  1  0  0  0  0
 65 62  1  0  0  0  0
 66 61  1  0  0  0  0
 67 60  1  0  0  0  0
M  END
$$$$
