CSD_code = NORHIL | q = 0 | S = 0 | Stoichiometry = C19H17Cl2N2PPd | MND = 4
 OpenBabel04212202073D

 42 45  0  0  1  0  0  0  0  0999 V2000
    8.7283    1.7568    2.5273 Pd  0  0  0  0  0  0  0  0  0  0  0  0
    9.9206    2.2406    4.3406 Cl  0  0  0  0  0  0  0  0  0  0  0  0
   10.0584    0.0404    1.9863 Cl  0  0  0  0  0  0  0  0  0  0  0  0
    7.0591    3.2017    2.9439 P   0  0  0  0  0  4  0  0  0  0  0  0
    6.1415    2.9461    1.5109 N   0  0  0  0  0  0  0  0  0  0  0  0
    7.6457    1.3582    0.8731 N   0  0  0  0  0  0  0  0  0  0  0  0
    6.5402    1.9736    0.6386 C   0  0  2  0  0  3  0  0  0  0  0  0
    5.6853    1.6954   -0.5287 C   0  0  0  0  0  0  0  0  0  0  0  0
    4.2951    1.7365   -0.4263 C   0  0  0  0  0  0  0  0  0  0  0  0
    3.5082    1.4547   -1.5275 C   0  0  0  0  0  0  0  0  0  0  0  0
    4.0952    1.1397   -2.7422 C   0  0  0  0  0  0  0  0  0  0  0  0
    5.4758    1.0972   -2.8518 C   0  0  0  0  0  0  0  0  0  0  0  0
    6.2685    1.3670   -1.7525 C   0  0  0  0  0  0  0  0  0  0  0  0
    5.9615    2.4472    4.1951 C   0  0  0  0  0  0  0  0  0  0  0  0
    4.7881    3.0528    4.6332 C   0  0  0  0  0  0  0  0  0  0  0  0
    3.9686    2.3935    5.5318 C   0  0  0  0  0  0  0  0  0  0  0  0
    4.3150    1.1335    5.9941 C   0  0  0  0  0  0  0  0  0  0  0  0
    5.4830    0.5267    5.5591 C   0  0  0  0  0  0  0  0  0  0  0  0
    6.3058    1.1791    4.6583 C   0  0  0  0  0  0  0  0  0  0  0  0
    6.8519    4.9777    3.2196 C   0  0  0  0  0  0  0  0  0  0  0  0
    7.1143    5.4440    4.5066 C   0  0  0  0  0  0  0  0  0  0  0  0
    7.0484    6.7970    4.7769 C   0  0  0  0  0  0  0  0  0  0  0  0
    6.7340    7.6911    3.7643 C   0  0  0  0  0  0  0  0  0  0  0  0
    6.5012    7.2323    2.4781 C   0  0  0  0  0  0  0  0  0  0  0  0
    6.5696    5.8786    2.1988 C   0  0  0  0  0  0  0  0  0  0  0  0
    5.2630    3.4176    1.3366 H   0  0  0  0  0  0  0  0  0  0  0  0
    7.9295    0.6254    0.2273 H   0  0  0  0  0  0  0  0  0  0  0  0
    3.8271    1.9520    0.5241 H   0  0  0  0  0  0  0  0  0  0  0  0
    2.4327    1.4788   -1.4363 H   0  0  0  0  0  0  0  0  0  0  0  0
    3.4775    0.9247   -3.6006 H   0  0  0  0  0  0  0  0  0  0  0  0
    5.9365    0.8519   -3.7964 H   0  0  0  0  0  0  0  0  0  0  0  0
    7.3444    1.3479   -1.8450 H   0  0  0  0  0  0  0  0  0  0  0  0
    4.5264    4.0410    4.2793 H   0  0  0  0  0  0  0  0  0  0  0  0
    3.0590    2.8642    5.8750 H   0  0  0  0  0  0  0  0  0  0  0  0
    3.6739    0.6253    6.6988 H   0  0  0  0  0  0  0  0  0  0  0  0
    5.7535   -0.4519    5.9254 H   0  0  0  0  0  0  0  0  0  0  0  0
    7.2405    0.7149    4.3171 H   0  0  0  0  0  0  0  0  0  0  0  0
    7.3760    4.7332    5.2792 H   0  0  0  0  0  0  0  0  0  0  0  0
    7.2485    7.1581    5.7744 H   0  0  0  0  0  0  0  0  0  0  0  0
    6.6833    8.7488    3.9750 H   0  0  0  0  0  0  0  0  0  0  0  0
    6.2737    7.9322    1.6873 H   0  0  0  0  0  0  0  0  0  0  0  0
    6.4138    5.5254    1.1884 H   0  0  0  0  0  0  0  0  0  0  0  0
  1  4  1  0  0  0  0
  1  2  1  0  0  0  0
  3  1  1  0  0  0  0
  4 20  1  0  0  0  0
  4 14  1  0  0  0  0
  5  4  1  0  0  0  0
  6  1  1  0  0  0  0
  7  8  1  6  0  0  0
  7  6  1  0  0  0  0
  7  5  1  0  0  0  0
  8  9  1  0  0  0  0
  9 28  1  0  0  0  0
 10 29  1  0  0  0  0
 10  9  2  0  0  0  0
 11 10  1  0  0  0  0
 12 11  2  0  0  0  0
 12 13  1  0  0  0  0
 13  8  2  0  0  0  0
 14 15  2  0  0  0  0
 14 19  1  0  0  0  0
 15 16  1  0  0  0  0
 16 34  1  0  0  0  0
 16 17  2  0  0  0  0
 17 35  1  0  0  0  0
 18 36  1  0  0  0  0
 18 17  1  0  0  0  0
 19 18  2  0  0  0  0
 20 21  1  0  0  0  0
 21 22  2  0  0  0  0
 21 38  1  0  0  0  0
 22 39  1  0  0  0  0
 23 40  1  0  0  0  0
 23 22  1  0  0  0  0
 24 23  2  0  0  0  0
 25 24  1  0  0  0  0
 25 20  2  0  0  0  0
 26  5  1  0  0  0  0
 27  6  1  0  0  0  0
 30 11  1  0  0  0  0
 31 12  1  0  0  0  0
 32 13  1  0  0  0  0
 33 15  1  0  0  0  0
 37 19  1  0  0  0  0
 41 24  1  0  0  0  0
 42 25  1  0  0  0  0
M  END
$$$$
