CSD_code = NORHOR | q = 0 | S = 0 | Stoichiometry = C18H16Cl2N3PPd | MND = 4
 OpenBabel04212202073D

 41 44  0  0  1  0  0  0  0  0999 V2000
   -0.8427    1.8517    2.1163 Pd  0  0  0  0  0  0  0  0  0  0  0  0
    0.4242    1.9896    3.9333 Cl  0  0  0  0  0  0  0  0  0  0  0  0
    0.9143    1.4008    0.8028 Cl  0  0  0  0  0  0  0  0  0  0  0  0
   -2.7385    2.5786    3.0864 P   0  0  0  0  0  4  0  0  0  0  0  0
   -3.7911    2.4116    1.7319 N   0  0  0  0  0  0  0  0  0  0  0  0
   -2.0058    1.7198    0.4906 N   0  0  0  0  0  0  0  0  0  0  0  0
   -5.7941    1.8066   -2.8760 N   0  0  0  0  0  0  0  0  0  0  0  0
   -2.6254    4.3963    3.2327 C   0  0  0  0  0  0  0  0  0  0  0  0
   -1.4808    5.0039    2.7202 C   0  0  0  0  0  0  0  0  0  0  0  0
   -1.3530    6.3807    2.7618 C   0  0  0  0  0  0  0  0  0  0  0  0
   -2.3651    7.1533    3.3099 C   0  0  0  0  0  0  0  0  0  0  0  0
   -3.5062    6.5515    3.8165 C   0  0  0  0  0  0  0  0  0  0  0  0
   -3.6404    5.1751    3.7795 C   0  0  0  0  0  0  0  0  0  0  0  0
   -3.8137    2.1176    4.4667 C   0  0  0  0  0  0  0  0  0  0  0  0
   -3.3791    2.4891    5.7380 C   0  0  0  0  0  0  0  0  0  0  0  0
   -4.1118    2.1250    6.8509 C   0  0  0  0  0  0  0  0  0  0  0  0
   -5.2723    1.3795    6.7025 C   0  0  0  0  0  0  0  0  0  0  0  0
   -5.6897    0.9842    5.4421 C   0  0  0  0  0  0  0  0  0  0  0  0
   -4.9584    1.3420    4.3229 C   0  0  0  0  0  0  0  0  0  0  0  0
   -3.2549    2.0273    0.5338 C   0  0  1  0  0  3  0  0  0  0  0  0
   -4.1449    1.9594   -0.6388 C   0  0  0  0  0  0  0  0  0  0  0  0
   -5.4942    1.6234   -0.5176 C   0  0  0  0  0  0  0  0  0  0  0  0
   -6.2648    1.5572   -1.6673 C   0  0  0  0  0  0  0  0  0  0  0  0
   -4.5178    2.1274   -2.9944 C   0  0  0  0  0  0  0  0  0  0  0  0
   -3.6490    2.2143   -1.9184 C   0  0  0  0  0  0  0  0  0  0  0  0
   -4.7201    2.8151    1.7309 H   0  0  0  0  0  0  0  0  0  0  0  0
   -1.6256    1.3856   -0.3922 H   0  0  0  0  0  0  0  0  0  0  0  0
   -0.6771    4.3813    2.3047 H   0  0  0  0  0  0  0  0  0  0  0  0
   -0.4624    6.8511    2.3736 H   0  0  0  0  0  0  0  0  0  0  0  0
   -2.2627    8.2274    3.3474 H   0  0  0  0  0  0  0  0  0  0  0  0
   -4.2916    7.1562    4.2454 H   0  0  0  0  0  0  0  0  0  0  0  0
   -4.5247    4.7026    4.1853 H   0  0  0  0  0  0  0  0  0  0  0  0
   -2.4617    3.0547    5.8341 H   0  0  0  0  0  0  0  0  0  0  0  0
   -3.7773    2.4147    7.8352 H   0  0  0  0  0  0  0  0  0  0  0  0
   -5.8455    1.0951    7.5720 H   0  0  0  0  0  0  0  0  0  0  0  0
   -6.5846    0.3901    5.3308 H   0  0  0  0  0  0  0  0  0  0  0  0
   -5.2719    1.0120    3.3424 H   0  0  0  0  0  0  0  0  0  0  0  0
   -5.9281    1.3866    0.4419 H   0  0  0  0  0  0  0  0  0  0  0  0
   -7.3123    1.2917   -1.6186 H   0  0  0  0  0  0  0  0  0  0  0  0
   -4.1752    2.3232   -4.0011 H   0  0  0  0  0  0  0  0  0  0  0  0
   -2.6179    2.4958   -2.0674 H   0  0  0  0  0  0  0  0  0  0  0  0
  1  4  1  0  0  0  0
  1  2  1  0  0  0  0
  3  1  1  0  0  0  0
  4  8  1  0  0  0  0
  4 14  1  0  0  0  0
  5  4  1  0  0  0  0
  6 20  1  0  0  0  0
  6  1  1  0  0  0  0
  7 23  1  0  0  0  0
  8 13  1  0  0  0  0
  9 10  1  0  0  0  0
  9  8  2  0  0  0  0
 10 11  2  0  0  0  0
 11 30  1  0  0  0  0
 11 12  1  0  0  0  0
 12 31  1  0  0  0  0
 13 12  2  0  0  0  0
 13 32  1  0  0  0  0
 14 15  1  0  0  0  0
 15 33  1  0  0  0  0
 15 16  2  0  0  0  0
 16 34  1  0  0  0  0
 17 16  1  0  0  0  0
 17 35  1  0  0  0  0
 18 17  2  0  0  0  0
 19 14  2  0  0  0  0
 19 18  1  0  0  0  0
 20 21  1  1  0  0  0
 20  5  1  0  0  0  0
 21 22  1  0  0  0  0
 22 38  1  0  0  0  0
 23 39  1  0  0  0  0
 23 22  2  0  0  0  0
 24  7  2  0  0  0  0
 24 25  1  0  0  0  0
 25 21  2  0  0  0  0
 26  5  1  0  0  0  0
 27  6  1  0  0  0  0
 28  9  1  0  0  0  0
 29 10  1  0  0  0  0
 36 18  1  0  0  0  0
 37 19  1  0  0  0  0
 40 24  1  0  0  0  0
 41 25  1  0  0  0  0
M  END
$$$$
