CSD_code = NORJUZ | q = 0 | S = 0 | Stoichiometry = C18H30F6NiP2 | MND = 4
 OpenBabel04212202073D

 57 57  0  0  0  0  0  0  0  0999 V2000
    1.8892    1.2016    3.7123 Ni  0  0  0  0  0  0  0  0  0  0  0  0
    3.3093    2.8427    3.5343 P   0  0  0  0  0  4  0  0  0  0  0  0
    0.3834   -0.3037    4.1994 P   0  0  0  0  0  4  0  0  0  0  0  0
    0.7642    2.4307    4.3572 F   0  0  0  0  0  0  0  0  0  0  0  0
    4.5039   -0.7335    4.6937 F   0  0  0  0  0  0  0  0  0  0  0  0
    5.8687   -2.3774    3.0296 F   0  0  0  0  0  0  0  0  0  0  0  0
    5.1786   -2.5615    0.3955 F   0  0  0  0  0  0  0  0  0  0  0  0
    3.0904   -1.0699   -0.5709 F   0  0  0  0  0  0  0  0  0  0  0  0
    1.7159    0.5973    1.1698 F   0  0  0  0  0  0  0  0  0  0  0  0
    3.0595   -0.0356    2.9573 C   0  0  0  0  0  0  0  0  0  0  0  0
    4.1286   -0.8055    3.3976 C   0  0  0  0  0  0  0  0  0  0  0  0
    4.8429   -1.6518    2.5562 C   0  0  0  0  0  0  0  0  0  0  0  0
    4.4957   -1.7474    1.2138 C   0  0  0  0  0  0  0  0  0  0  0  0
    3.4350   -0.9894    0.7240 C   0  0  0  0  0  0  0  0  0  0  0  0
    2.7583   -0.1642    1.6039 C   0  0  0  0  0  0  0  0  0  0  0  0
    5.0124    2.5784    2.8612 C   0  0  0  0  0  0  0  0  0  0  0  0
    5.8733    3.8247    2.7062 C   0  0  0  0  0  0  0  0  0  0  0  0
    2.6818    4.3428    2.6772 C   0  0  0  0  0  0  0  0  0  0  0  0
    2.4364    4.0791    1.1970 C   0  0  0  0  0  0  0  0  0  0  0  0
    3.5900    3.4497    5.2502 C   0  0  0  0  0  0  0  0  0  0  0  0
    3.6737    2.2566    6.1957 C   0  0  0  0  0  0  0  0  0  0  0  0
   -1.3137    0.2953    3.8189 C   0  0  0  0  0  0  0  0  0  0  0  0
   -1.4011    0.7786    2.3771 C   0  0  0  0  0  0  0  0  0  0  0  0
    0.2497   -0.6465    6.0044 C   0  0  0  0  0  0  0  0  0  0  0  0
    1.4779   -1.3681    6.5451 C   0  0  0  0  0  0  0  0  0  0  0  0
    0.4731   -1.9761    3.4121 C   0  0  0  0  0  0  0  0  0  0  0  0
   -0.6043   -2.9740    3.8144 C   0  0  0  0  0  0  0  0  0  0  0  0
    5.4975    1.8699    3.5384 H   0  0  0  0  0  0  0  0  0  0  0  0
    4.9070    2.0763    1.8955 H   0  0  0  0  0  0  0  0  0  0  0  0
    6.8790    3.5390    2.4032 H   0  0  0  0  0  0  0  0  0  0  0  0
    5.9491    4.3746    3.6413 H   0  0  0  0  0  0  0  0  0  0  0  0
    5.4709    4.4894    1.9462 H   0  0  0  0  0  0  0  0  0  0  0  0
    1.7379    4.5900    3.1681 H   0  0  0  0  0  0  0  0  0  0  0  0
    3.3820    5.1680    2.8305 H   0  0  0  0  0  0  0  0  0  0  0  0
    1.9901    4.9504    0.7218 H   0  0  0  0  0  0  0  0  0  0  0  0
    1.7547    3.2381    1.0815 H   0  0  0  0  0  0  0  0  0  0  0  0
    3.3631    3.8426    0.6775 H   0  0  0  0  0  0  0  0  0  0  0  0
    4.4896    4.0665    5.3021 H   0  0  0  0  0  0  0  0  0  0  0  0
    2.7242    4.0626    5.5101 H   0  0  0  0  0  0  0  0  0  0  0  0
    3.7086    2.5788    7.2342 H   0  0  0  0  0  0  0  0  0  0  0  0
    4.5539    1.6505    5.9912 H   0  0  0  0  0  0  0  0  0  0  0  0
    2.7838    1.6325    6.0529 H   0  0  0  0  0  0  0  0  0  0  0  0
   -2.0441   -0.4900    4.0276 H   0  0  0  0  0  0  0  0  0  0  0  0
   -1.4969    1.1334    4.4946 H   0  0  0  0  0  0  0  0  0  0  0  0
   -2.3748    1.2203    2.1764 H   0  0  0  0  0  0  0  0  0  0  0  0
   -1.2406   -0.0367    1.6746 H   0  0  0  0  0  0  0  0  0  0  0  0
   -0.6351    1.5357    2.2075 H   0  0  0  0  0  0  0  0  0  0  0  0
    0.1479    0.3305    6.4848 H   0  0  0  0  0  0  0  0  0  0  0  0
   -0.6630   -1.2157    6.1986 H   0  0  0  0  0  0  0  0  0  0  0  0
    1.4443   -1.4170    7.6317 H   0  0  0  0  0  0  0  0  0  0  0  0
    2.3853   -0.8415    6.2540 H   0  0  0  0  0  0  0  0  0  0  0  0
    1.5363   -2.3842    6.1613 H   0  0  0  0  0  0  0  0  0  0  0  0
    0.4432   -1.8135    2.3312 H   0  0  0  0  0  0  0  0  0  0  0  0
    1.4622   -2.3794    3.6458 H   0  0  0  0  0  0  0  0  0  0  0  0
   -0.5876   -3.1643    4.8845 H   0  0  0  0  0  0  0  0  0  0  0  0
   -0.4340   -3.9196    3.3027 H   0  0  0  0  0  0  0  0  0  0  0  0
   -1.5945   -2.6204    3.5392 H   0  0  0  0  0  0  0  0  0  0  0  0
  1  3  1  0  0  0  0
  1  4  1  0  0  0  0
  2  1  1  0  0  0  0
  2 20  1  0  0  0  0
  3 24  1  0  0  0  0
  7 13  1  0  0  0  0
  8 14  1  0  0  0  0
  9 15  1  0  0  0  0
 10 11  1  0  0  0  0
 10  1  1  0  0  0  0
 11  5  1  0  0  0  0
 12  6  1  0  0  0  0
 12 11  2  0  0  0  0
 13 12  1  0  0  0  0
 14 13  2  0  0  0  0
 14 15  1  0  0  0  0
 15 10  2  0  0  0  0
 16  2  1  0  0  0  0
 16 28  1  0  0  0  0
 17 16  1  0  0  0  0
 17 31  1  0  0  0  0
 18 34  1  0  0  0  0
 18 33  1  0  0  0  0
 18  2  1  0  0  0  0
 19 18  1  0  0  0  0
 20 38  1  0  0  0  0
 20 39  1  0  0  0  0
 20 21  1  0  0  0  0
 21 40  1  0  0  0  0
 22 43  1  0  0  0  0
 22  3  1  0  0  0  0
 22 44  1  0  0  0  0
 23 22  1  0  0  0  0
 24 49  1  0  0  0  0
 24 48  1  0  0  0  0
 24 25  1  0  0  0  0
 25 50  1  0  0  0  0
 26 54  1  0  0  0  0
 26 27  1  0  0  0  0
 26  3  1  0  0  0  0
 27 55  1  0  0  0  0
 29 16  1  0  0  0  0
 30 17  1  0  0  0  0
 32 17  1  0  0  0  0
 35 19  1  0  0  0  0
 36 19  1  0  0  0  0
 37 19  1  0  0  0  0
 41 21  1  0  0  0  0
 42 21  1  0  0  0  0
 45 23  1  0  0  0  0
 46 23  1  0  0  0  0
 47 23  1  0  0  0  0
 51 25  1  0  0  0  0
 52 25  1  0  0  0  0
 53 26  1  0  0  0  0
 56 27  1  0  0  0  0
 57 27  1  0  0  0  0
M  END
$$$$
