CSD_code = NORKAG | q = 0 | S = 0 | Stoichiometry = C17H31F4NNiP2 | MND = 4
 OpenBabel04212202073D

 56 56  0  0  0  0  0  0  0  0999 V2000
    7.0331    2.7388   10.1560 Ni  0  0  0  0  0  0  0  0  0  0  0  0
    8.8284    3.9701   10.0566 P   0  0  0  0  0  4  0  0  0  0  0  0
    5.0315    1.8620   10.1906 P   0  0  0  0  0  4  0  0  0  0  0  0
    6.7256    3.5562   11.7292 F   0  0  0  0  0  0  0  0  0  0  0  0
    8.7601   -1.4830    8.7928 F   0  0  0  0  0  0  0  0  0  0  0  0
    8.8024   -1.0882    6.0420 F   0  0  0  0  0  0  0  0  0  0  0  0
    7.0688    3.2259    6.8403 F   0  0  0  0  0  0  0  0  0  0  0  0
    7.9134    0.5848    9.1006 N   0  0  0  0  0  0  0  0  0  0  0  0
    7.4725    1.7715    8.6800 C   0  0  0  0  0  0  0  0  0  0  0  0
    8.3414   -0.3243    8.2618 C   0  0  0  0  0  0  0  0  0  0  0  0
    8.3655   -0.1330    6.8851 C   0  0  0  0  0  0  0  0  0  0  0  0
    7.9241    1.0843    6.3891 C   0  0  0  0  0  0  0  0  0  0  0  0
    7.4864    2.0230    7.3019 C   0  0  0  0  0  0  0  0  0  0  0  0
   10.0048    3.9164    8.6282 C   0  0  0  0  0  0  0  0  0  0  0  0
   11.2612    4.7665    8.7598 C   0  0  0  0  0  0  0  0  0  0  0  0
    9.8955    3.8682   11.5483 C   0  0  0  0  0  0  0  0  0  0  0  0
   10.5282    2.4865   11.6613 C   0  0  0  0  0  0  0  0  0  0  0  0
    8.2336    5.7136   10.0795 C   0  0  0  0  0  0  0  0  0  0  0  0
    7.0180    5.8302    9.1655 C   0  0  0  0  0  0  0  0  0  0  0  0
    5.2052    0.1981   10.9589 C   0  0  0  0  0  0  0  0  0  0  0  0
    6.2080    0.2839   12.1040 C   0  0  0  0  0  0  0  0  0  0  0  0
    3.8459    2.7564   11.2855 C   0  0  0  0  0  0  0  0  0  0  0  0
    2.4449    2.1730   11.4008 C   0  0  0  0  0  0  0  0  0  0  0  0
    4.0608    1.4812    8.6686 C   0  0  0  0  0  0  0  0  0  0  0  0
    3.7273    2.7504    7.8948 C   0  0  0  0  0  0  0  0  0  0  0  0
    7.9281    1.2838    5.3289 H   0  0  0  0  0  0  0  0  0  0  0  0
   10.2783    2.8687    8.4745 H   0  0  0  0  0  0  0  0  0  0  0  0
    9.4321    4.2316    7.7518 H   0  0  0  0  0  0  0  0  0  0  0  0
   11.8233    4.7376    7.8279 H   0  0  0  0  0  0  0  0  0  0  0  0
   11.9067    4.3954    9.5516 H   0  0  0  0  0  0  0  0  0  0  0  0
   11.0172    5.8049    8.9714 H   0  0  0  0  0  0  0  0  0  0  0  0
   10.6476    4.6607   11.5278 H   0  0  0  0  0  0  0  0  0  0  0  0
    9.2295    4.0393   12.3970 H   0  0  0  0  0  0  0  0  0  0  0  0
    9.7514    1.7240   11.6035 H   0  0  0  0  0  0  0  0  0  0  0  0
   11.0501    2.3769   12.6099 H   0  0  0  0  0  0  0  0  0  0  0  0
   11.2388    2.3093   10.8560 H   0  0  0  0  0  0  0  0  0  0  0  0
    7.9389    5.9266   11.1091 H   0  0  0  0  0  0  0  0  0  0  0  0
    9.0259    6.4050    9.7849 H   0  0  0  0  0  0  0  0  0  0  0  0
    6.5489    6.8077    9.2556 H   0  0  0  0  0  0  0  0  0  0  0  0
    6.2878    5.0623    9.4521 H   0  0  0  0  0  0  0  0  0  0  0  0
    7.2900    5.6692    8.1242 H   0  0  0  0  0  0  0  0  0  0  0  0
    4.2367   -0.1776   11.2977 H   0  0  0  0  0  0  0  0  0  0  0  0
    5.5861   -0.4743   10.1861 H   0  0  0  0  0  0  0  0  0  0  0  0
    6.4605   -0.7049   12.4810 H   0  0  0  0  0  0  0  0  0  0  0  0
    5.8142    0.8821   12.9227 H   0  0  0  0  0  0  0  0  0  0  0  0
    7.1231    0.7651   11.7404 H   0  0  0  0  0  0  0  0  0  0  0  0
    4.3325    2.7937   12.2629 H   0  0  0  0  0  0  0  0  0  0  0  0
    3.8016    3.7867   10.9226 H   0  0  0  0  0  0  0  0  0  0  0  0
    1.8767    2.7385   12.1373 H   0  0  0  0  0  0  0  0  0  0  0  0
    2.4701    1.1351   11.7248 H   0  0  0  0  0  0  0  0  0  0  0  0
    1.9116    2.2269   10.4547 H   0  0  0  0  0  0  0  0  0  0  0  0
    4.6783    0.8209    8.0535 H   0  0  0  0  0  0  0  0  0  0  0  0
    3.1557    0.9340    8.9421 H   0  0  0  0  0  0  0  0  0  0  0  0
    3.0578    3.3891    8.4667 H   0  0  0  0  0  0  0  0  0  0  0  0
    3.2469    2.5111    6.9480 H   0  0  0  0  0  0  0  0  0  0  0  0
    4.6365    3.3126    7.6880 H   0  0  0  0  0  0  0  0  0  0  0  0
  1  3  1  0  0  0  0
  1  4  1  0  0  0  0
  2 18  1  0  0  0  0
  2  1  1  0  0  0  0
  2 16  1  0  0  0  0
  3 20  1  0  0  0  0
  3 22  1  0  0  0  0
  6 11  1  0  0  0  0
  7 13  1  0  0  0  0
  9  8  1  0  0  0  0
  9  1  1  0  0  0  0
 10  5  1  0  0  0  0
 10  8  2  0  0  0  0
 11 10  1  0  0  0  0
 12 11  2  0  0  0  0
 12 13  1  0  0  0  0
 13  9  2  0  0  0  0
 14 15  1  0  0  0  0
 14  2  1  0  0  0  0
 15 31  1  0  0  0  0
 15 30  1  0  0  0  0
 16 17  1  0  0  0  0
 16 33  1  0  0  0  0
 17 35  1  0  0  0  0
 18 37  1  0  0  0  0
 19 39  1  0  0  0  0
 19 40  1  0  0  0  0
 19 18  1  0  0  0  0
 20 42  1  0  0  0  0
 20 21  1  0  0  0  0
 21 44  1  0  0  0  0
 21 45  1  0  0  0  0
 22 23  1  0  0  0  0
 22 47  1  0  0  0  0
 23 50  1  0  0  0  0
 23 49  1  0  0  0  0
 24 53  1  0  0  0  0
 24  3  1  0  0  0  0
 25 54  1  0  0  0  0
 25 24  1  0  0  0  0
 26 12  1  0  0  0  0
 27 14  1  0  0  0  0
 28 14  1  0  0  0  0
 29 15  1  0  0  0  0
 32 16  1  0  0  0  0
 34 17  1  0  0  0  0
 36 17  1  0  0  0  0
 38 18  1  0  0  0  0
 41 19  1  0  0  0  0
 43 20  1  0  0  0  0
 46 21  1  0  0  0  0
 48 22  1  0  0  0  0
 51 23  1  0  0  0  0
 52 24  1  0  0  0  0
 55 25  1  0  0  0  0
 56 25  1  0  0  0  0
M  END
$$$$
