CSD_code = NORNIR | q = 0 | S = 0 | Stoichiometry = C19H22BCl2PZr | MND = 12
 OpenBabel04212202073D

 46 49  0  0  1  0  0  0  0  0999 V2000
    0.5314    8.9330    9.9899 Zr  0  0  0  0  0  0  0  0  0  0  0  0
   -2.2818    6.8518    7.8159 P   0  0  0  0  0  4  0  0  0  0  0  0
    2.1215   10.0964   11.2378 Cl  0  0  0  0  0  0  0  0  0  0  0  0
   -0.1596    7.6284   11.8191 Cl  0  0  0  0  0  0  0  0  0  0  0  0
   -0.9761    8.2780    7.4718 B   0  0  1  0  0  0  0  0  0  0  0  0
   -2.5310    6.0667    9.4706 C   0  0  0  0  0  0  0  0  0  0  0  0
   -3.9642    7.3835    7.3376 C   0  0  0  0  0  0  0  0  0  0  0  0
   -1.9883    5.4295    6.7055 C   0  0  0  0  0  0  0  0  0  0  0  0
   -1.2352    9.4895    8.5175 C   0  0  1  0  0  0  0  0  0  0  0  0
   -1.8480    9.3814    9.7990 C   0  0  0  0  0  3  0  0  0  0  0  0
   -1.4150   10.4573   10.6146 C   0  0  0  0  0  0  0  0  0  0  0  0
   -0.5355   11.2502    9.8504 C   0  0  0  0  0  0  0  0  0  0  0  0
   -0.4191   10.6600    8.5716 C   0  0  0  0  0  3  0  0  0  0  0  0
    0.4888    7.7604    7.9357 C   0  0  1  0  0  0  0  0  0  0  0  0
    1.6610    8.5730    7.8696 C   0  0  0  0  0  0  0  0  0  0  0  0
    2.6196    8.0830    8.7852 C   0  0  0  0  0  0  0  0  0  0  0  0
    2.0612    6.9675    9.4410 C   0  0  0  0  0  0  0  0  0  0  0  0
    0.7584    6.7656    8.9193 C   0  0  0  0  0  0  0  0  0  0  0  0
   -2.1999    9.9147    4.1448 C   0  0  0  0  0  0  0  0  0  0  0  0
   -1.4547    9.2432    3.1904 C   0  0  0  0  0  0  0  0  0  0  0  0
   -0.5475    8.2769    3.5907 C   0  0  0  0  0  0  0  0  0  0  0  0
   -0.3984    7.9807    4.9339 C   0  0  0  0  0  0  0  0  0  0  0  0
   -1.1448    8.6347    5.9135 C   0  0  0  0  0  0  0  0  0  0  0  0
   -2.0433    9.6114    5.4855 C   0  0  0  0  0  0  0  0  0  0  0  0
   -1.8506    6.4793   10.2196 H   0  0  0  0  0  0  0  0  0  0  0  0
   -2.3588    4.9954    9.3940 H   0  0  0  0  0  0  0  0  0  0  0  0
   -3.5545    6.2319    9.8000 H   0  0  0  0  0  0  0  0  0  0  0  0
   -3.9367    7.7350    6.3088 H   0  0  0  0  0  0  0  0  0  0  0  0
   -4.2777    8.2066    7.9753 H   0  0  0  0  0  0  0  0  0  0  0  0
   -4.6726    6.5623    7.4258 H   0  0  0  0  0  0  0  0  0  0  0  0
   -1.9633    5.7908    5.6801 H   0  0  0  0  0  0  0  0  0  0  0  0
   -2.7732    4.6835    6.8123 H   0  0  0  0  0  0  0  0  0  0  0  0
   -1.0248    4.9821    6.9375 H   0  0  0  0  0  0  0  0  0  0  0  0
   -2.6243    8.6801   10.0861 H   0  0  0  0  0  0  0  0  0  0  0  0
   -1.7793   10.6875   11.6098 H   0  0  0  0  0  0  0  0  0  0  0  0
   -0.1082   12.1981   10.1565 H   0  0  0  0  0  0  0  0  0  0  0  0
    0.1020   11.0990    7.7273 H   0  0  0  0  0  0  0  0  0  0  0  0
    1.8383    9.3577    7.1417 H   0  0  0  0  0  0  0  0  0  0  0  0
    3.6388    8.4360    8.8911 H   0  0  0  0  0  0  0  0  0  0  0  0
    2.5745    6.3160   10.1398 H   0  0  0  0  0  0  0  0  0  0  0  0
    0.1402    5.9055    9.1540 H   0  0  0  0  0  0  0  0  0  0  0  0
   -2.9026   10.6781    3.8411 H   0  0  0  0  0  0  0  0  0  0  0  0
   -1.5747    9.4767    2.1423 H   0  0  0  0  0  0  0  0  0  0  0  0
    0.0460    7.7557    2.8526 H   0  0  0  0  0  0  0  0  0  0  0  0
    0.3232    7.2354    5.2392 H   0  0  0  0  0  0  0  0  0  0  0  0
   -2.6182   10.1513    6.2254 H   0  0  0  0  0  0  0  0  0  0  0  0
  1  3  1  0  0  0  0
  1  4  1  0  0  0  0
  2  6  1  0  0  0  0
  5  2  1  1  0  0  0
  5 14  1  0  0  0  0
  5  9  1  0  0  0  0
  6 27  1  0  0  0  0
  6 25  1  0  0  0  0
  7 30  1  0  0  0  0
  7  2  1  0  0  0  0
  7 29  1  0  0  0  0
  8 32  1  0  0  0  0
  8 33  1  0  0  0  0
  8  2  1  0  0  0  0
  9 13  1  6  0  0  0
  9 10  1  0  0  0  0
  9  1  1  0  0  0  0
 10 34  1  0  0  0  0
 10 11  1  0  0  0  0
 11 35  1  0  0  0  0
 12 36  1  0  0  0  0
 12 11  2  0  0  0  0
 13 12  1  0  0  0  0
 14 15  1  6  0  0  0
 14 18  1  0  0  0  0
 14  1  1  0  0  0  0
 15 16  2  0  0  0  0
 16 39  1  0  0  0  0
 16 17  1  0  0  0  0
 17 40  1  0  0  0  0
 18 41  1  0  0  0  0
 18 17  2  0  0  0  0
 19 24  1  0  0  0  0
 20 21  1  0  0  0  0
 20 19  2  0  0  0  0
 21 22  2  0  0  0  0
 22 45  1  0  0  0  0
 22 23  1  0  0  0  0
 23  5  1  0  0  0  0
 24 23  2  0  0  0  0
 24 46  1  0  0  0  0
 26  6  1  0  0  0  0
 28  7  1  0  0  0  0
 31  8  1  0  0  0  0
 37 13  1  0  0  0  0
 38 15  1  0  0  0  0
 42 19  1  0  0  0  0
 43 20  1  0  0  0  0
 44 21  1  0  0  0  0
M  END
$$$$
