CSD_code = NORQAM | q = 0 | S = 0 | Stoichiometry = C24H20Cl2Zr | MND = 12
 OpenBabel04212202073D

 47 51  0  0  1  0  0  0  0  0999 V2000
   11.3586    1.2625    3.9479 Zr  0  0  0  0  0  0  0  0  0  0  0  0
    9.8714    2.9220    3.2771 Cl  0  0  0  0  0  0  0  0  0  0  0  0
    9.9565   -0.4944    3.3441 Cl  0  0  0  0  0  0  0  0  0  0  0  0
   16.1416    1.5080    4.4403 C   0  0  0  0  0  0  0  0  0  0  0  0
   17.0831    2.2547    5.1414 C   0  0  0  0  0  0  0  0  0  0  0  0
   18.4358    2.0185    4.9810 C   0  0  0  0  0  0  0  0  0  0  0  0
   18.8700    1.0346    4.1095 C   0  0  0  0  0  0  0  0  0  0  0  0
   17.9416    0.2977    3.3958 C   0  0  0  0  0  0  0  0  0  0  0  0
   16.5871    0.5306    3.5613 C   0  0  0  0  0  0  0  0  0  0  0  0
   14.6731    1.7642    4.6964 C   0  0  2  0  0  0  0  0  0  0  0  0
   14.1589    0.9020    5.8968 C   0  0  1  0  0  0  0  0  0  0  0  0
   14.9489    1.1974    7.1519 C   0  0  0  0  0  0  0  0  0  0  0  0
   16.1006    0.4604    7.4079 C   0  0  0  0  0  0  0  0  0  0  0  0
   16.8830    0.7312    8.5150 C   0  0  0  0  0  0  0  0  0  0  0  0
   16.5224    1.7426    9.3888 C   0  0  0  0  0  0  0  0  0  0  0  0
   15.3715    2.4724    9.1498 C   0  0  0  0  0  0  0  0  0  0  0  0
   14.5910    2.2036    8.0387 C   0  0  0  0  0  0  0  0  0  0  0  0
   12.6717    1.1256    6.0239 C   0  0  0  0  0  0  0  0  0  0  0  0
   11.9848    2.3718    6.0251 C   0  0  2  0  0  0  0  0  0  0  0  0
   10.5995    2.1075    6.1751 C   0  0  0  0  0  0  0  0  0  0  0  0
   10.4209    0.7116    6.2169 C   0  0  0  0  0  0  0  0  0  0  0  0
   11.6959    0.1021    6.1019 C   0  0  0  0  0  0  0  0  0  0  0  0
   13.7715    1.4957    3.5163 C   0  0  0  0  0  0  0  0  0  0  0  0
   13.1294    2.4874    2.7351 C   0  0  0  0  0  0  0  0  0  0  0  0
   12.3801    1.8382    1.7214 C   0  0  0  0  0  0  0  0  0  0  0  0
   12.5255    0.4485    1.8937 C   0  0  0  0  0  0  0  0  0  0  0  0
   13.3591    0.2275    3.0200 C   0  0  2  0  0  0  0  0  0  0  0  0
   16.7542    3.0272    5.8217 H   0  0  0  0  0  0  0  0  0  0  0  0
   19.1517    2.6053    5.5372 H   0  0  0  0  0  0  0  0  0  0  0  0
   19.9259    0.8481    3.9823 H   0  0  0  0  0  0  0  0  0  0  0  0
   18.2717   -0.4644    2.7052 H   0  0  0  0  0  0  0  0  0  0  0  0
   15.8784   -0.0431    2.9854 H   0  0  0  0  0  0  0  0  0  0  0  0
   14.5738    2.8201    4.9808 H   0  0  0  0  0  0  0  0  0  0  0  0
   14.3342   -0.1524    5.6452 H   0  0  0  0  0  0  0  0  0  0  0  0
   16.3896   -0.3315    6.7317 H   0  0  0  0  0  0  0  0  0  0  0  0
   17.7755    0.1507    8.6955 H   0  0  0  0  0  0  0  0  0  0  0  0
   17.1318    1.9565   10.2541 H   0  0  0  0  0  0  0  0  0  0  0  0
   15.0776    3.2570    9.8317 H   0  0  0  0  0  0  0  0  0  0  0  0
   13.6896    2.7729    7.8761 H   0  0  0  0  0  0  0  0  0  0  0  0
   12.4280    3.3621    6.0430 H   0  0  0  0  0  0  0  0  0  0  0  0
    9.8267    2.8531    6.3223 H   0  0  0  0  0  0  0  0  0  0  0  0
    9.4859    0.1939    6.3956 H   0  0  0  0  0  0  0  0  0  0  0  0
   11.8977   -0.9590    6.2024 H   0  0  0  0  0  0  0  0  0  0  0  0
   13.2975    3.5567    2.8062 H   0  0  0  0  0  0  0  0  0  0  0  0
   11.8617    2.3282    0.9058 H   0  0  0  0  0  0  0  0  0  0  0  0
   12.1436   -0.3191    1.2306 H   0  0  0  0  0  0  0  0  0  0  0  0
   13.7107   -0.7465    3.3444 H   0  0  0  0  0  0  0  0  0  0  0  0
  1 19  1  0  0  0  0
  2  1  1  0  0  0  0
  3  1  1  0  0  0  0
  4 10  1  0  0  0  0
  4  5  1  0  0  0  0
  5 28  1  0  0  0  0
  6  5  2  0  0  0  0
  6 29  1  0  0  0  0
  7  6  1  0  0  0  0
  8  9  1  0  0  0  0
  8  7  2  0  0  0  0
  9  4  2  0  0  0  0
 10 33  1  1  0  0  0
 10 11  1  0  0  0  0
 11 34  1  6  0  0  0
 11 18  1  0  0  0  0
 11 12  1  0  0  0  0
 12 13  2  0  0  0  0
 12 17  1  0  0  0  0
 13 14  1  0  0  0  0
 14 36  1  0  0  0  0
 14 15  2  0  0  0  0
 15 37  1  0  0  0  0
 16 15  1  0  0  0  0
 16 38  1  0  0  0  0
 17 16  2  0  0  0  0
 18 19  1  0  0  0  0
 18 22  2  0  0  0  0
 19 40  1  1  0  0  0
 19 20  1  0  0  0  0
 20 21  2  0  0  0  0
 20 41  1  0  0  0  0
 21 42  1  0  0  0  0
 22 43  1  0  0  0  0
 22 21  1  0  0  0  0
 23 10  1  0  0  0  0
 24 44  1  0  0  0  0
 24 23  2  0  0  0  0
 25 26  2  0  0  0  0
 25 24  1  0  0  0  0
 26 27  1  0  0  0  0
 27 47  1  1  0  0  0
 27 23  1  0  0  0  0
 27  1  1  0  0  0  0
 30  7  1  0  0  0  0
 31  8  1  0  0  0  0
 32  9  1  0  0  0  0
 35 13  1  0  0  0  0
 39 17  1  0  0  0  0
 45 25  1  0  0  0  0
 46 26  1  0  0  0  0
M  END
$$$$
