CSD_code = NORTET | q = 1 | S = 0 | Stoichiometry = C22H37ClOsP(1+) | MND = 8
 OpenBabel04212202073D

 62 62  0  0  1  0  0  0  0  0999 V2000
    1.7297    3.8961    3.5321 Os  0  0  0  0  0  0  0  0  0  0  0  0
    1.8494    1.9761    2.0926 P   0  0  0  0  0  0  0  0  0  0  0  0
    3.0899    2.7353    4.9984 Cl  0  0  0  0  0 15  0  0  0  0  0  0
    1.4880    5.7658    2.2413 C   0  0  1  0  0  0  0  0  0  0  0  0
    1.3760    6.1674    3.6003 C   0  0  0  0  0  3  0  0  0  0  0  0
    2.6083    5.8830    4.2324 C   0  0  2  0  0  0  0  0  0  0  0  0
    3.5174    5.4122    3.2375 C   0  0  0  0  0  0  0  0  0  0  0  0
    2.8426    5.3504    2.0230 C   0  0  0  0  0  0  0  0  0  0  0  0
    0.1345    3.4031    4.2490 C   0  0  0  0  0  2  0  0  0  0  0  0
   -1.0615    3.1750    4.8731 C   0  0  0  0  0  0  0  0  0  0  0  0
   -1.2124    3.0739    6.2326 C   0  0  0  0  0  0  0  0  0  0  0  0
   -2.5276    2.8116    6.8602 C   0  0  0  0  0  0  0  0  0  0  0  0
   -2.4510    1.4766    7.6287 C   0  0  0  0  0  0  0  0  0  0  0  0
   -1.3096    1.5083    8.6362 C   0  0  0  0  0  0  0  0  0  0  0  0
    0.0133    1.7875    7.9355 C   0  0  0  0  0  0  0  0  0  0  0  0
   -0.0590    3.1179    7.1618 C   0  0  0  0  0  0  0  0  0  0  0  0
    1.6514    0.2977    2.9054 C   0  0  0  0  0  0  0  0  0  0  0  0
    0.7987    0.3558    4.1708 C   0  0  0  0  0  0  0  0  0  0  0  0
    1.1034   -0.7923    1.9837 C   0  0  0  0  0  0  0  0  0  0  0  0
    3.5009    1.9028    1.2187 C   0  0  0  0  0  0  0  0  0  0  0  0
    3.6320    0.7292    0.2491 C   0  0  0  0  0  0  0  0  0  0  0  0
    4.6720    1.8903    2.1970 C   0  0  0  0  0  0  0  0  0  0  0  0
    0.5972    2.0311    0.7101 C   0  0  0  0  0  0  0  0  0  0  0  0
    0.9228    3.0921   -0.3358 C   0  0  0  0  0  0  0  0  0  0  0  0
   -0.7911    2.2726    1.2935 C   0  0  0  0  0  0  0  0  0  0  0  0
    0.7709    5.9983    1.4680 H   0  0  0  0  0  0  0  0  0  0  0  0
    0.5284    6.6656    4.0464 H   0  0  0  0  0  0  0  0  0  0  0  0
    2.8774    6.1533    5.2424 H   0  0  0  0  0  0  0  0  0  0  0  0
    4.5719    5.2451    3.3926 H   0  0  0  0  0  0  0  0  0  0  0  0
    3.2817    5.1424    1.0599 H   0  0  0  0  0  0  0  0  0  0  0  0
   -1.9467    3.0996    4.2462 H   0  0  0  0  0  0  0  0  0  0  0  0
   -3.3299    2.7775    6.1228 H   0  0  0  0  0  0  0  0  0  0  0  0
   -2.7504    3.6020    7.5812 H   0  0  0  0  0  0  0  0  0  0  0  0
   -2.2922    0.6647    6.9165 H   0  0  0  0  0  0  0  0  0  0  0  0
   -3.4017    1.3044    8.1328 H   0  0  0  0  0  0  0  0  0  0  0  0
   -1.2535    0.5489    9.1521 H   0  0  0  0  0  0  0  0  0  0  0  0
   -1.5013    2.2784    9.3856 H   0  0  0  0  0  0  0  0  0  0  0  0
    0.2403    0.9829    7.2347 H   0  0  0  0  0  0  0  0  0  0  0  0
    0.8259    1.8442    8.6586 H   0  0  0  0  0  0  0  0  0  0  0  0
   -0.2091    3.9217    7.8866 H   0  0  0  0  0  0  0  0  0  0  0  0
    0.8723    3.2945    6.6202 H   0  0  0  0  0  0  0  0  0  0  0  0
    2.6731    0.0369    3.2062 H   0  0  0  0  0  0  0  0  0  0  0  0
    0.8314   -0.6133    4.6643 H   0  0  0  0  0  0  0  0  0  0  0  0
    1.1794    1.1063    4.8592 H   0  0  0  0  0  0  0  0  0  0  0  0
   -0.2382    0.5818    3.9369 H   0  0  0  0  0  0  0  0  0  0  0  0
    1.1858   -1.7490    2.4959 H   0  0  0  0  0  0  0  0  0  0  0  0
    0.0513   -0.6276    1.7662 H   0  0  0  0  0  0  0  0  0  0  0  0
    1.6472   -0.8745    1.0488 H   0  0  0  0  0  0  0  0  0  0  0  0
    3.5440    2.8336    0.6403 H   0  0  0  0  0  0  0  0  0  0  0  0
    4.5370    0.8637   -0.3413 H   0  0  0  0  0  0  0  0  0  0  0  0
    3.7315   -0.2093    0.7875 H   0  0  0  0  0  0  0  0  0  0  0  0
    2.7951    0.6632   -0.4415 H   0  0  0  0  0  0  0  0  0  0  0  0
    5.6077    1.9017    1.6412 H   0  0  0  0  0  0  0  0  0  0  0  0
    4.6622    2.7540    2.8555 H   0  0  0  0  0  0  0  0  0  0  0  0
    4.6618    0.9972    2.8176 H   0  0  0  0  0  0  0  0  0  0  0  0
    0.6149    1.0477    0.2320 H   0  0  0  0  0  0  0  0  0  0  0  0
    0.1225    3.1272   -1.0723 H   0  0  0  0  0  0  0  0  0  0  0  0
    0.9973    4.0756    0.1203 H   0  0  0  0  0  0  0  0  0  0  0  0
    1.8464    2.8748   -0.8658 H   0  0  0  0  0  0  0  0  0  0  0  0
   -1.5376    2.2397    0.5030 H   0  0  0  0  0  0  0  0  0  0  0  0
   -1.0430    1.5178    2.0337 H   0  0  0  0  0  0  0  0  0  0  0  0
   -0.8308    3.2519    1.7711 H   0  0  0  0  0  0  0  0  0  0  0  0
  1  6  1  0  0  0  0
  1  9  1  0  0  0  0
  2 17  1  0  0  0  0
  4 26  1  6  0  0  0
  4  1  1  0  0  0  0
  4  5  1  0  0  0  0
  5 27  1  0  0  0  0
  5  6  1  0  0  0  0
  6 28  1  1  0  0  0
  7 29  1  0  0  0  0
  7  6  1  0  0  0  0
  8  4  1  0  0  0  0
  8  7  2  0  0  0  0
  9 10  1  0  0  0  0
 10 11  2  0  0  0  0
 11 12  1  0  0  0  0
 11 16  1  0  0  0  0
 12 33  1  0  0  0  0
 12 13  1  0  0  0  0
 13 35  1  0  0  0  0
 13 14  1  0  0  0  0
 14 36  1  0  0  0  0
 14 37  1  0  0  0  0
 15 14  1  0  0  0  0
 15 39  1  0  0  0  0
 16 40  1  0  0  0  0
 16 15  1  0  0  0  0
 17 42  1  0  0  0  0
 17 18  1  0  0  0  0
 18 43  1  0  0  0  0
 18 44  1  0  0  0  0
 19 46  1  0  0  0  0
 19 17  1  0  0  0  0
 20  2  1  0  0  0  0
 20 22  1  0  0  0  0
 21 51  1  0  0  0  0
 21 20  1  0  0  0  0
 22 55  1  0  0  0  0
 22 54  1  0  0  0  0
 23 25  1  0  0  0  0
 23  2  1  0  0  0  0
 24 58  1  0  0  0  0
 24 23  1  0  0  0  0
 25 62  1  0  0  0  0
 25 61  1  0  0  0  0
 30  8  1  0  0  0  0
 31 10  1  0  0  0  0
 32 12  1  0  0  0  0
 34 13  1  0  0  0  0
 38 15  1  0  0  0  0
 41 16  1  0  0  0  0
 45 18  1  0  0  0  0
 47 19  1  0  0  0  0
 48 19  1  0  0  0  0
 49 20  1  0  0  0  0
 50 21  1  0  0  0  0
 52 21  1  0  0  0  0
 53 22  1  0  0  0  0
 56 23  1  0  0  0  0
 57 24  1  0  0  0  0
 59 24  1  0  0  0  0
 60 25  1  0  0  0  0
M  END
$$$$
