CSD_code = NOSFOQ | q = 0 | S = 0 | Stoichiometry = C24H30Cl2Ti | MND = 12
 OpenBabel04212202073D

 57 62  0  0  1  0  0  0  0  0999 V2000
   -0.0000    1.2186    4.4525 Ti  0  0  0  0  0  0  0  0  0  0  0  0
   -1.5239    2.7931    4.0578 Cl  0  0  0  0  0  0  0  0  0  0  0  0
    0.6812    0.1992    6.4974 C   0  0  0  0  0  0  0  0  0  0  0  0
   -0.1581   -0.6835    5.7766 C   0  0  0  0  0  0  0  0  0  0  0  0
   -1.4381   -0.0714    5.6733 C   0  0  1  0  0  0  0  0  0  0  0  0
   -2.3390   -0.5309    5.2844 H   0  0  0  0  0  0  0  0  0  0  0  0
   -1.4044    1.1338    6.4148 C   0  0  0  0  0  0  0  0  0  0  0  0
   -2.2545    1.7700    6.6276 H   0  0  0  0  0  0  0  0  0  0  0  0
   -0.1034    1.3061    6.9192 C   0  0  0  0  0  0  0  0  0  0  0  0
    0.3970    2.3495    7.8685 C   0  0  0  0  0  0  0  0  0  0  0  0
    0.7253    3.2381    7.3179 H   0  0  0  0  0  0  0  0  0  0  0  0
   -0.4093    2.6550    8.5415 H   0  0  0  0  0  0  0  0  0  0  0  0
    1.5794    1.7825    8.6589 C   0  0  0  0  0  0  0  0  0  0  0  0
    2.0303    2.5728    9.2607 H   0  0  0  0  0  0  0  0  0  0  0  0
    1.2242    1.0008    9.3358 H   0  0  0  0  0  0  0  0  0  0  0  0
    2.6190    1.1967    7.7053 C   0  0  0  0  0  0  0  0  0  0  0  0
    3.5265    0.9351    8.2530 H   0  0  0  0  0  0  0  0  0  0  0  0
    2.8750    1.9479    6.9561 H   0  0  0  0  0  0  0  0  0  0  0  0
    2.0735   -0.0490    7.0020 C   0  0  0  0  0  0  0  0  0  0  0  0
    2.7486   -0.3369    6.1893 H   0  0  0  0  0  0  0  0  0  0  0  0
    2.0393   -0.8850    7.7124 H   0  0  0  0  0  0  0  0  0  0  0  0
    0.2275   -2.0088    5.1867 C   0  0  1  0  0  0  0  0  0  0  0  0
    1.3203   -2.1009    5.2177 H   0  0  0  0  0  0  0  0  0  0  0  0
   -0.3553   -3.2343    5.8938 C   0  0  0  0  0  0  0  0  0  0  0  0
   -0.0616   -3.2388    6.9454 H   0  0  0  0  0  0  0  0  0  0  0  0
   -1.4460   -3.2038    5.8506 H   0  0  0  0  0  0  0  0  0  0  0  0
    0.1646   -4.4934    5.1992 C   0  0  0  0  0  0  0  0  0  0  0  0
    1.2484   -4.5478    5.3274 H   0  0  0  0  0  0  0  0  0  0  0  0
   -0.2692   -5.3794    5.6667 H   0  0  0  0  0  0  0  0  0  0  0  0
    1.5234    2.7934    4.8475 Cl  0  0  0  0  0  0  0  0  0  0  0  0
   -0.6811    0.1992    2.4076 C   0  0  0  0  0  0  0  0  0  0  0  0
    0.1581   -0.6835    3.1285 C   0  0  0  0  0  0  0  0  0  0  0  0
   -0.2275   -2.0088    3.7183 C   0  0  1  0  0  0  0  0  0  0  0  0
    1.4381   -0.0714    3.2319 C   0  0  1  0  0  0  0  0  0  0  0  0
    1.4044    1.1338    2.4903 C   0  0  0  0  0  0  0  0  0  0  0  0
    2.3389   -0.5309    3.6208 H   0  0  0  0  0  0  0  0  0  0  0  0
    2.2545    1.7700    2.2775 H   0  0  0  0  0  0  0  0  0  0  0  0
    0.1034    1.3061    1.9859 C   0  0  0  0  0  0  0  0  0  0  0  0
   -2.0735   -0.0491    1.9029 C   0  0  0  0  0  0  0  0  0  0  0  0
   -2.6190    1.1966    1.1995 C   0  0  0  0  0  0  0  0  0  0  0  0
   -1.5792    1.7825    0.2460 C   0  0  0  0  0  0  0  0  0  0  0  0
   -0.3970    2.3495    1.0365 C   0  0  0  0  0  0  0  0  0  0  0  0
   -0.7253    3.2381    1.5871 H   0  0  0  0  0  0  0  0  0  0  0  0
    0.4094    2.6551    0.3636 H   0  0  0  0  0  0  0  0  0  0  0  0
   -2.0301    2.5728   -0.3558 H   0  0  0  0  0  0  0  0  0  0  0  0
   -1.2240    1.0009   -0.4308 H   0  0  0  0  0  0  0  0  0  0  0  0
   -3.5264    0.9350    0.6517 H   0  0  0  0  0  0  0  0  0  0  0  0
   -2.8751    1.9479    1.9487 H   0  0  0  0  0  0  0  0  0  0  0  0
   -2.7486   -0.3369    2.7156 H   0  0  0  0  0  0  0  0  0  0  0  0
   -2.0392   -0.8851    1.1925 H   0  0  0  0  0  0  0  0  0  0  0  0
   -1.3203   -2.1008    3.6873 H   0  0  0  0  0  0  0  0  0  0  0  0
    0.3552   -3.2343    3.0112 C   0  0  0  0  0  0  0  0  0  0  0  0
    0.0616   -3.2388    1.9596 H   0  0  0  0  0  0  0  0  0  0  0  0
    1.4460   -3.2038    3.0545 H   0  0  0  0  0  0  0  0  0  0  0  0
   -0.1647   -4.4933    3.7058 C   0  0  0  0  0  0  0  0  0  0  0  0
   -1.2485   -4.5478    3.5776 H   0  0  0  0  0  0  0  0  0  0  0  0
    0.2691   -5.3794    3.2383 H   0  0  0  0  0  0  0  0  0  0  0  0
  1 30  1  0  0  0  0
  1  5  1  0  0  0  0
  2  1  1  0  0  0  0
  3  9  1  0  0  0  0
  3 19  1  0  0  0  0
  4  3  2  0  0  0  0
  5  6  1  6  0  0  0
  5  4  1  0  0  0  0
  5  7  1  0  0  0  0
  7  8  1  0  0  0  0
  7  9  2  0  0  0  0
  9 10  1  0  0  0  0
 10 12  1  0  0  0  0
 10 13  1  0  0  0  0
 11 10  1  0  0  0  0
 13 14  1  0  0  0  0
 13 15  1  0  0  0  0
 16 17  1  0  0  0  0
 16 13  1  0  0  0  0
 18 16  1  0  0  0  0
 19 16  1  0  0  0  0
 19 21  1  0  0  0  0
 20 19  1  0  0  0  0
 22 23  1  1  0  0  0
 22  4  1  0  0  0  0
 22 24  1  0  0  0  0
 24 25  1  0  0  0  0
 26 24  1  0  0  0  0
 27 28  1  0  0  0  0
 27 29  1  0  0  0  0
 27 24  1  0  0  0  0
 31 32  2  0  0  0  0
 32 34  1  0  0  0  0
 32 33  1  0  0  0  0
 33 51  1  6  0  0  0
 33 22  1  0  0  0  0
 34 36  1  1  0  0  0
 34  1  1  0  0  0  0
 35 34  1  0  0  0  0
 37 35  1  0  0  0  0
 38 31  1  0  0  0  0
 38 35  2  0  0  0  0
 39 31  1  0  0  0  0
 39 49  1  0  0  0  0
 40 39  1  0  0  0  0
 40 48  1  0  0  0  0
 41 42  1  0  0  0  0
 41 40  1  0  0  0  0
 42 43  1  0  0  0  0
 42 38  1  0  0  0  0
 44 42  1  0  0  0  0
 45 41  1  0  0  0  0
 46 41  1  0  0  0  0
 47 40  1  0  0  0  0
 50 39  1  0  0  0  0
 52 54  1  0  0  0  0
 52 55  1  0  0  0  0
 52 33  1  0  0  0  0
 53 52  1  0  0  0  0
 55 27  1  0  0  0  0
 56 55  1  0  0  0  0
 57 55  1  0  0  0  0
M  END
$$$$
