CSD_code = NOSFEG | q = 0 | S = 0 | Stoichiometry = C20H31ClNSiY | MND = 12
 OpenBabel04212202073D

 55 58  0  0  1  0  0  0  0  0999 V2000
   -0.1369    1.3212    3.1091 Y   0  0  2  0  0  0  0  0  0  0  0  0
    1.6208    0.7634    1.5257 Cl  0  0  0  0  0  0  0  0  0  0  0  0
   -1.2550    0.2123    6.2416 Si  0  0  0  0  0  0  0  0  0  0  0  0
   -1.2308    2.8334    1.4697 N   0  0  0  0  0  4  0  0  0  0  0  0
   -0.6137    3.0722    5.7411 C   0  0  0  0  0  0  0  0  0  0  0  0
    0.3055    3.8019    4.9502 C   0  0  0  0  0  0  0  0  0  0  0  0
    1.3262    2.9235    4.5256 C   0  0  2  0  0  3  0  0  0  0  0  0
    1.0240    1.6166    5.0568 C   0  0  1  0  0  0  0  0  0  0  0  0
   -0.1951    1.7359    5.8417 C   0  0  2  0  0  3  0  0  0  0  0  0
   -1.8301    3.6717    6.3734 C   0  0  0  0  0  0  0  0  0  0  0  0
   -2.1243    3.0962    7.2443 H   0  0  0  0  0  0  0  0  0  0  0  0
   -2.6729    3.6947    5.6773 H   0  0  0  0  0  0  0  0  0  0  0  0
   -1.6297    4.6942    6.6886 H   0  0  0  0  0  0  0  0  0  0  0  0
    0.2479    5.2793    4.6975 C   0  0  0  0  0  0  0  0  0  0  0  0
    0.7722    5.5472    3.7806 H   0  0  0  0  0  0  0  0  0  0  0  0
    0.7202    5.8233    5.5180 H   0  0  0  0  0  0  0  0  0  0  0  0
   -0.7819    5.6270    4.6216 H   0  0  0  0  0  0  0  0  0  0  0  0
    2.6555    3.3152    3.9308 C   0  0  0  0  0  0  0  0  0  0  0  0
    2.6149    4.3173    3.5079 H   0  0  0  0  0  0  0  0  0  0  0  0
    2.9710    2.6253    3.1458 H   0  0  0  0  0  0  0  0  0  0  0  0
    3.4220    3.3129    4.7088 H   0  0  0  0  0  0  0  0  0  0  0  0
    2.0691    0.5324    5.2211 C   0  0  0  0  0  0  0  0  0  0  0  0
    1.6147   -0.4452    5.3796 H   0  0  0  0  0  0  0  0  0  0  0  0
    2.6899    0.7552    6.0937 H   0  0  0  0  0  0  0  0  0  0  0  0
    2.7306    0.4781    4.3527 H   0  0  0  0  0  0  0  0  0  0  0  0
   -0.3198   -1.1787    7.1605 C   0  0  0  0  0  0  0  0  0  0  0  0
    0.4341   -0.7732    7.8267 H   0  0  0  0  0  0  0  0  0  0  0  0
    0.1716   -1.8664    6.4811 H   0  0  0  0  0  0  0  0  0  0  0  0
   -1.0115   -1.7585    7.7618 H   0  0  0  0  0  0  0  0  0  0  0  0
   -2.8652    0.5218    7.2139 C   0  0  0  0  0  0  0  0  0  0  0  0
   -2.6551    0.9091    8.2047 H   0  0  0  0  0  0  0  0  0  0  0  0
   -3.4015   -0.4136    7.3353 H   0  0  0  0  0  0  0  0  0  0  0  0
   -3.5286    1.2159    6.7124 H   0  0  0  0  0  0  0  0  0  0  0  0
   -1.6594   -0.2252    4.4409 C   0  0  1  0  0  3  0  0  0  0  0  0
   -2.4462    0.6316    3.6138 C   0  0  2  0  0  0  0  0  0  0  0  0
   -3.1813    1.3347    3.9864 H   0  0  0  0  0  0  0  0  0  0  0  0
   -2.2882    0.2399    2.2631 C   0  0  2  0  0  3  0  0  0  0  0  0
   -1.3749   -0.8440    2.2403 C   0  0  0  0  0  0  0  0  0  0  0  0
   -1.1068   -1.4233    1.3671 H   0  0  0  0  0  0  0  0  0  0  0  0
   -0.9808   -1.1148    3.5633 C   0  0  0  0  0  0  0  0  0  0  0  0
   -0.3702   -1.9547    3.8708 H   0  0  0  0  0  0  0  0  0  0  0  0
   -2.8692    0.9442    1.0676 C   0  0  0  0  0  0  0  0  0  0  0  0
   -3.7883    1.4642    1.3500 H   0  0  0  0  0  0  0  0  0  0  0  0
   -3.1245    0.2232    0.2869 H   0  0  0  0  0  0  0  0  0  0  0  0
   -1.8530    1.9373    0.4643 C   0  0  0  0  0  0  0  0  0  0  0  0
   -1.0446    1.3621   -0.0011 H   0  0  0  0  0  0  0  0  0  0  0  0
   -2.3442    2.5405   -0.3151 H   0  0  0  0  0  0  0  0  0  0  0  0
   -2.2326    3.7876    1.9666 C   0  0  0  0  0  0  0  0  0  0  0  0
   -1.7702    4.4626    2.6874 H   0  0  0  0  0  0  0  0  0  0  0  0
   -3.0477    3.2612    2.4594 H   0  0  0  0  0  0  0  0  0  0  0  0
   -2.6484    4.3834    1.1426 H   0  0  0  0  0  0  0  0  0  0  0  0
   -0.1660    3.6056    0.8052 C   0  0  0  0  0  0  0  0  0  0  0  0
    0.6099    2.9338    0.4333 H   0  0  0  0  0  0  0  0  0  0  0  0
    0.2841    4.2980    1.5196 H   0  0  0  0  0  0  0  0  0  0  0  0
   -0.5678    4.1845   -0.0375 H   0  0  0  0  0  0  0  0  0  0  0  0
  1  2  1  6  0  0  0
  1 35  1  0  0  0  0
  1  8  1  0  0  0  0
  3 26  1  0  0  0  0
  3 30  1  0  0  0  0
  4 48  1  0  0  0  0
  4  1  1  0  0  0  0
  5 10  1  0  0  0  0
  6  5  2  0  0  0  0
  7 18  1  1  0  0  0
  7  6  1  0  0  0  0
  7  8  1  0  0  0  0
  8 22  1  1  0  0  0
  8  9  1  0  0  0  0
  9  5  1  6  0  0  0
  9  3  1  0  0  0  0
 10 13  1  0  0  0  0
 10 11  1  0  0  0  0
 12 10  1  0  0  0  0
 14  6  1  0  0  0  0
 14 16  1  0  0  0  0
 15 14  1  0  0  0  0
 17 14  1  0  0  0  0
 18 21  1  0  0  0  0
 19 18  1  0  0  0  0
 20 18  1  0  0  0  0
 22 23  1  0  0  0  0
 22 24  1  0  0  0  0
 25 22  1  0  0  0  0
 26 29  1  0  0  0  0
 26 27  1  0  0  0  0
 28 26  1  0  0  0  0
 30 32  1  0  0  0  0
 30 31  1  0  0  0  0
 33 30  1  0  0  0  0
 34 40  1  6  0  0  0
 34  3  1  0  0  0  0
 35 36  1  1  0  0  0
 35 34  1  0  0  0  0
 37 38  1  6  0  0  0
 37 35  1  0  0  0  0
 38 40  2  0  0  0  0
 39 38  1  0  0  0  0
 40 41  1  0  0  0  0
 42 43  1  0  0  0  0
 42 37  1  0  0  0  0
 44 42  1  0  0  0  0
 45 42  1  0  0  0  0
 45  4  1  0  0  0  0
 46 45  1  0  0  0  0
 47 45  1  0  0  0  0
 48 50  1  0  0  0  0
 48 49  1  0  0  0  0
 51 48  1  0  0  0  0
 52  4  1  0  0  0  0
 52 54  1  0  0  0  0
 53 52  1  0  0  0  0
 55 52  1  0  0  0  0
M  END
$$$$
