CSD_code = NOSWID | q = 0 | S = 0 | Stoichiometry = C21H45ClFeP2 | MND = 4
 OpenBabel04212202073D

 70 71  0  0  0  0  0  0  0  0999 V2000
    3.3609    7.8085    0.8983 Fe  0  0  0  0  0  0  0  0  0  0  0  0
    4.5681    6.1971    1.0874 Cl  0  0  0  0  0  0  0  0  0  0  0  0
    1.4443    6.8626    1.5492 P   0  0  0  0  0  4  0  0  0  0  0  0
    2.5115    9.0886   -0.6304 P   0  0  0  0  0  4  0  0  0  0  0  0
   -0.0276    7.1156    0.4312 C   0  0  0  0  0  0  0  0  0  0  0  0
    0.0650    6.4173   -0.4037 H   0  0  0  0  0  0  0  0  0  0  0  0
   -0.9196    6.8322    0.9944 H   0  0  0  0  0  0  0  0  0  0  0  0
   -0.2022    8.5233   -0.1285 C   0  0  0  0  0  0  0  0  0  0  0  0
   -0.0743    9.2591    0.6635 H   0  0  0  0  0  0  0  0  0  0  0  0
   -1.2235    8.6202   -0.5141 H   0  0  0  0  0  0  0  0  0  0  0  0
    0.7799    8.8192   -1.2560 C   0  0  0  0  0  0  0  0  0  0  0  0
    0.4605    9.7097   -1.8024 H   0  0  0  0  0  0  0  0  0  0  0  0
    0.7796    7.9846   -1.9586 H   0  0  0  0  0  0  0  0  0  0  0  0
    0.6623    7.2661    3.2195 C   0  0  0  0  0  0  0  0  0  0  0  0
    1.4685    7.0483    3.9299 H   0  0  0  0  0  0  0  0  0  0  0  0
   -0.5695    6.4754    3.6555 C   0  0  0  0  0  0  0  0  0  0  0  0
   -1.4115    6.6390    2.9867 H   0  0  0  0  0  0  0  0  0  0  0  0
   -0.8689    6.8191    4.6454 H   0  0  0  0  0  0  0  0  0  0  0  0
   -0.3789    5.4087    3.7198 H   0  0  0  0  0  0  0  0  0  0  0  0
    0.3523    8.7610    3.2851 C   0  0  0  0  0  0  0  0  0  0  0  0
    1.1366    9.3294    2.7916 H   0  0  0  0  0  0  0  0  0  0  0  0
    0.2768    9.0922    4.3200 H   0  0  0  0  0  0  0  0  0  0  0  0
   -0.5971    8.9728    2.7987 H   0  0  0  0  0  0  0  0  0  0  0  0
    1.3323    4.9821    1.6006 C   0  0  0  0  0  0  0  0  0  0  0  0
    0.2698    4.7323    1.7219 H   0  0  0  0  0  0  0  0  0  0  0  0
    1.8249    4.3564    0.2976 C   0  0  0  0  0  0  0  0  0  0  0  0
    1.3090    4.7580   -0.5722 H   0  0  0  0  0  0  0  0  0  0  0  0
    1.6592    3.2801    0.3192 H   0  0  0  0  0  0  0  0  0  0  0  0
    2.8902    4.5314    0.1771 H   0  0  0  0  0  0  0  0  0  0  0  0
    2.1353    4.4128    2.7673 C   0  0  0  0  0  0  0  0  0  0  0  0
    3.1780    4.7051    2.6749 H   0  0  0  0  0  0  0  0  0  0  0  0
    2.0853    3.3246    2.7575 H   0  0  0  0  0  0  0  0  0  0  0  0
    1.7653    4.7608    3.7282 H   0  0  0  0  0  0  0  0  0  0  0  0
    2.5992   10.9735   -0.7607 C   0  0  0  0  0  0  0  0  0  0  0  0
    3.5658   11.2400   -0.3180 H   0  0  0  0  0  0  0  0  0  0  0  0
    1.5100   11.5884    0.1173 C   0  0  0  0  0  0  0  0  0  0  0  0
    0.5299   11.4853   -0.3424 H   0  0  0  0  0  0  0  0  0  0  0  0
    1.7009   12.6506    0.2653 H   0  0  0  0  0  0  0  0  0  0  0  0
    1.4862   11.1061    1.0920 H   0  0  0  0  0  0  0  0  0  0  0  0
    2.5398   11.5658   -2.1663 C   0  0  0  0  0  0  0  0  0  0  0  0
    3.4211   11.3132   -2.7494 H   0  0  0  0  0  0  0  0  0  0  0  0
    2.4890   12.6519   -2.0944 H   0  0  0  0  0  0  0  0  0  0  0  0
    1.6582   11.2293   -2.7082 H   0  0  0  0  0  0  0  0  0  0  0  0
    3.4505    8.5512   -2.1745 C   0  0  0  0  0  0  0  0  0  0  0  0
    3.0449    9.0735   -3.0483 H   0  0  0  0  0  0  0  0  0  0  0  0
    4.9305    8.8768   -1.9979 C   0  0  0  0  0  0  0  0  0  0  0  0
    5.0962    9.9403   -1.8360 H   0  0  0  0  0  0  0  0  0  0  0  0
    5.4978    8.5751   -2.8781 H   0  0  0  0  0  0  0  0  0  0  0  0
    5.3223    8.3285   -1.1379 H   0  0  0  0  0  0  0  0  0  0  0  0
    3.2991    7.0443   -2.3675 C   0  0  0  0  0  0  0  0  0  0  0  0
    3.5589    6.5222   -1.4443 H   0  0  0  0  0  0  0  0  0  0  0  0
    3.9676    6.6975   -3.1541 H   0  0  0  0  0  0  0  0  0  0  0  0
    2.2866    6.7617   -2.6448 H   0  0  0  0  0  0  0  0  0  0  0  0
    3.7715    9.3318    2.1544 C   0  0  0  0  0  0  0  0  0  0  0  0
    3.1677   10.2449    2.1876 H   0  0  0  0  0  0  0  0  0  0  0  0
    5.1567    9.6727    1.6231 C   0  0  0  0  0  0  0  0  0  0  0  0
    5.7787    8.7691    1.5848 H   0  0  0  0  0  0  0  0  0  0  0  0
    5.0989   10.0944    0.6153 H   0  0  0  0  0  0  0  0  0  0  0  0
    5.8578   10.6900    2.5327 C   0  0  0  0  0  0  0  0  0  0  0  0
    5.2753   11.6149    2.5485 H   0  0  0  0  0  0  0  0  0  0  0  0
    6.8490   10.9229    2.1341 H   0  0  0  0  0  0  0  0  0  0  0  0
    5.9755   10.1400    3.9481 C   0  0  0  0  0  0  0  0  0  0  0  0
    6.6082    9.2494    3.9397 H   0  0  0  0  0  0  0  0  0  0  0  0
    6.4484   10.8808    4.5981 H   0  0  0  0  0  0  0  0  0  0  0  0
    4.5976    9.7758    4.4853 C   0  0  0  0  0  0  0  0  0  0  0  0
    3.9836   10.6776    4.5530 H   0  0  0  0  0  0  0  0  0  0  0  0
    4.6856    9.3534    5.4893 H   0  0  0  0  0  0  0  0  0  0  0  0
    3.9079    8.7669    3.5570 C   0  0  0  0  0  0  0  0  0  0  0  0
    4.5030    7.8501    3.5321 H   0  0  0  0  0  0  0  0  0  0  0  0
    2.9326    8.5274    3.9732 H   0  0  0  0  0  0  0  0  0  0  0  0
  1  2  1  0  0  0  0
  1  3  1  0  0  0  0
  1 54  1  0  0  0  0
  3 24  1  0  0  0  0
  3 14  1  0  0  0  0
  4  1  1  0  0  0  0
  5  7  1  0  0  0  0
  5  3  1  0  0  0  0
  6  5  1  0  0  0  0
  8  5  1  0  0  0  0
  8  9  1  0  0  0  0
 10  8  1  0  0  0  0
 11  4  1  0  0  0  0
 11  8  1  0  0  0  0
 12 11  1  0  0  0  0
 13 11  1  0  0  0  0
 14 20  1  0  0  0  0
 14 16  1  0  0  0  0
 14 15  1  0  0  0  0
 16 19  1  0  0  0  0
 16 18  1  0  0  0  0
 17 16  1  0  0  0  0
 20 22  1  0  0  0  0
 21 20  1  0  0  0  0
 23 20  1  0  0  0  0
 24 25  1  0  0  0  0
 24 30  1  0  0  0  0
 26 28  1  0  0  0  0
 26 24  1  0  0  0  0
 27 26  1  0  0  0  0
 29 26  1  0  0  0  0
 30 33  1  0  0  0  0
 31 30  1  0  0  0  0
 32 30  1  0  0  0  0
 34  4  1  0  0  0  0
 34 35  1  0  0  0  0
 34 36  1  0  0  0  0
 36 38  1  0  0  0  0
 36 39  1  0  0  0  0
 37 36  1  0  0  0  0
 40 42  1  0  0  0  0
 40 34  1  0  0  0  0
 41 40  1  0  0  0  0
 43 40  1  0  0  0  0
 44 46  1  0  0  0  0
 44  4  1  0  0  0  0
 45 44  1  0  0  0  0
 46 47  1  0  0  0  0
 46 49  1  0  0  0  0
 48 46  1  0  0  0  0
 50 44  1  0  0  0  0
 50 51  1  0  0  0  0
 52 50  1  0  0  0  0
 53 50  1  0  0  0  0
 54 55  1  0  0  0  0
 54 68  1  0  0  0  0
 56 54  1  0  0  0  0
 56 59  1  0  0  0  0
 57 56  1  0  0  0  0
 58 56  1  0  0  0  0
 59 60  1  0  0  0  0
 59 62  1  0  0  0  0
 61 59  1  0  0  0  0
 62 65  1  0  0  0  0
 62 64  1  0  0  0  0
 63 62  1  0  0  0  0
 65 66  1  0  0  0  0
 65 67  1  0  0  0  0
 68 70  1  0  0  0  0
 68 65  1  0  0  0  0
 69 68  1  0  0  0  0
M  END
$$$$
