CSD_code = NOTMEQ | q = 0 | S = 0 | Stoichiometry = C18H26Cl2FeN4 | MND = 6
 OpenBabel04212202073D

 51 55  0  0  1  0  0  0  0  0999 V2000
    3.9725   11.3483    1.0000 Fe  0  0  0  0  0  0  0  0  0  0  0  0
    5.4685   12.8219    0.3268 Cl  0  0  0  0  0  0  0  0  0  0  0  0
    5.5257    9.9077    1.6111 Cl  0  0  0  0  0  0  0  0  0  0  0  0
    3.9852   11.9678    2.8053 N   0  0  0  0  0  0  0  0  0  0  0  0
    3.9252   10.7300   -0.8056 N   0  0  0  0  0  0  0  0  0  0  0  0
    2.4662   10.1154    1.7601 N   0  0  2  0  0  4  0  0  0  0  0  0
    2.4087   12.5470    0.3030 N   0  0  1  0  0  4  0  0  0  0  0  0
    4.5776   13.0801    3.2473 C   0  0  0  0  0  3  0  0  0  0  0  0
    5.0721   13.6682    2.4898 H   0  0  0  0  0  0  0  0  0  0  0  0
    4.5227    9.6309   -1.2729 C   0  0  0  0  0  3  0  0  0  0  0  0
    5.0607    9.0535   -0.5372 H   0  0  0  0  0  0  0  0  0  0  0  0
    1.2397   10.9097    1.6979 C   0  0  0  0  0  0  0  0  0  0  0  0
    1.2330   11.5924    2.5495 H   0  0  0  0  0  0  0  0  0  0  0  0
    0.3465   10.2740    1.7588 H   0  0  0  0  0  0  0  0  0  0  0  0
    2.8704    9.8661    3.1563 C   0  0  1  0  0  0  0  0  0  0  0  0
    3.7336    9.1918    3.0856 H   0  0  0  0  0  0  0  0  0  0  0  0
    2.7526   12.8075   -1.1071 C   0  0  1  0  0  0  0  0  0  0  0  0
    3.6048   13.4983   -1.0683 H   0  0  0  0  0  0  0  0  0  0  0  0
    1.2053   11.7227    0.4109 C   0  0  0  0  0  0  0  0  0  0  0  0
    1.1833   11.0399   -0.4404 H   0  0  0  0  0  0  0  0  0  0  0  0
    0.2950   12.3362    0.3842 H   0  0  0  0  0  0  0  0  0  0  0  0
    4.5990   13.4543    4.5756 C   0  0  0  0  0  0  0  0  0  0  0  0
    5.1021   14.3617    4.8679 H   0  0  0  0  0  0  0  0  0  0  0  0
    3.3770   11.4740    5.0614 C   0  0  0  0  0  0  0  0  0  0  0  0
    2.9065   10.8065    5.7642 H   0  0  0  0  0  0  0  0  0  0  0  0
    3.4078   11.1594    3.7140 C   0  0  0  0  0  0  0  0  0  0  0  0
    3.9745   12.6433    5.5093 C   0  0  0  0  0  0  0  0  0  0  0  0
    3.9639   12.8987    6.5575 H   0  0  0  0  0  0  0  0  0  0  0  0
    3.8158   10.0545   -3.5072 C   0  0  0  0  0  0  0  0  0  0  0  0
    3.7665    9.7989   -4.5543 H   0  0  0  0  0  0  0  0  0  0  0  0
    4.4966    9.2573   -2.6013 C   0  0  0  0  0  0  0  0  0  0  0  0
    5.0066    8.3611   -2.9155 H   0  0  0  0  0  0  0  0  0  0  0  0
    3.2126   11.2107   -3.0338 C   0  0  0  0  0  0  0  0  0  0  0  0
    2.6986   11.8676   -3.7158 H   0  0  0  0  0  0  0  0  0  0  0  0
    2.2890   13.7876    1.0526 C   0  0  0  0  0  0  0  0  0  0  0  0
    1.4862   14.4305    0.6761 H   0  0  0  0  0  0  0  0  0  0  0  0
    3.2381   14.3145    0.9881 H   0  0  0  0  0  0  0  0  0  0  0  0
    2.0881   13.5712    2.0988 H   0  0  0  0  0  0  0  0  0  0  0  0
    3.2933   11.5261   -1.6886 C   0  0  0  0  0  0  0  0  0  0  0  0
    2.3484    8.8703    1.0175 C   0  0  0  0  0  0  0  0  0  0  0  0
    1.5796    8.2070    1.4280 H   0  0  0  0  0  0  0  0  0  0  0  0
    3.3132    8.3690    1.0435 H   0  0  0  0  0  0  0  0  0  0  0  0
    2.0988    9.0788   -0.0196 H   0  0  0  0  0  0  0  0  0  0  0  0
    1.7926    9.2183    4.0276 C   0  0  0  0  0  0  0  0  0  0  0  0
    1.0093    9.9248    4.2956 H   0  0  0  0  0  0  0  0  0  0  0  0
    2.2419    8.8365    4.9396 H   0  0  0  0  0  0  0  0  0  0  0  0
    1.3403    8.3745    3.5144 H   0  0  0  0  0  0  0  0  0  0  0  0
    1.6297   13.4365   -1.9339 C   0  0  0  0  0  0  0  0  0  0  0  0
    0.8462   12.7180   -2.1667 H   0  0  0  0  0  0  0  0  0  0  0  0
    2.0348   13.8217   -2.8650 H   0  0  0  0  0  0  0  0  0  0  0  0
    1.1875   14.2757   -1.4044 H   0  0  0  0  0  0  0  0  0  0  0  0
  1  3  1  0  0  0  0
  1  6  1  0  0  0  0
  1  4  1  0  0  0  0
  2  1  1  0  0  0  0
  4  8  1  0  0  0  0
  4 26  1  0  0  0  0
  5  1  1  0  0  0  0
  6 40  1  6  0  0  0
  6 15  1  0  0  0  0
  7 19  1  0  0  0  0
  7  1  1  0  0  0  0
  7 35  1  1  0  0  0
  8 22  1  0  0  0  0
  9  8  1  0  0  0  0
 10  5  1  0  0  0  0
 10 11  1  0  0  0  0
 12 14  1  0  0  0  0
 12  6  1  0  0  0  0
 12 13  1  0  0  0  0
 15 16  1  6  0  0  0
 15 26  1  0  0  0  0
 15 44  1  0  0  0  0
 17 18  1  1  0  0  0
 17  7  1  0  0  0  0
 19 12  1  0  0  0  0
 20 19  1  0  0  0  0
 21 19  1  0  0  0  0
 22 23  1  0  0  0  0
 22 27  2  0  0  0  0
 24 27  1  0  0  0  0
 24 25  1  0  0  0  0
 26 24  2  0  0  0  0
 27 28  1  0  0  0  0
 29 33  1  0  0  0  0
 29 31  2  0  0  0  0
 30 29  1  0  0  0  0
 31 10  1  0  0  0  0
 32 31  1  0  0  0  0
 33 39  2  0  0  0  0
 34 33  1  0  0  0  0
 35 38  1  0  0  0  0
 36 35  1  0  0  0  0
 37 35  1  0  0  0  0
 39 17  1  0  0  0  0
 39  5  1  0  0  0  0
 40 42  1  0  0  0  0
 40 41  1  0  0  0  0
 43 40  1  0  0  0  0
 44 45  1  0  0  0  0
 44 46  1  0  0  0  0
 47 44  1  0  0  0  0
 48 51  1  0  0  0  0
 48 17  1  0  0  0  0
 49 48  1  0  0  0  0
 50 48  1  0  0  0  0
M  END
$$$$
