CSD_code = NOTPIV | q = 0 | S = 0 | Stoichiometry = C28H4Cl2N4O2Zn | MND = 4
 OpenBabel04212202073D

 41 50  0  0  1  0  0  0  0  0999 V2000
    9.2166    2.1933    5.6862 Zn  0  0  0  0  0  0  0  0  0  0  0  0
    9.2712    2.9892    3.5736 Cl  0  0  0  0  0  0  0  0  0  0  0  0
    9.7171    3.2502    7.6157 Cl  0  0  0  0  0  0  0  0  0  0  0  0
    6.8017   -0.7026    7.2978 O   0  0  0  0  0  0  0  0  0  0  0  0
    9.6068   -1.7775    4.7239 O   0  0  0  0  0  0  0  0  0  0  0  0
    7.5491    1.1268    6.1526 N   0  0  0  0  0  0  0  0  0  0  0  0
    6.7359    0.7488    5.0886 N   0  0  0  0  0  0  0  0  0  0  0  0
   10.0111    0.3312    5.5022 N   0  0  0  0  0  0  0  0  0  0  0  0
   10.5455   -0.2345    6.6555 N   0  0  0  0  0  0  0  0  0  0  0  0
    7.2140    0.2225    3.9177 C   0  0  0  0  0  0  0  0  0  0  0  0
    6.1286   -0.0964    3.0680 C   0  0  0  0  0  0  0  0  0  0  0  0
    4.9501    0.2426    3.7755 C   0  0  2  0  0  3  0  0  0  0  0  0
    4.0272    0.6972    4.7217 C   0  0  0  0  0  2  0  0  0  0  0  0
    5.3966    0.7579    5.0614 C   0  0  2  0  0  3  0  0  0  0  0  0
    7.5296    0.2483    7.1569 C   0  0  0  0  0  0  0  0  0  0  0  0
    8.6807    0.4831    8.2226 C   0  0  1  0  0  0  0  0  0  0  0  0
    8.2735    0.2883    9.5866 C   0  0  0  0  0  3  0  0  0  0  0  0
    9.0031   -0.3835   10.5478 C   0  0  0  0  0  0  0  0  0  0  0  0
    8.5896   -0.5148   11.8764 C   0  0  0  0  0  3  0  0  0  0  0  0
    9.3587   -1.1865   12.6681 C   0  0  0  0  0  3  0  0  0  0  0  0
   10.4883   -1.7518   12.3354 C   0  0  0  0  0  3  0  0  0  0  0  0
   10.9971   -1.7128   11.1461 C   0  0  0  0  0  3  0  0  0  0  0  0
   10.3137   -1.0377   10.1640 C   0  0  0  0  0  0  0  0  0  0  0  0
    9.9218   -0.2014    7.8743 C   0  0  0  0  0  0  0  0  0  0  0  0
   10.7020   -0.9051    8.8217 C   0  0  0  0  0  0  0  0  0  0  0  0
   11.8358   -1.3919    8.1273 C   0  0  2  0  0  3  0  0  0  0  0  0
   12.8054   -1.6867    7.1645 C   0  0  0  0  0  2  0  0  0  0  0  0
   11.6736   -0.9512    6.7495 C   0  0  2  0  0  3  0  0  0  0  0  0
    9.5070   -0.5773    4.6644 C   0  0  0  0  0  0  0  0  0  0  0  0
    8.6073    0.0504    3.5192 C   0  0  1  0  0  0  0  0  0  0  0  0
    8.7710   -0.5689    2.2333 C   0  0  0  0  0  3  0  0  0  0  0  0
    7.7445   -0.8917    1.3674 C   0  0  0  0  0  0  0  0  0  0  0  0
    7.9498   -1.4552    0.1050 C   0  0  0  0  0  3  0  0  0  0  0  0
    6.8990   -1.7267   -0.5962 C   0  0  0  0  0  3  0  0  0  0  0  0
    5.6630   -1.5185   -0.2285 C   0  0  0  0  0  3  0  0  0  0  0  0
    5.3200   -1.0036    0.9081 C   0  0  0  0  0  3  0  0  0  0  0  0
    6.3113   -0.6501    1.7912 C   0  0  0  0  0  0  0  0  0  0  0  0
    8.9001    1.6208    8.1263 H   0  0  0  0  0  0  0  0  0  0  0  0
    7.3196    0.7065    9.8754 H   0  0  0  0  0  0  0  0  0  0  0  0
    9.0437    1.1236    3.4012 H   0  0  0  0  0  0  0  0  0  0  0  0
    9.7823   -0.7946    1.9260 H   0  0  0  0  0  0  0  0  0  0  0  0
  1  6  1  0  0  0  0
  1  3  1  0  0  0  0
  2  1  1  0  0  0  0
  6 15  1  0  0  0  0
  7  6  1  0  0  0  0
  8  1  1  0  0  0  0
  8  9  1  0  0  0  0
  9 28  1  0  0  0  0
  9 24  1  0  0  0  0
 10  7  1  0  0  0  0
 11 12  1  0  0  0  0
 11 10  2  0  0  0  0
 12 13  1  6  0  0  0
 12 14  1  0  0  0  0
 14 13  1  6  0  0  0
 14  7  1  0  0  0  0
 15  4  2  0  0  0  0
 15 16  1  0  0  0  0
 16 38  1  6  0  0  0
 16 17  1  0  0  0  0
 17 39  1  0  0  0  0
 17 18  1  0  0  0  0
 18 19  1  0  0  0  0
 19 20  2  0  0  0  0
 21 20  1  0  0  0  0
 22 21  2  0  0  0  0
 23 18  2  0  0  0  0
 23 22  1  0  0  0  0
 24 16  1  0  0  0  0
 24 25  2  0  0  0  0
 25 23  1  0  0  0  0
 26 27  1  1  0  0  0
 26 25  1  0  0  0  0
 28 27  1  1  0  0  0
 28 26  1  0  0  0  0
 29  5  2  0  0  0  0
 29  8  1  0  0  0  0
 30 40  1  6  0  0  0
 30 10  1  0  0  0  0
 30 29  1  0  0  0  0
 31 30  1  0  0  0  0
 32 37  1  0  0  0  0
 32 31  1  0  0  0  0
 33 32  2  0  0  0  0
 34 35  2  0  0  0  0
 34 33  1  0  0  0  0
 35 36  1  0  0  0  0
 36 37  2  0  0  0  0
 37 11  1  0  0  0  0
 41 31  1  0  0  0  0
M  END
$$$$
