CSD_code = NOTSUK | q = 1 | S = 0 | Stoichiometry = C8H15Cl3N3Pt(1+) | MND = 6
 OpenBabel04212202073D

 30 31  0  0  0  0  0  0  0  0999 V2000
    0.6857    3.8324    0.5832 Pt  0  0  0  0  0  0  0  0  0  0  0  0
   -1.0336    4.6375   -0.8480 Cl  0  0  0  0  0  0  0  0  0  0  0  0
    1.9850    3.1699   -1.2124 Cl  0  0  0  0  0  0  0  0  0  0  0  0
    2.2772    2.9192    2.1222 Cl  0  0  0  0  0  0  0  0  0  0  0  0
    1.6160    5.6430    0.5448 N   0  0  0  0  0  0  0  0  0  0  0  0
   -0.1287    1.9257    0.5192 N   0  0  0  0  0  4  0  0  0  0  0  0
   -0.5200    4.3419    2.3336 N   0  0  0  0  0  4  0  0  0  0  0  0
    2.2157    6.1371    1.6310 C   0  0  0  0  0  3  0  0  0  0  0  0
    2.9704    7.2953    1.5920 C   0  0  0  0  0  0  0  0  0  0  0  0
    3.1124    7.9680    0.3869 C   0  0  0  0  0  0  0  0  0  0  0  0
    2.4808    7.4522   -0.7334 C   0  0  0  0  0  0  0  0  0  0  0  0
    1.7434    6.2859   -0.6172 C   0  0  0  0  0  0  0  0  0  0  0  0
   -1.5428    1.7419    0.8656 C   0  0  0  0  0  0  0  0  0  0  0  0
   -1.8478    2.2480    2.2732 C   0  0  0  0  0  0  0  0  0  0  0  0
   -1.8730    3.7709    2.3695 C   0  0  0  0  0  0  0  0  0  0  0  0
    2.1165    5.5796    2.5533 H   0  0  0  0  0  0  0  0  0  0  0  0
    3.4437    7.6539    2.4918 H   0  0  0  0  0  0  0  0  0  0  0  0
    3.7042    8.8678    0.3239 H   0  0  0  0  0  0  0  0  0  0  0  0
    2.5598    7.9361   -1.6934 H   0  0  0  0  0  0  0  0  0  0  0  0
    1.2446    5.8640   -1.4791 H   0  0  0  0  0  0  0  0  0  0  0  0
    0.4613    1.3569    1.1384 H   0  0  0  0  0  0  0  0  0  0  0  0
    0.0394    1.6033   -0.4407 H   0  0  0  0  0  0  0  0  0  0  0  0
   -1.7956    0.6781    0.8050 H   0  0  0  0  0  0  0  0  0  0  0  0
   -2.1504    2.2824    0.1355 H   0  0  0  0  0  0  0  0  0  0  0  0
   -2.8300    1.8748    2.5620 H   0  0  0  0  0  0  0  0  0  0  0  0
   -1.1189    1.8431    2.9796 H   0  0  0  0  0  0  0  0  0  0  0  0
   -2.4395    4.1885    1.5337 H   0  0  0  0  0  0  0  0  0  0  0  0
   -2.3669    4.0613    3.3032 H   0  0  0  0  0  0  0  0  0  0  0  0
    0.0298    3.9799    3.1184 H   0  0  0  0  0  0  0  0  0  0  0  0
   -0.5864    5.3560    2.4202 H   0  0  0  0  0  0  0  0  0  0  0  0
  1  4  1  0  0  0  0
  1  7  1  0  0  0  0
  2  1  1  0  0  0  0
  3  1  1  0  0  0  0
  5  1  1  0  0  0  0
  5  8  1  0  0  0  0
  6  1  1  0  0  0  0
  6 13  1  0  0  0  0
  6 21  1  0  0  0  0
  7 15  1  0  0  0  0
  7 30  1  0  0  0  0
  7 29  1  0  0  0  0
  8 16  1  0  0  0  0
  9  8  1  0  0  0  0
  9 17  1  0  0  0  0
 10  9  2  0  0  0  0
 11 12  2  0  0  0  0
 11 10  1  0  0  0  0
 12  5  1  0  0  0  0
 13 14  1  0  0  0  0
 14 15  1  0  0  0  0
 14 25  1  0  0  0  0
 14 26  1  0  0  0  0
 15 28  1  0  0  0  0
 18 10  1  0  0  0  0
 19 11  1  0  0  0  0
 20 12  1  0  0  0  0
 22  6  1  0  0  0  0
 23 13  1  0  0  0  0
 24 13  1  0  0  0  0
 27 15  1  0  0  0  0
M  END
$$$$
