CSD_code = NOVJIT | q = 1 | S = 0 | Stoichiometry = C14H23ClN5Pd(1+) | MND = 4
 OpenBabel04212202073D

 44 47  0  0  1  0  0  0  0  0999 V2000
    7.5155    8.8558    6.8611 Pd  0  0  2  0  0  0  0  0  0  0  0  0
    8.5646    9.8053    5.1411 Cl  0  0  0  0  0  0  0  0  0  0  0  0
    6.9769   10.6168    7.6418 N   0  0  0  0  0  0  0  0  0  0  0  0
    5.6954   10.6721    8.0631 N   0  0  2  0  0  0  0  0  0  0  0  0
    5.4410   11.8697    8.6421 C   0  0  1  0  0  3  0  0  0  0  0  0
    6.6166   12.5898    8.5858 C   0  0  0  0  0  0  0  0  0  0  0  0
    6.7792   13.5825    8.9497 H   0  0  0  0  0  0  0  0  0  0  0  0
    7.5601   11.7660    7.9531 C   0  0  0  0  0  0  0  0  0  0  0  0
    4.1170   12.2425    9.1938 C   0  0  0  0  0  0  0  0  0  0  0  0
    3.3598   12.2508    8.4101 H   0  0  0  0  0  0  0  0  0  0  0  0
    4.1735   13.2380    9.6231 H   0  0  0  0  0  0  0  0  0  0  0  0
    3.7999   11.5480    9.9710 H   0  0  0  0  0  0  0  0  0  0  0  0
    8.9914   12.0210    7.6633 C   0  0  0  0  0  0  0  0  0  0  0  0
    9.5101   11.0742    7.4900 H   0  0  0  0  0  0  0  0  0  0  0  0
    9.4585   12.5568    8.4858 H   0  0  0  0  0  0  0  0  0  0  0  0
    9.0865   12.6277    6.7634 H   0  0  0  0  0  0  0  0  0  0  0  0
    4.8395    9.5284    7.8748 C   0  0  0  0  0  0  0  0  0  0  0  0
    4.9618    9.1747    6.8312 H   0  0  0  0  0  0  0  0  0  0  0  0
    3.8020    9.8280    8.0290 H   0  0  0  0  0  0  0  0  0  0  0  0
    5.1993    8.3768    8.8392 C   0  0  0  0  0  0  0  0  0  0  0  0
    4.9379    8.6572    9.8671 H   0  0  0  0  0  0  0  0  0  0  0  0
    4.6031    7.5052    8.5581 H   0  0  0  0  0  0  0  0  0  0  0  0
    6.6231    8.0430    8.7249 N   0  0  1  0  0  4  0  0  0  0  0  0
    7.1500    8.6557    9.3553 H   0  0  0  0  0  0  0  0  0  0  0  0
    7.8663    7.0122    6.1855 N   0  0  0  0  0  0  0  0  0  0  0  0
    8.3117    6.0717    7.0418 N   0  0  2  0  0  0  0  0  0  0  0  0
    8.4589    4.8847    6.4059 C   0  0  1  0  0  3  0  0  0  0  0  0
    8.0942    5.0955    5.0928 C   0  0  0  0  0  0  0  0  0  0  0  0
    8.0945    4.3748    4.3023 H   0  0  0  0  0  0  0  0  0  0  0  0
    7.7183    6.4430    4.9958 C   0  0  0  0  0  0  0  0  0  0  0  0
    8.9368    3.6521    7.0763 C   0  0  0  0  0  0  0  0  0  0  0  0
    8.2629    3.3483    7.8770 H   0  0  0  0  0  0  0  0  0  0  0  0
    9.9306    3.7992    7.4975 H   0  0  0  0  0  0  0  0  0  0  0  0
    8.9900    2.8472    6.3496 H   0  0  0  0  0  0  0  0  0  0  0  0
    7.1837    7.1774    3.8233 C   0  0  0  0  0  0  0  0  0  0  0  0
    6.6130    8.0500    4.1557 H   0  0  0  0  0  0  0  0  0  0  0  0
    6.5508    6.5244    3.2276 H   0  0  0  0  0  0  0  0  0  0  0  0
    8.0014    7.5281    3.1948 H   0  0  0  0  0  0  0  0  0  0  0  0
    8.4041    6.3659    8.4483 C   0  0  0  0  0  0  0  0  0  0  0  0
    9.0626    7.2408    8.5918 H   0  0  0  0  0  0  0  0  0  0  0  0
    8.8480    5.5072    8.9523 H   0  0  0  0  0  0  0  0  0  0  0  0
    7.0074    6.6638    9.0324 C   0  0  0  0  0  0  0  0  0  0  0  0
    6.2811    5.9830    8.5773 H   0  0  0  0  0  0  0  0  0  0  0  0
    7.0187    6.4839   10.1148 H   0  0  0  0  0  0  0  0  0  0  0  0
  1  2  1  1  0  0  0
  1  3  1  0  0  0  0
  1 23  1  0  0  0  0
  3  8  1  0  0  0  0
  4  3  1  1  0  0  0
  4  5  1  0  0  0  0
  5  9  1  6  0  0  0
  6  5  1  0  0  0  0
  6  7  1  0  0  0  0
  8  6  2  0  0  0  0
  9 11  1  0  0  0  0
  9 12  1  0  0  0  0
 10  9  1  0  0  0  0
 13  8  1  0  0  0  0
 13 15  1  0  0  0  0
 14 13  1  0  0  0  0
 16 13  1  0  0  0  0
 17 19  1  0  0  0  0
 17  4  1  0  0  0  0
 17 20  1  0  0  0  0
 18 17  1  0  0  0  0
 20 21  1  0  0  0  0
 22 20  1  0  0  0  0
 23 20  1  0  0  0  0
 23 42  1  0  0  0  0
 23 24  1  1  0  0  0
 25  1  1  0  0  0  0
 26 25  1  1  0  0  0
 26 39  1  0  0  0  0
 27 26  1  0  0  0  0
 27 31  1  6  0  0  0
 28 27  1  0  0  0  0
 29 28  1  0  0  0  0
 30 28  2  0  0  0  0
 30 25  1  0  0  0  0
 31 33  1  0  0  0  0
 31 32  1  0  0  0  0
 34 31  1  0  0  0  0
 35 36  1  0  0  0  0
 35 30  1  0  0  0  0
 37 35  1  0  0  0  0
 38 35  1  0  0  0  0
 39 40  1  0  0  0  0
 39 41  1  0  0  0  0
 39 42  1  0  0  0  0
 42 44  1  0  0  0  0
 43 42  1  0  0  0  0
M  END
$$$$
