CSD_code = NOWNUK | q = 0 | S = 0 | Stoichiometry = C17H13BrMnN3O3 | MND = 6
 OpenBabel04212202073D

 38 41  0  0  1  0  0  0  0  0999 V2000
    6.4188    3.5237   10.6666 Mn  0  0  0  0  0  0  0  0  0  0  0  0
    7.2673    3.9425    8.3453 Br  0  0  0  0  0  0  0  0  0  0  0  0
    3.8778    2.5926    9.1279 N   0  0  0  0  0  0  0  0  0  0  0  0
    5.5179    1.1696    9.3378 N   0  0  0  0  0  0  0  0  0  0  0  0
    7.3949    1.7081   10.5254 N   0  0  0  0  0  0  0  0  0  0  0  0
    5.0766    2.4256    9.6999 C   0  0  1  0  0  3  0  0  0  0  0  0
    3.5442    1.4900    8.3676 C   0  0  0  0  0  0  0  0  0  0  0  0
    2.4262    1.2348    7.5908 C   0  0  0  0  0  0  0  0  0  0  0  0
    1.6284    1.9538    7.4983 H   0  0  0  0  0  0  0  0  0  0  0  0
    2.3761    0.0244    6.9270 C   0  0  0  0  0  0  0  0  0  0  0  0
    1.5224   -0.2102    6.3106 H   0  0  0  0  0  0  0  0  0  0  0  0
    3.4164   -0.8911    7.0323 C   0  0  0  0  0  0  0  0  0  0  0  0
    3.3564   -1.8228    6.4915 H   0  0  0  0  0  0  0  0  0  0  0  0
    4.5353   -0.6411    7.8075 C   0  0  0  0  0  0  0  0  0  0  0  0
    5.3201   -1.3765    7.8381 H   0  0  0  0  0  0  0  0  0  0  0  0
    4.5948    0.5631    8.4928 C   0  0  0  0  0  0  0  0  0  0  0  0
    6.7549    0.7618    9.8142 C   0  0  1  0  0  3  0  0  0  0  0  0
    7.3028   -0.5010    9.6067 C   0  0  0  0  0  0  0  0  0  0  0  0
    6.7623   -1.2531    9.0635 H   0  0  0  0  0  0  0  0  0  0  0  0
    8.5549   -0.7811   10.1173 C   0  0  0  0  0  0  0  0  0  0  0  0
    8.9991   -1.7516    9.9606 H   0  0  0  0  0  0  0  0  0  0  0  0
    5.7920    3.1482   12.2793 C   0  0  0  0  0  2  0  0  0  0  0  0
    5.3832    2.9219   13.3327 O   0  0  0  0  0  1  0  0  0  0  0  0
    7.8280    4.4133   11.3138 C   0  0  0  0  0  2  0  0  0  0  0  0
    8.6959    5.0459   11.7149 O   0  0  0  0  0  1  0  0  0  0  0  0
    5.6048    5.1068   10.6425 C   0  0  0  0  0  2  0  0  0  0  0  0
    5.1744    6.1753   10.6599 O   0  0  0  0  0  1  0  0  0  0  0  0
    9.2231    0.2030   10.8304 C   0  0  0  0  0  0  0  0  0  0  0  0
   10.2042    0.0310   11.2408 H   0  0  0  0  0  0  0  0  0  0  0  0
    8.6016    1.4218   11.0144 C   0  0  0  0  0  0  0  0  0  0  0  0
    9.0947    2.2036   11.5772 H   0  0  0  0  0  0  0  0  0  0  0  0
    3.0593    3.7805    9.1996 C   0  0  0  0  0  0  0  0  0  0  0  0
    3.2994    4.3023   10.1297 H   0  0  0  0  0  0  0  0  0  0  0  0
    2.0114    3.4695    9.2370 H   0  0  0  0  0  0  0  0  0  0  0  0
    3.3117    4.6893    8.0004 C   0  0  0  0  0  0  0  0  0  0  0  0
    2.7201    5.5951    8.0939 H   0  0  0  0  0  0  0  0  0  0  0  0
    3.0476    4.1876    7.0723 H   0  0  0  0  0  0  0  0  0  0  0  0
    4.3626    4.9649    7.9531 H   0  0  0  0  0  0  0  0  0  0  0  0
  1 24  1  0  0  0  0
  1 22  1  0  0  0  0
  2  1  1  0  0  0  0
  3 32  1  0  0  0  0
  4  6  1  0  0  0  0
  4 17  1  0  0  0  0
  5  1  1  0  0  0  0
  5 30  1  0  0  0  0
  6  3  1  6  0  0  0
  6  1  1  0  0  0  0
  7 16  1  0  0  0  0
  7  3  1  0  0  0  0
  8  7  2  0  0  0  0
  9  8  1  0  0  0  0
 10 12  2  0  0  0  0
 10  8  1  0  0  0  0
 11 10  1  0  0  0  0
 12 14  1  0  0  0  0
 13 12  1  0  0  0  0
 14 15  1  0  0  0  0
 14 16  2  0  0  0  0
 16  4  1  0  0  0  0
 17 18  1  1  0  0  0
 17  5  1  0  0  0  0
 18 20  2  0  0  0  0
 19 18  1  0  0  0  0
 20 28  1  0  0  0  0
 21 20  1  0  0  0  0
 22 23  1  0  0  0  0
 24 25  1  0  0  0  0
 26 27  1  0  0  0  0
 26  1  1  0  0  0  0
 28 30  2  0  0  0  0
 28 29  1  0  0  0  0
 30 31  1  0  0  0  0
 32 34  1  0  0  0  0
 32 33  1  0  0  0  0
 35 36  1  0  0  0  0
 35 32  1  0  0  0  0
 37 35  1  0  0  0  0
 38 35  1  0  0  0  0
M  END
$$$$
