CSD_code = NOWQOF | q = 0 | S = 0 | Stoichiometry = C30H30F2O2P2Ru | MND = 6
 OpenBabel04212202073D

 67 70  0  0  0  0  0  0  0  0999 V2000
    8.8244    9.9001    1.6694 Ru  0  0  0  0  0  0  0  0  0  0  0  0
    7.8278    8.9099   -0.2237 P   0  0  0  0  0  4  0  0  0  0  0  0
    9.8247   10.4069    3.7424 P   0  0  0  0  0  4  0  0  0  0  0  0
    9.3538    8.0074    2.1023 F   0  0  0  0  0  0  0  0  0  0  0  0
    7.1045    9.5701    2.6571 F   0  0  0  0  0  0  0  0  0  0  0  0
    8.3377   11.6300    1.2634 C   0  0  0  0  0  2  0  0  0  0  0  0
    8.0883   12.7133    0.9758 O   0  0  0  0  0  1  0  0  0  0  0  0
   10.4203   10.1489    0.7792 C   0  0  0  0  0  2  0  0  0  0  0  0
   11.4051   10.3313    0.2241 O   0  0  0  0  0  1  0  0  0  0  0  0
    7.4126    7.1319   -0.0516 C   0  0  0  0  0  0  0  0  0  0  0  0
    6.3190    6.9437    0.9927 C   0  0  0  0  0  0  0  0  0  0  0  0
    9.9724    8.9884    4.8948 C   0  0  0  0  0  0  0  0  0  0  0  0
    8.5873    8.5150    5.3188 C   0  0  0  0  0  0  0  0  0  0  0  0
    6.2756    9.6151   -0.8563 C   0  0  0  0  0  0  0  0  0  0  0  0
    5.8789    9.3819   -2.1698 C   0  0  0  0  0  0  0  0  0  0  0  0
    4.6811    9.8958   -2.6299 C   0  0  0  0  0  0  0  0  0  0  0  0
    3.8725   10.6391   -1.7840 C   0  0  0  0  0  0  0  0  0  0  0  0
    4.2614   10.8667   -0.4745 C   0  0  0  0  0  0  0  0  0  0  0  0
    5.4611   10.3571   -0.0090 C   0  0  0  0  0  0  0  0  0  0  0  0
    8.9131    9.0119   -1.6765 C   0  0  0  0  0  0  0  0  0  0  0  0
    9.6032    7.9260   -2.1995 C   0  0  0  0  0  0  0  0  0  0  0  0
   10.4623    8.1037   -3.2714 C   0  0  0  0  0  0  0  0  0  0  0  0
   10.6401    9.3603   -3.8230 C   0  0  0  0  0  0  0  0  0  0  0  0
    9.9623   10.4502   -3.2975 C   0  0  0  0  0  0  0  0  0  0  0  0
    9.1084   10.2781   -2.2264 C   0  0  0  0  0  0  0  0  0  0  0  0
    9.0707   11.6870    4.7909 C   0  0  0  0  0  0  0  0  0  0  0  0
    7.7397   12.0408    4.6062 C   0  0  0  0  0  0  0  0  0  0  0  0
    7.1569   12.9906    5.4274 C   0  0  0  0  0  0  0  0  0  0  0  0
    7.8991   13.5896    6.4313 C   0  0  0  0  0  0  0  0  0  0  0  0
    9.2266   13.2365    6.6192 C   0  0  0  0  0  0  0  0  0  0  0  0
    9.8132   12.2871    5.8040 C   0  0  0  0  0  0  0  0  0  0  0  0
   11.5146   11.0398    3.5344 C   0  0  0  0  0  0  0  0  0  0  0  0
   12.6541   10.2964    3.8137 C   0  0  0  0  0  0  0  0  0  0  0  0
   13.9071   10.8312    3.5635 C   0  0  0  0  0  0  0  0  0  0  0  0
   14.0303   12.1032    3.0324 C   0  0  0  0  0  0  0  0  0  0  0  0
   12.8956   12.8456    2.7415 C   0  0  0  0  0  0  0  0  0  0  0  0
   11.6447   12.3146    2.9852 C   0  0  0  0  0  0  0  0  0  0  0  0
    8.3242    6.6232    0.2744 H   0  0  0  0  0  0  0  0  0  0  0  0
    7.1018    6.7539   -1.0329 H   0  0  0  0  0  0  0  0  0  0  0  0
    6.1287    5.8849    1.1567 H   0  0  0  0  0  0  0  0  0  0  0  0
    6.6346    7.3889    1.9342 H   0  0  0  0  0  0  0  0  0  0  0  0
    5.3926    7.4229    0.6784 H   0  0  0  0  0  0  0  0  0  0  0  0
   10.5740    9.3013    5.7563 H   0  0  0  0  0  0  0  0  0  0  0  0
   10.4835    8.1884    4.3516 H   0  0  0  0  0  0  0  0  0  0  0  0
    8.6629    7.6224    5.9366 H   0  0  0  0  0  0  0  0  0  0  0  0
    8.0654    9.2888    5.8805 H   0  0  0  0  0  0  0  0  0  0  0  0
    7.9995    8.2757    4.4345 H   0  0  0  0  0  0  0  0  0  0  0  0
    6.5146    8.8060   -2.8291 H   0  0  0  0  0  0  0  0  0  0  0  0
    4.3760    9.7169   -3.6508 H   0  0  0  0  0  0  0  0  0  0  0  0
    2.9377   11.0396   -2.1480 H   0  0  0  0  0  0  0  0  0  0  0  0
    3.6289   11.4422    0.1852 H   0  0  0  0  0  0  0  0  0  0  0  0
    5.7669   10.5199    1.0153 H   0  0  0  0  0  0  0  0  0  0  0  0
    9.4801    6.9441   -1.7676 H   0  0  0  0  0  0  0  0  0  0  0  0
   10.9976    7.2562   -3.6741 H   0  0  0  0  0  0  0  0  0  0  0  0
   11.3123    9.4940   -4.6576 H   0  0  0  0  0  0  0  0  0  0  0  0
   10.1068   11.4332   -3.7210 H   0  0  0  0  0  0  0  0  0  0  0  0
    8.5811   11.1239   -1.7999 H   0  0  0  0  0  0  0  0  0  0  0  0
    7.1639   11.5592    3.8283 H   0  0  0  0  0  0  0  0  0  0  0  0
    6.1218   13.2636    5.2842 H   0  0  0  0  0  0  0  0  0  0  0  0
    7.4446   14.3322    7.0705 H   0  0  0  0  0  0  0  0  0  0  0  0
    9.8047   13.7033    7.4035 H   0  0  0  0  0  0  0  0  0  0  0  0
   10.8506   12.0138    5.9436 H   0  0  0  0  0  0  0  0  0  0  0  0
   12.5670    9.2986    4.2169 H   0  0  0  0  0  0  0  0  0  0  0  0
   14.7904   10.2488    3.7815 H   0  0  0  0  0  0  0  0  0  0  0  0
   15.0093   12.5150    2.8377 H   0  0  0  0  0  0  0  0  0  0  0  0
   12.9897   13.8353    2.3192 H   0  0  0  0  0  0  0  0  0  0  0  0
   10.7502   12.8809    2.7522 H   0  0  0  0  0  0  0  0  0  0  0  0
  1  4  1  0  0  0  0
  1  5  1  0  0  0  0
  1  3  1  0  0  0  0
  2 10  1  0  0  0  0
  2  1  1  0  0  0  0
  3 26  1  0  0  0  0
  3 12  1  0  0  0  0
  6  1  1  0  0  0  0
  7  6  1  0  0  0  0
  8  1  1  0  0  0  0
  9  8  1  0  0  0  0
 10 38  1  0  0  0  0
 10 11  1  0  0  0  0
 11 40  1  0  0  0  0
 11 41  1  0  0  0  0
 12 13  1  0  0  0  0
 12 43  1  0  0  0  0
 13 46  1  0  0  0  0
 13 45  1  0  0  0  0
 14  2  1  0  0  0  0
 14 19  1  0  0  0  0
 15 14  2  0  0  0  0
 16 15  1  0  0  0  0
 16 17  2  0  0  0  0
 17 18  1  0  0  0  0
 18 19  2  0  0  0  0
 18 51  1  0  0  0  0
 19 52  1  0  0  0  0
 20  2  1  0  0  0  0
 21 53  1  0  0  0  0
 21 20  1  0  0  0  0
 22 21  2  0  0  0  0
 23 24  2  0  0  0  0
 23 22  1  0  0  0  0
 24 25  1  0  0  0  0
 25 57  1  0  0  0  0
 25 20  2  0  0  0  0
 26 31  1  0  0  0  0
 27 26  2  0  0  0  0
 27 28  1  0  0  0  0
 28 29  2  0  0  0  0
 29 30  1  0  0  0  0
 29 60  1  0  0  0  0
 30 61  1  0  0  0  0
 31 62  1  0  0  0  0
 31 30  2  0  0  0  0
 32  3  1  0  0  0  0
 32 33  1  0  0  0  0
 33 63  1  0  0  0  0
 34 64  1  0  0  0  0
 34 33  2  0  0  0  0
 35 34  1  0  0  0  0
 36 37  1  0  0  0  0
 36 35  2  0  0  0  0
 37 32  2  0  0  0  0
 39 10  1  0  0  0  0
 42 11  1  0  0  0  0
 44 12  1  0  0  0  0
 47 13  1  0  0  0  0
 48 15  1  0  0  0  0
 49 16  1  0  0  0  0
 50 17  1  0  0  0  0
 54 22  1  0  0  0  0
 55 23  1  0  0  0  0
 56 24  1  0  0  0  0
 58 27  1  0  0  0  0
 59 28  1  0  0  0  0
 65 35  1  0  0  0  0
 66 36  1  0  0  0  0
 67 37  1  0  0  0  0
M  END
$$$$
