CSD_code = NOWROG | q = 0 | S = 0 | Stoichiometry = C17H23ClNNb | MND = 12
 OpenBabel04212202073D

 43 45  0  0  1  0  0  0  0  0999 V2000
    4.1484    3.2073    2.5395 Nb  0  0  2  0  0  0  0  0  0  0  0  0
    1.9448    2.6562    2.2989 Cl  0  0  0  0  0  0  0  0  0  0  0  0
    4.7976    2.9129    0.9314 N   0  0  0  0  0  2  0  0  0  0  0  0
    5.1962    2.5411    5.6766 C   0  0  0  0  0  0  0  0  0  0  0  0
    6.7178    2.3755    5.8019 C   0  0  0  0  0  0  0  0  0  0  0  0
    4.5950    2.6273    7.0838 C   0  0  0  0  0  0  0  0  0  0  0  0
    4.6030    1.4032    4.8734 C   0  0  0  0  0  0  0  0  0  0  0  0
    3.6117    0.5325    5.1878 C   0  0  0  0  0  0  0  0  0  0  0  0
    3.3188   -0.2781    4.0387 C   0  0  0  0  0  0  0  0  0  0  0  0
    4.1127    0.1067    3.0118 C   0  0  0  0  0  0  0  0  0  0  0  0
    4.9437    1.2366    3.4423 C   0  0  1  0  0  0  0  0  0  0  0  0
    5.1766    2.6776   -0.4037 C   0  0  0  0  0  0  0  0  0  0  0  0
    6.2103    1.5387   -0.4367 C   0  0  0  0  0  0  0  0  0  0  0  0
    3.9113    2.2762   -1.1833 C   0  0  0  0  0  0  0  0  0  0  0  0
    3.5124    2.7163    7.0493 H   0  0  0  0  0  0  0  0  0  0  0  0
    4.8459    1.7335    7.6506 H   0  0  0  0  0  0  0  0  0  0  0  0
    7.1926    2.2892    4.8258 H   0  0  0  0  0  0  0  0  0  0  0  0
    6.9387    1.4725    6.3675 H   0  0  0  0  0  0  0  0  0  0  0  0
    3.1093    0.4348    6.1344 H   0  0  0  0  0  0  0  0  0  0  0  0
    2.5826   -1.0629    4.0261 H   0  0  0  0  0  0  0  0  0  0  0  0
    4.1678   -0.3323    2.0269 H   0  0  0  0  0  0  0  0  0  0  0  0
    6.0076    1.1496    3.1893 H   0  0  0  0  0  0  0  0  0  0  0  0
    4.1449    2.0704   -2.2240 H   0  0  0  0  0  0  0  0  0  0  0  0
    3.4772    1.3909   -0.7212 H   0  0  0  0  0  0  0  0  0  0  0  0
    5.7744    0.6477    0.0086 H   0  0  0  0  0  0  0  0  0  0  0  0
    7.0845    1.8262    0.1430 H   0  0  0  0  0  0  0  0  0  0  0  0
    6.5090    1.3245   -1.4589 H   0  0  0  0  0  0  0  0  0  0  0  0
    5.7821    3.9672   -0.9851 C   0  0  0  0  0  0  0  0  0  0  0  0
    5.0500    4.7696   -0.9168 H   0  0  0  0  0  0  0  0  0  0  0  0
    6.6615    4.2458   -0.4084 H   0  0  0  0  0  0  0  0  0  0  0  0
    6.0635    3.8233   -2.0242 H   0  0  0  0  0  0  0  0  0  0  0  0
    3.1838    3.0843   -1.1240 H   0  0  0  0  0  0  0  0  0  0  0  0
    7.1493    3.2263    6.3276 H   0  0  0  0  0  0  0  0  0  0  0  0
    4.9949    3.4946    7.6072 H   0  0  0  0  0  0  0  0  0  0  0  0
    4.8287    3.7597    4.8553 C   0  0  0  0  0  0  0  0  0  0  0  0
    3.5209    4.2531    4.7024 C   0  0  0  0  0  0  0  0  0  0  0  0
    5.6637    4.4713    3.9556 C   0  0  2  0  0  0  0  0  0  0  0  0
    3.5299    5.2767    3.7476 C   0  0  0  0  0  0  0  0  0  0  0  0
    2.6527    3.9353    5.2635 H   0  0  0  0  0  0  0  0  0  0  0  0
    4.8584    5.4197    3.2710 C   0  0  0  0  0  0  0  0  0  0  0  0
    6.7468    4.4631    3.9369 H   0  0  0  0  0  0  0  0  0  0  0  0
    5.2285    6.2368    2.6615 H   0  0  0  0  0  0  0  0  0  0  0  0
    2.6962    5.9206    3.4923 H   0  0  0  0  0  0  0  0  0  0  0  0
  1  2  1  1  0  0  0
  1 11  1  0  0  0  0
  1 37  1  0  0  0  0
  3  1  1  0  0  0  0
  4  5  1  0  0  0  0
  4  6  1  0  0  0  0
  5 33  1  0  0  0  0
  5 18  1  0  0  0  0
  6 34  1  0  0  0  0
  6 16  1  0  0  0  0
  7  8  2  0  0  0  0
  7  4  1  0  0  0  0
  8 19  1  0  0  0  0
  9  8  1  0  0  0  0
 10 11  1  0  0  0  0
 10  9  2  0  0  0  0
 11 22  1  6  0  0  0
 11  7  1  0  0  0  0
 12  3  1  0  0  0  0
 13 12  1  0  0  0  0
 13 25  1  0  0  0  0
 13 26  1  0  0  0  0
 14 32  1  0  0  0  0
 14 24  1  0  0  0  0
 14 12  1  0  0  0  0
 15  6  1  0  0  0  0
 17  5  1  0  0  0  0
 20  9  1  0  0  0  0
 21 10  1  0  0  0  0
 23 14  1  0  0  0  0
 27 13  1  0  0  0  0
 28 29  1  0  0  0  0
 28 30  1  0  0  0  0
 28 12  1  0  0  0  0
 31 28  1  0  0  0  0
 35  4  1  0  0  0  0
 36 35  2  0  0  0  0
 36 39  1  0  0  0  0
 37 41  1  6  0  0  0
 37 35  1  0  0  0  0
 38 36  1  0  0  0  0
 40 38  2  0  0  0  0
 40 37  1  0  0  0  0
 42 40  1  0  0  0  0
 43 38  1  0  0  0  0
M  END
$$$$
