CSD_code = NOXFIR | q = 0 | S = 0 | Stoichiometry = C23H32IN3Pt | MND = 6
 OpenBabel04212202073D

 60 63  0  0  1  0  0  0  0  0999 V2000
    5.1744    1.4333    1.2282 C   0  0  2  0  0  3  0  0  0  0  0  0
    3.8150    3.4218    1.0364 C   0  0  1  0  0  3  0  0  0  0  0  0
    3.6963    3.5535   -1.1916 C   0  0  0  0  0  0  0  0  0  0  0  0
    3.3954    3.9667   -2.1320 H   0  0  0  0  0  0  0  0  0  0  0  0
    4.4575    2.4780   -0.9075 C   0  0  0  0  0  0  0  0  0  0  0  0
    4.9242    1.7775   -1.5661 H   0  0  0  0  0  0  0  0  0  0  0  0
    2.5481    5.3132    0.0816 C   0  0  0  0  0  0  0  0  0  0  0  0
    1.1676    5.2551   -0.1195 C   0  0  0  0  0  0  0  0  0  0  0  0
    0.4550    6.4472   -0.0826 C   0  0  0  0  0  0  0  0  0  0  0  0
   -0.6123    6.4316   -0.2353 H   0  0  0  0  0  0  0  0  0  0  0  0
    1.0931    7.6502    0.1423 C   0  0  0  0  0  0  0  0  0  0  0  0
    0.5232    8.5671    0.1656 H   0  0  0  0  0  0  0  0  0  0  0  0
    2.4615    7.6866    0.3317 C   0  0  0  0  0  0  0  0  0  0  0  0
    2.9489    8.6345    0.4949 H   0  0  0  0  0  0  0  0  0  0  0  0
    3.2146    6.5212    0.3086 C   0  0  0  0  0  0  0  0  0  0  0  0
    4.7162    6.5799    0.4675 C   0  0  0  0  0  0  0  0  0  0  0  0
    5.0915    5.5745    0.6827 H   0  0  0  0  0  0  0  0  0  0  0  0
    5.1378    7.4809    1.6285 C   0  0  0  0  0  0  0  0  0  0  0  0
    4.9395    8.5270    1.4116 H   0  0  0  0  0  0  0  0  0  0  0  0
    6.2051    7.3731    1.8104 H   0  0  0  0  0  0  0  0  0  0  0  0
    4.6038    7.2037    2.5338 H   0  0  0  0  0  0  0  0  0  0  0  0
    5.3472    7.0544   -0.8455 C   0  0  0  0  0  0  0  0  0  0  0  0
    5.0961    6.3788   -1.6615 H   0  0  0  0  0  0  0  0  0  0  0  0
    6.4302    7.0929   -0.7507 H   0  0  0  0  0  0  0  0  0  0  0  0
    4.9869    8.0480   -1.1021 H   0  0  0  0  0  0  0  0  0  0  0  0
    0.4532    3.9550   -0.3961 C   0  0  0  0  0  0  0  0  0  0  0  0
    1.1305    3.1196   -0.2056 H   0  0  0  0  0  0  0  0  0  0  0  0
    0.0240    3.8969   -1.8649 C   0  0  0  0  0  0  0  0  0  0  0  0
   -0.6671    4.7048   -2.0948 H   0  0  0  0  0  0  0  0  0  0  0  0
   -0.4710    2.9501   -2.0656 H   0  0  0  0  0  0  0  0  0  0  0  0
    0.8820    3.9842   -2.5292 H   0  0  0  0  0  0  0  0  0  0  0  0
   -0.7570    3.7728    0.5199 C   0  0  0  0  0  0  0  0  0  0  0  0
   -0.4727    3.9266    1.5568 H   0  0  0  0  0  0  0  0  0  0  0  0
   -1.1351    2.7587    0.4234 H   0  0  0  0  0  0  0  0  0  0  0  0
   -1.5562    4.4659    0.2706 H   0  0  0  0  0  0  0  0  0  0  0  0
    5.9333    0.4193    0.6471 C   0  0  0  0  0  0  0  0  0  0  0  0
    6.0437    0.3523   -0.4222 H   0  0  0  0  0  0  0  0  0  0  0  0
    6.5385   -0.5097    1.4713 C   0  0  0  0  0  0  0  0  0  0  0  0
    7.1234   -1.3105    1.0455 H   0  0  0  0  0  0  0  0  0  0  0  0
    6.3831   -0.3963    2.8453 C   0  0  0  0  0  0  0  0  0  0  0  0
    6.8409   -1.1003    3.5204 H   0  0  0  0  0  0  0  0  0  0  0  0
    5.6167    0.6441    3.3355 C   0  0  0  0  0  0  0  0  0  0  0  0
    5.4664    0.7740    4.3986 H   0  0  0  0  0  0  0  0  0  0  0  0
    3.2142    2.5253    5.1006 C   0  0  0  0  0  0  0  0  0  0  0  0
    3.8223    3.0464    5.8431 H   0  0  0  0  0  0  0  0  0  0  0  0
    3.4433    1.4558    5.1686 H   0  0  0  0  0  0  0  0  0  0  0  0
    2.1687    2.6408    5.3972 H   0  0  0  0  0  0  0  0  0  0  0  0
    2.2037    4.6700    3.4972 C   0  0  0  0  0  0  0  0  0  0  0  0
    2.4419    5.5107    2.8406 H   0  0  0  0  0  0  0  0  0  0  0  0
    2.2264    5.0216    4.5289 H   0  0  0  0  0  0  0  0  0  0  0  0
    1.1890    4.3323    3.2752 H   0  0  0  0  0  0  0  0  0  0  0  0
    5.0733    4.3111    3.7902 C   0  0  0  0  0  0  0  0  0  0  0  0
    4.7628    5.1161    4.4530 H   0  0  0  0  0  0  0  0  0  0  0  0
    5.5921    4.7536    2.9389 H   0  0  0  0  0  0  0  0  0  0  0  0
    5.7849    3.6834    4.3314 H   0  0  0  0  0  0  0  0  0  0  0  0
    1.6183    1.2852    2.3076 I   0  0  0  0  0  0  0  0  0  0  0  0
    5.0209    1.5307    2.5511 N   0  0  0  0  0  0  0  0  0  0  0  0
    4.5280    2.4009    0.4680 N   0  0  0  0  0  0  0  0  0  0  0  0
    3.3144    4.1148    0.0045 N   0  0  0  0  0  0  0  0  0  0  0  0
    3.5118    3.1125    3.1371 Pt  0  0  0  0  0  0  0  0  0  0  0  0
  1 36  1  6  0  0  0
  1 57  1  0  0  0  0
  2 59  1  6  0  0  0
  2 60  1  0  0  0  0
  3  5  2  0  0  0  0
  3 59  1  0  0  0  0
  4  3  1  0  0  0  0
  5 58  1  0  0  0  0
  6  5  1  0  0  0  0
  7 15  1  0  0  0  0
  8  9  1  0  0  0  0
  8  7  2  0  0  0  0
  9 11  2  0  0  0  0
 10  9  1  0  0  0  0
 11 12  1  0  0  0  0
 11 13  1  0  0  0  0
 13 14  1  0  0  0  0
 15 13  2  0  0  0  0
 15 16  1  0  0  0  0
 16 17  1  0  0  0  0
 16 18  1  0  0  0  0
 18 20  1  0  0  0  0
 18 21  1  0  0  0  0
 19 18  1  0  0  0  0
 22 24  1  0  0  0  0
 22 16  1  0  0  0  0
 23 22  1  0  0  0  0
 25 22  1  0  0  0  0
 26 27  1  0  0  0  0
 26  8  1  0  0  0  0
 26 32  1  0  0  0  0
 28 26  1  0  0  0  0
 29 28  1  0  0  0  0
 30 28  1  0  0  0  0
 31 28  1  0  0  0  0
 32 33  1  0  0  0  0
 34 32  1  0  0  0  0
 35 32  1  0  0  0  0
 36 38  2  0  0  0  0
 37 36  1  0  0  0  0
 38 40  1  0  0  0  0
 39 38  1  0  0  0  0
 40 42  2  0  0  0  0
 40 41  1  0  0  0  0
 42 43  1  0  0  0  0
 44 46  1  0  0  0  0
 44 47  1  0  0  0  0
 44 45  1  0  0  0  0
 48 50  1  0  0  0  0
 49 48  1  0  0  0  0
 51 48  1  0  0  0  0
 52 55  1  0  0  0  0
 52 53  1  0  0  0  0
 54 52  1  0  0  0  0
 56 60  1  0  0  0  0
 57 60  1  0  0  0  0
 57 42  1  0  0  0  0
 58  2  1  0  0  0  0
 58  1  1  0  0  0  0
 59  7  1  0  0  0  0
 60 48  1  0  0  0  0
 60 52  1  0  0  0  0
 60 44  1  0  0  0  0
M  END
$$$$
