CSD_code = NOXSIE | q = 0 | S = 0 | Stoichiometry = C22H28ClN3Pt | MND = 4
 OpenBabel04212202073D

 55 58  0  0  1  0  0  0  0  0999 V2000
   -0.2951    2.8581    6.1049 C   0  0  0  0  0  0  0  0  0  0  0  0
   -0.4214    3.5036    6.9733 H   0  0  0  0  0  0  0  0  0  0  0  0
   -0.7405    1.8824    6.3333 H   0  0  0  0  0  0  0  0  0  0  0  0
   -0.8700    3.2862    5.2796 H   0  0  0  0  0  0  0  0  0  0  0  0
    3.7713    4.5257    8.5041 C   0  0  0  0  0  0  0  0  0  0  0  0
    3.8840    5.2694    9.2665 H   0  0  0  0  0  0  0  0  0  0  0  0
    4.6827    3.7065    7.9379 C   0  0  0  0  0  0  0  0  0  0  0  0
    5.7348    3.6471    8.1077 H   0  0  0  0  0  0  0  0  0  0  0  0
    2.6809    3.3094    6.9771 C   0  0  0  0  0  0  0  0  0  0  0  0
    4.4930    2.0412    6.0590 C   0  0  1  0  0  3  0  0  0  0  0  0
    5.6756    1.3029    6.1782 C   0  0  0  0  0  0  0  0  0  0  0  0
    6.0019    0.4738    5.1099 C   0  0  0  0  0  0  0  0  0  0  0  0
    6.9086   -0.1111    5.1588 H   0  0  0  0  0  0  0  0  0  0  0  0
    5.1701    0.3791    4.0058 C   0  0  0  0  0  0  0  0  0  0  0  0
    5.4199   -0.2588    3.1740 H   0  0  0  0  0  0  0  0  0  0  0  0
    3.9921    1.1019    4.0078 C   0  0  0  0  0  0  0  0  0  0  0  0
    3.2723    1.0447    3.2017 H   0  0  0  0  0  0  0  0  0  0  0  0
    6.5601    1.3236    7.3878 C   0  0  0  0  0  0  0  0  0  0  0  0
    7.1702    0.4232    7.4065 H   0  0  0  0  0  0  0  0  0  0  0  0
    5.9745    1.3615    8.3040 H   0  0  0  0  0  0  0  0  0  0  0  0
    7.2367    2.1784    7.3638 H   0  0  0  0  0  0  0  0  0  0  0  0
    1.3576    4.9655    8.2139 C   0  0  0  0  0  0  0  0  0  0  0  0
    0.9797    6.0349    7.4001 C   0  0  0  0  0  0  0  0  0  0  0  0
   -0.2341    6.6534    7.6703 C   0  0  0  0  0  0  0  0  0  0  0  0
   -0.5716    7.4652    7.0465 H   0  0  0  0  0  0  0  0  0  0  0  0
   -1.0217    6.2347    8.7246 C   0  0  0  0  0  0  0  0  0  0  0  0
   -1.9679    6.7196    8.9133 H   0  0  0  0  0  0  0  0  0  0  0  0
   -0.6065    5.2020    9.5451 C   0  0  0  0  0  0  0  0  0  0  0  0
   -1.2321    4.8966   10.3677 H   0  0  0  0  0  0  0  0  0  0  0  0
    0.5949    4.5494    9.3083 C   0  0  0  0  0  0  0  0  0  0  0  0
    1.8519    6.5031    6.2589 C   0  0  0  0  0  0  0  0  0  0  0  0
    2.8559    6.0855    6.3868 H   0  0  0  0  0  0  0  0  0  0  0  0
    1.9892    8.0281    6.2466 C   0  0  0  0  0  0  0  0  0  0  0  0
    2.7531    8.3221    5.5303 H   0  0  0  0  0  0  0  0  0  0  0  0
    2.2770    8.3974    7.2290 H   0  0  0  0  0  0  0  0  0  0  0  0
    1.0579    8.5059    5.9567 H   0  0  0  0  0  0  0  0  0  0  0  0
    1.2971    6.0008    4.9236 C   0  0  0  0  0  0  0  0  0  0  0  0
    1.8955    6.3865    4.1016 H   0  0  0  0  0  0  0  0  0  0  0  0
    0.2685    6.3252    4.7914 H   0  0  0  0  0  0  0  0  0  0  0  0
    1.3189    4.9011    4.8873 H   0  0  0  0  0  0  0  0  0  0  0  0
    0.5137    2.0802    9.5776 C   0  0  0  0  0  0  0  0  0  0  0  0
    0.8638    1.9406    8.5555 H   0  0  0  0  0  0  0  0  0  0  0  0
   -0.5732    2.0954    9.5645 H   0  0  0  0  0  0  0  0  0  0  0  0
    0.8433    1.2370   10.1807 H   0  0  0  0  0  0  0  0  0  0  0  0
    1.0528    3.3894   10.1627 C   0  0  0  0  0  0  0  0  0  0  0  0
    2.1475    3.3485   10.1359 H   0  0  0  0  0  0  0  0  0  0  0  0
    0.6368    3.5314   11.6273 C   0  0  0  0  0  0  0  0  0  0  0  0
    1.1505    2.7836   12.2276 H   0  0  0  0  0  0  0  0  0  0  0  0
   -0.4318    3.3778   11.7496 H   0  0  0  0  0  0  0  0  0  0  0  0
    0.8952    4.5168   12.0094 H   0  0  0  0  0  0  0  0  0  0  0  0
    3.6702    1.9092    5.0071 N   0  0  0  0  0  0  0  0  0  0  0  0
    4.0111    2.9514    7.0006 N   0  0  0  0  0  0  0  0  0  0  0  0
    2.5593    4.2701    7.9128 N   0  0  0  0  0  0  0  0  0  0  0  0
    1.6366    2.5350    5.4932 Pt  0  0  1  0  0  0  0  0  0  0  0  0
    0.7908    1.6530    3.5992 Cl  0  0  0  0  0  0  0  0  0  0  0  0
  1  3  1  0  0  0  0
  1  2  1  0  0  0  0
  4  1  1  0  0  0  0
  5  6  1  0  0  0  0
  7  8  1  0  0  0  0
  7  5  2  0  0  0  0
  9 52  1  0  0  0  0
  9 53  1  0  0  0  0
 10 11  1  1  0  0  0
 10 52  1  0  0  0  0
 11 18  1  0  0  0  0
 12 13  1  0  0  0  0
 12 11  2  0  0  0  0
 14 16  2  0  0  0  0
 14 12  1  0  0  0  0
 15 14  1  0  0  0  0
 16 51  1  0  0  0  0
 17 16  1  0  0  0  0
 18 19  1  0  0  0  0
 18 20  1  0  0  0  0
 21 18  1  0  0  0  0
 22 30  1  0  0  0  0
 23 24  1  0  0  0  0
 23 22  2  0  0  0  0
 24 26  2  0  0  0  0
 25 24  1  0  0  0  0
 26 27  1  0  0  0  0
 26 28  1  0  0  0  0
 28 29  1  0  0  0  0
 30 28  2  0  0  0  0
 30 45  1  0  0  0  0
 31 32  1  0  0  0  0
 31 23  1  0  0  0  0
 33 31  1  0  0  0  0
 33 35  1  0  0  0  0
 34 33  1  0  0  0  0
 36 33  1  0  0  0  0
 37 31  1  0  0  0  0
 38 37  1  0  0  0  0
 39 37  1  0  0  0  0
 40 37  1  0  0  0  0
 41 45  1  0  0  0  0
 41 44  1  0  0  0  0
 42 41  1  0  0  0  0
 43 41  1  0  0  0  0
 45 47  1  0  0  0  0
 46 45  1  0  0  0  0
 47 49  1  0  0  0  0
 47 50  1  0  0  0  0
 47 48  1  0  0  0  0
 51 54  1  0  0  0  0
 51 10  1  0  0  0  0
 52  7  1  0  0  0  0
 53 22  1  0  0  0  0
 53  5  1  0  0  0  0
 54 55  1  6  0  0  0
 54  1  1  0  0  0  0
 54  9  2  0  0  0  0
M  END
$$$$
