CSD_code = NOYVUU | q = 0 | S = 0 | Stoichiometry = C22H36Cl2F3N2PPd | MND = 4
 OpenBabel04212202073D

 67 68  0  0  1  0  0  0  0  0999 V2000
    8.2339    8.5873    3.8779 Pd  0  0  0  0  0  0  0  0  0  0  0  0
    7.6000    6.5565    4.6760 Cl  0  0  0  0  0  0  0  0  0  0  0  0
    9.8543    7.5923    2.6166 Cl  0  0  0  0  0  0  0  0  0  0  0  0
    7.3268    9.8818    5.4546 P   0  0  0  0  0  4  0  0  0  0  0  0
    9.4860   16.9712    6.7226 F   0  0  0  0  0  0  0  0  0  0  0  0
   10.7751   16.8316    5.0059 F   0  0  0  0  0  0  0  0  0  0  0  0
   11.3914   15.9853    6.8836 F   0  0  0  0  0  0  0  0  0  0  0  0
    8.0648   11.1809    4.5449 N   0  0  0  0  0  0  0  0  0  0  0  0
    8.3576   11.0793    2.1918 N   0  0  0  0  0  0  0  0  0  0  0  0
    8.4059   10.4901    3.3683 C   0  0  2  0  0  3  0  0  0  0  0  0
    9.9001   12.7373    4.5682 C   0  0  0  0  0  0  0  0  0  0  0  0
   10.4510   13.9424    4.9435 C   0  0  0  0  0  0  0  0  0  0  0  0
    9.6995   14.8445    5.6903 C   0  0  0  0  0  0  0  0  0  0  0  0
    8.4023   14.5290    6.0713 C   0  0  0  0  0  0  0  0  0  0  0  0
    7.8516   13.3223    5.6916 C   0  0  0  0  0  0  0  0  0  0  0  0
    8.5849   12.4163    4.9256 C   0  0  0  0  0  0  0  0  0  0  0  0
    8.3007    9.7162    7.0562 C   0  0  0  0  0  0  0  0  0  0  0  0
    7.6930    8.5075    7.7701 C   0  0  0  0  0  0  0  0  0  0  0  0
    8.3441   10.9403    7.9665 C   0  0  0  0  0  0  0  0  0  0  0  0
    9.7192    9.3574    6.5929 C   0  0  0  0  0  0  0  0  0  0  0  0
    5.4808   10.2508    5.6287 C   0  0  0  0  0  0  0  0  0  0  0  0
    5.0171   11.0227    6.8575 C   0  0  0  0  0  0  0  0  0  0  0  0
    4.8553    8.8511    5.6345 C   0  0  0  0  0  0  0  0  0  0  0  0
    5.0804   10.9604    4.3361 C   0  0  0  0  0  0  0  0  0  0  0  0
    7.8830   12.4579    2.0029 C   0  0  0  0  0  0  0  0  0  0  0  0
    8.9619   13.4143    1.4864 C   0  0  0  0  0  0  0  0  0  0  0  0
    6.6177   12.5382    1.1484 C   0  0  0  0  0  0  0  0  0  0  0  0
    8.6106   10.1661    1.0503 C   0  0  0  0  0  0  0  0  0  0  0  0
    9.1802   10.8128   -0.2027 C   0  0  0  0  0  0  0  0  0  0  0  0
    7.3639    9.3268    0.7476 C   0  0  0  0  0  0  0  0  0  0  0  0
   10.3258   16.1507    6.0775 C   0  0  0  0  0  0  0  0  0  0  0  0
   10.4812   12.0182    4.0094 H   0  0  0  0  0  0  0  0  0  0  0  0
   11.4657   14.1874    4.6700 H   0  0  0  0  0  0  0  0  0  0  0  0
    7.8248   15.2286    6.6552 H   0  0  0  0  0  0  0  0  0  0  0  0
    6.8419   13.0779    5.9779 H   0  0  0  0  0  0  0  0  0  0  0  0
    7.5720    7.6803    7.0650 H   0  0  0  0  0  0  0  0  0  0  0  0
    8.3548    8.1781    8.5694 H   0  0  0  0  0  0  0  0  0  0  0  0
    6.7278    8.7468    8.2121 H   0  0  0  0  0  0  0  0  0  0  0  0
    7.3511   11.2718    8.2543 H   0  0  0  0  0  0  0  0  0  0  0  0
    8.8846   10.6795    8.8757 H   0  0  0  0  0  0  0  0  0  0  0  0
    8.8671   11.7687    7.4942 H   0  0  0  0  0  0  0  0  0  0  0  0
   10.1803   10.1837    6.0469 H   0  0  0  0  0  0  0  0  0  0  0  0
   10.3435    9.1383    7.4577 H   0  0  0  0  0  0  0  0  0  0  0  0
    9.7072    8.4588    5.9511 H   0  0  0  0  0  0  0  0  0  0  0  0
    3.9349   11.1428    6.8090 H   0  0  0  0  0  0  0  0  0  0  0  0
    5.2480   10.4805    7.7708 H   0  0  0  0  0  0  0  0  0  0  0  0
    5.4564   12.0151    6.9190 H   0  0  0  0  0  0  0  0  0  0  0  0
    5.2257    8.2603    4.7929 H   0  0  0  0  0  0  0  0  0  0  0  0
    5.0979    8.3114    6.5465 H   0  0  0  0  0  0  0  0  0  0  0  0
    3.7718    8.9235    5.5578 H   0  0  0  0  0  0  0  0  0  0  0  0
    3.9957   10.9952    4.2490 H   0  0  0  0  0  0  0  0  0  0  0  0
    5.4594   11.9808    4.3001 H   0  0  0  0  0  0  0  0  0  0  0  0
    5.4731   10.4045    3.4796 H   0  0  0  0  0  0  0  0  0  0  0  0
    7.5965   12.8065    2.9981 H   0  0  0  0  0  0  0  0  0  0  0  0
    9.0259   13.4017    0.4040 H   0  0  0  0  0  0  0  0  0  0  0  0
    8.7173   14.4276    1.7971 H   0  0  0  0  0  0  0  0  0  0  0  0
    9.9347   13.1633    1.8989 H   0  0  0  0  0  0  0  0  0  0  0  0
    5.8434   11.8852    1.5425 H   0  0  0  0  0  0  0  0  0  0  0  0
    6.2490   13.5612    1.1813 H   0  0  0  0  0  0  0  0  0  0  0  0
    6.8020   12.2834    0.1107 H   0  0  0  0  0  0  0  0  0  0  0  0
    9.3748    9.4637    1.4129 H   0  0  0  0  0  0  0  0  0  0  0  0
    9.4615   10.0103   -0.8801 H   0  0  0  0  0  0  0  0  0  0  0  0
    8.4702   11.4487   -0.7233 H   0  0  0  0  0  0  0  0  0  0  0  0
   10.0781   11.3788    0.0247 H   0  0  0  0  0  0  0  0  0  0  0  0
    7.0464    8.7834    1.6595 H   0  0  0  0  0  0  0  0  0  0  0  0
    6.5360    9.9230    0.3742 H   0  0  0  0  0  0  0  0  0  0  0  0
    7.6225    8.5813    0.0004 H   0  0  0  0  0  0  0  0  0  0  0  0
  1  2  1  0  0  0  0
  1  4  1  0  0  0  0
  3  1  1  0  0  0  0
  4 21  1  0  0  0  0
  4 17  1  0  0  0  0
  6 31  1  0  0  0  0
  8 16  1  0  0  0  0
  8  4  1  0  0  0  0
 10  9  1  6  0  0  0
 10  1  1  0  0  0  0
 10  8  1  0  0  0  0
 11 16  2  0  0  0  0
 11 12  1  0  0  0  0
 12 13  2  0  0  0  0
 13 14  1  0  0  0  0
 13 31  1  0  0  0  0
 14 34  1  0  0  0  0
 15 35  1  0  0  0  0
 15 14  2  0  0  0  0
 16 15  1  0  0  0  0
 17 18  1  0  0  0  0
 17 19  1  0  0  0  0
 18 38  1  0  0  0  0
 18 37  1  0  0  0  0
 19 39  1  0  0  0  0
 19 40  1  0  0  0  0
 20 17  1  0  0  0  0
 20 43  1  0  0  0  0
 21 23  1  0  0  0  0
 21 22  1  0  0  0  0
 22 47  1  0  0  0  0
 22 46  1  0  0  0  0
 23 49  1  0  0  0  0
 24 21  1  0  0  0  0
 25  9  1  0  0  0  0
 25 54  1  0  0  0  0
 26 56  1  0  0  0  0
 26 57  1  0  0  0  0
 26 25  1  0  0  0  0
 27 59  1  0  0  0  0
 27 58  1  0  0  0  0
 27 25  1  0  0  0  0
 28 61  1  0  0  0  0
 28  9  1  0  0  0  0
 29 64  1  0  0  0  0
 29 28  1  0  0  0  0
 30 28  1  0  0  0  0
 30 65  1  0  0  0  0
 31  5  1  0  0  0  0
 31  7  1  0  0  0  0
 32 11  1  0  0  0  0
 33 12  1  0  0  0  0
 36 18  1  0  0  0  0
 41 19  1  0  0  0  0
 42 20  1  0  0  0  0
 44 20  1  0  0  0  0
 45 22  1  0  0  0  0
 48 23  1  0  0  0  0
 50 23  1  0  0  0  0
 51 24  1  0  0  0  0
 52 24  1  0  0  0  0
 53 24  1  0  0  0  0
 55 26  1  0  0  0  0
 60 27  1  0  0  0  0
 62 29  1  0  0  0  0
 63 29  1  0  0  0  0
 66 30  1  0  0  0  0
 67 30  1  0  0  0  0
M  END
$$$$
