CSD_code = NOYWAB | q = 0 | S = 0 | Stoichiometry = C22H39Cl2N2OPPd | MND = 4
 OpenBabel04212202073D

 68 69  0  0  1  0  0  0  0  0999 V2000
    0.0140    4.1353   23.3951 Pd  0  0  0  0  0  0  0  0  0  0  0  0
    0.3627    4.2742   25.6409 Cl  0  0  0  0  0  0  0  0  0  0  0  0
    0.7749    6.2763   23.1380 Cl  0  0  0  0  0  0  0  0  0  0  0  0
   -0.0571    1.9170   23.1929 P   0  0  0  0  0  4  0  0  0  0  0  0
    1.4511   -0.5312   16.9857 O   0  0  0  0  0  0  0  0  0  0  0  0
   -0.2292    2.2603   21.4957 N   0  0  0  0  0  0  0  0  0  0  0  0
   -1.2605    4.2225   20.6499 N   0  0  0  0  0  0  0  0  0  0  0  0
   -0.4911    3.6324   21.5430 C   0  0  1  0  0  3  0  0  0  0  0  0
   -0.2556    0.2566   20.0700 C   0  0  0  0  0  0  0  0  0  0  0  0
    0.1930   -0.4055   18.9491 C   0  0  0  0  0  0  0  0  0  0  0  0
    1.0794    0.2095   18.0620 C   0  0  0  0  0  0  0  0  0  0  0  0
    1.5110    1.5044   18.3322 C   0  0  0  0  0  0  0  0  0  0  0  0
    1.0647    2.1616   19.4637 C   0  0  0  0  0  0  0  0  0  0  0  0
    0.1721    1.5544   20.3432 C   0  0  0  0  0  0  0  0  0  0  0  0
   -1.5175    0.8403   23.7192 C   0  0  0  0  0  0  0  0  0  0  0  0
   -1.3571   -0.6707   23.6100 C   0  0  0  0  0  0  0  0  0  0  0  0
   -1.7357    1.2368   25.1834 C   0  0  0  0  0  0  0  0  0  0  0  0
   -2.7051    1.3397   22.8971 C   0  0  0  0  0  0  0  0  0  0  0  0
    1.6517    1.1705   23.4360 C   0  0  0  0  0  0  0  0  0  0  0  0
    2.6030    2.2844   22.9782 C   0  0  0  0  0  0  0  0  0  0  0  0
    1.9471   -0.1162   22.6707 C   0  0  0  0  0  0  0  0  0  0  0  0
    1.8060    0.9757   24.9447 C   0  0  0  0  0  0  0  0  0  0  0  0
   -1.9868    3.4798   19.6110 C   0  0  0  0  0  0  0  0  0  0  0  0
   -1.5349    3.8136   18.1869 C   0  0  0  0  0  0  0  0  0  0  0  0
   -3.5051    3.5870   19.7558 C   0  0  0  0  0  0  0  0  0  0  0  0
   -1.5191    5.6553   20.9272 C   0  0  0  0  0  0  0  0  0  0  0  0
   -2.5624    5.8076   22.0402 C   0  0  0  0  0  0  0  0  0  0  0  0
   -1.8433    6.5163   19.7160 C   0  0  0  0  0  0  0  0  0  0  0  0
    2.3470    0.0309   16.0564 C   0  0  0  0  0  0  0  0  0  0  0  0
   -0.9502   -0.2294   20.7365 H   0  0  0  0  0  0  0  0  0  0  0  0
   -0.1350   -1.4094   18.7328 H   0  0  0  0  0  0  0  0  0  0  0  0
    2.2020    2.0100   17.6771 H   0  0  0  0  0  0  0  0  0  0  0  0
    1.4151    3.1616   19.6792 H   0  0  0  0  0  0  0  0  0  0  0  0
   -0.5833   -1.0292   24.2843 H   0  0  0  0  0  0  0  0  0  0  0  0
   -1.1138   -0.9889   22.5997 H   0  0  0  0  0  0  0  0  0  0  0  0
   -2.2937   -1.1489   23.8965 H   0  0  0  0  0  0  0  0  0  0  0  0
   -0.9283    0.8786   25.8168 H   0  0  0  0  0  0  0  0  0  0  0  0
   -2.6710    0.8179   25.5513 H   0  0  0  0  0  0  0  0  0  0  0  0
   -1.7768    2.3243   25.2836 H   0  0  0  0  0  0  0  0  0  0  0  0
   -2.7485    2.4322   22.9475 H   0  0  0  0  0  0  0  0  0  0  0  0
   -3.6352    0.9439   23.3018 H   0  0  0  0  0  0  0  0  0  0  0  0
   -2.6289    1.0378   21.8539 H   0  0  0  0  0  0  0  0  0  0  0  0
    2.5232    2.4531   21.9026 H   0  0  0  0  0  0  0  0  0  0  0  0
    2.3869    3.2277   23.5110 H   0  0  0  0  0  0  0  0  0  0  0  0
    3.6322    2.0058   23.1997 H   0  0  0  0  0  0  0  0  0  0  0  0
    1.2868   -0.9255   22.9674 H   0  0  0  0  0  0  0  0  0  0  0  0
    1.8584    0.0306   21.5968 H   0  0  0  0  0  0  0  0  0  0  0  0
    2.9699   -0.4247   22.8850 H   0  0  0  0  0  0  0  0  0  0  0  0
    1.4824    1.8780   25.4706 H   0  0  0  0  0  0  0  0  0  0  0  0
    1.2251    0.1263   25.2988 H   0  0  0  0  0  0  0  0  0  0  0  0
    2.8507    0.7931   25.1912 H   0  0  0  0  0  0  0  0  0  0  0  0
   -1.7431    2.4291   19.7815 H   0  0  0  0  0  0  0  0  0  0  0  0
   -1.7652    2.9724   17.5367 H   0  0  0  0  0  0  0  0  0  0  0  0
   -0.4618    3.9792   18.1548 H   0  0  0  0  0  0  0  0  0  0  0  0
   -2.0397    4.6900   17.7960 H   0  0  0  0  0  0  0  0  0  0  0  0
   -3.8148    3.3042   20.7587 H   0  0  0  0  0  0  0  0  0  0  0  0
   -3.9648    2.8977   19.0505 H   0  0  0  0  0  0  0  0  0  0  0  0
   -3.8743    4.5831   19.5386 H   0  0  0  0  0  0  0  0  0  0  0  0
   -0.5748    6.0411   21.3369 H   0  0  0  0  0  0  0  0  0  0  0  0
   -2.2240    5.2632   22.9436 H   0  0  0  0  0  0  0  0  0  0  0  0
   -2.6372    6.8589   22.3045 H   0  0  0  0  0  0  0  0  0  0  0  0
   -3.5456    5.4486   21.7483 H   0  0  0  0  0  0  0  0  0  0  0  0
   -2.8157    6.3052   19.2807 H   0  0  0  0  0  0  0  0  0  0  0  0
   -1.0749    6.4194   18.9551 H   0  0  0  0  0  0  0  0  0  0  0  0
   -1.8483    7.5516   20.0478 H   0  0  0  0  0  0  0  0  0  0  0  0
    2.4920   -0.7299   15.2917 H   0  0  0  0  0  0  0  0  0  0  0  0
    1.9337    0.9334   15.5949 H   0  0  0  0  0  0  0  0  0  0  0  0
    3.3103    0.2663   16.5192 H   0  0  0  0  0  0  0  0  0  0  0  0
  1  2  1  0  0  0  0
  3  1  1  0  0  0  0
  4  1  1  0  0  0  0
  4 19  1  0  0  0  0
  4 15  1  0  0  0  0
  5 11  1  0  0  0  0
  6  8  1  0  0  0  0
  6  4  1  0  0  0  0
  7 26  1  0  0  0  0
  8  7  1  1  0  0  0
  8  1  1  0  0  0  0
  9 14  1  0  0  0  0
  9 30  1  0  0  0  0
 10  9  2  0  0  0  0
 11 12  2  0  0  0  0
 11 10  1  0  0  0  0
 12 13  1  0  0  0  0
 13 33  1  0  0  0  0
 13 14  2  0  0  0  0
 14  6  1  0  0  0  0
 15 17  1  0  0  0  0
 16 15  1  0  0  0  0
 16 36  1  0  0  0  0
 16 34  1  0  0  0  0
 17 39  1  0  0  0  0
 17 38  1  0  0  0  0
 17 37  1  0  0  0  0
 18 40  1  0  0  0  0
 18 41  1  0  0  0  0
 18 15  1  0  0  0  0
 19 22  1  0  0  0  0
 20 45  1  0  0  0  0
 20 19  1  0  0  0  0
 20 44  1  0  0  0  0
 21 48  1  0  0  0  0
 21 46  1  0  0  0  0
 21 19  1  0  0  0  0
 22 51  1  0  0  0  0
 22 50  1  0  0  0  0
 22 49  1  0  0  0  0
 23 25  1  0  0  0  0
 23 52  1  0  0  0  0
 23  7  1  0  0  0  0
 24 23  1  0  0  0  0
 25 56  1  0  0  0  0
 26 59  1  0  0  0  0
 26 27  1  0  0  0  0
 27 61  1  0  0  0  0
 27 60  1  0  0  0  0
 28 65  1  0  0  0  0
 28 26  1  0  0  0  0
 29 68  1  0  0  0  0
 29  5  1  0  0  0  0
 31 10  1  0  0  0  0
 32 12  1  0  0  0  0
 35 16  1  0  0  0  0
 42 18  1  0  0  0  0
 43 20  1  0  0  0  0
 47 21  1  0  0  0  0
 53 24  1  0  0  0  0
 54 24  1  0  0  0  0
 55 24  1  0  0  0  0
 57 25  1  0  0  0  0
 58 25  1  0  0  0  0
 62 27  1  0  0  0  0
 63 28  1  0  0  0  0
 64 28  1  0  0  0  0
 66 29  1  0  0  0  0
 67 29  1  0  0  0  0
M  END
$$$$
