CSD_code = NOYZAE | q = 0 | S = 0 | Stoichiometry = C18H14BrFeNO6 | MND = 6
 OpenBabel04212202073D

 41 43  0  0  1  0  0  0  0  0999 V2000
    2.3848    1.9405    2.7223 Fe  0  0  0  0  0  0  0  0  0  0  0  0
    1.3780   -0.0945    3.2615 Br  0  0  0  0  0  0  0  0  0  0  0  0
    3.3998    2.0802    5.4800 O   0  0  0  0  0  1  0  0  0  0  0  0
    3.5703    4.3677    1.7109 O   0  0  0  0  0  1  0  0  0  0  0  0
    4.7425    0.4427    1.9593 O   0  0  0  0  0  1  0  0  0  0  0  0
    2.4437    1.5425   -0.1369 O   0  0  0  0  0  0  0  0  0  0  0  0
    1.1368    3.8719    4.7434 O   0  0  0  0  0  0  0  0  0  0  0  0
    5.9069    4.7723    8.5265 O   0  0  0  0  0  0  0  0  0  0  0  0
    0.5493    2.8579    2.8535 N   0  0  0  0  0  0  0  0  0  0  0  0
    2.9161    2.0965    4.4513 C   0  0  0  0  0  2  0  0  0  0  0  0
    3.0947    3.4137    2.1202 C   0  0  0  0  0  2  0  0  0  0  0  0
    3.8281    1.0350    2.2819 C   0  0  0  0  0  2  0  0  0  0  0  0
    1.7930    1.7091    0.8609 C   0  0  0  0  0  0  0  0  0  0  0  0
    0.2553    1.7422    0.7692 C   0  0  0  0  0  0  0  0  0  0  0  0
   -0.0739    2.0645   -0.2220 H   0  0  0  0  0  0  0  0  0  0  0  0
   -0.0666    0.7038    0.9086 H   0  0  0  0  0  0  0  0  0  0  0  0
   -0.2999    2.5930    1.8515 C   0  0  2  0  0  3  0  0  0  0  0  0
   -1.5872    3.1094    1.8340 C   0  0  0  0  0  0  0  0  0  0  0  0
   -2.2474    2.8757    1.0153 H   0  0  0  0  0  0  0  0  0  0  0  0
   -2.0018    3.9080    2.8851 C   0  0  0  0  0  0  0  0  0  0  0  0
   -3.0021    4.3118    2.9056 H   0  0  0  0  0  0  0  0  0  0  0  0
   -1.1208    4.1963    3.9119 C   0  0  0  0  0  0  0  0  0  0  0  0
   -1.4187    4.8253    4.7335 H   0  0  0  0  0  0  0  0  0  0  0  0
    0.1620    3.6566    3.8562 C   0  0  0  0  0  0  0  0  0  0  0  0
    0.9125    4.6877    5.8931 C   0  0  0  0  0  0  0  0  0  0  0  0
    0.1155    4.2551    6.5091 H   0  0  0  0  0  0  0  0  0  0  0  0
    0.6185    5.6963    5.5718 H   0  0  0  0  0  0  0  0  0  0  0  0
    2.2118    4.7272    6.6489 C   0  0  0  0  0  0  0  0  0  0  0  0
    3.3345    5.2968    6.0544 C   0  0  0  0  0  0  0  0  0  0  0  0
    3.2529    5.7324    5.0695 H   0  0  0  0  0  0  0  0  0  0  0  0
    4.5474    5.2940    6.7036 C   0  0  0  0  0  0  0  0  0  0  0  0
    5.4248    5.7267    6.2503 H   0  0  0  0  0  0  0  0  0  0  0  0
    4.6705    4.7208    7.9726 C   0  0  0  0  0  0  0  0  0  0  0  0
    3.5498    4.1522    8.5689 C   0  0  0  0  0  0  0  0  0  0  0  0
    3.6091    3.6960    9.5440 H   0  0  0  0  0  0  0  0  0  0  0  0
    2.3364    4.1531    7.9023 C   0  0  0  0  0  0  0  0  0  0  0  0
    1.4783    3.6954    8.3726 H   0  0  0  0  0  0  0  0  0  0  0  0
    6.1061    4.1942    9.7953 C   0  0  0  0  0  0  0  0  0  0  0  0
    5.4945    4.6838   10.5599 H   0  0  0  0  0  0  0  0  0  0  0  0
    7.1592    4.3470   10.0255 H   0  0  0  0  0  0  0  0  0  0  0  0
    5.8900    3.1215    9.7857 H   0  0  0  0  0  0  0  0  0  0  0  0
  1  9  1  0  0  0  0
  1  2  1  0  0  0  0
  1 10  1  0  0  0  0
  4 11  1  0  0  0  0
  5 12  1  0  0  0  0
  6 13  2  0  0  0  0
  7 25  1  0  0  0  0
  8 38  1  0  0  0  0
  9 24  1  0  0  0  0
 10  3  1  0  0  0  0
 11  1  1  0  0  0  0
 12  1  1  0  0  0  0
 13  1  1  0  0  0  0
 14 13  1  0  0  0  0
 14 16  1  0  0  0  0
 14 17  1  0  0  0  0
 15 14  1  0  0  0  0
 17 18  1  6  0  0  0
 17  9  1  0  0  0  0
 18 20  2  0  0  0  0
 19 18  1  0  0  0  0
 20 21  1  0  0  0  0
 20 22  1  0  0  0  0
 22 23  1  0  0  0  0
 24 22  2  0  0  0  0
 24  7  1  0  0  0  0
 25 26  1  0  0  0  0
 25 28  1  0  0  0  0
 27 25  1  0  0  0  0
 28 36  1  0  0  0  0
 29 28  2  0  0  0  0
 29 31  1  0  0  0  0
 30 29  1  0  0  0  0
 31 33  2  0  0  0  0
 32 31  1  0  0  0  0
 33  8  1  0  0  0  0
 33 34  1  0  0  0  0
 34 35  1  0  0  0  0
 36 37  1  0  0  0  0
 36 34  2  0  0  0  0
 38 40  1  0  0  0  0
 38 39  1  0  0  0  0
 41 38  1  0  0  0  0
M  END
$$$$
