CSD_code = NOZGOY | q = 0 | S = 0 | Stoichiometry = C30H28Cl2N6Zn | MND = 5
 OpenBabel04212202073D

 67 73  0  0  0  0  0  0  0  0999 V2000
    1.7528    1.5714    7.1391 Zn  0  0  0  0  0  0  0  0  0  0  0  0
    2.6197    0.6228    5.2740 Cl  0  0  0  0  0  0  0  0  0  0  0  0
    1.6365    3.7785    7.4866 Cl  0  0  0  0  0  0  0  0  0  0  0  0
    1.2612   -0.4514    8.0722 N   0  0  0  0  0  4  0  0  0  0  0  0
    0.6626   -0.4378    9.3825 C   0  0  0  0  0  0  0  0  0  0  0  0
    0.4410    0.7675   10.0294 C   0  0  0  0  0  0  0  0  0  0  0  0
   -0.0942    0.8050   11.3002 C   0  0  0  0  0  0  0  0  0  0  0  0
   -0.4429   -0.3729   11.9753 C   0  0  0  0  0  0  0  0  0  0  0  0
   -0.2322   -1.5859   11.3044 C   0  0  0  0  0  0  0  0  0  0  0  0
    0.3150   -1.6122   10.0392 C   0  0  0  0  0  0  0  0  0  0  0  0
   -0.9723   -0.3442   13.2424 N   0  0  0  0  0  0  0  0  0  0  0  0
    3.3522    1.1628    8.5551 N   0  0  0  0  0  0  0  0  0  0  0  0
    4.1583    2.0583    9.1034 C   0  0  0  0  0  3  0  0  0  0  0  0
    5.2141    1.6989    9.9236 C   0  0  0  0  0  0  0  0  0  0  0  0
    5.4254    0.3519   10.1749 C   0  0  0  0  0  0  0  0  0  0  0  0
    4.5732   -0.5781    9.6039 C   0  0  0  0  0  0  0  0  0  0  0  0
    3.5392   -0.1310    8.7917 C   0  0  0  0  0  0  0  0  0  0  0  0
    2.5859   -1.0609    8.1021 C   0  0  0  0  0  0  0  0  0  0  0  0
   -0.3636    1.2429    6.7593 N   0  0  0  0  0  0  0  0  0  0  0  0
   -1.2526    2.1742    6.4497 C   0  0  0  0  0  3  0  0  0  0  0  0
   -2.5568    1.8664    6.1025 C   0  0  0  0  0  0  0  0  0  0  0  0
   -2.9388    0.5337    6.0873 C   0  0  0  0  0  0  0  0  0  0  0  0
   -2.0054   -0.4337    6.4180 C   0  0  0  0  0  0  0  0  0  0  0  0
   -0.7155   -0.0378    6.7472 C   0  0  0  0  0  0  0  0  0  0  0  0
    0.3742   -1.0186    7.0650 C   0  0  0  0  0  0  0  0  0  0  0  0
   -2.2991   -3.6821   13.7922 N   0  0  0  0  0  0  0  0  0  0  0  0
   -3.2985   -4.4562   13.4092 C   0  0  0  0  0  0  0  0  0  0  0  0
   -4.3916   -3.9920   12.6945 C   0  0  0  0  0  0  0  0  0  0  0  0
   -4.4330   -2.6448   12.3709 C   0  0  0  0  0  0  0  0  0  0  0  0
   -3.3935   -1.8259   12.7771 C   0  0  0  0  0  0  0  0  0  0  0  0
   -2.3414   -2.3914   13.4892 C   0  0  0  0  0  0  0  0  0  0  0  0
   -1.1718   -1.5660   13.9802 C   0  0  0  0  0  0  0  0  0  0  0  0
   -0.2367    2.9501   14.6363 N   0  0  0  0  0  0  0  0  0  0  0  0
    0.7854    3.6782   15.0465 C   0  0  0  0  0  0  0  0  0  0  0  0
    2.0710    3.1774   15.1849 C   0  0  0  0  0  0  0  0  0  0  0  0
    2.2846    1.8424   14.8813 C   0  0  0  0  0  0  0  0  0  0  0  0
    1.2153    1.0713   14.4578 C   0  0  0  0  0  0  0  0  0  0  0  0
   -0.0333    1.6721   14.3453 C   0  0  0  0  0  0  0  0  0  0  0  0
   -1.2601    0.9099   13.8903 C   0  0  0  0  0  0  0  0  0  0  0  0
    0.6973    1.6936    9.5361 H   0  0  0  0  0  0  0  0  0  0  0  0
   -0.2237    1.7664   11.7682 H   0  0  0  0  0  0  0  0  0  0  0  0
   -0.5022   -2.5221   11.7649 H   0  0  0  0  0  0  0  0  0  0  0  0
    0.4683   -2.5710    9.5631 H   0  0  0  0  0  0  0  0  0  0  0  0
    3.9354    3.0910    8.8733 H   0  0  0  0  0  0  0  0  0  0  0  0
    5.8532    2.4543   10.3516 H   0  0  0  0  0  0  0  0  0  0  0  0
    6.2394    0.0301   10.8078 H   0  0  0  0  0  0  0  0  0  0  0  0
    4.7047   -1.6348    9.7799 H   0  0  0  0  0  0  0  0  0  0  0  0
    2.9270   -1.1573    7.0645 H   0  0  0  0  0  0  0  0  0  0  0  0
    2.5930   -2.0486    8.5808 H   0  0  0  0  0  0  0  0  0  0  0  0
   -0.8955    3.1939    6.4890 H   0  0  0  0  0  0  0  0  0  0  0  0
   -3.2531    2.6499    5.8510 H   0  0  0  0  0  0  0  0  0  0  0  0
   -3.9475    0.2518    5.8234 H   0  0  0  0  0  0  0  0  0  0  0  0
   -2.2656   -1.4812    6.4181 H   0  0  0  0  0  0  0  0  0  0  0  0
   -0.0516   -1.9859    7.3608 H   0  0  0  0  0  0  0  0  0  0  0  0
    0.9601   -1.1478    6.1474 H   0  0  0  0  0  0  0  0  0  0  0  0
   -3.2102   -5.4982   13.6880 H   0  0  0  0  0  0  0  0  0  0  0  0
   -5.1824   -4.6632   12.3986 H   0  0  0  0  0  0  0  0  0  0  0  0
   -5.2633   -2.2380   11.8115 H   0  0  0  0  0  0  0  0  0  0  0  0
   -3.3896   -0.7731   12.5420 H   0  0  0  0  0  0  0  0  0  0  0  0
   -1.3506   -1.3163   15.0300 H   0  0  0  0  0  0  0  0  0  0  0  0
   -0.2753   -2.1976   13.9563 H   0  0  0  0  0  0  0  0  0  0  0  0
    0.5578    4.7120   15.2704 H   0  0  0  0  0  0  0  0  0  0  0  0
    2.8772    3.8119   15.5175 H   0  0  0  0  0  0  0  0  0  0  0  0
    3.2692    1.4065   14.9735 H   0  0  0  0  0  0  0  0  0  0  0  0
    1.3473    0.0291   14.2127 H   0  0  0  0  0  0  0  0  0  0  0  0
   -1.8855    0.7169   14.7668 H   0  0  0  0  0  0  0  0  0  0  0  0
   -1.8418    1.5648   13.2312 H   0  0  0  0  0  0  0  0  0  0  0  0
  1  3  1  0  0  0  0
  1  4  1  0  0  0  0
  1 12  1  0  0  0  0
  2  1  1  0  0  0  0
  4 18  1  0  0  0  0
  4  5  1  0  0  0  0
  5  6  2  0  0  0  0
  5 10  1  0  0  0  0
  6  7  1  0  0  0  0
  7 41  1  0  0  0  0
  7  8  2  0  0  0  0
  8 11  1  0  0  0  0
  9 42  1  0  0  0  0
  9  8  1  0  0  0  0
 10  9  2  0  0  0  0
 11 39  1  0  0  0  0
 11 32  1  0  0  0  0
 12 17  1  0  0  0  0
 12 13  1  0  0  0  0
 13 14  1  0  0  0  0
 14 15  2  0  0  0  0
 14 45  1  0  0  0  0
 15 46  1  0  0  0  0
 16 47  1  0  0  0  0
 16 15  1  0  0  0  0
 17 16  2  0  0  0  0
 18 49  1  0  0  0  0
 18 17  1  0  0  0  0
 19  1  1  0  0  0  0
 20 50  1  0  0  0  0
 20 19  1  0  0  0  0
 21 20  1  0  0  0  0
 22 21  2  0  0  0  0
 22 23  1  0  0  0  0
 23 53  1  0  0  0  0
 23 24  2  0  0  0  0
 24 19  1  0  0  0  0
 24 25  1  0  0  0  0
 25 54  1  0  0  0  0
 25  4  1  0  0  0  0
 27 56  1  0  0  0  0
 27 26  2  0  0  0  0
 28 27  1  0  0  0  0
 29 28  2  0  0  0  0
 29 30  1  0  0  0  0
 30 31  2  0  0  0  0
 31 26  1  0  0  0  0
 31 32  1  0  0  0  0
 32 60  1  0  0  0  0
 33 34  1  0  0  0  0
 34 35  2  0  0  0  0
 34 62  1  0  0  0  0
 35 63  1  0  0  0  0
 36 64  1  0  0  0  0
 36 35  1  0  0  0  0
 37 36  2  0  0  0  0
 38 37  1  0  0  0  0
 38 33  2  0  0  0  0
 39 38  1  0  0  0  0
 39 66  1  0  0  0  0
 40  6  1  0  0  0  0
 43 10  1  0  0  0  0
 44 13  1  0  0  0  0
 48 18  1  0  0  0  0
 51 21  1  0  0  0  0
 52 22  1  0  0  0  0
 55 25  1  0  0  0  0
 57 28  1  0  0  0  0
 58 29  1  0  0  0  0
 59 30  1  0  0  0  0
 61 32  1  0  0  0  0
 65 37  1  0  0  0  0
 67 39  1  0  0  0  0
M  END
$$$$
