CSD_code = NOZHOB | q = 0 | S = 0 | Stoichiometry = C24H22Cl2FN3OPd | MND = 4
 OpenBabel04212202073D

 54 57  0  0  1  0  0  0  0  0999 V2000
   -0.6137    7.1872    3.1541 C   0  0  2  0  0  0  0  0  0  0  0  0
   -0.1636    7.8426    3.9153 H   0  0  0  0  0  0  0  0  0  0  0  0
   -1.1625    5.9482    3.7555 C   0  0  0  0  0  0  0  0  0  0  0  0
   -0.2262    5.2652    4.7263 C   0  0  0  0  0  0  0  0  0  0  0  0
   -0.5477    5.4917    5.7426 H   0  0  0  0  0  0  0  0  0  0  0  0
    0.7997    5.6028    4.5788 H   0  0  0  0  0  0  0  0  0  0  0  0
   -0.2822    4.1898    4.5806 H   0  0  0  0  0  0  0  0  0  0  0  0
   -1.9712    9.1743    2.5673 C   0  0  1  0  0  3  0  0  0  0  0  0
   -2.2043    7.4091    1.2877 C   0  0  0  0  0  0  0  0  0  0  0  0
   -2.0563    6.3846    0.9808 H   0  0  0  0  0  0  0  0  0  0  0  0
   -2.9589    8.4100    0.7596 C   0  0  0  0  0  0  0  0  0  0  0  0
   -3.5798    8.4240   -0.1125 H   0  0  0  0  0  0  0  0  0  0  0  0
   -1.5762   10.0561    3.6671 C   0  0  0  0  0  0  0  0  0  0  0  0
   -0.8049   11.1888    3.4294 C   0  0  0  0  0  0  0  0  0  0  0  0
   -0.4367   11.3792    2.4338 H   0  0  0  0  0  0  0  0  0  0  0  0
   -0.4682   12.0198    4.4820 C   0  0  0  0  0  0  0  0  0  0  0  0
    0.1400   12.8928    4.2997 H   0  0  0  0  0  0  0  0  0  0  0  0
   -0.9008   11.7317    5.7657 C   0  0  0  0  0  0  0  0  0  0  0  0
   -0.6406   12.3868    6.5835 H   0  0  0  0  0  0  0  0  0  0  0  0
   -1.6541   10.5943    6.0058 C   0  0  0  0  0  0  0  0  0  0  0  0
   -1.9801   10.3613    7.0081 H   0  0  0  0  0  0  0  0  0  0  0  0
   -1.9872    9.7513    4.9624 C   0  0  0  0  0  0  0  0  0  0  0  0
   -2.5734    8.8617    5.1413 H   0  0  0  0  0  0  0  0  0  0  0  0
   -3.4256   10.7969    1.3806 C   0  0  0  0  0  0  0  0  0  0  0  0
   -4.1783   10.6966    0.5930 H   0  0  0  0  0  0  0  0  0  0  0  0
   -2.6772   11.5253    1.0536 H   0  0  0  0  0  0  0  0  0  0  0  0
   -4.0663   11.2553    2.6682 C   0  0  0  0  0  0  0  0  0  0  0  0
   -3.7693   12.4988    3.2082 C   0  0  0  0  0  0  0  0  0  0  0  0
   -3.0959   13.1638    2.6896 H   0  0  0  0  0  0  0  0  0  0  0  0
   -4.3199   12.8925    4.4137 C   0  0  0  0  0  0  0  0  0  0  0  0
   -4.0921   13.8523    4.8480 H   0  0  0  0  0  0  0  0  0  0  0  0
   -5.1701   12.0228    5.0715 C   0  0  0  0  0  0  0  0  0  0  0  0
   -5.4938   10.7832    4.5497 C   0  0  0  0  0  0  0  0  0  0  0  0
   -6.1650   10.1322    5.0864 H   0  0  0  0  0  0  0  0  0  0  0  0
   -4.9377   10.4069    3.3421 C   0  0  0  0  0  0  0  0  0  0  0  0
   -5.1760    9.4387    2.9268 H   0  0  0  0  0  0  0  0  0  0  0  0
    3.3019    6.2866    0.4201 C   0  0  0  0  0  3  0  0  0  0  0  0
    3.5570    6.2034    1.4765 H   0  0  0  0  0  0  0  0  0  0  0  0
    4.2415    6.0684   -0.5722 C   0  0  0  0  0  0  0  0  0  0  0  0
    5.2563    5.8144   -0.3099 H   0  0  0  0  0  0  0  0  0  0  0  0
    3.8516    6.1784   -1.8986 C   0  0  0  0  0  0  0  0  0  0  0  0
    4.5590    6.0105   -2.6965 H   0  0  0  0  0  0  0  0  0  0  0  0
    2.5338    6.5066   -2.1788 C   0  0  0  0  0  0  0  0  0  0  0  0
    2.1884    6.6011   -3.1963 H   0  0  0  0  0  0  0  0  0  0  0  0
    1.6577    6.7111   -1.1271 C   0  0  0  0  0  0  0  0  0  0  0  0
    0.6147    6.9733   -1.2967 H   0  0  0  0  0  0  0  0  0  0  0  0
    0.9422    9.1500    1.3463 Cl  0  0  0  0  0  0  0  0  0  0  0  0
    0.4983    4.5901    1.6273 Cl  0  0  0  0  0  0  0  0  0  0  0  0
   -5.6969   12.3925    6.2534 F   0  0  0  0  0  0  0  0  0  0  0  0
   -1.6049    7.9069    2.4123 N   0  0  0  0  0  0  0  0  0  0  0  0
   -2.8002    9.5067    1.5549 N   0  0  0  0  0  0  0  0  0  0  0  0
    2.0403    6.6012    0.1413 N   0  0  0  0  0  0  0  0  0  0  0  0
   -2.2892    5.5504    3.5279 O   0  0  0  0  0  0  0  0  0  0  0  0
    0.7510    6.8530    1.6303 Pd  0  0  0  0  0  0  0  0  0  0  0  0
  1  3  1  0  0  0  0
  1  2  1  1  0  0  0
  3  4  1  0  0  0  0
  4  5  1  0  0  0  0
  6  4  1  0  0  0  0
  7  4  1  0  0  0  0
  8 13  1  1  0  0  0
  9 50  1  0  0  0  0
 10  9  1  0  0  0  0
 11  9  2  0  0  0  0
 11 51  1  0  0  0  0
 12 11  1  0  0  0  0
 13 22  1  0  0  0  0
 14 13  2  0  0  0  0
 14 16  1  0  0  0  0
 15 14  1  0  0  0  0
 16 18  2  0  0  0  0
 17 16  1  0  0  0  0
 18 20  1  0  0  0  0
 18 19  1  0  0  0  0
 20 21  1  0  0  0  0
 22 23  1  0  0  0  0
 22 20  2  0  0  0  0
 24 51  1  0  0  0  0
 24 27  1  0  0  0  0
 25 24  1  0  0  0  0
 26 24  1  0  0  0  0
 27 28  2  0  0  0  0
 27 35  1  0  0  0  0
 28 30  1  0  0  0  0
 29 28  1  0  0  0  0
 30 31  1  0  0  0  0
 30 32  2  0  0  0  0
 32 49  1  0  0  0  0
 33 32  1  0  0  0  0
 33 34  1  0  0  0  0
 35 33  2  0  0  0  0
 36 35  1  0  0  0  0
 37 38  1  0  0  0  0
 39 40  1  0  0  0  0
 39 37  1  0  0  0  0
 41 39  2  0  0  0  0
 42 41  1  0  0  0  0
 43 41  1  0  0  0  0
 43 45  2  0  0  0  0
 44 43  1  0  0  0  0
 45 52  1  0  0  0  0
 46 45  1  0  0  0  0
 47 54  1  0  0  0  0
 48 54  1  0  0  0  0
 50  8  1  0  0  0  0
 50  1  1  0  0  0  0
 51  8  1  0  0  0  0
 52 37  1  0  0  0  0
 52 54  1  0  0  0  0
 53  3  2  0  0  0  0
 54  1  1  0  0  0  0
M  END
$$$$
