CSD_code = NOZLIX | q = 1 | S = 0 | Stoichiometry = C11H26ClN4Zn(1+) | MND = 5
 OpenBabel04212202073D

 43 46  0  0  1  0  0  0  0  0999 V2000
    2.0460    3.5315    4.6548 Zn  0  0  0  0  0  0  0  0  0  0  0  0
    1.9702    4.0756    2.5788 Cl  0  0  0  0  0  0  0  0  0  0  0  0
    0.2755    2.3746    5.3084 N   0  0  2  0  0  4  0  0  0  0  0  0
    0.4644    1.9338    6.2087 H   0  0  0  0  0  0  0  0  0  0  0  0
    3.0543    1.5734    4.4549 N   0  0  1  0  0  4  0  0  0  0  0  0
    3.2069    1.0826    5.3376 H   0  0  0  0  0  0  0  0  0  0  0  0
    3.8084    4.3009    5.6842 N   0  0  1  0  0  4  0  0  0  0  0  0
    3.9151    3.7981    6.5664 H   0  0  0  0  0  0  0  0  0  0  0  0
    0.7421    5.1727    5.3826 N   0  0  2  0  0  4  0  0  0  0  0  0
    0.3051    5.4353    4.4992 H   0  0  0  0  0  0  0  0  0  0  0  0
   -0.1004    1.3067    4.3718 C   0  0  0  0  0  0  0  0  0  0  0  0
   -0.2412    1.7587    3.3874 H   0  0  0  0  0  0  0  0  0  0  0  0
   -1.0504    0.8530    4.6838 H   0  0  0  0  0  0  0  0  0  0  0  0
    0.9654    0.2223    4.2839 C   0  0  0  0  0  0  0  0  0  0  0  0
    1.1860   -0.1655    5.2828 H   0  0  0  0  0  0  0  0  0  0  0  0
    0.5532   -0.6006    3.6992 H   0  0  0  0  0  0  0  0  0  0  0  0
    2.2524    0.6771    3.6061 C   0  0  0  0  0  0  0  0  0  0  0  0
    2.8456   -0.2095    3.3460 H   0  0  0  0  0  0  0  0  0  0  0  0
    2.0181    1.2121    2.6838 H   0  0  0  0  0  0  0  0  0  0  0  0
    4.3792    1.7779    3.8496 C   0  0  0  0  0  0  0  0  0  0  0  0
    4.2399    2.3311    2.9186 H   0  0  0  0  0  0  0  0  0  0  0  0
    4.8278    0.8056    3.6054 H   0  0  0  0  0  0  0  0  0  0  0  0
    5.3264    2.5393    4.7685 C   0  0  0  0  0  0  0  0  0  0  0  0
    5.3353    2.0780    5.7607 H   0  0  0  0  0  0  0  0  0  0  0  0
    6.3325    2.4449    4.3583 H   0  0  0  0  0  0  0  0  0  0  0  0
    5.0195    4.0265    4.8905 C   0  0  0  0  0  0  0  0  0  0  0  0
    4.8753    4.4555    3.8963 H   0  0  0  0  0  0  0  0  0  0  0  0
    5.8800    4.5241    5.3572 H   0  0  0  0  0  0  0  0  0  0  0  0
    3.7604    5.7323    6.0262 C   0  0  0  0  0  0  0  0  0  0  0  0
    4.6647    5.9993    6.5889 H   0  0  0  0  0  0  0  0  0  0  0  0
    3.7692    6.2974    5.0915 H   0  0  0  0  0  0  0  0  0  0  0  0
    2.5268    6.1104    6.8418 C   0  0  0  0  0  0  0  0  0  0  0  0
    2.7527    7.0173    7.4032 H   0  0  0  0  0  0  0  0  0  0  0  0
    2.3008    5.3240    7.5642 H   0  0  0  0  0  0  0  0  0  0  0  0
    1.3077    6.3945    5.9694 C   0  0  0  0  0  0  0  0  0  0  0  0
    0.5452    6.9140    6.5624 H   0  0  0  0  0  0  0  0  0  0  0  0
    1.6103    7.0586    5.1578 H   0  0  0  0  0  0  0  0  0  0  0  0
   -0.3064    4.5723    6.2077 C   0  0  0  0  0  0  0  0  0  0  0  0
   -1.1376    5.2693    6.3719 H   0  0  0  0  0  0  0  0  0  0  0  0
    0.1178    4.3093    7.1803 H   0  0  0  0  0  0  0  0  0  0  0  0
   -0.8232    3.3244    5.5059 C   0  0  0  0  0  0  0  0  0  0  0  0
   -1.6436    2.8779    6.0798 H   0  0  0  0  0  0  0  0  0  0  0  0
   -1.2061    3.6026    4.5201 H   0  0  0  0  0  0  0  0  0  0  0  0
  1  3  1  0  0  0  0
  1  9  1  0  0  0  0
  1  7  1  0  0  0  0
  2  1  1  0  0  0  0
  3 41  1  0  0  0  0
  3  4  1  1  0  0  0
  5  1  1  0  0  0  0
  5  6  1  1  0  0  0
  7 29  1  0  0  0  0
  7  8  1  1  0  0  0
  9 10  1  6  0  0  0
  9 35  1  0  0  0  0
  9 38  1  0  0  0  0
 11 13  1  0  0  0  0
 11  3  1  0  0  0  0
 12 11  1  0  0  0  0
 14 11  1  0  0  0  0
 14 15  1  0  0  0  0
 16 14  1  0  0  0  0
 17 14  1  0  0  0  0
 17  5  1  0  0  0  0
 18 17  1  0  0  0  0
 19 17  1  0  0  0  0
 20  5  1  0  0  0  0
 20 23  1  0  0  0  0
 21 20  1  0  0  0  0
 22 20  1  0  0  0  0
 23 26  1  0  0  0  0
 23 24  1  0  0  0  0
 25 23  1  0  0  0  0
 26 28  1  0  0  0  0
 26  7  1  0  0  0  0
 27 26  1  0  0  0  0
 29 30  1  0  0  0  0
 29 32  1  0  0  0  0
 31 29  1  0  0  0  0
 32 33  1  0  0  0  0
 32 34  1  0  0  0  0
 35 36  1  0  0  0  0
 35 32  1  0  0  0  0
 37 35  1  0  0  0  0
 38 39  1  0  0  0  0
 38 40  1  0  0  0  0
 41 42  1  0  0  0  0
 41 38  1  0  0  0  0
 43 41  1  0  0  0  0
M  END
$$$$
