CSD_code = NOZLOD | q = 1 | S = 0 | Stoichiometry = C14H32Cl2CoN4(1+) | MND = 6
 OpenBabel04212202073D

 53 56  0  0  1  0  0  0  0  0999 V2000
    3.8555    0.0000   -0.0000 Co  0  0  0  0  0  0  0  0  0  0  0  0
    2.1836    1.4533    0.0000 Cl  0  0  0  0  0  0  0  0  0  0  0  0
    4.7996    0.9948    1.4525 N   0  0  2  0  0  4  0  0  0  0  0  0
    4.0612    0.7306    2.6946 C   0  0  0  0  0  0  0  0  0  0  0  0
    5.1339    2.4211    1.2837 C   0  0  2  0  0  0  0  0  0  0  0  0
    5.9404    2.6156   -0.0000 C   0  0  0  0  0  0  0  0  0  0  0  0
    5.9399    2.9551    2.4702 C   0  0  0  0  0  0  0  0  0  0  0  0
    5.6886    0.4858    1.5186 H   0  0  0  0  0  0  0  0  0  0  0  0
    3.1762    1.3731    2.7097 H   0  0  0  0  0  0  0  0  0  0  0  0
    4.6699    0.9406    3.5779 H   0  0  0  0  0  0  0  0  0  0  0  0
    4.1911    2.9723    1.2073 H   0  0  0  0  0  0  0  0  0  0  0  0
    6.3258    3.6344    0.0000 H   0  0  0  0  0  0  0  0  0  0  0  0
    6.7996    1.9396   -0.0000 H   0  0  0  0  0  0  0  0  0  0  0  0
    6.2743    3.9658    2.2558 H   0  0  0  0  0  0  0  0  0  0  0  0
    6.8192    2.3391    2.6476 H   0  0  0  0  0  0  0  0  0  0  0  0
    5.3466    2.9994    3.3781 H   0  0  0  0  0  0  0  0  0  0  0  0
    5.5274   -1.4533    0.0000 Cl  0  0  0  0  0  0  0  0  0  0  0  0
    3.6498   -0.7306    2.6946 C   0  0  0  0  0  0  0  0  0  0  0  0
    2.9114   -0.9948    1.4525 N   0  0  2  0  0  4  0  0  0  0  0  0
    4.7996    0.9948   -1.4525 N   0  0  1  0  0  4  0  0  0  0  0  0
    4.0612    0.7306   -2.6946 C   0  0  0  0  0  0  0  0  0  0  0  0
    3.6498   -0.7306   -2.6946 C   0  0  0  0  0  0  0  0  0  0  0  0
    3.1762    1.3731   -2.7097 H   0  0  0  0  0  0  0  0  0  0  0  0
    4.6699    0.9406   -3.5779 H   0  0  0  0  0  0  0  0  0  0  0  0
    5.1339    2.4211   -1.2837 C   0  0  2  0  0  0  0  0  0  0  0  0
    5.9399    2.9551   -2.4702 C   0  0  0  0  0  0  0  0  0  0  0  0
    6.2743    3.9658   -2.2558 H   0  0  0  0  0  0  0  0  0  0  0  0
    6.8192    2.3391   -2.6476 H   0  0  0  0  0  0  0  0  0  0  0  0
    5.3466    2.9994   -3.3781 H   0  0  0  0  0  0  0  0  0  0  0  0
    4.1911    2.9723   -1.2073 H   0  0  0  0  0  0  0  0  0  0  0  0
    5.6886    0.4858   -1.5186 H   0  0  0  0  0  0  0  0  0  0  0  0
    2.9114   -0.9948   -1.4525 N   0  0  1  0  0  4  0  0  0  0  0  0
    4.5348   -1.3731   -2.7097 H   0  0  0  0  0  0  0  0  0  0  0  0
    3.0411   -0.9406   -3.5779 H   0  0  0  0  0  0  0  0  0  0  0  0
    2.5771   -2.4211   -1.2837 C   0  0  1  0  0  0  0  0  0  0  0  0
    1.7706   -2.6156   -0.0000 C   0  0  0  0  0  0  0  0  0  0  0  0
    2.5771   -2.4211    1.2837 C   0  0  2  0  0  0  0  0  0  0  0  0
    2.0224   -0.4858    1.5186 H   0  0  0  0  0  0  0  0  0  0  0  0
    1.7711   -2.9551    2.4702 C   0  0  0  0  0  0  0  0  0  0  0  0
    1.4367   -3.9658    2.2558 H   0  0  0  0  0  0  0  0  0  0  0  0
    0.8918   -2.3391    2.6476 H   0  0  0  0  0  0  0  0  0  0  0  0
    2.3644   -2.9994    3.3781 H   0  0  0  0  0  0  0  0  0  0  0  0
    3.5199   -2.9723    1.2073 H   0  0  0  0  0  0  0  0  0  0  0  0
    1.3852   -3.6344    0.0000 H   0  0  0  0  0  0  0  0  0  0  0  0
    0.9114   -1.9396   -0.0000 H   0  0  0  0  0  0  0  0  0  0  0  0
    1.7711   -2.9551   -2.4702 C   0  0  0  0  0  0  0  0  0  0  0  0
    1.4367   -3.9658   -2.2558 H   0  0  0  0  0  0  0  0  0  0  0  0
    0.8918   -2.3391   -2.6476 H   0  0  0  0  0  0  0  0  0  0  0  0
    2.3644   -2.9994   -3.3781 H   0  0  0  0  0  0  0  0  0  0  0  0
    3.5199   -2.9723   -1.2073 H   0  0  0  0  0  0  0  0  0  0  0  0
    2.0224   -0.4858   -1.5186 H   0  0  0  0  0  0  0  0  0  0  0  0
    4.5348   -1.3731    2.7097 H   0  0  0  0  0  0  0  0  0  0  0  0
    3.0411   -0.9406    3.5779 H   0  0  0  0  0  0  0  0  0  0  0  0
  1 17  1  0  0  0  0
  1  2  1  0  0  0  0
  1  3  1  0  0  0  0
  1 19  1  0  0  0  0
  3  8  1  1  0  0  0
  3  4  1  0  0  0  0
  4 18  1  0  0  0  0
  4  9  1  0  0  0  0
  4 10  1  0  0  0  0
  5 11  1  6  0  0  0
  5  3  1  0  0  0  0
  5  7  1  0  0  0  0
  6 12  1  0  0  0  0
  6  5  1  0  0  0  0
  7 15  1  0  0  0  0
  7 16  1  0  0  0  0
 13  6  1  0  0  0  0
 14  7  1  0  0  0  0
 18 52  1  0  0  0  0
 18 53  1  0  0  0  0
 19 38  1  1  0  0  0
 19 18  1  0  0  0  0
 20 31  1  6  0  0  0
 20 25  1  0  0  0  0
 20  1  1  0  0  0  0
 21 20  1  0  0  0  0
 22 21  1  0  0  0  0
 22 32  1  0  0  0  0
 23 21  1  0  0  0  0
 24 21  1  0  0  0  0
 25 30  1  1  0  0  0
 25  6  1  0  0  0  0
 26 27  1  0  0  0  0
 26 25  1  0  0  0  0
 28 26  1  0  0  0  0
 29 26  1  0  0  0  0
 32 51  1  6  0  0  0
 32 35  1  0  0  0  0
 32  1  1  0  0  0  0
 33 22  1  0  0  0  0
 34 22  1  0  0  0  0
 35 50  1  1  0  0  0
 35 36  1  0  0  0  0
 36 44  1  0  0  0  0
 36 37  1  0  0  0  0
 37 43  1  6  0  0  0
 37 19  1  0  0  0  0
 37 39  1  0  0  0  0
 39 41  1  0  0  0  0
 39 42  1  0  0  0  0
 40 39  1  0  0  0  0
 45 36  1  0  0  0  0
 46 47  1  0  0  0  0
 46 35  1  0  0  0  0
 48 46  1  0  0  0  0
 49 46  1  0  0  0  0
M  END
$$$$
