CSD_code = NUCFAU | q = 0 | S = 0 | Stoichiometry = C15H12Br2N8Pd | MND = 4
 OpenBabel04212202073D

 38 40  0  0  1  0  0  0  0  0999 V2000
    4.8025   11.7147   12.7449 Pd  0  0  0  0  0  0  0  0  0  0  0  0
    6.0116   13.1042   11.1961 Br  0  0  0  0  0  0  0  0  0  0  0  0
    5.8276   13.7017   14.7552 N   0  0  0  0  0  0  0  0  0  0  0  0
    5.9385   12.5136   14.1428 C   0  0  0  0  0  0  0  0  0  0  0  0
    3.4550   10.6040   11.0889 Br  0  0  0  0  0  0  0  0  0  0  0  0
    7.0370   11.9111   14.6364 N   0  0  0  0  0  0  0  0  0  0  0  0
    6.8605   13.8668   15.6486 C   0  0  0  0  0  0  0  0  0  0  0  0
    2.7032   10.6556   14.6171 N   0  0  0  0  0  0  0  0  0  0  0  0
    7.6329   12.7246   15.5746 C   0  0  0  0  0  0  0  0  0  0  0  0
    4.4663    9.4041   14.5244 N   0  0  0  0  0  0  0  0  0  0  0  0
    4.8186   14.6808   14.4468 C   0  0  0  0  0  0  0  0  0  0  0  0
    4.1657   14.8489   15.3056 H   0  0  0  0  0  0  0  0  0  0  0  0
    4.2319   14.3078   13.5935 H   0  0  0  0  0  0  0  0  0  0  0  0
    5.2863   15.6252   14.1654 H   0  0  0  0  0  0  0  0  0  0  0  0
    7.1163   15.9311   17.1191 N   0  0  0  0  0  0  0  0  0  0  0  0
    7.5764   10.6687   14.1297 C   0  0  0  0  0  0  0  0  0  0  0  0
    8.6522   10.6795   14.3219 H   0  0  0  0  0  0  0  0  0  0  0  0
    7.4161   10.6612   13.0360 H   0  0  0  0  0  0  0  0  0  0  0  0
    9.7272   12.0551   16.8599 N   0  0  0  0  0  0  0  0  0  0  0  0
    6.9658    9.4047   14.7606 C   0  0  0  0  0  0  0  0  0  0  0  0
    7.7274    8.6261   14.7172 H   0  0  0  0  0  0  0  0  0  0  0  0
    6.7463    9.5834   15.8170 H   0  0  0  0  0  0  0  0  0  0  0  0
    0.3312    9.3203   16.8102 N   0  0  0  0  0  0  0  0  0  0  0  0
    5.7167    8.8538   14.0503 C   0  0  0  0  0  0  0  0  0  0  0  0
    5.7771    9.0581   12.9657 H   0  0  0  0  0  0  0  0  0  0  0  0
    5.6713    7.7716   14.1967 H   0  0  0  0  0  0  0  0  0  0  0  0
    4.1466    6.6178   16.6070 N   0  0  0  0  0  0  0  0  0  0  0  0
    3.9159   10.5402   14.0558 C   0  0  1  0  0  3  0  0  0  0  0  0
    2.4695    9.5874   15.4517 C   0  0  0  0  0  0  0  0  0  0  0  0
    3.5939    8.7880   15.3943 C   0  0  0  0  0  0  0  0  0  0  0  0
    1.7658   11.7043   14.3115 C   0  0  0  0  0  0  0  0  0  0  0  0
    1.5759   12.3233   15.1907 H   0  0  0  0  0  0  0  0  0  0  0  0
    0.8233   11.2759   13.9679 H   0  0  0  0  0  0  0  0  0  0  0  0
    2.1923   12.3172   13.5029 H   0  0  0  0  0  0  0  0  0  0  0  0
    7.0170   15.0012   16.4572 C   0  0  0  0  0  0  0  0  0  0  0  0
    8.7896   12.3766   16.2842 C   0  0  0  0  0  0  0  0  0  0  0  0
    1.2940    9.4248   16.1980 C   0  0  0  0  0  0  0  0  0  0  0  0
    3.8776    7.5902   16.0631 C   0  0  0  0  0  0  0  0  0  0  0  0
  1 28  1  0  0  0  0
  1  4  2  0  0  0  0
  2  1  1  0  0  0  0
  3  7  1  0  0  0  0
  4  6  1  0  0  0  0
  4  3  1  0  0  0  0
  5  1  1  0  0  0  0
  6  9  1  0  0  0  0
  7 35  1  0  0  0  0
  8 29  1  0  0  0  0
  9  7  2  0  0  0  0
  9 36  1  0  0  0  0
 10 30  1  0  0  0  0
 11  3  1  0  0  0  0
 11 12  1  0  0  0  0
 13 11  1  0  0  0  0
 14 11  1  0  0  0  0
 16 17  1  0  0  0  0
 16  6  1  0  0  0  0
 16 20  1  0  0  0  0
 18 16  1  0  0  0  0
 20 22  1  0  0  0  0
 21 20  1  0  0  0  0
 24 26  1  0  0  0  0
 24 10  1  0  0  0  0
 24 20  1  0  0  0  0
 25 24  1  0  0  0  0
 28 10  1  6  0  0  0
 28  8  1  0  0  0  0
 29 37  1  0  0  0  0
 30 29  2  0  0  0  0
 30 38  1  0  0  0  0
 31  8  1  0  0  0  0
 31 32  1  0  0  0  0
 33 31  1  0  0  0  0
 34 31  1  0  0  0  0
 35 15  3  0  0  0  0
 36 19  3  0  0  0  0
 37 23  3  0  0  0  0
 38 27  3  0  0  0  0
M  END
$$$$
