CSD_code = NUCSEL | q = 0 | S = 0 | Stoichiometry = C19H35ClCoN2P | MND = 4
 OpenBabel04212202073D

 59 61  0  0  1  0  0  0  0  0999 V2000
   10.8804    3.6485   15.0248 Co  0  0  1  0  0  0  0  0  0  0  0  0
    8.8975    3.7184   14.1763 P   0  0  0  0  0  4  0  0  0  0  0  0
   10.3479    2.8029   16.8977 Cl  0  0  0  0  0  0  0  0  0  0  0  0
   11.4830    4.0957   13.4053 N   0  0  0  0  0  0  0  0  0  0  0  0
   12.8576    3.8330   15.5923 N   0  0  0  0  0  4  0  0  0  0  0  0
   12.9473    3.1467   16.3415 H   0  0  0  0  0  0  0  0  0  0  0  0
    9.2839    4.7628   12.6866 C   0  0  0  0  0  0  0  0  0  0  0  0
    8.6388    4.5887   11.8240 H   0  0  0  0  0  0  0  0  0  0  0  0
    9.1697    5.8065   12.9942 H   0  0  0  0  0  0  0  0  0  0  0  0
   10.7246    4.5166   12.3709 C   0  0  1  0  0  3  0  0  0  0  0  0
   11.2534    4.7074   11.1092 C   0  0  0  0  0  0  0  0  0  0  0  0
   10.6128    5.0434   10.3075 H   0  0  0  0  0  0  0  0  0  0  0  0
   12.6025    4.4677   10.8803 C   0  0  0  0  0  0  0  0  0  0  0  0
   13.0334    4.6135    9.9029 H   0  0  0  0  0  0  0  0  0  0  0  0
   13.3788    4.0305   11.9467 C   0  0  0  0  0  0  0  0  0  0  0  0
   14.4301    3.8224   11.8171 H   0  0  0  0  0  0  0  0  0  0  0  0
   12.7922    3.8554   13.1817 C   0  0  0  0  0  0  0  0  0  0  0  0
   13.5297    3.3405   14.3863 C   0  0  0  0  0  0  0  0  0  0  0  0
   13.4630    2.2453   14.3819 H   0  0  0  0  0  0  0  0  0  0  0  0
   14.5925    3.6073   14.3416 H   0  0  0  0  0  0  0  0  0  0  0  0
    8.2631    2.1060   13.4226 C   0  0  0  0  0  0  0  0  0  0  0  0
    8.0862    1.0919   14.5548 C   0  0  0  0  0  0  0  0  0  0  0  0
    7.1667    1.2579   15.1069 H   0  0  0  0  0  0  0  0  0  0  0  0
    8.9196    1.1614   15.2526 H   0  0  0  0  0  0  0  0  0  0  0  0
    8.0576    0.0804   14.1512 H   0  0  0  0  0  0  0  0  0  0  0  0
    6.9847    2.2152   12.5979 C   0  0  0  0  0  0  0  0  0  0  0  0
    7.0609    2.9865   11.8337 H   0  0  0  0  0  0  0  0  0  0  0  0
    6.1253    2.4271   13.2288 H   0  0  0  0  0  0  0  0  0  0  0  0
    6.7997    1.2656   12.0958 H   0  0  0  0  0  0  0  0  0  0  0  0
    9.4125    1.6178   12.5351 C   0  0  0  0  0  0  0  0  0  0  0  0
    9.2037    0.6126   12.1705 H   0  0  0  0  0  0  0  0  0  0  0  0
   10.3363    1.5830   13.1156 H   0  0  0  0  0  0  0  0  0  0  0  0
    9.5660    2.2646   11.6734 H   0  0  0  0  0  0  0  0  0  0  0  0
    7.5186    4.6999   15.0102 C   0  0  0  0  0  0  0  0  0  0  0  0
    6.5024    5.3330   14.0612 C   0  0  0  0  0  0  0  0  0  0  0  0
    5.7603    5.8732   14.6489 H   0  0  0  0  0  0  0  0  0  0  0  0
    5.9803    4.5877   13.4695 H   0  0  0  0  0  0  0  0  0  0  0  0
    6.9705    6.0447   13.3852 H   0  0  0  0  0  0  0  0  0  0  0  0
    8.2700    5.7971   15.7712 C   0  0  0  0  0  0  0  0  0  0  0  0
    8.8426    6.4350   15.0981 H   0  0  0  0  0  0  0  0  0  0  0  0
    8.9557    5.3368   16.4817 H   0  0  0  0  0  0  0  0  0  0  0  0
    7.5722    6.4257   16.3223 H   0  0  0  0  0  0  0  0  0  0  0  0
    6.8162    3.8108   16.0341 C   0  0  0  0  0  0  0  0  0  0  0  0
    6.2412    4.4241   16.7272 H   0  0  0  0  0  0  0  0  0  0  0  0
    7.5554    3.2516   16.6054 H   0  0  0  0  0  0  0  0  0  0  0  0
    6.1303    3.1169   15.5546 H   0  0  0  0  0  0  0  0  0  0  0  0
   13.3638    5.1069   16.1424 C   0  0  0  0  0  0  0  0  0  0  0  0
   13.3580    6.1962   15.0706 C   0  0  0  0  0  0  0  0  0  0  0  0
   14.0464    5.9726   14.2593 H   0  0  0  0  0  0  0  0  0  0  0  0
   13.6518    7.1448   15.5133 H   0  0  0  0  0  0  0  0  0  0  0  0
   12.3568    6.3043   14.6590 H   0  0  0  0  0  0  0  0  0  0  0  0
   14.7767    4.9314   16.7151 C   0  0  0  0  0  0  0  0  0  0  0  0
   14.7910    4.1337   17.4558 H   0  0  0  0  0  0  0  0  0  0  0  0
   15.0941    5.8502   17.2011 H   0  0  0  0  0  0  0  0  0  0  0  0
   15.5039    4.6984   15.9400 H   0  0  0  0  0  0  0  0  0  0  0  0
   12.4126    5.5131   17.2683 C   0  0  0  0  0  0  0  0  0  0  0  0
   11.4014    5.6041   16.8723 H   0  0  0  0  0  0  0  0  0  0  0  0
   12.7108    6.4646   17.7006 H   0  0  0  0  0  0  0  0  0  0  0  0
   12.3969    4.7600   18.0520 H   0  0  0  0  0  0  0  0  0  0  0  0
  1  5  1  0  0  0  0
  1  3  1  6  0  0  0
  2 34  1  0  0  0  0
  2  1  1  0  0  0  0
  4  1  1  0  0  0  0
  5 47  1  0  0  0  0
  5  6  1  0  0  0  0
  7  9  1  0  0  0  0
  7  2  1  0  0  0  0
  8  7  1  0  0  0  0
 10 11  1  1  0  0  0
 10  7  1  0  0  0  0
 10  4  1  0  0  0  0
 12 11  1  0  0  0  0
 13 11  2  0  0  0  0
 13 15  1  0  0  0  0
 14 13  1  0  0  0  0
 15 17  2  0  0  0  0
 16 15  1  0  0  0  0
 17  4  1  0  0  0  0
 17 18  1  0  0  0  0
 18  5  1  0  0  0  0
 19 18  1  0  0  0  0
 20 18  1  0  0  0  0
 21  2  1  0  0  0  0
 21 22  1  0  0  0  0
 22 23  1  0  0  0  0
 22 24  1  0  0  0  0
 25 22  1  0  0  0  0
 26 28  1  0  0  0  0
 26 21  1  0  0  0  0
 27 26  1  0  0  0  0
 29 26  1  0  0  0  0
 30 32  1  0  0  0  0
 30 21  1  0  0  0  0
 31 30  1  0  0  0  0
 33 30  1  0  0  0  0
 34 39  1  0  0  0  0
 34 43  1  0  0  0  0
 35 36  1  0  0  0  0
 35 34  1  0  0  0  0
 37 35  1  0  0  0  0
 38 35  1  0  0  0  0
 39 42  1  0  0  0  0
 39 41  1  0  0  0  0
 40 39  1  0  0  0  0
 43 45  1  0  0  0  0
 43 44  1  0  0  0  0
 46 43  1  0  0  0  0
 47 52  1  0  0  0  0
 47 56  1  0  0  0  0
 48 50  1  0  0  0  0
 48 47  1  0  0  0  0
 49 48  1  0  0  0  0
 51 48  1  0  0  0  0
 52 54  1  0  0  0  0
 52 53  1  0  0  0  0
 55 52  1  0  0  0  0
 56 58  1  0  0  0  0
 56 59  1  0  0  0  0
 57 56  1  0  0  0  0
M  END
$$$$
