CSD_code = NUDGIC | q = 0 | S = 0 | Stoichiometry = C6H10Cl2N2Pt | MND = 4
 OpenBabel04212202073D

 21 21  0  0  1  0  0  0  0  0999 V2000
    8.1188    7.2426    1.9972 Pt  0  0  0  0  0  0  0  0  0  0  0  0
    9.6815    7.3385    3.6200 Cl  0  0  0  0  0  0  0  0  0  0  0  0
    6.7798    8.7441    3.0077 Cl  0  0  0  0  0  0  0  0  0  0  0  0
    6.6981    7.1498    0.5636 N   0  0  0  0  0  0  0  0  0  0  0  0
    6.6188    8.0525   -0.4201 C   0  0  1  0  0  3  0  0  0  0  0  0
    7.7510    9.0124   -0.5820 C   0  0  0  0  0  0  0  0  0  0  0  0
    8.4736    8.6248   -1.3005 H   0  0  0  0  0  0  0  0  0  0  0  0
    8.2541    9.1569    0.3800 H   0  0  0  0  0  0  0  0  0  0  0  0
    7.3915    9.9717   -0.9430 H   0  0  0  0  0  0  0  0  0  0  0  0
    5.5191    8.0844   -1.2704 C   0  0  0  0  0  0  0  0  0  0  0  0
    5.4792    8.8235   -2.0552 H   0  0  0  0  0  0  0  0  0  0  0  0
    4.4839    7.1844   -1.0945 C   0  0  0  0  0  0  0  0  0  0  0  0
    3.6191    7.2068   -1.7393 H   0  0  0  0  0  0  0  0  0  0  0  0
    4.5790    6.2596   -0.0642 C   0  0  0  0  0  0  0  0  0  0  0  0
    3.7943    5.5442    0.1202 H   0  0  0  0  0  0  0  0  0  0  0  0
    5.7018    6.2806    0.7380 C   0  0  0  0  0  0  0  0  0  0  0  0
    5.8110    5.5869    1.5631 H   0  0  0  0  0  0  0  0  0  0  0  0
    9.4755    5.7833    1.1396 N   0  0  0  0  0  4  0  0  0  0  0  0
   10.1821    5.8349    1.8824 H   0  0  0  0  0  0  0  0  0  0  0  0
    9.9018    6.0329    0.2526 H   0  0  0  0  0  0  0  0  0  0  0  0
    9.1157    4.8350    1.0868 H   0  0  0  0  0  0  0  0  0  0  0  0
  1  3  1  0  0  0  0
  1  2  1  0  0  0  0
  4 16  1  0  0  0  0
  4  1  1  0  0  0  0
  5  6  1  6  0  0  0
  5  4  1  0  0  0  0
  6  8  1  0  0  0  0
  7  6  1  0  0  0  0
  9  6  1  0  0  0  0
 10 12  2  0  0  0  0
 10  5  1  0  0  0  0
 11 10  1  0  0  0  0
 12 14  1  0  0  0  0
 13 12  1  0  0  0  0
 14 15  1  0  0  0  0
 14 16  2  0  0  0  0
 16 17  1  0  0  0  0
 18 19  1  0  0  0  0
 18  1  1  0  0  0  0
 20 18  1  0  0  0  0
 21 18  1  0  0  0  0
M  END
$$$$
