CSD_code = NUDSAH | q = 0 | S = 0 | Stoichiometry = C29H36ClN2ORh | MND = 6
 OpenBabel04212202073D

 70 72  0  0  1  0  0  0  0  0999 V2000
    5.4350    5.6009    6.9076 Rh  0  0  0  0  0  0  0  0  0  0  0  0
    5.3622    6.0020    9.1508 Cl  0  0  0  0  0 15  0  0  0  0  0  0
    3.4486    7.6997    6.8146 N   0  0  0  0  0  0  0  0  0  0  0  0
    2.4521    5.8422    7.3668 N   0  0  0  0  0  0  0  0  0  0  0  0
    1.7841    9.2622    7.1364 O   0  0  0  0  0  0  0  0  0  0  0  0
    3.6070    6.3359    6.9358 C   0  0  2  0  0  3  0  0  0  0  0  0
    2.1969    8.1316    7.1689 C   0  0  0  0  0  0  0  0  0  0  0  0
    1.4611    6.8696    7.5918 C   0  0  0  0  0  0  0  0  0  0  0  0
    1.1711    6.9325    8.6444 H   0  0  0  0  0  0  0  0  0  0  0  0
    0.5595    6.7095    6.9934 H   0  0  0  0  0  0  0  0  0  0  0  0
    4.4840    8.5299    6.2797 C   0  0  0  0  0  0  0  0  0  0  0  0
    4.5795    8.6690    4.8930 C   0  0  0  0  0  0  0  0  0  0  0  0
    5.6501    9.3774    4.3698 C   0  0  0  0  0  0  0  0  0  0  0  0
    5.7445    9.4733    3.2973 H   0  0  0  0  0  0  0  0  0  0  0  0
    6.5928    9.9735    5.1950 C   0  0  0  0  0  0  0  0  0  0  0  0
    6.4001    9.9235    6.5677 C   0  0  0  0  0  0  0  0  0  0  0  0
    7.0874   10.4468    7.2170 H   0  0  0  0  0  0  0  0  0  0  0  0
    5.3393    9.2305    7.1347 C   0  0  0  0  0  0  0  0  0  0  0  0
    3.5004    8.1560    3.9850 C   0  0  0  0  0  0  0  0  0  0  0  0
    3.8632    8.0610    2.9643 H   0  0  0  0  0  0  0  0  0  0  0  0
    2.6718    8.8663    3.9875 H   0  0  0  0  0  0  0  0  0  0  0  0
    3.1090    7.1950    4.3116 H   0  0  0  0  0  0  0  0  0  0  0  0
    7.7568   10.7183    4.6145 C   0  0  0  0  0  0  0  0  0  0  0  0
    7.5063   11.7741    4.5064 H   0  0  0  0  0  0  0  0  0  0  0  0
    8.0158   10.3308    3.6316 H   0  0  0  0  0  0  0  0  0  0  0  0
    8.6261   10.6455    5.2647 H   0  0  0  0  0  0  0  0  0  0  0  0
    5.0815    9.2934    8.6039 C   0  0  0  0  0  0  0  0  0  0  0  0
    4.0741    9.6670    8.7844 H   0  0  0  0  0  0  0  0  0  0  0  0
    5.7933    9.9554    9.0891 H   0  0  0  0  0  0  0  0  0  0  0  0
    5.1573    8.3054    9.0574 H   0  0  0  0  0  0  0  0  0  0  0  0
    2.1305    4.4582    7.4617 C   0  0  0  0  0  0  0  0  0  0  0  0
    2.1256    3.8166    8.7024 C   0  0  0  0  0  0  0  0  0  0  0  0
    1.8295    2.4611    8.7414 C   0  0  0  0  0  0  0  0  0  0  0  0
    1.8367    1.9546    9.6957 H   0  0  0  0  0  0  0  0  0  0  0  0
    1.5233    1.7439    7.5953 C   0  0  0  0  0  0  0  0  0  0  0  0
    1.4825    2.4181    6.3838 C   0  0  0  0  0  0  0  0  0  0  0  0
    1.2133    1.8816    5.4850 H   0  0  0  0  0  0  0  0  0  0  0  0
    1.7704    3.7717    6.2989 C   0  0  0  0  0  0  0  0  0  0  0  0
    2.3978    4.5638    9.9672 C   0  0  0  0  0  0  0  0  0  0  0  0
    3.2847    5.1876    9.8653 H   0  0  0  0  0  0  0  0  0  0  0  0
    2.5525    3.8728   10.7910 H   0  0  0  0  0  0  0  0  0  0  0  0
    1.5539    5.2065   10.2196 H   0  0  0  0  0  0  0  0  0  0  0  0
    1.2433    0.2740    7.6604 C   0  0  0  0  0  0  0  0  0  0  0  0
    0.5309   -0.0205    6.8929 H   0  0  0  0  0  0  0  0  0  0  0  0
    0.8500   -0.0039    8.6353 H   0  0  0  0  0  0  0  0  0  0  0  0
    2.1651   -0.2855    7.4967 H   0  0  0  0  0  0  0  0  0  0  0  0
    1.6244    4.4777    4.9819 C   0  0  0  0  0  0  0  0  0  0  0  0
    1.7653    3.7838    4.1567 H   0  0  0  0  0  0  0  0  0  0  0  0
    2.3395    5.2903    4.8802 H   0  0  0  0  0  0  0  0  0  0  0  0
    0.6200    4.8962    4.8968 H   0  0  0  0  0  0  0  0  0  0  0  0
    5.7725    5.4637    4.7956 C   0  0  0  0  0  3  0  0  0  0  0  0
    5.0610    6.0771    4.2540 H   0  0  0  0  0  0  0  0  0  0  0  0
    5.3046    4.2441    5.2848 C   0  0  1  0  0  0  0  0  0  0  0  0
    4.2664    3.9850    5.0862 H   0  0  0  0  0  0  0  0  0  0  0  0
    6.1520    3.0214    5.5516 C   0  0  0  0  0  0  0  0  0  0  0  0
    6.3563    2.5111    4.6033 H   0  0  0  0  0  0  0  0  0  0  0  0
    5.5607    2.3372    6.1671 H   0  0  0  0  0  0  0  0  0  0  0  0
    7.4690    3.3356    6.2811 C   0  0  0  0  0  0  0  0  0  0  0  0
    7.7827    2.4503    6.8382 H   0  0  0  0  0  0  0  0  0  0  0  0
    8.2611    3.5653    5.5675 H   0  0  0  0  0  0  0  0  0  0  0  0
    7.3055    4.4900    7.2408 C   0  0  0  0  0  3  0  0  0  0  0  0
    7.3034    4.2089    8.2930 H   0  0  0  0  0  0  0  0  0  0  0  0
    7.5818    5.8014    6.9267 C   0  0  0  0  0  3  0  0  0  0  0  0
    7.8024    6.4884    7.7461 H   0  0  0  0  0  0  0  0  0  0  0  0
    8.0283    6.3092    5.5763 C   0  0  0  0  0  0  0  0  0  0  0  0
    9.0927    6.0870    5.4415 H   0  0  0  0  0  0  0  0  0  0  0  0
    7.9178    7.3970    5.5742 H   0  0  0  0  0  0  0  0  0  0  0  0
    7.2112    5.7308    4.4073 C   0  0  0  0  0  0  0  0  0  0  0  0
    7.2264    6.4511    3.5867 H   0  0  0  0  0  0  0  0  0  0  0  0
    7.6638    4.8102    4.0360 H   0  0  0  0  0  0  0  0  0  0  0  0
  3  6  1  0  0  0  0
  3  7  1  0  0  0  0
  4 31  1  0  0  0  0
  4  8  1  0  0  0  0
  5  7  2  0  0  0  0
  6  1  1  1  0  0  0
  6  4  1  0  0  0  0
  7  8  1  0  0  0  0
  8  9  1  0  0  0  0
 10  8  1  0  0  0  0
 11  3  1  0  0  0  0
 11 18  1  0  0  0  0
 12 11  2  0  0  0  0
 13 12  1  0  0  0  0
 13 15  2  0  0  0  0
 14 13  1  0  0  0  0
 15 16  1  0  0  0  0
 16 18  2  0  0  0  0
 16 17  1  0  0  0  0
 18 27  1  0  0  0  0
 19 21  1  0  0  0  0
 19 22  1  0  0  0  0
 19 12  1  0  0  0  0
 20 19  1  0  0  0  0
 23 15  1  0  0  0  0
 23 26  1  0  0  0  0
 24 23  1  0  0  0  0
 25 23  1  0  0  0  0
 27 28  1  0  0  0  0
 27 30  1  0  0  0  0
 27 29  1  0  0  0  0
 31 32  1  0  0  0  0
 32 33  2  0  0  0  0
 32 39  1  0  0  0  0
 33 34  1  0  0  0  0
 35 43  1  0  0  0  0
 35 33  1  0  0  0  0
 36 35  2  0  0  0  0
 37 36  1  0  0  0  0
 38 36  1  0  0  0  0
 38 31  2  0  0  0  0
 39 42  1  0  0  0  0
 39 41  1  0  0  0  0
 40 39  1  0  0  0  0
 43 45  1  0  0  0  0
 44 43  1  0  0  0  0
 46 43  1  0  0  0  0
 47 38  1  0  0  0  0
 48 47  1  0  0  0  0
 49 47  1  0  0  0  0
 50 47  1  0  0  0  0
 51 53  1  0  0  0  0
 52 51  1  0  0  0  0
 53 54  1  6  0  0  0
 53 55  1  0  0  0  0
 53  1  1  0  0  0  0
 55 57  1  0  0  0  0
 55 58  1  0  0  0  0
 56 55  1  0  0  0  0
 58 59  1  0  0  0  0
 58 61  1  0  0  0  0
 60 58  1  0  0  0  0
 61 62  1  0  0  0  0
 63 61  1  0  0  0  0
 63 64  1  0  0  0  0
 65 63  1  0  0  0  0
 66 65  1  0  0  0  0
 67 65  1  0  0  0  0
 68 51  1  0  0  0  0
 68 65  1  0  0  0  0
 69 68  1  0  0  0  0
 70 68  1  0  0  0  0
M  END
$$$$
