CSD_code = NUFGOL | q = 0 | S = 0 | Stoichiometry = C20H19Cl2NOPdS | MND = 4
 OpenBabel04212202073D

 45 48  0  0  0  0  0  0  0  0999 V2000
    6.9337    8.0205    1.7233 Pd  0  0  0  0  0  0  0  0  0  0  0  0
    6.6502    5.9216    0.7101 S   0  0  2  0  0  3  0  0  0  0  0  0
    7.1449    9.9884    2.7516 Cl  0  0  0  0  0  0  0  0  0  0  0  0
    4.9781    8.6826    0.9190 Cl  0  0  0  0  0  0  0  0  0  0  0  0
    9.3402    7.8299    3.5195 C   0  0  0  0  0  3  0  0  0  0  0  0
    9.0390    8.8534    3.7160 H   0  0  0  0  0  0  0  0  0  0  0  0
    8.6762    7.2175    2.5343 N   0  0  0  0  0  0  0  0  0  0  0  0
   14.5596    3.0947    6.9170 O   0  0  0  0  0  0  0  0  0  0  0  0
   11.7085    5.1815    4.7354 C   0  0  0  0  0  0  0  0  0  0  0  0
   11.5902    3.8165    5.0107 C   0  0  0  0  0  0  0  0  0  0  0  0
   10.7175    3.2748    4.6785 H   0  0  0  0  0  0  0  0  0  0  0  0
    5.7385    5.2791    2.1514 C   0  0  0  0  0  0  0  0  0  0  0  0
    5.6878    4.1945    2.0894 H   0  0  0  0  0  0  0  0  0  0  0  0
    4.7382    5.7051    2.0838 H   0  0  0  0  0  0  0  0  0  0  0  0
    6.2137    5.5948    3.0834 H   0  0  0  0  0  0  0  0  0  0  0  0
   13.8119    5.1959    5.9300 C   0  0  0  0  0  0  0  0  0  0  0  0
   14.6728    5.7519    6.2654 H   0  0  0  0  0  0  0  0  0  0  0  0
   12.8332    5.8522    5.2090 C   0  0  0  0  0  0  0  0  0  0  0  0
   12.9643    6.9005    4.9862 H   0  0  0  0  0  0  0  0  0  0  0  0
    9.0087    5.9521    2.2342 C   0  0  0  0  0  0  0  0  0  0  0  0
   12.5519    3.1583    5.7390 C   0  0  0  0  0  0  0  0  0  0  0  0
   12.4574    2.1079    5.9645 H   0  0  0  0  0  0  0  0  0  0  0  0
   16.4902    2.7241    8.2819 C   0  0  0  0  0  0  0  0  0  0  0  0
   10.6790    5.8874    3.9752 C   0  0  0  0  0  0  0  0  0  0  0  0
   17.7863    3.0439    8.6681 C   0  0  0  0  0  0  0  0  0  0  0  0
   18.2168    3.9880    8.3650 H   0  0  0  0  0  0  0  0  0  0  0  0
   15.9438    1.5114    8.6738 C   0  0  0  0  0  0  0  0  0  0  0  0
   14.9386    1.2625    8.3730 H   0  0  0  0  0  0  0  0  0  0  0  0
    9.9852    5.2653    2.9354 C   0  0  0  0  0  0  0  0  0  0  0  0
   10.2259    4.2526    2.6511 H   0  0  0  0  0  0  0  0  0  0  0  0
   18.5237    2.1626    9.4369 C   0  0  0  0  0  0  0  0  0  0  0  0
   19.5294    2.4210    9.7334 H   0  0  0  0  0  0  0  0  0  0  0  0
   16.6859    0.6277    9.4389 C   0  0  0  0  0  0  0  0  0  0  0  0
   16.2530   -0.3159    9.7366 H   0  0  0  0  0  0  0  0  0  0  0  0
   10.3351    7.2143    4.2482 C   0  0  0  0  0  0  0  0  0  0  0  0
   10.8202    7.7561    5.0435 H   0  0  0  0  0  0  0  0  0  0  0  0
   15.7005    3.7182    7.4681 C   0  0  0  0  0  0  0  0  0  0  0  0
   15.3957    4.5524    8.1203 H   0  0  0  0  0  0  0  0  0  0  0  0
   16.3361    4.1241    6.6669 H   0  0  0  0  0  0  0  0  0  0  0  0
   17.9748    0.9509    9.8236 C   0  0  0  0  0  0  0  0  0  0  0  0
   18.5517    0.2622   10.4225 H   0  0  0  0  0  0  0  0  0  0  0  0
   13.6798    3.8378    6.2113 C   0  0  0  0  0  0  0  0  0  0  0  0
    8.3295    5.2855    1.0724 C   0  0  0  0  0  0  0  0  0  0  0  0
    8.2668    4.2056    1.2143 H   0  0  0  0  0  0  0  0  0  0  0  0
    8.8954    5.4845    0.1574 H   0  0  0  0  0  0  0  0  0  0  0  0
  1  7  1  0  0  0  0
  1  3  1  0  0  0  0
  2 43  1  0  0  0  0
  2  1  1  0  0  0  0
  2 12  1  1  0  0  0
  4  1  1  0  0  0  0
  5  6  1  0  0  0  0
  5 35  1  0  0  0  0
  7  5  1  0  0  0  0
  8 37  1  0  0  0  0
  9 10  2  0  0  0  0
  9 18  1  0  0  0  0
 10 21  1  0  0  0  0
 11 10  1  0  0  0  0
 12 15  1  0  0  0  0
 13 12  1  0  0  0  0
 14 12  1  0  0  0  0
 16 42  1  0  0  0  0
 16 17  1  0  0  0  0
 18 16  2  0  0  0  0
 19 18  1  0  0  0  0
 20  7  1  0  0  0  0
 20 29  2  0  0  0  0
 21 22  1  0  0  0  0
 21 42  2  0  0  0  0
 23 25  2  0  0  0  0
 23 27  1  0  0  0  0
 24 35  2  0  0  0  0
 24  9  1  0  0  0  0
 25 31  1  0  0  0  0
 26 25  1  0  0  0  0
 27 33  2  0  0  0  0
 28 27  1  0  0  0  0
 29 24  1  0  0  0  0
 30 29  1  0  0  0  0
 31 32  1  0  0  0  0
 31 40  2  0  0  0  0
 33 34  1  0  0  0  0
 33 40  1  0  0  0  0
 35 36  1  0  0  0  0
 37 38  1  0  0  0  0
 37 23  1  0  0  0  0
 39 37  1  0  0  0  0
 40 41  1  0  0  0  0
 42  8  1  0  0  0  0
 43 44  1  0  0  0  0
 43 20  1  0  0  0  0
 45 43  1  0  0  0  0
M  END
$$$$
