CSD_code = NUGJUW | q = 0 | S = 0 | Stoichiometry = C24H39Cl2N3Ti | MND = 8
 OpenBabel04212202073D

 69 72  0  0  1  0  0  0  0  0999 V2000
   14.6636   -0.0646   14.6921 Ti  0  0  0  0  0  0  0  0  0  0  0  0
   14.7734   -1.1913   16.5753 Cl  0  0  0  0  0  0  0  0  0  0  0  0
   13.0250   -1.2447   13.8086 Cl  0  0  0  0  0  0  0  0  0  0  0  0
   13.7684    1.3026   15.3046 N   0  0  0  0  0  2  0  0  0  0  0  0
   11.6849    2.2406   15.8304 N   0  0  1  0  0  0  0  0  0  0  0  0
   13.4469    2.7903   17.0901 N   0  0  1  0  0  0  0  0  0  0  0  0
   16.6250   -0.8863   13.7649 C   0  0  0  0  0  0  0  0  0  0  0  0
   15.8304   -0.3829   12.7101 C   0  0  0  0  0  0  0  0  0  0  0  0
   15.6710    1.0112   12.8854 C   0  0  0  0  0  0  0  0  0  0  0  0
   16.3815    1.3828   14.0475 C   0  0  0  0  0  0  0  0  0  0  0  0
   16.9549    0.2119   14.5988 C   0  0  1  0  0  0  0  0  0  0  0  0
   17.1164   -2.3143   13.8806 C   0  0  0  0  0  0  0  0  0  0  0  0
   18.0668   -2.5944   12.7053 C   0  0  0  0  0  0  0  0  0  0  0  0
   17.8663   -2.5345   15.1985 C   0  0  0  0  0  0  0  0  0  0  0  0
   15.9268   -3.2839   13.8214 C   0  0  0  0  0  0  0  0  0  0  0  0
   13.0216    2.0305   16.0261 C   0  0  2  0  0  3  0  0  0  0  0  0
   11.2276    3.3444   16.6447 C   0  0  0  0  0  0  0  0  0  0  0  0
   12.3091    3.4147   17.7332 C   0  0  0  0  0  0  0  0  0  0  0  0
   11.0658    1.7803   14.6039 C   0  0  0  0  0  0  0  0  0  0  0  0
   11.5250    2.5871   13.3829 C   0  0  0  0  0  0  0  0  0  0  0  0
   10.9645    1.9458   12.1179 C   0  0  0  0  0  0  0  0  0  0  0  0
    9.4406    1.8912   12.1812 C   0  0  0  0  0  0  0  0  0  0  0  0
    8.9816    1.1279   13.4205 C   0  0  0  0  0  0  0  0  0  0  0  0
    9.5441    1.7692   14.6875 C   0  0  0  0  0  0  0  0  0  0  0  0
   14.6694    2.4321   17.7764 C   0  0  0  0  0  0  0  0  0  0  0  0
   15.4388    3.6616   18.2548 C   0  0  0  0  0  0  0  0  0  0  0  0
   16.7969    3.2233   18.7972 C   0  0  0  0  0  0  0  0  0  0  0  0
   16.6226    2.2225   19.9366 C   0  0  0  0  0  0  0  0  0  0  0  0
   15.8040    1.0170   19.4826 C   0  0  0  0  0  0  0  0  0  0  0  0
   14.4491    1.4632   18.9424 C   0  0  0  0  0  0  0  0  0  0  0  0
   15.4785   -0.9398   11.8505 H   0  0  0  0  0  0  0  0  0  0  0  0
   15.2017    1.6885   12.1807 H   0  0  0  0  0  0  0  0  0  0  0  0
   16.5469    2.3962   14.3945 H   0  0  0  0  0  0  0  0  0  0  0  0
   17.6322    0.1942   15.4437 H   0  0  0  0  0  0  0  0  0  0  0  0
   17.5482   -2.4919   11.7549 H   0  0  0  0  0  0  0  0  0  0  0  0
   18.4629   -3.6054   12.7742 H   0  0  0  0  0  0  0  0  0  0  0  0
   18.9000   -1.8942   12.7172 H   0  0  0  0  0  0  0  0  0  0  0  0
   17.2235   -2.3026   16.0471 H   0  0  0  0  0  0  0  0  0  0  0  0
   18.7593   -1.9142   15.2458 H   0  0  0  0  0  0  0  0  0  0  0  0
   18.1745   -3.5752   15.2771 H   0  0  0  0  0  0  0  0  0  0  0  0
   15.3698   -3.1719   12.8922 H   0  0  0  0  0  0  0  0  0  0  0  0
   15.2480   -3.1062   14.6591 H   0  0  0  0  0  0  0  0  0  0  0  0
   16.2793   -4.3123   13.8827 H   0  0  0  0  0  0  0  0  0  0  0  0
   10.2372    3.1438   17.0581 H   0  0  0  0  0  0  0  0  0  0  0  0
   11.1873    4.2778   16.0655 H   0  0  0  0  0  0  0  0  0  0  0  0
   12.5436    4.4421   18.0212 H   0  0  0  0  0  0  0  0  0  0  0  0
   11.9996    2.8573   18.6268 H   0  0  0  0  0  0  0  0  0  0  0  0
   11.4229    0.7472   14.4749 H   0  0  0  0  0  0  0  0  0  0  0  0
   12.6196    2.5848   13.3545 H   0  0  0  0  0  0  0  0  0  0  0  0
   11.1762    3.6200   13.4673 H   0  0  0  0  0  0  0  0  0  0  0  0
   11.2809    2.5123   11.2396 H   0  0  0  0  0  0  0  0  0  0  0  0
   11.3656    0.9330   12.0325 H   0  0  0  0  0  0  0  0  0  0  0  0
    9.0419    2.9085   12.2128 H   0  0  0  0  0  0  0  0  0  0  0  0
    9.0493    1.4072   11.2847 H   0  0  0  0  0  0  0  0  0  0  0  0
    9.3323    0.0962   13.3580 H   0  0  0  0  0  0  0  0  0  0  0  0
    7.8908    1.1132   13.4666 H   0  0  0  0  0  0  0  0  0  0  0  0
    9.1676    2.7913   14.7769 H   0  0  0  0  0  0  0  0  0  0  0  0
    9.2246    1.2049   15.5654 H   0  0  0  0  0  0  0  0  0  0  0  0
   15.2686    1.9081   17.0107 H   0  0  0  0  0  0  0  0  0  0  0  0
   14.8757    4.1652   19.0439 H   0  0  0  0  0  0  0  0  0  0  0  0
   15.5678    4.3614   17.4269 H   0  0  0  0  0  0  0  0  0  0  0  0
   17.3701    2.7581   17.9921 H   0  0  0  0  0  0  0  0  0  0  0  0
   17.3550    4.0938   19.1483 H   0  0  0  0  0  0  0  0  0  0  0  0
   16.1130    2.7117   20.7704 H   0  0  0  0  0  0  0  0  0  0  0  0
   17.6012    1.8940   20.2916 H   0  0  0  0  0  0  0  0  0  0  0  0
   15.6599    0.3295   20.3177 H   0  0  0  0  0  0  0  0  0  0  0  0
   16.3345    0.4773   18.6947 H   0  0  0  0  0  0  0  0  0  0  0  0
   13.8857    0.5966   18.5886 H   0  0  0  0  0  0  0  0  0  0  0  0
   13.8817    1.9545   19.7368 H   0  0  0  0  0  0  0  0  0  0  0  0
  1  4  1  0  0  0  0
  1  2  1  0  0  0  0
  3  1  1  0  0  0  0
  5 19  1  6  0  0  0
  5 16  1  0  0  0  0
  5 17  1  0  0  0  0
  6 18  1  0  0  0  0
  6 25  1  1  0  0  0
  7 12  1  0  0  0  0
  7 11  1  0  0  0  0
  8  9  1  0  0  0  0
  8  7  2  0  0  0  0
  9 10  2  0  0  0  0
 10 33  1  0  0  0  0
 10 11  1  0  0  0  0
 11  1  1  0  0  0  0
 11 34  1  1  0  0  0
 12 14  1  0  0  0  0
 13 37  1  0  0  0  0
 13 36  1  0  0  0  0
 13 12  1  0  0  0  0
 14 39  1  0  0  0  0
 14 40  1  0  0  0  0
 14 38  1  0  0  0  0
 15 12  1  0  0  0  0
 15 43  1  0  0  0  0
 15 42  1  0  0  0  0
 16  4  1  6  0  0  0
 16  6  1  0  0  0  0
 17 44  1  0  0  0  0
 17 18  1  0  0  0  0
 18 46  1  0  0  0  0
 18 47  1  0  0  0  0
 19 24  1  0  0  0  0
 20 50  1  0  0  0  0
 20 19  1  0  0  0  0
 21 22  1  0  0  0  0
 21 20  1  0  0  0  0
 22 53  1  0  0  0  0
 22 23  1  0  0  0  0
 23 56  1  0  0  0  0
 23 24  1  0  0  0  0
 24 57  1  0  0  0  0
 24 58  1  0  0  0  0
 25 26  1  0  0  0  0
 25 30  1  0  0  0  0
 26 27  1  0  0  0  0
 26 60  1  0  0  0  0
 27 63  1  0  0  0  0
 27 28  1  0  0  0  0
 28 65  1  0  0  0  0
 28 64  1  0  0  0  0
 29 28  1  0  0  0  0
 29 66  1  0  0  0  0
 30 29  1  0  0  0  0
 30 69  1  0  0  0  0
 31  8  1  0  0  0  0
 32  9  1  0  0  0  0
 35 13  1  0  0  0  0
 41 15  1  0  0  0  0
 45 17  1  0  0  0  0
 48 19  1  0  0  0  0
 49 20  1  0  0  0  0
 51 21  1  0  0  0  0
 52 21  1  0  0  0  0
 54 22  1  0  0  0  0
 55 23  1  0  0  0  0
 59 25  1  0  0  0  0
 61 26  1  0  0  0  0
 62 27  1  0  0  0  0
 67 29  1  0  0  0  0
 68 30  1  0  0  0  0
M  END
$$$$
