CSD_code = NUHBOH | q = 0 | S = 0 | Stoichiometry = C18H33IN2O3PtSSi | MND = 5
 OpenBabel04212202073D

 60 62  0  0  0  0  0  0  0  0999 V2000
   11.7387   14.8401   11.8309 Pt  0  0  0  0  0  0  0  0  0  0  0  0
   13.1762   14.5459   14.0249 I   0  0  0  0  0  0  0  0  0  0  0  0
   13.8271   15.5893   10.6949 S   0  0  0  0  0  3  0  0  0  0  0  0
    7.4654   14.4630    5.8905 Si  0  0  0  0  0  0  0  0  0  0  0  0
    7.8169   15.3094    7.2542 O   0  0  0  0  0  0  0  0  0  0  0  0
   10.9150   16.7946   12.2265 N   0  0  0  0  0  4  0  0  0  0  0  0
   10.3727   13.9161    9.4536 C   0  0  0  0  0  0  0  0  0  0  0  0
   13.3532   16.8972   10.2826 O   0  0  0  0  0  1  0  0  0  0  0  0
   10.3506   17.3294   10.9598 C   0  0  0  0  0  0  0  0  0  0  0  0
    9.5640   18.0618   11.1788 H   0  0  0  0  0  0  0  0  0  0  0  0
   11.1624   17.8392   10.4293 H   0  0  0  0  0  0  0  0  0  0  0  0
    9.8196   16.5073   13.1615 C   0  0  0  0  0  0  0  0  0  0  0  0
    9.0971   15.8325   12.6975 H   0  0  0  0  0  0  0  0  0  0  0  0
    9.3022   17.4334   13.4393 H   0  0  0  0  0  0  0  0  0  0  0  0
   10.2104   16.0478   14.0715 H   0  0  0  0  0  0  0  0  0  0  0  0
    6.7818   12.7248    6.2995 C   0  0  0  0  0  0  0  0  0  0  0  0
    6.2076   12.7388    7.2218 H   0  0  0  0  0  0  0  0  0  0  0  0
    7.5757   11.9929    6.4195 H   0  0  0  0  0  0  0  0  0  0  0  0
    6.1301   12.3583    5.5133 H   0  0  0  0  0  0  0  0  0  0  0  0
    9.4528   13.9982    8.4201 C   0  0  0  0  0  0  0  0  0  0  0  0
    9.2855   13.1700    7.7509 H   0  0  0  0  0  0  0  0  0  0  0  0
   13.8428   14.5799    9.6525 O   0  0  0  0  0  1  0  0  0  0  0  0
   11.3187   12.7786    9.7199 C   0  0  0  0  0  0  0  0  0  0  0  0
   12.2052   12.9442    9.0978 H   0  0  0  0  0  0  0  0  0  0  0  0
   10.8961   11.7974    9.4699 H   0  0  0  0  0  0  0  0  0  0  0  0
    8.9644   16.2894    9.0468 C   0  0  0  0  0  0  0  0  0  0  0  0
    8.4247   17.2019    8.8448 H   0  0  0  0  0  0  0  0  0  0  0  0
    8.7398   15.1786    8.2321 C   0  0  0  0  0  0  0  0  0  0  0  0
    9.8847   16.2050   10.0780 C   0  0  0  0  0  0  0  0  0  0  0  0
    9.0027   14.2929    4.7747 C   0  0  0  0  0  0  0  0  0  0  0  0
    9.4041   15.2665    4.5095 H   0  0  0  0  0  0  0  0  0  0  0  0
    8.7773   13.7662    3.8534 H   0  0  0  0  0  0  0  0  0  0  0  0
    9.7964   13.7472    5.2769 H   0  0  0  0  0  0  0  0  0  0  0  0
   11.8081   17.7895   12.8203 C   0  0  0  0  0  0  0  0  0  0  0  0
   12.6520   17.9618   12.1525 H   0  0  0  0  0  0  0  0  0  0  0  0
   12.1783   17.4361   13.7817 H   0  0  0  0  0  0  0  0  0  0  0  0
   11.2797   18.7357   12.9784 H   0  0  0  0  0  0  0  0  0  0  0  0
   13.0208   12.0592   11.2631 C   0  0  0  0  0  0  0  0  0  0  0  0
   13.7952   12.5670   10.6885 H   0  0  0  0  0  0  0  0  0  0  0  0
   12.9086   11.0373   10.8850 H   0  0  0  0  0  0  0  0  0  0  0  0
   13.3246   12.0092   12.3078 H   0  0  0  0  0  0  0  0  0  0  0  0
   10.7403   12.1529   11.9736 C   0  0  0  0  0  0  0  0  0  0  0  0
    9.7732   12.6369   11.8217 H   0  0  0  0  0  0  0  0  0  0  0  0
   11.0168   12.2210   13.0276 H   0  0  0  0  0  0  0  0  0  0  0  0
   10.6439   11.0924   11.7116 H   0  0  0  0  0  0  0  0  0  0  0  0
   10.5540   15.0108   10.2787 C   0  0  0  0  0  0  0  0  0  0  0  0
    6.1122   15.5749    5.1071 C   0  0  0  0  0  0  0  0  0  0  0  0
    5.7028   15.0143    3.7460 C   0  0  0  0  0  0  0  0  0  0  0  0
    5.3113   14.0045    3.8423 H   0  0  0  0  0  0  0  0  0  0  0  0
    6.5519   14.9870    3.0676 H   0  0  0  0  0  0  0  0  0  0  0  0
    4.9287   15.6353    3.2959 H   0  0  0  0  0  0  0  0  0  0  0  0
   11.7628   12.7952   11.1378 N   0  0  0  0  0  4  0  0  0  0  0  0
    4.8768   15.6267    6.0087 C   0  0  0  0  0  0  0  0  0  0  0  0
    4.4445   14.6362    6.1300 H   0  0  0  0  0  0  0  0  0  0  0  0
    4.1176   16.2788    5.5773 H   0  0  0  0  0  0  0  0  0  0  0  0
    5.1392   16.0099    6.9916 H   0  0  0  0  0  0  0  0  0  0  0  0
    6.6320   17.0005    4.9109 C   0  0  0  0  0  0  0  0  0  0  0  0
    6.9486   17.4244    5.8602 H   0  0  0  0  0  0  0  0  0  0  0  0
    5.8511   17.6361    4.4938 H   0  0  0  0  0  0  0  0  0  0  0  0
    7.4795   17.0136    4.2296 H   0  0  0  0  0  0  0  0  0  0  0  0
  1  6  1  0  0  0  0
  1  2  1  0  0  0  0
  3  1  1  0  0  0  0
  4 16  1  0  0  0  0
  4  5  1  0  0  0  0
  5 28  1  0  0  0  0
  6 34  1  0  0  0  0
  6 12  1  0  0  0  0
  7 23  1  0  0  0  0
  7 46  1  0  0  0  0
  8  3  1  0  0  0  0
  9 10  1  0  0  0  0
  9  6  1  0  0  0  0
 11  9  1  0  0  0  0
 12 14  1  0  0  0  0
 12 15  1  0  0  0  0
 13 12  1  0  0  0  0
 16 18  1  0  0  0  0
 16 17  1  0  0  0  0
 19 16  1  0  0  0  0
 20  7  2  0  0  0  0
 21 20  1  0  0  0  0
 22  3  1  0  0  0  0
 23 52  1  0  0  0  0
 24 23  1  0  0  0  0
 25 23  1  0  0  0  0
 26 29  1  0  0  0  0
 27 26  1  0  0  0  0
 28 20  1  0  0  0  0
 28 26  2  0  0  0  0
 29 46  2  0  0  0  0
 29  9  1  0  0  0  0
 30 33  1  0  0  0  0
 30  4  1  0  0  0  0
 31 30  1  0  0  0  0
 32 30  1  0  0  0  0
 34 37  1  0  0  0  0
 34 36  1  0  0  0  0
 35 34  1  0  0  0  0
 38 41  1  0  0  0  0
 39 38  1  0  0  0  0
 40 38  1  0  0  0  0
 42 44  1  0  0  0  0
 43 42  1  0  0  0  0
 45 42  1  0  0  0  0
 46  1  1  0  0  0  0
 47  4  1  0  0  0  0
 47 53  1  0  0  0  0
 48 49  1  0  0  0  0
 48 47  1  0  0  0  0
 50 48  1  0  0  0  0
 51 48  1  0  0  0  0
 52 38  1  0  0  0  0
 52  1  1  0  0  0  0
 52 42  1  0  0  0  0
 53 54  1  0  0  0  0
 53 56  1  0  0  0  0
 55 53  1  0  0  0  0
 57 47  1  0  0  0  0
 57 58  1  0  0  0  0
 59 57  1  0  0  0  0
 60 57  1  0  0  0  0
M  END
$$$$
