CSD_code = NUHCAU | q = 0 | S = 0 | Stoichiometry = C12H27Cl2N3STi | MND = 6
 OpenBabel04212202073D

 46 48  0  0  1  0  0  0  0  0999 V2000
    0.4074    4.3079   10.9507 Ti  0  0  0  0  0  0  0  0  0  0  0  0
    1.9347    4.5729   10.3182 N   0  0  0  0  0  2  0  0  0  0  0  0
    1.1438    2.5650   12.1612 N   0  0  2  0  0  4  0  0  0  0  0  0
   -1.5607    3.2456   11.7316 N   0  0  1  0  0  4  0  0  0  0  0  0
    0.1036    2.3237    9.1786 S   0  0  2  0  0  3  0  0  0  0  0  0
   -2.0993    2.1194   10.9678 C   0  0  0  0  0  0  0  0  0  0  0  0
   -1.6921    2.1607    9.4979 C   0  0  0  0  0  0  0  0  0  0  0  0
    0.8661    1.0039   10.2025 C   0  0  0  0  0  0  0  0  0  0  0  0
    1.7835    1.5900   11.2742 C   0  0  0  0  0  0  0  0  0  0  0  0
    0.1187    1.9570   13.0184 C   0  0  0  0  0  0  0  0  0  0  0  0
   -1.1224    2.8529   13.0714 C   0  0  0  0  0  0  0  0  0  0  0  0
    2.8298    5.2759    9.4943 C   0  0  0  0  0  0  0  0  0  0  0  0
    2.5866    6.7886    9.6901 C   0  0  0  0  0  0  0  0  0  0  0  0
    4.2932    4.9406    9.8556 C   0  0  0  0  0  0  0  0  0  0  0  0
    2.5617    4.8960    8.0212 C   0  0  0  0  0  0  0  0  0  0  0  0
    2.1765    3.1885   12.9957 C   0  0  0  0  0  0  0  0  0  0  0  0
   -2.5672    4.3017   11.8442 C   0  0  0  0  0  0  0  0  0  0  0  0
    0.3248    5.8106   12.6354 Cl  0  0  0  0  0  0  0  0  0  0  0  0
   -0.8637    5.4093    9.4600 Cl  0  0  0  0  0  0  0  0  0  0  0  0
   -3.2002    2.1137   11.0059 H   0  0  0  0  0  0  0  0  0  0  0  0
   -1.7717    1.1716   11.4057 H   0  0  0  0  0  0  0  0  0  0  0  0
   -2.0883    3.0552    9.0101 H   0  0  0  0  0  0  0  0  0  0  0  0
   -2.0520    1.2701    8.9793 H   0  0  0  0  0  0  0  0  0  0  0  0
    0.0707    0.3781   10.6033 H   0  0  0  0  0  0  0  0  0  0  0  0
    1.4659    0.3948    9.5244 H   0  0  0  0  0  0  0  0  0  0  0  0
    2.2200    0.7602   11.8596 H   0  0  0  0  0  0  0  0  0  0  0  0
    2.5887    2.1252   10.7578 H   0  0  0  0  0  0  0  0  0  0  0  0
    0.4966    1.8177   14.0402 H   0  0  0  0  0  0  0  0  0  0  0  0
   -0.1403    0.9613   12.6448 H   0  0  0  0  0  0  0  0  0  0  0  0
   -0.8653    3.7731   13.6081 H   0  0  0  0  0  0  0  0  0  0  0  0
   -1.9265    2.3371   13.6258 H   0  0  0  0  0  0  0  0  0  0  0  0
    3.2552    7.3766    9.0652 H   0  0  0  0  0  0  0  0  0  0  0  0
    2.7451    7.0477   10.7376 H   0  0  0  0  0  0  0  0  0  0  0  0
    1.5515    7.0170    9.4320 H   0  0  0  0  0  0  0  0  0  0  0  0
    4.9766    5.4874    9.2109 H   0  0  0  0  0  0  0  0  0  0  0  0
    4.4895    5.2153   10.8908 H   0  0  0  0  0  0  0  0  0  0  0  0
    4.4738    3.8731    9.7338 H   0  0  0  0  0  0  0  0  0  0  0  0
    3.1863    5.4836    7.3527 H   0  0  0  0  0  0  0  0  0  0  0  0
    1.5116    5.0804    7.7947 H   0  0  0  0  0  0  0  0  0  0  0  0
    2.7659    3.8365    7.8684 H   0  0  0  0  0  0  0  0  0  0  0  0
    1.7124    3.9002   13.6797 H   0  0  0  0  0  0  0  0  0  0  0  0
    2.7281    2.4283   13.5691 H   0  0  0  0  0  0  0  0  0  0  0  0
    2.8615    3.7451   12.3522 H   0  0  0  0  0  0  0  0  0  0  0  0
   -2.1264    5.1808   12.3177 H   0  0  0  0  0  0  0  0  0  0  0  0
   -3.4275    3.9655   12.4429 H   0  0  0  0  0  0  0  0  0  0  0  0
   -2.9115    4.5906   10.8518 H   0  0  0  0  0  0  0  0  0  0  0  0
  1  4  1  0  0  0  0
  1  3  1  0  0  0  0
  1 18  1  0  0  0  0
  2  1  1  0  0  0  0
  3 16  1  1  0  0  0
  3 10  1  0  0  0  0
  4 17  1  1  0  0  0
  4 11  1  0  0  0  0
  5  7  1  1  0  0  0
  5  8  1  0  0  0  0
  5  1  1  0  0  0  0
  6 20  1  0  0  0  0
  6 21  1  0  0  0  0
  6  4  1  0  0  0  0
  7  6  1  0  0  0  0
  8 24  1  0  0  0  0
  8  9  1  0  0  0  0
  9 26  1  0  0  0  0
  9  3  1  0  0  0  0
 10 11  1  0  0  0  0
 10 28  1  0  0  0  0
 11 30  1  0  0  0  0
 11 31  1  0  0  0  0
 12 13  1  0  0  0  0
 12 14  1  0  0  0  0
 12  2  1  0  0  0  0
 13 33  1  0  0  0  0
 14 36  1  0  0  0  0
 15 12  1  0  0  0  0
 16 42  1  0  0  0  0
 16 41  1  0  0  0  0
 17 44  1  0  0  0  0
 17 45  1  0  0  0  0
 19  1  1  0  0  0  0
 22  7  1  0  0  0  0
 23  7  1  0  0  0  0
 25  8  1  0  0  0  0
 27  9  1  0  0  0  0
 29 10  1  0  0  0  0
 32 13  1  0  0  0  0
 34 13  1  0  0  0  0
 35 14  1  0  0  0  0
 37 14  1  0  0  0  0
 38 15  1  0  0  0  0
 39 15  1  0  0  0  0
 40 15  1  0  0  0  0
 43 16  1  0  0  0  0
 46 17  1  0  0  0  0
M  END
$$$$
