CSD_code = NUHCIC | q = 0 | S = 0 | Stoichiometry = C10H21Cl2NS3Ti | MND = 6
 OpenBabel04212202073D

 38 40  0  0  0  0  0  0  0  0999 V2000
   -3.0400    3.5779   11.2799 Ti  0  0  0  0  0  0  0  0  0  0  0  0
   -1.8554    4.6450   10.7592 N   0  0  0  0  0  2  0  0  0  0  0  0
   -3.1066    5.1884   13.4691 S   0  0  1  0  0  3  0  0  0  0  0  0
   -1.1807    2.4063   12.8502 S   0  0  1  0  0  3  0  0  0  0  0  0
   -4.5261    2.1564   13.1200 S   0  0  2  0  0  3  0  0  0  0  0  0
   -5.1588    3.4639   14.2261 C   0  0  0  0  0  0  0  0  0  0  0  0
   -4.1198    4.4124   14.8029 C   0  0  0  0  0  0  0  0  0  0  0  0
   -1.3911    4.9207   14.0533 C   0  0  0  0  0  0  0  0  0  0  0  0
   -0.9678    3.4874   14.3273 C   0  0  0  0  0  0  0  0  0  0  0  0
   -2.0558    0.9501   13.5422 C   0  0  0  0  0  0  0  0  0  0  0  0
   -3.3905    1.2146   14.2190 C   0  0  0  0  0  0  0  0  0  0  0  0
   -1.1628    5.1194    9.6292 C   0  0  0  0  0  0  0  0  0  0  0  0
   -2.1593    5.1431    8.4471 C   0  0  0  0  0  0  0  0  0  0  0  0
   -0.0078    4.1461    9.3086 C   0  0  0  0  0  0  0  0  0  0  0  0
   -0.6105    6.5366    9.8741 C   0  0  0  0  0  0  0  0  0  0  0  0
   -2.9096    1.6933   10.1344 Cl  0  0  0  0  0  0  0  0  0  0  0  0
   -5.0250    4.4080   10.7499 Cl  0  0  0  0  0  0  0  0  0  0  0  0
   -5.7284    2.9877   15.0269 H   0  0  0  0  0  0  0  0  0  0  0  0
   -5.8408    4.0140   13.5726 H   0  0  0  0  0  0  0  0  0  0  0  0
   -4.6323    5.2220   15.3247 H   0  0  0  0  0  0  0  0  0  0  0  0
   -3.4481    3.9196   15.5037 H   0  0  0  0  0  0  0  0  0  0  0  0
   -1.2402    5.5342   14.9444 H   0  0  0  0  0  0  0  0  0  0  0  0
   -0.8104    5.3252   13.2196 H   0  0  0  0  0  0  0  0  0  0  0  0
   -1.5150    3.0438   15.1575 H   0  0  0  0  0  0  0  0  0  0  0  0
    0.0958    3.4800   14.5733 H   0  0  0  0  0  0  0  0  0  0  0  0
   -1.3731    0.4439   14.2275 H   0  0  0  0  0  0  0  0  0  0  0  0
   -2.2016    0.3313   12.6529 H   0  0  0  0  0  0  0  0  0  0  0  0
   -3.2802    1.7676   15.1506 H   0  0  0  0  0  0  0  0  0  0  0  0
   -3.8670    0.2575   14.4396 H   0  0  0  0  0  0  0  0  0  0  0  0
   -1.6738    5.4714    7.5307 H   0  0  0  0  0  0  0  0  0  0  0  0
   -2.9830    5.8181    8.6861 H   0  0  0  0  0  0  0  0  0  0  0  0
   -2.5644    4.1351    8.3087 H   0  0  0  0  0  0  0  0  0  0  0  0
    0.4919    4.4304    8.3860 H   0  0  0  0  0  0  0  0  0  0  0  0
    0.7144    4.1477   10.1239 H   0  0  0  0  0  0  0  0  0  0  0  0
   -0.4162    3.1389    9.2097 H   0  0  0  0  0  0  0  0  0  0  0  0
   -0.1312    6.9199    8.9772 H   0  0  0  0  0  0  0  0  0  0  0  0
    0.1177    6.5175   10.6834 H   0  0  0  0  0  0  0  0  0  0  0  0
   -1.4279    7.1977   10.1562 H   0  0  0  0  0  0  0  0  0  0  0  0
  1  4  1  0  0  0  0
  1  5  1  0  0  0  0
  1  3  1  0  0  0  0
  2  1  1  0  0  0  0
  3  8  1  1  0  0  0
  3  7  1  0  0  0  0
  4 10  1  1  0  0  0
  4  9  1  0  0  0  0
  5 11  1  1  0  0  0
  5  6  1  0  0  0  0
  6  7  1  0  0  0  0
  6 18  1  0  0  0  0
  7 20  1  0  0  0  0
  7 21  1  0  0  0  0
  8  9  1  0  0  0  0
  8 22  1  0  0  0  0
  9 25  1  0  0  0  0
  9 24  1  0  0  0  0
 10 11  1  0  0  0  0
 10 26  1  0  0  0  0
 11 29  1  0  0  0  0
 11 28  1  0  0  0  0
 12 15  1  0  0  0  0
 12  2  1  0  0  0  0
 13 31  1  0  0  0  0
 13 12  1  0  0  0  0
 14 12  1  0  0  0  0
 14 34  1  0  0  0  0
 15 38  1  0  0  0  0
 15 37  1  0  0  0  0
 16  1  1  0  0  0  0
 17  1  1  0  0  0  0
 19  6  1  0  0  0  0
 23  8  1  0  0  0  0
 27 10  1  0  0  0  0
 30 13  1  0  0  0  0
 32 13  1  0  0  0  0
 33 14  1  0  0  0  0
 35 14  1  0  0  0  0
 36 15  1  0  0  0  0
M  END
$$$$
