CSD_code = NULMUD | q = 0 | S = 0 | Stoichiometry = C15H12Cl2N2OPd | MND = 5
 OpenBabel04212202073D

 33 35  0  0  0  0  0  0  0  0999 V2000
    0.7600    1.3262    1.6051 C   0  0  0  0  0  2  0  0  0  0  0  0
    0.1579    0.5396    2.1648 O   0  0  0  0  0  1  0  0  0  0  0  0
    0.1367    4.9249    1.0405 H   0  0  0  0  0  0  0  0  0  0  0  0
    0.7400    6.4708    1.6865 H   0  0  0  0  0  0  0  0  0  0  0  0
    1.4092    4.9381    2.2965 H   0  0  0  0  0  0  0  0  0  0  0  0
    2.5867   -0.1212    0.1181 H   0  0  0  0  0  0  0  0  0  0  0  0
    3.9217   -1.1896   -0.4015 H   0  0  0  0  0  0  0  0  0  0  0  0
    2.5105   -0.9748   -1.4399 H   0  0  0  0  0  0  0  0  0  0  0  0
    2.0782    5.4766    0.3421 C   0  0  0  0  0  0  0  0  0  0  0  0
    2.5723    6.6883   -0.1674 C   0  0  0  0  0  0  0  0  0  0  0  0
    2.1866    7.6188    0.2189 H   0  0  0  0  0  0  0  0  0  0  0  0
    3.5322    6.6779   -1.1452 C   0  0  0  0  0  0  0  0  0  0  0  0
    3.9242    7.5987   -1.5516 H   0  0  0  0  0  0  0  0  0  0  0  0
    5.0040    5.3569   -2.6421 C   0  0  0  0  0  3  0  0  0  0  0  0
    5.3959    6.2767   -3.0503 H   0  0  0  0  0  0  0  0  0  0  0  0
    5.4442    4.1552   -3.0865 C   0  0  0  0  0  0  0  0  0  0  0  0
    6.1967    4.0906   -3.8587 H   0  0  0  0  0  0  0  0  0  0  0  0
    5.3442    1.6711   -2.9689 C   0  0  0  0  0  0  0  0  0  0  0  0
    6.0967    1.5896   -3.7403 H   0  0  0  0  0  0  0  0  0  0  0  0
    4.7940    0.5540   -2.3972 C   0  0  0  0  0  0  0  0  0  0  0  0
    5.0972   -0.4353   -2.7035 H   0  0  0  0  0  0  0  0  0  0  0  0
    3.8182    0.7021   -1.3936 C   0  0  0  0  0  0  0  0  0  0  0  0
    3.4691    4.2715   -1.0635 C   0  0  0  0  0  0  0  0  0  0  0  0
    4.0116    5.4484   -1.6261 C   0  0  0  0  0  0  0  0  0  0  0  0
    3.9408    2.9973   -1.5365 C   0  0  0  0  0  0  0  0  0  0  0  0
    4.9253    2.9466   -2.5468 C   0  0  0  0  0  0  0  0  0  0  0  0
    1.0268    5.4599    1.4065 C   0  0  0  0  0  0  0  0  0  0  0  0
    3.1752   -0.4733   -0.7374 C   0  0  0  0  0  0  0  0  0  0  0  0
    2.5258    4.3116   -0.1038 N   0  0  0  0  0  0  0  0  0  0  0  0
    3.4202    1.8889   -0.9908 N   0  0  0  0  0  0  0  0  0  0  0  0
    1.6735    2.6358    0.7335 Pd  0  0  0  0  0  0  0  0  0  0  0  0
    0.0703    2.7712   -0.9130 Cl  0  0  0  0  0  0  0  0  0  0  0  0
    3.2722    2.7672    2.3824 Cl  0  0  0  0  0  0  0  0  0  0  0  0
  1  2  1  0  0  0  0
  3 27  1  0  0  0  0
  8 28  1  0  0  0  0
  9 27  1  0  0  0  0
 10 11  1  0  0  0  0
 10  9  2  0  0  0  0
 12 10  1  0  0  0  0
 13 12  1  0  0  0  0
 14 24  1  0  0  0  0
 15 14  1  0  0  0  0
 16 14  1  0  0  0  0
 16 26  2  0  0  0  0
 17 16  1  0  0  0  0
 18 26  1  0  0  0  0
 18 20  2  0  0  0  0
 19 18  1  0  0  0  0
 20 22  1  0  0  0  0
 21 20  1  0  0  0  0
 22 30  2  0  0  0  0
 22 28  1  0  0  0  0
 23 29  1  0  0  0  0
 24 12  2  0  0  0  0
 24 23  1  0  0  0  0
 25 23  2  0  0  0  0
 25 30  1  0  0  0  0
 26 25  1  0  0  0  0
 27  4  1  0  0  0  0
 27  5  1  0  0  0  0
 28  7  1  0  0  0  0
 28  6  1  0  0  0  0
 29  9  1  0  0  0  0
 29 31  1  0  0  0  0
 31  1  1  0  0  0  0
 31 33  1  0  0  0  0
 32 31  1  0  0  0  0
M  END
$$$$
