CSD_code = NULMUC | q = 0 | S = 0 | Stoichiometry = C18H33Cl3N3Ta | MND = 6
 OpenBabel04212202073D

 58 59  0  0  0  0  0  0  0  0999 V2000
    3.5230   13.9785    0.6367 Ta  0  0  0  0  0  0  0  0  0  0  0  0
    1.3054   14.2156   -0.0198 Cl  0  0  0  0  0  0  0  0  0  0  0  0
    5.3153   14.6885    1.9246 Cl  0  0  0  0  0  0  0  0  0  0  0  0
    3.1246   12.1203    1.9001 Cl  0  0  0  0  0  0  0  0  0  0  0  0
    4.3077   13.4382   -0.8915 N   0  0  0  0  0  2  0  0  0  0  0  0
    3.5815   16.5687    0.0025 N   0  0  0  0  0  4  0  0  0  0  0  0
    2.3320   15.5516    2.7038 N   0  0  0  0  0  4  0  0  0  0  0  0
    4.8921   12.8847   -1.9649 C   0  0  0  0  0  0  0  0  0  0  0  0
    6.3022   12.9285   -2.1097 C   0  0  0  0  0  0  0  0  0  0  0  0
    6.8848   12.3690   -3.2311 C   0  0  0  0  0  0  0  0  0  0  0  0
    7.9567   12.3949   -3.3493 H   0  0  0  0  0  0  0  0  0  0  0  0
    6.1128   11.7698   -4.2120 C   0  0  0  0  0  0  0  0  0  0  0  0
    6.5842   11.3467   -5.0869 H   0  0  0  0  0  0  0  0  0  0  0  0
    4.7388   11.6992   -4.0637 C   0  0  0  0  0  0  0  0  0  0  0  0
    4.1526   11.2135   -4.8280 H   0  0  0  0  0  0  0  0  0  0  0  0
    4.1114   12.2339   -2.9531 C   0  0  0  0  0  0  0  0  0  0  0  0
    7.1124   13.5253   -0.9858 C   0  0  0  0  0  0  0  0  0  0  0  0
    6.5234   14.3390   -0.5498 H   0  0  0  0  0  0  0  0  0  0  0  0
    8.4637   14.0869   -1.4220 C   0  0  0  0  0  0  0  0  0  0  0  0
    8.3469   14.7587   -2.2694 H   0  0  0  0  0  0  0  0  0  0  0  0
    9.1511   13.2908   -1.6972 H   0  0  0  0  0  0  0  0  0  0  0  0
    8.9087   14.6426   -0.5997 H   0  0  0  0  0  0  0  0  0  0  0  0
    7.2982   12.4556    0.0973 C   0  0  0  0  0  0  0  0  0  0  0  0
    7.8370   12.8702    0.9460 H   0  0  0  0  0  0  0  0  0  0  0  0
    7.8583   11.6104   -0.2976 H   0  0  0  0  0  0  0  0  0  0  0  0
    6.3259   12.1027    0.4410 H   0  0  0  0  0  0  0  0  0  0  0  0
    2.6156   12.1717   -2.7670 C   0  0  0  0  0  0  0  0  0  0  0  0
    2.4233   12.1460   -1.6866 H   0  0  0  0  0  0  0  0  0  0  0  0
    1.9888   13.4510   -3.3301 C   0  0  0  0  0  0  0  0  0  0  0  0
    0.9155   13.4552   -3.1575 H   0  0  0  0  0  0  0  0  0  0  0  0
    2.1756   13.5242   -4.3999 H   0  0  0  0  0  0  0  0  0  0  0  0
    2.4211   14.3173   -2.8347 H   0  0  0  0  0  0  0  0  0  0  0  0
    1.9709   10.9383   -3.3962 C   0  0  0  0  0  0  0  0  0  0  0  0
    1.9744   11.0001   -4.4820 H   0  0  0  0  0  0  0  0  0  0  0  0
    0.9362   10.8621   -3.0695 H   0  0  0  0  0  0  0  0  0  0  0  0
    2.4955   10.0353   -3.0935 H   0  0  0  0  0  0  0  0  0  0  0  0
    4.9277   16.8950   -0.4731 C   0  0  0  0  0  0  0  0  0  0  0  0
    5.6596   16.6205    0.2839 H   0  0  0  0  0  0  0  0  0  0  0  0
    5.0208   17.9646   -0.6969 H   0  0  0  0  0  0  0  0  0  0  0  0
    5.1319   16.3194   -1.3742 H   0  0  0  0  0  0  0  0  0  0  0  0
    3.3051   17.3271    1.2314 C   0  0  0  0  0  0  0  0  0  0  0  0
    4.1925   17.2562    1.8628 H   0  0  0  0  0  0  0  0  0  0  0  0
    3.1452   18.3875    0.9843 H   0  0  0  0  0  0  0  0  0  0  0  0
    2.0899   16.8252    2.0186 C   0  0  0  0  0  0  0  0  0  0  0  0
    1.2510   16.6810    1.3351 H   0  0  0  0  0  0  0  0  0  0  0  0
    1.8051   17.6046    2.7447 H   0  0  0  0  0  0  0  0  0  0  0  0
    1.0624   14.9506    3.1083 C   0  0  0  0  0  0  0  0  0  0  0  0
    1.2599   13.9878    3.5783 H   0  0  0  0  0  0  0  0  0  0  0  0
    0.4320   14.7853    2.2374 H   0  0  0  0  0  0  0  0  0  0  0  0
    0.5225   15.5868    3.8231 H   0  0  0  0  0  0  0  0  0  0  0  0
    2.6321   16.9213   -1.0512 C   0  0  0  0  0  0  0  0  0  0  0  0
    2.6594   17.9974   -1.2637 H   0  0  0  0  0  0  0  0  0  0  0  0
    1.6226   16.6348   -0.7695 H   0  0  0  0  0  0  0  0  0  0  0  0
    2.8923   16.3739   -1.9551 H   0  0  0  0  0  0  0  0  0  0  0  0
    3.1316   15.7507    3.9089 C   0  0  0  0  0  0  0  0  0  0  0  0
    4.0897   16.2036    3.6691 H   0  0  0  0  0  0  0  0  0  0  0  0
    3.3261   14.7835    4.3702 H   0  0  0  0  0  0  0  0  0  0  0  0
    2.6084   16.3891    4.6351 H   0  0  0  0  0  0  0  0  0  0  0  0
  1  4  1  0  0  0  0
  1  3  1  0  0  0  0
  1  7  1  0  0  0  0
  2  1  1  0  0  0  0
  5  1  1  0  0  0  0
  6  1  1  0  0  0  0
  6 41  1  0  0  0  0
  7 47  1  0  0  0  0
  7 55  1  0  0  0  0
  8  5  1  0  0  0  0
  9  8  1  0  0  0  0
  9 17  1  0  0  0  0
 10  9  2  0  0  0  0
 11 10  1  0  0  0  0
 12 14  2  0  0  0  0
 12 10  1  0  0  0  0
 13 12  1  0  0  0  0
 14 16  1  0  0  0  0
 15 14  1  0  0  0  0
 16 27  1  0  0  0  0
 16  8  2  0  0  0  0
 17 18  1  0  0  0  0
 17 23  1  0  0  0  0
 19 17  1  0  0  0  0
 19 22  1  0  0  0  0
 20 19  1  0  0  0  0
 21 19  1  0  0  0  0
 23 26  1  0  0  0  0
 23 24  1  0  0  0  0
 25 23  1  0  0  0  0
 27 28  1  0  0  0  0
 29 30  1  0  0  0  0
 29 32  1  0  0  0  0
 29 27  1  0  0  0  0
 31 29  1  0  0  0  0
 33 36  1  0  0  0  0
 33 35  1  0  0  0  0
 33 27  1  0  0  0  0
 34 33  1  0  0  0  0
 37  6  1  0  0  0  0
 37 38  1  0  0  0  0
 39 37  1  0  0  0  0
 40 37  1  0  0  0  0
 41 42  1  0  0  0  0
 41 44  1  0  0  0  0
 43 41  1  0  0  0  0
 44  7  1  0  0  0  0
 44 46  1  0  0  0  0
 45 44  1  0  0  0  0
 47 48  1  0  0  0  0
 47 50  1  0  0  0  0
 49 47  1  0  0  0  0
 51 53  1  0  0  0  0
 51  6  1  0  0  0  0
 52 51  1  0  0  0  0
 54 51  1  0  0  0  0
 55 57  1  0  0  0  0
 55 58  1  0  0  0  0
 56 55  1  0  0  0  0
M  END
$$$$
