CSD_code = NULNAJ | q = 0 | S = 0 | Stoichiometry = C18H33Br3N3Ta | MND = 6
 OpenBabel04212202073D

 58 59  0  0  0  0  0  0  0  0999 V2000
    1.0831    1.3202    4.3566 Ta  0  0  0  0  0  0  0  0  0  0  0  0
   -1.3603    0.5374    4.4782 Br  0  0  0  0  0  0  0  0  0  0  0  0
    3.6226    1.2325    4.0754 Br  0  0  0  0  0  0  0  0  0  0  0  0
    0.7125    2.8469    2.4178 Br  0  0  0  0  0  0  0  0  0  0  0  0
    1.0114    2.3436    5.8343 N   0  0  0  0  0  2  0  0  0  0  0  0
    1.4896   -1.2216    5.4889 N   0  0  0  0  0  4  0  0  0  0  0  0
    1.2284   -0.7542    2.4095 N   0  0  0  0  0  4  0  0  0  0  0  0
    0.9050    3.1372    6.9069 C   0  0  0  0  0  0  0  0  0  0  0  0
    1.8221    3.0118    7.9813 C   0  0  0  0  0  0  0  0  0  0  0  0
    1.6932    3.8347    9.0838 C   0  0  0  0  0  0  0  0  0  0  0  0
    2.3989    3.7505    9.8961 H   0  0  0  0  0  0  0  0  0  0  0  0
    0.6743    4.7673    9.1637 C   0  0  0  0  0  0  0  0  0  0  0  0
    0.5836    5.3972   10.0360 H   0  0  0  0  0  0  0  0  0  0  0  0
   -0.2231    4.8938    8.1191 C   0  0  0  0  0  0  0  0  0  0  0  0
   -1.0138    5.6254    8.1883 H   0  0  0  0  0  0  0  0  0  0  0  0
   -0.1265    4.1073    6.9854 C   0  0  0  0  0  0  0  0  0  0  0  0
    2.9510    2.0155    7.8805 C   0  0  0  0  0  0  0  0  0  0  0  0
    2.7207    1.3436    7.0452 H   0  0  0  0  0  0  0  0  0  0  0  0
    3.1017    1.1709    9.1466 C   0  0  0  0  0  0  0  0  0  0  0  0
    3.8346    0.3823    8.9845 H   0  0  0  0  0  0  0  0  0  0  0  0
    2.1521    0.7154    9.4218 H   0  0  0  0  0  0  0  0  0  0  0  0
    3.4444    1.7760    9.9813 H   0  0  0  0  0  0  0  0  0  0  0  0
    4.2569    2.7449    7.5540 C   0  0  0  0  0  0  0  0  0  0  0  0
    4.1514    3.3078    6.6297 H   0  0  0  0  0  0  0  0  0  0  0  0
    5.0686    2.0316    7.4294 H   0  0  0  0  0  0  0  0  0  0  0  0
    4.5162    3.4371    8.3516 H   0  0  0  0  0  0  0  0  0  0  0  0
   -1.1133    4.2753    5.8561 C   0  0  0  0  0  0  0  0  0  0  0  0
   -0.7957    3.6417    5.0218 H   0  0  0  0  0  0  0  0  0  0  0  0
   -2.5072    3.8179    6.2930 C   0  0  0  0  0  0  0  0  0  0  0  0
   -3.2055    3.9069    5.4643 H   0  0  0  0  0  0  0  0  0  0  0  0
   -2.8700    4.4228    7.1205 H   0  0  0  0  0  0  0  0  0  0  0  0
   -2.4827    2.7777    6.6095 H   0  0  0  0  0  0  0  0  0  0  0  0
   -1.1434    5.7193    5.3513 C   0  0  0  0  0  0  0  0  0  0  0  0
   -0.1428    6.0443    5.0750 H   0  0  0  0  0  0  0  0  0  0  0  0
   -1.5288    6.3942    6.1111 H   0  0  0  0  0  0  0  0  0  0  0  0
   -1.7832    5.7901    4.4747 H   0  0  0  0  0  0  0  0  0  0  0  0
    2.8578   -1.5013    5.9267 C   0  0  0  0  0  0  0  0  0  0  0  0
    3.1439   -0.7850    6.6940 H   0  0  0  0  0  0  0  0  0  0  0  0
    3.5627   -1.4087    5.1048 H   0  0  0  0  0  0  0  0  0  0  0  0
    2.9353   -2.5128    6.3441 H   0  0  0  0  0  0  0  0  0  0  0  0
    1.0699   -2.1910    4.4645 C   0  0  0  0  0  0  0  0  0  0  0  0
   -0.0168   -2.1293    4.3671 H   0  0  0  0  0  0  0  0  0  0  0  0
    1.3169   -3.2116    4.7930 H   0  0  0  0  0  0  0  0  0  0  0  0
    1.7202   -1.9586    3.0969 C   0  0  0  0  0  0  0  0  0  0  0  0
    1.5405   -2.8493    2.4761 H   0  0  0  0  0  0  0  0  0  0  0  0
    2.8011   -1.8575    3.2206 H   0  0  0  0  0  0  0  0  0  0  0  0
   -0.0658   -1.0243    1.7759 C   0  0  0  0  0  0  0  0  0  0  0  0
   -0.7921   -1.3805    2.5020 H   0  0  0  0  0  0  0  0  0  0  0  0
    0.0328   -1.7787    0.9854 H   0  0  0  0  0  0  0  0  0  0  0  0
   -0.4505   -0.1064    1.3321 H   0  0  0  0  0  0  0  0  0  0  0  0
    0.6178   -1.3330    6.6622 C   0  0  0  0  0  0  0  0  0  0  0  0
    0.8941   -0.5653    7.3839 H   0  0  0  0  0  0  0  0  0  0  0  0
    0.7132   -2.3183    7.1337 H   0  0  0  0  0  0  0  0  0  0  0  0
   -0.4228   -1.1831    6.3829 H   0  0  0  0  0  0  0  0  0  0  0  0
    2.1661   -0.3946    1.3396 C   0  0  0  0  0  0  0  0  0  0  0  0
    1.8027    0.4935    0.8236 H   0  0  0  0  0  0  0  0  0  0  0  0
    2.2623   -1.2047    0.6066 H   0  0  0  0  0  0  0  0  0  0  0  0
    3.1521   -0.1804    1.7480 H   0  0  0  0  0  0  0  0  0  0  0  0
  1  2  1  0  0  0  0
  1  6  1  0  0  0  0
  1  5  1  0  0  0  0
  3  1  1  0  0  0  0
  4  1  1  0  0  0  0
  5  8  1  0  0  0  0
  6 37  1  0  0  0  0
  6 51  1  0  0  0  0
  7 44  1  0  0  0  0
  7  1  1  0  0  0  0
  8 16  2  0  0  0  0
  8  9  1  0  0  0  0
  9 10  2  0  0  0  0
 10 12  1  0  0  0  0
 10 11  1  0  0  0  0
 12 13  1  0  0  0  0
 14 15  1  0  0  0  0
 14 12  2  0  0  0  0
 16 14  1  0  0  0  0
 17  9  1  0  0  0  0
 17 19  1  0  0  0  0
 18 17  1  0  0  0  0
 19 21  1  0  0  0  0
 19 22  1  0  0  0  0
 20 19  1  0  0  0  0
 23 17  1  0  0  0  0
 23 26  1  0  0  0  0
 24 23  1  0  0  0  0
 25 23  1  0  0  0  0
 27 29  1  0  0  0  0
 27 16  1  0  0  0  0
 28 27  1  0  0  0  0
 29 32  1  0  0  0  0
 29 31  1  0  0  0  0
 30 29  1  0  0  0  0
 33 27  1  0  0  0  0
 33 35  1  0  0  0  0
 34 33  1  0  0  0  0
 36 33  1  0  0  0  0
 37 40  1  0  0  0  0
 37 38  1  0  0  0  0
 39 37  1  0  0  0  0
 41 43  1  0  0  0  0
 41  6  1  0  0  0  0
 42 41  1  0  0  0  0
 44 46  1  0  0  0  0
 44 41  1  0  0  0  0
 45 44  1  0  0  0  0
 47  7  1  0  0  0  0
 47 48  1  0  0  0  0
 49 47  1  0  0  0  0
 50 47  1  0  0  0  0
 51 53  1  0  0  0  0
 51 52  1  0  0  0  0
 54 51  1  0  0  0  0
 55 58  1  0  0  0  0
 55  7  1  0  0  0  0
 56 55  1  0  0  0  0
 57 55  1  0  0  0  0
M  END
$$$$
