CSD_code = NUMBIH | q = 0 | S = 0 | Stoichiometry = C10H16Cl4N4PtSe2 | MND = 6
 OpenBabel04212202073D

 37 38  0  0  1  0  0  0  0  0999 V2000
   13.0711    3.7734   10.6763 C   0  0  1  0  0  3  0  0  0  0  0  0
   11.9058    4.0057   12.8296 C   0  0  0  0  0  0  0  0  0  0  0  0
   10.9698    3.6531   13.2541 H   0  0  0  0  0  0  0  0  0  0  0  0
   11.9273    5.0963   12.8262 H   0  0  0  0  0  0  0  0  0  0  0  0
   12.7456    3.6504   13.4364 H   0  0  0  0  0  0  0  0  0  0  0  0
   18.8945    4.6341   11.6775 C   0  0  2  0  0  3  0  0  0  0  0  0
   17.7790    6.0827   10.0193 C   0  0  0  0  0  0  0  0  0  0  0  0
   18.1629    6.8525    9.3535 H   0  0  0  0  0  0  0  0  0  0  0  0
   17.2678    6.5417   10.8673 H   0  0  0  0  0  0  0  0  0  0  0  0
   17.0617    5.4528    9.4851 H   0  0  0  0  0  0  0  0  0  0  0  0
   20.4137    3.0698   12.8245 C   0  0  0  0  0  0  0  0  0  0  0  0
   19.6043    2.3682   13.0525 H   0  0  0  0  0  0  0  0  0  0  0  0
   20.6047    3.6809   13.7085 H   0  0  0  0  0  0  0  0  0  0  0  0
   21.3107    2.5183   12.5548 H   0  0  0  0  0  0  0  0  0  0  0  0
   13.8233    3.0834    8.4418 C   0  0  0  0  0  0  0  0  0  0  0  0
   13.4263    2.4766    7.6328 H   0  0  0  0  0  0  0  0  0  0  0  0
   14.7664    2.6545    8.7921 H   0  0  0  0  0  0  0  0  0  0  0  0
   14.0166    4.0978    8.0901 H   0  0  0  0  0  0  0  0  0  0  0  0
   11.7338    2.3914    9.6272 C   0  0  0  0  0  0  0  0  0  0  0  0
   11.3854    1.7557    8.8398 H   0  0  0  0  0  0  0  0  0  0  0  0
   11.2049    2.6421   10.8542 C   0  0  0  0  0  0  0  0  0  0  0  0
   10.3159    2.2636   11.3151 H   0  0  0  0  0  0  0  0  0  0  0  0
   20.6864    4.0600   10.5472 C   0  0  0  0  0  0  0  0  0  0  0  0
   21.6104    3.5597   10.3420 H   0  0  0  0  0  0  0  0  0  0  0  0
   19.9564    4.9084    9.7761 C   0  0  0  0  0  0  0  0  0  0  0  0
   20.1309    5.2664    8.7828 H   0  0  0  0  0  0  0  0  0  0  0  0
   15.0432    3.3156   14.1816 Cl  0  0  0  0  0  0  0  0  0  0  0  0
   17.4116    1.3299   12.9434 Cl  0  0  0  0  0  0  0  0  0  0  0  0
   17.1005    2.7441    9.9724 Cl  0  0  0  0  0  0  0  0  0  0  0  0
   14.4597    1.3085   11.4824 Cl  0  0  0  0  0  0  0  0  0  0  0  0
   18.8587    5.2690   10.4944 N   0  0  0  0  0  0  0  0  0  0  0  0
   20.0203    3.9041   11.7227 N   0  0  0  0  0  0  0  0  0  0  0  0
   12.0380    3.5105   11.4882 N   0  0  0  0  0  0  0  0  0  0  0  0
   12.8823    3.1122    9.5243 N   0  0  0  0  0  0  0  0  0  0  0  0
   16.0222    3.0083   12.0714 Pt  0  0  0  0  0  0  0  0  0  0  0  0
   17.6051    4.7245   13.0388 Se  0  0  0  0  0  0  0  0  0  0  0  0
   14.5140    4.8781   11.0657 Se  0  0  0  0  0  0  0  0  0  0  0  0
  1 37  1  6  0  0  0
  1 33  1  0  0  0  0
  2  3  1  0  0  0  0
  2  5  1  0  0  0  0
  4  2  1  0  0  0  0
  6 32  1  0  0  0  0
  6 36  1  6  0  0  0
  7 31  1  0  0  0  0
  7  9  1  0  0  0  0
  8  7  1  0  0  0  0
 10  7  1  0  0  0  0
 11 12  1  0  0  0  0
 11 13  1  0  0  0  0
 14 11  1  0  0  0  0
 15 17  1  0  0  0  0
 15 34  1  0  0  0  0
 16 15  1  0  0  0  0
 18 15  1  0  0  0  0
 19 21  2  0  0  0  0
 20 19  1  0  0  0  0
 21 22  1  0  0  0  0
 21 33  1  0  0  0  0
 23 32  1  0  0  0  0
 24 23  1  0  0  0  0
 25 31  1  0  0  0  0
 25 23  2  0  0  0  0
 26 25  1  0  0  0  0
 29 35  1  0  0  0  0
 30 35  1  0  0  0  0
 31  6  1  0  0  0  0
 32 11  1  0  0  0  0
 33  2  1  0  0  0  0
 34 19  1  0  0  0  0
 34  1  1  0  0  0  0
 35 28  1  0  0  0  0
 35 36  1  0  0  0  0
 35 27  1  0  0  0  0
 37 35  1  0  0  0  0
M  END
$$$$
