CSD_code = NUMNUG | q = 0 | S = 0 | Stoichiometry = C16H13ClN4OPd | MND = 4
 OpenBabel04212202073D

 36 40  0  0  0  0  0  0  0  0999 V2000
    6.4843   15.8279    3.4403 C   0  0  0  0  0  0  0  0  0  0  0  0
    6.4103   14.7795    3.1708 H   0  0  0  0  0  0  0  0  0  0  0  0
    7.2246   16.7223    2.6844 C   0  0  0  0  0  0  0  0  0  0  0  0
    7.7485   16.3854    1.8047 H   0  0  0  0  0  0  0  0  0  0  0  0
    7.2679   18.0511    3.0818 C   0  0  0  0  0  0  0  0  0  0  0  0
    7.8241   18.7801    2.5118 H   0  0  0  0  0  0  0  0  0  0  0  0
    6.5837   18.4328    4.2212 C   0  0  0  0  0  0  0  0  0  0  0  0
    6.5959   19.4629    4.5379 H   0  0  0  0  0  0  0  0  0  0  0  0
    5.8684   17.4752    4.9419 C   0  0  0  0  0  0  0  0  0  0  0  0
    5.1260   17.7764    6.1719 C   0  0  0  0  0  0  0  0  0  0  0  0
    5.2406   18.9948    6.8396 C   0  0  0  0  0  0  0  0  0  0  0  0
    5.8798   19.7818    6.4820 H   0  0  0  0  0  0  0  0  0  0  0  0
    4.5101   19.1500    8.0097 C   0  0  0  0  0  0  0  0  0  0  0  0
    4.5494   20.0634    8.5869 H   0  0  0  0  0  0  0  0  0  0  0  0
    3.6578   17.0489    7.8015 C   0  0  0  0  0  0  0  0  0  0  0  0
    2.4431   14.8640    7.9295 C   0  0  0  0  0  0  0  0  0  0  0  0
    1.4539   14.2671    8.7155 C   0  0  0  0  0  0  0  0  0  0  0  0
    1.0807   14.7923    9.5845 H   0  0  0  0  0  0  0  0  0  0  0  0
    0.9462   13.0301    8.3996 C   0  0  0  0  0  0  0  0  0  0  0  0
    0.1829   12.5657    9.0026 H   0  0  0  0  0  0  0  0  0  0  0  0
    1.4239   12.3629    7.2718 C   0  0  0  0  0  0  0  0  0  0  0  0
    2.4168   12.9548    6.4976 C   0  0  0  0  0  3  0  0  0  0  0  0
    2.7861   12.4241    5.6334 H   0  0  0  0  0  0  0  0  0  0  0  0
    2.9625   14.2061    6.8021 C   0  0  0  0  0  0  0  0  0  0  0  0
    1.3045   10.4286    5.8874 C   0  0  0  0  0  0  0  0  0  0  0  0
    1.1183   10.9797    4.9604 H   0  0  0  0  0  0  0  0  0  0  0  0
    0.7228    9.5077    5.8837 H   0  0  0  0  0  0  0  0  0  0  0  0
    2.3692   10.1862    5.9559 H   0  0  0  0  0  0  0  0  0  0  0  0
    5.8258   16.1931    4.5336 N   0  0  0  0  0  0  0  0  0  0  0  0
    4.3297   16.7988    6.6561 N   0  0  0  0  0  0  0  0  0  0  0  0
    3.7338   18.2024    8.4849 N   0  0  0  0  0  0  0  0  0  0  0  0
    2.8487   16.1401    8.3538 N   0  0  0  0  0  0  0  0  0  0  0  0
    2.4127   16.4692    9.2067 H   0  0  0  0  0  0  0  0  0  0  0  0
    0.8635   11.1492    7.0146 O   0  0  0  0  0  0  0  0  0  0  0  0
    4.8110   13.2414    4.4849 Cl  0  0  0  0  0  0  0  0  0  0  0  0
    4.4113   15.0606    5.6797 Pd  0  0  1  0  0  0  0  0  0  0  0  0
  1 29  1  0  0  0  0
  2  1  1  0  0  0  0
  3  5  1  0  0  0  0
  3  1  2  0  0  0  0
  4  3  1  0  0  0  0
  5  7  2  0  0  0  0
  6  5  1  0  0  0  0
  7  8  1  0  0  0  0
  7  9  1  0  0  0  0
  9 10  2  0  0  0  0
 10 30  1  0  0  0  0
 10 11  1  0  0  0  0
 11 13  2  0  0  0  0
 12 11  1  0  0  0  0
 13 31  1  0  0  0  0
 13 14  1  0  0  0  0
 15 32  1  0  0  0  0
 15 31  2  0  0  0  0
 16 32  1  0  0  0  0
 16 17  2  0  0  0  0
 17 18  1  0  0  0  0
 19 17  1  0  0  0  0
 19 20  1  0  0  0  0
 21 19  2  0  0  0  0
 22 24  1  0  0  0  0
 22 21  1  0  0  0  0
 23 22  1  0  0  0  0
 24 16  1  0  0  0  0
 25 28  1  0  0  0  0
 25 34  1  0  0  0  0
 26 25  1  0  0  0  0
 27 25  1  0  0  0  0
 29  9  1  0  0  0  0
 29 36  1  0  0  0  0
 30 15  1  0  0  0  0
 32 33  1  0  0  0  0
 34 21  1  0  0  0  0
 36 35  1  1  0  0  0
 36 30  1  0  0  0  0
 36 24  2  0  0  0  0
M  END
$$$$
