CSD_code = NUMNOA | q = 0 | S = 0 | Stoichiometry = C15H11ClN4Pd | MND = 4
 OpenBabel04212202073D

 32 36  0  0  1  0  0  0  0  0999 V2000
    8.2062   11.5017    7.5872 C   0  0  0  0  0  0  0  0  0  0  0  0
    9.0661   10.8408    7.6217 H   0  0  0  0  0  0  0  0  0  0  0  0
    8.2370   12.7695    8.1444 C   0  0  0  0  0  0  0  0  0  0  0  0
    9.1299   13.1268    8.6310 H   0  0  0  0  0  0  0  0  0  0  0  0
    7.1009   13.5618    8.0558 C   0  0  0  0  0  0  0  0  0  0  0  0
    7.0891   14.5586    8.4702 H   0  0  0  0  0  0  0  0  0  0  0  0
    5.9788   13.0574    7.4250 C   0  0  0  0  0  0  0  0  0  0  0  0
    5.0921   13.6636    7.3381 H   0  0  0  0  0  0  0  0  0  0  0  0
    6.0150   11.7663    6.8947 C   0  0  0  0  0  0  0  0  0  0  0  0
    4.8754   11.1363    6.2186 C   0  0  0  0  0  0  0  0  0  0  0  0
    3.6023   11.7051    6.2006 C   0  0  0  0  0  0  0  0  0  0  0  0
    3.3912   12.6412    6.6852 H   0  0  0  0  0  0  0  0  0  0  0  0
    2.6008   11.0049    5.5451 C   0  0  0  0  0  0  0  0  0  0  0  0
    1.5872   11.3770    5.4899 H   0  0  0  0  0  0  0  0  0  0  0  0
    4.0633    9.3468    5.0037 C   0  0  0  0  0  0  0  0  0  0  0  0
    5.3074    7.3397    4.1607 C   0  0  1  0  0  3  0  0  0  0  0  0
    5.0528    6.2298    3.3521 C   0  0  0  0  0  0  0  0  0  0  0  0
    4.0533    6.0764    2.9664 H   0  0  0  0  0  0  0  0  0  0  0  0
    6.0578    5.3390    3.0413 C   0  0  0  0  0  0  0  0  0  0  0  0
    5.8491    4.4842    2.4154 H   0  0  0  0  0  0  0  0  0  0  0  0
    7.3296    5.5607    3.5386 C   0  0  0  0  0  0  0  0  0  0  0  0
    8.1317    4.8777    3.3019 H   0  0  0  0  0  0  0  0  0  0  0  0
    7.5804    6.6581    4.3461 C   0  0  0  0  0  0  0  0  0  0  0  0
    8.5871    6.7899    4.7173 H   0  0  0  0  0  0  0  0  0  0  0  0
    6.5862    7.5801    4.6948 C   0  0  0  0  0  0  0  0  0  0  0  0
    7.1294   11.0161    6.9812 N   0  0  0  0  0  0  0  0  0  0  0  0
    5.1052    9.9475    5.6166 N   0  0  0  0  0  0  0  0  0  0  0  0
    2.8214    9.8501    4.9550 N   0  0  0  0  0  0  0  0  0  0  0  0
    4.1967    8.1696    4.3805 N   0  0  0  0  0  0  0  0  0  0  0  0
    3.3301    7.8493    3.9648 H   0  0  0  0  0  0  0  0  0  0  0  0
    8.9744    8.5639    6.4326 Cl  0  0  0  0  0  0  0  0  0  0  0  0
    6.9325    9.1899    5.8711 Pd  0  0  1  0  0  0  0  0  0  0  0  0
  1  2  1  0  0  0  0
  1  3  2  0  0  0  0
  3  4  1  0  0  0  0
  5  3  1  0  0  0  0
  5  6  1  0  0  0  0
  7  5  2  0  0  0  0
  8  7  1  0  0  0  0
  9 26  1  0  0  0  0
  9  7  1  0  0  0  0
 10  9  2  0  0  0  0
 11 10  1  0  0  0  0
 11 12  1  0  0  0  0
 13 11  2  0  0  0  0
 14 13  1  0  0  0  0
 15 27  1  0  0  0  0
 16 17  1  6  0  0  0
 16 29  1  0  0  0  0
 16 25  1  0  0  0  0
 18 17  1  0  0  0  0
 19 17  2  0  0  0  0
 19 21  1  0  0  0  0
 20 19  1  0  0  0  0
 21 23  2  0  0  0  0
 22 21  1  0  0  0  0
 23 25  1  0  0  0  0
 23 24  1  0  0  0  0
 25 32  2  0  0  0  0
 26  1  1  0  0  0  0
 27 32  1  0  0  0  0
 27 10  1  0  0  0  0
 28 15  2  0  0  0  0
 28 13  1  0  0  0  0
 29 15  1  0  0  0  0
 30 29  1  0  0  0  0
 32 31  1  1  0  0  0
 32 26  1  0  0  0  0
M  END
$$$$
