CSD_code = NUNMUF | q = 0 | S = 0 | Stoichiometry = C14H18CdI2N2OS | MND = 5
 OpenBabel04212202073D

 39 41  0  0  1  0  0  0  0  0999 V2000
    5.0710   12.2419   12.9643 C   0  0  0  0  0  3  0  0  0  0  0  0
    5.1861   11.9376   11.9309 H   0  0  0  0  0  0  0  0  0  0  0  0
    5.7289   11.5721   13.9792 C   0  0  0  0  0  0  0  0  0  0  0  0
    6.3707   10.7361   13.7504 H   0  0  0  0  0  0  0  0  0  0  0  0
    5.5463   11.9869   15.2961 C   0  0  0  0  0  0  0  0  0  0  0  0
    6.2318   11.2859   16.4218 C   0  0  0  0  0  0  0  0  0  0  0  0
    5.9132   11.6787   17.3837 H   0  0  0  0  0  0  0  0  0  0  0  0
    7.3103   11.4109   16.3328 H   0  0  0  0  0  0  0  0  0  0  0  0
    6.0198   10.2188   16.3865 H   0  0  0  0  0  0  0  0  0  0  0  0
    4.7095   13.0732   15.5159 C   0  0  0  0  0  0  0  0  0  0  0  0
    4.5218   13.4141   16.5224 H   0  0  0  0  0  0  0  0  0  0  0  0
    4.0958   13.7028   14.4365 C   0  0  0  0  0  0  0  0  0  0  0  0
    3.2043   14.8658   14.6117 C   0  0  1  0  0  3  0  0  0  0  0  0
    3.3501   15.7494   15.6754 C   0  0  0  0  0  0  0  0  0  0  0  0
    4.1452   15.6141   16.3921 H   0  0  0  0  0  0  0  0  0  0  0  0
    2.4996   16.8435   15.7844 C   0  0  0  0  0  0  0  0  0  0  0  0
    2.6664   17.8436   16.8788 C   0  0  0  0  0  0  0  0  0  0  0  0
    3.3452   18.6287   16.5446 H   0  0  0  0  0  0  0  0  0  0  0  0
    3.0936   17.3851   17.7673 H   0  0  0  0  0  0  0  0  0  0  0  0
    1.7156   18.3059   17.1323 H   0  0  0  0  0  0  0  0  0  0  0  0
    1.5121   16.9867   14.8148 C   0  0  0  0  0  0  0  0  0  0  0  0
    0.8213   17.8145   14.8525 H   0  0  0  0  0  0  0  0  0  0  0  0
    1.4426   16.0688   13.7815 C   0  0  0  0  0  0  0  0  0  0  0  0
    0.7026   16.1632   12.9965 H   0  0  0  0  0  0  0  0  0  0  0  0
    1.8403   17.9944    9.1584 C   0  0  0  0  0  0  0  0  0  0  0  0
    0.7852   18.1634    9.3386 H   0  0  0  0  0  0  0  0  0  0  0  0
    2.1353   18.3511    8.1791 H   0  0  0  0  0  0  0  0  0  0  0  0
    2.4354   18.4835    9.9224 H   0  0  0  0  0  0  0  0  0  0  0  0
    1.0250   15.7290    7.9290 C   0  0  0  0  0  0  0  0  0  0  0  0
    1.0453   14.6473    7.8481 H   0  0  0  0  0  0  0  0  0  0  0  0
    1.3609   16.1728    6.9998 H   0  0  0  0  0  0  0  0  0  0  0  0
    0.0288   16.0656    8.1908 H   0  0  0  0  0  0  0  0  0  0  0  0
    4.2745   13.2771   13.1843 N   0  0  0  0  0  0  0  0  0  0  0  0
    2.2682   15.0391   13.6730 N   0  0  0  0  0  0  0  0  0  0  0  0
    1.5011   15.7760   10.5040 O   0  0  0  0  0  0  0  0  0  0  0  0
    3.2124   14.6070   11.5207 Cd  0  0  0  0  0  0  0  0  0  0  0  0
    4.7745   16.8229   11.5070 I   0  0  0  0  0  0  0  0  0  0  0  0
    3.3852   12.9632    9.3936 I   0  0  0  0  0  0  0  0  0  0  0  0
    2.1902   16.2028    9.2541 S   0  0  0  0  0  3  0  0  0  0  0  0
  1 33  1  0  0  0  0
  1  3  1  0  0  0  0
  2  1  1  0  0  0  0
  3  5  2  0  0  0  0
  4  3  1  0  0  0  0
  5 10  1  0  0  0  0
  5  6  1  0  0  0  0
  6  7  1  0  0  0  0
  8  6  1  0  0  0  0
  9  6  1  0  0  0  0
 10 11  1  0  0  0  0
 12 10  2  0  0  0  0
 13 12  1  6  0  0  0
 13 14  1  0  0  0  0
 14 16  2  0  0  0  0
 14 15  1  0  0  0  0
 16 17  1  0  0  0  0
 17 20  1  0  0  0  0
 17 19  1  0  0  0  0
 18 17  1  0  0  0  0
 21 22  1  0  0  0  0
 21 16  1  0  0  0  0
 23 21  2  0  0  0  0
 24 23  1  0  0  0  0
 25 39  1  0  0  0  0
 25 26  1  0  0  0  0
 25 28  1  0  0  0  0
 27 25  1  0  0  0  0
 29 32  1  0  0  0  0
 29 39  1  0  0  0  0
 30 29  1  0  0  0  0
 31 29  1  0  0  0  0
 33 12  1  0  0  0  0
 34 23  1  0  0  0  0
 34 13  1  0  0  0  0
 35 36  1  0  0  0  0
 36 33  1  0  0  0  0
 36 34  1  0  0  0  0
 37 36  1  0  0  0  0
 38 36  1  0  0  0  0
 39 35  1  0  0  0  0
M  END
$$$$
