CSD_code = NUQBUW | q = 0 | S = 0 | Stoichiometry = C10H8F3MnN2O | MND = 6
 OpenBabel04212202073D

 25 27  0  0  1  0  0  0  0  0999 V2000
    3.2175    1.5350    2.9664 Mn  0  0  0  0  0  0  0  0  0  0  0  0
    3.0440    3.2390    3.4037 F   0  0  0  0  0  0  0  0  0  0  0  0
    2.6230    1.9773    1.4001 F   0  0  0  0  0  0  0  0  0  0  0  0
    2.5762   -0.0781    2.6456 F   0  0  0  0  0  0  0  0  0  0  0  0
    4.6666    1.3505    2.8752 O   0  0  0  0  0  1  0  0  0  0  0  0
    1.0192    1.7194    3.6081 N   0  0  0  0  0  0  0  0  0  0  0  0
    3.1729    1.0995    4.9259 N   0  0  0  0  0  0  0  0  0  0  0  0
    0.0149    2.0611    2.8234 C   0  0  0  0  0  3  0  0  0  0  0  0
    0.2551    2.1835    1.7764 H   0  0  0  0  0  0  0  0  0  0  0  0
   -1.2696    2.2537    3.3124 C   0  0  0  0  0  0  0  0  0  0  0  0
   -2.0692    2.5333    2.6459 H   0  0  0  0  0  0  0  0  0  0  0  0
   -1.4917    2.0820    4.6700 C   0  0  0  0  0  0  0  0  0  0  0  0
   -2.4759    2.2282    5.0897 H   0  0  0  0  0  0  0  0  0  0  0  0
   -0.4349    1.7211    5.4878 C   0  0  0  0  0  0  0  0  0  0  0  0
   -0.5933    1.5885    6.5453 H   0  0  0  0  0  0  0  0  0  0  0  0
    0.8270    1.5429    4.9180 C   0  0  0  0  0  0  0  0  0  0  0  0
    2.0347    1.1603    5.6533 C   0  0  1  0  0  3  0  0  0  0  0  0
    2.0241    0.8656    7.0171 C   0  0  0  0  0  0  0  0  0  0  0  0
    1.1015    0.9172    7.5712 H   0  0  0  0  0  0  0  0  0  0  0  0
    3.1936    0.5036    7.6550 C   0  0  0  0  0  0  0  0  0  0  0  0
    3.1993    0.2734    8.7089 H   0  0  0  0  0  0  0  0  0  0  0  0
    4.3577    0.4427    6.8993 C   0  0  0  0  0  0  0  0  0  0  0  0
    5.2987    0.1640    7.3448 H   0  0  0  0  0  0  0  0  0  0  0  0
    4.2996    0.7447    5.5538 C   0  0  0  0  0  0  0  0  0  0  0  0
    5.1886    0.7045    4.9383 H   0  0  0  0  0  0  0  0  0  0  0  0
  1  2  1  0  0  0  0
  1  6  1  0  0  0  0
  1  7  1  0  0  0  0
  3  1  1  0  0  0  0
  4  1  1  0  0  0  0
  5  1  1  0  0  0  0
  6 16  1  0  0  0  0
  7 24  1  0  0  0  0
  7 17  1  0  0  0  0
  8 10  1  0  0  0  0
  8  6  1  0  0  0  0
  9  8  1  0  0  0  0
 10 12  2  0  0  0  0
 11 10  1  0  0  0  0
 12 13  1  0  0  0  0
 12 14  1  0  0  0  0
 14 15  1  0  0  0  0
 16 14  2  0  0  0  0
 17 16  1  6  0  0  0
 17 18  1  0  0  0  0
 18 19  1  0  0  0  0
 18 20  2  0  0  0  0
 20 21  1  0  0  0  0
 22 23  1  0  0  0  0
 22 20  1  0  0  0  0
 24 22  2  0  0  0  0
 25 24  1  0  0  0  0
M  END
$$$$
