CSD_code = NUQSOJ | q = 0 | S = 0 | Stoichiometry = C10H10BrN4O4Re | MND = 6
 OpenBabel04212202073D

 30 31  0  0  1  0  0  0  0  0999 V2000
    1.1713   -2.3917   -4.3541 Re  0  0  0  0  0  0  0  0  0  0  0  0
    0.4953    0.0115   -3.7313 Br  0  0  0  0  0  0  0  0  0  0  0  0
   -1.0598   -2.5124   -4.9029 N   0  0  0  0  0  0  0  0  0  0  0  0
    0.9466   -2.8684   -2.4715 C   0  0  0  0  0  2  0  0  0  0  0  0
    1.2198   -1.6217   -6.3776 N   0  0  0  0  0  0  0  0  0  0  0  0
    2.1518   -1.5198   -6.7779 H   0  0  0  0  0  0  0  0  0  0  0  0
   -1.0040   -0.9872   -6.6874 N   0  0  0  0  0  0  0  0  0  0  0  0
   -1.5784   -0.3405   -7.2107 H   0  0  0  0  0  0  0  0  0  0  0  0
    0.7946   -3.0377   -1.3532 O   0  0  0  0  0  1  0  0  0  0  0  0
   -3.1506   -3.0919   -3.9397 N   0  0  0  0  0  0  0  0  0  0  0  0
    3.0570   -2.0636   -4.0380 C   0  0  0  0  0  2  0  0  0  0  0  0
   -1.6770   -1.6908   -5.7261 C   0  0  0  0  0  0  0  0  0  0  0  0
    1.5659   -5.3226   -5.2331 O   0  0  0  0  0  1  0  0  0  0  0  0
   -3.7758   -2.2179   -4.7405 C   0  0  0  0  0  3  0  0  0  0  0  0
   -4.8436   -2.1124   -4.6139 H   0  0  0  0  0  0  0  0  0  0  0  0
    1.4357   -4.2305   -4.9134 C   0  0  0  0  0  2  0  0  0  0  0  0
   -3.0847   -1.5106   -5.6724 C   0  0  0  0  0  0  0  0  0  0  0  0
   -3.5794   -0.8146   -6.3266 H   0  0  0  0  0  0  0  0  0  0  0  0
    4.1656   -1.8132   -3.8684 O   0  0  0  0  0  1  0  0  0  0  0  0
    0.3291   -0.9788   -7.0269 C   0  0  1  0  0  3  0  0  0  0  0  0
   -1.7566   -3.2604   -3.9951 C   0  0  0  0  0  0  0  0  0  0  0  0
   -1.2182   -4.0545   -3.2558 O   0  0  0  0  0  0  0  0  0  0  0  0
   -3.8492   -3.8500   -2.9287 C   0  0  0  0  0  0  0  0  0  0  0  0
   -4.9144   -3.8638   -3.1464 H   0  0  0  0  0  0  0  0  0  0  0  0
   -3.6767   -3.4089   -1.9449 H   0  0  0  0  0  0  0  0  0  0  0  0
   -3.4494   -4.8641   -2.9141 H   0  0  0  0  0  0  0  0  0  0  0  0
    0.6227   -0.1306   -8.2288 C   0  0  0  0  0  0  0  0  0  0  0  0
   -0.0496   -0.3712   -9.0510 H   0  0  0  0  0  0  0  0  0  0  0  0
    1.6480   -0.2704   -8.5608 H   0  0  0  0  0  0  0  0  0  0  0  0
    0.4891    0.9197   -7.9678 H   0  0  0  0  0  0  0  0  0  0  0  0
  1 11  1  0  0  0  0
  1  2  1  0  0  0  0
  1  4  1  0  0  0  0
  3  1  1  0  0  0  0
  3 21  1  0  0  0  0
  4  9  1  0  0  0  0
  5  1  1  0  0  0  0
  6  5  1  0  0  0  0
  7 12  1  0  0  0  0
  8  7  1  0  0  0  0
 10 23  1  0  0  0  0
 11 19  1  0  0  0  0
 12 17  2  0  0  0  0
 12  3  1  0  0  0  0
 13 16  1  0  0  0  0
 14 15  1  0  0  0  0
 14 10  1  0  0  0  0
 16  1  1  0  0  0  0
 17 14  1  0  0  0  0
 18 17  1  0  0  0  0
 20 27  1  1  0  0  0
 20  7  1  0  0  0  0
 20  5  1  0  0  0  0
 21 10  1  0  0  0  0
 21 22  2  0  0  0  0
 23 26  1  0  0  0  0
 23 25  1  0  0  0  0
 24 23  1  0  0  0  0
 27 30  1  0  0  0  0
 28 27  1  0  0  0  0
 29 27  1  0  0  0  0
M  END
$$$$
