CSD_code = NUQTUQ | q = 0 | S = 0 | Stoichiometry = C31H23ClNPPtS | MND = 4
 OpenBabel04212202073D

 59 65  0  0  0  0  0  0  0  0999 V2000
    4.5310    8.2443    8.7862 C   0  0  0  0  0  0  0  0  0  0  0  0
    4.6600    9.0447    7.6621 C   0  0  0  0  0  0  0  0  0  0  0  0
    5.4991    8.4762    6.6374 C   0  0  0  0  0  0  0  0  0  0  0  0
    5.9548    7.1973    7.0180 C   0  0  0  0  0  0  0  0  0  0  0  0
    5.9466    8.9734    5.4114 C   0  0  0  0  0  0  0  0  0  0  0  0
    5.6752    9.9626    5.0813 H   0  0  0  0  0  0  0  0  0  0  0  0
    6.7703    8.2103    4.6110 C   0  0  0  0  0  0  0  0  0  0  0  0
    7.1072    8.6102    3.6658 H   0  0  0  0  0  0  0  0  0  0  0  0
    7.1802    6.9387    4.9996 C   0  0  0  0  0  0  0  0  0  0  0  0
    7.8222    6.3586    4.3543 H   0  0  0  0  0  0  0  0  0  0  0  0
    6.7782    6.4264    6.2158 C   0  0  0  0  0  0  0  0  0  0  0  0
    7.0969    5.4508    6.5488 H   0  0  0  0  0  0  0  0  0  0  0  0
    3.9161   10.2821    7.7141 C   0  0  0  0  0  0  0  0  0  0  0  0
    3.7392   11.1897    6.6659 C   0  0  0  0  0  0  0  0  0  0  0  0
    4.1691   10.9871    5.7013 H   0  0  0  0  0  0  0  0  0  0  0  0
    2.9905   12.3324    6.8579 C   0  0  0  0  0  0  0  0  0  0  0  0
    2.8521   13.0334    6.0481 H   0  0  0  0  0  0  0  0  0  0  0  0
    2.4150   12.5635    8.0998 C   0  0  0  0  0  0  0  0  0  0  0  0
    1.8286   13.4466    8.2937 H   0  0  0  0  0  0  0  0  0  0  0  0
    2.5972   11.6184    9.0920 C   0  0  0  0  0  0  0  0  0  0  0  0
    2.1526   11.7439   10.0720 H   0  0  0  0  0  0  0  0  0  0  0  0
    2.9058    5.8000   11.3066 C   0  0  0  0  0  0  0  0  0  0  0  0
    2.2983    5.7341   10.0579 C   0  0  0  0  0  0  0  0  0  0  0  0
    2.3470    6.6022    9.4064 H   0  0  0  0  0  0  0  0  0  0  0  0
    1.6338    4.5855    9.6682 C   0  0  0  0  0  0  0  0  0  0  0  0
    1.1626    4.5359    8.6978 H   0  0  0  0  0  0  0  0  0  0  0  0
    1.5697    3.5008   10.5275 C   0  0  0  0  0  0  0  0  0  0  0  0
    1.0527    2.6021   10.2250 H   0  0  0  0  0  0  0  0  0  0  0  0
    2.1553    3.5702   11.7822 C   0  0  0  0  0  0  0  0  0  0  0  0
    2.0898    2.7281   12.4557 H   0  0  0  0  0  0  0  0  0  0  0  0
    2.8184    4.7176   12.1774 C   0  0  0  0  0  0  0  0  0  0  0  0
    3.2537    4.7843   13.1656 H   0  0  0  0  0  0  0  0  0  0  0  0
    5.5413    6.9278   11.8329 C   0  0  0  0  0  0  0  0  0  0  0  0
    6.0675    5.6548   11.9983 C   0  0  0  0  0  0  0  0  0  0  0  0
    5.4106    4.8023   12.0857 H   0  0  0  0  0  0  0  0  0  0  0  0
    7.4408    5.4800   12.0248 C   0  0  0  0  0  0  0  0  0  0  0  0
    7.8516    4.4882   12.1454 H   0  0  0  0  0  0  0  0  0  0  0  0
    8.2880    6.5671   11.8907 C   0  0  0  0  0  0  0  0  0  0  0  0
    9.3580    6.4218   11.9086 H   0  0  0  0  0  0  0  0  0  0  0  0
    7.7658    7.8404   11.7211 C   0  0  0  0  0  0  0  0  0  0  0  0
    8.4269    8.6866   11.6064 H   0  0  0  0  0  0  0  0  0  0  0  0
    6.3967    8.0186   11.6875 C   0  0  0  0  0  0  0  0  0  0  0  0
    5.9617    9.0065   11.5341 H   0  0  0  0  0  0  0  0  0  0  0  0
    3.3105    7.5374   13.4982 C   0  0  0  0  0  0  0  0  0  0  0  0
    4.2457    7.8453   14.4783 C   0  0  0  0  0  0  0  0  0  0  0  0
    5.2930    7.9227   14.2208 H   0  0  0  0  0  0  0  0  0  0  0  0
    3.8313    8.0564   15.7820 C   0  0  0  0  0  0  0  0  0  0  0  0
    4.5596    8.2965   16.5430 H   0  0  0  0  0  0  0  0  0  0  0  0
    2.4889    7.9708   16.1092 C   0  0  0  0  0  0  0  0  0  0  0  0
    2.1692    8.1441   17.1262 H   0  0  0  0  0  0  0  0  0  0  0  0
    1.5529    7.6737   15.1304 C   0  0  0  0  0  0  0  0  0  0  0  0
    0.5042    7.6192   15.3830 H   0  0  0  0  0  0  0  0  0  0  0  0
    1.9597    7.4599   13.8283 C   0  0  0  0  0  0  0  0  0  0  0  0
    1.2358    7.2452   13.0532 H   0  0  0  0  0  0  0  0  0  0  0  0
    3.3149   10.5170    8.9100 N   0  0  0  0  0  0  0  0  0  0  0  0
    3.7697    7.3318   11.7530 P   0  0  0  0  0  4  0  0  0  0  0  0
    5.3802    6.7467    8.6065 S   0  0  0  0  0  0  0  0  0  0  0  0
    3.4934    9.0368   10.2964 Pt  0  0  1  0  0  0  0  0  0  0  0  0
    2.3142   10.1538   11.9524 Cl  0  0  0  0  0  0  0  0  0  0  0  0
  1 58  2  0  0  0  0
  2 13  2  0  0  0  0
  2  1  1  0  0  0  0
  3  4  1  0  0  0  0
  3  2  1  0  0  0  0
  4 57  1  0  0  0  0
  5  3  2  0  0  0  0
  6  5  1  0  0  0  0
  7  9  2  0  0  0  0
  7  5  1  0  0  0  0
  8  7  1  0  0  0  0
  9 11  1  0  0  0  0
 10  9  1  0  0  0  0
 11 12  1  0  0  0  0
 11  4  2  0  0  0  0
 13 55  1  0  0  0  0
 14 16  2  0  0  0  0
 14 13  1  0  0  0  0
 15 14  1  0  0  0  0
 16 18  1  0  0  0  0
 17 16  1  0  0  0  0
 18 19  1  0  0  0  0
 18 20  2  0  0  0  0
 20 21  1  0  0  0  0
 22 56  1  0  0  0  0
 22 31  1  0  0  0  0
 23 22  2  0  0  0  0
 24 23  1  0  0  0  0
 25 23  1  0  0  0  0
 25 27  2  0  0  0  0
 26 25  1  0  0  0  0
 27 29  1  0  0  0  0
 28 27  1  0  0  0  0
 29 31  2  0  0  0  0
 29 30  1  0  0  0  0
 31 32  1  0  0  0  0
 33 34  1  0  0  0  0
 34 36  2  0  0  0  0
 34 35  1  0  0  0  0
 36 37  1  0  0  0  0
 38 39  1  0  0  0  0
 38 36  1  0  0  0  0
 40 38  2  0  0  0  0
 41 40  1  0  0  0  0
 42 40  1  0  0  0  0
 42 33  2  0  0  0  0
 43 42  1  0  0  0  0
 44 53  2  0  0  0  0
 44 45  1  0  0  0  0
 45 47  2  0  0  0  0
 46 45  1  0  0  0  0
 47 49  1  0  0  0  0
 47 48  1  0  0  0  0
 49 50  1  0  0  0  0
 51 52  1  0  0  0  0
 51 49  2  0  0  0  0
 53 51  1  0  0  0  0
 54 53  1  0  0  0  0
 55 20  1  0  0  0  0
 55 58  1  0  0  0  0
 56 33  1  0  0  0  0
 56 44  1  0  0  0  0
 57  1  1  0  0  0  0
 58 56  1  0  0  0  0
 58 59  1  1  0  0  0
M  END
$$$$
