CSD_code = NUQTAW | q = 0 | S = 0 | Stoichiometry = C31H23ClNPPtS | MND = 4
 OpenBabel04212202073D

 59 65  0  0  0  0  0  0  0  0999 V2000
    2.3663    6.9491    9.0470 C   0  0  0  0  0  0  0  0  0  0  0  0
    1.4015    7.9141    8.8024 C   0  0  0  0  0  0  0  0  0  0  0  0
    0.1941    7.7333    9.5702 C   0  0  0  0  0  0  0  0  0  0  0  0
    0.2881    6.5865   10.3855 C   0  0  0  0  0  0  0  0  0  0  0  0
   -0.7311    6.1787   11.2286 C   0  0  0  0  0  0  0  0  0  0  0  0
   -0.6107    5.2916   11.8310 H   0  0  0  0  0  0  0  0  0  0  0  0
   -1.8862    6.9311   11.2783 C   0  0  0  0  0  0  0  0  0  0  0  0
   -2.6964    6.6368   11.9281 H   0  0  0  0  0  0  0  0  0  0  0  0
   -2.0037    8.0743   10.4942 C   0  0  0  0  0  0  0  0  0  0  0  0
   -2.9086    8.6621   10.5455 H   0  0  0  0  0  0  0  0  0  0  0  0
   -0.9867    8.4749    9.6535 C   0  0  0  0  0  0  0  0  0  0  0  0
   -1.1227    9.3730    9.0742 H   0  0  0  0  0  0  0  0  0  0  0  0
    1.7840    8.9127    7.8299 C   0  0  0  0  0  0  0  0  0  0  0  0
    0.9913    9.9611    7.3541 C   0  0  0  0  0  0  0  0  0  0  0  0
   -0.0170   10.0774    7.7078 H   0  0  0  0  0  0  0  0  0  0  0  0
    1.4946   10.8451    6.4222 C   0  0  0  0  0  0  0  0  0  0  0  0
    0.8812   11.6551    6.0562 H   0  0  0  0  0  0  0  0  0  0  0  0
    2.7936   10.6776    5.9628 C   0  0  0  0  0  0  0  0  0  0  0  0
    3.2264   11.3472    5.2378 H   0  0  0  0  0  0  0  0  0  0  0  0
    3.5294    9.6164    6.4555 C   0  0  0  0  0  0  0  0  0  0  0  0
    4.5443    9.4374    6.1211 H   0  0  0  0  0  0  0  0  0  0  0  0
    6.6779    4.7480    8.1672 C   0  0  0  0  0  0  0  0  0  0  0  0
    7.8410    5.4360    8.5041 C   0  0  0  0  0  0  0  0  0  0  0  0
    7.7850    6.2641    9.1983 H   0  0  0  0  0  0  0  0  0  0  0  0
    9.0477    5.0714    7.9405 C   0  0  0  0  0  0  0  0  0  0  0  0
    9.9475    5.6103    8.1981 H   0  0  0  0  0  0  0  0  0  0  0  0
    9.1012    4.0220    7.0357 C   0  0  0  0  0  0  0  0  0  0  0  0
   10.0446    3.7406    6.5914 H   0  0  0  0  0  0  0  0  0  0  0  0
    7.9452    3.3413    6.6935 C   0  0  0  0  0  0  0  0  0  0  0  0
    7.9858    2.5286    5.9828 H   0  0  0  0  0  0  0  0  0  0  0  0
    6.7318    3.7038    7.2524 C   0  0  0  0  0  0  0  0  0  0  0  0
    5.8274    3.1788    6.9769 H   0  0  0  0  0  0  0  0  0  0  0  0
    5.5187    5.4127   10.6523 C   0  0  0  0  0  0  0  0  0  0  0  0
    6.2955    4.4435   11.2805 C   0  0  0  0  0  0  0  0  0  0  0  0
    6.7000    3.6211   10.7056 H   0  0  0  0  0  0  0  0  0  0  0  0
    6.5646    4.5495   12.6328 C   0  0  0  0  0  0  0  0  0  0  0  0
    7.1636    3.7956   13.1226 H   0  0  0  0  0  0  0  0  0  0  0  0
    6.0732    5.6233   13.3591 C   0  0  0  0  0  0  0  0  0  0  0  0
    6.2867    5.7005   14.4150 H   0  0  0  0  0  0  0  0  0  0  0  0
    5.3231    6.6040   12.7308 C   0  0  0  0  0  0  0  0  0  0  0  0
    4.9564    7.4491   13.2942 H   0  0  0  0  0  0  0  0  0  0  0  0
    5.0486    6.5006   11.3793 C   0  0  0  0  0  0  0  0  0  0  0  0
    4.4765    7.2667   10.8632 H   0  0  0  0  0  0  0  0  0  0  0  0
    3.9996    3.9103    8.6642 C   0  0  0  0  0  0  0  0  0  0  0  0
    3.8710    2.8425    9.5406 C   0  0  0  0  0  0  0  0  0  0  0  0
    4.4541    2.8113   10.4488 H   0  0  0  0  0  0  0  0  0  0  0  0
    2.9714    1.8287    9.2568 C   0  0  0  0  0  0  0  0  0  0  0  0
    2.8651    1.0005    9.9420 H   0  0  0  0  0  0  0  0  0  0  0  0
    2.2047    1.8746    8.1045 C   0  0  0  0  0  0  0  0  0  0  0  0
    1.5034    1.0814    7.8918 H   0  0  0  0  0  0  0  0  0  0  0  0
    2.3268    2.9428    7.2287 C   0  0  0  0  0  0  0  0  0  0  0  0
    1.7215    2.9834    6.3352 H   0  0  0  0  0  0  0  0  0  0  0  0
    3.2179    3.9592    7.5111 C   0  0  0  0  0  0  0  0  0  0  0  0
    3.3181    4.8194    6.8486 H   0  0  0  0  0  0  0  0  0  0  0  0
    3.0479    8.7640    7.3518 N   0  0  0  0  0  0  0  0  0  0  0  0
    5.1143    5.3303    8.8853 P   0  0  0  0  0  4  0  0  0  0  0  0
    1.8275    5.7788   10.2018 S   0  0  0  0  0  0  0  0  0  0  0  0
    6.0008    7.5816    6.8143 Cl  0  0  0  0  0  0  0  0  0  0  0  0
    4.0864    7.1652    8.0599 Pt  0  0  2  0  0  0  0  0  0  0  0  0
  1 57  1  0  0  0  0
  2  1  1  0  0  0  0
  2  3  1  0  0  0  0
  3 11  2  0  0  0  0
  3  4  1  0  0  0  0
  4  5  2  0  0  0  0
  5  7  1  0  0  0  0
  5  6  1  0  0  0  0
  7  8  1  0  0  0  0
  9 10  1  0  0  0  0
  9  7  2  0  0  0  0
 11  9  1  0  0  0  0
 12 11  1  0  0  0  0
 13  2  2  0  0  0  0
 14 15  1  0  0  0  0
 14 13  1  0  0  0  0
 16 14  2  0  0  0  0
 17 16  1  0  0  0  0
 18 16  1  0  0  0  0
 18 20  2  0  0  0  0
 19 18  1  0  0  0  0
 20 55  1  0  0  0  0
 21 20  1  0  0  0  0
 22 23  1  0  0  0  0
 22 56  1  0  0  0  0
 23 24  1  0  0  0  0
 25 26  1  0  0  0  0
 25 23  2  0  0  0  0
 27 25  1  0  0  0  0
 28 27  1  0  0  0  0
 29 27  2  0  0  0  0
 29 31  1  0  0  0  0
 30 29  1  0  0  0  0
 31 22  2  0  0  0  0
 32 31  1  0  0  0  0
 33 34  2  0  0  0  0
 33 42  1  0  0  0  0
 34 36  1  0  0  0  0
 35 34  1  0  0  0  0
 36 37  1  0  0  0  0
 36 38  2  0  0  0  0
 38 39  1  0  0  0  0
 40 41  1  0  0  0  0
 40 38  1  0  0  0  0
 42 40  2  0  0  0  0
 43 42  1  0  0  0  0
 44 56  1  0  0  0  0
 44 45  1  0  0  0  0
 45 46  1  0  0  0  0
 47 45  2  0  0  0  0
 47 48  1  0  0  0  0
 49 47  1  0  0  0  0
 50 49  1  0  0  0  0
 51 53  1  0  0  0  0
 51 49  2  0  0  0  0
 52 51  1  0  0  0  0
 53 44  2  0  0  0  0
 54 53  1  0  0  0  0
 55 13  1  0  0  0  0
 55 59  1  0  0  0  0
 56 33  1  0  0  0  0
 57  4  1  0  0  0  0
 59 58  1  1  0  0  0
 59 56  1  0  0  0  0
 59  1  2  0  0  0  0
M  END
$$$$
