CSD_code = NURBOT | q = 0 | S = 0 | Stoichiometry = C23H17ClN2Pt | MND = 4
 OpenBabel04212202073D

 44 49  0  0  1  0  0  0  0  0999 V2000
    4.1545   11.9101    9.3756 Cl  0  0  0  0  0  0  0  0  0  0  0  0
    2.7302   11.1706   12.1886 N   0  0  0  0  0  0  0  0  0  0  0  0
    4.6457   10.8751   11.2985 Pt  0  0  1  0  0  0  0  0  0  0  0  0
    1.7051   11.8414   11.6814 C   0  0  0  0  0  0  0  0  0  0  0  0
    1.6655   11.8945   10.6009 H   0  0  0  0  0  0  0  0  0  0  0  0
    0.7439   12.4467   12.4723 C   0  0  0  0  0  0  0  0  0  0  0  0
   -0.0736   12.9825   12.0178 H   0  0  0  0  0  0  0  0  0  0  0  0
    0.8621   12.3518   13.8522 C   0  0  0  0  0  0  0  0  0  0  0  0
    0.1373   12.8190   14.5015 H   0  0  0  0  0  0  0  0  0  0  0  0
    1.9305   11.6539   14.3863 C   0  0  0  0  0  0  0  0  0  0  0  0
    2.0539   11.5830   15.4550 H   0  0  0  0  0  0  0  0  0  0  0  0
    2.8583   11.0661   13.5288 C   0  0  0  0  0  0  0  0  0  0  0  0
    4.0082   10.2791   13.9776 C   0  0  0  0  0  0  0  0  0  0  0  0
    4.9030    9.9742   13.0133 N   0  0  0  0  0  0  0  0  0  0  0  0
    4.1679    9.7890   15.2717 C   0  0  0  0  0  0  0  0  0  0  0  0
    3.4537   10.0340   16.0404 H   0  0  0  0  0  0  0  0  0  0  0  0
    5.2453    8.9703   15.5554 C   0  0  0  0  0  0  0  0  0  0  0  0
    5.4011    8.5987   16.5562 H   0  0  0  0  0  0  0  0  0  0  0  0
    6.0937    8.5889   14.5222 C   0  0  0  0  0  0  0  0  0  0  0  0
    6.9033    7.8991   14.7014 H   0  0  0  0  0  0  0  0  0  0  0  0
    5.8802    9.0911   13.2504 C   0  0  0  0  0  0  0  0  0  0  0  0
    6.6323    8.6057   12.0351 C   0  0  2  0  0  0  0  0  0  0  0  0
    7.3582    7.8463   12.3448 H   0  0  0  0  0  0  0  0  0  0  0  0
    7.3561    9.7603   11.3763 C   0  0  0  0  0  0  0  0  0  0  0  0
    6.6252   10.8720   10.9385 C   0  0  0  0  0  0  0  0  0  0  0  0
    7.3241   11.9240   10.3530 C   0  0  0  0  0  0  0  0  0  0  0  0
    6.7907   12.7943    9.9952 H   0  0  0  0  0  0  0  0  0  0  0  0
    8.7013   11.8717   10.2008 C   0  0  0  0  0  0  0  0  0  0  0  0
    9.2215   12.6998    9.7412 H   0  0  0  0  0  0  0  0  0  0  0  0
    9.4082   10.7640   10.6312 C   0  0  0  0  0  0  0  0  0  0  0  0
   10.4807   10.7181   10.5101 H   0  0  0  0  0  0  0  0  0  0  0  0
    8.7327    9.7093   11.2201 C   0  0  0  0  0  0  0  0  0  0  0  0
    9.2809    8.8392   11.5566 H   0  0  0  0  0  0  0  0  0  0  0  0
    5.5834    7.9495   11.1398 C   0  0  0  0  0  0  0  0  0  0  0  0
    5.3664    8.3327    9.8181 C   0  0  0  0  0  0  0  0  0  0  0  0
    6.0142    9.0527    9.3395 H   0  0  0  0  0  0  0  0  0  0  0  0
    4.3582    7.7336    9.0763 C   0  0  0  0  0  0  0  0  0  0  0  0
    4.1985    8.0446    8.0556 H   0  0  0  0  0  0  0  0  0  0  0  0
    3.5622    6.7504    9.6364 C   0  0  0  0  0  0  0  0  0  0  0  0
    2.7713    6.2949    9.0590 H   0  0  0  0  0  0  0  0  0  0  0  0
    3.7920    6.3444   10.9402 C   0  0  0  0  0  0  0  0  0  0  0  0
    3.1864    5.5660   11.3824 H   0  0  0  0  0  0  0  0  0  0  0  0
    4.7934    6.9407   11.6848 C   0  0  0  0  0  0  0  0  0  0  0  0
    4.9624    6.6210   12.7049 H   0  0  0  0  0  0  0  0  0  0  0  0
  2 12  1  0  0  0  0
  3  1  1  6  0  0  0
  3  2  1  0  0  0  0
  3 14  1  0  0  0  0
  4  2  1  0  0  0  0
  4  6  2  0  0  0  0
  5  4  1  0  0  0  0
  6  8  1  0  0  0  0
  7  6  1  0  0  0  0
  8 10  2  0  0  0  0
  8  9  1  0  0  0  0
 10 11  1  0  0  0  0
 12 13  2  0  0  0  0
 12 10  1  0  0  0  0
 13 15  1  0  0  0  0
 14 21  1  0  0  0  0
 14 13  1  0  0  0  0
 15 17  2  0  0  0  0
 15 16  1  0  0  0  0
 17 18  1  0  0  0  0
 19 20  1  0  0  0  0
 19 17  1  0  0  0  0
 21 19  2  0  0  0  0
 22 23  1  1  0  0  0
 22 21  1  0  0  0  0
 24 22  1  0  0  0  0
 25  3  1  0  0  0  0
 25 24  2  0  0  0  0
 26 25  1  0  0  0  0
 27 26  1  0  0  0  0
 28 26  2  0  0  0  0
 28 30  1  0  0  0  0
 29 28  1  0  0  0  0
 30 32  2  0  0  0  0
 31 30  1  0  0  0  0
 32 24  1  0  0  0  0
 32 33  1  0  0  0  0
 34 43  1  0  0  0  0
 34 22  1  0  0  0  0
 35 34  2  0  0  0  0
 36 35  1  0  0  0  0
 37 39  2  0  0  0  0
 37 35  1  0  0  0  0
 38 37  1  0  0  0  0
 39 41  1  0  0  0  0
 40 39  1  0  0  0  0
 41 42  1  0  0  0  0
 41 43  2  0  0  0  0
 43 44  1  0  0  0  0
M  END
$$$$
