CSD_code = NURGOW | q = 0 | S = 0 | Stoichiometry = C17H22Cl2SiZr | MND = 12
 OpenBabel04212202073D

 43 45  0  0  1  0  0  0  0  0999 V2000
    1.5097    3.1877    2.4618 Zr  0  0  0  0  0  0  0  0  0  0  0  0
    1.0405    3.7489    4.6843 Cl  0  0  0  0  0  0  0  0  0  0  0  0
    3.8139    3.0740    2.8505 Cl  0  0  0  0  0  0  0  0  0  0  0  0
   -0.3438    2.7224   -0.2553 Si  0  0  1  0  0  0  0  0  0  0  0  0
    0.3149    1.5675    1.0907 C   0  0  1  0  0  3  0  0  0  0  0  0
    1.6488    1.0944    1.2392 C   0  0  2  0  0  0  0  0  0  0  0  0
    1.8333    0.7013    2.5878 C   0  0  0  0  0  3  0  0  0  0  0  0
    0.6367    0.9559    3.3002 C   0  0  0  0  0  0  0  0  0  0  0  0
   -0.2827    1.5250    2.3916 C   0  0  0  0  0  0  0  0  0  0  0  0
    2.7047    0.9842    0.1731 C   0  0  0  0  0  0  0  0  0  0  0  0
    0.3708    0.5847    4.7295 C   0  0  0  0  0  0  0  0  0  0  0  0
    0.4537    4.2445    0.5389 C   0  0  1  0  0  3  0  0  0  0  0  0
   -0.0018    4.9219    1.7057 C   0  0  2  0  0  0  0  0  0  0  0  0
    1.0850    5.6524    2.2461 C   0  0  0  0  0  3  0  0  0  0  0  0
    2.2320    5.4089    1.4535 C   0  0  0  0  0  0  0  0  0  0  0  0
    1.8555    4.5137    0.4281 C   0  0  0  0  0  0  0  0  0  0  0  0
   -1.3916    4.9163    2.2820 C   0  0  0  0  0  0  0  0  0  0  0  0
    3.5704    6.0658    1.6225 C   0  0  0  0  0  0  0  0  0  0  0  0
    0.2553    2.4452   -2.0456 C   0  0  0  0  0  0  0  0  0  0  0  0
   -2.2399    2.6937   -0.2500 C   0  0  0  0  0  0  0  0  0  0  0  0
   -2.9888    3.4847   -1.0026 C   0  0  0  0  0  0  0  0  0  0  0  0
    2.7110    0.2029    2.9850 H   0  0  0  0  0  0  0  0  0  0  0  0
   -1.3228    1.7385    2.6140 H   0  0  0  0  0  0  0  0  0  0  0  0
    2.2767    1.1288   -0.8154 H   0  0  0  0  0  0  0  0  0  0  0  0
    3.4966    1.7249    0.3364 H   0  0  0  0  0  0  0  0  0  0  0  0
    3.1691   -0.0023    0.2038 H   0  0  0  0  0  0  0  0  0  0  0  0
    0.0965   -0.4703    4.8008 H   0  0  0  0  0  0  0  0  0  0  0  0
   -0.4449    1.1806    5.1378 H   0  0  0  0  0  0  0  0  0  0  0  0
    1.2593    0.7461    5.3414 H   0  0  0  0  0  0  0  0  0  0  0  0
    1.0260    6.3508    3.0739 H   0  0  0  0  0  0  0  0  0  0  0  0
    2.4908    4.2166   -0.3995 H   0  0  0  0  0  0  0  0  0  0  0  0
   -1.3814    4.5066    3.2986 H   0  0  0  0  0  0  0  0  0  0  0  0
   -1.7822    5.9335    2.3413 H   0  0  0  0  0  0  0  0  0  0  0  0
   -2.0672    4.3290    1.6621 H   0  0  0  0  0  0  0  0  0  0  0  0
    3.5663    7.0562    1.1617 H   0  0  0  0  0  0  0  0  0  0  0  0
    3.8100    6.1845    2.6800 H   0  0  0  0  0  0  0  0  0  0  0  0
    4.3540    5.4717    1.1535 H   0  0  0  0  0  0  0  0  0  0  0  0
   -0.3745    3.0055   -2.7276 H   0  0  0  0  0  0  0  0  0  0  0  0
    1.2778    2.7700   -2.2039 H   0  0  0  0  0  0  0  0  0  0  0  0
    0.1827    1.3993   -2.3241 H   0  0  0  0  0  0  0  0  0  0  0  0
   -2.7365    1.9643    0.3776 H   0  0  0  0  0  0  0  0  0  0  0  0
   -2.5521    4.2284   -1.6483 H   0  0  0  0  0  0  0  0  0  0  0  0
   -4.0669    3.4349   -1.0063 H   0  0  0  0  0  0  0  0  0  0  0  0
  1  3  1  0  0  0  0
  1  2  1  0  0  0  0
  4 20  1  1  0  0  0
  4 12  1  0  0  0  0
  4  5  1  0  0  0  0
  5  6  1  0  0  0  0
  5  9  1  1  0  0  0
  6 10  1  6  0  0  0
  6  1  1  0  0  0  0
  6  7  1  0  0  0  0
  7 22  1  0  0  0  0
  7  8  1  0  0  0  0
  8 11  1  0  0  0  0
  9 23  1  0  0  0  0
  9  8  2  0  0  0  0
 10 26  1  0  0  0  0
 10 25  1  0  0  0  0
 11 27  1  0  0  0  0
 11 28  1  0  0  0  0
 11 29  1  0  0  0  0
 12 16  1  1  0  0  0
 12 13  1  0  0  0  0
 13 14  1  0  0  0  0
 13 17  1  1  0  0  0
 13  1  1  0  0  0  0
 14 30  1  0  0  0  0
 15 18  1  0  0  0  0
 15 14  1  0  0  0  0
 16 15  2  0  0  0  0
 17 33  1  0  0  0  0
 17 32  1  0  0  0  0
 18 36  1  0  0  0  0
 19  4  1  0  0  0  0
 20 41  1  0  0  0  0
 21 20  2  0  0  0  0
 24 10  1  0  0  0  0
 31 16  1  0  0  0  0
 34 17  1  0  0  0  0
 35 18  1  0  0  0  0
 37 18  1  0  0  0  0
 38 19  1  0  0  0  0
 39 19  1  0  0  0  0
 40 19  1  0  0  0  0
 42 21  1  0  0  0  0
 43 21  1  0  0  0  0
M  END
$$$$
