CSD_code = NURLES | q = 0 | S = 0 | Stoichiometry = C24H34ClF3Ti | MND = 12
 OpenBabel04212202073D

 63 65  0  0  1  0  0  0  0  0999 V2000
   10.1863    9.9834   11.6196 Ti  0  0  0  0  0  0  0  0  0  0  0  0
   12.3256    9.8588   10.9480 Cl  0  0  0  0  0  0  0  0  0  0  0  0
   10.7249   10.2402   13.5664 C   0  0  0  0  0  0  0  0  0  0  0  0
   11.8317   10.3048   14.2839 C   0  0  0  0  0  0  0  0  0  0  0  0
    9.9193   11.5594    9.9684 C   0  0  2  0  0  0  0  0  0  0  0  0
   10.7107   12.1947   10.9611 C   0  0  0  0  0  0  0  0  0  0  0  0
    9.9238   12.3220   12.1359 C   0  0  0  0  0  0  0  0  0  0  0  0
    8.6263   11.8076   11.8557 C   0  0  2  0  0  3  0  0  0  0  0  0
    8.6076   11.3684   10.5037 C   0  0  1  0  0  3  0  0  0  0  0  0
   10.1167    7.9102   10.5083 C   0  0  1  0  0  0  0  0  0  0  0  0
   10.6518    7.6545   11.7964 C   0  0  0  0  0  0  0  0  0  0  0  0
    9.6502    7.9511   12.7599 C   0  0  0  0  0  0  0  0  0  0  0  0
    8.4974    8.4102   12.0663 C   0  0  2  0  0  0  0  0  0  0  0  0
    8.7716    8.3513   10.6656 C   0  0  2  0  0  3  0  0  0  0  0  0
   10.3477   11.3292    8.5489 C   0  0  0  0  0  0  0  0  0  0  0  0
    9.6397   10.6922    8.0211 H   0  0  0  0  0  0  0  0  0  0  0  0
   11.3312   10.8570    8.5211 H   0  0  0  0  0  0  0  0  0  0  0  0
   10.4133   12.2799    8.0142 H   0  0  0  0  0  0  0  0  0  0  0  0
   12.0494   12.8369   10.7682 C   0  0  0  0  0  0  0  0  0  0  0  0
   11.9209   13.9208   10.7090 H   0  0  0  0  0  0  0  0  0  0  0  0
   12.5228   12.4918    9.8527 H   0  0  0  0  0  0  0  0  0  0  0  0
   12.7168   12.6186   11.6019 H   0  0  0  0  0  0  0  0  0  0  0  0
   10.2930   13.1652   13.3191 C   0  0  0  0  0  0  0  0  0  0  0  0
   10.0707   14.2116   13.0929 H   0  0  0  0  0  0  0  0  0  0  0  0
   11.3566   13.0909   13.5418 H   0  0  0  0  0  0  0  0  0  0  0  0
    9.7268   12.8873   14.2054 H   0  0  0  0  0  0  0  0  0  0  0  0
    7.4339   12.0277   12.7384 C   0  0  0  0  0  0  0  0  0  0  0  0
    7.6197   11.6903   13.7565 H   0  0  0  0  0  0  0  0  0  0  0  0
    6.5542   11.5157   12.3580 H   0  0  0  0  0  0  0  0  0  0  0  0
    7.2113   13.0966   12.7847 H   0  0  0  0  0  0  0  0  0  0  0  0
    7.3615   11.3111    9.6649 C   0  0  0  0  0  0  0  0  0  0  0  0
    6.5279   10.8746   10.2183 H   0  0  0  0  0  0  0  0  0  0  0  0
    7.5178   10.7278    8.7577 H   0  0  0  0  0  0  0  0  0  0  0  0
    6.9797   12.7393    9.2554 C   0  0  0  0  0  0  0  0  0  0  0  0
    6.7879   13.3496   10.1340 H   0  0  0  0  0  0  0  0  0  0  0  0
    6.0851   12.7284    8.6365 H   0  0  0  0  0  0  0  0  0  0  0  0
    7.7882   13.1974    8.6910 H   0  0  0  0  0  0  0  0  0  0  0  0
   10.7957    7.5783    9.2131 C   0  0  0  0  0  0  0  0  0  0  0  0
   11.8070    7.9852    9.1939 H   0  0  0  0  0  0  0  0  0  0  0  0
   10.2451    7.9793    8.3643 H   0  0  0  0  0  0  0  0  0  0  0  0
   10.8666    6.4944    9.0961 H   0  0  0  0  0  0  0  0  0  0  0  0
   11.9645    7.0077   12.1099 C   0  0  0  0  0  0  0  0  0  0  0  0
   11.7953    5.9849   12.4550 H   0  0  0  0  0  0  0  0  0  0  0  0
   12.4906    7.5488   12.8973 H   0  0  0  0  0  0  0  0  0  0  0  0
   12.6038    6.9785   11.2316 H   0  0  0  0  0  0  0  0  0  0  0  0
    9.6989    7.5102   14.1924 C   0  0  0  0  0  0  0  0  0  0  0  0
    8.9837    8.0511   14.8076 H   0  0  0  0  0  0  0  0  0  0  0  0
   10.6938    7.6363   14.6173 H   0  0  0  0  0  0  0  0  0  0  0  0
    9.4486    6.4470   14.2400 H   0  0  0  0  0  0  0  0  0  0  0  0
    7.1540    8.5939   12.7065 C   0  0  0  0  0  0  0  0  0  0  0  0
    6.7386    7.6193   12.9754 H   0  0  0  0  0  0  0  0  0  0  0  0
    6.4538    9.0821   12.0326 H   0  0  0  0  0  0  0  0  0  0  0  0
    7.2315    9.1837   13.6188 H   0  0  0  0  0  0  0  0  0  0  0  0
    7.7268    8.1803    9.5976 C   0  0  0  0  0  0  0  0  0  0  0  0
    8.0838    8.5385    8.6291 H   0  0  0  0  0  0  0  0  0  0  0  0
    6.8125    8.7167    9.8484 H   0  0  0  0  0  0  0  0  0  0  0  0
    7.3840    6.6904    9.4732 C   0  0  0  0  0  0  0  0  0  0  0  0
    8.2635    6.1169    9.1931 H   0  0  0  0  0  0  0  0  0  0  0  0
    6.6157    6.5417    8.7174 H   0  0  0  0  0  0  0  0  0  0  0  0
    7.0160    6.3096   10.4229 H   0  0  0  0  0  0  0  0  0  0  0  0
    9.5629   10.3899   14.3173 F   0  0  0  0  0  0  0  0  0  0  0  0
   11.9421   10.4910   15.6143 F   0  0  0  0  0  0  0  0  0  0  0  0
   13.0555   10.1907   13.7554 F   0  0  0  0  0  0  0  0  0  0  0  0
  1 13  1  0  0  0  0
  1  3  1  0  0  0  0
  2  1  1  0  0  0  0
  3  4  2  0  0  0  0
  3 61  1  0  0  0  0
  4 62  1  0  0  0  0
  5 15  1  6  0  0  0
  5  9  1  0  0  0  0
  5  6  1  0  0  0  0
  5  1  1  0  0  0  0
  6  7  2  0  0  0  0
  7 23  1  0  0  0  0
  8  7  1  0  0  0  0
  8 27  1  6  0  0  0
  9 31  1  6  0  0  0
  9  8  1  0  0  0  0
 10 38  1  6  0  0  0
 10 14  1  0  0  0  0
 10  1  1  0  0  0  0
 10 11  1  0  0  0  0
 11 42  1  0  0  0  0
 11 12  2  0  0  0  0
 12 46  1  0  0  0  0
 13 50  1  1  0  0  0
 13 12  1  0  0  0  0
 14 54  1  6  0  0  0
 14 13  1  0  0  0  0
 16 15  1  0  0  0  0
 17 15  1  0  0  0  0
 18 15  1  0  0  0  0
 19  6  1  0  0  0  0
 19 22  1  0  0  0  0
 20 19  1  0  0  0  0
 21 19  1  0  0  0  0
 23 25  1  0  0  0  0
 23 26  1  0  0  0  0
 24 23  1  0  0  0  0
 27 30  1  0  0  0  0
 27 28  1  0  0  0  0
 29 27  1  0  0  0  0
 31 32  1  0  0  0  0
 33 31  1  0  0  0  0
 34 31  1  0  0  0  0
 34 35  1  0  0  0  0
 36 34  1  0  0  0  0
 37 34  1  0  0  0  0
 39 38  1  0  0  0  0
 40 38  1  0  0  0  0
 41 38  1  0  0  0  0
 42 43  1  0  0  0  0
 42 44  1  0  0  0  0
 45 42  1  0  0  0  0
 46 49  1  0  0  0  0
 46 48  1  0  0  0  0
 46 47  1  0  0  0  0
 50 51  1  0  0  0  0
 50 53  1  0  0  0  0
 52 50  1  0  0  0  0
 54 56  1  0  0  0  0
 55 54  1  0  0  0  0
 57 54  1  0  0  0  0
 57 60  1  0  0  0  0
 58 57  1  0  0  0  0
 59 57  1  0  0  0  0
 63  4  1  0  0  0  0
M  END
$$$$
