CSD_code = NURYAB | q = 0 | S = 0 | Stoichiometry = C16H12AuClN6 | MND = 5
 OpenBabel04212202073D

 36 41  0  0  1  0  0  0  0  0999 V2000
    9.8419    8.3986    4.4756 Au  0  0  0  0  0  0  0  0  0  0  0  0
    8.3552    8.4212    3.0813 N   0  0  0  0  0  0  0  0  0  0  0  0
    8.3609    9.5485    2.3343 C   0  0  2  0  0  3  0  0  0  0  0  0
    7.5794    9.6385    1.1819 C   0  0  0  0  0  0  0  0  0  0  0  0
    7.6077   10.5467    0.6021 H   0  0  0  0  0  0  0  0  0  0  0  0
    6.8113    8.5587    0.8022 C   0  0  0  0  0  0  0  0  0  0  0  0
    6.2067    8.6055   -0.0908 H   0  0  0  0  0  0  0  0  0  0  0  0
    6.8373    7.4031    1.5778 C   0  0  0  0  0  0  0  0  0  0  0  0
    6.2580    6.5358    1.3078 H   0  0  0  0  0  0  0  0  0  0  0  0
    7.6276    7.3713    2.7077 C   0  0  0  0  0  0  0  0  0  0  0  0
    7.7052    6.4929    3.3405 H   0  0  0  0  0  0  0  0  0  0  0  0
   10.7668   11.2321    4.2504 N   0  0  0  0  0  0  0  0  0  0  0  0
    9.9912   10.2362    3.8957 N   0  0  0  0  0  0  0  0  0  0  0  0
    9.2326   10.5691    2.8166 C   0  0  0  0  0  0  0  0  0  0  0  0
    9.5569   11.8813    2.4776 C   0  0  0  0  0  0  0  0  0  0  0  0
    9.1583   12.4740    1.6804 H   0  0  0  0  0  0  0  0  0  0  0  0
   10.5242   12.2376    3.4123 C   0  0  0  0  0  0  0  0  0  0  0  0
   11.0477   13.1664    3.5225 H   0  0  0  0  0  0  0  0  0  0  0  0
   11.2161    8.4269    5.9806 N   0  0  0  0  0  0  0  0  0  0  0  0
   11.4227    7.2034    6.5184 C   0  0  2  0  0  3  0  0  0  0  0  0
   12.4919    6.9832    7.3875 C   0  0  0  0  0  0  0  0  0  0  0  0
   12.6364    5.9968    7.7972 H   0  0  0  0  0  0  0  0  0  0  0  0
   13.3474    8.0234    7.6809 C   0  0  0  0  0  0  0  0  0  0  0  0
   14.1853    7.8711    8.3442 H   0  0  0  0  0  0  0  0  0  0  0  0
   13.1243    9.2683    7.0993 C   0  0  0  0  0  0  0  0  0  0  0  0
   13.7768   10.1025    7.2971 H   0  0  0  0  0  0  0  0  0  0  0  0
   12.0504    9.4285    6.2488 C   0  0  0  0  0  0  0  0  0  0  0  0
   11.8366   10.3685    5.7502 H   0  0  0  0  0  0  0  0  0  0  0  0
    8.7921    5.6216    4.8237 N   0  0  0  0  0  0  0  0  0  0  0  0
    9.5903    6.6073    5.1560 N   0  0  0  0  0  0  0  0  0  0  0  0
   10.4908    6.2101    6.0955 C   0  0  0  0  0  0  0  0  0  0  0  0
   10.2259    4.8710    6.3757 C   0  0  0  0  0  0  0  0  0  0  0  0
   10.7337    4.2288    7.0652 H   0  0  0  0  0  0  0  0  0  0  0  0
    9.1527    4.5626    5.5453 C   0  0  0  0  0  0  0  0  0  0  0  0
    8.6243    3.6361    5.4397 H   0  0  0  0  0  0  0  0  0  0  0  0
   11.5761    7.6130    2.7634 Cl  0  0  0  0  0  0  0  0  0  0  0  0
  1 30  1  0  0  0  0
  1 19  1  0  0  0  0
  2  1  1  0  0  0  0
  3  4  1  6  0  0  0
  3 14  1  0  0  0  0
  3  2  1  0  0  0  0
  5  4  1  0  0  0  0
  6  4  2  0  0  0  0
  6  8  1  0  0  0  0
  7  6  1  0  0  0  0
  8 10  2  0  0  0  0
  9  8  1  0  0  0  0
 10  2  1  0  0  0  0
 10 11  1  0  0  0  0
 13 12  1  0  0  0  0
 13  1  1  0  0  0  0
 14 13  1  0  0  0  0
 15 14  2  0  0  0  0
 15 17  1  0  0  0  0
 16 15  1  0  0  0  0
 17 18  1  0  0  0  0
 17 12  2  0  0  0  0
 19 27  1  0  0  0  0
 19 20  1  0  0  0  0
 20 31  1  6  0  0  0
 20 21  1  0  0  0  0
 21 23  2  0  0  0  0
 21 22  1  0  0  0  0
 23 24  1  0  0  0  0
 25 26  1  0  0  0  0
 25 23  1  0  0  0  0
 27 25  2  0  0  0  0
 28 27  1  0  0  0  0
 29 30  1  0  0  0  0
 29 34  2  0  0  0  0
 30 31  1  0  0  0  0
 31 32  2  0  0  0  0
 32 33  1  0  0  0  0
 34 32  1  0  0  0  0
 35 34  1  0  0  0  0
 36  1  1  0  0  0  0
M  END
$$$$
