CSD_code = NUSHOY | q = 0 | S = 0 | Stoichiometry = C17H17Cl2N3O4PtS | MND = 5
 OpenBabel04212202073D

 45 45  0  0  1  0  0  0  0  0999 V2000
    1.8563    5.6449    2.0656 Pt  0  0  0  0  0  0  0  0  0  0  0  0
   -0.2950    6.4342    1.5807 Cl  0  0  0  0  0 15  0  0  0  0  0  0
    3.8734    4.6537    2.6279 Cl  0  0  0  0  0 15  0  0  0  0  0  0
    1.6165    8.6171    5.5592 S   0  0  0  0  0  0  0  0  0  0  0  0
    2.8288    7.8832    5.7387 O   0  0  0  0  0  0  0  0  0  0  0  0
    1.5822    9.6537    4.5728 O   0  0  0  0  0  0  0  0  0  0  0  0
   -0.0662    4.2346    6.6608 O   0  0  0  0  0  0  0  0  0  0  0  0
    0.1741    6.0042    8.5453 O   0  0  0  0  0  0  0  0  0  0  0  0
    0.0491    5.1081    8.1379 H   0  0  0  0  0  0  0  0  0  0  0  0
    0.4259    7.4951    5.2029 N   0  0  0  0  0  0  0  0  0  0  0  0
    0.4518    4.9297    4.5381 N   0  0  0  0  0  0  0  0  0  0  0  0
    0.7412    5.7723    4.0164 H   0  0  0  0  0  0  0  0  0  0  0  0
    1.0263    3.8971    2.5816 N   0  0  0  0  0  0  0  0  0  0  0  0
    0.2918    6.5420    6.2443 C   0  0  0  0  0  0  0  0  0  0  0  0
    0.3219    6.8923    7.5665 C   0  0  0  0  0  0  0  0  0  0  0  0
    0.0917    8.6950    9.2684 C   0  0  0  0  0  0  0  0  0  0  0  0
   -0.3321    7.9677    9.9427 H   0  0  0  0  0  0  0  0  0  0  0  0
    0.2383   10.0177    9.6435 C   0  0  0  0  0  0  0  0  0  0  0  0
   -0.0737   10.3296   10.6287 H   0  0  0  0  0  0  0  0  0  0  0  0
    0.7800   10.9465    8.7659 C   0  0  0  0  0  0  0  0  0  0  0  0
    0.8843   11.9781    9.0646 H   0  0  0  0  0  0  0  0  0  0  0  0
    1.1963   10.5444    7.5055 C   0  0  0  0  0  0  0  0  0  0  0  0
    1.6285   11.2350    6.7990 H   0  0  0  0  0  0  0  0  0  0  0  0
    1.0568    9.2235    7.1398 C   0  0  0  0  0  0  0  0  0  0  0  0
    0.4940    8.2817    7.9972 C   0  0  0  0  0  0  0  0  0  0  0  0
   -0.8078    8.0245    4.6467 C   0  0  0  0  0  0  0  0  0  0  0  0
   -0.5307    8.8723    4.0255 H   0  0  0  0  0  0  0  0  0  0  0  0
   -1.4976    8.3538    5.4298 H   0  0  0  0  0  0  0  0  0  0  0  0
   -1.2897    7.2728    4.0226 H   0  0  0  0  0  0  0  0  0  0  0  0
    0.1914    5.1318    5.8608 C   0  0  0  0  0  0  0  0  0  0  0  0
    0.5014    3.7678    3.8100 C   0  0  2  0  0  3  0  0  0  0  0  0
    0.0346    2.5367    4.2731 C   0  0  0  0  0  0  0  0  0  0  0  0
   -0.3624    2.4679    5.2720 H   0  0  0  0  0  0  0  0  0  0  0  0
    0.1124    1.4424    3.4361 C   0  0  0  0  0  0  0  0  0  0  0  0
   -0.2383    0.4792    3.7724 H   0  0  0  0  0  0  0  0  0  0  0  0
    0.6444    1.5939    2.1604 C   0  0  0  0  0  0  0  0  0  0  0  0
    0.7156    0.7603    1.4819 H   0  0  0  0  0  0  0  0  0  0  0  0
    1.0961    2.8398    1.7755 C   0  0  0  0  0  0  0  0  0  0  0  0
    1.5335    3.0085    0.7982 H   0  0  0  0  0  0  0  0  0  0  0  0
    2.6918    7.6314    2.1932 C   0  0  0  0  0  3  0  0  0  0  0  0
    1.9040    8.3332    2.4528 H   0  0  0  0  0  0  0  0  0  0  0  0
    3.5182    7.5831    2.8974 H   0  0  0  0  0  0  0  0  0  0  0  0
    2.8348    7.1744    0.9032 C   0  0  0  0  0  0  0  0  0  0  0  0
    2.1554    7.5122    0.1239 H   0  0  0  0  0  0  0  0  0  0  0  0
    3.7861    6.7694    0.5665 H   0  0  0  0  0  0  0  0  0  0  0  0
  1 13  1  0  0  0  0
  4  5  2  0  0  0  0
  4 24  1  0  0  0  0
  6  4  2  0  0  0  0
  9  8  1  0  0  0  0
 10  4  1  0  0  0  0
 10 14  1  0  0  0  0
 11 30  1  0  0  0  0
 12 11  1  0  0  0  0
 13 31  1  0  0  0  0
 14 15  2  0  0  0  0
 15 25  1  0  0  0  0
 15  8  1  0  0  0  0
 16 18  1  0  0  0  0
 16 17  1  0  0  0  0
 18 19  1  0  0  0  0
 20 21  1  0  0  0  0
 20 18  2  0  0  0  0
 22 20  1  0  0  0  0
 23 22  1  0  0  0  0
 24 22  2  0  0  0  0
 24 25  1  0  0  0  0
 25 16  2  0  0  0  0
 26 10  1  0  0  0  0
 26 28  1  0  0  0  0
 27 26  1  0  0  0  0
 29 26  1  0  0  0  0
 30 14  1  0  0  0  0
 30  7  2  0  0  0  0
 31 32  1  0  0  0  0
 31 11  1  6  0  0  0
 32 33  1  0  0  0  0
 34 35  1  0  0  0  0
 34 32  2  0  0  0  0
 36 34  1  0  0  0  0
 37 36  1  0  0  0  0
 38 36  2  0  0  0  0
 38 13  1  0  0  0  0
 39 38  1  0  0  0  0
 40 41  1  0  0  0  0
 40 42  1  0  0  0  0
 43  1  1  0  0  0  0
 43 40  1  0  0  0  0
 44 43  1  0  0  0  0
 45 43  1  0  0  0  0
M  END
$$$$
