CSD_code = NUSVOM | q = -1 | S = 0 | Stoichiometry = C5H3Br2NO3Re(1-) | MND = 6
 OpenBabel04212202073D

 15 14  0  0  0  0  0  0  0  0999 V2000
   -0.7498    2.4154    2.3341 Re  0  0  0  0  0  0  0  0  0  0  0  0
   -0.2217    0.4637    4.0159 Br  0  0  0  0  0  0  0  0  0  0  0  0
   -0.3289    4.2157    4.2050 Br  0  0  0  0  0  0  0  0  0  0  0  0
   -1.2011    3.8718    1.1410 C   0  0  0  0  0  2  0  0  0  0  0  0
   -1.1218    1.0643    0.9984 C   0  0  0  0  0  2  0  0  0  0  0  0
    1.1542    2.4901    1.9358 C   0  0  0  0  0  2  0  0  0  0  0  0
   -1.4564    4.7368    0.4211 O   0  0  0  0  0  1  0  0  0  0  0  0
   -1.3298    0.2640    0.1935 O   0  0  0  0  0  1  0  0  0  0  0  0
    2.2964    2.5289    1.8126 O   0  0  0  0  0  1  0  0  0  0  0  0
   -2.6057    2.3205    3.1531 N   0  0  0  0  0  2  0  0  0  0  0  0
   -3.3763    2.2515    4.0026 C   0  0  0  0  0  2  0  0  0  0  0  0
   -4.3179    2.1635    5.0780 C   0  0  0  0  0  0  0  0  0  0  0  0
   -4.2439    3.0645    5.6881 H   0  0  0  0  0  0  0  0  0  0  0  0
   -5.3311    2.0635    4.6878 H   0  0  0  0  0  0  0  0  0  0  0  0
   -4.0709    1.2953    5.6903 H   0  0  0  0  0  0  0  0  0  0  0  0
  1 10  1  0  0  0  0
  1  2  1  0  0  0  0
  1  3  1  0  0  0  0
  4  1  1  0  0  0  0
  5  1  1  0  0  0  0
  6  1  1  0  0  0  0
  7  4  1  0  0  0  0
  8  5  1  0  0  0  0
  9  6  1  0  0  0  0
 10 11  1  0  0  0  0
 11 12  1  0  0  0  0
 12 13  1  0  0  0  0
 12 15  1  0  0  0  0
 14 12  1  0  0  0  0
M  END
$$$$
