CSD_code = NUTBEK | q = 0 | S = 0 | Stoichiometry = C16H28Br2N6Ni | MND = 4
 OpenBabel04212202073D

 53 54  0  0  0  0  0  0  0  0999 V2000
   14.0504    2.5188    1.0578 Br  0  0  0  0  0  0  0  0  0  0  0  0
   10.3894    1.2874    3.1077 Br  0  0  0  0  0  0  0  0  0  0  0  0
   12.4833    1.5836    2.3368 Ni  0  0  0  0  0  0  0  0  0  0  0  0
   13.0979   -0.6510    2.1724 N   0  0  0  0  0  0  0  0  0  0  0  0
   11.7556   -1.4910    0.5057 N   0  0  0  0  0  0  0  0  0  0  0  0
   12.4239   -2.9206    2.2100 N   0  0  0  0  0  0  0  0  0  0  0  0
   13.4074    1.3677    3.9951 N   0  0  0  0  0  0  0  0  0  0  0  0
   12.5754    3.2087    5.1530 N   0  0  0  0  0  0  0  0  0  0  0  0
   13.0315    1.2621    6.3143 N   0  0  0  0  0  0  0  0  0  0  0  0
   14.1927   -0.7072    3.0121 C   0  0  0  0  0  0  0  0  0  0  0  0
   15.2079   -1.6546    2.8827 C   0  0  0  0  0  0  0  0  0  0  0  0
   15.1140   -2.4190    2.1247 H   0  0  0  0  0  0  0  0  0  0  0  0
   16.3368   -1.5931    3.6757 C   0  0  0  0  0  0  0  0  0  0  0  0
   17.1126   -2.3357    3.5619 H   0  0  0  0  0  0  0  0  0  0  0  0
   16.4857   -0.5717    4.6001 C   0  0  0  0  0  0  0  0  0  0  0  0
   17.3734   -0.5167    5.2120 H   0  0  0  0  0  0  0  0  0  0  0  0
   15.5102    0.4002    4.7190 C   0  0  0  0  0  0  0  0  0  0  0  0
   15.6433    1.2272    5.4025 H   0  0  0  0  0  0  0  0  0  0  0  0
   14.3569    0.3443    3.9427 C   0  0  0  0  0  0  0  0  0  0  0  0
   12.4664   -1.6642    1.6662 C   0  0  0  0  0  3  0  0  0  0  0  0
   12.0073   -0.2739   -0.2332 C   0  0  0  0  0  0  0  0  0  0  0  0
   11.5982    0.6157    0.2796 H   0  0  0  0  0  0  0  0  0  0  0  0
   11.5315   -0.3494   -1.2096 H   0  0  0  0  0  0  0  0  0  0  0  0
   13.0804   -0.1408   -0.3646 H   0  0  0  0  0  0  0  0  0  0  0  0
   10.3712   -1.9213    0.4480 C   0  0  0  0  0  0  0  0  0  0  0  0
   10.1780   -2.6927    1.1867 H   0  0  0  0  0  0  0  0  0  0  0  0
   10.1461   -2.3085   -0.5474 H   0  0  0  0  0  0  0  0  0  0  0  0
    9.7037   -1.0786    0.6576 H   0  0  0  0  0  0  0  0  0  0  0  0
   12.3369   -4.1068    1.3943 C   0  0  0  0  0  0  0  0  0  0  0  0
   12.3273   -3.8337    0.3427 H   0  0  0  0  0  0  0  0  0  0  0  0
   11.4381   -4.6871    1.6258 H   0  0  0  0  0  0  0  0  0  0  0  0
   13.2084   -4.7421    1.5854 H   0  0  0  0  0  0  0  0  0  0  0  0
   12.6319   -3.1567    3.6135 C   0  0  0  0  0  0  0  0  0  0  0  0
   13.6442   -3.5159    3.8324 H   0  0  0  0  0  0  0  0  0  0  0  0
   11.9126   -3.9059    3.9544 H   0  0  0  0  0  0  0  0  0  0  0  0
   12.4630   -2.2377    4.1687 H   0  0  0  0  0  0  0  0  0  0  0  0
   13.0177    1.9240    5.1166 C   0  0  0  0  0  3  0  0  0  0  0  0
   12.8095    4.0710    4.0158 C   0  0  0  0  0  0  0  0  0  0  0  0
   13.8475    3.9835    3.6938 H   0  0  0  0  0  0  0  0  0  0  0  0
   12.6164    5.0994    4.3160 H   0  0  0  0  0  0  0  0  0  0  0  0
   12.1439    3.8313    3.1622 H   0  0  0  0  0  0  0  0  0  0  0  0
   11.4121    3.5645    5.9403 C   0  0  0  0  0  0  0  0  0  0  0  0
   11.1415    2.7506    6.6055 H   0  0  0  0  0  0  0  0  0  0  0  0
   10.5635    3.7525    5.2769 H   0  0  0  0  0  0  0  0  0  0  0  0
   11.6130    4.4646    6.5244 H   0  0  0  0  0  0  0  0  0  0  0  0
   13.4707    1.9018    7.5313 C   0  0  0  0  0  0  0  0  0  0  0  0
   14.3762    1.4079    7.8993 H   0  0  0  0  0  0  0  0  0  0  0  0
   12.7040    1.8335    8.3076 H   0  0  0  0  0  0  0  0  0  0  0  0
   13.6949    2.9478    7.3415 H   0  0  0  0  0  0  0  0  0  0  0  0
   12.8825   -0.1679    6.3813 C   0  0  0  0  0  0  0  0  0  0  0  0
   12.3182   -0.5063    5.5149 H   0  0  0  0  0  0  0  0  0  0  0  0
   12.3137   -0.4126    7.2805 H   0  0  0  0  0  0  0  0  0  0  0  0
   13.8433   -0.6942    6.4152 H   0  0  0  0  0  0  0  0  0  0  0  0
  1  3  1  0  0  0  0
  3  2  1  0  0  0  0
  3  7  1  0  0  0  0
  4  3  1  0  0  0  0
  4 10  1  0  0  0  0
  5 20  1  0  0  0  0
  6 33  1  0  0  0  0
  7 37  1  0  0  0  0
  8 42  1  0  0  0  0
  9 50  1  0  0  0  0
  9 46  1  0  0  0  0
 10 19  1  0  0  0  0
 11 10  2  0  0  0  0
 11 13  1  0  0  0  0
 12 11  1  0  0  0  0
 13 15  2  0  0  0  0
 14 13  1  0  0  0  0
 15 17  1  0  0  0  0
 15 16  1  0  0  0  0
 17 18  1  0  0  0  0
 19  7  1  0  0  0  0
 19 17  2  0  0  0  0
 20  4  1  0  0  0  0
 20  6  1  0  0  0  0
 21 22  1  0  0  0  0
 21  5  1  0  0  0  0
 23 21  1  0  0  0  0
 24 21  1  0  0  0  0
 25  5  1  0  0  0  0
 25 28  1  0  0  0  0
 25 26  1  0  0  0  0
 27 25  1  0  0  0  0
 29 32  1  0  0  0  0
 29 31  1  0  0  0  0
 29  6  1  0  0  0  0
 30 29  1  0  0  0  0
 33 34  1  0  0  0  0
 33 35  1  0  0  0  0
 33 36  1  0  0  0  0
 37  8  1  0  0  0  0
 37  9  1  0  0  0  0
 38 40  1  0  0  0  0
 38  8  1  0  0  0  0
 39 38  1  0  0  0  0
 41 38  1  0  0  0  0
 42 45  1  0  0  0  0
 42 43  1  0  0  0  0
 44 42  1  0  0  0  0
 46 47  1  0  0  0  0
 46 48  1  0  0  0  0
 49 46  1  0  0  0  0
 50 53  1  0  0  0  0
 50 52  1  0  0  0  0
 51 50  1  0  0  0  0
M  END
$$$$
