CSD_code = NUTLUK | q = 0 | S = 0 | Stoichiometry = C16H30Cl2N2O6P2Pt | MND = 4
 OpenBabel04212202073D

 59 60  0  0  0  0  0  0  0  0999 V2000
    2.9792    6.1754   -1.1489 C   0  0  0  0  0  3  0  0  0  0  0  0
    1.9287    6.4109   -1.0549 H   0  0  0  0  0  0  0  0  0  0  0  0
    3.9453    7.1591   -1.0691 C   0  0  0  0  0  0  0  0  0  0  0  0
    3.6553    8.1822   -0.8937 H   0  0  0  0  0  0  0  0  0  0  0  0
    5.2764    6.8037   -1.2097 C   0  0  0  0  0  0  0  0  0  0  0  0
    6.0598    7.5431   -1.1456 H   0  0  0  0  0  0  0  0  0  0  0  0
    5.5821    5.4716   -1.4285 C   0  0  0  0  0  0  0  0  0  0  0  0
    6.6063    5.1510   -1.5390 H   0  0  0  0  0  0  0  0  0  0  0  0
    4.5612    4.5363   -1.4960 C   0  0  0  0  0  0  0  0  0  0  0  0
    4.8554    3.0731   -1.6615 C   0  0  0  0  0  0  0  0  0  0  0  0
    5.8925    2.9334   -1.9660 H   0  0  0  0  0  0  0  0  0  0  0  0
    4.2014    2.6449   -2.4304 H   0  0  0  0  0  0  0  0  0  0  0  0
    4.6078    2.3498   -0.3278 C   0  0  0  0  0  0  0  0  0  0  0  0
    5.1027    1.3742   -0.3335 H   0  0  0  0  0  0  0  0  0  0  0  0
    5.0280    2.9500    0.4819 H   0  0  0  0  0  0  0  0  0  0  0  0
    2.7596    2.3075    1.2891 C   0  0  0  0  0  0  0  0  0  0  0  0
    1.7231    1.9604    1.3772 H   0  0  0  0  0  0  0  0  0  0  0  0
    6.0804    1.9343    3.4596 C   0  0  0  0  0  0  0  0  0  0  0  0
    6.7451    2.7963    3.3556 H   0  0  0  0  0  0  0  0  0  0  0  0
    6.4384    1.1147    2.8267 H   0  0  0  0  0  0  0  0  0  0  0  0
    5.9907    1.4796    4.9050 C   0  0  0  0  0  0  0  0  0  0  0  0
    5.5838    2.2755    5.5236 H   0  0  0  0  0  0  0  0  0  0  0  0
    6.9786    1.2098    5.2691 H   0  0  0  0  0  0  0  0  0  0  0  0
    5.3353    0.6148    4.9730 H   0  0  0  0  0  0  0  0  0  0  0  0
    2.1818   -0.2894    3.7682 C   0  0  0  0  0  0  0  0  0  0  0  0
    2.6355   -0.9861    3.0564 H   0  0  0  0  0  0  0  0  0  0  0  0
    1.1348   -0.1257    3.4935 H   0  0  0  0  0  0  0  0  0  0  0  0
    2.2803   -0.8275    5.1858 C   0  0  0  0  0  0  0  0  0  0  0  0
    3.3157   -1.0422    5.4386 H   0  0  0  0  0  0  0  0  0  0  0  0
    1.6999   -1.7420    5.2687 H   0  0  0  0  0  0  0  0  0  0  0  0
    1.8934   -0.0944    5.8887 H   0  0  0  0  0  0  0  0  0  0  0  0
    3.1926    4.6644    4.3508 C   0  0  0  0  0  0  0  0  0  0  0  0
    4.2427    4.7384    4.0553 H   0  0  0  0  0  0  0  0  0  0  0  0
    3.1136    4.1309    5.3017 H   0  0  0  0  0  0  0  0  0  0  0  0
    2.5758    6.0501    4.4339 C   0  0  0  0  0  0  0  0  0  0  0  0
    2.6509    6.5296    3.4597 H   0  0  0  0  0  0  0  0  0  0  0  0
    3.1046    6.6494    5.1704 H   0  0  0  0  0  0  0  0  0  0  0  0
    1.5274    5.9841    4.7156 H   0  0  0  0  0  0  0  0  0  0  0  0
    0.1943    4.4885    1.6273 C   0  0  0  0  0  0  0  0  0  0  0  0
    0.1330    4.3871    2.7149 H   0  0  0  0  0  0  0  0  0  0  0  0
   -0.0989    3.5458    1.1550 H   0  0  0  0  0  0  0  0  0  0  0  0
   -0.6894    5.6098    1.1125 C   0  0  0  0  0  0  0  0  0  0  0  0
   -0.3728    6.5649    1.5240 H   0  0  0  0  0  0  0  0  0  0  0  0
   -1.7209    5.4195    1.3946 H   0  0  0  0  0  0  0  0  0  0  0  0
   -0.6221    5.6487    0.0274 H   0  0  0  0  0  0  0  0  0  0  0  0
    0.3191    1.8550   -0.8654 Cl  0  0  0  0  0  0  0  0  0  0  0  0
    0.4270    4.7530   -2.3997 Cl  0  0  0  0  0  0  0  0  0  0  0  0
    3.2811    4.8951   -1.3570 N   0  0  0  0  0  0  0  0  0  0  0  0
    3.1712    2.1906   -0.0967 N   0  0  0  0  0  4  0  0  0  0  0  0
    2.8675    1.2760   -0.4457 H   0  0  0  0  0  0  0  0  0  0  0  0
    4.3867    0.1000    1.8097 O   0  0  0  0  0  0  0  0  0  0  0  0
    4.8142    2.3718    2.9688 O   0  0  0  0  0  0  0  0  0  0  0  0
    2.8653    0.9626    3.6933 O   0  0  0  0  0  0  0  0  0  0  0  0
    4.0387    4.8176    1.5268 O   0  0  0  0  0  0  0  0  0  0  0  0
    2.5076    3.8529    3.4046 O   0  0  0  0  0  0  0  0  0  0  0  0
    1.5477    4.8049    1.2626 O   0  0  0  0  0  0  0  0  0  0  0  0
    2.8294    4.0639    1.8482 P   0  0  0  0  0  0  0  0  0  0  0  0
    3.7828    1.2886    2.4229 P   0  0  0  0  0  0  0  0  0  0  0  0
    1.8712    3.5005   -1.1930 Pt  0  0  0  0  0  0  0  0  0  0  0  0
  1  3  1  0  0  0  0
  1  2  1  0  0  0  0
  3  4  1  0  0  0  0
  5  6  1  0  0  0  0
  5  3  2  0  0  0  0
  7  5  1  0  0  0  0
  8  7  1  0  0  0  0
  9  7  2  0  0  0  0
  9 48  1  0  0  0  0
 10  9  1  0  0  0  0
 10 13  1  0  0  0  0
 11 10  1  0  0  0  0
 12 10  1  0  0  0  0
 13 49  1  0  0  0  0
 13 15  1  0  0  0  0
 14 13  1  0  0  0  0
 16 17  1  0  0  0  0
 16 57  1  0  0  0  0
 16 58  1  0  0  0  0
 18 21  1  0  0  0  0
 19 18  1  0  0  0  0
 20 18  1  0  0  0  0
 21 24  1  0  0  0  0
 21 23  1  0  0  0  0
 21 22  1  0  0  0  0
 25 28  1  0  0  0  0
 26 25  1  0  0  0  0
 27 25  1  0  0  0  0
 28 30  1  0  0  0  0
 28 29  1  0  0  0  0
 28 31  1  0  0  0  0
 32 35  1  0  0  0  0
 32 34  1  0  0  0  0
 33 32  1  0  0  0  0
 35 38  1  0  0  0  0
 35 37  1  0  0  0  0
 36 35  1  0  0  0  0
 39 40  1  0  0  0  0
 41 39  1  0  0  0  0
 42 44  1  0  0  0  0
 42 43  1  0  0  0  0
 42 39  1  0  0  0  0
 45 42  1  0  0  0  0
 47 59  1  0  0  0  0
 48 59  1  0  0  0  0
 48  1  1  0  0  0  0
 49 16  1  0  0  0  0
 50 49  1  0  0  0  0
 51 58  2  0  0  0  0
 52 18  1  0  0  0  0
 53 25  1  0  0  0  0
 54 57  2  0  0  0  0
 55 32  1  0  0  0  0
 56 39  1  0  0  0  0
 56 57  1  0  0  0  0
 57 55  1  0  0  0  0
 58 52  1  0  0  0  0
 58 53  1  0  0  0  0
 59 46  1  0  0  0  0
 59 49  1  0  0  0  0
M  END
$$$$
