CSD_code = NUTMEV | q = 0 | S = 0 | Stoichiometry = C17H32Cl2N2O6P2Pt | MND = 4
 OpenBabel04212202073D

 62 63  0  0  0  0  0  0  0  0999 V2000
   10.9144    5.4562   -0.6861 C   0  0  0  0  0  3  0  0  0  0  0  0
   11.6607    4.6774   -0.6085 H   0  0  0  0  0  0  0  0  0  0  0  0
   10.2380    5.6847   -1.8691 C   0  0  0  0  0  0  0  0  0  0  0  0
   10.4414    5.0690   -2.7299 H   0  0  0  0  0  0  0  0  0  0  0  0
    9.3103    6.7132   -1.9248 C   0  0  0  0  0  0  0  0  0  0  0  0
    8.7676    6.9259   -2.8327 H   0  0  0  0  0  0  0  0  0  0  0  0
    9.0942    7.4642   -0.7805 C   0  0  0  0  0  0  0  0  0  0  0  0
    8.3796    8.2726   -0.7800 H   0  0  0  0  0  0  0  0  0  0  0  0
    9.8094    7.1830    0.3742 C   0  0  0  0  0  0  0  0  0  0  0  0
    9.5682    7.9458    1.6444 C   0  0  0  0  0  0  0  0  0  0  0  0
    8.9050    8.7882    1.4501 H   0  0  0  0  0  0  0  0  0  0  0  0
   10.5177    8.3332    2.0315 H   0  0  0  0  0  0  0  0  0  0  0  0
    8.9468    7.0271    2.7079 C   0  0  0  0  0  0  0  0  0  0  0  0
    8.4770    7.6415    3.4830 H   0  0  0  0  0  0  0  0  0  0  0  0
    8.1817    6.3978    2.2403 H   0  0  0  0  0  0  0  0  0  0  0  0
    9.4711    4.9378    3.8948 C   0  0  0  0  0  0  0  0  0  0  0  0
   10.3300    4.3881    4.2912 H   0  0  0  0  0  0  0  0  0  0  0  0
    9.0036    4.3269    3.1142 H   0  0  0  0  0  0  0  0  0  0  0  0
    8.4737    5.1442    5.0317 C   0  0  0  0  0  0  0  0  0  0  0  0
    7.5446    5.6011    4.6795 H   0  0  0  0  0  0  0  0  0  0  0  0
   11.5846    5.8473    7.1472 C   0  0  0  0  0  0  0  0  0  0  0  0
   11.6863    6.7560    6.5487 H   0  0  0  0  0  0  0  0  0  0  0  0
   12.1814    5.0569    6.6875 H   0  0  0  0  0  0  0  0  0  0  0  0
   12.0177    6.1087    8.5782 C   0  0  0  0  0  0  0  0  0  0  0  0
   11.4518    6.9376    8.9976 H   0  0  0  0  0  0  0  0  0  0  0  0
   13.0742    6.3608    8.5907 H   0  0  0  0  0  0  0  0  0  0  0  0
   11.8579    5.2268    9.1941 H   0  0  0  0  0  0  0  0  0  0  0  0
    7.7318    5.8003    8.5837 C   0  0  0  0  0  0  0  0  0  0  0  0
    8.4054    4.9448    8.6441 H   0  0  0  0  0  0  0  0  0  0  0  0
    6.7024    5.4353    8.5836 H   0  0  0  0  0  0  0  0  0  0  0  0
    7.9771    6.7618    9.7337 C   0  0  0  0  0  0  0  0  0  0  0  0
    9.0068    7.1104    9.7137 H   0  0  0  0  0  0  0  0  0  0  0  0
    7.7878    6.2596   10.6785 H   0  0  0  0  0  0  0  0  0  0  0  0
    7.3201    7.6233    9.6479 H   0  0  0  0  0  0  0  0  0  0  0  0
    9.7055    1.8298    6.8528 C   0  0  0  0  0  0  0  0  0  0  0  0
    9.8059    0.8810    6.3165 H   0  0  0  0  0  0  0  0  0  0  0  0
    8.8392    1.7735    7.5205 H   0  0  0  0  0  0  0  0  0  0  0  0
   10.9696    2.1456    7.6322 C   0  0  0  0  0  0  0  0  0  0  0  0
   11.8127    2.2311    6.9520 H   0  0  0  0  0  0  0  0  0  0  0  0
   11.1665    1.3535    8.3495 H   0  0  0  0  0  0  0  0  0  0  0  0
   10.8500    3.0882    8.1580 H   0  0  0  0  0  0  0  0  0  0  0  0
    6.0307    2.4499    4.4535 C   0  0  0  0  0  0  0  0  0  0  0  0
    5.6964    2.1908    5.4624 H   0  0  0  0  0  0  0  0  0  0  0  0
    5.9102    1.5866    3.7939 H   0  0  0  0  0  0  0  0  0  0  0  0
    5.2406    3.6428    3.9413 C   0  0  0  0  0  0  0  0  0  0  0  0
    5.3300    4.4677    4.6453 H   0  0  0  0  0  0  0  0  0  0  0  0
    4.1921    3.3754    3.8441 H   0  0  0  0  0  0  0  0  0  0  0  0
    5.6172    3.9573    2.9703 H   0  0  0  0  0  0  0  0  0  0  0  0
   13.6109    5.5366    0.9029 Cl  0  0  0  0  0  0  0  0  0  0  0  0
   12.8016    5.4008    4.0156 Cl  0  0  0  0  0  0  0  0  0  0  0  0
    9.9756    6.1730    3.3001 N   0  0  0  0  0  4  0  0  0  0  0  0
   10.4132    6.7084    4.0593 H   0  0  0  0  0  0  0  0  0  0  0  0
   10.7102    6.1901    0.4120 N   0  0  0  0  0  0  0  0  0  0  0  0
    9.5952    7.5433    5.7788 O   0  0  0  0  0  0  0  0  0  0  0  0
    7.9196    6.4811    7.3409 O   0  0  0  0  0  0  0  0  0  0  0  0
   10.2170    5.4179    7.1198 O   0  0  0  0  0  0  0  0  0  0  0  0
    9.4850    2.8569    5.8841 O   0  0  0  0  0  0  0  0  0  0  0  0
    7.4246    2.7183    4.4798 O   0  0  0  0  0  0  0  0  0  0  0  0
    7.1877    3.4526    6.9231 O   0  0  0  0  0  0  0  0  0  0  0  0
    9.1258    6.2693    6.3336 P   0  0  0  0  0  0  0  0  0  0  0  0
    8.0498    3.5190    5.7408 P   0  0  0  0  0  0  0  0  0  0  0  0
   11.7224    5.8234    2.0893 Pt  0  0  0  0  0  0  0  0  0  0  0  0
  1  2  1  0  0  0  0
  1 53  1  0  0  0  0
  3  1  1  0  0  0  0
  4  3  1  0  0  0  0
  5  3  2  0  0  0  0
  5  7  1  0  0  0  0
  6  5  1  0  0  0  0
  7  8  1  0  0  0  0
  7  9  2  0  0  0  0
  9 53  1  0  0  0  0
  9 10  1  0  0  0  0
 10 12  1  0  0  0  0
 10 13  1  0  0  0  0
 11 10  1  0  0  0  0
 13 51  1  0  0  0  0
 13 14  1  0  0  0  0
 15 13  1  0  0  0  0
 16 17  1  0  0  0  0
 16 19  1  0  0  0  0
 18 16  1  0  0  0  0
 19 61  1  0  0  0  0
 19 60  1  0  0  0  0
 20 19  1  0  0  0  0
 21 24  1  0  0  0  0
 22 21  1  0  0  0  0
 23 21  1  0  0  0  0
 24 26  1  0  0  0  0
 24 25  1  0  0  0  0
 24 27  1  0  0  0  0
 28 29  1  0  0  0  0
 28 31  1  0  0  0  0
 30 28  1  0  0  0  0
 31 33  1  0  0  0  0
 32 31  1  0  0  0  0
 34 31  1  0  0  0  0
 35 37  1  0  0  0  0
 35 38  1  0  0  0  0
 36 35  1  0  0  0  0
 38 41  1  0  0  0  0
 38 40  1  0  0  0  0
 39 38  1  0  0  0  0
 42 58  1  0  0  0  0
 42 43  1  0  0  0  0
 44 42  1  0  0  0  0
 45 42  1  0  0  0  0
 45 46  1  0  0  0  0
 47 45  1  0  0  0  0
 48 45  1  0  0  0  0
 49 62  1  0  0  0  0
 51 16  1  0  0  0  0
 51 52  1  0  0  0  0
 53 62  1  0  0  0  0
 54 60  2  0  0  0  0
 55 28  1  0  0  0  0
 56 21  1  0  0  0  0
 57 35  1  0  0  0  0
 58 61  1  0  0  0  0
 60 56  1  0  0  0  0
 60 55  1  0  0  0  0
 61 57  1  0  0  0  0
 61 59  2  0  0  0  0
 62 51  1  0  0  0  0
 62 50  1  0  0  0  0
M  END
$$$$
