CSD_code = NUVPAV | q = 0 | S = 0 | Stoichiometry = C26H24I2P2Pd | MND = 4
 OpenBabel04212202073D

 55 59  0  0  0  0  0  0  0  0999 V2000
   -0.6414    5.8771    3.8019 Pd  0  0  0  0  0  0  0  0  0  0  0  0
   -2.5304    7.2995    2.7494 I   0  0  0  0  0  0  0  0  0  0  0  0
   -2.0231    4.6648    5.6180 I   0  0  0  0  0  0  0  0  0  0  0  0
    0.7745    6.9413    2.4499 P   0  0  0  0  0  4  0  0  0  0  0  0
    1.1122    4.6031    4.3299 P   0  0  0  0  0  4  0  0  0  0  0  0
    2.6659    5.4270    3.7384 C   0  0  0  0  0  0  0  0  0  0  0  0
    2.3897    6.0270    2.3673 C   0  0  0  0  0  0  0  0  0  0  0  0
    0.4589    7.4191    0.7369 C   0  0  0  0  0  0  0  0  0  0  0  0
    0.1310    8.7249    0.3879 C   0  0  0  0  0  0  0  0  0  0  0  0
   -0.1925    9.0207   -0.9234 C   0  0  0  0  0  0  0  0  0  0  0  0
   -0.2079    8.0202   -1.8811 C   0  0  0  0  0  0  0  0  0  0  0  0
    0.0853    6.7126   -1.5279 C   0  0  0  0  0  0  0  0  0  0  0  0
    0.4095    6.4078   -0.2201 C   0  0  0  0  0  0  0  0  0  0  0  0
    1.2329    8.4351    3.3693 C   0  0  0  0  0  0  0  0  0  0  0  0
    0.6526    8.6411    4.6204 C   0  0  0  0  0  0  0  0  0  0  0  0
    1.0044    9.7484    5.3716 C   0  0  0  0  0  0  0  0  0  0  0  0
    1.9332   10.6498    4.8779 C   0  0  0  0  0  0  0  0  0  0  0  0
    2.5164   10.4451    3.6363 C   0  0  0  0  0  0  0  0  0  0  0  0
    2.1725    9.3399    2.8811 C   0  0  0  0  0  0  0  0  0  0  0  0
    0.9444    3.2226    3.1604 C   0  0  0  0  0  0  0  0  0  0  0  0
   -0.1780    3.1762    2.3340 C   0  0  0  0  0  0  0  0  0  0  0  0
   -0.3091    2.1614    1.4022 C   0  0  0  0  0  0  0  0  0  0  0  0
    0.6748    1.1923    1.2940 C   0  0  0  0  0  0  0  0  0  0  0  0
    1.7880    1.2302    2.1205 C   0  0  0  0  0  0  0  0  0  0  0  0
    1.9261    2.2407    3.0530 C   0  0  0  0  0  0  0  0  0  0  0  0
    1.5592    3.8409    5.9054 C   0  0  0  0  0  0  0  0  0  0  0  0
    1.0333    2.5927    6.2297 C   0  0  0  0  0  0  0  0  0  0  0  0
    1.3054    2.0317    7.4625 C   0  0  0  0  0  0  0  0  0  0  0  0
    2.0895    2.7143    8.3785 C   0  0  0  0  0  0  0  0  0  0  0  0
    2.5934    3.9667    8.0670 C   0  0  0  0  0  0  0  0  0  0  0  0
    2.3230    4.5375    6.8372 C   0  0  0  0  0  0  0  0  0  0  0  0
    3.4920    4.7091    3.7166 H   0  0  0  0  0  0  0  0  0  0  0  0
    2.9150    6.2236    4.4501 H   0  0  0  0  0  0  0  0  0  0  0  0
    3.1859    6.7082    2.0501 H   0  0  0  0  0  0  0  0  0  0  0  0
    2.2953    5.2328    1.6179 H   0  0  0  0  0  0  0  0  0  0  0  0
    0.1118    9.4989    1.1424 H   0  0  0  0  0  0  0  0  0  0  0  0
   -0.4474   10.0341   -1.1943 H   0  0  0  0  0  0  0  0  0  0  0  0
   -0.4675    8.2555   -2.9022 H   0  0  0  0  0  0  0  0  0  0  0  0
    0.0482    5.9284   -2.2695 H   0  0  0  0  0  0  0  0  0  0  0  0
    0.6054    5.3806    0.0661 H   0  0  0  0  0  0  0  0  0  0  0  0
   -0.0969    7.9348    5.0155 H   0  0  0  0  0  0  0  0  0  0  0  0
    0.5499    9.9098    6.3375 H   0  0  0  0  0  0  0  0  0  0  0  0
    2.2027   11.5177    5.4607 H   0  0  0  0  0  0  0  0  0  0  0  0
    3.2392   11.1515    3.2552 H   0  0  0  0  0  0  0  0  0  0  0  0
    2.6202    9.1787    1.9087 H   0  0  0  0  0  0  0  0  0  0  0  0
   -0.9777    3.9314    2.4249 H   0  0  0  0  0  0  0  0  0  0  0  0
   -1.1806    2.1257    0.7657 H   0  0  0  0  0  0  0  0  0  0  0  0
    0.5715    0.4000    0.5680 H   0  0  0  0  0  0  0  0  0  0  0  0
    2.5483    0.4675    2.0388 H   0  0  0  0  0  0  0  0  0  0  0  0
    2.7861    2.2684    3.7096 H   0  0  0  0  0  0  0  0  0  0  0  0
    0.4035    2.0729    5.5204 H   0  0  0  0  0  0  0  0  0  0  0  0
    0.8948    1.0653    7.7121 H   0  0  0  0  0  0  0  0  0  0  0  0
    2.2973    2.2759    9.3429 H   0  0  0  0  0  0  0  0  0  0  0  0
    3.1899    4.5057    8.7882 H   0  0  0  0  0  0  0  0  0  0  0  0
    2.6969    5.5267    6.6078 H   0  0  0  0  0  0  0  0  0  0  0  0
  1  5  1  0  0  0  0
  1  3  1  0  0  0  0
  2  1  1  0  0  0  0
  4 14  1  0  0  0  0
  4  1  1  0  0  0  0
  5 26  1  0  0  0  0
  6  5  1  0  0  0  0
  6 33  1  0  0  0  0
  7  4  1  0  0  0  0
  7  6  1  0  0  0  0
  8  4  1  0  0  0  0
  9  8  1  0  0  0  0
  9 36  1  0  0  0  0
 10  9  2  0  0  0  0
 11 12  2  0  0  0  0
 11 10  1  0  0  0  0
 12 13  1  0  0  0  0
 13 40  1  0  0  0  0
 13  8  2  0  0  0  0
 14 15  1  0  0  0  0
 15 41  1  0  0  0  0
 15 16  2  0  0  0  0
 16 42  1  0  0  0  0
 17 16  1  0  0  0  0
 17 43  1  0  0  0  0
 18 17  2  0  0  0  0
 19 14  2  0  0  0  0
 19 18  1  0  0  0  0
 20  5  1  0  0  0  0
 21 46  1  0  0  0  0
 21 20  2  0  0  0  0
 22 21  1  0  0  0  0
 23 22  2  0  0  0  0
 23 24  1  0  0  0  0
 24 25  2  0  0  0  0
 25 20  1  0  0  0  0
 25 50  1  0  0  0  0
 26 27  2  0  0  0  0
 26 31  1  0  0  0  0
 27 28  1  0  0  0  0
 28 52  1  0  0  0  0
 28 29  2  0  0  0  0
 29 53  1  0  0  0  0
 30 29  1  0  0  0  0
 30 54  1  0  0  0  0
 31 30  2  0  0  0  0
 32  6  1  0  0  0  0
 34  7  1  0  0  0  0
 35  7  1  0  0  0  0
 37 10  1  0  0  0  0
 38 11  1  0  0  0  0
 39 12  1  0  0  0  0
 44 18  1  0  0  0  0
 45 19  1  0  0  0  0
 47 22  1  0  0  0  0
 48 23  1  0  0  0  0
 49 24  1  0  0  0  0
 51 27  1  0  0  0  0
 55 31  1  0  0  0  0
M  END
$$$$
