CSD_code = NUWCUE | q = 0 | S = 0 | Stoichiometry = C21H16AuClNP | MND = 2
 OpenBabel04212202073D

 41 44  0  0  0  0  0  0  0  0999 V2000
   11.8065    3.8044   10.9750 Au  0  0  0  0  0  0  0  0  0  0  0  0
   13.6739    4.8677   11.6825 Cl  0  0  0  0  0  0  0  0  0  0  0  0
    9.9231    2.7952   10.2883 P   0  0  0  0  0  4  0  0  0  0  0  0
    8.9770    0.5467   11.3267 N   0  0  0  0  0  0  0  0  0  0  0  0
    9.0781    1.8275   11.5716 C   0  0  0  0  0  0  0  0  0  0  0  0
    8.6305    2.4400   12.7701 C   0  0  0  0  0  0  0  0  0  0  0  0
    8.7586    3.8165   13.0292 C   0  0  0  0  0  0  0  0  0  0  0  0
    8.3147    4.3359   14.2130 C   0  0  0  0  0  0  0  0  0  0  0  0
    7.7225    3.5026   15.1767 C   0  0  0  0  0  0  0  0  0  0  0  0
    7.5832    2.1614   14.9506 C   0  0  0  0  0  0  0  0  0  0  0  0
    8.0345    1.5930   13.7416 C   0  0  0  0  0  0  0  0  0  0  0  0
    7.9312    0.2173   13.4424 C   0  0  0  0  0  0  0  0  0  0  0  0
    8.4086   -0.2447   12.2451 C   0  0  0  0  0  0  0  0  0  0  0  0
    8.6044    3.8783    9.6774 C   0  0  0  0  0  0  0  0  0  0  0  0
    8.9095    5.1887    9.3277 C   0  0  0  0  0  0  0  0  0  0  0  0
    7.9139    6.0236    8.8522 C   0  0  0  0  0  0  0  0  0  0  0  0
    6.6167    5.5529    8.7292 C   0  0  0  0  0  0  0  0  0  0  0  0
    6.3108    4.2462    9.0790 C   0  0  0  0  0  0  0  0  0  0  0  0
    7.2998    3.4057    9.5533 C   0  0  0  0  0  0  0  0  0  0  0  0
   10.1762    1.5772    8.9788 C   0  0  0  0  0  0  0  0  0  0  0  0
   11.0952    0.5651    9.2475 C   0  0  0  0  0  0  0  0  0  0  0  0
   11.3806   -0.3789    8.2815 C   0  0  0  0  0  0  0  0  0  0  0  0
   10.7687   -0.3038    7.0391 C   0  0  0  0  0  0  0  0  0  0  0  0
    9.8751    0.7171    6.7634 C   0  0  0  0  0  0  0  0  0  0  0  0
    9.5767    1.6635    7.7288 C   0  0  0  0  0  0  0  0  0  0  0  0
    9.2217    4.4492   12.2821 H   0  0  0  0  0  0  0  0  0  0  0  0
    8.4203    5.3905   14.4173 H   0  0  0  0  0  0  0  0  0  0  0  0
    7.3799    3.9340   16.1054 H   0  0  0  0  0  0  0  0  0  0  0  0
    7.1312    1.5176   15.6908 H   0  0  0  0  0  0  0  0  0  0  0  0
    7.4838   -0.4544   14.1590 H   0  0  0  0  0  0  0  0  0  0  0  0
    8.3529   -1.2900   11.9723 H   0  0  0  0  0  0  0  0  0  0  0  0
    9.9270    5.5433    9.4350 H   0  0  0  0  0  0  0  0  0  0  0  0
    8.1500    7.0412    8.5795 H   0  0  0  0  0  0  0  0  0  0  0  0
    5.8401    6.2058    8.3598 H   0  0  0  0  0  0  0  0  0  0  0  0
    5.2984    3.8831    8.9808 H   0  0  0  0  0  0  0  0  0  0  0  0
    7.0737    2.3827    9.8237 H   0  0  0  0  0  0  0  0  0  0  0  0
   11.5741    0.5293   10.2172 H   0  0  0  0  0  0  0  0  0  0  0  0
   12.0854   -1.1697    8.4907 H   0  0  0  0  0  0  0  0  0  0  0  0
   10.9959   -1.0392    6.2816 H   0  0  0  0  0  0  0  0  0  0  0  0
    9.4088    0.7801    5.7912 H   0  0  0  0  0  0  0  0  0  0  0  0
    8.8825    2.4632    7.5100 H   0  0  0  0  0  0  0  0  0  0  0  0
  1  2  1  0  0  0  0
  3  1  1  0  0  0  0
  3  5  1  0  0  0  0
  4  5  2  0  0  0  0
  4 13  1  0  0  0  0
  5  6  1  0  0  0  0
  6  7  2  0  0  0  0
  6 11  1  0  0  0  0
  7  8  1  0  0  0  0
  8 27  1  0  0  0  0
  8  9  2  0  0  0  0
  9 28  1  0  0  0  0
 10  9  1  0  0  0  0
 10 29  1  0  0  0  0
 11 10  2  0  0  0  0
 12 11  1  0  0  0  0
 12 30  1  0  0  0  0
 13 12  2  0  0  0  0
 14  3  1  0  0  0  0
 15 32  1  0  0  0  0
 15 14  2  0  0  0  0
 16 15  1  0  0  0  0
 17 16  2  0  0  0  0
 17 18  1  0  0  0  0
 18 19  2  0  0  0  0
 19 14  1  0  0  0  0
 19 36  1  0  0  0  0
 20 21  1  0  0  0  0
 20  3  1  0  0  0  0
 21 37  1  0  0  0  0
 22 38  1  0  0  0  0
 22 21  2  0  0  0  0
 23 22  1  0  0  0  0
 24 23  2  0  0  0  0
 24 25  1  0  0  0  0
 25 20  2  0  0  0  0
 26  7  1  0  0  0  0
 31 13  1  0  0  0  0
 33 16  1  0  0  0  0
 34 17  1  0  0  0  0
 35 18  1  0  0  0  0
 39 23  1  0  0  0  0
 40 24  1  0  0  0  0
 41 25  1  0  0  0  0
M  END
$$$$
