CSD_code = NUWFIV | q = 1 | S = 0 | Stoichiometry = C6H13ClN3Pt(1+) | MND = 4
 OpenBabel04212202073D

 24 24  0  0  0  0  0  0  0  0999 V2000
    2.0768    5.0855   -1.0479 Pt  0  0  0  0  0  0  0  0  0  0  0  0
    1.2091    5.5007   -3.0935 Cl  0  0  0  0  0  0  0  0  0  0  0  0
    2.8623    4.7029    0.8382 N   0  0  0  0  0  0  0  0  0  0  0  0
    1.2621    6.8964   -0.4724 N   0  0  0  0  0  4  0  0  0  0  0  0
    1.8466    7.5217    0.0842 H   0  0  0  0  0  0  0  0  0  0  0  0
    0.3721    6.7605    0.0129 H   0  0  0  0  0  0  0  0  0  0  0  0
    1.0536    7.3488   -1.3707 H   0  0  0  0  0  0  0  0  0  0  0  0
    2.7546    3.3011   -1.8382 N   0  0  0  0  0  4  0  0  0  0  0  0
    3.7620    3.1413   -1.7868 H   0  0  0  0  0  0  0  0  0  0  0  0
    2.4894    3.3891   -2.8277 H   0  0  0  0  0  0  0  0  0  0  0  0
    2.2733    2.4839   -1.4570 H   0  0  0  0  0  0  0  0  0  0  0  0
    4.9278    5.8004    0.1722 C   0  0  0  0  0  0  0  0  0  0  0  0
    4.3700    5.9541   -0.7586 H   0  0  0  0  0  0  0  0  0  0  0  0
    5.8260    5.2249   -0.0446 H   0  0  0  0  0  0  0  0  0  0  0  0
    5.2500    6.7658    0.5573 H   0  0  0  0  0  0  0  0  0  0  0  0
    2.0938    4.0616    1.7235 C   0  0  0  0  0  3  0  0  0  0  0  0
    1.1068    3.7734    1.3820 H   0  0  0  0  0  0  0  0  0  0  0  0
    2.5171    3.7750    3.0047 C   0  0  0  0  0  0  0  0  0  0  0  0
    1.8663    3.2566    3.6888 H   0  0  0  0  0  0  0  0  0  0  0  0
    4.5849    4.8329    2.4635 C   0  0  0  0  0  0  0  0  0  0  0  0
    5.5813    5.1555    2.7200 H   0  0  0  0  0  0  0  0  0  0  0  0
    4.0935    5.0898    1.1857 C   0  0  0  0  0  0  0  0  0  0  0  0
    3.7942    4.1713    3.3839 C   0  0  0  0  0  0  0  0  0  0  0  0
    4.1613    3.9667    4.3770 H   0  0  0  0  0  0  0  0  0  0  0  0
  1  4  1  0  0  0  0
  1  3  1  0  0  0  0
  2  1  1  0  0  0  0
  3 22  1  0  0  0  0
  3 16  1  0  0  0  0
  4  6  1  0  0  0  0
  4  5  1  0  0  0  0
  7  4  1  0  0  0  0
  8  9  1  0  0  0  0
  8 11  1  0  0  0  0
  8  1  1  0  0  0  0
 10  8  1  0  0  0  0
 12 15  1  0  0  0  0
 12 22  1  0  0  0  0
 13 12  1  0  0  0  0
 14 12  1  0  0  0  0
 16 18  1  0  0  0  0
 17 16  1  0  0  0  0
 18 23  2  0  0  0  0
 18 19  1  0  0  0  0
 20 21  1  0  0  0  0
 20 23  1  0  0  0  0
 22 20  2  0  0  0  0
 23 24  1  0  0  0  0
M  END
$$$$
