CSD_code = NUWFUH | q = 1 | S = 0 | Stoichiometry = C6H13ClN3Pt(1+) | MND = 4
 OpenBabel04212202073D

 24 24  0  0  1  0  0  0  0  0999 V2000
    0.1228    9.0695    0.4625 Pt  0  0  0  0  0  0  0  0  0  0  0  0
    1.4774    7.3928    1.1032 Cl  0  0  0  0  0  0  0  0  0  0  0  0
   -1.4487    7.8123    1.0225 N   0  0  0  0  0  4  0  0  0  0  0  0
   -2.1391    7.5880    0.3063 H   0  0  0  0  0  0  0  0  0  0  0  0
   -1.9416    8.1135    1.8635 H   0  0  0  0  0  0  0  0  0  0  0  0
   -0.9458    6.9479    1.2569 H   0  0  0  0  0  0  0  0  0  0  0  0
   -1.2147   10.7259   -0.1333 N   0  0  0  0  0  4  0  0  0  0  0  0
   -1.8413   10.4444   -0.8843 H   0  0  0  0  0  0  0  0  0  0  0  0
   -0.6861   11.5328   -0.4581 H   0  0  0  0  0  0  0  0  0  0  0  0
   -1.7833   11.0255    0.6559 H   0  0  0  0  0  0  0  0  0  0  0  0
    1.7468   10.1288    0.0469 N   0  0  0  0  0  0  0  0  0  0  0  0
    2.4730    9.9126   -1.0558 C   0  0  1  0  0  3  0  0  0  0  0  0
    2.2060   10.9480    0.9995 C   0  0  0  0  0  0  0  0  0  0  0  0
    1.5822   11.0662    1.8794 H   0  0  0  0  0  0  0  0  0  0  0  0
    3.6990   10.5511   -1.2287 C   0  0  0  0  0  0  0  0  0  0  0  0
    4.2683   10.3605   -2.1243 H   0  0  0  0  0  0  0  0  0  0  0  0
    4.1785   11.4019   -0.2515 C   0  0  0  0  0  0  0  0  0  0  0  0
    5.1318   11.8921   -0.3691 H   0  0  0  0  0  0  0  0  0  0  0  0
    3.4127   11.6065    0.8902 C   0  0  0  0  0  0  0  0  0  0  0  0
    3.7499   12.2551    1.6814 H   0  0  0  0  0  0  0  0  0  0  0  0
    1.9488    8.9656   -2.0815 C   0  0  0  0  0  0  0  0  0  0  0  0
    0.9013    8.7141   -1.8838 H   0  0  0  0  0  0  0  0  0  0  0  0
    2.5279    8.0433   -2.0486 H   0  0  0  0  0  0  0  0  0  0  0  0
    2.0454    9.3836   -3.0806 H   0  0  0  0  0  0  0  0  0  0  0  0
  1  3  1  0  0  0  0
  1  2  1  0  0  0  0
  3  6  1  0  0  0  0
  3  5  1  0  0  0  0
  4  3  1  0  0  0  0
  7  1  1  0  0  0  0
  7 10  1  0  0  0  0
  8  7  1  0  0  0  0
  9  7  1  0  0  0  0
 11  1  1  0  0  0  0
 11 13  1  0  0  0  0
 12 21  1  1  0  0  0
 12 11  1  0  0  0  0
 13 14  1  0  0  0  0
 15 12  1  0  0  0  0
 15 17  2  0  0  0  0
 16 15  1  0  0  0  0
 17 19  1  0  0  0  0
 18 17  1  0  0  0  0
 19 13  2  0  0  0  0
 19 20  1  0  0  0  0
 21 23  1  0  0  0  0
 21 22  1  0  0  0  0
 24 21  1  0  0  0  0
M  END
$$$$
