CSD_code = NUXWUY | q = 0 | S = 0 | Stoichiometry = C19H25Cl3O3Ti | MND = 6
 OpenBabel04212202073D

 51 51  0  0  1  0  0  0  0  0999 V2000
    5.8213    4.6032    7.7647 C   0  0  0  0  0  0  0  0  0  0  0  0
    5.6468   -0.5643    6.3260 C   0  0  0  0  0  0  0  0  0  0  0  0
    4.4739    2.6778    7.6710 C   0  0  1  0  0  0  0  0  0  0  0  0
    4.5162    1.1427    7.5087 C   0  0  1  0  0  0  0  0  0  0  0  0
    3.7028    2.9838    8.9357 C   0  0  0  0  0  0  0  0  0  0  0  0
    4.3273    2.8100   10.1660 C   0  0  0  0  0  0  0  0  0  0  0  0
    3.6259    3.0416   11.3355 C   0  0  0  0  0  0  0  0  0  0  0  0
    2.2983    3.4339   11.2823 C   0  0  0  0  0  0  0  0  0  0  0  0
    1.6738    3.6015   10.0579 C   0  0  0  0  0  0  0  0  0  0  0  0
    2.3744    3.3804    8.8847 C   0  0  0  0  0  0  0  0  0  0  0  0
    3.1174    0.6649    7.1918 C   0  0  0  0  0  0  0  0  0  0  0  0
    2.6226    0.8386    5.9040 C   0  0  0  0  0  0  0  0  0  0  0  0
    1.3316    0.4451    5.6008 C   0  0  0  0  0  0  0  0  0  0  0  0
    0.5272   -0.1102    6.5826 C   0  0  0  0  0  0  0  0  0  0  0  0
    1.0168   -0.2775    7.8670 C   0  0  0  0  0  0  0  0  0  0  0  0
    2.3114    0.1056    8.1727 C   0  0  0  0  0  0  0  0  0  0  0  0
    9.1676    0.6919    4.8929 C   0  0  0  0  0  0  0  0  0  0  0  0
   10.1673    0.4205    6.0239 C   0  0  0  0  0  0  0  0  0  0  0  0
    8.9303   -0.5592    4.0383 C   0  0  0  0  0  0  0  0  0  0  0  0
    8.6561    3.6509    6.7368 Cl  0  0  0  0  0  0  0  0  0  0  0  0
    7.5726    1.0130    8.4307 Cl  0  0  0  0  0  0  0  0  0  0  0  0
    5.9533    3.1817    4.8253 Cl  0  0  0  0  0  0  0  0  0  0  0  0
    5.8120    3.1755    7.7319 O   0  0  0  0  0  0  0  0  0  0  0  0
    5.4251    0.8341    6.4532 O   0  0  0  0  0  0  0  0  0  0  0  0
    7.9795    1.1320    5.4439 O   0  0  0  0  0  0  0  0  0  0  0  0
    7.1180    2.1006    6.4725 Ti  0  0  0  0  0  0  0  0  0  0  0  0
    3.9776    3.1131    6.7868 H   0  0  0  0  0  0  0  0  0  0  0  0
    4.8898    0.6927    8.4445 H   0  0  0  0  0  0  0  0  0  0  0  0
    5.3633    2.4995   10.1968 H   0  0  0  0  0  0  0  0  0  0  0  0
    4.1148    2.9111   12.2890 H   0  0  0  0  0  0  0  0  0  0  0  0
    1.7503    3.6097   12.1958 H   0  0  0  0  0  0  0  0  0  0  0  0
    0.6395    3.9074   10.0145 H   0  0  0  0  0  0  0  0  0  0  0  0
    1.8904    3.5103    7.9278 H   0  0  0  0  0  0  0  0  0  0  0  0
    2.6963   -0.0224    9.1738 H   0  0  0  0  0  0  0  0  0  0  0  0
    0.3908   -0.7086    8.6334 H   0  0  0  0  0  0  0  0  0  0  0  0
   -0.4821   -0.4122    6.3465 H   0  0  0  0  0  0  0  0  0  0  0  0
    0.9515    0.5771    4.5992 H   0  0  0  0  0  0  0  0  0  0  0  0
    3.2580    1.2795    5.1475 H   0  0  0  0  0  0  0  0  0  0  0  0
    6.2662   -0.6980    5.4365 H   0  0  0  0  0  0  0  0  0  0  0  0
    4.6920   -1.0868    6.1987 H   0  0  0  0  0  0  0  0  0  0  0  0
    6.1719   -0.9483    7.2107 H   0  0  0  0  0  0  0  0  0  0  0  0
    6.8483    4.9141    7.9672 H   0  0  0  0  0  0  0  0  0  0  0  0
    5.1623    4.9636    8.5613 H   0  0  0  0  0  0  0  0  0  0  0  0
    5.4972    5.0053    6.7967 H   0  0  0  0  0  0  0  0  0  0  0  0
    9.5543    1.5051    4.2465 H   0  0  0  0  0  0  0  0  0  0  0  0
    8.1520   -0.3589    3.3035 H   0  0  0  0  0  0  0  0  0  0  0  0
    8.6182   -1.3865    4.6743 H   0  0  0  0  0  0  0  0  0  0  0  0
    9.8433   -0.8355    3.5194 H   0  0  0  0  0  0  0  0  0  0  0  0
   10.3156    1.3328    6.6038 H   0  0  0  0  0  0  0  0  0  0  0  0
   11.1206    0.0937    5.6177 H   0  0  0  0  0  0  0  0  0  0  0  0
    9.7672   -0.3507    6.6831 H   0  0  0  0  0  0  0  0  0  0  0  0
  1 42  1  0  0  0  0
  1 43  1  0  0  0  0
  2 24  1  0  0  0  0
  2 41  1  0  0  0  0
  3 27  1  6  0  0  0
  3 23  1  0  0  0  0
  3  5  1  0  0  0  0
  4  3  1  0  0  0  0
  4 28  1  1  0  0  0
  5  6  1  0  0  0  0
  6 29  1  0  0  0  0
  6  7  2  0  0  0  0
  7 30  1  0  0  0  0
  8  7  1  0  0  0  0
  8 31  1  0  0  0  0
  9  8  2  0  0  0  0
 10  5  2  0  0  0  0
 10  9  1  0  0  0  0
 11  4  1  0  0  0  0
 11 16  1  0  0  0  0
 12 11  2  0  0  0  0
 13 12  1  0  0  0  0
 13 14  2  0  0  0  0
 14 15  1  0  0  0  0
 15 16  2  0  0  0  0
 15 35  1  0  0  0  0
 16 34  1  0  0  0  0
 17 25  1  0  0  0  0
 17 18  1  0  0  0  0
 18 49  1  0  0  0  0
 18 51  1  0  0  0  0
 19 47  1  0  0  0  0
 19 17  1  0  0  0  0
 22 26  1  0  0  0  0
 23  1  1  0  0  0  0
 24  4  1  0  0  0  0
 25 26  1  0  0  0  0
 26 20  1  0  0  0  0
 26 21  1  0  0  0  0
 32  9  1  0  0  0  0
 33 10  1  0  0  0  0
 36 14  1  0  0  0  0
 37 13  1  0  0  0  0
 38 12  1  0  0  0  0
 39  2  1  0  0  0  0
 40  2  1  0  0  0  0
 44  1  1  0  0  0  0
 45 17  1  0  0  0  0
 46 19  1  0  0  0  0
 48 19  1  0  0  0  0
 50 18  1  0  0  0  0
M  END
$$$$
