CSD_code = NUYVEI | q = 0 | S = 0 | Stoichiometry = C22H28ClF13N2NiSi | MND = 4
 OpenBabel04212202073D

 68 70  0  0  0  0  0  0  0  0999 V2000
    3.9769   -3.1741    8.5332 Ni  0  0  0  0  0  0  0  0  0  0  0  0
    5.1721   -4.5244    9.6142 Cl  0  0  0  0  0  0  0  0  0  0  0  0
    0.2948    1.0213    5.1668 Si  0  0  0  0  0  0  0  0  0  0  0  0
    2.7637    4.2177    2.7959 F   0  0  0  0  0  0  0  0  0  0  0  0
    2.1965    5.2717    4.5967 F   0  0  0  0  0  0  0  0  0  0  0  0
    0.7335    5.2355    1.4052 F   0  0  0  0  0  0  0  0  0  0  0  0
   -0.1896    6.0917    3.1602 F   0  0  0  0  0  0  0  0  0  0  0  0
    3.1311    6.8011    2.2872 F   0  0  0  0  0  0  0  0  0  0  0  0
    1.7162    7.7884    3.5910 F   0  0  0  0  0  0  0  0  0  0  0  0
    1.8125    7.3825    0.1128 F   0  0  0  0  0  0  0  0  0  0  0  0
    0.0090    7.9328    1.1697 F   0  0  0  0  0  0  0  0  0  0  0  0
    3.0905    9.4798    1.8011 F   0  0  0  0  0  0  0  0  0  0  0  0
    1.0500   10.0721    2.2174 F   0  0  0  0  0  0  0  0  0  0  0  0
    2.7483    9.7342   -0.8279 F   0  0  0  0  0  0  0  0  0  0  0  0
    0.6114    9.9218   -0.6469 F   0  0  0  0  0  0  0  0  0  0  0  0
    1.8971   11.4535    0.1387 F   0  0  0  0  0  0  0  0  0  0  0  0
    4.5983   -3.7107    6.6488 N   0  0  0  0  0  4  0  0  0  0  0  0
    3.0529   -2.2837   10.1389 N   0  0  0  0  0  4  0  0  0  0  0  0
    2.9334   -2.0037    7.5930 C   0  0  0  0  0  0  0  0  0  0  0  0
    3.1189   -1.8457    6.2199 C   0  0  0  0  0  0  0  0  0  0  0  0
    2.3254   -0.9584    5.5143 C   0  0  0  0  0  0  0  0  0  0  0  0
    1.3420   -0.2061    6.1573 C   0  0  0  0  0  0  0  0  0  0  0  0
    1.1679   -0.3704    7.5304 C   0  0  0  0  0  0  0  0  0  0  0  0
    1.9498   -1.2618    8.2453 C   0  0  0  0  0  0  0  0  0  0  0  0
    4.2463   -2.6638    5.6552 C   0  0  0  0  0  0  0  0  0  0  0  0
    3.7718   -4.9035    6.4065 C   0  0  0  0  0  0  0  0  0  0  0  0
    6.0073   -4.0831    6.5003 C   0  0  0  0  0  0  0  0  0  0  0  0
    1.8238   -1.5672    9.7117 C   0  0  0  0  0  0  0  0  0  0  0  0
    4.0705   -1.2989   10.5390 C   0  0  0  0  0  0  0  0  0  0  0  0
    2.7551   -3.1384   11.2907 C   0  0  0  0  0  0  0  0  0  0  0  0
   -0.3807    0.2063    3.5794 C   0  0  0  0  0  0  0  0  0  0  0  0
   -1.1440    1.7189    6.2027 C   0  0  0  0  0  0  0  0  0  0  0  0
    1.4595    2.4676    4.6710 C   0  0  0  0  0  0  0  0  0  0  0  0
    0.7452    3.5350    3.8533 C   0  0  0  0  0  0  0  0  0  0  0  0
    1.6936    4.6698    3.4926 C   0  0  0  0  0  0  0  0  0  0  0  0
    1.0002    5.7598    2.6174 C   0  0  0  0  0  0  0  0  0  0  0  0
    1.8291    7.0717    2.4600 C   0  0  0  0  0  0  0  0  0  0  0  0
    1.3493    7.9333    1.2474 C   0  0  0  0  0  0  0  0  0  0  0  0
    1.8300    9.4143    1.3449 C   0  0  0  0  0  0  0  0  0  0  0  0
    1.7679   10.1449   -0.0337 C   0  0  0  0  0  0  0  0  0  0  0  0
    2.4731   -0.8436    4.4495 H   0  0  0  0  0  0  0  0  0  0  0  0
    0.4097    0.2024    8.0444 H   0  0  0  0  0  0  0  0  0  0  0  0
    5.1151   -2.0131    5.5111 H   0  0  0  0  0  0  0  0  0  0  0  0
    4.0014   -3.1199    4.6866 H   0  0  0  0  0  0  0  0  0  0  0  0
    3.9702   -5.6480    7.1790 H   0  0  0  0  0  0  0  0  0  0  0  0
    4.0063   -5.3392    5.4262 H   0  0  0  0  0  0  0  0  0  0  0  0
    2.7141   -4.6356    6.4318 H   0  0  0  0  0  0  0  0  0  0  0  0
    6.6414   -3.2205    6.7016 H   0  0  0  0  0  0  0  0  0  0  0  0
    6.2047   -4.4496    5.4853 H   0  0  0  0  0  0  0  0  0  0  0  0
    6.2561   -4.8618    7.2198 H   0  0  0  0  0  0  0  0  0  0  0  0
    0.9646   -2.2295    9.8610 H   0  0  0  0  0  0  0  0  0  0  0  0
    1.6692   -0.6693   10.3250 H   0  0  0  0  0  0  0  0  0  0  0  0
    3.7372   -0.7429   11.4253 H   0  0  0  0  0  0  0  0  0  0  0  0
    4.2483   -0.5945    9.7247 H   0  0  0  0  0  0  0  0  0  0  0  0
    5.0029   -1.8132   10.7765 H   0  0  0  0  0  0  0  0  0  0  0  0
    3.6629   -3.6476   11.6108 H   0  0  0  0  0  0  0  0  0  0  0  0
    2.0230   -3.8950   11.0108 H   0  0  0  0  0  0  0  0  0  0  0  0
    2.3606   -2.5415   12.1224 H   0  0  0  0  0  0  0  0  0  0  0  0
   -1.0935    0.8509    3.0738 H   0  0  0  0  0  0  0  0  0  0  0  0
   -0.8885   -0.7265    3.8039 H   0  0  0  0  0  0  0  0  0  0  0  0
    0.4154   -0.0178    2.8760 H   0  0  0  0  0  0  0  0  0  0  0  0
   -0.7861    2.3319    7.0243 H   0  0  0  0  0  0  0  0  0  0  0  0
   -1.7475    0.9211    6.6237 H   0  0  0  0  0  0  0  0  0  0  0  0
   -1.8017    2.3348    5.5967 H   0  0  0  0  0  0  0  0  0  0  0  0
    1.8778    2.9291    5.5652 H   0  0  0  0  0  0  0  0  0  0  0  0
    2.3012    2.0842    4.0952 H   0  0  0  0  0  0  0  0  0  0  0  0
    0.3624    3.1176    2.9213 H   0  0  0  0  0  0  0  0  0  0  0  0
   -0.0827    3.9627    4.4191 H   0  0  0  0  0  0  0  0  0  0  0  0
  1  2  1  0  0  0  0
  1 18  1  0  0  0  0
  3 22  1  0  0  0  0
  3 32  1  0  0  0  0
  4 35  1  0  0  0  0
  6 36  1  0  0  0  0
  8 37  1  0  0  0  0
 10 38  1  0  0  0  0
 11 38  1  0  0  0  0
 14 40  1  0  0  0  0
 15 40  1  0  0  0  0
 17  1  1  0  0  0  0
 18 29  1  0  0  0  0
 18 30  1  0  0  0  0
 19 24  1  0  0  0  0
 19  1  1  0  0  0  0
 20 19  2  0  0  0  0
 21 22  2  0  0  0  0
 21 20  1  0  0  0  0
 22 23  1  0  0  0  0
 23 42  1  0  0  0  0
 23 24  2  0  0  0  0
 24 28  1  0  0  0  0
 25 20  1  0  0  0  0
 25 17  1  0  0  0  0
 26 47  1  0  0  0  0
 26 17  1  0  0  0  0
 26 45  1  0  0  0  0
 27 17  1  0  0  0  0
 27 48  1  0  0  0  0
 27 50  1  0  0  0  0
 28 51  1  0  0  0  0
 28 18  1  0  0  0  0
 28 52  1  0  0  0  0
 29 55  1  0  0  0  0
 29 53  1  0  0  0  0
 30 56  1  0  0  0  0
 30 58  1  0  0  0  0
 31 60  1  0  0  0  0
 31  3  1  0  0  0  0
 32 63  1  0  0  0  0
 32 62  1  0  0  0  0
 33  3  1  0  0  0  0
 33 65  1  0  0  0  0
 34 68  1  0  0  0  0
 34 33  1  0  0  0  0
 35 34  1  0  0  0  0
 35  5  1  0  0  0  0
 36  7  1  0  0  0  0
 36 35  1  0  0  0  0
 37 36  1  0  0  0  0
 37  9  1  0  0  0  0
 38 39  1  0  0  0  0
 38 37  1  0  0  0  0
 39 12  1  0  0  0  0
 39 13  1  0  0  0  0
 40 16  1  0  0  0  0
 40 39  1  0  0  0  0
 41 21  1  0  0  0  0
 43 25  1  0  0  0  0
 44 25  1  0  0  0  0
 46 26  1  0  0  0  0
 49 27  1  0  0  0  0
 54 29  1  0  0  0  0
 57 30  1  0  0  0  0
 59 31  1  0  0  0  0
 61 31  1  0  0  0  0
 64 32  1  0  0  0  0
 66 33  1  0  0  0  0
 67 34  1  0  0  0  0
M  END
$$$$
