CSD_code = OBAREO | q = 0 | S = 0 | Stoichiometry = C22H33ClN4SiTi | MND = 6
 OpenBabel04212202073D

 62 65  0  0  1  0  0  0  0  0999 V2000
   -1.5276    6.6170    2.9338 Ti  0  0  0  0  0  0  0  0  0  0  0  0
    0.5762    6.7795    2.2188 Cl  0  0  0  0  0  0  0  0  0  0  0  0
   -0.8003    7.8894    6.0212 Si  0  0  0  0  0  0  0  0  0  0  0  0
   -1.2552    5.0156    4.0931 N   0  0  0  0  0  0  0  0  0  0  0  0
   -3.3914    6.3168    3.6472 N   0  0  0  0  0  0  0  0  0  0  0  0
   -2.0348    5.2037    1.3665 N   0  0  0  0  0  0  0  0  0  0  0  0
   -2.2187    7.6998    1.3944 N   0  0  0  0  0  0  0  0  0  0  0  0
   -2.3563    4.4057    4.4982 C   0  0  0  0  0  0  0  0  0  0  0  0
   -2.3312    3.2763    5.3490 C   0  0  0  0  0  3  0  0  0  0  0  0
   -3.3257    2.4043    5.7358 C   0  0  0  0  0  0  0  0  0  0  0  0
   -4.6506    2.3413    5.3303 C   0  0  0  0  0  0  0  0  0  0  0  0
   -5.3112    3.2570    4.5276 C   0  0  0  0  0  0  0  0  0  0  0  0
   -4.8665    4.4651    4.0314 C   0  0  0  0  0  0  0  0  0  0  0  0
   -3.5948    5.0758    4.0646 C   0  0  0  0  0  0  0  0  0  0  0  0
    0.0292    4.4162    4.3942 C   0  0  0  0  0  0  0  0  0  0  0  0
   -4.5364    7.1655    3.3987 C   0  0  0  0  0  0  0  0  0  0  0  0
   -3.1193    7.1117    0.6151 C   0  0  0  0  0  0  0  0  0  0  0  0
   -3.9210    7.8247   -0.2970 C   0  0  0  0  0  0  0  0  0  0  0  0
   -4.9898    7.4221   -1.0777 C   0  0  0  0  0  0  0  0  0  0  0  0
   -5.6084    6.1892   -1.1677 C   0  0  0  0  0  0  0  0  0  0  0  0
   -5.2090    5.0102   -0.5464 C   0  0  0  0  0  0  0  0  0  0  0  0
   -4.1029    4.7674    0.2306 C   0  0  0  0  0  0  0  0  0  0  0  0
   -3.1027    5.6394    0.7327 C   0  0  1  0  0  3  0  0  0  0  0  0
   -1.6975    3.8013    1.3452 C   0  0  0  0  0  0  0  0  0  0  0  0
   -1.9017    9.0986    1.1943 C   0  0  0  0  0  0  0  0  0  0  0  0
   -1.3326    8.2594    4.2507 C   0  0  0  0  0  0  0  0  0  0  0  0
    1.0316    7.3139    6.0354 C   0  0  0  0  0  0  0  0  0  0  0  0
   -1.9494    6.6232    6.9032 C   0  0  0  0  0  0  0  0  0  0  0  0
   -0.8808    9.4651    7.1259 C   0  0  0  0  0  0  0  0  0  0  0  0
   -1.3657    3.0675    5.7896 H   0  0  0  0  0  0  0  0  0  0  0  0
   -3.0119    1.6265    6.4226 H   0  0  0  0  0  0  0  0  0  0  0  0
   -5.2285    1.4992    5.6859 H   0  0  0  0  0  0  0  0  0  0  0  0
   -6.3423    3.0169    4.2941 H   0  0  0  0  0  0  0  0  0  0  0  0
   -5.6136    5.0200    3.4790 H   0  0  0  0  0  0  0  0  0  0  0  0
    0.7999    4.9382    3.8248 H   0  0  0  0  0  0  0  0  0  0  0  0
    0.0492    3.3518    4.1245 H   0  0  0  0  0  0  0  0  0  0  0  0
    0.2682    4.5104    5.4602 H   0  0  0  0  0  0  0  0  0  0  0  0
   -5.2366    7.1288    4.2432 H   0  0  0  0  0  0  0  0  0  0  0  0
   -5.0792    6.8831    2.4856 H   0  0  0  0  0  0  0  0  0  0  0  0
   -4.1880    8.1933    3.2833 H   0  0  0  0  0  0  0  0  0  0  0  0
   -3.6877    8.8765   -0.3874 H   0  0  0  0  0  0  0  0  0  0  0  0
   -5.4323    8.2081   -1.6795 H   0  0  0  0  0  0  0  0  0  0  0  0
   -6.4860    6.1297   -1.7972 H   0  0  0  0  0  0  0  0  0  0  0  0
   -5.8409    4.1490   -0.7339 H   0  0  0  0  0  0  0  0  0  0  0  0
   -3.9923    3.7389    0.5508 H   0  0  0  0  0  0  0  0  0  0  0  0
   -0.6559    3.7033    1.6591 H   0  0  0  0  0  0  0  0  0  0  0  0
   -2.3286    3.2018    2.0190 H   0  0  0  0  0  0  0  0  0  0  0  0
   -1.7907    3.3908    0.3314 H   0  0  0  0  0  0  0  0  0  0  0  0
   -0.9844    9.3278    1.7403 H   0  0  0  0  0  0  0  0  0  0  0  0
   -2.7025    9.7619    1.5518 H   0  0  0  0  0  0  0  0  0  0  0  0
   -1.7187    9.3096    0.1329 H   0  0  0  0  0  0  0  0  0  0  0  0
   -0.5574    8.9128    3.8290 H   0  0  0  0  0  0  0  0  0  0  0  0
   -2.2585    8.8482    4.2759 H   0  0  0  0  0  0  0  0  0  0  0  0
    1.6858    8.1215    6.3492 H   0  0  0  0  0  0  0  0  0  0  0  0
    1.2033    6.4824    6.7124 H   0  0  0  0  0  0  0  0  0  0  0  0
    1.3433    7.0120    5.0382 H   0  0  0  0  0  0  0  0  0  0  0  0
   -2.0967    6.8894    7.9454 H   0  0  0  0  0  0  0  0  0  0  0  0
   -1.5476    5.6156    6.8811 H   0  0  0  0  0  0  0  0  0  0  0  0
   -2.9276    6.5934    6.4299 H   0  0  0  0  0  0  0  0  0  0  0  0
   -1.9002    9.8238    7.2324 H   0  0  0  0  0  0  0  0  0  0  0  0
   -0.4986    9.2699    8.1231 H   0  0  0  0  0  0  0  0  0  0  0  0
   -0.2924   10.2744    6.7047 H   0  0  0  0  0  0  0  0  0  0  0  0
  1  5  1  0  0  0  0
  1  4  1  0  0  0  0
  1 26  1  0  0  0  0
  2  1  1  0  0  0  0
  3 27  1  0  0  0  0
  3 28  1  0  0  0  0
  3 29  1  0  0  0  0
  4 15  1  0  0  0  0
  4  8  1  0  0  0  0
  5 14  1  0  0  0  0
  6  1  1  0  0  0  0
  7  1  1  0  0  0  0
  8  9  1  0  0  0  0
  9 10  1  0  0  0  0
  9 30  1  0  0  0  0
 10 31  1  0  0  0  0
 11 32  1  0  0  0  0
 11 10  2  0  0  0  0
 12 11  1  0  0  0  0
 13 14  1  0  0  0  0
 13 12  2  0  0  0  0
 14  8  2  0  0  0  0
 15 37  1  0  0  0  0
 16  5  1  0  0  0  0
 16 38  1  0  0  0  0
 17 23  1  0  0  0  0
 17  7  1  0  0  0  0
 18 17  2  0  0  0  0
 19 18  1  0  0  0  0
 20 19  2  0  0  0  0
 20 21  1  0  0  0  0
 21 22  2  0  0  0  0
 22 45  1  0  0  0  0
 23 22  1  6  0  0  0
 23  6  1  0  0  0  0
 24  6  1  0  0  0  0
 24 46  1  0  0  0  0
 24 47  1  0  0  0  0
 25  7  1  0  0  0  0
 25 50  1  0  0  0  0
 25 49  1  0  0  0  0
 26 53  1  0  0  0  0
 26  3  1  0  0  0  0
 27 54  1  0  0  0  0
 27 55  1  0  0  0  0
 28 57  1  0  0  0  0
 29 60  1  0  0  0  0
 29 61  1  0  0  0  0
 33 12  1  0  0  0  0
 34 13  1  0  0  0  0
 35 15  1  0  0  0  0
 36 15  1  0  0  0  0
 39 16  1  0  0  0  0
 40 16  1  0  0  0  0
 41 18  1  0  0  0  0
 42 19  1  0  0  0  0
 43 20  1  0  0  0  0
 44 21  1  0  0  0  0
 48 24  1  0  0  0  0
 51 25  1  0  0  0  0
 52 26  1  0  0  0  0
 56 27  1  0  0  0  0
 58 28  1  0  0  0  0
 59 28  1  0  0  0  0
 62 29  1  0  0  0  0
M  END
$$$$
