CSD_code = OBASOB | q = 1 | S = 0 | Stoichiometry = C17H16I4MoN2O2P(1+) | MND = 6
 OpenBabel04212202073D

 43 45  0  0  1  0  0  0  0  0999 V2000
    4.7710   14.2193    4.2933 Mo  0  0  0  0  0  0  0  0  0  0  0  0
    4.8944   14.7038    1.6353 I   0  0  0  0  0  0  0  0  0  0  0  0
    7.4674   13.8456    4.4544 I   0  0  0  0  0  0  0  0  0  0  0  0
    4.6370   12.9926    6.8034 I   0  0  0  0  0  0  0  0  0  0  0  0
    2.0500   13.8538    4.1634 I   0  0  0  0  0  0  0  0  0  0  0  0
    5.0221   10.6445    3.4358 P   0  0  0  0  0  4  0  0  0  0  0  0
    4.7321   12.1064    3.6254 O   0  0  0  0  0  0  0  0  0  0  0  0
    4.7301   15.7474    4.8209 O   0  0  0  0  0  1  0  0  0  0  0  0
    3.3953    9.6656    6.8758 N   0  0  0  0  0  0  0  0  0  0  0  0
    4.2619    9.4919    7.3784 H   0  0  0  0  0  0  0  0  0  0  0  0
    4.6430    9.8174    4.9100 N   0  0  0  0  0  0  0  0  0  0  0  0
    5.4483    9.6280    5.4992 H   0  0  0  0  0  0  0  0  0  0  0  0
    3.4482    9.9001    5.5484 C   0  0  1  0  0  3  0  0  0  0  0  0
    2.2542   10.2190    4.8895 C   0  0  0  0  0  0  0  0  0  0  0  0
    2.2718   10.4019    3.8268 H   0  0  0  0  0  0  0  0  0  0  0  0
    1.0830   10.3245    5.6048 C   0  0  0  0  0  0  0  0  0  0  0  0
    0.1733   10.6071    5.0986 H   0  0  0  0  0  0  0  0  0  0  0  0
    1.0794   10.0869    6.9842 C   0  0  0  0  0  0  0  0  0  0  0  0
    0.1726   10.1742    7.5582 H   0  0  0  0  0  0  0  0  0  0  0  0
    2.2585    9.7571    7.5942 C   0  0  0  0  0  0  0  0  0  0  0  0
    2.3380    9.5713    8.6537 H   0  0  0  0  0  0  0  0  0  0  0  0
    6.7692   10.3196    3.1534 C   0  0  0  0  0  0  0  0  0  0  0  0
    7.2915   11.0353    2.0762 C   0  0  0  0  0  0  0  0  0  0  0  0
    6.6435   11.6958    1.5106 H   0  0  0  0  0  0  0  0  0  0  0  0
    8.6257   10.9047    1.7432 C   0  0  0  0  0  0  0  0  0  0  0  0
    9.0329   11.4671    0.9182 H   0  0  0  0  0  0  0  0  0  0  0  0
    9.4354   10.0520    2.4786 C   0  0  0  0  0  0  0  0  0  0  0  0
   10.4796    9.9537    2.2276 H   0  0  0  0  0  0  0  0  0  0  0  0
    8.9090    9.3211    3.5316 C   0  0  0  0  0  0  0  0  0  0  0  0
    9.5409    8.6511    4.0932 H   0  0  0  0  0  0  0  0  0  0  0  0
    7.5729    9.4455    3.8731 C   0  0  0  0  0  0  0  0  0  0  0  0
    7.1772    8.8558    4.6875 H   0  0  0  0  0  0  0  0  0  0  0  0
    4.0159    9.9366    2.1256 C   0  0  0  0  0  0  0  0  0  0  0  0
    3.2309   10.7615    1.3273 C   0  0  0  0  0  0  0  0  0  0  0  0
    3.1823   11.8240    1.5261 H   0  0  0  0  0  0  0  0  0  0  0  0
    2.5139   10.2109    0.2801 C   0  0  0  0  0  0  0  0  0  0  0  0
    1.9041   10.8459   -0.3427 H   0  0  0  0  0  0  0  0  0  0  0  0
    2.5889    8.8490    0.0325 C   0  0  0  0  0  0  0  0  0  0  0  0
    2.0323    8.4225   -0.7873 H   0  0  0  0  0  0  0  0  0  0  0  0
    3.3816    8.0305    0.8256 C   0  0  0  0  0  0  0  0  0  0  0  0
    3.4411    6.9730    0.6214 H   0  0  0  0  0  0  0  0  0  0  0  0
    4.1045    8.5718    1.8715 C   0  0  0  0  0  0  0  0  0  0  0  0
    4.7370    7.9518    2.4904 H   0  0  0  0  0  0  0  0  0  0  0  0
  1  3  1  0  0  0  0
  1  8  1  0  0  0  0
  1  4  1  0  0  0  0
  2  1  1  0  0  0  0
  5  1  1  0  0  0  0
  6  7  1  0  0  0  0
  6 11  1  0  0  0  0
  7  1  1  0  0  0  0
  9 10  1  0  0  0  0
  9 20  1  0  0  0  0
 11 12  1  0  0  0  0
 13 11  1  6  0  0  0
 13  9  1  0  0  0  0
 14 13  1  0  0  0  0
 14 16  2  0  0  0  0
 15 14  1  0  0  0  0
 16 18  1  0  0  0  0
 17 16  1  0  0  0  0
 18 19  1  0  0  0  0
 18 20  2  0  0  0  0
 20 21  1  0  0  0  0
 22  6  1  0  0  0  0
 22 31  1  0  0  0  0
 23 22  2  0  0  0  0
 24 23  1  0  0  0  0
 25 23  1  0  0  0  0
 25 27  2  0  0  0  0
 26 25  1  0  0  0  0
 27 29  1  0  0  0  0
 28 27  1  0  0  0  0
 29 31  2  0  0  0  0
 29 30  1  0  0  0  0
 31 32  1  0  0  0  0
 33  6  1  0  0  0  0
 34 35  1  0  0  0  0
 34 33  2  0  0  0  0
 36 34  1  0  0  0  0
 37 36  1  0  0  0  0
 38 36  2  0  0  0  0
 38 40  1  0  0  0  0
 39 38  1  0  0  0  0
 40 42  2  0  0  0  0
 41 40  1  0  0  0  0
 42 33  1  0  0  0  0
 42 43  1  0  0  0  0
M  END
$$$$
