CSD_code = OBAVIY | q = 0 | S = 0 | Stoichiometry = C10H24Cl2N2Ni | MND = 4
 OpenBabel04212202073D

 39 39  0  0  0  0  0  0  0  0999 V2000
   -0.1568    5.8779    5.5740 Ni  0  0  0  0  0  0  0  0  0  0  0  0
    1.2595    4.5481    4.9239 Cl  0  0  0  0  0  0  0  0  0  0  0  0
   -1.8704    6.6856    6.3552 Cl  0  0  0  0  0  0  0  0  0  0  0  0
   -0.0356    7.4678    4.0131 N   0  0  0  0  0  4  0  0  0  0  0  0
   -0.8129    8.0287    4.3712 H   0  0  0  0  0  0  0  0  0  0  0  0
    1.4224    7.2421    6.4092 N   0  0  0  0  0  4  0  0  0  0  0  0
    2.2206    6.7050    6.0607 H   0  0  0  0  0  0  0  0  0  0  0  0
    1.1887    8.2391    4.1955 C   0  0  0  0  0  0  0  0  0  0  0  0
    1.1546    9.1996    3.6637 H   0  0  0  0  0  0  0  0  0  0  0  0
    2.0297    7.6534    3.8198 H   0  0  0  0  0  0  0  0  0  0  0  0
    1.3948    8.5112    5.6917 C   0  0  0  0  0  0  0  0  0  0  0  0
    2.3250    9.0809    5.8219 H   0  0  0  0  0  0  0  0  0  0  0  0
    0.5585    9.1053    6.0649 H   0  0  0  0  0  0  0  0  0  0  0  0
   -0.4079    7.0466    2.6459 C   0  0  0  0  0  0  0  0  0  0  0  0
    0.7673    6.3660    1.9482 C   0  0  0  0  0  0  0  0  0  0  0  0
    1.5376    7.0829    1.6759 H   0  0  0  0  0  0  0  0  0  0  0  0
    0.4223    5.8813    1.0391 H   0  0  0  0  0  0  0  0  0  0  0  0
    1.1961    5.6100    2.6016 H   0  0  0  0  0  0  0  0  0  0  0  0
   -1.5548    6.0476    2.8259 C   0  0  0  0  0  0  0  0  0  0  0  0
   -1.8045    5.5556    1.8903 H   0  0  0  0  0  0  0  0  0  0  0  0
   -2.4435    6.5444    3.2107 H   0  0  0  0  0  0  0  0  0  0  0  0
   -1.2434    5.2764    3.5504 H   0  0  0  0  0  0  0  0  0  0  0  0
   -0.8913    8.2504    1.8283 C   0  0  0  0  0  0  0  0  0  0  0  0
   -0.0871    8.9669    1.6768 H   0  0  0  0  0  0  0  0  0  0  0  0
   -1.7167    8.7515    2.3307 H   0  0  0  0  0  0  0  0  0  0  0  0
   -1.2365    7.9196    0.8527 H   0  0  0  0  0  0  0  0  0  0  0  0
    1.5343    7.2641    7.8824 C   0  0  0  0  0  0  0  0  0  0  0  0
    0.4821    8.1873    8.4920 C   0  0  0  0  0  0  0  0  0  0  0  0
    0.7202    9.2330    8.3147 H   0  0  0  0  0  0  0  0  0  0  0  0
    0.4360    8.0307    9.5660 H   0  0  0  0  0  0  0  0  0  0  0  0
   -0.4939    7.9645    8.0675 H   0  0  0  0  0  0  0  0  0  0  0  0
    1.2807    5.8211    8.3287 C   0  0  0  0  0  0  0  0  0  0  0  0
    0.3445    5.4664    7.8659 H   0  0  0  0  0  0  0  0  0  0  0  0
    1.1767    5.7502    9.4075 H   0  0  0  0  0  0  0  0  0  0  0  0
    2.0915    5.1690    8.0094 H   0  0  0  0  0  0  0  0  0  0  0  0
    2.9406    7.7014    8.3094 C   0  0  0  0  0  0  0  0  0  0  0  0
    3.6973    7.0598    7.8615 H   0  0  0  0  0  0  0  0  0  0  0  0
    3.0350    7.6370    9.3899 H   0  0  0  0  0  0  0  0  0  0  0  0
    3.1350    8.7300    8.0144 H   0  0  0  0  0  0  0  0  0  0  0  0
  1  3  1  0  0  0  0
  1  6  1  0  0  0  0
  2  1  1  0  0  0  0
  4  8  1  0  0  0  0
  4  5  1  0  0  0  0
  4  1  1  0  0  0  0
  6 27  1  0  0  0  0
  7  6  1  0  0  0  0
  8 11  1  0  0  0  0
  9  8  1  0  0  0  0
 10  8  1  0  0  0  0
 11 12  1  0  0  0  0
 11 13  1  0  0  0  0
 11  6  1  0  0  0  0
 14 19  1  0  0  0  0
 14  4  1  0  0  0  0
 15 18  1  0  0  0  0
 15 14  1  0  0  0  0
 16 15  1  0  0  0  0
 17 15  1  0  0  0  0
 19 21  1  0  0  0  0
 19 22  1  0  0  0  0
 20 19  1  0  0  0  0
 23 25  1  0  0  0  0
 23 14  1  0  0  0  0
 24 23  1  0  0  0  0
 26 23  1  0  0  0  0
 27 36  1  0  0  0  0
 27 32  1  0  0  0  0
 27 28  1  0  0  0  0
 28 30  1  0  0  0  0
 29 28  1  0  0  0  0
 31 28  1  0  0  0  0
 32 34  1  0  0  0  0
 33 32  1  0  0  0  0
 35 32  1  0  0  0  0
 36 38  1  0  0  0  0
 37 36  1  0  0  0  0
 39 36  1  0  0  0  0
M  END
$$$$
