CSD_code = OBAWOF | q = 0 | S = 0 | Stoichiometry = C18H40Cl2NiP2 | MND = 4
 OpenBabel04212202073D

 63 63  0  0  0  0  0  0  0  0999 V2000
    2.1654    4.3465    6.6217 Ni  0  0  0  0  0  0  0  0  0  0  0  0
    3.3318    4.5402    4.8699 Cl  0  0  0  0  0  0  0  0  0  0  0  0
    0.9487    2.8204    5.8103 Cl  0  0  0  0  0  0  0  0  0  0  0  0
    0.6359    4.8089    8.1164 P   0  0  0  0  0  4  0  0  0  0  0  0
    3.7469    5.2790    7.8123 P   0  0  0  0  0  4  0  0  0  0  0  0
    1.5189    5.5429    9.5919 C   0  0  0  0  0  0  0  0  0  0  0  0
    0.9013    6.3256   10.0394 H   0  0  0  0  0  0  0  0  0  0  0  0
    1.5900    4.7297   10.3156 H   0  0  0  0  0  0  0  0  0  0  0  0
    2.9211    6.0773    9.2874 C   0  0  0  0  0  0  0  0  0  0  0  0
    3.5642    5.9828   10.1660 H   0  0  0  0  0  0  0  0  0  0  0  0
    2.8594    7.1383    9.0411 H   0  0  0  0  0  0  0  0  0  0  0  0
   -0.5874    3.6173    8.9470 C   0  0  0  0  0  0  0  0  0  0  0  0
   -1.7061    3.2556    7.9696 C   0  0  0  0  0  0  0  0  0  0  0  0
   -2.2808    2.4219    8.3713 H   0  0  0  0  0  0  0  0  0  0  0  0
   -1.2813    2.9454    7.0170 H   0  0  0  0  0  0  0  0  0  0  0  0
   -2.3935    4.0821    7.8132 H   0  0  0  0  0  0  0  0  0  0  0  0
    0.1853    2.3311    9.2543 C   0  0  0  0  0  0  0  0  0  0  0  0
    0.6457    1.9464    8.3455 H   0  0  0  0  0  0  0  0  0  0  0  0
   -0.5014    1.5729    9.6272 H   0  0  0  0  0  0  0  0  0  0  0  0
    0.9474    2.4873   10.0148 H   0  0  0  0  0  0  0  0  0  0  0  0
   -1.1862    4.1524   10.2497 C   0  0  0  0  0  0  0  0  0  0  0  0
   -0.4314    4.2937   11.0193 H   0  0  0  0  0  0  0  0  0  0  0  0
   -1.9001    3.4196   10.6243 H   0  0  0  0  0  0  0  0  0  0  0  0
   -1.7165    5.0878   10.1091 H   0  0  0  0  0  0  0  0  0  0  0  0
   -0.3125    6.2675    7.3483 C   0  0  0  0  0  0  0  0  0  0  0  0
    0.7253    7.3696    7.1319 C   0  0  0  0  0  0  0  0  0  0  0  0
    1.0211    7.8365    8.0688 H   0  0  0  0  0  0  0  0  0  0  0  0
    0.3156    8.1461    6.4870 H   0  0  0  0  0  0  0  0  0  0  0  0
    1.6012    6.9488    6.6335 H   0  0  0  0  0  0  0  0  0  0  0  0
   -0.7970    5.8314    5.9635 C   0  0  0  0  0  0  0  0  0  0  0  0
   -1.5504    5.0528    6.0124 H   0  0  0  0  0  0  0  0  0  0  0  0
    0.0455    5.4510    5.3786 H   0  0  0  0  0  0  0  0  0  0  0  0
   -1.2187    6.6842    5.4325 H   0  0  0  0  0  0  0  0  0  0  0  0
   -1.4640    6.8334    8.1734 C   0  0  0  0  0  0  0  0  0  0  0  0
   -1.1419    7.1062    9.1772 H   0  0  0  0  0  0  0  0  0  0  0  0
   -2.2981    6.1415    8.2416 H   0  0  0  0  0  0  0  0  0  0  0  0
   -1.8288    7.7384    7.6872 H   0  0  0  0  0  0  0  0  0  0  0  0
    4.9761    6.6244    7.2779 C   0  0  0  0  0  0  0  0  0  0  0  0
    4.1922    7.6284    6.4273 C   0  0  0  0  0  0  0  0  0  0  0  0
    3.4578    8.1733    7.0166 H   0  0  0  0  0  0  0  0  0  0  0  0
    3.6967    7.1140    5.6054 H   0  0  0  0  0  0  0  0  0  0  0  0
    4.8777    8.3581    5.9993 H   0  0  0  0  0  0  0  0  0  0  0  0
    6.0574    6.0152    6.3851 C   0  0  0  0  0  0  0  0  0  0  0  0
    6.7552    5.4037    6.9502 H   0  0  0  0  0  0  0  0  0  0  0  0
    6.6283    6.8137    5.9127 H   0  0  0  0  0  0  0  0  0  0  0  0
    5.5981    5.4182    5.5997 H   0  0  0  0  0  0  0  0  0  0  0  0
    5.6242    7.3722    8.4453 C   0  0  0  0  0  0  0  0  0  0  0  0
    6.1647    6.7107    9.1131 H   0  0  0  0  0  0  0  0  0  0  0  0
    4.8962    7.9329    9.0265 H   0  0  0  0  0  0  0  0  0  0  0  0
    6.3377    8.0882    8.0388 H   0  0  0  0  0  0  0  0  0  0  0  0
    4.6947    3.7972    8.5351 C   0  0  0  0  0  0  0  0  0  0  0  0
    5.8787    4.1289    9.4378 C   0  0  0  0  0  0  0  0  0  0  0  0
    6.7034    4.5700    8.8862 H   0  0  0  0  0  0  0  0  0  0  0  0
    6.2432    3.2053    9.8881 H   0  0  0  0  0  0  0  0  0  0  0  0
    5.5907    4.7980   10.2472 H   0  0  0  0  0  0  0  0  0  0  0  0
    3.6683    3.0015    9.3426 C   0  0  0  0  0  0  0  0  0  0  0  0
    2.7724    2.8479    8.7374 H   0  0  0  0  0  0  0  0  0  0  0  0
    3.4064    3.5039   10.2711 H   0  0  0  0  0  0  0  0  0  0  0  0
    4.0718    2.0218    9.5958 H   0  0  0  0  0  0  0  0  0  0  0  0
    5.1312    2.9084    7.3682 C   0  0  0  0  0  0  0  0  0  0  0  0
    5.8732    3.3852    6.7370 H   0  0  0  0  0  0  0  0  0  0  0  0
    4.2660    2.6617    6.7460 H   0  0  0  0  0  0  0  0  0  0  0  0
    5.5508    1.9773    7.7476 H   0  0  0  0  0  0  0  0  0  0  0  0
  1  5  1  0  0  0  0
  1  4  1  0  0  0  0
  2  1  1  0  0  0  0
  3  1  1  0  0  0  0
  4 12  1  0  0  0  0
  4  6  1  0  0  0  0
  5 51  1  0  0  0  0
  5  9  1  0  0  0  0
  6  7  1  0  0  0  0
  6  8  1  0  0  0  0
  9  6  1  0  0  0  0
  9 10  1  0  0  0  0
 11  9  1  0  0  0  0
 12 17  1  0  0  0  0
 12 21  1  0  0  0  0
 13 14  1  0  0  0  0
 13 12  1  0  0  0  0
 15 13  1  0  0  0  0
 16 13  1  0  0  0  0
 17 19  1  0  0  0  0
 17 20  1  0  0  0  0
 18 17  1  0  0  0  0
 21 23  1  0  0  0  0
 21 22  1  0  0  0  0
 24 21  1  0  0  0  0
 25  4  1  0  0  0  0
 25 34  1  0  0  0  0
 26 25  1  0  0  0  0
 26 27  1  0  0  0  0
 28 26  1  0  0  0  0
 29 26  1  0  0  0  0
 30 31  1  0  0  0  0
 30 25  1  0  0  0  0
 32 30  1  0  0  0  0
 33 30  1  0  0  0  0
 34 36  1  0  0  0  0
 34 35  1  0  0  0  0
 37 34  1  0  0  0  0
 38  5  1  0  0  0  0
 38 47  1  0  0  0  0
 39 40  1  0  0  0  0
 39 38  1  0  0  0  0
 41 39  1  0  0  0  0
 42 39  1  0  0  0  0
 43 44  1  0  0  0  0
 43 38  1  0  0  0  0
 45 43  1  0  0  0  0
 46 43  1  0  0  0  0
 47 49  1  0  0  0  0
 47 48  1  0  0  0  0
 50 47  1  0  0  0  0
 51 56  1  0  0  0  0
 51 52  1  0  0  0  0
 52 54  1  0  0  0  0
 52 55  1  0  0  0  0
 53 52  1  0  0  0  0
 56 59  1  0  0  0  0
 56 58  1  0  0  0  0
 57 56  1  0  0  0  0
 60 63  1  0  0  0  0
 60 51  1  0  0  0  0
 61 60  1  0  0  0  0
 62 60  1  0  0  0  0
M  END
$$$$
