CSD_code = OBAWIZ | q = 0 | S = 0 | Stoichiometry = C21H16Cl2NPPd | MND = 4
 OpenBabel04212202073D

 42 46  0  0  1  0  0  0  0  0999 V2000
    8.0089    4.1299    5.3327 Pd  0  0  0  0  0  0  0  0  0  0  0  0
    8.2430    2.4931    6.8370 P   0  0  0  0  0  4  0  0  0  0  0  0
   10.1040    3.8044    4.6543 Cl  0  0  0  0  0  0  0  0  0  0  0  0
    7.8490    5.9950    4.0637 Cl  0  0  0  0  0  0  0  0  0  0  0  0
    6.0689    4.2584    6.0265 N   0  0  0  0  0  0  0  0  0  0  0  0
    5.2072    5.1200    5.5276 C   0  0  0  0  0  0  0  0  0  0  0  0
    5.5831    5.7697    4.7423 H   0  0  0  0  0  0  0  0  0  0  0  0
    3.8849    5.2299    5.9799 C   0  0  0  0  0  0  0  0  0  0  0  0
    3.2356    5.9615    5.5266 H   0  0  0  0  0  0  0  0  0  0  0  0
    3.4485    4.4124    6.9863 C   0  0  0  0  0  0  0  0  0  0  0  0
    2.4392    4.4695    7.3664 H   0  0  0  0  0  0  0  0  0  0  0  0
    3.9724    2.5886    8.5742 C   0  0  0  0  0  0  0  0  0  0  0  0
    2.9634    2.6393    8.9559 H   0  0  0  0  0  0  0  0  0  0  0  0
    4.8687    1.6879    9.0829 C   0  0  0  0  0  0  0  0  0  0  0  0
    4.5771    1.0178    9.8774 H   0  0  0  0  0  0  0  0  0  0  0  0
    6.1710    1.6252    8.5739 C   0  0  0  0  0  0  0  0  0  0  0  0
    6.8703    0.9077    8.9778 H   0  0  0  0  0  0  0  0  0  0  0  0
    6.5681    2.4643    7.5591 C   0  0  0  0  0  0  0  0  0  0  0  0
    5.6660    3.4177    7.0240 C   0  0  2  0  0  3  0  0  0  0  0  0
    4.3431    3.4712    7.5395 C   0  0  0  0  0  0  0  0  0  0  0  0
    8.7925    0.7760    6.7065 C   0  0  0  0  0  0  0  0  0  0  0  0
    7.9040   -0.2802    6.5285 C   0  0  0  0  0  0  0  0  0  0  0  0
    6.8377   -0.0969    6.5300 H   0  0  0  0  0  0  0  0  0  0  0  0
    8.3910   -1.5623    6.3473 C   0  0  0  0  0  0  0  0  0  0  0  0
    7.7021   -2.3844    6.2187 H   0  0  0  0  0  0  0  0  0  0  0  0
    9.7574   -1.7914    6.3204 C   0  0  0  0  0  0  0  0  0  0  0  0
   10.1316   -2.7940    6.1763 H   0  0  0  0  0  0  0  0  0  0  0  0
   10.6441   -0.7346    6.4608 C   0  0  0  0  0  0  0  0  0  0  0  0
   11.7083   -0.9119    6.4181 H   0  0  0  0  0  0  0  0  0  0  0  0
   10.1670    0.5488    6.6465 C   0  0  0  0  0  0  0  0  0  0  0  0
   10.8452    1.3871    6.7338 H   0  0  0  0  0  0  0  0  0  0  0  0
    9.1956    3.1828    8.2296 C   0  0  0  0  0  0  0  0  0  0  0  0
    9.4433    4.5544    8.2096 C   0  0  0  0  0  0  0  0  0  0  0  0
    9.1139    5.1537    7.3488 H   0  0  0  0  0  0  0  0  0  0  0  0
   10.1262    5.1481    9.2555 C   0  0  0  0  0  0  0  0  0  0  0  0
   10.3269    6.2086    9.2352 H   0  0  0  0  0  0  0  0  0  0  0  0
   10.5601    4.3787   10.3238 C   0  0  0  0  0  0  0  0  0  0  0  0
   11.0976    4.8416   11.1378 H   0  0  0  0  0  0  0  0  0  0  0  0
   10.3135    3.0153   10.3464 C   0  0  0  0  0  0  0  0  0  0  0  0
   10.6574    2.4176   11.1777 H   0  0  0  0  0  0  0  0  0  0  0  0
    9.6311    2.4141    9.3041 C   0  0  0  0  0  0  0  0  0  0  0  0
    9.4511    1.3481    9.3151 H   0  0  0  0  0  0  0  0  0  0  0  0
  1  5  1  0  0  0  0
  1  2  1  0  0  0  0
  2 18  1  0  0  0  0
  2 32  1  0  0  0  0
  3  1  1  0  0  0  0
  4  1  1  0  0  0  0
  5 19  1  0  0  0  0
  6  8  2  0  0  0  0
  6  5  1  0  0  0  0
  7  6  1  0  0  0  0
  8 10  1  0  0  0  0
  9  8  1  0  0  0  0
 10 11  1  0  0  0  0
 10 20  2  0  0  0  0
 12 13  1  0  0  0  0
 12 14  2  0  0  0  0
 14 15  1  0  0  0  0
 16 17  1  0  0  0  0
 16 14  1  0  0  0  0
 18 16  2  0  0  0  0
 19 20  1  6  0  0  0
 19 18  1  0  0  0  0
 20 12  1  0  0  0  0
 21  2  1  0  0  0  0
 22 23  1  0  0  0  0
 22 21  2  0  0  0  0
 24 22  1  0  0  0  0
 25 24  1  0  0  0  0
 26 24  2  0  0  0  0
 26 28  1  0  0  0  0
 27 26  1  0  0  0  0
 28 30  2  0  0  0  0
 29 28  1  0  0  0  0
 30 21  1  0  0  0  0
 30 31  1  0  0  0  0
 32 41  1  0  0  0  0
 33 32  2  0  0  0  0
 33 35  1  0  0  0  0
 34 33  1  0  0  0  0
 35 37  2  0  0  0  0
 36 35  1  0  0  0  0
 37 39  1  0  0  0  0
 37 38  1  0  0  0  0
 39 40  1  0  0  0  0
 41 42  1  0  0  0  0
 41 39  2  0  0  0  0
M  END
$$$$
