CSD_code = OBAXUM | q = 0 | S = 0 | Stoichiometry = C17H33Cl2FeN3P2 | MND = 5
 OpenBabel04212202073D

 58 60  0  0  1  0  0  0  0  0999 V2000
    2.3050    4.1552    3.1179 Fe  0  0  0  0  0  0  0  0  0  0  0  0
    0.9670    3.6696    4.7071 Cl  0  0  0  0  0  0  0  0  0  0  0  0
    3.8317    2.6083    3.2479 Cl  0  0  0  0  0  0  0  0  0  0  0  0
    3.5084    5.4873    4.3337 P   0  0  0  0  0  4  0  0  0  0  0  0
    1.2026    3.0219    1.6313 P   0  0  0  0  0  4  0  0  0  0  0  0
    3.2372    4.9294    1.6191 N   0  0  0  0  0  0  0  0  0  0  0  0
    4.4414    6.2121    3.1048 N   0  0  0  0  0  0  0  0  0  0  0  0
    5.2502    6.7890    3.2892 H   0  0  0  0  0  0  0  0  0  0  0  0
    1.9584    3.6182    0.2235 N   0  0  0  0  0  0  0  0  0  0  0  0
    1.8248    3.2075   -0.6903 H   0  0  0  0  0  0  0  0  0  0  0  0
    4.2418    5.8063    1.8107 C   0  0  2  0  0  3  0  0  0  0  0  0
    5.0110    6.2999    0.7626 C   0  0  0  0  0  0  0  0  0  0  0  0
    5.8038    7.0017    0.9653 H   0  0  0  0  0  0  0  0  0  0  0  0
    4.7479    5.8633   -0.5236 C   0  0  0  0  0  0  0  0  0  0  0  0
    5.3347    6.2235   -1.3535 H   0  0  0  0  0  0  0  0  0  0  0  0
    3.7255    4.9545   -0.7302 C   0  0  0  0  0  0  0  0  0  0  0  0
    3.4952    4.5841   -1.7161 H   0  0  0  0  0  0  0  0  0  0  0  0
    2.9956    4.5035    0.3642 C   0  0  0  0  0  0  0  0  0  0  0  0
    4.7411    5.0679    5.6618 C   0  0  0  0  0  0  0  0  0  0  0  0
    4.9419    5.9797    6.2410 H   0  0  0  0  0  0  0  0  0  0  0  0
    4.0560    4.0388    6.5585 C   0  0  0  0  0  0  0  0  0  0  0  0
    3.9011    3.1179    6.0002 H   0  0  0  0  0  0  0  0  0  0  0  0
    3.0822    4.3973    6.8910 H   0  0  0  0  0  0  0  0  0  0  0  0
    4.6657    3.8196    7.4331 H   0  0  0  0  0  0  0  0  0  0  0  0
    6.0447    4.5182    5.0931 C   0  0  0  0  0  0  0  0  0  0  0  0
    6.6807    4.1718    5.9058 H   0  0  0  0  0  0  0  0  0  0  0  0
    6.5929    5.2747    4.5336 H   0  0  0  0  0  0  0  0  0  0  0  0
    5.8374    3.6765    4.4361 H   0  0  0  0  0  0  0  0  0  0  0  0
    2.6485    6.9828    5.0568 C   0  0  0  0  0  0  0  0  0  0  0  0
    2.3085    6.6890    6.0561 H   0  0  0  0  0  0  0  0  0  0  0  0
    3.5364    8.2186    5.1558 C   0  0  0  0  0  0  0  0  0  0  0  0
    3.7887    8.5862    4.1629 H   0  0  0  0  0  0  0  0  0  0  0  0
    4.4580    8.0161    5.6978 H   0  0  0  0  0  0  0  0  0  0  0  0
    3.0060    9.0108    5.6818 H   0  0  0  0  0  0  0  0  0  0  0  0
    1.4337    7.2536    4.1728 C   0  0  0  0  0  0  0  0  0  0  0  0
    0.8853    8.1291    4.5162 H   0  0  0  0  0  0  0  0  0  0  0  0
    0.7623    6.3959    4.1932 H   0  0  0  0  0  0  0  0  0  0  0  0
    1.7489    7.4269    3.1422 H   0  0  0  0  0  0  0  0  0  0  0  0
    1.1522    1.1788    1.3803 C   0  0  0  0  0  0  0  0  0  0  0  0
    0.3022    0.9483    0.7228 H   0  0  0  0  0  0  0  0  0  0  0  0
    0.9034    0.5753    2.7611 C   0  0  0  0  0  0  0  0  0  0  0  0
    0.7348   -0.4976    2.6909 H   0  0  0  0  0  0  0  0  0  0  0  0
    0.0385    1.0358    3.2382 H   0  0  0  0  0  0  0  0  0  0  0  0
    1.7695    0.7531    3.3950 H   0  0  0  0  0  0  0  0  0  0  0  0
    2.4405    0.6387    0.7693 C   0  0  0  0  0  0  0  0  0  0  0  0
    3.2939    0.9487    1.3683 H   0  0  0  0  0  0  0  0  0  0  0  0
    2.5820    0.9889   -0.2522 H   0  0  0  0  0  0  0  0  0  0  0  0
    2.4092   -0.4494    0.7527 H   0  0  0  0  0  0  0  0  0  0  0  0
   -0.5787    3.4908    1.3046 C   0  0  0  0  0  0  0  0  0  0  0  0
   -1.1902    2.8222    1.9210 H   0  0  0  0  0  0  0  0  0  0  0  0
   -0.7587    4.9257    1.7931 C   0  0  0  0  0  0  0  0  0  0  0  0
   -0.0481    5.5864    1.2921 H   0  0  0  0  0  0  0  0  0  0  0  0
   -0.5849    4.9740    2.8671 H   0  0  0  0  0  0  0  0  0  0  0  0
   -1.7658    5.2858    1.5902 H   0  0  0  0  0  0  0  0  0  0  0  0
   -0.9874    3.3577   -0.1589 C   0  0  0  0  0  0  0  0  0  0  0  0
   -2.0594    3.5221   -0.2577 H   0  0  0  0  0  0  0  0  0  0  0  0
   -0.7622    2.3693   -0.5554 H   0  0  0  0  0  0  0  0  0  0  0  0
   -0.4763    4.1029   -0.7658 H   0  0  0  0  0  0  0  0  0  0  0  0
  1  3  1  0  0  0  0
  1  4  1  0  0  0  0
  1  2  1  0  0  0  0
  4 29  1  0  0  0  0
  4 19  1  0  0  0  0
  5  1  1  0  0  0  0
  6 11  1  0  0  0  0
  6  1  1  0  0  0  0
  7  8  1  0  0  0  0
  7  4  1  0  0  0  0
  9 18  1  0  0  0  0
  9  5  1  0  0  0  0
 10  9  1  0  0  0  0
 11 12  1  6  0  0  0
 11  7  1  0  0  0  0
 12 13  1  0  0  0  0
 14 12  2  0  0  0  0
 15 14  1  0  0  0  0
 16 14  1  0  0  0  0
 16 18  2  0  0  0  0
 17 16  1  0  0  0  0
 18  6  1  0  0  0  0
 19 20  1  0  0  0  0
 19 21  1  0  0  0  0
 21 23  1  0  0  0  0
 21 24  1  0  0  0  0
 22 21  1  0  0  0  0
 25 19  1  0  0  0  0
 25 26  1  0  0  0  0
 27 25  1  0  0  0  0
 28 25  1  0  0  0  0
 29 31  1  0  0  0  0
 29 30  1  0  0  0  0
 31 34  1  0  0  0  0
 31 33  1  0  0  0  0
 32 31  1  0  0  0  0
 35 37  1  0  0  0  0
 35 36  1  0  0  0  0
 35 29  1  0  0  0  0
 38 35  1  0  0  0  0
 39  5  1  0  0  0  0
 39 41  1  0  0  0  0
 40 39  1  0  0  0  0
 41 43  1  0  0  0  0
 41 44  1  0  0  0  0
 42 41  1  0  0  0  0
 45 46  1  0  0  0  0
 45 39  1  0  0  0  0
 47 45  1  0  0  0  0
 48 45  1  0  0  0  0
 49  5  1  0  0  0  0
 49 51  1  0  0  0  0
 49 50  1  0  0  0  0
 51 53  1  0  0  0  0
 52 51  1  0  0  0  0
 54 51  1  0  0  0  0
 55 49  1  0  0  0  0
 56 55  1  0  0  0  0
 57 55  1  0  0  0  0
 58 55  1  0  0  0  0
M  END
$$$$
