CSD_code = OBEFOS | q = 0 | S = 0 | Stoichiometry = C22H36Cl2N8Zn | MND = 4
 OpenBabel04212202073D

 69 70  0  0  1  0  0  0  0  0999 V2000
   -1.9404    5.1664    3.6232 Zn  0  0  0  0  0  0  0  0  0  0  0  0
   -1.7157    3.7150    5.3036 Cl  0  0  0  0  0  0  0  0  0  0  0  0
   -0.9700    7.1936    3.9658 Cl  0  0  0  0  0  0  0  0  0  0  0  0
   -2.5195    3.0014    2.0986 N   0  0  0  0  0  2  0  0  0  0  0  0
   -4.5409    2.8457    0.9075 N   0  0  0  0  0  0  0  0  0  0  0  0
   -4.0830    1.4863    2.7507 N   0  0  0  0  0  0  0  0  0  0  0  0
   -1.0265    4.6637    1.8359 N   0  0  0  0  0  0  0  0  0  0  0  0
   -3.5770    6.8064    1.9568 N   0  0  0  0  0  0  0  0  0  0  0  0
   -3.4691    9.0400    2.6705 N   0  0  0  0  0  0  0  0  0  0  0  0
   -2.4206    8.3477    0.7167 N   0  0  0  0  0  0  0  0  0  0  0  0
   -4.0405    5.3535    3.6379 N   0  0  0  0  0  0  0  0  0  0  0  0
   -3.6731    2.4624    1.8969 C   0  0  0  0  0  3  0  0  0  0  0  0
   -4.3280    4.0635    0.1656 C   0  0  0  0  0  0  0  0  0  0  0  0
   -3.7694    4.7755    0.7676 H   0  0  0  0  0  0  0  0  0  0  0  0
   -5.3023    4.4973   -0.0710 H   0  0  0  0  0  0  0  0  0  0  0  0
   -3.7892    3.8909   -0.7739 H   0  0  0  0  0  0  0  0  0  0  0  0
   -5.4654    1.9202    0.2949 C   0  0  0  0  0  0  0  0  0  0  0  0
   -5.3568    0.9325    0.7332 H   0  0  0  0  0  0  0  0  0  0  0  0
   -5.2544    1.8480   -0.7773 H   0  0  0  0  0  0  0  0  0  0  0  0
   -6.4994    2.2578    0.4123 H   0  0  0  0  0  0  0  0  0  0  0  0
   -3.0782    0.9521    3.6542 C   0  0  0  0  0  0  0  0  0  0  0  0
   -2.1905    0.6853    3.0846 H   0  0  0  0  0  0  0  0  0  0  0  0
   -3.4830    0.0595    4.1268 H   0  0  0  0  0  0  0  0  0  0  0  0
   -2.7813    1.6803    4.4148 H   0  0  0  0  0  0  0  0  0  0  0  0
   -5.4276    1.4672    3.2890 C   0  0  0  0  0  0  0  0  0  0  0  0
   -5.3955    1.6896    4.3581 H   0  0  0  0  0  0  0  0  0  0  0  0
   -5.8792    0.4805    3.1545 H   0  0  0  0  0  0  0  0  0  0  0  0
   -6.0469    2.2181    2.8065 H   0  0  0  0  0  0  0  0  0  0  0  0
   -1.5807    3.5538    1.3281 C   0  0  1  0  0  3  0  0  0  0  0  0
   -1.6170    1.6589   -0.3581 C   0  0  0  0  0  0  0  0  0  0  0  0
   -2.5314    1.8271   -0.9273 H   0  0  0  0  0  0  0  0  0  0  0  0
   -1.8573    0.9938    0.4699 H   0  0  0  0  0  0  0  0  0  0  0  0
   -0.8990    1.1670   -1.0103 H   0  0  0  0  0  0  0  0  0  0  0  0
   -1.0519    2.9476    0.1571 C   0  0  0  0  0  0  0  0  0  0  0  0
    0.0152    3.5652   -0.4543 C   0  0  0  0  0  0  0  0  0  0  0  0
    0.4443    3.1296   -1.3463 H   0  0  0  0  0  0  0  0  0  0  0  0
    0.5535    4.7391    0.0730 C   0  0  0  0  0  0  0  0  0  0  0  0
    1.3915    5.2261   -0.3983 H   0  0  0  0  0  0  0  0  0  0  0  0
    0.0058    5.2404    1.2318 C   0  0  0  0  0  0  0  0  0  0  0  0
    0.3874    6.1284    1.7160 H   0  0  0  0  0  0  0  0  0  0  0  0
   -3.1629    8.0228    1.8303 C   0  0  0  0  0  0  0  0  0  0  0  0
   -3.8639    8.8332    4.0433 C   0  0  0  0  0  0  0  0  0  0  0  0
   -4.9454    8.9505    4.1739 H   0  0  0  0  0  0  0  0  0  0  0  0
   -3.3488    9.5614    4.6707 H   0  0  0  0  0  0  0  0  0  0  0  0
   -3.5633    7.8458    4.3794 H   0  0  0  0  0  0  0  0  0  0  0  0
   -3.2853   10.4234    2.3029 C   0  0  0  0  0  0  0  0  0  0  0  0
   -3.2477   10.5163    1.2208 H   0  0  0  0  0  0  0  0  0  0  0  0
   -2.3749   10.8456    2.7365 H   0  0  0  0  0  0  0  0  0  0  0  0
   -4.1399   10.9935    2.6761 H   0  0  0  0  0  0  0  0  0  0  0  0
   -1.1036    8.9314    0.9364 C   0  0  0  0  0  0  0  0  0  0  0  0
   -0.9220    9.0584    2.0011 H   0  0  0  0  0  0  0  0  0  0  0  0
   -1.0132    9.8884    0.4170 H   0  0  0  0  0  0  0  0  0  0  0  0
   -0.3371    8.2540    0.5565 H   0  0  0  0  0  0  0  0  0  0  0  0
   -2.4618    7.4089   -0.3824 C   0  0  0  0  0  0  0  0  0  0  0  0
   -1.8801    6.5031   -0.1818 H   0  0  0  0  0  0  0  0  0  0  0  0
   -2.0599    7.9030   -1.2669 H   0  0  0  0  0  0  0  0  0  0  0  0
   -3.4945    7.1223   -0.5719 H   0  0  0  0  0  0  0  0  0  0  0  0
   -4.5015    6.2660    2.7737 C   0  0  2  0  0  3  0  0  0  0  0  0
   -6.3782    7.4870    1.6117 C   0  0  0  0  0  0  0  0  0  0  0  0
   -7.4569    7.4160    1.4934 H   0  0  0  0  0  0  0  0  0  0  0  0
   -5.8989    7.3106    0.6492 H   0  0  0  0  0  0  0  0  0  0  0  0
   -6.1280    8.5024    1.9170 H   0  0  0  0  0  0  0  0  0  0  0  0
   -5.8918    6.4940    2.6211 C   0  0  0  0  0  0  0  0  0  0  0  0
   -6.7496    5.7669    3.4148 C   0  0  0  0  0  0  0  0  0  0  0  0
   -7.8175    5.9157    3.3273 H   0  0  0  0  0  0  0  0  0  0  0  0
   -6.2473    4.8446    4.3321 C   0  0  0  0  0  0  0  0  0  0  0  0
   -6.9094    4.2787    4.9674 H   0  0  0  0  0  0  0  0  0  0  0  0
   -4.8838    4.6716    4.4045 C   0  0  0  0  0  0  0  0  0  0  0  0
   -4.4188    3.9791    5.0914 H   0  0  0  0  0  0  0  0  0  0  0  0
  1 11  1  0  0  0  0
  1  3  1  0  0  0  0
  1  2  1  0  0  0  0
  5 12  1  0  0  0  0
  6 25  1  0  0  0  0
  6 21  1  0  0  0  0
  7  1  1  0  0  0  0
  9 42  1  0  0  0  0
 10 50  1  0  0  0  0
 10 41  1  0  0  0  0
 11 68  1  0  0  0  0
 12  4  1  0  0  0  0
 12  6  1  0  0  0  0
 13 14  1  0  0  0  0
 13  5  1  0  0  0  0
 15 13  1  0  0  0  0
 16 13  1  0  0  0  0
 17 20  1  0  0  0  0
 17 18  1  0  0  0  0
 17  5  1  0  0  0  0
 19 17  1  0  0  0  0
 21 23  1  0  0  0  0
 21 24  1  0  0  0  0
 22 21  1  0  0  0  0
 25 26  1  0  0  0  0
 27 25  1  0  0  0  0
 28 25  1  0  0  0  0
 29  7  1  0  0  0  0
 29  4  1  1  0  0  0
 30 34  1  0  0  0  0
 30 32  1  0  0  0  0
 31 30  1  0  0  0  0
 33 30  1  0  0  0  0
 34 29  1  0  0  0  0
 35 37  1  0  0  0  0
 35 34  2  0  0  0  0
 36 35  1  0  0  0  0
 37 39  2  0  0  0  0
 38 37  1  0  0  0  0
 39 40  1  0  0  0  0
 39  7  1  0  0  0  0
 41  8  2  0  0  0  0
 41  9  1  0  0  0  0
 42 43  1  0  0  0  0
 42 45  1  0  0  0  0
 42 44  1  0  0  0  0
 46  9  1  0  0  0  0
 46 49  1  0  0  0  0
 46 48  1  0  0  0  0
 47 46  1  0  0  0  0
 50 51  1  0  0  0  0
 52 50  1  0  0  0  0
 53 50  1  0  0  0  0
 54 55  1  0  0  0  0
 54 10  1  0  0  0  0
 56 54  1  0  0  0  0
 57 54  1  0  0  0  0
 58  8  1  6  0  0  0
 58 11  1  0  0  0  0
 59 62  1  0  0  0  0
 59 63  1  0  0  0  0
 60 59  1  0  0  0  0
 61 59  1  0  0  0  0
 63 58  1  0  0  0  0
 63 64  2  0  0  0  0
 64 66  1  0  0  0  0
 65 64  1  0  0  0  0
 66 68  2  0  0  0  0
 66 67  1  0  0  0  0
 68 69  1  0  0  0  0
M  END
$$$$
