CSD_code = OBEXIF | q = 0 | S = 0 | Stoichiometry = C17H13ClN2O2PdS | MND = 4
 OpenBabel04212202073D

 37 41  0  0  1  0  0  0  0  0999 V2000
   11.9704    2.2345   -2.0621 Pd  0  0  2  0  0  0  0  0  0  0  0  0
   12.1459    2.6100   -4.2633 Cl  0  0  0  0  0  0  0  0  0  0  0  0
   13.5710    0.7842   -2.3079 S   0  0  1  0  0  0  0  0  0  0  0  0
   11.6672    1.7964   -0.0579 N   0  0  0  0  0  0  0  0  0  0  0  0
   10.4643    3.4920   -1.7735 N   0  0  0  0  0  0  0  0  0  0  0  0
   11.2173    0.0326    1.3282 O   0  0  0  0  0  0  0  0  0  0  0  0
   14.7267    0.9783   -3.1539 O   0  0  0  0  0  1  0  0  0  0  0  0
   13.3652    0.0790    0.3838 C   0  0  0  0  0  0  0  0  0  0  0  0
   14.1630    0.1146   -0.7536 C   0  0  0  0  0  0  0  0  0  0  0  0
   15.4496   -0.3963   -0.7499 C   0  0  0  0  0  0  0  0  0  0  0  0
   16.0260   -0.3236   -1.6600 H   0  0  0  0  0  0  0  0  0  0  0  0
   15.9663   -0.9734    0.3952 C   0  0  0  0  0  0  0  0  0  0  0  0
   16.9698   -1.3705    0.3963 H   0  0  0  0  0  0  0  0  0  0  0  0
   15.1784   -1.0443    1.5336 C   0  0  0  0  0  0  0  0  0  0  0  0
   15.5647   -1.5011    2.4321 H   0  0  0  0  0  0  0  0  0  0  0  0
   13.8966   -0.5284    1.5237 C   0  0  0  0  0  0  0  0  0  0  0  0
   13.2732   -0.5854    2.4031 H   0  0  0  0  0  0  0  0  0  0  0  0
   10.6312    2.5779    0.4257 C   0  0  0  0  0  0  0  0  0  0  0  0
   10.1964    2.5966    1.7438 C   0  0  0  0  0  0  0  0  0  0  0  0
   10.6392    1.9266    2.4614 H   0  0  0  0  0  0  0  0  0  0  0  0
    9.1873    3.4667    2.1548 C   0  0  0  0  0  0  0  0  0  0  0  0
    8.8807    3.4477    3.1899 H   0  0  0  0  0  0  0  0  0  0  0  0
    8.5831    4.3352    1.2815 C   0  0  0  0  0  0  0  0  0  0  0  0
    7.7987    5.0006    1.6073 H   0  0  0  0  0  0  0  0  0  0  0  0
    8.9925    4.3679   -0.0627 C   0  0  0  0  0  0  0  0  0  0  0  0
    8.4380    5.2350   -1.0261 C   0  0  0  0  0  0  0  0  0  0  0  0
    7.6523    5.9149   -0.7307 H   0  0  0  0  0  0  0  0  0  0  0  0
    8.9015    5.2026   -2.3140 C   0  0  0  0  0  0  0  0  0  0  0  0
    8.4961    5.8514   -3.0736 H   0  0  0  0  0  0  0  0  0  0  0  0
    9.9265    4.3102   -2.6552 C   0  0  0  0  0  0  0  0  0  0  0  0
   10.3120    4.2623   -3.6677 H   0  0  0  0  0  0  0  0  0  0  0  0
   10.0262    3.4893   -0.4887 C   0  0  2  0  0  3  0  0  0  0  0  0
   11.9697    0.6248    0.5656 C   0  0  0  0  0  0  0  0  0  0  0  0
   12.6647   -0.6901   -2.8900 C   0  0  0  0  0  0  0  0  0  0  0  0
   13.3196   -1.5546   -2.8832 H   0  0  0  0  0  0  0  0  0  0  0  0
   12.3241   -0.4796   -3.9017 H   0  0  0  0  0  0  0  0  0  0  0  0
   11.8177   -0.8301   -2.2173 H   0  0  0  0  0  0  0  0  0  0  0  0
  1  2  1  6  0  0  0
  1  5  1  0  0  0  0
  1  4  1  0  0  0  0
  3  7  1  6  0  0  0
  3  1  1  0  0  0  0
  3  9  1  0  0  0  0
  4 18  1  0  0  0  0
  4 33  1  0  0  0  0
  5 32  1  0  0  0  0
  8 33  1  0  0  0  0
  8 16  1  0  0  0  0
  9 10  1  0  0  0  0
  9  8  2  0  0  0  0
 10 12  2  0  0  0  0
 11 10  1  0  0  0  0
 12 13  1  0  0  0  0
 12 14  1  0  0  0  0
 14 15  1  0  0  0  0
 16 14  2  0  0  0  0
 16 17  1  0  0  0  0
 18 19  2  0  0  0  0
 19 21  1  0  0  0  0
 19 20  1  0  0  0  0
 21 22  1  0  0  0  0
 23 24  1  0  0  0  0
 23 21  2  0  0  0  0
 25 23  1  0  0  0  0
 26 27  1  0  0  0  0
 26 25  2  0  0  0  0
 28 26  1  0  0  0  0
 29 28  1  0  0  0  0
 30 28  2  0  0  0  0
 30  5  1  0  0  0  0
 31 30  1  0  0  0  0
 32 25  1  6  0  0  0
 32 18  1  0  0  0  0
 33  6  2  0  0  0  0
 34 35  1  0  0  0  0
 34  3  1  0  0  0  0
 34 37  1  0  0  0  0
 36 34  1  0  0  0  0
M  END
$$$$
