CSD_code = OBIKUF | q = 0 | S = 0 | Stoichiometry = C12H26Cl2N2SiTi | MND = 4
 OpenBabel04212202073D

 44 45  0  0  0  0  0  0  0  0999 V2000
    4.5237    6.7662   20.3407 Ti  0  0  0  0  0  0  0  0  0  0  0  0
    4.7824    4.7694   21.1321 Cl  0  0  0  0  0  0  0  0  0  0  0  0
    2.5493    7.1094   19.5255 Cl  0  0  0  0  0  0  0  0  0  0  0  0
    6.4103    8.6338   20.3455 Si  0  0  0  0  0  0  0  0  0  0  0  0
    5.8291    7.4199   19.2276 N   0  0  0  0  0  0  0  0  0  0  0  0
    5.2045    8.0468   21.4687 N   0  0  0  0  0  0  0  0  0  0  0  0
    6.4516   10.4402   19.6847 C   0  0  0  0  0  0  0  0  0  0  0  0
    6.5637   10.4486   18.6009 H   0  0  0  0  0  0  0  0  0  0  0  0
    5.5720   11.0372   19.9144 H   0  0  0  0  0  0  0  0  0  0  0  0
    7.7019   11.0370   20.3294 C   0  0  0  0  0  0  0  0  0  0  0  0
    8.0409   11.9295   19.7996 H   0  0  0  0  0  0  0  0  0  0  0  0
    7.4785   11.3249   21.3591 H   0  0  0  0  0  0  0  0  0  0  0  0
    8.7917    9.9672   20.3437 C   0  0  0  0  0  0  0  0  0  0  0  0
    9.6789   10.3235   20.8710 H   0  0  0  0  0  0  0  0  0  0  0  0
    9.0816    9.7483   19.3136 H   0  0  0  0  0  0  0  0  0  0  0  0
    8.2212    8.7058   20.9911 C   0  0  0  0  0  0  0  0  0  0  0  0
    8.2377    8.8150   22.0750 H   0  0  0  0  0  0  0  0  0  0  0  0
    8.8313    7.8375   20.7533 H   0  0  0  0  0  0  0  0  0  0  0  0
    6.4243    6.6995   18.1374 C   0  0  0  0  0  0  0  0  0  0  0  0
    7.0575    7.6597   17.1227 C   0  0  0  0  0  0  0  0  0  0  0  0
    7.8554    8.2225   17.5997 H   0  0  0  0  0  0  0  0  0  0  0  0
    6.3055    8.3578   16.7623 H   0  0  0  0  0  0  0  0  0  0  0  0
    7.4676    7.1094   16.2796 H   0  0  0  0  0  0  0  0  0  0  0  0
    7.4860    5.7233   18.6777 C   0  0  0  0  0  0  0  0  0  0  0  0
    8.3369    6.2791   19.0634 H   0  0  0  0  0  0  0  0  0  0  0  0
    7.8295    5.0528   17.8932 H   0  0  0  0  0  0  0  0  0  0  0  0
    7.0544    5.1366   19.4938 H   0  0  0  0  0  0  0  0  0  0  0  0
    5.2907    5.8974   17.4652 C   0  0  0  0  0  0  0  0  0  0  0  0
    5.6612    5.3499   16.6007 H   0  0  0  0  0  0  0  0  0  0  0  0
    4.5035    6.5834   17.1395 H   0  0  0  0  0  0  0  0  0  0  0  0
    4.8703    5.1796   18.1851 H   0  0  0  0  0  0  0  0  0  0  0  0
    4.4946    8.6351   22.5700 C   0  0  0  0  0  0  0  0  0  0  0  0
    5.4675    9.2136   23.6054 C   0  0  0  0  0  0  0  0  0  0  0  0
    6.1437    8.4331   23.9468 H   0  0  0  0  0  0  0  0  0  0  0  0
    4.9251    9.6149   24.4578 H   0  0  0  0  0  0  0  0  0  0  0  0
    6.0537   10.0089   23.1528 H   0  0  0  0  0  0  0  0  0  0  0  0
    3.6573    7.5077   23.2094 C   0  0  0  0  0  0  0  0  0  0  0  0
    3.1216    7.8697   24.0849 H   0  0  0  0  0  0  0  0  0  0  0  0
    4.3187    6.6905   23.5121 H   0  0  0  0  0  0  0  0  0  0  0  0
    2.9266    7.1314   22.4782 H   0  0  0  0  0  0  0  0  0  0  0  0
    3.5506    9.7374   22.0550 C   0  0  0  0  0  0  0  0  0  0  0  0
    4.1303   10.5900   21.7105 H   0  0  0  0  0  0  0  0  0  0  0  0
    2.8754   10.0661   22.8416 H   0  0  0  0  0  0  0  0  0  0  0  0
    2.9679    9.3490   21.2148 H   0  0  0  0  0  0  0  0  0  0  0  0
  1  2  1  0  0  0  0
  1  6  1  0  0  0  0
  3  1  1  0  0  0  0
  4 16  1  0  0  0  0
  4  6  1  0  0  0  0
  5  1  1  0  0  0  0
  5  4  1  0  0  0  0
  6 32  1  0  0  0  0
  7  9  1  0  0  0  0
  7 10  1  0  0  0  0
  7  4  1  0  0  0  0
  8  7  1  0  0  0  0
 10 13  1  0  0  0  0
 10 12  1  0  0  0  0
 11 10  1  0  0  0  0
 13 14  1  0  0  0  0
 13 16  1  0  0  0  0
 15 13  1  0  0  0  0
 16 17  1  0  0  0  0
 18 16  1  0  0  0  0
 19 24  1  0  0  0  0
 19  5  1  0  0  0  0
 20 21  1  0  0  0  0
 20 19  1  0  0  0  0
 22 20  1  0  0  0  0
 23 20  1  0  0  0  0
 24 25  1  0  0  0  0
 24 27  1  0  0  0  0
 26 24  1  0  0  0  0
 28 19  1  0  0  0  0
 28 31  1  0  0  0  0
 29 28  1  0  0  0  0
 30 28  1  0  0  0  0
 32 37  1  0  0  0  0
 32 33  1  0  0  0  0
 33 34  1  0  0  0  0
 33 35  1  0  0  0  0
 36 33  1  0  0  0  0
 37 39  1  0  0  0  0
 37 38  1  0  0  0  0
 40 37  1  0  0  0  0
 41 32  1  0  0  0  0
 41 43  1  0  0  0  0
 42 41  1  0  0  0  0
 44 41  1  0  0  0  0
M  END
$$$$
