CSD_code = OBILAM | q = 0 | S = 0 | Stoichiometry = C13H28Cl2N2SiTi | MND = 4
 OpenBabel04212202073D

 47 48  0  0  0  0  0  0  0  0999 V2000
    1.4214    0.2622    1.2507 Ti  0  0  0  0  0  0  0  0  0  0  0  0
    3.2991   -0.5483    1.9641 Cl  0  0  0  0  0  0  0  0  0  0  0  0
    0.4909    1.6249    2.6551 Cl  0  0  0  0  0  0  0  0  0  0  0  0
    0.3129   -0.2555   -1.1034 Si  0  0  0  0  0  0  0  0  0  0  0  0
    1.3807    0.9652   -0.4356 N   0  0  0  0  0  0  0  0  0  0  0  0
    0.3500   -1.0193    0.4717 N   0  0  0  0  0  0  0  0  0  0  0  0
    0.9496   -1.3464   -2.5462 C   0  0  0  0  0  0  0  0  0  0  0  0
    1.4367   -0.7161   -3.2915 H   0  0  0  0  0  0  0  0  0  0  0  0
    1.6963   -2.0645   -2.2025 H   0  0  0  0  0  0  0  0  0  0  0  0
   -0.1950   -2.0905   -3.2311 C   0  0  0  0  0  0  0  0  0  0  0  0
    0.1947   -2.6306   -4.0991 H   0  0  0  0  0  0  0  0  0  0  0  0
   -0.6087   -2.8326   -2.5468 H   0  0  0  0  0  0  0  0  0  0  0  0
   -1.3144   -1.1617   -3.6958 C   0  0  0  0  0  0  0  0  0  0  0  0
   -0.8876   -0.3571   -4.2988 H   0  0  0  0  0  0  0  0  0  0  0  0
   -1.9936   -1.7301   -4.3365 H   0  0  0  0  0  0  0  0  0  0  0  0
   -2.1193   -0.5535   -2.5493 C   0  0  0  0  0  0  0  0  0  0  0  0
   -2.4405   -1.3533   -1.8780 H   0  0  0  0  0  0  0  0  0  0  0  0
   -3.0223   -0.0916   -2.9596 H   0  0  0  0  0  0  0  0  0  0  0  0
   -1.3249    0.4893   -1.7668 C   0  0  0  0  0  0  0  0  0  0  0  0
   -1.9375    0.8922   -0.9583 H   0  0  0  0  0  0  0  0  0  0  0  0
   -1.1054    1.3241   -2.4338 H   0  0  0  0  0  0  0  0  0  0  0  0
    2.3817    1.8216   -1.0031 C   0  0  0  0  0  0  0  0  0  0  0  0
    1.8250    2.6051   -2.1991 C   0  0  0  0  0  0  0  0  0  0  0  0
    1.5307    1.9161   -2.9861 H   0  0  0  0  0  0  0  0  0  0  0  0
    2.5741    3.2894   -2.5893 H   0  0  0  0  0  0  0  0  0  0  0  0
    0.9506    3.1715   -1.8875 H   0  0  0  0  0  0  0  0  0  0  0  0
    3.5991    0.9831   -1.4374 C   0  0  0  0  0  0  0  0  0  0  0  0
    3.9161    0.3499   -0.6040 H   0  0  0  0  0  0  0  0  0  0  0  0
    4.4241    1.6260   -1.7358 H   0  0  0  0  0  0  0  0  0  0  0  0
    3.3295    0.3416   -2.2725 H   0  0  0  0  0  0  0  0  0  0  0  0
    2.8124    2.8028    0.1073 C   0  0  0  0  0  0  0  0  0  0  0  0
    1.9385    3.3563    0.4619 H   0  0  0  0  0  0  0  0  0  0  0  0
    3.5519    3.5101   -0.2631 H   0  0  0  0  0  0  0  0  0  0  0  0
    3.2485    2.2412    0.9463 H   0  0  0  0  0  0  0  0  0  0  0  0
   -0.5424   -1.8583    1.2250 C   0  0  0  0  0  0  0  0  0  0  0  0
    0.1693   -2.1772    2.5572 C   0  0  0  0  0  0  0  0  0  0  0  0
    1.1310   -2.6567    2.3508 H   0  0  0  0  0  0  0  0  0  0  0  0
   -0.4335   -2.8480    3.1671 H   0  0  0  0  0  0  0  0  0  0  0  0
    0.3383   -1.2470    3.1201 H   0  0  0  0  0  0  0  0  0  0  0  0
   -1.8533   -1.1070    1.5219 C   0  0  0  0  0  0  0  0  0  0  0  0
   -1.6187   -0.1270    1.9469 H   0  0  0  0  0  0  0  0  0  0  0  0
   -2.4673   -1.6667    2.2240 H   0  0  0  0  0  0  0  0  0  0  0  0
   -2.4153   -0.9614    0.6028 H   0  0  0  0  0  0  0  0  0  0  0  0
   -0.8389   -3.1654    0.4784 C   0  0  0  0  0  0  0  0  0  0  0  0
   -1.3814   -2.9511   -0.4382 H   0  0  0  0  0  0  0  0  0  0  0  0
   -1.4394   -3.8305    1.0940 H   0  0  0  0  0  0  0  0  0  0  0  0
    0.0954   -3.6601    0.2221 H   0  0  0  0  0  0  0  0  0  0  0  0
  1  2  1  0  0  0  0
  1  3  1  0  0  0  0
  4  5  1  0  0  0  0
  4  6  1  0  0  0  0
  5  1  1  0  0  0  0
  6 35  1  0  0  0  0
  6  1  1  0  0  0  0
  7  9  1  0  0  0  0
  7  4  1  0  0  0  0
  8  7  1  0  0  0  0
 10 12  1  0  0  0  0
 10  7  1  0  0  0  0
 11 10  1  0  0  0  0
 13 10  1  0  0  0  0
 13 16  1  0  0  0  0
 14 13  1  0  0  0  0
 15 13  1  0  0  0  0
 16 17  1  0  0  0  0
 16 19  1  0  0  0  0
 18 16  1  0  0  0  0
 19  4  1  0  0  0  0
 19 20  1  0  0  0  0
 21 19  1  0  0  0  0
 22  5  1  0  0  0  0
 22 31  1  0  0  0  0
 23 26  1  0  0  0  0
 23 22  1  0  0  0  0
 24 23  1  0  0  0  0
 25 23  1  0  0  0  0
 27 22  1  0  0  0  0
 27 28  1  0  0  0  0
 29 27  1  0  0  0  0
 30 27  1  0  0  0  0
 31 32  1  0  0  0  0
 31 34  1  0  0  0  0
 33 31  1  0  0  0  0
 35 40  1  0  0  0  0
 35 36  1  0  0  0  0
 36 39  1  0  0  0  0
 36 38  1  0  0  0  0
 37 36  1  0  0  0  0
 40 41  1  0  0  0  0
 40 42  1  0  0  0  0
 43 40  1  0  0  0  0
 44 46  1  0  0  0  0
 44 35  1  0  0  0  0
 45 44  1  0  0  0  0
 47 44  1  0  0  0  0
M  END
$$$$
