CSD_code = OBIMAP | q = 0 | S = 0 | Stoichiometry = C24H23B2ClFeN8O | MND = 5
 OpenBabel04212202073D

 60 67  0  0  1  0  0  0  0  0999 V2000
    6.1561    6.0954   13.1867 Fe  0  0  1  0  0  0  0  0  0  0  0  0
    6.5331    5.1197   15.0298 Cl  0  0  0  0  0  0  0  0  0  0  0  0
    4.8612    4.6141   12.4819 O   0  0  0  0  0  0  0  0  0  0  0  0
    4.8835    4.5443   11.0365 B   0  0  2  0  0  0  0  0  0  0  0  0
    3.5216    4.6620   13.0479 B   0  0  1  0  0  0  0  0  0  0  0  0
    5.4007    5.9164   10.5028 N   0  0  0  0  0  0  0  0  0  0  0  0
    5.9943    6.7560   11.3568 N   0  0  2  0  0  0  0  0  0  0  0  0
    6.4374    7.7872   10.6424 C   0  0  0  0  0  3  0  0  0  0  0  0
    6.9696    8.5975   11.0970 H   0  0  0  0  0  0  0  0  0  0  0  0
    6.1259    7.6077    9.2960 C   0  0  0  0  0  0  0  0  0  0  0  0
    6.3506    8.2635    8.4804 H   0  0  0  0  0  0  0  0  0  0  0  0
    5.4683    6.3966    9.2538 C   0  0  0  0  0  0  0  0  0  0  0  0
    5.0602    5.8554    8.4249 H   0  0  0  0  0  0  0  0  0  0  0  0
    3.3609    6.0430   13.7306 N   0  0  0  0  0  0  0  0  0  0  0  0
    4.4057    6.8778   13.8393 N   0  0  1  0  0  0  0  0  0  0  0  0
    4.0066    7.8999   14.5885 C   0  0  0  0  0  3  0  0  0  0  0  0
    4.6728    8.6961   14.8564 H   0  0  0  0  0  0  0  0  0  0  0  0
    2.6744    7.7344   14.9639 C   0  0  0  0  0  0  0  0  0  0  0  0
    2.0778    8.3913   15.5623 H   0  0  0  0  0  0  0  0  0  0  0  0
    2.3080    6.5322   14.3987 C   0  0  0  0  0  0  0  0  0  0  0  0
    1.3813    5.9969   14.4426 H   0  0  0  0  0  0  0  0  0  0  0  0
    3.3784    4.4650   10.6752 N   0  0  0  0  0  0  0  0  0  0  0  0
    2.6360    4.6234   11.7591 N   0  0  1  0  0  0  0  0  0  0  0  0
    1.3532    4.6063   11.4205 C   0  0  0  0  0  3  0  0  0  0  0  0
    0.5762    4.7021   12.1510 H   0  0  0  0  0  0  0  0  0  0  0  0
    1.2708    4.4415   10.0440 C   0  0  0  0  0  0  0  0  0  0  0  0
    0.3846    4.3877    9.4460 H   0  0  0  0  0  0  0  0  0  0  0  0
    2.5867    4.3564    9.6128 C   0  0  0  0  0  0  0  0  0  0  0  0
    2.9772    4.2255    8.6241 H   0  0  0  0  0  0  0  0  0  0  0  0
    5.8613    3.3931   10.4848 C   0  0  0  0  0  0  0  0  0  0  0  0
    5.5251    2.3980    9.5749 C   0  0  0  0  0  0  0  0  0  0  0  0
    4.5171    2.3455    9.1865 H   0  0  0  0  0  0  0  0  0  0  0  0
    6.4576    1.4598    9.1638 C   0  0  0  0  0  0  0  0  0  0  0  0
    6.1747    0.6932    8.4561 H   0  0  0  0  0  0  0  0  0  0  0  0
    7.7482    1.4992    9.6604 C   0  0  0  0  0  0  0  0  0  0  0  0
    8.4755    0.7669    9.3406 H   0  0  0  0  0  0  0  0  0  0  0  0
    8.1014    2.4767   10.5767 C   0  0  0  0  0  0  0  0  0  0  0  0
    9.1047    2.5063   10.9766 H   0  0  0  0  0  0  0  0  0  0  0  0
    7.1647    3.4091   10.9788 C   0  0  0  0  0  0  0  0  0  0  0  0
    7.4375    4.1725   11.7087 H   0  0  0  0  0  0  0  0  0  0  0  0
    3.1231    3.4612   14.0511 C   0  0  0  0  0  0  0  0  0  0  0  0
    2.4931    2.3034   13.6002 C   0  0  0  0  0  0  0  0  0  0  0  0
    2.2543    2.1945   12.5499 H   0  0  0  0  0  0  0  0  0  0  0  0
    2.1656    1.2745   14.4659 C   0  0  0  0  0  0  0  0  0  0  0  0
    1.6744    0.3885   14.0872 H   0  0  0  0  0  0  0  0  0  0  0  0
    2.4709    1.3777   15.8114 C   0  0  0  0  0  0  0  0  0  0  0  0
    2.2162    0.5755   16.4896 H   0  0  0  0  0  0  0  0  0  0  0  0
    3.1141    2.5111   16.2774 C   0  0  0  0  0  0  0  0  0  0  0  0
    3.3715    2.5960   17.3232 H   0  0  0  0  0  0  0  0  0  0  0  0
    3.4335    3.5379   15.4072 C   0  0  0  0  0  0  0  0  0  0  0  0
    3.9555    4.4049   15.7815 H   0  0  0  0  0  0  0  0  0  0  0  0
    7.3091    7.5468   13.7291 N   0  0  0  0  0  0  0  0  0  0  0  0
    6.9909    8.8404   13.6115 N   0  0  0  0  0  0  0  0  0  0  0  0
    6.0943    9.0933   13.2289 H   0  0  0  0  0  0  0  0  0  0  0  0
    7.9828    9.6414   14.0547 C   0  0  0  0  0  3  0  0  0  0  0  0
    7.9029   10.7093   14.0404 H   0  0  0  0  0  0  0  0  0  0  0  0
    8.9946    8.8149   14.4786 C   0  0  0  0  0  0  0  0  0  0  0  0
    9.9386    9.0987   14.8942 H   0  0  0  0  0  0  0  0  0  0  0  0
    8.5253    7.5146   14.2558 C   0  0  0  0  0  0  0  0  0  0  0  0
    8.9989    6.5784   14.4746 H   0  0  0  0  0  0  0  0  0  0  0  0
  1 52  1  0  0  0  0
  1 15  1  0  0  0  0
  1  2  1  1  0  0  0
  3  5  1  0  0  0  0
  4 30  1  6  0  0  0
  4  3  1  0  0  0  0
  5 14  1  0  0  0  0
  5 41  1  1  0  0  0
  6  4  1  0  0  0  0
  6  7  1  0  0  0  0
  7  8  1  6  0  0  0
  7  1  1  0  0  0  0
  8  9  1  0  0  0  0
 10  8  1  0  0  0  0
 11 10  1  0  0  0  0
 12 10  2  0  0  0  0
 12  6  1  0  0  0  0
 13 12  1  0  0  0  0
 14 15  1  0  0  0  0
 14 20  1  0  0  0  0
 15 16  1  1  0  0  0
 16 17  1  0  0  0  0
 16 18  1  0  0  0  0
 18 19  1  0  0  0  0
 20 21  1  0  0  0  0
 20 18  2  0  0  0  0
 22  4  1  0  0  0  0
 22 23  1  0  0  0  0
 23 24  1  1  0  0  0
 23  5  1  0  0  0  0
 24 25  1  0  0  0  0
 26 24  1  0  0  0  0
 27 26  1  0  0  0  0
 28 26  2  0  0  0  0
 28 22  1  0  0  0  0
 29 28  1  0  0  0  0
 30 39  1  0  0  0  0
 31 30  2  0  0  0  0
 32 31  1  0  0  0  0
 33 31  1  0  0  0  0
 33 35  2  0  0  0  0
 34 33  1  0  0  0  0
 35 37  1  0  0  0  0
 36 35  1  0  0  0  0
 37 38  1  0  0  0  0
 37 39  2  0  0  0  0
 39 40  1  0  0  0  0
 41 50  1  0  0  0  0
 42 41  2  0  0  0  0
 42 44  1  0  0  0  0
 43 42  1  0  0  0  0
 44 46  2  0  0  0  0
 45 44  1  0  0  0  0
 46 48  1  0  0  0  0
 46 47  1  0  0  0  0
 48 49  1  0  0  0  0
 50 51  1  0  0  0  0
 50 48  2  0  0  0  0
 52 59  1  0  0  0  0
 53 52  1  0  0  0  0
 53 55  1  0  0  0  0
 54 53  1  0  0  0  0
 55 57  1  0  0  0  0
 56 55  1  0  0  0  0
 57 58  1  0  0  0  0
 59 60  1  0  0  0  0
 59 57  2  0  0  0  0
M  END
$$$$
