CSD_code = OBITIC | q = 1 | S = 0 | Stoichiometry = C30H24ClN6Ru(1+) | MND = 6
 OpenBabel04212202073D

 62 69  0  0  1  0  0  0  0  0999 V2000
    1.4839    2.8074    2.3297 Ru  0  0  0  0  0  0  0  0  0  0  0  0
   -0.1904    3.1031    0.6833 Cl  0  0  0  0  0  0  0  0  0  0  0  0
    2.2902    1.6508    0.9014 N   0  0  0  0  0  0  0  0  0  0  0  0
    0.5333    1.1063    2.7177 N   0  0  0  0  0  0  0  0  0  0  0  0
    3.2102    2.0064    0.0061 C   0  0  0  0  0  3  0  0  0  0  0  0
    3.7508    2.9238    0.2037 H   0  0  0  0  0  0  0  0  0  0  0  0
    3.4833    1.2739   -1.1334 C   0  0  0  0  0  0  0  0  0  0  0  0
    4.2322    1.6181   -1.8276 H   0  0  0  0  0  0  0  0  0  0  0  0
    2.7653    0.1089   -1.3682 C   0  0  0  0  0  0  0  0  0  0  0  0
    2.9371   -0.4785   -2.2557 H   0  0  0  0  0  0  0  0  0  0  0  0
    1.8187   -0.2792   -0.4393 C   0  0  0  0  0  0  0  0  0  0  0  0
    1.2398   -1.1730   -0.6003 H   0  0  0  0  0  0  0  0  0  0  0  0
    1.5984    0.5067    0.6908 C   0  0  0  0  0  0  0  0  0  0  0  0
    0.6318    0.1810    1.7384 C   0  0  1  0  0  3  0  0  0  0  0  0
   -0.1237   -0.9910    1.7720 C   0  0  0  0  0  0  0  0  0  0  0  0
   -0.0401   -1.7145    0.9785 H   0  0  0  0  0  0  0  0  0  0  0  0
   -0.9895   -1.2149    2.8248 C   0  0  0  0  0  0  0  0  0  0  0  0
   -1.5902   -2.1095    2.8605 H   0  0  0  0  0  0  0  0  0  0  0  0
   -1.0691   -0.2630    3.8335 C   0  0  0  0  0  0  0  0  0  0  0  0
   -1.7279   -0.3962    4.6758 H   0  0  0  0  0  0  0  0  0  0  0  0
   -0.2940    0.8761    3.7357 C   0  0  0  0  0  0  0  0  0  0  0  0
   -0.3445    1.6393    4.5038 H   0  0  0  0  0  0  0  0  0  0  0  0
    0.6092    3.9188    3.7345 N   0  0  0  0  0  0  0  0  0  0  0  0
    2.7550    2.5221    3.8215 N   0  0  0  0  0  0  0  0  0  0  0  0
   -0.5361    4.5813    3.5884 C   0  0  0  0  0  3  0  0  0  0  0  0
   -1.0626    4.4120    2.6564 H   0  0  0  0  0  0  0  0  0  0  0  0
   -1.0380    5.4280    4.5599 C   0  0  0  0  0  0  0  0  0  0  0  0
   -1.9694    5.9438    4.3946 H   0  0  0  0  0  0  0  0  0  0  0  0
   -0.3212    5.5986    5.7376 C   0  0  0  0  0  0  0  0  0  0  0  0
   -0.6797    6.2570    6.5126 H   0  0  0  0  0  0  0  0  0  0  0  0
    0.8619    4.9013    5.9025 C   0  0  0  0  0  0  0  0  0  0  0  0
    1.4356    5.0127    6.8077 H   0  0  0  0  0  0  0  0  0  0  0  0
    1.3071    4.0580    4.8858 C   0  0  0  0  0  0  0  0  0  0  0  0
    2.5048    3.2257    4.9538 C   0  0  1  0  0  3  0  0  0  0  0  0
    3.3141    3.0968    6.0814 C   0  0  0  0  0  0  0  0  0  0  0  0
    3.0998    3.6689    6.9687 H   0  0  0  0  0  0  0  0  0  0  0  0
    4.3866    2.2258    6.0589 C   0  0  0  0  0  0  0  0  0  0  0  0
    5.0231    2.1143    6.9215 H   0  0  0  0  0  0  0  0  0  0  0  0
    4.6194    1.4902    4.9009 C   0  0  0  0  0  0  0  0  0  0  0  0
    5.4365    0.7901    4.8422 H   0  0  0  0  0  0  0  0  0  0  0  0
    3.7864    1.6726    3.8164 C   0  0  0  0  0  0  0  0  0  0  0  0
    3.9484    1.1256    2.8948 H   0  0  0  0  0  0  0  0  0  0  0  0
    2.4394    4.5702    1.7643 N   0  0  0  0  0  0  0  0  0  0  0  0
    5.5995   10.5137   -0.3620 N   0  0  0  0  0  0  0  0  0  0  0  0
    3.7467    4.7793    1.9636 C   0  0  0  0  0  3  0  0  0  0  0  0
    4.3040    3.9841    2.4458 H   0  0  0  0  0  0  0  0  0  0  0  0
    4.3994    5.9326    1.5819 C   0  0  0  0  0  0  0  0  0  0  0  0
    5.4600    6.0268    1.7551 H   0  0  0  0  0  0  0  0  0  0  0  0
    3.6886    6.9526    0.9459 C   0  0  0  0  0  0  0  0  0  0  0  0
    2.3252    6.7326    0.7506 C   0  0  0  0  0  0  0  0  0  0  0  0
    1.7084    7.4832    0.2828 H   0  0  0  0  0  0  0  0  0  0  0  0
    1.7498    5.5501    1.1711 C   0  0  0  0  0  0  0  0  0  0  0  0
    0.6963    5.3641    1.0014 H   0  0  0  0  0  0  0  0  0  0  0  0
    5.9402    9.9435    0.7790 C   0  0  0  0  0  0  0  0  0  0  0  0
    6.7219   10.4413    1.3367 H   0  0  0  0  0  0  0  0  0  0  0  0
    5.3540    8.7811    1.2551 C   0  0  0  0  0  0  0  0  0  0  0  0
    5.6551    8.3645    2.2041 H   0  0  0  0  0  0  0  0  0  0  0  0
    4.3458    8.1844    0.4985 C   0  0  0  0  0  0  0  0  0  0  0  0
    3.9853    8.7939   -0.7032 C   0  0  0  0  0  0  0  0  0  0  0  0
    3.2274    8.3622   -1.3381 H   0  0  0  0  0  0  0  0  0  0  0  0
    4.6476    9.9509   -1.0835 C   0  0  0  0  0  0  0  0  0  0  0  0
    4.4034   10.4518   -2.0104 H   0  0  0  0  0  0  0  0  0  0  0  0
  1  4  1  0  0  0  0
  1 23  1  0  0  0  0
  1 24  1  0  0  0  0
  2  1  1  0  0  0  0
  3  1  1  0  0  0  0
  4 21  1  0  0  0  0
  5  6  1  0  0  0  0
  5  3  1  0  0  0  0
  7  5  1  0  0  0  0
  8  7  1  0  0  0  0
  9  7  2  0  0  0  0
  9 11  1  0  0  0  0
 10  9  1  0  0  0  0
 11 13  2  0  0  0  0
 12 11  1  0  0  0  0
 13  3  1  0  0  0  0
 14 13  1  1  0  0  0
 14 15  1  0  0  0  0
 14  4  1  0  0  0  0
 15 17  2  0  0  0  0
 16 15  1  0  0  0  0
 17 18  1  0  0  0  0
 17 19  1  0  0  0  0
 19 20  1  0  0  0  0
 21 19  2  0  0  0  0
 21 22  1  0  0  0  0
 23 33  1  0  0  0  0
 24 34  1  0  0  0  0
 25 23  1  0  0  0  0
 25 27  1  0  0  0  0
 26 25  1  0  0  0  0
 27 29  2  0  0  0  0
 28 27  1  0  0  0  0
 29 31  1  0  0  0  0
 29 30  1  0  0  0  0
 31 32  1  0  0  0  0
 33 31  2  0  0  0  0
 34 33  1  1  0  0  0
 34 35  1  0  0  0  0
 35 36  1  0  0  0  0
 37 35  2  0  0  0  0
 37 38  1  0  0  0  0
 39 37  1  0  0  0  0
 40 39  1  0  0  0  0
 41 24  1  0  0  0  0
 41 39  2  0  0  0  0
 42 41  1  0  0  0  0
 43 45  1  0  0  0  0
 43  1  1  0  0  0  0
 44 54  1  0  0  0  0
 45 46  1  0  0  0  0
 47 48  1  0  0  0  0
 47 45  1  0  0  0  0
 49 47  2  0  0  0  0
 50 49  1  0  0  0  0
 50 52  2  0  0  0  0
 51 50  1  0  0  0  0
 52 43  1  0  0  0  0
 53 52  1  0  0  0  0
 54 56  2  0  0  0  0
 54 55  1  0  0  0  0
 56 57  1  0  0  0  0
 58 49  1  0  0  0  0
 58 56  1  0  0  0  0
 59 58  2  0  0  0  0
 60 59  1  0  0  0  0
 61 59  1  0  0  0  0
 61 44  2  0  0  0  0
 62 61  1  0  0  0  0
M  END
$$$$
