CSD_code = OBOCUE | q = 1 | S = 0 | Stoichiometry = C17H19ClN5Zn(1+) | MND = 5
 OpenBabel04212202073D

 43 48  0  0  1  0  0  0  0  0999 V2000
    9.4487   -0.9052    1.0945 Zn  0  0  0  0  0  0  0  0  0  0  0  0
   10.4126   -2.7653    1.5625 Cl  0  0  0  0  0  0  0  0  0  0  0  0
    8.2758    1.0115    0.5080 N   0  0  2  0  0  4  0  0  0  0  0  0
   10.8408    0.5831    1.2889 N   0  0  0  0  0  0  0  0  0  0  0  0
   11.5612    2.6087    0.8603 N   0  0  0  0  0  0  0  0  0  0  0  0
    7.8542   -0.8346    2.4620 N   0  0  0  0  0  0  0  0  0  0  0  0
    8.8295   -1.2235   -0.9065 N   0  0  0  0  0  0  0  0  0  0  0  0
    9.2595    1.9593   -0.0005 C   0  0  0  0  0  0  0  0  0  0  0  0
    8.9227    3.0016    0.1043 H   0  0  0  0  0  0  0  0  0  0  0  0
    9.4140    1.7626   -1.0670 H   0  0  0  0  0  0  0  0  0  0  0  0
   10.5475    1.7367    0.7181 C   0  0  1  0  0  3  0  0  0  0  0  0
   11.6198    3.9558    0.3602 C   0  0  0  0  0  0  0  0  0  0  0  0
   11.5440    3.9648   -0.7282 H   0  0  0  0  0  0  0  0  0  0  0  0
   12.5681    4.4023    0.6499 H   0  0  0  0  0  0  0  0  0  0  0  0
   10.8086    4.5563    0.7756 H   0  0  0  0  0  0  0  0  0  0  0  0
   12.5457    1.9650    1.5589 C   0  0  0  0  0  0  0  0  0  0  0  0
   13.4706    2.4416    1.8077 H   0  0  0  0  0  0  0  0  0  0  0  0
   12.0871    0.7097    1.8199 C   0  0  0  0  0  0  0  0  0  0  0  0
   12.5535   -0.1013    2.3402 H   0  0  0  0  0  0  0  0  0  0  0  0
    7.6532    1.4626    1.7429 C   0  0  0  0  0  0  0  0  0  0  0  0
    6.8332    2.1705    1.5559 H   0  0  0  0  0  0  0  0  0  0  0  0
    8.4148    1.9747    2.3400 H   0  0  0  0  0  0  0  0  0  0  0  0
    7.1596    0.2970    2.5607 C   0  0  2  0  0  3  0  0  0  0  0  0
    6.0671    0.4122    3.4086 C   0  0  0  0  0  0  0  0  0  0  0  0
    5.5216    1.3411    3.4675 H   0  0  0  0  0  0  0  0  0  0  0  0
    5.6969   -0.6799    4.1781 C   0  0  0  0  0  0  0  0  0  0  0  0
    4.8527   -0.6146    4.8467 H   0  0  0  0  0  0  0  0  0  0  0  0
    6.4304   -1.8518    4.0712 C   0  0  0  0  0  0  0  0  0  0  0  0
    6.1787   -2.7231    4.6530 H   0  0  0  0  0  0  0  0  0  0  0  0
    7.5024   -1.8853    3.1966 C   0  0  0  0  0  0  0  0  0  0  0  0
    8.1108   -2.7701    3.0725 H   0  0  0  0  0  0  0  0  0  0  0  0
    7.3070    0.6085   -0.4984 C   0  0  0  0  0  0  0  0  0  0  0  0
    6.9270    1.4635   -1.0750 H   0  0  0  0  0  0  0  0  0  0  0  0
    6.4571    0.1452    0.0131 H   0  0  0  0  0  0  0  0  0  0  0  0
    7.8946   -0.4278   -1.4224 C   0  0  2  0  0  3  0  0  0  0  0  0
    7.4490   -0.5739   -2.7287 C   0  0  0  0  0  0  0  0  0  0  0  0
    6.6901    0.0862   -3.1193 H   0  0  0  0  0  0  0  0  0  0  0  0
    7.9879   -1.5818   -3.5129 C   0  0  0  0  0  0  0  0  0  0  0  0
    7.6563   -1.7172   -4.5307 H   0  0  0  0  0  0  0  0  0  0  0  0
    8.9553   -2.4096   -2.9639 C   0  0  0  0  0  0  0  0  0  0  0  0
    9.3971   -3.2082   -3.5365 H   0  0  0  0  0  0  0  0  0  0  0  0
    9.3475   -2.1930   -1.6545 C   0  0  0  0  0  0  0  0  0  0  0  0
   10.0911   -2.8116   -1.1722 H   0  0  0  0  0  0  0  0  0  0  0  0
  1  4  1  0  0  0  0
  1  2  1  0  0  0  0
  1  6  1  0  0  0  0
  3 32  1  6  0  0  0
  3  1  1  0  0  0  0
  3 20  1  0  0  0  0
  4 18  1  0  0  0  0
  5 16  1  0  0  0  0
  6 23  1  0  0  0  0
  6 30  1  0  0  0  0
  7  1  1  0  0  0  0
  8  9  1  0  0  0  0
  8  3  1  0  0  0  0
 10  8  1  0  0  0  0
 11  8  1  6  0  0  0
 11  5  1  0  0  0  0
 11  4  1  0  0  0  0
 12 14  1  0  0  0  0
 12 15  1  0  0  0  0
 12  5  1  0  0  0  0
 13 12  1  0  0  0  0
 16 17  1  0  0  0  0
 16 18  2  0  0  0  0
 18 19  1  0  0  0  0
 20 22  1  0  0  0  0
 20 23  1  0  0  0  0
 21 20  1  0  0  0  0
 23 24  1  1  0  0  0
 24 25  1  0  0  0  0
 24 26  2  0  0  0  0
 26 27  1  0  0  0  0
 28 26  1  0  0  0  0
 28 29  1  0  0  0  0
 30 28  2  0  0  0  0
 31 30  1  0  0  0  0
 32 34  1  0  0  0  0
 33 32  1  0  0  0  0
 35 36  1  1  0  0  0
 35  7  1  0  0  0  0
 35 32  1  0  0  0  0
 37 36  1  0  0  0  0
 38 40  1  0  0  0  0
 38 36  2  0  0  0  0
 39 38  1  0  0  0  0
 40 42  2  0  0  0  0
 41 40  1  0  0  0  0
 42 43  1  0  0  0  0
 42  7  1  0  0  0  0
M  END
$$$$
