CSD_code = OBOCOY | q = 0 | S = 0 | Stoichiometry = C18H16Br2Cl2N4Zn | MND = 5
 OpenBabel04212202073D

 43 47  0  0  1  0  0  0  0  0999 V2000
    4.6700    3.9157    3.1895 Zn  0  0  0  0  0  0  0  0  0  0  0  0
    2.2148    5.7054    1.5051 Br  0  0  0  0  0  0  0  0  0  0  0  0
    7.8846   -2.8452    4.2731 Br  0  0  0  0  0  0  0  0  0  0  0  0
    3.6980    4.3132    5.1756 Cl  0  0  0  0  0  0  0  0  0  0  0  0
    5.4393    4.3698    1.1109 Cl  0  0  0  0  0  0  0  0  0  0  0  0
    4.8363    1.6764    3.3113 N   0  0  2  0  0  4  0  0  0  0  0  0
    2.7546    3.1483    2.3018 N   0  0  0  0  0  0  0  0  0  0  0  0
    6.6737    3.5760    3.9998 N   0  0  0  0  0  0  0  0  0  0  0  0
    6.5014   -0.8921    2.9599 N   0  0  0  0  0  0  0  0  0  0  0  0
    3.4763    1.1657    3.4170 C   0  0  0  0  0  0  0  0  0  0  0  0
    3.0893    1.4536    4.4003 H   0  0  0  0  0  0  0  0  0  0  0  0
    3.4238    0.0722    3.3220 H   0  0  0  0  0  0  0  0  0  0  0  0
    2.5955    1.8332    2.3989 C   0  0  1  0  0  3  0  0  0  0  0  0
    1.6474    1.1598    1.6432 C   0  0  0  0  0  0  0  0  0  0  0  0
    1.5348    0.0910    1.7376 H   0  0  0  0  0  0  0  0  0  0  0  0
    0.8476    1.8888    0.7725 C   0  0  0  0  0  0  0  0  0  0  0  0
    0.1061    1.3917    0.1656 H   0  0  0  0  0  0  0  0  0  0  0  0
    1.0009    3.2611    0.6968 C   0  0  0  0  0  0  0  0  0  0  0  0
    0.3931    3.8714    0.0494 H   0  0  0  0  0  0  0  0  0  0  0  0
    1.9776    3.8419    1.4962 C   0  0  0  0  0  0  0  0  0  0  0  0
    5.6124    1.4871    4.5329 C   0  0  0  0  0  0  0  0  0  0  0  0
    5.8931    0.4396    4.6901 H   0  0  0  0  0  0  0  0  0  0  0  0
    4.9956    1.8298    5.3705 H   0  0  0  0  0  0  0  0  0  0  0  0
    6.8360    2.3565    4.5032 C   0  0  2  0  0  3  0  0  0  0  0  0
    8.0607    1.9243    4.9940 C   0  0  0  0  0  0  0  0  0  0  0  0
    8.1637    0.9240    5.3843 H   0  0  0  0  0  0  0  0  0  0  0  0
    9.1372    2.7951    4.9625 C   0  0  0  0  0  0  0  0  0  0  0  0
   10.1018    2.4850    5.3356 H   0  0  0  0  0  0  0  0  0  0  0  0
    8.9554    4.0652    4.4376 C   0  0  0  0  0  0  0  0  0  0  0  0
    9.7675    4.7727    4.3911 H   0  0  0  0  0  0  0  0  0  0  0  0
    7.7012    4.4103    3.9631 C   0  0  0  0  0  0  0  0  0  0  0  0
    7.5080    5.3815    3.5305 H   0  0  0  0  0  0  0  0  0  0  0  0
    5.5215    1.1483    2.1261 C   0  0  0  0  0  0  0  0  0  0  0  0
    6.5202    1.5890    2.0991 H   0  0  0  0  0  0  0  0  0  0  0  0
    4.9824    1.4917    1.2411 H   0  0  0  0  0  0  0  0  0  0  0  0
    5.6462   -0.3511    2.0992 C   0  0  0  0  0  0  0  0  0  0  0  0
    4.9014   -1.1430    1.2296 C   0  0  0  0  0  0  0  0  0  0  0  0
    4.2140   -0.6850    0.5356 H   0  0  0  0  0  0  0  0  0  0  0  0
    5.0697   -2.5197    1.2614 C   0  0  0  0  0  0  0  0  0  0  0  0
    4.5105   -3.1562    0.5919 H   0  0  0  0  0  0  0  0  0  0  0  0
    5.9628   -3.0770    2.1619 C   0  0  0  0  0  0  0  0  0  0  0  0
    6.1280   -4.1401    2.2244 H   0  0  0  0  0  0  0  0  0  0  0  0
    6.6441   -2.1950    2.9856 C   0  0  0  0  0  0  0  0  0  0  0  0
  1  6  1  0  0  0  0
  1  8  1  0  0  0  0
  1  4  1  0  0  0  0
  5  1  1  0  0  0  0
  6 33  1  6  0  0  0
  6 10  1  0  0  0  0
  6 21  1  0  0  0  0
  7 13  1  0  0  0  0
  7  1  1  0  0  0  0
  8 24  1  0  0  0  0
  9 43  1  0  0  0  0
 10 11  1  0  0  0  0
 12 10  1  0  0  0  0
 13 14  1  1  0  0  0
 13 10  1  0  0  0  0
 14 15  1  0  0  0  0
 16 14  2  0  0  0  0
 17 16  1  0  0  0  0
 18 16  1  0  0  0  0
 18 20  2  0  0  0  0
 19 18  1  0  0  0  0
 20  2  1  0  0  0  0
 20  7  1  0  0  0  0
 21 22  1  0  0  0  0
 21 23  1  0  0  0  0
 24 21  1  0  0  0  0
 24 25  1  1  0  0  0
 25 26  1  0  0  0  0
 27 25  2  0  0  0  0
 27 28  1  0  0  0  0
 29 27  1  0  0  0  0
 30 29  1  0  0  0  0
 31  8  1  0  0  0  0
 31 29  2  0  0  0  0
 32 31  1  0  0  0  0
 34 33  1  0  0  0  0
 35 33  1  0  0  0  0
 36 33  1  0  0  0  0
 36  9  2  0  0  0  0
 37 39  2  0  0  0  0
 37 36  1  0  0  0  0
 38 37  1  0  0  0  0
 39 41  1  0  0  0  0
 40 39  1  0  0  0  0
 41 42  1  0  0  0  0
 41 43  2  0  0  0  0
 43  3  1  0  0  0  0
M  END
$$$$
