CSD_code = OBOKAS | q = 0 | S = 0 | Stoichiometry = C19H28Cl2SiZr | MND = 12
 OpenBabel04212202073D

 51 53  0  0  1  0  0  0  0  0999 V2000
    5.5841    3.2798    0.0295 Zr  0  0  0  0  0  0  0  0  0  0  0  0
    4.0667    4.8606   -0.7989 Cl  0  0  0  0  0  0  0  0  0  0  0  0
    7.0804    4.9000    0.8239 Cl  0  0  0  0  0  0  0  0  0  0  0  0
    5.5786    0.0210    0.0476 Si  0  0  2  0  0  0  0  0  0  0  0  0
    4.4608   -0.7458   -0.5516 H   0  0  0  0  0  0  0  0  0  0  0  0
    6.7406   -1.3479    0.6796 C   0  0  0  0  0  0  0  0  0  0  0  0
    7.6360   -1.0045    1.1829 H   0  0  0  0  0  0  0  0  0  0  0  0
    7.0531   -1.9661   -0.1547 H   0  0  0  0  0  0  0  0  0  0  0  0
    6.2011   -1.9829    1.3735 H   0  0  0  0  0  0  0  0  0  0  0  0
    6.2664    1.2939   -1.1704 C   0  0  1  0  0  0  0  0  0  0  0  0
    5.4271    2.0432   -2.0623 C   0  0  0  0  0  0  0  0  0  0  0  0
    6.1166    3.2184   -2.4525 C   0  0  0  0  0  0  0  0  0  0  0  0
    7.3672    3.2387   -1.7824 C   0  0  0  0  0  0  0  0  0  0  0  0
    7.4541    2.0757   -0.9773 C   0  0  0  0  0  0  0  0  0  0  0  0
    4.1251    1.6129   -2.6795 C   0  0  0  0  0  0  0  0  0  0  0  0
    3.7958    0.6560   -2.2849 H   0  0  0  0  0  0  0  0  0  0  0  0
    4.2458    1.5056   -3.7595 H   0  0  0  0  0  0  0  0  0  0  0  0
    3.3459    2.3603   -2.5081 H   0  0  0  0  0  0  0  0  0  0  0  0
    5.6777    4.2064   -3.4940 C   0  0  0  0  0  0  0  0  0  0  0  0
    5.9349    5.2238   -3.1957 H   0  0  0  0  0  0  0  0  0  0  0  0
    4.6015    4.1595   -3.6485 H   0  0  0  0  0  0  0  0  0  0  0  0
    6.1739    3.9980   -4.4450 H   0  0  0  0  0  0  0  0  0  0  0  0
    8.4547    4.2488   -2.0068 C   0  0  0  0  0  0  0  0  0  0  0  0
    9.1544    4.2630   -1.1729 H   0  0  0  0  0  0  0  0  0  0  0  0
    8.0360    5.2501   -2.1177 H   0  0  0  0  0  0  0  0  0  0  0  0
    9.0083    4.0115   -2.9188 H   0  0  0  0  0  0  0  0  0  0  0  0
    8.6984    1.6881   -0.2276 C   0  0  0  0  0  0  0  0  0  0  0  0
    9.5320    1.5794   -0.9250 H   0  0  0  0  0  0  0  0  0  0  0  0
    8.5712    0.7407    0.2869 H   0  0  0  0  0  0  0  0  0  0  0  0
    8.9740    2.4593    0.4967 H   0  0  0  0  0  0  0  0  0  0  0  0
    4.9449    1.3092    1.2790 C   0  0  1  0  0  0  0  0  0  0  0  0
    5.7623    2.0989    2.1553 C   0  0  1  0  0  3  0  0  0  0  0  0
    5.0463    3.2689    2.5114 C   0  0  0  0  0  0  0  0  0  0  0  0
    3.7982    3.2441    1.8365 C   0  0  0  0  0  0  0  0  0  0  0  0
    3.7407    2.0598    1.0604 C   0  0  2  0  0  3  0  0  0  0  0  0
    7.0741    1.7165    2.7829 C   0  0  0  0  0  0  0  0  0  0  0  0
    7.8401    2.4692    2.5777 H   0  0  0  0  0  0  0  0  0  0  0  0
    7.4151    0.7497    2.4260 H   0  0  0  0  0  0  0  0  0  0  0  0
    6.9605    1.6500    3.8670 H   0  0  0  0  0  0  0  0  0  0  0  0
    5.4603    4.2920    3.5286 C   0  0  0  0  0  0  0  0  0  0  0  0
    4.9876    4.0805    4.4910 H   0  0  0  0  0  0  0  0  0  0  0  0
    5.1565    5.2923    3.2170 H   0  0  0  0  0  0  0  0  0  0  0  0
    6.5399    4.2921    3.6670 H   0  0  0  0  0  0  0  0  0  0  0  0
    2.6900    4.2375    2.0316 C   0  0  0  0  0  0  0  0  0  0  0  0
    2.1631    4.0365    2.9675 H   0  0  0  0  0  0  0  0  0  0  0  0
    1.9729    4.1889    1.2145 H   0  0  0  0  0  0  0  0  0  0  0  0
    3.0845    5.2535    2.0787 H   0  0  0  0  0  0  0  0  0  0  0  0
    2.5064    1.6232    0.3209 C   0  0  0  0  0  0  0  0  0  0  0  0
    2.6519    0.6610   -0.1614 H   0  0  0  0  0  0  0  0  0  0  0  0
    2.2193    2.3629   -0.4309 H   0  0  0  0  0  0  0  0  0  0  0  0
    1.6730    1.5244    1.0197 H   0  0  0  0  0  0  0  0  0  0  0  0
  1  3  1  0  0  0  0
  2  1  1  0  0  0  0
  4  5  1  6  0  0  0
  4  6  1  0  0  0  0
  4 31  1  0  0  0  0
  6  7  1  0  0  0  0
  6  9  1  0  0  0  0
  8  6  1  0  0  0  0
 10 11  1  6  0  0  0
 10 14  1  0  0  0  0
 10  1  1  0  0  0  0
 10  4  1  0  0  0  0
 12 11  2  0  0  0  0
 12 13  1  0  0  0  0
 13 14  2  0  0  0  0
 14 27  1  0  0  0  0
 15 18  1  0  0  0  0
 15 16  1  0  0  0  0
 15 11  1  0  0  0  0
 17 15  1  0  0  0  0
 19 20  1  0  0  0  0
 19 12  1  0  0  0  0
 21 19  1  0  0  0  0
 22 19  1  0  0  0  0
 23 13  1  0  0  0  0
 23 24  1  0  0  0  0
 25 23  1  0  0  0  0
 26 23  1  0  0  0  0
 27 29  1  0  0  0  0
 27 30  1  0  0  0  0
 28 27  1  0  0  0  0
 31  1  1  6  0  0  0
 31 32  1  0  0  0  0
 32 33  1  0  0  0  0
 32 36  1  1  0  0  0
 33 40  1  0  0  0  0
 34 44  1  0  0  0  0
 34 33  2  0  0  0  0
 35 48  1  1  0  0  0
 35 31  1  0  0  0  0
 35 34  1  0  0  0  0
 36 39  1  0  0  0  0
 37 36  1  0  0  0  0
 38 36  1  0  0  0  0
 40 43  1  0  0  0  0
 40 41  1  0  0  0  0
 42 40  1  0  0  0  0
 44 47  1  0  0  0  0
 44 45  1  0  0  0  0
 46 44  1  0  0  0  0
 48 51  1  0  0  0  0
 49 48  1  0  0  0  0
 50 48  1  0  0  0  0
M  END
$$$$
