CSD_code = OBOSED | q = 0 | S = 0 | Stoichiometry = C18H25BBr3ClFeN6 | MND = 4
 OpenBabel04212202073D

 55 59  0  0  1  0  0  0  0  0999 V2000
    0.1273   14.7604   -4.7871 Fe  0  0  2  0  0  0  0  0  0  0  0  0
    5.9283   14.1226   -6.0464 Br  0  0  0  0  0  0  0  0  0  0  0  0
   -0.2015    9.7506   -0.7005 Br  0  0  0  0  0  0  0  0  0  0  0  0
   -1.3902   14.1342   -5.9256 Cl  0  0  0  0  0  0  0  0  0  0  0  0
    2.1507   14.6642   -4.7027 N   0  0  1  0  0  0  0  0  0  0  0  0
    2.7970   14.4789   -3.5470 N   0  0  0  0  0  0  0  0  0  0  0  0
    0.2006   12.9601   -3.1466 N   0  0  1  0  0  0  0  0  0  0  0  0
    1.1221   13.2367   -2.2039 N   0  0  0  0  0  0  0  0  0  0  0  0
    3.0403   14.5831   -5.6964 C   0  0  1  0  0  3  0  0  0  0  0  0
    4.2986   14.3329   -5.1319 C   0  0  0  0  0  0  0  0  0  0  0  0
    4.1003   14.2755   -3.7666 C   0  0  0  0  0  0  0  0  0  0  0  0
    4.7969   14.1059   -2.9719 H   0  0  0  0  0  0  0  0  0  0  0  0
   -0.3703   11.8027   -2.8252 C   0  0  2  0  0  3  0  0  0  0  0  0
    0.2071   11.3331   -1.6330 C   0  0  0  0  0  0  0  0  0  0  0  0
    1.1476   12.2709   -1.2747 C   0  0  0  0  0  0  0  0  0  0  0  0
    1.8125   12.3010   -0.4367 H   0  0  0  0  0  0  0  0  0  0  0  0
    2.7045   14.6796   -7.1493 C   0  0  0  0  0  0  0  0  0  0  0  0
    3.6426   14.8026   -7.7023 H   0  0  0  0  0  0  0  0  0  0  0  0
    1.7997   15.8758   -7.4329 C   0  0  0  0  0  0  0  0  0  0  0  0
    1.6245   15.9686   -8.5012 H   0  0  0  0  0  0  0  0  0  0  0  0
    2.2503   16.7969   -7.0721 H   0  0  0  0  0  0  0  0  0  0  0  0
    0.8345   15.7361   -6.9369 H   0  0  0  0  0  0  0  0  0  0  0  0
   -1.4401   11.0973   -3.5941 C   0  0  0  0  0  0  0  0  0  0  0  0
   -1.6327   10.1482   -3.0794 H   0  0  0  0  0  0  0  0  0  0  0  0
   -2.7353   11.9106   -3.5834 C   0  0  0  0  0  0  0  0  0  0  0  0
   -3.5067   11.3889   -4.1442 H   0  0  0  0  0  0  0  0  0  0  0  0
   -2.5732   12.8859   -4.0317 H   0  0  0  0  0  0  0  0  0  0  0  0
   -3.0840   12.0513   -2.5621 H   0  0  0  0  0  0  0  0  0  0  0  0
   -0.9646   10.7792   -5.0116 C   0  0  0  0  0  0  0  0  0  0  0  0
   -1.7486   10.2640   -5.5608 H   0  0  0  0  0  0  0  0  0  0  0  0
   -0.0850   10.1393   -4.9799 H   0  0  0  0  0  0  0  0  0  0  0  0
   -0.7085   11.6934   -5.5379 H   0  0  0  0  0  0  0  0  0  0  0  0
    2.0399   14.4618   -2.2173 B   0  0  2  0  0  0  0  0  0  0  0  0
    2.7856   14.4384   -1.3029 H   0  0  0  0  0  0  0  0  0  0  0  0
    2.0375   13.3742   -7.5927 C   0  0  0  0  0  0  0  0  0  0  0  0
    1.7791   13.4223   -8.6471 H   0  0  0  0  0  0  0  0  0  0  0  0
    2.7053   12.5302   -7.4378 H   0  0  0  0  0  0  0  0  0  0  0  0
    1.1276   13.2088   -7.0136 H   0  0  0  0  0  0  0  0  0  0  0  0
    0.3816   16.0360   -3.2197 N   0  0  0  0  0  0  0  0  0  0  0  0
    1.1762   15.7238   -2.1905 N   0  0  1  0  0  0  0  0  0  0  0  0
    1.0538   16.6280   -1.2129 C   0  0  0  0  0  3  0  0  0  0  0  0
    0.1341   17.5663   -1.6370 C   0  0  0  0  0  0  0  0  0  0  0  0
   -0.4505   19.0822   -0.6903 Br  0  0  0  0  0  0  0  0  0  0  0  0
   -0.2713   17.1617   -2.9164 C   0  0  0  0  0  0  0  0  0  0  0  0
   -1.2973   17.8157   -3.7839 C   0  0  0  0  0  0  0  0  0  0  0  0
   -1.4756   18.8224   -3.3892 H   0  0  0  0  0  0  0  0  0  0  0  0
   -2.6015   17.0165   -3.7007 C   0  0  0  0  0  0  0  0  0  0  0  0
   -3.3613   17.4695   -4.3316 H   0  0  0  0  0  0  0  0  0  0  0  0
   -2.4302   15.9924   -4.0343 H   0  0  0  0  0  0  0  0  0  0  0  0
   -2.9705   16.9907   -2.6781 H   0  0  0  0  0  0  0  0  0  0  0  0
   -0.8162   17.9274   -5.2281 C   0  0  0  0  0  0  0  0  0  0  0  0
   -1.5474   18.4643   -5.8259 H   0  0  0  0  0  0  0  0  0  0  0  0
    0.1327   18.4554   -5.2806 H   0  0  0  0  0  0  0  0  0  0  0  0
   -0.6892   16.9287   -5.6551 H   0  0  0  0  0  0  0  0  0  0  0  0
    1.6057   16.5629   -0.2984 H   0  0  0  0  0  0  0  0  0  0  0  0
  1  4  1  6  0  0  0
  1  5  1  0  0  0  0
  1 39  1  0  0  0  0
  1  7  1  0  0  0  0
  2 10  1  0  0  0  0
  5  6  1  1  0  0  0
  6 33  1  0  0  0  0
  7 13  1  0  0  0  0
  7  8  1  1  0  0  0
  8 15  1  0  0  0  0
  9 17  1  6  0  0  0
  9 10  1  0  0  0  0
  9  5  1  0  0  0  0
 10 11  2  0  0  0  0
 11  6  1  0  0  0  0
 11 12  1  0  0  0  0
 13 23  1  6  0  0  0
 13 14  1  0  0  0  0
 14 15  2  0  0  0  0
 14  3  1  0  0  0  0
 15 16  1  0  0  0  0
 18 17  1  0  0  0  0
 19 17  1  0  0  0  0
 19 21  1  0  0  0  0
 19 22  1  0  0  0  0
 20 19  1  0  0  0  0
 23 25  1  0  0  0  0
 23 24  1  0  0  0  0
 25 28  1  0  0  0  0
 26 25  1  0  0  0  0
 27 25  1  0  0  0  0
 29 31  1  0  0  0  0
 29 23  1  0  0  0  0
 30 29  1  0  0  0  0
 32 29  1  0  0  0  0
 33  8  1  0  0  0  0
 33 40  1  0  0  0  0
 33 34  1  1  0  0  0
 35 37  1  0  0  0  0
 35 17  1  0  0  0  0
 35 38  1  0  0  0  0
 36 35  1  0  0  0  0
 39 44  1  0  0  0  0
 39 40  1  0  0  0  0
 40 41  1  1  0  0  0
 41 55  1  0  0  0  0
 42 41  1  0  0  0  0
 42 43  1  0  0  0  0
 44 42  2  0  0  0  0
 45 47  1  0  0  0  0
 45 46  1  0  0  0  0
 45 44  1  0  0  0  0
 47 50  1  0  0  0  0
 48 47  1  0  0  0  0
 49 47  1  0  0  0  0
 51 45  1  0  0  0  0
 52 51  1  0  0  0  0
 53 51  1  0  0  0  0
 54 51  1  0  0  0  0
M  END
$$$$
