CSD_code = OBUQIM | q = 0 | S = 0 | Stoichiometry = C17H13ClN2O2Pt | MND = 4
 OpenBabel04212202073D

 36 40  0  0  1  0  0  0  0  0999 V2000
   -7.8585   21.8812    3.5499 C   0  0  2  0  0  3  0  0  0  0  0  0
   -8.6914   22.9951    3.7437 C   0  0  0  0  0  0  0  0  0  0  0  0
   -8.2903   23.9680    3.5122 H   0  0  0  0  0  0  0  0  0  0  0  0
   -9.9630   22.8198    4.2337 C   0  0  0  0  0  0  0  0  0  0  0  0
  -10.6162   23.6654    4.3834 H   0  0  0  0  0  0  0  0  0  0  0  0
  -10.3705   21.5302    4.5615 C   0  0  0  0  0  0  0  0  0  0  0  0
  -11.3380   21.3418    4.9957 H   0  0  0  0  0  0  0  0  0  0  0  0
   -9.5213   20.4799    4.3010 C   0  0  0  0  0  0  0  0  0  0  0  0
   -9.8253   19.4646    4.5118 H   0  0  0  0  0  0  0  0  0  0  0  0
   -5.6344   19.9429    3.2296 C   0  0  0  0  0  0  0  0  0  0  0  0
   -4.4430   19.2340    3.3575 C   0  0  0  0  0  0  0  0  0  0  0  0
   -3.2183   19.8573    3.5564 C   0  0  0  0  0  0  0  0  0  0  0  0
   -2.3325   19.2493    3.6553 H   0  0  0  0  0  0  0  0  0  0  0  0
   -3.1397   21.2417    3.6127 C   0  0  0  0  0  0  0  0  0  0  0  0
   -4.3066   21.9756    3.4775 C   0  0  0  0  0  0  0  0  0  0  0  0
   -4.2934   23.0537    3.5161 H   0  0  0  0  0  0  0  0  0  0  0  0
   -5.5241   21.3274    3.3014 C   0  0  1  0  0  3  0  0  0  0  0  0
   -1.8177   21.9147    3.8234 C   0  0  0  0  0  0  0  0  0  0  0  0
   -1.9151   22.9937    3.7443 H   0  0  0  0  0  0  0  0  0  0  0  0
   -1.0947   21.5724    3.0854 H   0  0  0  0  0  0  0  0  0  0  0  0
   -1.4257   21.6728    4.8105 H   0  0  0  0  0  0  0  0  0  0  0  0
   -5.2145   17.0656    2.6340 C   0  0  2  0  0  3  0  0  0  0  0  0
   -4.7297   15.7699    2.3928 C   0  0  0  0  0  0  0  0  0  0  0  0
   -3.7849   15.4977    2.8337 H   0  0  0  0  0  0  0  0  0  0  0  0
   -5.4489   14.9080    1.6005 C   0  0  0  0  0  0  0  0  0  0  0  0
   -5.0918   13.9078    1.4107 H   0  0  0  0  0  0  0  0  0  0  0  0
   -6.6285   15.3712    1.0258 C   0  0  0  0  0  0  0  0  0  0  0  0
   -7.2054   14.7548    0.3569 H   0  0  0  0  0  0  0  0  0  0  0  0
   -7.0691   16.6350    1.3427 C   0  0  0  0  0  0  0  0  0  0  0  0
   -8.0002   17.0074    0.9400 H   0  0  0  0  0  0  0  0  0  0  0  0
   -9.4497   17.9650    2.6350 Cl  0  0  0  0  0  0  0  0  0  0  0  0
   -8.3023   20.6298    3.7528 N   0  0  0  0  0  0  0  0  0  0  0  0
   -6.4132   17.4625    2.1759 N   0  0  0  0  0  0  0  0  0  0  0  0
   -6.6106   22.1870    3.1924 O   0  0  0  0  0  0  0  0  0  0  0  0
   -4.3718   17.8470    3.3109 O   0  0  0  0  0  0  0  0  0  0  0  0
   -7.3820   19.0343    2.9597 Pt  0  0  2  0  0  0  0  0  0  0  0  0
  1 34  1  1  0  0  0
  1  2  1  0  0  0  0
  1 32  1  0  0  0  0
  2  4  2  0  0  0  0
  3  2  1  0  0  0  0
  4  5  1  0  0  0  0
  4  6  1  0  0  0  0
  6  7  1  0  0  0  0
  8  9  1  0  0  0  0
  8  6  2  0  0  0  0
 10 17  1  0  0  0  0
 10 11  1  0  0  0  0
 11 12  2  0  0  0  0
 12 14  1  0  0  0  0
 12 13  1  0  0  0  0
 14 18  1  0  0  0  0
 15 16  1  0  0  0  0
 15 14  2  0  0  0  0
 17 34  1  6  0  0  0
 17 15  1  0  0  0  0
 18 21  1  0  0  0  0
 19 18  1  0  0  0  0
 20 18  1  0  0  0  0
 22 23  1  6  0  0  0
 22 35  1  0  0  0  0
 23 24  1  0  0  0  0
 25 23  2  0  0  0  0
 26 25  1  0  0  0  0
 27 29  2  0  0  0  0
 27 25  1  0  0  0  0
 28 27  1  0  0  0  0
 29 33  1  0  0  0  0
 30 29  1  0  0  0  0
 32  8  1  0  0  0  0
 33 22  1  0  0  0  0
 33 36  1  0  0  0  0
 35 11  1  0  0  0  0
 36 31  1  6  0  0  0
 36 10  2  0  0  0  0
 36 32  1  0  0  0  0
M  END
$$$$
