CSD_code = OBUZER | q = 0 | S = 0 | Stoichiometry = C20H20Cl2N4NiO4 | MND = 6
 OpenBabel04212202073D

 51 52  0  0  0  0  0  0  0  0999 V2000
   11.3514    0.2966    7.4998 Ni  0  0  0  0  0  0  0  0  0  0  0  0
   12.4661    2.1718    7.5907 Cl  0  0  0  0  0  0  0  0  0  0  0  0
    7.2671    2.9767    8.8971 O   0  0  0  0  0  0  0  0  0  0  0  0
    6.7709    3.3496    9.6367 H   0  0  0  0  0  0  0  0  0  0  0  0
   10.9218    3.4576    2.8835 O   0  0  0  0  0  0  0  0  0  0  0  0
   11.3998    3.9975    3.5264 H   0  0  0  0  0  0  0  0  0  0  0  0
   10.2990    1.0732    8.7547 N   0  0  0  0  0  0  0  0  0  0  0  0
   10.2249    0.9899    5.4483 N   0  0  0  0  0  0  0  0  0  0  0  0
    9.1980    1.7230    8.4064 C   0  0  0  0  0  3  0  0  0  0  0  0
    8.9440    1.7722    7.3556 H   0  0  0  0  0  0  0  0  0  0  0  0
    8.3670    2.3323    9.3454 C   0  0  0  0  0  0  0  0  0  0  0  0
    8.7085    2.2488   10.6909 C   0  0  0  0  0  0  0  0  0  0  0  0
    8.0866    2.7084   11.4471 H   0  0  0  0  0  0  0  0  0  0  0  0
    9.8621    1.5649   11.0322 C   0  0  0  0  0  0  0  0  0  0  0  0
   10.1641    1.4781   12.0637 H   0  0  0  0  0  0  0  0  0  0  0  0
   10.6349    0.9905   10.0407 C   0  0  0  0  0  0  0  0  0  0  0  0
   11.5481    0.4557   10.2698 H   0  0  0  0  0  0  0  0  0  0  0  0
   10.6640    2.0835    4.8394 C   0  0  0  0  0  0  0  0  0  0  0  0
   11.2166    2.7840    5.4562 H   0  0  0  0  0  0  0  0  0  0  0  0
   10.4531    2.3382    3.4876 C   0  0  0  0  0  0  0  0  0  0  0  0
    9.7356    1.4054    2.7431 C   0  0  0  0  0  0  0  0  0  0  0  0
    9.5595    1.5823    1.6934 H   0  0  0  0  0  0  0  0  0  0  0  0
    9.2670    0.2761    3.3877 C   0  0  0  0  0  0  0  0  0  0  0  0
    8.7002   -0.4669    2.8488 H   0  0  0  0  0  0  0  0  0  0  0  0
    9.5331    0.1063    4.7378 C   0  0  0  0  0  0  0  0  0  0  0  0
    9.1810   -0.7628    5.2764 H   0  0  0  0  0  0  0  0  0  0  0  0
    9.9956   -1.4089    7.7245 Cl  0  0  0  0  0  0  0  0  0  0  0  0
   13.0600   -0.7987    8.9699 N   0  0  0  0  0  0  0  0  0  0  0  0
   14.2874   -0.4364    8.6268 C   0  0  0  0  0  0  0  0  0  0  0  0
   14.4659    0.6185    8.4697 H   0  0  0  0  0  0  0  0  0  0  0  0
   15.3251   -1.3514    8.4437 C   0  0  0  0  0  0  0  0  0  0  0  0
   16.5393   -0.8896    8.0555 O   0  0  0  0  0  0  0  0  0  0  0  0
   17.1651   -1.6210    7.9804 H   0  0  0  0  0  0  0  0  0  0  0  0
   15.0635   -2.6989    8.6612 C   0  0  0  0  0  0  0  0  0  0  0  0
   15.8417   -3.4387    8.5215 H   0  0  0  0  0  0  0  0  0  0  0  0
   13.7916   -3.0662    9.0671 C   0  0  0  0  0  0  0  0  0  0  0  0
   13.5561   -4.1006    9.2642 H   0  0  0  0  0  0  0  0  0  0  0  0
   12.8240   -2.0869    9.2104 C   0  0  0  0  0  0  0  0  0  0  0  0
   11.8159   -2.3389    9.5084 H   0  0  0  0  0  0  0  0  0  0  0  0
   12.5532   -0.5824    6.1558 N   0  0  0  0  0  0  0  0  0  0  0  0
   12.4869   -1.8973    5.9709 C   0  0  0  0  0  3  0  0  0  0  0  0
   11.6737   -2.4184    6.4644 H   0  0  0  0  0  0  0  0  0  0  0  0
   13.3973   -2.6048    5.1927 C   0  0  0  0  0  0  0  0  0  0  0  0
   13.3130   -3.9475    5.0488 O   0  0  0  0  0  0  0  0  0  0  0  0
   12.5411   -4.2808    5.5252 H   0  0  0  0  0  0  0  0  0  0  0  0
   14.4213   -1.9059    4.5608 C   0  0  0  0  0  0  0  0  0  0  0  0
   15.1419   -2.4358    3.9581 H   0  0  0  0  0  0  0  0  0  0  0  0
   14.4652   -0.5364    4.7340 C   0  0  0  0  0  0  0  0  0  0  0  0
   15.2337    0.0531    4.2603 H   0  0  0  0  0  0  0  0  0  0  0  0
   13.5215    0.0871    5.5335 C   0  0  0  0  0  0  0  0  0  0  0  0
   13.5588    1.1541    5.7010 H   0  0  0  0  0  0  0  0  0  0  0  0
  1  2  1  0  0  0  0
  1 27  1  0  0  0  0
  1  7  1  0  0  0  0
  3 11  1  0  0  0  0
  3  4  1  0  0  0  0
  5 20  1  0  0  0  0
  5  6  1  0  0  0  0
  7 16  1  0  0  0  0
  9  7  1  0  0  0  0
  9 11  1  0  0  0  0
 10  9  1  0  0  0  0
 11 12  2  0  0  0  0
 12 14  1  0  0  0  0
 12 13  1  0  0  0  0
 14 15  1  0  0  0  0
 16 17  1  0  0  0  0
 16 14  2  0  0  0  0
 18  8  1  0  0  0  0
 18 19  1  0  0  0  0
 20 18  2  0  0  0  0
 21 23  2  0  0  0  0
 21 20  1  0  0  0  0
 22 21  1  0  0  0  0
 23 25  1  0  0  0  0
 24 23  1  0  0  0  0
 25 26  1  0  0  0  0
 25  8  2  0  0  0  0
 28 38  1  0  0  0  0
 29 28  2  0  0  0  0
 30 29  1  0  0  0  0
 31 29  1  0  0  0  0
 31 34  2  0  0  0  0
 32 31  1  0  0  0  0
 33 32  1  0  0  0  0
 34 36  1  0  0  0  0
 35 34  1  0  0  0  0
 36 38  2  0  0  0  0
 36 37  1  0  0  0  0
 38 39  1  0  0  0  0
 40  1  1  0  0  0  0
 41 40  1  0  0  0  0
 41 42  1  0  0  0  0
 43 41  1  0  0  0  0
 44 43  1  0  0  0  0
 44 45  1  0  0  0  0
 46 48  1  0  0  0  0
 46 43  2  0  0  0  0
 47 46  1  0  0  0  0
 48 50  2  0  0  0  0
 49 48  1  0  0  0  0
 50 51  1  0  0  0  0
 50 40  1  0  0  0  0
M  END
$$$$
