CSD_code = OCEBUW | q = 0 | S = 0 | Stoichiometry = C28H25AuClO4P | MND = 2
 OpenBabel04212202073D

 60 63  0  0  1  0  0  0  0  0999 V2000
    7.5435    7.6198    4.1314 Au  0  0  0  0  0  0  0  0  0  0  0  0
    4.4064    7.5029    2.5065 C   0  0  2  0  0  0  0  0  0  0  0  0
    3.9924    7.5798    1.4941 H   0  0  0  0  0  0  0  0  0  0  0  0
    3.8916    8.6061    3.3976 C   0  0  0  0  0  0  0  0  0  0  0  0
    4.2909    8.6034    4.7137 C   0  0  0  0  0  0  0  0  0  0  0  0
    4.8916    7.7841    5.0886 H   0  0  0  0  0  0  0  0  0  0  0  0
    3.9584    9.6466    5.5859 C   0  0  0  0  0  0  0  0  0  0  0  0
    4.3013    9.6072    6.6085 H   0  0  0  0  0  0  0  0  0  0  0  0
    3.2358   10.7096    5.1268 C   0  0  0  0  0  0  0  0  0  0  0  0
    2.9974   11.5377    5.7781 H   0  0  0  0  0  0  0  0  0  0  0  0
    2.7810   10.7457    3.7928 C   0  0  0  0  0  0  0  0  0  0  0  0
    2.0285   11.8403    3.3183 C   0  0  0  0  0  0  0  0  0  0  0  0
    1.8200   12.6527    3.9995 H   0  0  0  0  0  0  0  0  0  0  0  0
    1.5688   11.8749    2.0335 C   0  0  0  0  0  0  0  0  0  0  0  0
    0.9956   12.7177    1.6768 H   0  0  0  0  0  0  0  0  0  0  0  0
    1.8279   10.7989    1.1741 C   0  0  0  0  0  0  0  0  0  0  0  0
    1.4390   10.8186    0.1667 H   0  0  0  0  0  0  0  0  0  0  0  0
    2.5632    9.7282    1.5997 C   0  0  0  0  0  0  0  0  0  0  0  0
    2.7261    8.9110    0.9145 H   0  0  0  0  0  0  0  0  0  0  0  0
    3.0833    9.6704    2.9112 C   0  0  0  0  0  0  0  0  0  0  0  0
    4.0609    6.1160    3.0671 C   0  0  0  0  0  0  0  0  0  0  0  0
    3.4083    6.1839    3.9425 H   0  0  0  0  0  0  0  0  0  0  0  0
    5.3166    5.3712    3.4712 C   0  0  0  0  0  0  0  0  0  0  0  0
    6.3541    4.0189    5.0686 C   0  0  0  0  0  0  0  0  0  0  0  0
    6.8425    3.4414    4.2830 H   0  0  0  0  0  0  0  0  0  0  0  0
    6.0182    3.3730    5.8748 H   0  0  0  0  0  0  0  0  0  0  0  0
    7.0513    4.7712    5.4464 H   0  0  0  0  0  0  0  0  0  0  0  0
    3.3308    5.2520    2.0373 C   0  0  0  0  0  0  0  0  0  0  0  0
    2.2838    3.1820    1.7273 C   0  0  0  0  0  0  0  0  0  0  0  0
    1.3850    3.6506    1.3229 H   0  0  0  0  0  0  0  0  0  0  0  0
    2.0260    2.3293    2.3490 H   0  0  0  0  0  0  0  0  0  0  0  0
    2.9263    2.8741    0.9005 H   0  0  0  0  0  0  0  0  0  0  0  0
    6.8322    7.2855    0.7297 C   0  0  0  0  0  0  0  0  0  0  0  0
    8.1394    7.6678    0.4390 C   0  0  0  0  0  0  0  0  0  0  0  0
    8.6788    8.2764    1.1556 H   0  0  0  0  0  0  0  0  0  0  0  0
    8.7338    7.2709   -0.7426 C   0  0  0  0  0  0  0  0  0  0  0  0
    9.7479    7.5680   -0.9653 H   0  0  0  0  0  0  0  0  0  0  0  0
    8.0247    6.4854   -1.6383 C   0  0  0  0  0  0  0  0  0  0  0  0
    8.4866    6.1704   -2.5624 H   0  0  0  0  0  0  0  0  0  0  0  0
    6.7273    6.1000   -1.3473 C   0  0  0  0  0  0  0  0  0  0  0  0
    6.1773    5.4855   -2.0453 H   0  0  0  0  0  0  0  0  0  0  0  0
    6.1245    6.4941   -0.1642 C   0  0  0  0  0  0  0  0  0  0  0  0
    5.1141    6.1814    0.0498 H   0  0  0  0  0  0  0  0  0  0  0  0
    6.0115    9.6660    1.8955 C   0  0  0  0  0  0  0  0  0  0  0  0
    5.5437   10.0640    0.6478 C   0  0  0  0  0  0  0  0  0  0  0  0
    5.3640    9.3241   -0.1207 H   0  0  0  0  0  0  0  0  0  0  0  0
    5.3145   11.4029    0.3916 C   0  0  0  0  0  0  0  0  0  0  0  0
    4.9474   11.7093   -0.5768 H   0  0  0  0  0  0  0  0  0  0  0  0
    5.5478   12.3497    1.3754 C   0  0  0  0  0  0  0  0  0  0  0  0
    5.3573   13.3934    1.1749 H   0  0  0  0  0  0  0  0  0  0  0  0
    6.0339   11.9601    2.6123 C   0  0  0  0  0  0  0  0  0  0  0  0
    6.2276   12.6975    3.3769 H   0  0  0  0  0  0  0  0  0  0  0  0
    6.2713   10.6230    2.8688 C   0  0  0  0  0  0  0  0  0  0  0  0
    6.6531   10.3046    3.8311 H   0  0  0  0  0  0  0  0  0  0  0  0
    8.6028    7.0652    6.0729 Cl  0  0  0  0  0  0  0  0  0  0  0  0
    5.1772    4.6561    4.5599 O   0  0  0  0  0  0  0  0  0  0  0  0
    6.3454    5.4928    2.8417 O   0  0  0  0  0  0  0  0  0  0  0  0
    3.1077    5.5762    0.9027 O   0  0  0  0  0  0  0  0  0  0  0  0
    2.9754    4.0939    2.5762 O   0  0  0  0  0  0  0  0  0  0  0  0
    6.2310    7.9042    2.3225 P   0  0  0  0  0  4  0  0  0  0  0  0
  1 55  1  0  0  0  0
  2  3  1  6  0  0  0
  2 21  1  0  0  0  0
  2  4  1  0  0  0  0
  4  5  1  0  0  0  0
  5  6  1  0  0  0  0
  5  7  2  0  0  0  0
  7  8  1  0  0  0  0
  9  7  1  0  0  0  0
  9 10  1  0  0  0  0
 11  9  2  0  0  0  0
 12 11  1  0  0  0  0
 12 13  1  0  0  0  0
 14 12  2  0  0  0  0
 15 14  1  0  0  0  0
 16 18  2  0  0  0  0
 16 14  1  0  0  0  0
 17 16  1  0  0  0  0
 18 20  1  0  0  0  0
 19 18  1  0  0  0  0
 20  4  2  0  0  0  0
 20 11  1  0  0  0  0
 21 23  1  0  0  0  0
 21 22  1  0  0  0  0
 23 56  1  0  0  0  0
 24 27  1  0  0  0  0
 24 26  1  0  0  0  0
 25 24  1  0  0  0  0
 28 59  1  0  0  0  0
 28 21  1  0  0  0  0
 29 31  1  0  0  0  0
 29 59  1  0  0  0  0
 30 29  1  0  0  0  0
 32 29  1  0  0  0  0
 33 60  1  0  0  0  0
 34 33  1  0  0  0  0
 34 35  1  0  0  0  0
 36 34  2  0  0  0  0
 37 36  1  0  0  0  0
 38 40  2  0  0  0  0
 38 36  1  0  0  0  0
 39 38  1  0  0  0  0
 40 42  1  0  0  0  0
 41 40  1  0  0  0  0
 42 43  1  0  0  0  0
 42 33  2  0  0  0  0
 44 60  1  0  0  0  0
 44 53  1  0  0  0  0
 45 44  2  0  0  0  0
 46 45  1  0  0  0  0
 47 45  1  0  0  0  0
 47 49  2  0  0  0  0
 48 47  1  0  0  0  0
 49 51  1  0  0  0  0
 50 49  1  0  0  0  0
 51 53  2  0  0  0  0
 51 52  1  0  0  0  0
 53 54  1  0  0  0  0
 56 24  1  0  0  0  0
 57 23  2  0  0  0  0
 58 28  2  0  0  0  0
 60  2  1  0  0  0  0
 60  1  1  0  0  0  0
M  END
$$$$
