CSD_code = OCEDEI | q = 0 | S = 0 | Stoichiometry = C8H16BrCuN4S2 | MND = 3
 OpenBabel04212202073D

 32 33  0  0  1  0  0  0  0  0999 V2000
    5.5572    3.1925    3.4337 Br  0  0  0  0  0  0  0  0  0  0  0  0
    5.5570    0.8634    3.4337 Cu  0  0  0  0  0  0  0  0  0  0  0  0
    5.9632   -0.3763    5.3508 S   0  0  0  0  0  0  0  0  0  0  0  0
    5.7267    2.0356    6.5316 N   0  0  0  0  0  0  0  0  0  0  0  0
    5.6096    2.5379    5.6550 H   0  0  0  0  0  0  0  0  0  0  0  0
    6.4081    0.4205    7.8513 N   0  0  0  0  0  0  0  0  0  0  0  0
    6.0349    0.7353    6.5974 C   0  0  1  0  0  3  0  0  0  0  0  0
    6.3080    1.5636    8.7370 C   0  0  0  0  0  0  0  0  0  0  0  0
    7.2463    1.7052    9.2812 H   0  0  0  0  0  0  0  0  0  0  0  0
    5.5047    1.4071    9.4676 H   0  0  0  0  0  0  0  0  0  0  0  0
    5.9983    2.7229    7.7756 C   0  0  0  0  0  0  0  0  0  0  0  0
    5.1277    3.3067    8.0835 H   0  0  0  0  0  0  0  0  0  0  0  0
    6.8492    3.4030    7.6610 H   0  0  0  0  0  0  0  0  0  0  0  0
    6.6510   -0.8966    8.3551 C   0  0  0  0  0  0  0  0  0  0  0  0
    5.8646   -1.1975    9.0536 H   0  0  0  0  0  0  0  0  0  0  0  0
    7.6137   -0.9288    8.8698 H   0  0  0  0  0  0  0  0  0  0  0  0
    6.6669   -1.5873    7.5145 H   0  0  0  0  0  0  0  0  0  0  0  0
    5.1513   -0.3763    1.5166 S   0  0  0  0  0  0  0  0  0  0  0  0
    5.3878    2.0355    0.3357 N   0  0  0  0  0  0  0  0  0  0  0  0
    5.5049    2.5379    1.2124 H   0  0  0  0  0  0  0  0  0  0  0  0
    4.7063    0.4205   -0.9840 N   0  0  0  0  0  0  0  0  0  0  0  0
    5.0796    0.7353    0.2700 C   0  0  1  0  0  3  0  0  0  0  0  0
    4.8064    1.5636   -1.8697 C   0  0  0  0  0  0  0  0  0  0  0  0
    3.8680    1.7052   -2.4139 H   0  0  0  0  0  0  0  0  0  0  0  0
    5.6097    1.4071   -2.6003 H   0  0  0  0  0  0  0  0  0  0  0  0
    5.1161    2.7229   -0.9082 C   0  0  0  0  0  0  0  0  0  0  0  0
    5.9866    3.3067   -1.2161 H   0  0  0  0  0  0  0  0  0  0  0  0
    4.2652    3.4030   -0.7936 H   0  0  0  0  0  0  0  0  0  0  0  0
    4.4634   -0.8966   -1.4878 C   0  0  0  0  0  0  0  0  0  0  0  0
    5.2498   -1.1974   -2.1863 H   0  0  0  0  0  0  0  0  0  0  0  0
    3.5007   -0.9288   -2.0025 H   0  0  0  0  0  0  0  0  0  0  0  0
    4.4475   -1.5873   -0.6472 H   0  0  0  0  0  0  0  0  0  0  0  0
  2  1  1  0  0  0  0
  2  3  1  0  0  0  0
  4  7  1  0  0  0  0
  4 11  1  0  0  0  0
  5  4  1  0  0  0  0
  6 14  1  0  0  0  0
  6  8  1  0  0  0  0
  7  3  1  1  0  0  0
  7  6  1  0  0  0  0
  8  9  1  0  0  0  0
  8 10  1  0  0  0  0
 11 12  1  0  0  0  0
 11  8  1  0  0  0  0
 13 11  1  0  0  0  0
 14 16  1  0  0  0  0
 14 15  1  0  0  0  0
 17 14  1  0  0  0  0
 18  2  1  0  0  0  0
 19 20  1  0  0  0  0
 21 22  1  0  0  0  0
 22 19  1  0  0  0  0
 22 18  1  6  0  0  0
 23 21  1  0  0  0  0
 23 26  1  0  0  0  0
 24 23  1  0  0  0  0
 25 23  1  0  0  0  0
 26 28  1  0  0  0  0
 26 19  1  0  0  0  0
 27 26  1  0  0  0  0
 29 21  1  0  0  0  0
 29 32  1  0  0  0  0
 30 29  1  0  0  0  0
 31 29  1  0  0  0  0
M  END
$$$$
