CSD_code = OCIFUE | q = 0 | S = 0 | Stoichiometry = C15H17Cl2N5OZn | MND = 5
 OpenBabel04212202073D

 41 44  0  0  1  0  0  0  0  0999 V2000
    3.0174    2.1131    4.9419 Zn  0  0  0  0  0  0  0  0  0  0  0  0
    4.0671    3.5777    3.7180 Cl  0  0  0  0  0  0  0  0  0  0  0  0
    0.8115    1.5209    4.8422 Cl  0  0  0  0  0  0  0  0  0  0  0  0
    3.6168    0.1418    4.1635 O   0  0  0  0  0  0  0  0  0  0  0  0
    3.2154    3.1701    6.8871 N   0  0  0  0  0  0  0  0  0  0  0  0
    3.4790    4.2895    9.3599 N   0  0  0  0  0  0  0  0  0  0  0  0
    2.9903    0.5978    6.6134 N   0  0  2  0  0  0  0  0  0  0  0  0
    2.6471   -0.5840    6.0881 N   0  0  0  0  0  0  0  0  0  0  0  0
    1.8172   -1.0544    6.4458 H   0  0  0  0  0  0  0  0  0  0  0  0
    2.4662   -1.8330    4.1696 N   0  0  0  0  0  0  0  0  0  0  0  0
    1.9131   -2.4465    4.7534 H   0  0  0  0  0  0  0  0  0  0  0  0
    3.5638    4.4371    7.0067 C   0  0  0  0  0  3  0  0  0  0  0  0
    3.7770    4.9688    6.0909 H   0  0  0  0  0  0  0  0  0  0  0  0
    3.6285    5.0159    8.2703 C   0  0  0  0  0  0  0  0  0  0  0  0
    3.8211    6.0691    8.4139 H   0  0  0  0  0  0  0  0  0  0  0  0
    3.2003    2.9988    9.2524 C   0  0  0  0  0  0  0  0  0  0  0  0
    2.9825    2.4360    7.9796 C   0  0  0  0  0  0  0  0  0  0  0  0
    3.1870    2.2093   10.5289 C   0  0  0  0  0  0  0  0  0  0  0  0
    3.3756    1.1575   10.3118 H   0  0  0  0  0  0  0  0  0  0  0  0
    2.1950    2.2943   10.9825 H   0  0  0  0  0  0  0  0  0  0  0  0
    4.2214    2.7331   11.5224 C   0  0  0  0  0  0  0  0  0  0  0  0
    4.0364    3.7809   11.7367 H   0  0  0  0  0  0  0  0  0  0  0  0
    5.2231    2.6374   11.1113 H   0  0  0  0  0  0  0  0  0  0  0  0
    4.1685    2.1658   12.4478 H   0  0  0  0  0  0  0  0  0  0  0  0
    2.5157    1.0739    7.6988 C   0  0  1  0  0  3  0  0  0  0  0  0
    2.9409   -0.7028    4.7270 C   0  0  2  0  0  3  0  0  0  0  0  0
    2.5054   -2.2147    2.8147 C   0  0  0  0  0  0  0  0  0  0  0  0
    1.8530   -3.3950    2.4690 C   0  0  0  0  0  0  0  0  0  0  0  0
    1.3454   -3.9721    3.2299 H   0  0  0  0  0  0  0  0  0  0  0  0
    1.8476   -3.8276    1.1567 C   0  0  0  0  0  0  0  0  0  0  0  0
    1.3375   -4.7434    0.8983 H   0  0  0  0  0  0  0  0  0  0  0  0
    2.4906   -3.0870    0.1788 C   0  0  0  0  0  0  0  0  0  0  0  0
    2.4837   -3.4232   -0.8467 H   0  0  0  0  0  0  0  0  0  0  0  0
    3.1387   -1.9137    0.5244 C   0  0  0  0  0  0  0  0  0  0  0  0
    3.6390   -1.3296   -0.2327 H   0  0  0  0  0  0  0  0  0  0  0  0
    3.1544   -1.4722    1.8359 C   0  0  0  0  0  0  0  0  0  0  0  0
    3.6573   -0.5567    2.0961 H   0  0  0  0  0  0  0  0  0  0  0  0
    1.4575    0.4088    8.5234 C   0  0  0  0  0  0  0  0  0  0  0  0
    0.6216    0.1645    7.8640 H   0  0  0  0  0  0  0  0  0  0  0  0
    1.0897    1.0706    9.2989 H   0  0  0  0  0  0  0  0  0  0  0  0
    1.8232   -0.5122    8.9781 H   0  0  0  0  0  0  0  0  0  0  0  0
  1  7  1  0  0  0  0
  1  5  1  0  0  0  0
  2  1  1  0  0  0  0
  3  1  1  0  0  0  0
  4 26  1  0  0  0  0
  4  1  1  0  0  0  0
  5 12  1  0  0  0  0
  5 17  1  0  0  0  0
  7  8  1  6  0  0  0
  7 25  1  0  0  0  0
  8  9  1  0  0  0  0
 10 11  1  0  0  0  0
 12 14  1  0  0  0  0
 13 12  1  0  0  0  0
 14 15  1  0  0  0  0
 14  6  2  0  0  0  0
 16  6  1  0  0  0  0
 16 18  1  0  0  0  0
 17 16  2  0  0  0  0
 18 20  1  0  0  0  0
 18 21  1  0  0  0  0
 19 18  1  0  0  0  0
 21 22  1  0  0  0  0
 21 24  1  0  0  0  0
 23 21  1  0  0  0  0
 25 17  1  0  0  0  0
 25 38  1  6  0  0  0
 26 10  1  1  0  0  0
 26  8  1  0  0  0  0
 27 10  1  0  0  0  0
 28 27  1  0  0  0  0
 28 29  1  0  0  0  0
 30 28  2  0  0  0  0
 31 30  1  0  0  0  0
 32 34  2  0  0  0  0
 32 30  1  0  0  0  0
 33 32  1  0  0  0  0
 34 36  1  0  0  0  0
 35 34  1  0  0  0  0
 36 37  1  0  0  0  0
 36 27  2  0  0  0  0
 38 41  1  0  0  0  0
 38 40  1  0  0  0  0
 39 38  1  0  0  0  0
M  END
$$$$
