CSD_code = OCIJEQ | q = 1 | S = 0 | Stoichiometry = C21H21ClMnN4O(1+) | MND = 6
 OpenBabel04212202073D

 49 55  0  0  1  0  0  0  0  0999 V2000
    2.9440    9.4999    0.7259 Mn  0  0  0  0  0  0  0  0  0  0  0  0
    1.5463    8.9417   -0.7756 Cl  0  0  0  0  0  0  0  0  0  0  0  0
    3.6847    7.8982    1.0870 O   0  0  0  0  0  0  0  0  0  0  0  0
    2.2644   11.4943    0.6539 N   0  0  2  0  0  4  0  0  0  0  0  0
    4.1163   10.1644   -0.8042 N   0  0  0  0  0  0  0  0  0  0  0  0
    1.5379    9.3144    2.1102 N   0  0  0  0  0  0  0  0  0  0  0  0
    4.1608   10.2826    2.0170 N   0  0  1  0  0  0  0  0  0  0  0  0
    1.3518    8.2959    2.9479 C   0  0  0  0  0  3  0  0  0  0  0  0
    2.0518    7.4749    2.8556 H   0  0  0  0  0  0  0  0  0  0  0  0
    5.4527   11.3358   -2.9401 C   0  0  0  0  0  0  0  0  0  0  0  0
    5.9679   11.7931   -3.7698 H   0  0  0  0  0  0  0  0  0  0  0  0
    5.8017    8.5240    1.9479 C   0  0  0  0  0  0  0  0  0  0  0  0
    0.6891   10.3536    2.1640 C   0  0  0  0  0  0  0  0  0  0  0  0
    5.8899   10.1367   -2.4016 C   0  0  0  0  0  0  0  0  0  0  0  0
    6.7517    9.6257   -2.7980 H   0  0  0  0  0  0  0  0  0  0  0  0
    4.3291   11.9346   -2.3915 C   0  0  0  0  0  0  0  0  0  0  0  0
    3.9501   12.8633   -2.7882 H   0  0  0  0  0  0  0  0  0  0  0  0
    5.1931    9.5929   -1.3362 C   0  0  0  0  0  3  0  0  0  0  0  0
    5.5082    8.6574   -0.8937 H   0  0  0  0  0  0  0  0  0  0  0  0
    3.6775   11.3213   -1.3323 C   0  0  0  0  0  0  0  0  0  0  0  0
    0.3277    8.2625    3.8776 C   0  0  0  0  0  0  0  0  0  0  0  0
    0.2153    7.4086    4.5251 H   0  0  0  0  0  0  0  0  0  0  0  0
   -0.5425    9.3389    3.9495 C   0  0  0  0  0  0  0  0  0  0  0  0
   -1.3528    9.3512    4.6609 H   0  0  0  0  0  0  0  0  0  0  0  0
    7.5524    6.8536    1.9673 C   0  0  0  0  0  0  0  0  0  0  0  0
    8.5610    6.5593    2.2085 H   0  0  0  0  0  0  0  0  0  0  0  0
    7.1059    8.1131    2.2763 C   0  0  0  0  0  0  0  0  0  0  0  0
    7.7594    8.8167    2.7706 H   0  0  0  0  0  0  0  0  0  0  0  0
    4.9163    7.5872    1.3170 C   0  0  0  0  0  0  0  0  0  0  0  0
    0.8733   11.4427    1.1319 C   0  0  0  0  0  0  0  0  0  0  0  0
    0.2277   11.1772    0.2875 H   0  0  0  0  0  0  0  0  0  0  0  0
    0.5438   12.4112    1.5275 H   0  0  0  0  0  0  0  0  0  0  0  0
    2.4003   11.8943   -0.7592 C   0  0  0  0  0  0  0  0  0  0  0  0
    2.3696   12.9851   -0.8735 H   0  0  0  0  0  0  0  0  0  0  0  0
    1.5744   11.4571   -1.3324 H   0  0  0  0  0  0  0  0  0  0  0  0
   -0.3537   10.3996    3.0771 C   0  0  0  0  0  0  0  0  0  0  0  0
   -1.0161   11.2508    3.0923 H   0  0  0  0  0  0  0  0  0  0  0  0
    5.3234    9.8047    2.3393 C   0  0  0  0  0  3  0  0  0  0  0  0
    5.9720   10.3863    2.9956 H   0  0  0  0  0  0  0  0  0  0  0  0
    3.1106   12.3650    1.4900 C   0  0  0  0  0  0  0  0  0  0  0  0
    3.9253   12.7540    0.8733 H   0  0  0  0  0  0  0  0  0  0  0  0
    2.5429   13.2107    1.8933 H   0  0  0  0  0  0  0  0  0  0  0  0
    3.7282   11.5293    2.6138 C   0  0  0  0  0  0  0  0  0  0  0  0
    4.5594   12.0683    3.0844 H   0  0  0  0  0  0  0  0  0  0  0  0
    2.9778   11.3144    3.3858 H   0  0  0  0  0  0  0  0  0  0  0  0
    5.4003    6.2880    1.0429 C   0  0  0  0  0  0  0  0  0  0  0  0
    4.7258    5.5925    0.5668 H   0  0  0  0  0  0  0  0  0  0  0  0
    6.6920    5.9412    1.3456 C   0  0  0  0  0  0  0  0  0  0  0  0
    7.0480    4.9507    1.1079 H   0  0  0  0  0  0  0  0  0  0  0  0
  1  3  1  0  0  0  0
  1  7  1  0  0  0  0
  1  6  1  0  0  0  0
  2  1  1  0  0  0  0
  3 29  1  0  0  0  0
  4 33  1  6  0  0  0
  4  1  1  0  0  0  0
  4 30  1  0  0  0  0
  4 40  1  0  0  0  0
  5  1  1  0  0  0  0
  6 13  1  0  0  0  0
  6  8  1  0  0  0  0
  7 38  1  6  0  0  0
  7 43  1  0  0  0  0
  8 21  1  0  0  0  0
  9  8  1  0  0  0  0
 10 14  2  0  0  0  0
 10 16  1  0  0  0  0
 11 10  1  0  0  0  0
 12 27  1  0  0  0  0
 12 38  1  0  0  0  0
 13 36  2  0  0  0  0
 14 18  1  0  0  0  0
 15 14  1  0  0  0  0
 16 20  2  0  0  0  0
 17 16  1  0  0  0  0
 18 19  1  0  0  0  0
 18  5  1  0  0  0  0
 20  5  1  0  0  0  0
 20 33  1  0  0  0  0
 21 23  2  0  0  0  0
 21 22  1  0  0  0  0
 23 24  1  0  0  0  0
 25 26  1  0  0  0  0
 25 27  2  0  0  0  0
 27 28  1  0  0  0  0
 29 12  2  0  0  0  0
 30 32  1  0  0  0  0
 30 13  1  0  0  0  0
 31 30  1  0  0  0  0
 34 33  1  0  0  0  0
 35 33  1  0  0  0  0
 36 37  1  0  0  0  0
 36 23  1  0  0  0  0
 38 39  1  0  0  0  0
 40 42  1  0  0  0  0
 40 43  1  0  0  0  0
 41 40  1  0  0  0  0
 43 44  1  0  0  0  0
 43 45  1  0  0  0  0
 46 29  1  0  0  0  0
 46 48  2  0  0  0  0
 47 46  1  0  0  0  0
 48 25  1  0  0  0  0
 49 48  1  0  0  0  0
M  END
$$$$
