CSD_code = OCIJES | q = 0 | S = 0 | Stoichiometry = C16H16Cl2N2RuS2 | MND = 6
 OpenBabel04212202073D

 39 43  0  0  0  0  0  0  0  0999 V2000
    3.0949    6.2665   17.1931 C   0  0  0  0  0  0  0  0  0  0  0  0
    6.7109    6.3324   15.9935 Cl  0  0  0  0  0  0  0  0  0  0  0  0
    4.0277    7.7202   15.5441 N   0  0  0  0  0  0  0  0  0  0  0  0
    4.8147    6.2044   14.6421 Ru  0  0  0  0  0  0  0  0  0  0  0  0
    3.9125    4.8634   16.4322 S   0  0  2  0  0  3  0  0  0  0  0  0
    2.3533    6.0445   18.3393 C   0  0  0  0  0  0  0  0  0  0  0  0
    2.2819    5.0428   18.7353 H   0  0  0  0  0  0  0  0  0  0  0  0
    2.9161    5.8932   13.2949 Cl  0  0  0  0  0  0  0  0  0  0  0  0
    5.4759    7.5928   13.4755 N   0  0  0  0  0  0  0  0  0  0  0  0
    6.1352    4.6802   13.3239 S   0  0  2  0  0  3  0  0  0  0  0  0
    1.7174    7.0964   18.9744 C   0  0  0  0  0  0  0  0  0  0  0  0
    1.1361    6.9184   19.8655 H   0  0  0  0  0  0  0  0  0  0  0  0
    1.8411    8.3782   18.4608 C   0  0  0  0  0  0  0  0  0  0  0  0
    1.3467    9.2050   18.9478 H   0  0  0  0  0  0  0  0  0  0  0  0
    2.5983    8.6123   17.3319 C   0  0  0  0  0  0  0  0  0  0  0  0
    2.6762    9.6179   16.9505 H   0  0  0  0  0  0  0  0  0  0  0  0
    3.2544    7.5630   16.6725 C   0  0  0  0  0  0  0  0  0  0  0  0
    4.3621    8.8881   15.0104 C   0  0  0  0  0  0  0  0  0  0  0  0
    4.0512    9.8355   15.4303 H   0  0  0  0  0  0  0  0  0  0  0  0
    5.1557    8.8182   13.8708 C   0  0  0  0  0  0  0  0  0  0  0  0
    5.4915    9.7077   13.3545 H   0  0  0  0  0  0  0  0  0  0  0  0
    6.2316    7.2949   12.3640 C   0  0  0  0  0  0  0  0  0  0  0  0
    6.6440    8.2410   11.4148 C   0  0  0  0  0  0  0  0  0  0  0  0
    6.3655    9.2761   11.5331 H   0  0  0  0  0  0  0  0  0  0  0  0
    7.3918    7.8664   10.3181 C   0  0  0  0  0  0  0  0  0  0  0  0
    7.6937    8.6154    9.6018 H   0  0  0  0  0  0  0  0  0  0  0  0
    7.7597    6.5425   10.1339 C   0  0  0  0  0  0  0  0  0  0  0  0
    8.3556    6.2542    9.2822 H   0  0  0  0  0  0  0  0  0  0  0  0
    7.3639    5.5909   11.0569 C   0  0  0  0  0  0  0  0  0  0  0  0
    7.6577    4.5591   10.9373 H   0  0  0  0  0  0  0  0  0  0  0  0
    6.5932    5.9531   12.1469 C   0  0  0  0  0  0  0  0  0  0  0  0
    2.4481    3.9209   15.8836 C   0  0  0  0  0  0  0  0  0  0  0  0
    1.7902    3.7629   16.7317 H   0  0  0  0  0  0  0  0  0  0  0  0
    2.8237    2.9707   15.5158 H   0  0  0  0  0  0  0  0  0  0  0  0
    1.9462    4.4598   15.0844 H   0  0  0  0  0  0  0  0  0  0  0  0
    5.0819    3.6355   12.2605 C   0  0  0  0  0  0  0  0  0  0  0  0
    4.1805    4.1808   11.9944 H   0  0  0  0  0  0  0  0  0  0  0  0
    4.8309    2.7625   12.8560 H   0  0  0  0  0  0  0  0  0  0  0  0
    5.6437    3.3412   11.3804 H   0  0  0  0  0  0  0  0  0  0  0  0
  1  6  1  0  0  0  0
  3 17  1  0  0  0  0
  4  3  1  0  0  0  0
  4  2  1  0  0  0  0
  4  5  1  0  0  0  0
  5 32  1  6  0  0  0
  5  1  1  0  0  0  0
  6  7  1  0  0  0  0
  6 11  2  0  0  0  0
  8  4  1  0  0  0  0
  9 20  1  0  0  0  0
  9  4  1  0  0  0  0
 10 36  1  6  0  0  0
 10  4  1  0  0  0  0
 11 12  1  0  0  0  0
 13 14  1  0  0  0  0
 13 11  1  0  0  0  0
 15 13  2  0  0  0  0
 16 15  1  0  0  0  0
 17  1  2  0  0  0  0
 17 15  1  0  0  0  0
 18 19  1  0  0  0  0
 18  3  1  0  0  0  0
 20 18  2  0  0  0  0
 21 20  1  0  0  0  0
 22  9  1  0  0  0  0
 23 24  1  0  0  0  0
 23 22  2  0  0  0  0
 25 23  1  0  0  0  0
 26 25  1  0  0  0  0
 27 25  2  0  0  0  0
 27 29  1  0  0  0  0
 28 27  1  0  0  0  0
 29 31  2  0  0  0  0
 30 29  1  0  0  0  0
 31 22  1  0  0  0  0
 31 10  1  0  0  0  0
 32 33  1  0  0  0  0
 34 32  1  0  0  0  0
 35 32  1  0  0  0  0
 36 38  1  0  0  0  0
 37 36  1  0  0  0  0
 39 36  1  0  0  0  0
M  END
$$$$
