CSD_code = OCOCOZ | q = 0 | S = 0 | Stoichiometry = C32H24Cl5O3P2Re | MND = 6
 OpenBabel04212202073D

 67 73  0  0  0  0  0  0  0  0999 V2000
    7.2066    3.0572   15.6546 Re  0  0  0  0  0  0  0  0  0  0  0  0
    7.9877    3.7632   13.6020 Cl  0  0  0  0  0  0  0  0  0  0  0  0
    3.6583    6.6246   15.1871 Cl  0  0  0  0  0  0  0  0  0  0  0  0
    4.6593    9.3735   16.2839 Cl  0  0  0  0  0  0  0  0  0  0  0  0
    7.5214    9.6342   17.4537 Cl  0  0  0  0  0  0  0  0  0  0  0  0
    9.4081    7.1420   17.5421 Cl  0  0  0  0  0  0  0  0  0  0  0  0
    9.2539    1.7503   15.5553 P   0  0  0  0  0  4  0  0  0  0  0  0
    6.4187    1.3236   14.1337 P   0  0  0  0  0  4  0  0  0  0  0  0
    6.6304    2.1835   16.9752 O   0  0  0  0  0  1  0  0  0  0  0  0
    8.1081    4.6938   16.4505 O   0  0  0  0  0  0  0  0  0  0  0  0
    5.7102    4.4784   15.4550 O   0  0  0  0  0  0  0  0  0  0  0  0
    8.9179    0.2332   14.5447 C   0  0  0  0  0  0  0  0  0  0  0  0
    9.8572   -0.1843   14.1709 H   0  0  0  0  0  0  0  0  0  0  0  0
    8.4745   -0.4825   15.2472 H   0  0  0  0  0  0  0  0  0  0  0  0
    7.9276    0.5249   13.4177 C   0  0  0  0  0  0  0  0  0  0  0  0
    7.6615   -0.3923   12.8872 H   0  0  0  0  0  0  0  0  0  0  0  0
    8.3426    1.2388   12.7008 H   0  0  0  0  0  0  0  0  0  0  0  0
    7.3658    5.7661   16.4643 C   0  0  0  0  0  0  0  0  0  0  0  0
    6.0533    5.6466   15.9238 C   0  0  0  0  0  0  0  0  0  0  0  0
    5.2342    6.7743   15.8579 C   0  0  0  0  0  0  0  0  0  0  0  0
    5.6866    7.9969   16.3436 C   0  0  0  0  0  0  0  0  0  0  0  0
    6.9711    8.1139   16.8695 C   0  0  0  0  0  0  0  0  0  0  0  0
    7.8128    7.0076   16.9162 C   0  0  0  0  0  0  0  0  0  0  0  0
   10.6417    2.6555   14.8428 C   0  0  0  0  0  0  0  0  0  0  0  0
   11.2381    2.3583   13.6243 C   0  0  0  0  0  0  0  0  0  0  0  0
   10.9026    1.5165   13.0364 H   0  0  0  0  0  0  0  0  0  0  0  0
   12.2638    3.1610   13.1550 C   0  0  0  0  0  0  0  0  0  0  0  0
   12.7289    2.9342   12.2068 H   0  0  0  0  0  0  0  0  0  0  0  0
   12.6836    4.2590   13.8872 C   0  0  0  0  0  0  0  0  0  0  0  0
   13.4763    4.8864   13.5079 H   0  0  0  0  0  0  0  0  0  0  0  0
   12.0794    4.5634   15.0979 C   0  0  0  0  0  0  0  0  0  0  0  0
   12.3948    5.4292   15.6603 H   0  0  0  0  0  0  0  0  0  0  0  0
   11.0606    3.7642   15.5776 C   0  0  0  0  0  0  0  0  0  0  0  0
   10.5587    3.9999   16.5068 H   0  0  0  0  0  0  0  0  0  0  0  0
    9.9271    1.0680   17.0934 C   0  0  0  0  0  0  0  0  0  0  0  0
    9.1106    0.9685   18.2136 C   0  0  0  0  0  0  0  0  0  0  0  0
    8.0898    1.3268   18.1502 H   0  0  0  0  0  0  0  0  0  0  0  0
    9.6153    0.4326   19.3853 C   0  0  0  0  0  0  0  0  0  0  0  0
    8.9848    0.3584   20.2582 H   0  0  0  0  0  0  0  0  0  0  0  0
   10.9303   -0.0009   19.4395 C   0  0  0  0  0  0  0  0  0  0  0  0
   11.3248   -0.4148   20.3554 H   0  0  0  0  0  0  0  0  0  0  0  0
   11.7461    0.1026   18.3233 C   0  0  0  0  0  0  0  0  0  0  0  0
   12.7723   -0.2307   18.3706 H   0  0  0  0  0  0  0  0  0  0  0  0
   11.2503    0.6377   17.1489 C   0  0  0  0  0  0  0  0  0  0  0  0
   11.8852    0.7317   16.2784 H   0  0  0  0  0  0  0  0  0  0  0  0
    5.3874    1.8233   12.7352 C   0  0  0  0  0  0  0  0  0  0  0  0
    4.6699    3.0111   12.8280 C   0  0  0  0  0  0  0  0  0  0  0  0
    4.7742    3.6311   13.7072 H   0  0  0  0  0  0  0  0  0  0  0  0
    3.8429    3.3967   11.7880 C   0  0  0  0  0  0  0  0  0  0  0  0
    3.2920    4.3226   11.8571 H   0  0  0  0  0  0  0  0  0  0  0  0
    3.7257    2.5986   10.6621 C   0  0  0  0  0  0  0  0  0  0  0  0
    3.0830    2.9016    9.8490 H   0  0  0  0  0  0  0  0  0  0  0  0
    4.4313    1.4084   10.5757 C   0  0  0  0  0  0  0  0  0  0  0  0
    4.3350    0.7856    9.6984 H   0  0  0  0  0  0  0  0  0  0  0  0
    5.2594    1.0141   11.6103 C   0  0  0  0  0  0  0  0  0  0  0  0
    5.8015    0.0821   11.5425 H   0  0  0  0  0  0  0  0  0  0  0  0
    5.4404    0.0019   14.9082 C   0  0  0  0  0  0  0  0  0  0  0  0
    5.5539   -1.3529   14.6224 C   0  0  0  0  0  0  0  0  0  0  0  0
    6.2900   -1.7132   13.9189 H   0  0  0  0  0  0  0  0  0  0  0  0
    4.7159   -2.2593   15.2497 C   0  0  0  0  0  0  0  0  0  0  0  0
    4.8087   -3.3130   15.0311 H   0  0  0  0  0  0  0  0  0  0  0  0
    3.7632   -1.8206   16.1536 C   0  0  0  0  0  0  0  0  0  0  0  0
    3.1144   -2.5339   16.6394 H   0  0  0  0  0  0  0  0  0  0  0  0
    3.6458   -0.4686   16.4384 C   0  0  0  0  0  0  0  0  0  0  0  0
    2.9064   -0.1275   17.1467 H   0  0  0  0  0  0  0  0  0  0  0  0
    4.4814    0.4407   15.8191 C   0  0  0  0  0  0  0  0  0  0  0  0
    4.4252    1.4980   16.0450 H   0  0  0  0  0  0  0  0  0  0  0  0
  1 10  1  0  0  0  0
  1  9  1  0  0  0  0
  2  1  1  0  0  0  0
  3 20  1  0  0  0  0
  4 21  1  0  0  0  0
  7  1  1  0  0  0  0
  7 35  1  0  0  0  0
  8 57  1  0  0  0  0
  8  1  1  0  0  0  0
 10 18  1  0  0  0  0
 11  1  1  0  0  0  0
 11 19  1  0  0  0  0
 12 14  1  0  0  0  0
 12  7  1  0  0  0  0
 13 12  1  0  0  0  0
 15  8  1  0  0  0  0
 15 12  1  0  0  0  0
 16 15  1  0  0  0  0
 17 15  1  0  0  0  0
 18 23  1  0  0  0  0
 19 18  2  0  0  0  0
 20 19  1  0  0  0  0
 20 21  2  0  0  0  0
 21 22  1  0  0  0  0
 22 23  2  0  0  0  0
 22  5  1  0  0  0  0
 23  6  1  0  0  0  0
 24  7  1  0  0  0  0
 24 33  1  0  0  0  0
 25 24  2  0  0  0  0
 26 25  1  0  0  0  0
 27 25  1  0  0  0  0
 27 29  2  0  0  0  0
 28 27  1  0  0  0  0
 29 31  1  0  0  0  0
 30 29  1  0  0  0  0
 31 33  2  0  0  0  0
 31 32  1  0  0  0  0
 33 34  1  0  0  0  0
 35 44  2  0  0  0  0
 35 36  1  0  0  0  0
 36 38  2  0  0  0  0
 37 36  1  0  0  0  0
 38 40  1  0  0  0  0
 38 39  1  0  0  0  0
 40 41  1  0  0  0  0
 42 43  1  0  0  0  0
 42 40  2  0  0  0  0
 44 42  1  0  0  0  0
 45 44  1  0  0  0  0
 46 47  1  0  0  0  0
 46  8  1  0  0  0  0
 47 48  1  0  0  0  0
 49 50  1  0  0  0  0
 49 47  2  0  0  0  0
 51 49  1  0  0  0  0
 52 51  1  0  0  0  0
 53 51  2  0  0  0  0
 53 55  1  0  0  0  0
 54 53  1  0  0  0  0
 55 46  2  0  0  0  0
 56 55  1  0  0  0  0
 57 66  1  0  0  0  0
 58 57  2  0  0  0  0
 58 60  1  0  0  0  0
 59 58  1  0  0  0  0
 60 62  2  0  0  0  0
 61 60  1  0  0  0  0
 62 64  1  0  0  0  0
 62 63  1  0  0  0  0
 64 65  1  0  0  0  0
 66 67  1  0  0  0  0
 66 64  2  0  0  0  0
M  END
$$$$
