CSD_code = OCOJOI | q = 0 | S = 0 | Stoichiometry = C17H11Cl2N3Pt | MND = 4
 OpenBabel04212202073D

 34 38  0  0  0  0  0  0  0  0999 V2000
    4.3220    6.3938   10.0470 Pt  0  0  0  0  0  0  0  0  0  0  0  0
    3.2963    7.7028   11.5435 Cl  0  0  0  0  0  0  0  0  0  0  0  0
    4.1302    8.0709    8.5761 Cl  0  0  0  0  0  0  0  0  0  0  0  0
    5.1906    5.0900    8.8335 N   0  0  0  0  0  0  0  0  0  0  0  0
    4.2168    4.7654   11.2094 N   0  0  0  0  0  0  0  0  0  0  0  0
    5.6052    2.9835    7.0369 N   0  0  0  0  0  0  0  0  0  0  0  0
    7.6574    8.0396    5.8744 C   0  0  0  0  0  0  0  0  0  0  0  0
    7.5915    8.8223    6.6146 H   0  0  0  0  0  0  0  0  0  0  0  0
    8.2437    8.2631    4.6643 C   0  0  0  0  0  0  0  0  0  0  0  0
    8.6623    9.2305    4.4307 H   0  0  0  0  0  0  0  0  0  0  0  0
    5.8862    5.3119    7.6830 C   0  0  0  0  0  0  0  0  0  0  0  0
    3.5583    3.4990   13.1079 C   0  0  0  0  0  0  0  0  0  0  0  0
    3.2468    3.4894   14.1394 H   0  0  0  0  0  0  0  0  0  0  0  0
    6.6535    4.4720    5.5194 C   0  0  0  0  0  0  0  0  0  0  0  0
    6.7566    3.6502    4.8279 H   0  0  0  0  0  0  0  0  0  0  0  0
    5.1213    2.7794    8.2206 C   0  0  0  0  0  0  0  0  0  0  0  0
    4.8375    1.7632    8.4531 H   0  0  0  0  0  0  0  0  0  0  0  0
    7.1639    5.7337    5.2062 C   0  0  0  0  0  0  0  0  0  0  0  0
    3.6801    2.3182   12.3829 C   0  0  0  0  0  0  0  0  0  0  0  0
    3.4605    1.3663   12.8406 H   0  0  0  0  0  0  0  0  0  0  0  0
    4.8918    3.8208    9.1568 C   0  0  0  0  0  0  0  0  0  0  0  0
    6.0389    4.2332    6.7375 C   0  0  0  0  0  0  0  0  0  0  0  0
    4.3614    3.6248   10.4915 C   0  0  0  0  0  0  0  0  0  0  0  0
    6.4717    6.5397    7.4096 C   0  0  0  0  0  0  0  0  0  0  0  0
    6.4582    7.3133    8.1630 H   0  0  0  0  0  0  0  0  0  0  0  0
    8.3087    7.2360    3.7007 C   0  0  0  0  0  0  0  0  0  0  0  0
    8.7779    7.4367    2.7489 H   0  0  0  0  0  0  0  0  0  0  0  0
    3.8340    4.6990   12.4822 C   0  0  0  0  0  0  0  0  0  0  0  0
    3.7331    5.6466   12.9947 H   0  0  0  0  0  0  0  0  0  0  0  0
    7.0930    6.7778    6.1816 C   0  0  0  0  0  0  0  0  0  0  0  0
    7.7865    6.0044    3.9641 C   0  0  0  0  0  0  0  0  0  0  0  0
    7.8332    5.2144    3.2290 H   0  0  0  0  0  0  0  0  0  0  0  0
    4.0878    2.3816   11.0656 C   0  0  0  0  0  0  0  0  0  0  0  0
    4.1932    1.4820   10.4821 H   0  0  0  0  0  0  0  0  0  0  0  0
  1  5  1  0  0  0  0
  1  2  1  0  0  0  0
  3  1  1  0  0  0  0
  4 21  1  0  0  0  0
  4  1  1  0  0  0  0
  5 28  1  0  0  0  0
  6 16  2  0  0  0  0
  7 30  1  0  0  0  0
  7  8  1  0  0  0  0
  9  7  2  0  0  0  0
 10  9  1  0  0  0  0
 11  4  1  0  0  0  0
 12 13  1  0  0  0  0
 14 22  1  0  0  0  0
 15 14  1  0  0  0  0
 16 17  1  0  0  0  0
 16 21  1  0  0  0  0
 18 14  2  0  0  0  0
 18 30  1  0  0  0  0
 19 20  1  0  0  0  0
 19 12  1  0  0  0  0
 21 23  2  0  0  0  0
 22  6  1  0  0  0  0
 22 11  2  0  0  0  0
 23 33  1  0  0  0  0
 23  5  1  0  0  0  0
 24 11  1  0  0  0  0
 24 25  1  0  0  0  0
 26 31  2  0  0  0  0
 26  9  1  0  0  0  0
 27 26  1  0  0  0  0
 28 29  1  0  0  0  0
 28 12  2  0  0  0  0
 30 24  2  0  0  0  0
 31 18  1  0  0  0  0
 32 31  1  0  0  0  0
 33 19  2  0  0  0  0
 34 33  1  0  0  0  0
M  END
$$$$
