CSD_code = OCOWUZ | q = 0 | S = 0 | Stoichiometry = C23H34Cl2O2Ti | MND = 8
 OpenBabel04212202073D

 62 63  0  0  1  0  0  0  0  0999 V2000
    6.3833    5.0853    0.8636 Ti  0  0  0  0  0  0  0  0  0  0  0  0
    7.2568    6.2709   -0.7793 Cl  0  0  0  0  0  0  0  0  0  0  0  0
    7.2431    3.2502    0.0053 Cl  0  0  0  0  0  0  0  0  0  0  0  0
    4.7602    4.9932    0.4748 O   0  0  0  0  0  0  0  0  0  0  0  0
   10.3383    4.4419    3.9009 O   0  0  0  0  0  0  0  0  0  0  0  0
    8.1695    5.4734    2.2492 C   0  0  1  0  0  0  0  0  0  0  0  0
    7.3898    6.6521    2.2624 C   0  0  0  0  0  3  0  0  0  0  0  0
    7.7272    7.6363    1.9596 H   0  0  0  0  0  0  0  0  0  0  0  0
    6.1373    6.3483    2.8470 C   0  0  0  0  0  0  0  0  0  0  0  0
    5.3628    7.0599    3.1034 H   0  0  0  0  0  0  0  0  0  0  0  0
    6.1462    4.9850    3.2071 C   0  0  0  0  0  0  0  0  0  0  0  0
    5.3813    4.4863    3.7884 H   0  0  0  0  0  0  0  0  0  0  0  0
    7.4029    4.4456    2.8422 C   0  0  0  0  0  3  0  0  0  0  0  0
    7.7698    3.4550    3.0776 H   0  0  0  0  0  0  0  0  0  0  0  0
    9.6053    5.3601    1.8218 C   0  0  0  0  0  0  0  0  0  0  0  0
    9.8445    6.1269    1.0801 H   0  0  0  0  0  0  0  0  0  0  0  0
    9.7924    4.3731    1.3891 H   0  0  0  0  0  0  0  0  0  0  0  0
   10.5298    5.5333    3.0312 C   0  0  0  0  0  0  0  0  0  0  0  0
   11.5813    5.5749    2.7035 H   0  0  0  0  0  0  0  0  0  0  0  0
   10.2951    6.4758    3.5525 H   0  0  0  0  0  0  0  0  0  0  0  0
   11.0927    4.5365    5.0778 C   0  0  0  0  0  0  0  0  0  0  0  0
   12.1689    4.5636    4.8621 H   0  0  0  0  0  0  0  0  0  0  0  0
   10.8643    3.6517    5.6684 H   0  0  0  0  0  0  0  0  0  0  0  0
   10.8285    5.4355    5.6499 H   0  0  0  0  0  0  0  0  0  0  0  0
    3.4305    5.0304    0.6071 C   0  0  0  0  0  0  0  0  0  0  0  0
    2.7190    3.8667    0.9944 C   0  0  0  0  0  0  0  0  0  0  0  0
    3.3407    2.4774    0.8696 C   0  0  0  0  0  0  0  0  0  0  0  0
    3.9132    2.3297   -0.5496 C   0  0  0  0  0  0  0  0  0  0  0  0
    4.6665    3.0887   -0.7660 H   0  0  0  0  0  0  0  0  0  0  0  0
    3.1129    2.4187   -1.2825 H   0  0  0  0  0  0  0  0  0  0  0  0
    4.3801    1.3536   -0.6616 H   0  0  0  0  0  0  0  0  0  0  0  0
    4.4415    2.2661    1.9157 C   0  0  0  0  0  0  0  0  0  0  0  0
    4.8123    1.2445    1.8570 H   0  0  0  0  0  0  0  0  0  0  0  0
    4.0439    2.4325    2.9162 H   0  0  0  0  0  0  0  0  0  0  0  0
    5.2797    2.9431    1.7376 H   0  0  0  0  0  0  0  0  0  0  0  0
    2.3064    1.3587    1.0561 C   0  0  0  0  0  0  0  0  0  0  0  0
    2.7801    0.4027    0.8436 H   0  0  0  0  0  0  0  0  0  0  0  0
    1.4689    1.4775    0.3731 H   0  0  0  0  0  0  0  0  0  0  0  0
    1.9353    1.3238    2.0776 H   0  0  0  0  0  0  0  0  0  0  0  0
    1.4050    4.0160    1.4090 C   0  0  0  0  0  0  0  0  0  0  0  0
    0.8531    3.1624    1.7645 H   0  0  0  0  0  0  0  0  0  0  0  0
    0.7576    5.2406    1.3857 C   0  0  0  0  0  0  0  0  0  0  0  0
   -0.6497    5.3746    1.8835 C   0  0  0  0  0  0  0  0  0  0  0  0
   -1.3543    5.1613    1.0790 H   0  0  0  0  0  0  0  0  0  0  0  0
   -0.8403    6.3850    2.2374 H   0  0  0  0  0  0  0  0  0  0  0  0
   -0.8424    4.6743    2.6927 H   0  0  0  0  0  0  0  0  0  0  0  0
    1.4095    6.3153    0.8033 C   0  0  0  0  0  0  0  0  0  0  0  0
    0.8611    7.2355    0.6926 H   0  0  0  0  0  0  0  0  0  0  0  0
    2.7232    6.2358    0.3689 C   0  0  0  0  0  0  0  0  0  0  0  0
    3.3478    7.3797   -0.4268 C   0  0  0  0  0  0  0  0  0  0  0  0
    3.9207    6.8034   -1.7319 C   0  0  0  0  0  0  0  0  0  0  0  0
    4.6794    6.0424   -1.5424 H   0  0  0  0  0  0  0  0  0  0  0  0
    4.3813    7.5964   -2.3168 H   0  0  0  0  0  0  0  0  0  0  0  0
    3.1219    6.3556   -2.3208 H   0  0  0  0  0  0  0  0  0  0  0  0
    2.3148    8.4450   -0.8197 C   0  0  0  0  0  0  0  0  0  0  0  0
    1.4772    8.0044   -1.3548 H   0  0  0  0  0  0  0  0  0  0  0  0
    2.7901    9.1693   -1.4775 H   0  0  0  0  0  0  0  0  0  0  0  0
    1.9438    8.9820    0.0500 H   0  0  0  0  0  0  0  0  0  0  0  0
    4.4492    8.0796    0.3779 C   0  0  0  0  0  0  0  0  0  0  0  0
    4.0535    8.4258    1.3321 H   0  0  0  0  0  0  0  0  0  0  0  0
    4.8172    8.9410   -0.1763 H   0  0  0  0  0  0  0  0  0  0  0  0
    5.2882    7.4032    0.5528 H   0  0  0  0  0  0  0  0  0  0  0  0
  1  6  1  0  0  0  0
  2  1  1  0  0  0  0
  3  1  1  0  0  0  0
  4 25  1  0  0  0  0
  4  1  1  0  0  0  0
  5 21  1  0  0  0  0
  6 15  1  6  0  0  0
  6  7  1  0  0  0  0
  6 13  1  0  0  0  0
  7  9  1  0  0  0  0
  8  7  1  0  0  0  0
  9 10  1  0  0  0  0
  9 11  2  0  0  0  0
 11 12  1  0  0  0  0
 13 14  1  0  0  0  0
 13 11  1  0  0  0  0
 15 18  1  0  0  0  0
 16 15  1  0  0  0  0
 17 15  1  0  0  0  0
 18 20  1  0  0  0  0
 18  5  1  0  0  0  0
 19 18  1  0  0  0  0
 21 24  1  0  0  0  0
 21 23  1  0  0  0  0
 22 21  1  0  0  0  0
 25 26  1  0  0  0  0
 26 40  2  0  0  0  0
 27 26  1  0  0  0  0
 27 36  1  0  0  0  0
 27 32  1  0  0  0  0
 28 27  1  0  0  0  0
 29 28  1  0  0  0  0
 30 28  1  0  0  0  0
 31 28  1  0  0  0  0
 32 34  1  0  0  0  0
 33 32  1  0  0  0  0
 35 32  1  0  0  0  0
 36 39  1  0  0  0  0
 37 36  1  0  0  0  0
 38 36  1  0  0  0  0
 40 41  1  0  0  0  0
 42 40  1  0  0  0  0
 42 43  1  0  0  0  0
 43 45  1  0  0  0  0
 43 46  1  0  0  0  0
 44 43  1  0  0  0  0
 47 42  2  0  0  0  0
 48 47  1  0  0  0  0
 49 25  2  0  0  0  0
 49 47  1  0  0  0  0
 50 49  1  0  0  0  0
 50 59  1  0  0  0  0
 51 52  1  0  0  0  0
 51 50  1  0  0  0  0
 53 51  1  0  0  0  0
 54 51  1  0  0  0  0
 55 50  1  0  0  0  0
 55 58  1  0  0  0  0
 56 55  1  0  0  0  0
 57 55  1  0  0  0  0
 59 62  1  0  0  0  0
 59 60  1  0  0  0  0
 61 59  1  0  0  0  0
M  END
$$$$
