CSD_code = OCOYIR | q = 0 | S = 0 | Stoichiometry = C4H8I2N4PtS2 | MND = 6
 OpenBabel04212202073D

 21 21  0  0  0  0  0  0  0  0999 V2000
   -1.4557    3.6075   10.0457 Pt  0  0  0  0  0  0  0  0  0  0  0  0
   -2.2450    5.4066   11.8420 I   0  0  0  0  0  0  0  0  0  0  0  0
   -0.5573    1.8344    8.2764 I   0  0  0  0  0  0  0  0  0  0  0  0
   -3.1729    2.0810   10.7649 S   0  0  0  0  0  0  0  0  0  0  0  0
   -3.1744    4.3125    8.5142 S   0  0  0  0  0  0  0  0  0  0  0  0
    0.2571    5.0123    9.4571 N   0  0  0  0  0  4  0  0  0  0  0  0
    0.6377    4.6586    8.5755 H   0  0  0  0  0  0  0  0  0  0  0  0
   -0.0736    5.9626    9.2762 H   0  0  0  0  0  0  0  0  0  0  0  0
    0.2649    3.0182   11.4403 N   0  0  0  0  0  4  0  0  0  0  0  0
    0.0435    3.4081   12.3601 H   0  0  0  0  0  0  0  0  0  0  0  0
    0.3319    2.0048   11.5576 H   0  0  0  0  0  0  0  0  0  0  0  0
   -1.4542    0.8851   12.6305 N   0  0  0  0  0  0  0  0  0  0  0  0
   -1.5509    6.3594    7.4951 N   0  0  0  0  0  0  0  0  0  0  0  0
    1.2950    5.0105   10.4936 C   0  0  0  0  0  0  0  0  0  0  0  0
    2.2294    5.4449   10.1233 H   0  0  0  0  0  0  0  0  0  0  0  0
    0.9436    5.6098   11.3387 H   0  0  0  0  0  0  0  0  0  0  0  0
    1.5316    3.5698   10.9475 C   0  0  0  0  0  0  0  0  0  0  0  0
    1.8667    2.9667   10.0985 H   0  0  0  0  0  0  0  0  0  0  0  0
    2.3062    3.5429   11.7210 H   0  0  0  0  0  0  0  0  0  0  0  0
   -2.1701    1.3712   11.8671 C   0  0  0  0  0  0  0  0  0  0  0  0
   -2.2273    5.5201    7.9066 C   0  0  0  0  0  0  0  0  0  0  0  0
  1  4  1  0  0  0  0
  1  9  1  0  0  0  0
  1  2  1  0  0  0  0
  3  1  1  0  0  0  0
  4 20  1  0  0  0  0
  5  1  1  0  0  0  0
  6  1  1  0  0  0  0
  6 14  1  0  0  0  0
  7  6  1  0  0  0  0
  8  6  1  0  0  0  0
  9 11  1  0  0  0  0
  9 10  1  0  0  0  0
 13 21  3  0  0  0  0
 14 17  1  0  0  0  0
 14 16  1  0  0  0  0
 15 14  1  0  0  0  0
 17  9  1  0  0  0  0
 17 19  1  0  0  0  0
 18 17  1  0  0  0  0
 20 12  3  0  0  0  0
 21  5  1  0  0  0  0
M  END
$$$$
