CSD_code = OCOZAI | q = 0 | S = 0 | Stoichiometry = C27H36AuClN3P | MND = 2
 OpenBabel04212202073D

 69 71  0  0  0  0  0  0  0  0999 V2000
    0.0066    7.6117    2.4180 Au  0  0  0  0  0  0  0  0  0  0  0  0
    0.0096    7.6099    0.1544 Cl  0  0  0  0  0  0  0  0  0  0  0  0
    0.0042    7.6131    4.6602 P   0  0  0  0  0  4  0  0  0  0  0  0
    6.6143    7.8148    5.9622 N   0  0  0  0  0  0  0  0  0  0  0  0
    1.6484    7.7098    5.4137 C   0  0  0  0  0  0  0  0  0  0  0  0
    1.9338    8.4894    6.5284 C   0  0  0  0  0  0  0  0  0  0  0  0
    1.1561    9.0845    6.9869 H   0  0  0  0  0  0  0  0  0  0  0  0
    3.2181    8.5054    7.0422 C   0  0  0  0  0  0  0  0  0  0  0  0
    3.4378    9.1170    7.9062 H   0  0  0  0  0  0  0  0  0  0  0  0
    4.2263    7.7478    6.4609 C   0  0  0  0  0  0  0  0  0  0  0  0
    3.9341    6.9726    5.3417 C   0  0  0  0  0  0  0  0  0  0  0  0
    4.7271    6.4014    4.8847 H   0  0  0  0  0  0  0  0  0  0  0  0
    2.6595    6.9590    4.8159 C   0  0  0  0  0  0  0  0  0  0  0  0
    2.4293    6.3713    3.9359 H   0  0  0  0  0  0  0  0  0  0  0  0
    5.6217    7.7441    7.0209 C   0  0  0  0  0  0  0  0  0  0  0  0
    5.7355    8.5667    7.7514 H   0  0  0  0  0  0  0  0  0  0  0  0
    5.7747    6.8007    7.5573 H   0  0  0  0  0  0  0  0  0  0  0  0
    7.9414    7.5089    6.4504 C   0  0  0  0  0  0  0  0  0  0  0  0
    8.6387    7.5343    5.6146 H   0  0  0  0  0  0  0  0  0  0  0  0
    7.9474    6.5060    6.8758 H   0  0  0  0  0  0  0  0  0  0  0  0
    8.2898    8.2190    7.2175 H   0  0  0  0  0  0  0  0  0  0  0  0
    6.5828    9.1017    5.2982 C   0  0  0  0  0  0  0  0  0  0  0  0
    6.8573    9.9300    5.9712 H   0  0  0  0  0  0  0  0  0  0  0  0
    5.5808    9.2837    4.9131 H   0  0  0  0  0  0  0  0  0  0  0  0
    7.2797    9.0875    4.4621 H   0  0  0  0  0  0  0  0  0  0  0  0
   -3.4905   13.2293    5.9577 N   0  0  0  0  0  0  0  0  0  0  0  0
   -3.1342    1.7908    5.9581 N   0  0  0  0  0  0  0  0  0  0  0  0
   -0.9029    8.9892    5.4114 C   0  0  0  0  0  0  0  0  0  0  0  0
   -0.7354    6.1408    5.4125 C   0  0  0  0  0  0  0  0  0  0  0  0
   -1.7129    8.8486    6.5321 C   0  0  0  0  0  0  0  0  0  0  0  0
   -0.2023    5.5007    6.5250 C   0  0  0  0  0  0  0  0  0  0  0  0
   -1.8325    7.8791    6.9959 H   0  0  0  0  0  0  0  0  0  0  0  0
    0.7036    5.8741    6.9825 H   0  0  0  0  0  0  0  0  0  0  0  0
   -2.3698    9.9526    7.0452 C   0  0  0  0  0  0  0  0  0  0  0  0
   -0.8319    4.3808    7.0380 C   0  0  0  0  0  0  0  0  0  0  0  0
   -3.0031    9.8387    7.9139 H   0  0  0  0  0  0  0  0  0  0  0  0
   -0.4115    3.8825    7.9003 H   0  0  0  0  0  0  0  0  0  0  0  0
   -2.2264   11.2024    6.4571 C   0  0  0  0  0  0  0  0  0  0  0  0
   -1.9942    3.8900    6.4579 C   0  0  0  0  0  0  0  0  0  0  0  0
   -1.4170   11.3349    5.3319 C   0  0  0  0  0  0  0  0  0  0  0  0
   -2.5201    4.5336    5.3407 C   0  0  0  0  0  0  0  0  0  0  0  0
   -1.3256   12.3055    4.8698 H   0  0  0  0  0  0  0  0  0  0  0  0
   -3.4129    4.1351    4.8847 H   0  0  0  0  0  0  0  0  0  0  0  0
   -0.7670   10.2379    4.8069 C   0  0  0  0  0  0  0  0  0  0  0  0
   -1.8932    5.6439    4.8159 C   0  0  0  0  0  0  0  0  0  0  0  0
   -0.1491   10.3308    3.9224 H   0  0  0  0  0  0  0  0  0  0  0  0
   -2.2877    6.1396    3.9374 H   0  0  0  0  0  0  0  0  0  0  0  0
   -2.9216   12.4127    7.0164 C   0  0  0  0  0  0  0  0  0  0  0  0
   -2.6966    2.6840    7.0174 C   0  0  0  0  0  0  0  0  0  0  0  0
   -3.6839   12.1006    7.7542 H   0  0  0  0  0  0  0  0  0  0  0  0
   -2.0413    2.1723    7.7466 H   0  0  0  0  0  0  0  0  0  0  0  0
   -2.1794   13.0226    7.5440 H   0  0  0  0  0  0  0  0  0  0  0  0
   -3.5890    3.0241    7.5549 H   0  0  0  0  0  0  0  0  0  0  0  0
   -3.8897   14.5329    6.4421 C   0  0  0  0  0  0  0  0  0  0  0  0
   -4.0633    0.7951    6.4467 C   0  0  0  0  0  0  0  0  0  0  0  0
   -4.2693   15.1181    5.6061 H   0  0  0  0  0  0  0  0  0  0  0  0
   -4.3916    0.1796    5.6108 H   0  0  0  0  0  0  0  0  0  0  0  0
   -3.0225   15.0448    6.8575 H   0  0  0  0  0  0  0  0  0  0  0  0
   -4.9337    1.2920    6.8735 H   0  0  0  0  0  0  0  0  0  0  0  0
   -4.6723   14.4810    7.2159 H   0  0  0  0  0  0  0  0  0  0  0  0
   -3.6224    0.1373    7.2127 H   0  0  0  0  0  0  0  0  0  0  0  0
   -4.5921   12.5512    5.3063 C   0  0  0  0  0  0  0  0  0  0  0  0
   -2.0057    1.1739    5.2920 C   0  0  0  0  0  0  0  0  0  0  0  0
   -5.4407   12.3755    5.9871 H   0  0  0  0  0  0  0  0  0  0  0  0
   -1.4251    0.5212    5.9638 H   0  0  0  0  0  0  0  0  0  0  0  0
   -4.2485   11.5915    4.9238 H   0  0  0  0  0  0  0  0  0  0  0  0
   -1.3469    1.9502    4.9063 H   0  0  0  0  0  0  0  0  0  0  0  0
   -4.9371   13.1559    4.4695 H   0  0  0  0  0  0  0  0  0  0  0  0
   -2.3683    0.5783    4.4562 H   0  0  0  0  0  0  0  0  0  0  0  0
  1  3  1  0  0  0  0
  2  1  1  0  0  0  0
  3 28  1  0  0  0  0
  3 29  1  0  0  0  0
  3  5  1  0  0  0  0
  4 18  1  0  0  0  0
  4 15  1  0  0  0  0
  5  6  1  0  0  0  0
  6  7  1  0  0  0  0
  6  8  2  0  0  0  0
  8  9  1  0  0  0  0
 10 15  1  0  0  0  0
 10  8  1  0  0  0  0
 11 10  2  0  0  0  0
 12 11  1  0  0  0  0
 13 11  1  0  0  0  0
 13  5  2  0  0  0  0
 14 13  1  0  0  0  0
 15 17  1  0  0  0  0
 15 16  1  0  0  0  0
 18 20  1  0  0  0  0
 18 21  1  0  0  0  0
 19 18  1  0  0  0  0
 22  4  1  0  0  0  0
 22 23  1  0  0  0  0
 24 22  1  0  0  0  0
 25 22  1  0  0  0  0
 26 54  1  0  0  0  0
 26 48  1  0  0  0  0
 27 55  1  0  0  0  0
 27 49  1  0  0  0  0
 28 30  1  0  0  0  0
 29 31  1  0  0  0  0
 30 32  1  0  0  0  0
 30 34  2  0  0  0  0
 31 33  1  0  0  0  0
 31 35  2  0  0  0  0
 34 36  1  0  0  0  0
 35 37  1  0  0  0  0
 38 48  1  0  0  0  0
 38 34  1  0  0  0  0
 39 49  1  0  0  0  0
 39 35  1  0  0  0  0
 40 38  2  0  0  0  0
 41 39  2  0  0  0  0
 42 40  1  0  0  0  0
 43 41  1  0  0  0  0
 44 40  1  0  0  0  0
 44 28  2  0  0  0  0
 45 41  1  0  0  0  0
 45 29  2  0  0  0  0
 46 44  1  0  0  0  0
 47 45  1  0  0  0  0
 48 52  1  0  0  0  0
 48 50  1  0  0  0  0
 49 53  1  0  0  0  0
 49 51  1  0  0  0  0
 54 58  1  0  0  0  0
 54 60  1  0  0  0  0
 55 59  1  0  0  0  0
 55 61  1  0  0  0  0
 56 54  1  0  0  0  0
 57 55  1  0  0  0  0
 62 26  1  0  0  0  0
 62 64  1  0  0  0  0
 63 27  1  0  0  0  0
 63 65  1  0  0  0  0
 66 62  1  0  0  0  0
 67 63  1  0  0  0  0
 68 62  1  0  0  0  0
 69 63  1  0  0  0  0
M  END
$$$$
