CSD_code = OCUJUT | q = 0 | S = 0 | Stoichiometry = C29H21ClN4OTi | MND = 9
 OpenBabel04212202073D

 57 65  0  0  1  0  0  0  0  0999 V2000
   16.9128    7.0131    2.1438 Ti  0  0  0  0  0  0  0  0  0  0  0  0
   18.2892    8.4337    1.8489 N   0  0  0  0  0  0  0  0  0  0  0  0
   17.9456    7.1203    4.2204 Cl  0  0  0  0  0  0  0  0  0  0  0  0
   18.6169    5.9865    1.6066 N   0  0  0  0  0  0  0  0  0  0  0  0
   16.5901    5.0880    2.6263 N   0  0  0  0  0  0  0  0  0  0  0  0
   15.3278    6.6087    3.4661 O   0  0  0  0  0  0  0  0  0  0  0  0
   20.3666    9.0722    1.1719 N   0  0  0  0  0  0  0  0  0  0  0  0
   19.5193    8.0695    1.3613 C   0  0  0  0  0  0  0  0  0  0  0  0
   18.3777    9.7714    2.0231 C   0  0  0  0  0  0  0  0  0  0  0  0
   18.6563    4.6533    1.7690 C   0  0  0  0  0  0  0  0  0  0  0  0
   16.1401    3.7247    5.3490 C   0  0  0  0  0  0  0  0  0  0  0  0
   17.1943    3.7740    5.1184 H   0  0  0  0  0  0  0  0  0  0  0  0
   15.6827    2.9160    6.3701 C   0  0  0  0  0  0  0  0  0  0  0  0
   16.3841    2.3095    6.9247 H   0  0  0  0  0  0  0  0  0  0  0  0
   17.4902    4.0893    2.3689 C   0  0  0  0  0  0  0  0  0  0  0  0
   14.9970    6.4224    0.7343 C   0  0  0  0  0  0  0  0  0  0  0  0
   14.2353    5.7086    1.0170 H   0  0  0  0  0  0  0  0  0  0  0  0
   14.3314    2.8728    6.7004 C   0  0  0  0  0  0  0  0  0  0  0  0
   19.7877    3.8788    1.4409 C   0  0  0  0  0  0  0  0  0  0  0  0
   20.8931    5.9571    0.8947 C   0  0  0  0  0  0  0  0  0  0  0  0
   21.7511    6.5334    0.5879 H   0  0  0  0  0  0  0  0  0  0  0  0
   13.4467    3.6815    5.9963 C   0  0  0  0  0  0  0  0  0  0  0  0
   12.3966    3.6693    6.2502 H   0  0  0  0  0  0  0  0  0  0  0  0
   15.2428    4.5183    4.6385 C   0  0  0  0  0  0  0  0  0  0  0  0
   19.6956    2.4882    1.6464 C   0  0  0  0  0  3  0  0  0  0  0  0
   20.5373    1.8605    1.3971 H   0  0  0  0  0  0  0  0  0  0  0  0
   15.7177    5.4094    3.5622 C   0  0  2  0  0  3  0  0  0  0  0  0
   18.5488    1.9426    2.1726 C   0  0  0  0  0  0  0  0  0  0  0  0
   18.4933    0.8743    2.3214 H   0  0  0  0  0  0  0  0  0  0  0  0
   20.9187    4.5918    0.9641 C   0  0  0  0  0  0  0  0  0  0  0  0
   21.8075    4.0419    0.6900 H   0  0  0  0  0  0  0  0  0  0  0  0
   19.7101    6.6524    1.2434 C   0  0  0  0  0  0  0  0  0  0  0  0
   19.6811   10.1708    1.5821 C   0  0  0  0  0  0  0  0  0  0  0  0
   16.0591    8.3948    0.3325 C   0  0  0  0  0  0  0  0  0  0  0  0
   16.2412    9.4550    0.2188 H   0  0  0  0  0  0  0  0  0  0  0  0
   14.9589    7.8102    0.9842 C   0  0  2  0  0  0  0  0  0  0  0  0
   14.1502    8.3418    1.4706 H   0  0  0  0  0  0  0  0  0  0  0  0
   13.8946    4.5070    4.9831 C   0  0  0  0  0  0  0  0  0  0  0  0
   13.2072    5.1429    4.4452 H   0  0  0  0  0  0  0  0  0  0  0  0
   20.0473   11.5170    1.6362 C   0  0  0  0  0  0  0  0  0  0  0  0
   21.0243   11.8311    1.3047 H   0  0  0  0  0  0  0  0  0  0  0  0
   16.7959    7.3645   -0.2890 C   0  0  0  0  0  0  0  0  0  0  0  0
   17.6487    7.5029   -0.9408 H   0  0  0  0  0  0  0  0  0  0  0  0
   17.8578   12.0070    2.5791 C   0  0  0  0  0  0  0  0  0  0  0  0
   17.1850   12.7558    2.9718 H   0  0  0  0  0  0  0  0  0  0  0  0
   16.1378    6.1444   -0.0362 C   0  0  0  0  0  0  0  0  0  0  0  0
   16.4025    5.1816   -0.4564 H   0  0  0  0  0  0  0  0  0  0  0  0
   17.4449    2.7205    2.5519 C   0  0  0  0  0  0  0  0  0  0  0  0
   16.5771    2.2505    2.9893 H   0  0  0  0  0  0  0  0  0  0  0  0
   17.4617   10.6911    2.5341 C   0  0  0  0  0  0  0  0  0  0  0  0
   16.4914   10.3578    2.8951 H   0  0  0  0  0  0  0  0  0  0  0  0
   19.1268   12.4104    2.1299 C   0  0  0  0  0  0  0  0  0  0  0  0
   19.3819   13.4587    2.1870 H   0  0  0  0  0  0  0  0  0  0  0  0
   13.8523    1.9969    7.8158 C   0  0  0  0  0  0  0  0  0  0  0  0
   12.7876    1.7965    7.7261 H   0  0  0  0  0  0  0  0  0  0  0  0
   14.0258    2.4900    8.7726 H   0  0  0  0  0  0  0  0  0  0  0  0
   14.3923    1.0526    7.8255 H   0  0  0  0  0  0  0  0  0  0  0  0
  1  5  1  0  0  0  0
  1  6  1  0  0  0  0
  1  3  1  0  0  0  0
  2  9  1  0  0  0  0
  2  1  1  0  0  0  0
  4 10  1  0  0  0  0
  4  1  1  0  0  0  0
  5 27  1  0  0  0  0
  6 27  1  0  0  0  0
  7  8  2  0  0  0  0
  7 33  1  0  0  0  0
  8  2  1  0  0  0  0
  9 50  1  0  0  0  0
 10 15  2  0  0  0  0
 11 13  1  0  0  0  0
 12 11  1  0  0  0  0
 13 18  2  0  0  0  0
 13 14  1  0  0  0  0
 15 48  1  0  0  0  0
 15  5  1  0  0  0  0
 16 36  1  0  0  0  0
 16 17  1  0  0  0  0
 18 54  1  0  0  0  0
 19 25  1  0  0  0  0
 19 10  1  0  0  0  0
 20 30  1  0  0  0  0
 20 32  2  0  0  0  0
 21 20  1  0  0  0  0
 22 23  1  0  0  0  0
 22 18  1  0  0  0  0
 24 38  1  0  0  0  0
 24 11  2  0  0  0  0
 25 28  1  0  0  0  0
 26 25  1  0  0  0  0
 27 24  1  1  0  0  0
 28 29  1  0  0  0  0
 28 48  2  0  0  0  0
 30 19  2  0  0  0  0
 31 30  1  0  0  0  0
 32  8  1  0  0  0  0
 32  4  1  0  0  0  0
 33 40  1  0  0  0  0
 33  9  2  0  0  0  0
 34 36  1  0  0  0  0
 35 34  1  0  0  0  0
 36 37  1  1  0  0  0
 36  1  1  0  0  0  0
 38 22  2  0  0  0  0
 39 38  1  0  0  0  0
 40 52  2  0  0  0  0
 41 40  1  0  0  0  0
 42 46  1  0  0  0  0
 42 34  2  0  0  0  0
 43 42  1  0  0  0  0
 44 45  1  0  0  0  0
 46 16  2  0  0  0  0
 47 46  1  0  0  0  0
 48 49  1  0  0  0  0
 50 44  2  0  0  0  0
 50 51  1  0  0  0  0
 52 53  1  0  0  0  0
 52 44  1  0  0  0  0
 54 57  1  0  0  0  0
 54 56  1  0  0  0  0
 55 54  1  0  0  0  0
M  END
$$$$
