CSD_code = OCUROV | q = 0 | S = 0 | Stoichiometry = C10H9AuCl3NO | MND = 4
 OpenBabel04212202073D

 25 26  0  0  1  0  0  0  0  0999 V2000
    2.6409   -0.4664   12.7975 Au  0  0  0  0  0  0  0  0  0  0  0  0
    3.9169   -1.6025   14.2904 Cl  0  0  0  0  0  0  0  0  0  0  0  0
    0.7164   -1.0057   13.8539 Cl  0  0  0  0  0  0  0  0  0  0  0  0
    4.4599    0.0726   11.5238 Cl  0  0  0  0  0  0  0  0  0  0  0  0
    0.7012    0.9101    9.2612 O   0  0  0  0  0  0  0  0  0  0  0  0
    1.8215   -0.5481    8.0961 N   0  0  0  0  0  0  0  0  0  0  0  0
    1.5018    0.5206   11.4946 C   0  0  0  0  0  0  0  0  0  0  0  0
    1.4752    0.2047   10.2183 C   0  0  2  0  0  3  0  0  0  0  0  0
    2.2446   -0.8419    9.4488 C   0  0  0  0  0  0  0  0  0  0  0  0
    0.9609    0.4511    8.0788 C   0  0  1  0  0  3  0  0  0  0  0  0
    0.3287    1.0208    6.9092 C   0  0  0  0  0  0  0  0  0  0  0  0
   -0.5450    2.1025    7.0766 C   0  0  0  0  0  0  0  0  0  0  0  0
    0.5658    0.5172    5.6245 C   0  0  0  0  0  0  0  0  0  0  0  0
   -1.1656    2.6657    5.9799 C   0  0  0  0  0  0  0  0  0  0  0  0
   -0.0617    1.0896    4.5364 C   0  0  0  0  0  0  0  0  0  0  0  0
   -0.9257    2.1619    4.7101 C   0  0  0  0  0  0  0  0  0  0  0  0
    0.8781    1.3309   11.8389 H   0  0  0  0  0  0  0  0  0  0  0  0
    1.9753   -1.8634    9.7370 H   0  0  0  0  0  0  0  0  0  0  0  0
    3.3255   -0.7071    9.5982 H   0  0  0  0  0  0  0  0  0  0  0  0
    2.1876   -1.0289    7.2921 H   0  0  0  0  0  0  0  0  0  0  0  0
   -0.7228    2.4861    8.0688 H   0  0  0  0  0  0  0  0  0  0  0  0
    1.2328   -0.3173    5.4721 H   0  0  0  0  0  0  0  0  0  0  0  0
   -1.8375    3.4991    6.1130 H   0  0  0  0  0  0  0  0  0  0  0  0
    0.1218    0.6996    3.5474 H   0  0  0  0  0  0  0  0  0  0  0  0
   -1.4114    2.6031    3.8536 H   0  0  0  0  0  0  0  0  0  0  0  0
  1  3  1  0  0  0  0
  1  2  1  0  0  0  0
  4  1  1  0  0  0  0
  5  8  1  0  0  0  0
  6  9  1  0  0  0  0
  7 17  1  0  0  0  0
  7  1  2  0  0  0  0
  8  7  1  6  0  0  0
  9 19  1  0  0  0  0
  9 18  1  0  0  0  0
  9  8  1  0  0  0  0
 10 11  1  1  0  0  0
 10  6  1  0  0  0  0
 10  5  1  0  0  0  0
 11 12  1  0  0  0  0
 12 21  1  0  0  0  0
 13 11  2  0  0  0  0
 14 23  1  0  0  0  0
 14 12  2  0  0  0  0
 15 16  2  0  0  0  0
 15 13  1  0  0  0  0
 16 14  1  0  0  0  0
 20  6  1  0  0  0  0
 22 13  1  0  0  0  0
 24 15  1  0  0  0  0
 25 16  1  0  0  0  0
M  END
$$$$
