CSD_code = OCUSOW | q = 1 | S = 0 | Stoichiometry = C22H22AuCl2N2O2(1+) | MND = 4
 OpenBabel04212202073D

 51 54  0  0  1  0  0  0  0  0999 V2000
    9.7855    1.2767   23.5819 Au  0  0  0  0  0  0  0  0  0  0  0  0
   11.5270    2.7566   23.4854 Cl  0  0  0  0  0  0  0  0  0  0  0  0
    8.1249    2.7930   24.0047 Cl  0  0  0  0  0  0  0  0  0  0  0  0
   13.1869   -1.2190   24.0033 O   0  0  0  0  0  0  0  0  0  0  0  0
    6.2550   -0.8705   22.6335 O   0  0  0  0  0  0  0  0  0  0  0  0
   13.3997   -0.0455   22.0759 N   0  0  0  0  0  0  0  0  0  0  0  0
   13.9919    0.4944   21.4604 H   0  0  0  0  0  0  0  0  0  0  0  0
    6.0907   -0.1306   24.7694 N   0  0  0  0  0  0  0  0  0  0  0  0
    5.5260    0.3014   25.4873 H   0  0  0  0  0  0  0  0  0  0  0  0
   11.2728   -0.0081   23.2372 C   0  0  2  0  0  3  0  0  0  0  0  0
   11.8903   -0.6743   24.2017 C   0  0  2  0  0  3  0  0  0  0  0  0
   11.4548   -0.9160   25.6050 C   0  0  0  0  0  0  0  0  0  0  0  0
   11.6417   -1.9544   25.8721 H   0  0  0  0  0  0  0  0  0  0  0  0
   10.4001   -0.6903   25.7146 H   0  0  0  0  0  0  0  0  0  0  0  0
   12.0217   -0.2830   26.2871 H   0  0  0  0  0  0  0  0  0  0  0  0
   11.9595    0.0527   21.8929 C   0  0  0  0  0  0  0  0  0  0  0  0
   11.6241   -0.7779   21.2554 H   0  0  0  0  0  0  0  0  0  0  0  0
   11.7434    0.9958   21.3917 H   0  0  0  0  0  0  0  0  0  0  0  0
   13.9354   -0.7034   23.0760 C   0  0  1  0  0  3  0  0  0  0  0  0
   15.3729   -0.8859   23.2019 C   0  0  0  0  0  0  0  0  0  0  0  0
   15.9010   -1.2856   24.4360 C   0  0  0  0  0  0  0  0  0  0  0  0
   15.2345   -1.4455   25.2688 H   0  0  0  0  0  0  0  0  0  0  0  0
   16.2388   -0.6752   22.1210 C   0  0  0  0  0  0  0  0  0  0  0  0
   15.8553   -0.4042   21.1489 H   0  0  0  0  0  0  0  0  0  0  0  0
   17.2626   -1.4561   24.5862 C   0  0  0  0  0  0  0  0  0  0  0  0
   17.6630   -1.7586   25.5410 H   0  0  0  0  0  0  0  0  0  0  0  0
   17.5983   -0.8492   22.2836 C   0  0  0  0  0  0  0  0  0  0  0  0
   18.2615   -0.6889   21.4479 H   0  0  0  0  0  0  0  0  0  0  0  0
   18.1135   -1.2347   23.5136 C   0  0  0  0  0  0  0  0  0  0  0  0
   19.1777   -1.3670   23.6325 H   0  0  0  0  0  0  0  0  0  0  0  0
    8.2281    0.0304   23.6394 C   0  0  0  0  0  0  0  0  0  0  0  0
    7.5829   -0.3727   22.5545 C   0  0  2  0  0  3  0  0  0  0  0  0
    8.0168   -0.3278   21.1307 C   0  0  0  0  0  0  0  0  0  0  0  0
    9.0849   -0.1526   21.0692 H   0  0  0  0  0  0  0  0  0  0  0  0
    7.4991    0.4750   20.6067 H   0  0  0  0  0  0  0  0  0  0  0  0
    7.7664   -1.2678   20.6428 H   0  0  0  0  0  0  0  0  0  0  0  0
    7.5321   -0.1652   24.9660 C   0  0  0  0  0  0  0  0  0  0  0  0
    7.8089   -1.1357   25.4020 H   0  0  0  0  0  0  0  0  0  0  0  0
    7.7999    0.6280   25.6632 H   0  0  0  0  0  0  0  0  0  0  0  0
    5.5277   -0.5211   23.6510 C   0  0  1  0  0  3  0  0  0  0  0  0
    4.0835   -0.5780   23.4889 C   0  0  0  0  0  0  0  0  0  0  0  0
    3.5485   -0.6652   22.1973 C   0  0  0  0  0  0  0  0  0  0  0  0
    4.2151   -0.6846   21.3497 H   0  0  0  0  0  0  0  0  0  0  0  0
    3.2177   -0.5500   24.5897 C   0  0  0  0  0  0  0  0  0  0  0  0
    3.6040   -0.5227   25.5975 H   0  0  0  0  0  0  0  0  0  0  0  0
    2.1812   -0.7101   22.0139 C   0  0  0  0  0  0  0  0  0  0  0  0
    1.7759   -0.7704   21.0161 H   0  0  0  0  0  0  0  0  0  0  0  0
    1.8523   -0.5959   24.3934 C   0  0  0  0  0  0  0  0  0  0  0  0
    1.1889   -0.5767   25.2439 H   0  0  0  0  0  0  0  0  0  0  0  0
    1.3309   -0.6721   23.1091 C   0  0  0  0  0  0  0  0  0  0  0  0
    0.2624   -0.7034   22.9641 H   0  0  0  0  0  0  0  0  0  0  0  0
  1 31  2  0  0  0  0
  1  3  1  0  0  0  0
  2  1  1  0  0  0  0
  4 11  1  0  0  0  0
  5 40  1  0  0  0  0
  6 19  1  0  0  0  0
  7  6  1  0  0  0  0
  8 37  1  0  0  0  0
  8  9  1  0  0  0  0
 10  1  1  1  0  0  0
 10 11  1  0  0  0  0
 11 12  1  1  0  0  0
 12 14  1  0  0  0  0
 12 13  1  0  0  0  0
 12 15  1  0  0  0  0
 16  6  1  0  0  0  0
 16 10  1  0  0  0  0
 17 16  1  0  0  0  0
 18 16  1  0  0  0  0
 19 20  1  1  0  0  0
 19  4  1  0  0  0  0
 20 21  1  0  0  0  0
 21 25  2  0  0  0  0
 21 22  1  0  0  0  0
 23 27  1  0  0  0  0
 23 20  2  0  0  0  0
 24 23  1  0  0  0  0
 25 26  1  0  0  0  0
 27 29  2  0  0  0  0
 28 27  1  0  0  0  0
 29 30  1  0  0  0  0
 29 25  1  0  0  0  0
 31 37  1  0  0  0  0
 32 33  1  6  0  0  0
 32  5  1  0  0  0  0
 32 31  1  0  0  0  0
 34 33  1  0  0  0  0
 35 33  1  0  0  0  0
 36 33  1  0  0  0  0
 37 38  1  0  0  0  0
 37 39  1  0  0  0  0
 40 41  1  6  0  0  0
 40  8  1  0  0  0  0
 41 44  1  0  0  0  0
 42 41  2  0  0  0  0
 43 42  1  0  0  0  0
 44 45  1  0  0  0  0
 46 42  1  0  0  0  0
 46 50  2  0  0  0  0
 47 46  1  0  0  0  0
 48 44  2  0  0  0  0
 48 49  1  0  0  0  0
 50 48  1  0  0  0  0
 51 50  1  0  0  0  0
M  END
$$$$
