CSD_code = OCUTUC | q = 0 | S = 0 | Stoichiometry = C21H17Cl2N2PPd | MND = 4
 OpenBabel04212202073D

 44 48  0  0  0  0  0  0  0  0999 V2000
   -1.0977    1.8975    9.8824 Pd  0  0  0  0  0  0  0  0  0  0  0  0
   -1.7890    0.0460   11.0453 Cl  0  0  0  0  0  0  0  0  0  0  0  0
   -2.9762    2.9890   10.3585 Cl  0  0  0  0  0  0  0  0  0  0  0  0
   -0.4423    3.4725    8.4497 P   0  0  0  0  0  4  0  0  0  0  0  0
    0.6085    0.9137    9.3569 N   0  0  0  0  0  0  0  0  0  0  0  0
    0.5266   -0.4111    9.4003 N   0  0  0  0  0  0  0  0  0  0  0  0
    1.5844   -0.9764    8.8061 C   0  0  0  0  0  3  0  0  0  0  0  0
    2.3874    0.0431    8.3464 C   0  0  0  0  0  0  0  0  0  0  0  0
    1.7333    1.2364    8.7130 C   0  0  0  0  0  0  0  0  0  0  0  0
    1.3594    3.7105    8.3935 C   0  0  0  0  0  0  0  0  0  0  0  0
    2.2143    2.6003    8.5077 C   0  0  0  0  0  0  0  0  0  0  0  0
    3.5911    2.8107    8.4349 C   0  0  0  0  0  0  0  0  0  0  0  0
    4.1143    4.0782    8.2632 C   0  0  0  0  0  0  0  0  0  0  0  0
    3.2674    5.1696    8.1635 C   0  0  0  0  0  0  0  0  0  0  0  0
    1.8990    4.9821    8.2299 C   0  0  0  0  0  0  0  0  0  0  0  0
   -1.1522    5.1365    8.4074 C   0  0  0  0  0  0  0  0  0  0  0  0
   -1.2427    5.7844    9.6380 C   0  0  0  0  0  0  0  0  0  0  0  0
   -1.7961    7.0475    9.7123 C   0  0  0  0  0  0  0  0  0  0  0  0
   -2.2698    7.6611    8.5624 C   0  0  0  0  0  0  0  0  0  0  0  0
   -2.1938    7.0112    7.3416 C   0  0  0  0  0  0  0  0  0  0  0  0
   -1.6386    5.7458    7.2575 C   0  0  0  0  0  0  0  0  0  0  0  0
   -0.7655    2.7153    6.8244 C   0  0  0  0  0  0  0  0  0  0  0  0
   -0.0711    3.0812    5.6753 C   0  0  0  0  0  0  0  0  0  0  0  0
   -0.3405    2.4452    4.4766 C   0  0  0  0  0  0  0  0  0  0  0  0
   -1.2970    1.4441    4.4195 C   0  0  0  0  0  0  0  0  0  0  0  0
   -1.9879    1.0731    5.5624 C   0  0  0  0  0  0  0  0  0  0  0  0
   -1.7229    1.7034    6.7652 C   0  0  0  0  0  0  0  0  0  0  0  0
   -0.2734   -0.7748    9.9668 H   0  0  0  0  0  0  0  0  0  0  0  0
    1.7030   -2.0388    8.7417 H   0  0  0  0  0  0  0  0  0  0  0  0
    3.3018   -0.0518    7.7987 H   0  0  0  0  0  0  0  0  0  0  0  0
    4.2583    1.9686    8.5369 H   0  0  0  0  0  0  0  0  0  0  0  0
    5.1840    4.2152    8.2157 H   0  0  0  0  0  0  0  0  0  0  0  0
    3.6701    6.1629    8.0350 H   0  0  0  0  0  0  0  0  0  0  0  0
    1.2341    5.8309    8.1522 H   0  0  0  0  0  0  0  0  0  0  0  0
   -0.8923    5.2723   10.5277 H   0  0  0  0  0  0  0  0  0  0  0  0
   -1.8719    7.5501   10.6647 H   0  0  0  0  0  0  0  0  0  0  0  0
   -2.7110    8.6450    8.6204 H   0  0  0  0  0  0  0  0  0  0  0  0
   -2.5755    7.4883    6.4510 H   0  0  0  0  0  0  0  0  0  0  0  0
   -1.5903    5.2315    6.3081 H   0  0  0  0  0  0  0  0  0  0  0  0
    0.6818    3.8563    5.7268 H   0  0  0  0  0  0  0  0  0  0  0  0
    0.1989    2.7290    3.5850 H   0  0  0  0  0  0  0  0  0  0  0  0
   -1.5020    0.9495    3.4818 H   0  0  0  0  0  0  0  0  0  0  0  0
   -2.7308    0.2912    5.5155 H   0  0  0  0  0  0  0  0  0  0  0  0
   -2.2681    1.4189    7.6746 H   0  0  0  0  0  0  0  0  0  0  0  0
  1  3  1  0  0  0  0
  1  2  1  0  0  0  0
  4  1  1  0  0  0  0
  5  6  1  0  0  0  0
  5  1  1  0  0  0  0
  6 28  1  0  0  0  0
  7  6  1  0  0  0  0
  8  9  2  0  0  0  0
  8  7  1  0  0  0  0
  9  5  1  0  0  0  0
 10  4  1  0  0  0  0
 10 11  1  0  0  0  0
 11  9  1  0  0  0  0
 12 11  2  0  0  0  0
 12 31  1  0  0  0  0
 13 12  1  0  0  0  0
 14 15  1  0  0  0  0
 14 13  2  0  0  0  0
 15 10  2  0  0  0  0
 16  4  1  0  0  0  0
 16 17  1  0  0  0  0
 17 18  2  0  0  0  0
 17 35  1  0  0  0  0
 18 36  1  0  0  0  0
 19 37  1  0  0  0  0
 19 18  1  0  0  0  0
 20 19  2  0  0  0  0
 21 20  1  0  0  0  0
 21 16  2  0  0  0  0
 22  4  1  0  0  0  0
 23 40  1  0  0  0  0
 23 22  2  0  0  0  0
 24 23  1  0  0  0  0
 25 24  2  0  0  0  0
 25 26  1  0  0  0  0
 26 27  2  0  0  0  0
 27 22  1  0  0  0  0
 27 44  1  0  0  0  0
 29  7  1  0  0  0  0
 30  8  1  0  0  0  0
 32 13  1  0  0  0  0
 33 14  1  0  0  0  0
 34 15  1  0  0  0  0
 38 20  1  0  0  0  0
 39 21  1  0  0  0  0
 41 24  1  0  0  0  0
 42 25  1  0  0  0  0
 43 26  1  0  0  0  0
M  END
$$$$
