CSD_code = OCUTEN | q = 0 | S = 0 | Stoichiometry = C19H17BrN3O3Re | MND = 6
 OpenBabel04212202073D

 44 47  0  0  1  0  0  0  0  0999 V2000
    3.2528    8.8304   12.7186 Br  0  0  0  0  0  0  0  0  0  0  0  0
    1.0070    8.1145   11.5991 Re  0  0  0  0  0  0  0  0  0  0  0  0
    0.2139    8.1895   13.3927 C   0  0  0  0  0  2  0  0  0  0  0  0
   -0.1404    8.2149   14.4781 O   0  0  0  0  0  1  0  0  0  0  0  0
    0.5015    9.9752   11.3269 C   0  0  0  0  0  2  0  0  0  0  0  0
    0.2405   11.0878   11.2050 O   0  0  0  0  0  1  0  0  0  0  0  0
   -0.5925    7.4405   10.7351 C   0  0  0  0  0  2  0  0  0  0  0  0
   -1.5285    7.0255   10.2125 O   0  0  0  0  0  1  0  0  0  0  0  0
    2.8054    8.5454    8.9631 N   0  0  0  0  0  0  0  0  0  0  0  0
    2.3441    9.8602    8.5902 C   0  0  0  0  0  0  0  0  0  0  0  0
    1.2908    9.9409    8.8740 H   0  0  0  0  0  0  0  0  0  0  0  0
    2.4230    9.9593    7.5039 H   0  0  0  0  0  0  0  0  0  0  0  0
    3.1608   10.9466    9.2932 C   0  0  0  0  0  0  0  0  0  0  0  0
    4.2092   10.8667    8.9959 H   0  0  0  0  0  0  0  0  0  0  0  0
    3.1101   10.7836   10.3714 H   0  0  0  0  0  0  0  0  0  0  0  0
    2.6344   12.3407    8.9697 C   0  0  0  0  0  0  0  0  0  0  0  0
    2.6813   12.5093    7.8906 H   0  0  0  0  0  0  0  0  0  0  0  0
    1.5883   12.4072    9.2735 H   0  0  0  0  0  0  0  0  0  0  0  0
    3.4384   13.4136    9.6920 C   0  0  0  0  0  0  0  0  0  0  0  0
    3.3853   13.2623   10.7670 H   0  0  0  0  0  0  0  0  0  0  0  0
    3.0482   14.4019    9.4631 H   0  0  0  0  0  0  0  0  0  0  0  0
    4.4837   13.3774    9.3929 H   0  0  0  0  0  0  0  0  0  0  0  0
    2.3067    7.8029    9.9555 C   0  0  1  0  0  3  0  0  0  0  0  0
    3.0571    6.6480   10.0111 N   0  0  0  0  0  0  0  0  0  0  0  0
    4.0799    6.7033    9.0713 C   0  0  0  0  0  0  0  0  0  0  0  0
    5.1600    5.8933    8.7551 C   0  0  0  0  0  0  0  0  0  0  0  0
    5.3862    4.9836    9.2839 H   0  0  0  0  0  0  0  0  0  0  0  0
    6.0001    6.3061    7.7359 C   0  0  0  0  0  0  0  0  0  0  0  0
    6.8462    5.6885    7.4771 H   0  0  0  0  0  0  0  0  0  0  0  0
    5.7907    7.4952    7.0468 C   0  0  0  0  0  0  0  0  0  0  0  0
    6.4696    7.7773    6.2573 H   0  0  0  0  0  0  0  0  0  0  0  0
    4.7409    8.3309    7.3747 C   0  0  0  0  0  0  0  0  0  0  0  0
    4.5923    9.2682    6.8635 H   0  0  0  0  0  0  0  0  0  0  0  0
    3.8990    7.9244    8.3965 C   0  0  0  0  0  0  0  0  0  0  0  0
    1.8027    6.0668   11.8479 N   0  0  0  0  0  0  0  0  0  0  0  0
    2.7266    5.6806   10.9509 C   0  0  1  0  0  3  0  0  0  0  0  0
    3.2638    4.3964   10.9638 C   0  0  0  0  0  0  0  0  0  0  0  0
    3.9420    4.0785   10.1938 H   0  0  0  0  0  0  0  0  0  0  0  0
    2.8890    3.5228   11.9655 C   0  0  0  0  0  0  0  0  0  0  0  0
    3.2997    2.5257   11.9951 H   0  0  0  0  0  0  0  0  0  0  0  0
    1.9775    3.9458   12.9217 C   0  0  0  0  0  0  0  0  0  0  0  0
    1.6682    3.3012   13.7274 H   0  0  0  0  0  0  0  0  0  0  0  0
    1.4506    5.2161   12.8090 C   0  0  0  0  0  0  0  0  0  0  0  0
    0.7120    5.5707   13.5157 H   0  0  0  0  0  0  0  0  0  0  0  0
  2 35  1  0  0  0  0
  2  1  1  0  0  0  0
  2  3  1  0  0  0  0
  3  4  1  0  0  0  0
  5  2  1  0  0  0  0
  6  5  1  0  0  0  0
  7  2  1  0  0  0  0
  8  7  1  0  0  0  0
 10 11  1  0  0  0  0
 10  9  1  0  0  0  0
 10 13  1  0  0  0  0
 12 10  1  0  0  0  0
 13 15  1  0  0  0  0
 14 13  1  0  0  0  0
 16 18  1  0  0  0  0
 16 13  1  0  0  0  0
 16 19  1  0  0  0  0
 17 16  1  0  0  0  0
 19 20  1  0  0  0  0
 21 19  1  0  0  0  0
 22 19  1  0  0  0  0
 23  9  1  1  0  0  0
 23 24  1  0  0  0  0
 23  2  1  0  0  0  0
 24 36  1  0  0  0  0
 25 24  1  0  0  0  0
 26 25  1  0  0  0  0
 26 27  1  0  0  0  0
 28 26  2  0  0  0  0
 29 28  1  0  0  0  0
 30 32  2  0  0  0  0
 30 28  1  0  0  0  0
 31 30  1  0  0  0  0
 32 34  1  0  0  0  0
 33 32  1  0  0  0  0
 34  9  1  0  0  0  0
 34 25  2  0  0  0  0
 35 43  1  0  0  0  0
 36 37  1  6  0  0  0
 36 35  1  0  0  0  0
 37 39  2  0  0  0  0
 38 37  1  0  0  0  0
 39 40  1  0  0  0  0
 39 41  1  0  0  0  0
 41 42  1  0  0  0  0
 43 41  2  0  0  0  0
 43 44  1  0  0  0  0
M  END
$$$$
