CSD_code = OCUXUG | q = 0 | S = 0 | Stoichiometry = C21H20Cl2Zr | MND = 12
 OpenBabel04212202073D

 44 48  0  0  1  0  0  0  0  0999 V2000
    6.2030   11.8505    9.2506 Zr  0  0  0  0  0  0  0  0  0  0  0  0
    5.9423   12.5025    7.0258 Cl  0  0  0  0  0  0  0  0  0  0  0  0
    6.8421   14.0036    9.8685 Cl  0  0  0  0  0  0  0  0  0  0  0  0
    4.4443   10.3211   10.0488 C   0  0  0  0  0  0  0  0  0  0  0  0
    4.7331   11.2081   11.1220 C   0  0  0  0  0  3  0  0  0  0  0  0
    5.0534   10.9346   12.1196 H   0  0  0  0  0  0  0  0  0  0  0  0
    4.2993   12.5031   10.7527 C   0  0  0  0  0  0  0  0  0  0  0  0
    4.2887   13.3734   11.3973 H   0  0  0  0  0  0  0  0  0  0  0  0
    3.7807   12.4375    9.4445 C   0  0  0  0  0  0  0  0  0  0  0  0
    3.3089   13.2502    8.9042 H   0  0  0  0  0  0  0  0  0  0  0  0
    3.8725   11.0942    9.0054 C   0  0  0  0  0  0  0  0  0  0  0  0
    3.4436   10.7082    8.0871 H   0  0  0  0  0  0  0  0  0  0  0  0
    4.7225    8.8530    9.9585 C   0  0  2  0  0  0  0  0  0  0  0  0
    3.9519    8.3787    9.3439 H   0  0  0  0  0  0  0  0  0  0  0  0
    4.9808    8.0525   11.2498 C   0  0  0  0  0  0  0  0  0  0  0  0
    5.1720    8.6799   12.1162 H   0  0  0  0  0  0  0  0  0  0  0  0
    4.2059    7.3343   11.5084 H   0  0  0  0  0  0  0  0  0  0  0  0
    6.2572    7.4609   10.6375 C   0  0  0  0  0  0  0  0  0  0  0  0
    6.1436    6.4229   10.3318 H   0  0  0  0  0  0  0  0  0  0  0  0
    7.1617    7.5530   11.2343 H   0  0  0  0  0  0  0  0  0  0  0  0
    6.1547    8.4372    9.4429 C   0  0  1  0  0  0  0  0  0  0  0  0
    6.1728    7.7812    8.0613 C   0  0  0  0  0  0  0  0  0  0  0  0
    7.0850    7.1853    7.9672 H   0  0  0  0  0  0  0  0  0  0  0  0
    5.3227    7.1016    7.9716 H   0  0  0  0  0  0  0  0  0  0  0  0
    6.1404    8.8208    6.9394 C   0  0  0  0  0  0  0  0  0  0  0  0
    5.9965    8.3223    5.9795 H   0  0  0  0  0  0  0  0  0  0  0  0
    5.3081    9.5197    7.0942 H   0  0  0  0  0  0  0  0  0  0  0  0
    7.4476    9.6133    6.9276 C   0  0  0  0  0  0  0  0  0  0  0  0
    8.2794    8.9484    6.6636 H   0  0  0  0  0  0  0  0  0  0  0  0
    7.4039   10.4114    6.1814 H   0  0  0  0  0  0  0  0  0  0  0  0
    7.6626   10.1759    8.3034 C   0  0  2  0  0  0  0  0  0  0  0  0
    7.1273    9.5807    9.4747 C   0  0  0  0  0  0  0  0  0  0  0  0
    7.5853   10.2959   10.6132 C   0  0  0  0  0  0  0  0  0  0  0  0
    7.4603    9.9999   11.6469 H   0  0  0  0  0  0  0  0  0  0  0  0
    8.4874   11.3046   10.1602 C   0  0  0  0  0  0  0  0  0  0  0  0
    8.5216   11.2488    8.7116 C   0  0  0  0  0  0  0  0  0  0  0  0
    9.3002   12.1814    7.9959 C   0  0  0  0  0  0  0  0  0  0  0  0
    9.3185   12.1590    6.9135 H   0  0  0  0  0  0  0  0  0  0  0  0
   10.0428   13.0970    8.6987 C   0  0  0  0  0  0  0  0  0  0  0  0
   10.6447   13.8191    8.1676 H   0  0  0  0  0  0  0  0  0  0  0  0
   10.0476   13.1189   10.1058 C   0  0  0  0  0  0  0  0  0  0  0  0
   10.6606   13.8496   10.6115 H   0  0  0  0  0  0  0  0  0  0  0  0
    9.2846   12.2463   10.8392 C   0  0  0  0  0  0  0  0  0  0  0  0
    9.2874   12.2768   11.9211 H   0  0  0  0  0  0  0  0  0  0  0  0
  1  3  1  0  0  0  0
  2  1  1  0  0  0  0
  4  5  1  0  0  0  0
  5  6  1  0  0  0  0
  7  5  1  0  0  0  0
  7  8  1  0  0  0  0
  9  7  2  0  0  0  0
 10  9  1  0  0  0  0
 11  9  1  0  0  0  0
 11  4  2  0  0  0  0
 12 11  1  0  0  0  0
 13 14  1  6  0  0  0
 13  4  1  0  0  0  0
 13 15  1  0  0  0  0
 15 17  1  0  0  0  0
 15 16  1  0  0  0  0
 18 20  1  0  0  0  0
 18 15  1  0  0  0  0
 19 18  1  0  0  0  0
 21 32  1  1  0  0  0
 21 13  1  0  0  0  0
 21 18  1  0  0  0  0
 22 21  1  0  0  0  0
 23 22  1  0  0  0  0
 24 22  1  0  0  0  0
 25 27  1  0  0  0  0
 25 22  1  0  0  0  0
 26 25  1  0  0  0  0
 28 25  1  0  0  0  0
 28 31  1  0  0  0  0
 29 28  1  0  0  0  0
 30 28  1  0  0  0  0
 31 36  1  0  0  0  0
 31  1  1  6  0  0  0
 31 32  1  0  0  0  0
 32 33  2  0  0  0  0
 33 34  1  0  0  0  0
 35 33  1  0  0  0  0
 35 43  1  0  0  0  0
 36 35  2  0  0  0  0
 37 39  2  0  0  0  0
 37 36  1  0  0  0  0
 38 37  1  0  0  0  0
 39 41  1  0  0  0  0
 40 39  1  0  0  0  0
 41 42  1  0  0  0  0
 41 43  2  0  0  0  0
 43 44  1  0  0  0  0
M  END
$$$$
