CSD_code = ODABED | q = 0 | S = 0 | Stoichiometry = C18H24Br2N4Pd | MND = 4
 OpenBabel04212202073D

 49 51  0  0  1  0  0  0  0  0999 V2000
    1.9379    4.2335    4.7761 Pd  0  0  0  0  0  0  0  0  0  0  0  0
    3.0302    4.5838    2.6164 Br  0  0  0  0  0  0  0  0  0  0  0  0
    0.7687    3.7659    6.8560 Br  0  0  0  0  0  0  0  0  0  0  0  0
    2.0362    2.3174    4.4729 C   0  0  0  0  0  0  0  0  0  0  0  0
    3.0635    1.5489    4.8647 N   0  0  0  0  0  0  0  0  0  0  0  0
    1.8825    6.2457    5.1736 N   0  0  0  0  0  0  0  0  0  0  0  0
    0.8415    8.3794    4.9530 C   0  0  0  0  0  0  0  0  0  0  0  0
    0.0945    8.9899    4.4707 H   0  0  0  0  0  0  0  0  0  0  0  0
    1.1232    1.5516    3.8579 N   0  0  0  0  0  0  0  0  0  0  0  0
    0.9699    7.0313    4.5879 C   0  0  2  0  0  3  0  0  0  0  0  0
    0.1546    6.4388    3.6745 N   0  0  0  0  0  0  0  0  0  0  0  0
    0.5032    5.5732    3.2549 H   0  0  0  0  0  0  0  0  0  0  0  0
   -0.4096    7.0274    3.0857 H   0  0  0  0  0  0  0  0  0  0  0  0
   -0.1226    2.1015    3.3449 C   0  0  0  0  0  0  0  0  0  0  0  0
   -0.1019    3.1799    3.6205 H   0  0  0  0  0  0  0  0  0  0  0  0
    2.6841    6.7446    6.1115 C   0  0  0  0  0  0  0  0  0  0  0  0
    3.3986    6.0500    6.5523 H   0  0  0  0  0  0  0  0  0  0  0  0
   -0.1712    1.9899    1.8236 C   0  0  0  0  0  0  0  0  0  0  0  0
    0.7020    2.4723    1.3878 H   0  0  0  0  0  0  0  0  0  0  0  0
   -1.0644    2.4811    1.4472 H   0  0  0  0  0  0  0  0  0  0  0  0
   -0.1870    0.9508    1.5068 H   0  0  0  0  0  0  0  0  0  0  0  0
    1.0327   -0.9265    3.3250 C   0  0  0  0  0  0  0  0  0  0  0  0
    0.0839   -0.9439    2.8146 H   0  0  0  0  0  0  0  0  0  0  0  0
    4.2048    2.0976    5.5848 C   0  0  0  0  0  0  0  0  0  0  0  0
    4.0036    3.1929    5.6705 H   0  0  0  0  0  0  0  0  0  0  0  0
    4.2747    1.5168    6.9943 C   0  0  0  0  0  0  0  0  0  0  0  0
    3.3383    1.7033    7.5172 H   0  0  0  0  0  0  0  0  0  0  0  0
    5.0805    1.9920    7.5472 H   0  0  0  0  0  0  0  0  0  0  0  0
    4.4534    0.4454    6.9710 H   0  0  0  0  0  0  0  0  0  0  0  0
    2.8186    0.2428    4.4930 C   0  0  0  0  0  0  0  0  0  0  0  0
    3.5378   -0.9331    4.6475 C   0  0  0  0  0  0  0  0  0  0  0  0
    4.4924   -0.9565    5.1468 H   0  0  0  0  0  0  0  0  0  0  0  0
    2.6213    8.0598    6.5174 C   0  0  0  0  0  0  0  0  0  0  0  0
    3.2871    8.4281    7.2798 H   0  0  0  0  0  0  0  0  0  0  0  0
    1.5682    0.2450    3.8392 C   0  0  0  0  0  0  0  0  0  0  0  0
    5.4903    1.9125    4.7840 C   0  0  0  0  0  0  0  0  0  0  0  0
    5.7443    0.8616    4.6789 H   0  0  0  0  0  0  0  0  0  0  0  0
    6.3101    2.4189    5.2865 H   0  0  0  0  0  0  0  0  0  0  0  0
    5.3751    2.3438    3.7913 H   0  0  0  0  0  0  0  0  0  0  0  0
    2.9899   -2.0933    4.1358 C   0  0  0  0  0  0  0  0  0  0  0  0
    3.5282   -3.0225    4.2423 H   0  0  0  0  0  0  0  0  0  0  0  0
   -1.3225    1.4670    4.0414 C   0  0  0  0  0  0  0  0  0  0  0  0
   -1.4012    0.4080    3.8137 H   0  0  0  0  0  0  0  0  0  0  0  0
   -2.2345    1.9608    3.7173 H   0  0  0  0  0  0  0  0  0  0  0  0
   -1.2294    1.5876    5.1188 H   0  0  0  0  0  0  0  0  0  0  0  0
    1.6721    8.8886    5.9239 C   0  0  0  0  0  0  0  0  0  0  0  0
    1.5900    9.9228    6.2214 H   0  0  0  0  0  0  0  0  0  0  0  0
    1.7606   -2.0896    3.4842 C   0  0  0  0  0  0  0  0  0  0  0  0
    1.3670   -3.0157    3.0943 H   0  0  0  0  0  0  0  0  0  0  0  0
  1  6  1  0  0  0  0
  1  3  1  0  0  0  0
  2  1  1  0  0  0  0
  4  1  2  0  0  0  0
  4  5  1  0  0  0  0
  5 24  1  0  0  0  0
  6 16  1  0  0  0  0
  7 46  2  0  0  0  0
  8  7  1  0  0  0  0
  9  4  1  0  0  0  0
 10 11  1  1  0  0  0
 10  7  1  0  0  0  0
 10  6  1  0  0  0  0
 12 11  1  0  0  0  0
 13 11  1  0  0  0  0
 14 15  1  0  0  0  0
 14  9  1  0  0  0  0
 14 42  1  0  0  0  0
 16 33  2  0  0  0  0
 16 17  1  0  0  0  0
 18 14  1  0  0  0  0
 19 18  1  0  0  0  0
 20 18  1  0  0  0  0
 21 18  1  0  0  0  0
 22 48  2  0  0  0  0
 22 35  1  0  0  0  0
 23 22  1  0  0  0  0
 24 25  1  0  0  0  0
 24 26  1  0  0  0  0
 26 27  1  0  0  0  0
 26 28  1  0  0  0  0
 29 26  1  0  0  0  0
 30 31  1  0  0  0  0
 30  5  1  0  0  0  0
 31 32  1  0  0  0  0
 33 34  1  0  0  0  0
 35  9  1  0  0  0  0
 35 30  2  0  0  0  0
 36 38  1  0  0  0  0
 36 24  1  0  0  0  0
 37 36  1  0  0  0  0
 39 36  1  0  0  0  0
 40 41  1  0  0  0  0
 40 31  2  0  0  0  0
 42 45  1  0  0  0  0
 43 42  1  0  0  0  0
 44 42  1  0  0  0  0
 46 47  1  0  0  0  0
 46 33  1  0  0  0  0
 48 40  1  0  0  0  0
 49 48  1  0  0  0  0
M  END
$$$$
