CSD_code = ODAKOW | q = 1 | S = 0 | Stoichiometry = C14H18Cl2CoN4(1+) | MND = 6
 OpenBabel04212202073D

 39 43  0  0  1  0  0  0  0  0999 V2000
    0.1398    4.0035    8.7893 C   0  0  0  0  0  0  0  0  0  0  0  0
   -0.3456    3.1400    8.3235 H   0  0  0  0  0  0  0  0  0  0  0  0
   -0.6286    4.5940    9.3011 H   0  0  0  0  0  0  0  0  0  0  0  0
    1.1370    3.4487    9.7692 C   0  0  1  0  0  3  0  0  0  0  0  0
    0.7504    3.0080   11.0257 C   0  0  0  0  0  0  0  0  0  0  0  0
   -0.2780    3.1098   11.3343 H   0  0  0  0  0  0  0  0  0  0  0  0
    1.6901    2.4247   11.8600 C   0  0  0  0  0  0  0  0  0  0  0  0
    1.4077    2.0646   12.8365 H   0  0  0  0  0  0  0  0  0  0  0  0
    2.9938    2.3085   11.4055 C   0  0  0  0  0  0  0  0  0  0  0  0
    3.7603    1.8540   12.0110 H   0  0  0  0  0  0  0  0  0  0  0  0
    3.3079    2.7822   10.1442 C   0  0  0  0  0  0  0  0  0  0  0  0
    4.3126    2.7008    9.7536 H   0  0  0  0  0  0  0  0  0  0  0  0
    0.2076    4.6558    6.4153 C   0  0  0  0  0  0  0  0  0  0  0  0
   -0.1450    3.6283    6.2824 H   0  0  0  0  0  0  0  0  0  0  0  0
   -0.6385    5.3400    6.2875 H   0  0  0  0  0  0  0  0  0  0  0  0
    1.2734    4.8832    5.3793 C   0  0  2  0  0  3  0  0  0  0  0  0
    0.9745    5.2782    4.0853 C   0  0  0  0  0  0  0  0  0  0  0  0
   -0.0501    5.4699    3.8086 H   0  0  0  0  0  0  0  0  0  0  0  0
    1.9983    5.4016    3.1595 C   0  0  0  0  0  0  0  0  0  0  0  0
    1.7860    5.6929    2.1431 H   0  0  0  0  0  0  0  0  0  0  0  0
    3.2948    5.1372    3.5702 C   0  0  0  0  0  0  0  0  0  0  0  0
    4.1255    5.2140    2.8884 H   0  0  0  0  0  0  0  0  0  0  0  0
    3.5179    4.7577    4.8820 C   0  0  0  0  0  0  0  0  0  0  0  0
    4.5150    4.5311    5.2330 H   0  0  0  0  0  0  0  0  0  0  0  0
    0.9562    6.2012    8.1027 C   0  0  0  0  0  0  0  0  0  0  0  0
    1.0977    6.7715    7.1811 H   0  0  0  0  0  0  0  0  0  0  0  0
    0.0506    6.5690    8.5975 H   0  0  0  0  0  0  0  0  0  0  0  0
    2.1818    6.4137    8.9884 C   0  0  0  0  0  0  0  0  0  0  0  0
    2.3474    7.4853    9.1430 H   0  0  0  0  0  0  0  0  0  0  0  0
    2.0331    5.9485    9.9650 H   0  0  0  0  0  0  0  0  0  0  0  0
    4.6760    3.3089    7.3961 Cl  0  0  0  0  0  0  0  0  0  0  0  0
    1.8797    2.0766    6.8689 Cl  0  0  0  0  0  0  0  0  0  0  0  0
    2.6440    3.9781    7.5663 Co  0  0  0  0  0  0  0  0  0  0  0  0
    0.8182    4.7778    7.7449 N   0  0  1  0  0  4  0  0  0  0  0  0
    2.5328    4.6293    5.7692 N   0  0  0  0  0  0  0  0  0  0  0  0
    2.4034    3.3412    9.3423 N   0  0  0  0  0  0  0  0  0  0  0  0
    3.3128    5.7667    8.3148 N   0  0  0  0  0  4  0  0  0  0  0  0
    4.1026    5.6360    8.9471 H   0  0  0  0  0  0  0  0  0  0  0  0
    3.6589    6.3598    7.5609 H   0  0  0  0  0  0  0  0  0  0  0  0
  1  3  1  0  0  0  0
  1  4  1  0  0  0  0
  2  1  1  0  0  0  0
  4  5  1  6  0  0  0
  5  6  1  0  0  0  0
  5  7  2  0  0  0  0
  7  8  1  0  0  0  0
  9  7  1  0  0  0  0
  9 10  1  0  0  0  0
 11  9  2  0  0  0  0
 12 11  1  0  0  0  0
 14 13  1  0  0  0  0
 15 13  1  0  0  0  0
 16 17  1  6  0  0  0
 16 35  1  0  0  0  0
 16 13  1  0  0  0  0
 18 17  1  0  0  0  0
 19 21  1  0  0  0  0
 19 17  2  0  0  0  0
 20 19  1  0  0  0  0
 21 23  2  0  0  0  0
 22 21  1  0  0  0  0
 23 24  1  0  0  0  0
 23 35  1  0  0  0  0
 25 27  1  0  0  0  0
 25 28  1  0  0  0  0
 26 25  1  0  0  0  0
 28 29  1  0  0  0  0
 28 30  1  0  0  0  0
 31 33  1  0  0  0  0
 32 33  1  0  0  0  0
 33 34  1  0  0  0  0
 33 37  1  0  0  0  0
 33 36  1  0  0  0  0
 34 13  1  6  0  0  0
 34 25  1  0  0  0  0
 34  1  1  0  0  0  0
 35 33  1  0  0  0  0
 36  4  1  0  0  0  0
 36 11  1  0  0  0  0
 37 38  1  0  0  0  0
 37 28  1  0  0  0  0
 39 37  1  0  0  0  0
M  END
$$$$
