CSD_code = ODASIW | q = 0 | S = 0 | Stoichiometry = C14H14Cl2N2NiO | MND = 5
 OpenBabel04212202073D

 34 36  0  0  0  0  0  0  0  0999 V2000
    6.1639    2.6670    2.9293 Ni  0  0  0  0  0  0  0  0  0  0  0  0
    4.4577    1.9485    3.9994 Cl  0  0  0  0  0  0  0  0  0  0  0  0
    8.1468    3.1984    2.2919 Cl  0  0  0  0  0  0  0  0  0  0  0  0
    6.1530    4.3650    4.0768 O   0  0  0  0  0  0  0  0  0  0  0  0
    5.0748    3.2262    0.9549 N   0  0  0  0  0  0  0  0  0  0  0  0
    6.2993    1.0641    2.0563 N   0  0  0  0  0  0  0  0  0  0  0  0
    4.4528    5.5201    1.2942 C   0  0  0  0  0  0  0  0  0  0  0  0
    4.8270    5.2810    2.2871 H   0  0  0  0  0  0  0  0  0  0  0  0
    3.4375    5.9046    1.3660 H   0  0  0  0  0  0  0  0  0  0  0  0
    5.0813    6.2933    0.8543 H   0  0  0  0  0  0  0  0  0  0  0  0
    4.4912    4.2923    0.4511 C   0  0  0  0  0  0  0  0  0  0  0  0
    3.9256    4.2837   -0.8392 C   0  0  0  0  0  0  0  0  0  0  0  0
    3.4573    5.1805   -1.2151 H   0  0  0  0  0  0  0  0  0  0  0  0
    3.9765    3.1439   -1.5957 C   0  0  0  0  0  0  0  0  0  0  0  0
    3.5498    3.1102   -2.5881 H   0  0  0  0  0  0  0  0  0  0  0  0
    4.5956    1.9953   -1.0697 C   0  0  0  0  0  0  0  0  0  0  0  0
    4.6934    0.7676   -1.7794 C   0  0  0  0  0  0  0  0  0  0  0  0
    4.2711    0.7155   -2.7722 H   0  0  0  0  0  0  0  0  0  0  0  0
    5.3006   -0.3089   -1.2240 C   0  0  0  0  0  0  0  0  0  0  0  0
    5.3752   -1.2425   -1.7618 H   0  0  0  0  0  0  0  0  0  0  0  0
    5.8597   -0.2464    0.0828 C   0  0  0  0  0  0  0  0  0  0  0  0
    6.4983   -1.3385    0.6925 C   0  0  0  0  0  0  0  0  0  0  0  0
    6.5773   -2.2753    0.1610 H   0  0  0  0  0  0  0  0  0  0  0  0
    7.0122   -1.1953    1.9547 C   0  0  0  0  0  0  0  0  0  0  0  0
    7.5078   -2.0170    2.4473 H   0  0  0  0  0  0  0  0  0  0  0  0
    6.9011    0.0300    2.6276 C   0  0  0  0  0  0  0  0  0  0  0  0
    5.7817    0.9560    0.8167 C   0  0  0  0  0  0  0  0  0  0  0  0
    5.1365    2.0958    0.2289 C   0  0  0  0  0  0  0  0  0  0  0  0
    7.4463    0.2168    4.0004 C   0  0  0  0  0  0  0  0  0  0  0  0
    8.1360    1.0678    4.0008 H   0  0  0  0  0  0  0  0  0  0  0  0
    7.9651   -0.6716    4.3500 H   0  0  0  0  0  0  0  0  0  0  0  0
    6.6219    0.4506    4.6817 H   0  0  0  0  0  0  0  0  0  0  0  0
    7.0922    4.5951    4.1532 H   0  0  0  0  0  0  0  0  0  0  0  0
    5.8039    4.1213    4.9455 H   0  0  0  0  0  0  0  0  0  0  0  0
  1  2  1  0  0  0  0
  3  1  1  0  0  0  0
  4 33  1  0  0  0  0
  4 34  1  0  0  0  0
  5  1  1  0  0  0  0
  6 26  1  0  0  0  0
  6  1  1  0  0  0  0
  7  9  1  0  0  0  0
  7  8  1  0  0  0  0
 10  7  1  0  0  0  0
 11  5  1  0  0  0  0
 11  7  1  0  0  0  0
 12 11  2  0  0  0  0
 13 12  1  0  0  0  0
 14 16  2  0  0  0  0
 14 12  1  0  0  0  0
 15 14  1  0  0  0  0
 16 28  1  0  0  0  0
 17 19  2  0  0  0  0
 17 16  1  0  0  0  0
 18 17  1  0  0  0  0
 19 21  1  0  0  0  0
 20 19  1  0  0  0  0
 21 22  2  0  0  0  0
 21 27  1  0  0  0  0
 22 24  1  0  0  0  0
 23 22  1  0  0  0  0
 24 25  1  0  0  0  0
 24 26  2  0  0  0  0
 26 29  1  0  0  0  0
 27  6  1  0  0  0  0
 28 27  2  0  0  0  0
 28  5  1  0  0  0  0
 29 30  1  0  0  0  0
 29 31  1  0  0  0  0
 29 32  1  0  0  0  0
M  END
$$$$
