CSD_code = ODAWUN | q = 1 | S = 0 | Stoichiometry = C25H22AuI2P2S(1+) | MND = 4
 OpenBabel04212202073D

 53 57  0  0  0  0  0  0  0  0999 V2000
    3.6627   10.8266   18.0140 Au  0  0  0  0  0  0  0  0  0  0  0  0
    1.6835    9.9927   19.5143 I   0  0  0  0  0  0  0  0  0  0  0  0
    3.4739   13.3271   18.7573 I   0  0  0  0  0  0  0  0  0  0  0  0
    4.0068    8.5533   17.6967 P   0  0  0  0  0  4  0  0  0  0  0  0
    6.4781    9.7883   16.6452 P   0  0  0  0  0  4  0  0  0  0  0  0
    5.3369   11.4201   16.4123 S   0  0  0  0  0  0  0  0  0  0  0  0
    5.3550    8.3425   16.4414 C   0  0  0  0  0  0  0  0  0  0  0  0
    5.8700    7.3860   16.5788 H   0  0  0  0  0  0  0  0  0  0  0  0
    4.9325    8.3890   15.4293 H   0  0  0  0  0  0  0  0  0  0  0  0
    2.6454    7.5776   17.0528 C   0  0  0  0  0  0  0  0  0  0  0  0
    2.1843    7.8720   15.7677 C   0  0  0  0  0  0  0  0  0  0  0  0
    2.6747    8.6301   15.1683 H   0  0  0  0  0  0  0  0  0  0  0  0
    1.0800    7.2059   15.2732 C   0  0  0  0  0  0  0  0  0  0  0  0
    0.7189    7.4284   14.2810 H   0  0  0  0  0  0  0  0  0  0  0  0
    0.4287    6.2660   16.0589 C   0  0  0  0  0  0  0  0  0  0  0  0
   -0.4377    5.7533   15.6714 H   0  0  0  0  0  0  0  0  0  0  0  0
    0.8703    5.9989   17.3461 C   0  0  0  0  0  0  0  0  0  0  0  0
    0.3474    5.2837   17.9613 H   0  0  0  0  0  0  0  0  0  0  0  0
    1.9704    6.6608   17.8573 C   0  0  0  0  0  0  0  0  0  0  0  0
    2.2986    6.4794   18.8709 H   0  0  0  0  0  0  0  0  0  0  0  0
    4.6799    7.7595   19.1646 C   0  0  0  0  0  0  0  0  0  0  0  0
    4.9834    6.3984   19.0980 C   0  0  0  0  0  0  0  0  0  0  0  0
    4.7901    5.8424   18.1889 H   0  0  0  0  0  0  0  0  0  0  0  0
    5.5065    5.7654   20.2089 C   0  0  0  0  0  0  0  0  0  0  0  0
    5.7300    4.7104   20.1667 H   0  0  0  0  0  0  0  0  0  0  0  0
    5.7305    6.4792   21.3774 C   0  0  0  0  0  0  0  0  0  0  0  0
    6.1286    5.9763   22.2449 H   0  0  0  0  0  0  0  0  0  0  0  0
    5.4363    7.8315   21.4389 C   0  0  0  0  0  0  0  0  0  0  0  0
    5.6035    8.3859   22.3489 H   0  0  0  0  0  0  0  0  0  0  0  0
    4.9109    8.4762   20.3343 C   0  0  0  0  0  0  0  0  0  0  0  0
    4.6802    9.5318   20.3884 H   0  0  0  0  0  0  0  0  0  0  0  0
    7.2321    9.6475   18.2794 C   0  0  0  0  0  0  0  0  0  0  0  0
    7.8381    8.4464   18.6471 C   0  0  0  0  0  0  0  0  0  0  0  0
    7.8750    7.6188   17.9514 H   0  0  0  0  0  0  0  0  0  0  0  0
    8.4007    8.3314   19.9030 C   0  0  0  0  0  0  0  0  0  0  0  0
    8.8725    7.4060   20.1947 H   0  0  0  0  0  0  0  0  0  0  0  0
    8.3630    9.4039   20.7834 C   0  0  0  0  0  0  0  0  0  0  0  0
    8.8025    9.3056   21.7637 H   0  0  0  0  0  0  0  0  0  0  0  0
    7.7780   10.6024   20.4075 C   0  0  0  0  0  0  0  0  0  0  0  0
    7.7615   11.4394   21.0880 H   0  0  0  0  0  0  0  0  0  0  0  0
    7.2133   10.7324   19.1504 C   0  0  0  0  0  0  0  0  0  0  0  0
    6.7694   11.6712   18.8449 H   0  0  0  0  0  0  0  0  0  0  0  0
    7.7125    9.7802   15.3374 C   0  0  0  0  0  0  0  0  0  0  0  0
    9.0686    9.7265   15.6446 C   0  0  0  0  0  0  0  0  0  0  0  0
    9.3933    9.6629   16.6738 H   0  0  0  0  0  0  0  0  0  0  0  0
    9.9916    9.7652   14.6146 C   0  0  0  0  0  0  0  0  0  0  0  0
   11.0457    9.7269   14.8414 H   0  0  0  0  0  0  0  0  0  0  0  0
    9.5651    9.8654   13.2992 C   0  0  0  0  0  0  0  0  0  0  0  0
   10.2908    9.9035   12.5019 H   0  0  0  0  0  0  0  0  0  0  0  0
    8.2112    9.9298   13.0004 C   0  0  0  0  0  0  0  0  0  0  0  0
    7.8851   10.0183   11.9758 H   0  0  0  0  0  0  0  0  0  0  0  0
    7.2772    9.8906   14.0173 C   0  0  0  0  0  0  0  0  0  0  0  0
    6.2210    9.9637   13.7952 H   0  0  0  0  0  0  0  0  0  0  0  0
  1  3  1  0  0  0  0
  1  2  1  0  0  0  0
  4  1  1  0  0  0  0
  4 21  1  0  0  0  0
  5 32  1  0  0  0  0
  6  5  1  0  0  0  0
  6  1  1  0  0  0  0
  7  8  1  0  0  0  0
  7  5  1  0  0  0  0
  7  4  1  0  0  0  0
  9  7  1  0  0  0  0
 10  4  1  0  0  0  0
 10 19  1  0  0  0  0
 11 10  2  0  0  0  0
 12 11  1  0  0  0  0
 13 11  1  0  0  0  0
 13 15  2  0  0  0  0
 14 13  1  0  0  0  0
 15 17  1  0  0  0  0
 16 15  1  0  0  0  0
 17 19  2  0  0  0  0
 17 18  1  0  0  0  0
 19 20  1  0  0  0  0
 21 30  1  0  0  0  0
 22 21  2  0  0  0  0
 22 24  1  0  0  0  0
 23 22  1  0  0  0  0
 24 26  2  0  0  0  0
 25 24  1  0  0  0  0
 26 28  1  0  0  0  0
 26 27  1  0  0  0  0
 28 29  1  0  0  0  0
 30 31  1  0  0  0  0
 30 28  2  0  0  0  0
 32 33  2  0  0  0  0
 32 41  1  0  0  0  0
 33 35  1  0  0  0  0
 34 33  1  0  0  0  0
 35 36  1  0  0  0  0
 35 37  2  0  0  0  0
 37 38  1  0  0  0  0
 39 37  1  0  0  0  0
 39 40  1  0  0  0  0
 41 39  2  0  0  0  0
 42 41  1  0  0  0  0
 43 44  1  0  0  0  0
 43  5  1  0  0  0  0
 44 45  1  0  0  0  0
 46 47  1  0  0  0  0
 46 44  2  0  0  0  0
 48 46  1  0  0  0  0
 49 48  1  0  0  0  0
 50 48  2  0  0  0  0
 50 52  1  0  0  0  0
 51 50  1  0  0  0  0
 52 43  2  0  0  0  0
 53 52  1  0  0  0  0
M  END
$$$$
