CSD_code = ODAWIB | q = 1 | S = 0 | Stoichiometry = C25H22AuBr2P2S(1+) | MND = 4
 OpenBabel04212202073D

 53 57  0  0  0  0  0  0  0  0999 V2000
    3.5333    6.2402    7.1252 Au  0  0  0  0  0  0  0  0  0  0  0  0
    3.3871    3.9057    7.8101 Br  0  0  0  0  0  0  0  0  0  0  0  0
    1.7823    7.0575    8.6193 Br  0  0  0  0  0  0  0  0  0  0  0  0
    6.2556    7.3297    5.7390 P   0  0  0  0  0  4  0  0  0  0  0  0
    3.7824    8.5300    6.8247 P   0  0  0  0  0  4  0  0  0  0  0  0
    5.1345    5.6904    5.4402 S   0  0  0  0  0  0  0  0  0  0  0  0
    5.1242    8.7760    5.5661 C   0  0  0  0  0  0  0  0  0  0  0  0
    4.7023    8.7517    4.5539 H   0  0  0  0  0  0  0  0  0  0  0  0
    5.6400    9.7283    5.7236 H   0  0  0  0  0  0  0  0  0  0  0  0
    7.5087    7.3968    4.4514 C   0  0  0  0  0  0  0  0  0  0  0  0
    8.8606    7.4238    4.7804 C   0  0  0  0  0  0  0  0  0  0  0  0
    9.1698    7.4309    5.8163 H   0  0  0  0  0  0  0  0  0  0  0  0
    9.7986    7.4327    3.7634 C   0  0  0  0  0  0  0  0  0  0  0  0
   10.8496    7.4513    4.0069 H   0  0  0  0  0  0  0  0  0  0  0  0
    9.3906    7.4076    2.4385 C   0  0  0  0  0  0  0  0  0  0  0  0
   10.1278    7.4077    1.6508 H   0  0  0  0  0  0  0  0  0  0  0  0
    8.0410    7.3693    2.1174 C   0  0  0  0  0  0  0  0  0  0  0  0
    7.7298    7.3386    1.0847 H   0  0  0  0  0  0  0  0  0  0  0  0
    7.0922    7.3603    3.1211 C   0  0  0  0  0  0  0  0  0  0  0  0
    6.0387    7.3062    2.8813 H   0  0  0  0  0  0  0  0  0  0  0  0
    6.9826    7.4245    7.3887 C   0  0  0  0  0  0  0  0  0  0  0  0
    7.5788    8.6162    7.8011 C   0  0  0  0  0  0  0  0  0  0  0  0
    7.6189    9.4657    7.1328 H   0  0  0  0  0  0  0  0  0  0  0  0
    8.1274    8.6937    9.0662 C   0  0  0  0  0  0  0  0  0  0  0  0
    8.5913    9.6117    9.3922 H   0  0  0  0  0  0  0  0  0  0  0  0
    8.0869    7.5932    9.9112 C   0  0  0  0  0  0  0  0  0  0  0  0
    8.5172    7.6613   10.8981 H   0  0  0  0  0  0  0  0  0  0  0  0
    7.5110    6.4049    9.4912 C   0  0  0  0  0  0  0  0  0  0  0  0
    7.4920    5.5461   10.1438 H   0  0  0  0  0  0  0  0  0  0  0  0
    6.9597    6.3123    8.2248 C   0  0  0  0  0  0  0  0  0  0  0  0
    6.5254    5.3805    7.8860 H   0  0  0  0  0  0  0  0  0  0  0  0
    4.4147    9.3833    8.2772 C   0  0  0  0  0  0  0  0  0  0  0  0
    4.6519   10.7548    8.1654 C   0  0  0  0  0  0  0  0  0  0  0  0
    4.4226   11.2714    7.2414 H   0  0  0  0  0  0  0  0  0  0  0  0
    5.1540   11.4464    9.2504 C   0  0  0  0  0  0  0  0  0  0  0  0
    5.3287   12.5086    9.1731 H   0  0  0  0  0  0  0  0  0  0  0  0
    5.4201   10.7798   10.4379 C   0  0  0  0  0  0  0  0  0  0  0  0
    5.8033   11.3273   11.2848 H   0  0  0  0  0  0  0  0  0  0  0  0
    5.1857    9.4188   10.5448 C   0  0  0  0  0  0  0  0  0  0  0  0
    5.3834    8.9033   11.4713 H   0  0  0  0  0  0  0  0  0  0  0  0
    4.6832    8.7137    9.4660 C   0  0  0  0  0  0  0  0  0  0  0  0
    4.4958    7.6530    9.5560 H   0  0  0  0  0  0  0  0  0  0  0  0
    2.3574    9.4075    6.1825 C   0  0  0  0  0  0  0  0  0  0  0  0
    1.9329    9.1257    4.8818 C   0  0  0  0  0  0  0  0  0  0  0  0
    2.4877    8.4341    4.2595 H   0  0  0  0  0  0  0  0  0  0  0  0
    0.7817    9.7185    4.4011 C   0  0  0  0  0  0  0  0  0  0  0  0
    0.4490    9.5075    3.3964 H   0  0  0  0  0  0  0  0  0  0  0  0
    0.0476   10.5693    5.2151 C   0  0  0  0  0  0  0  0  0  0  0  0
   -0.8543   11.0248    4.8366 H   0  0  0  0  0  0  0  0  0  0  0  0
    0.4540   10.8208    6.5170 C   0  0  0  0  0  0  0  0  0  0  0  0
   -0.1322   11.4655    7.1528 H   0  0  0  0  0  0  0  0  0  0  0  0
    1.6020   10.2337    7.0144 C   0  0  0  0  0  0  0  0  0  0  0  0
    1.9095   10.4019    8.0367 H   0  0  0  0  0  0  0  0  0  0  0  0
  1  2  1  0  0  0  0
  1  3  1  0  0  0  0
  4 21  1  0  0  0  0
  5  1  1  0  0  0  0
  5 32  1  0  0  0  0
  6  4  1  0  0  0  0
  6  1  1  0  0  0  0
  7  9  1  0  0  0  0
  7  4  1  0  0  0  0
  7  5  1  0  0  0  0
  8  7  1  0  0  0  0
 10 11  1  0  0  0  0
 10  4  1  0  0  0  0
 11 12  1  0  0  0  0
 13 14  1  0  0  0  0
 13 11  2  0  0  0  0
 15 13  1  0  0  0  0
 16 15  1  0  0  0  0
 17 15  2  0  0  0  0
 17 19  1  0  0  0  0
 18 17  1  0  0  0  0
 19 10  2  0  0  0  0
 20 19  1  0  0  0  0
 21 22  2  0  0  0  0
 21 30  1  0  0  0  0
 22 24  1  0  0  0  0
 23 22  1  0  0  0  0
 24 25  1  0  0  0  0
 24 26  2  0  0  0  0
 26 27  1  0  0  0  0
 28 26  1  0  0  0  0
 28 29  1  0  0  0  0
 30 28  2  0  0  0  0
 31 30  1  0  0  0  0
 32 41  1  0  0  0  0
 33 32  2  0  0  0  0
 33 35  1  0  0  0  0
 34 33  1  0  0  0  0
 35 37  2  0  0  0  0
 36 35  1  0  0  0  0
 37 39  1  0  0  0  0
 37 38  1  0  0  0  0
 39 40  1  0  0  0  0
 41 42  1  0  0  0  0
 41 39  2  0  0  0  0
 43  5  1  0  0  0  0
 43 52  1  0  0  0  0
 44 43  2  0  0  0  0
 45 44  1  0  0  0  0
 46 44  1  0  0  0  0
 46 48  2  0  0  0  0
 47 46  1  0  0  0  0
 48 50  1  0  0  0  0
 49 48  1  0  0  0  0
 50 52  2  0  0  0  0
 50 51  1  0  0  0  0
 52 53  1  0  0  0  0
M  END
$$$$
