CSD_code = ODAXEY | q = 1 | S = 0 | Stoichiometry = C25H22AuI2P2Se(1+) | MND = 4
 OpenBabel04212202073D

 53 57  0  0  0  0  0  0  0  0999 V2000
    8.9425    3.4312    2.5477 Au  0  0  0  0  0  0  0  0  0  0  0  0
    8.7948    3.0684   -0.0449 I   0  0  0  0  0  0  0  0  0  0  0  0
    7.5774    1.3578    3.4284 I   0  0  0  0  0  0  0  0  0  0  0  0
   10.1259    5.4603    1.7687 Se  0  0  0  0  0  0  0  0  0  0  0  0
    9.2131    3.8457    4.7948 P   0  0  0  0  0  4  0  0  0  0  0  0
   10.0516    6.5038    3.6786 P   0  0  0  0  0  4  0  0  0  0  0  0
   10.3998    5.2585    4.9893 C   0  0  0  0  0  0  0  0  0  0  0  0
   10.3112    5.6907    5.9925 H   0  0  0  0  0  0  0  0  0  0  0  0
   11.4264    4.8984    4.8412 H   0  0  0  0  0  0  0  0  0  0  0  0
   11.3459    7.7556    3.7220 C   0  0  0  0  0  0  0  0  0  0  0  0
   12.6441    7.3664    3.3966 C   0  0  0  0  0  0  0  0  0  0  0  0
   12.8559    6.3359    3.1381 H   0  0  0  0  0  0  0  0  0  0  0  0
   13.6515    8.3113    3.3864 C   0  0  0  0  0  0  0  0  0  0  0  0
   14.6589    8.0195    3.1338 H   0  0  0  0  0  0  0  0  0  0  0  0
   13.3620    9.6344    3.6887 C   0  0  0  0  0  0  0  0  0  0  0  0
   14.1499   10.3711    3.6734 H   0  0  0  0  0  0  0  0  0  0  0  0
   12.0658   10.0186    3.9960 C   0  0  0  0  0  0  0  0  0  0  0  0
   11.8445   11.0510    4.2177 H   0  0  0  0  0  0  0  0  0  0  0  0
   11.0463    9.0833    4.0097 C   0  0  0  0  0  0  0  0  0  0  0  0
   10.0308    9.3787    4.2336 H   0  0  0  0  0  0  0  0  0  0  0  0
    8.4354    7.2269    4.0516 C   0  0  0  0  0  0  0  0  0  0  0  0
    7.4828    7.3313    3.0438 C   0  0  0  0  0  0  0  0  0  0  0  0
    7.7122    6.9864    2.0421 H   0  0  0  0  0  0  0  0  0  0  0  0
    6.2463    7.8836    3.3268 C   0  0  0  0  0  0  0  0  0  0  0  0
    5.5057    7.9656    2.5467 H   0  0  0  0  0  0  0  0  0  0  0  0
    5.9676    8.3327    4.6075 C   0  0  0  0  0  0  0  0  0  0  0  0
    5.0038    8.7646    4.8272 H   0  0  0  0  0  0  0  0  0  0  0  0
    6.9249    8.2419    5.6079 C   0  0  0  0  0  0  0  0  0  0  0  0
    6.7085    8.6065    6.6001 H   0  0  0  0  0  0  0  0  0  0  0  0
    8.1630    7.6918    5.3378 C   0  0  0  0  0  0  0  0  0  0  0  0
    8.9155    7.6350    6.1126 H   0  0  0  0  0  0  0  0  0  0  0  0
    7.7290    4.4317    5.6191 C   0  0  0  0  0  0  0  0  0  0  0  0
    6.5503    4.6280    4.9069 C   0  0  0  0  0  0  0  0  0  0  0  0
    6.5070    4.4051    3.8482 H   0  0  0  0  0  0  0  0  0  0  0  0
    5.4283    5.1004    5.5623 C   0  0  0  0  0  0  0  0  0  0  0  0
    4.5103    5.2423    5.0142 H   0  0  0  0  0  0  0  0  0  0  0  0
    5.4831    5.3740    6.9194 C   0  0  0  0  0  0  0  0  0  0  0  0
    4.6026    5.7306    7.4306 H   0  0  0  0  0  0  0  0  0  0  0  0
    6.6603    5.1823    7.6282 C   0  0  0  0  0  0  0  0  0  0  0  0
    6.6960    5.3891    8.6868 H   0  0  0  0  0  0  0  0  0  0  0  0
    7.7891    4.7138    6.9847 C   0  0  0  0  0  0  0  0  0  0  0  0
    8.7074    4.5477    7.5343 H   0  0  0  0  0  0  0  0  0  0  0  0
    9.9742    2.5314    5.7521 C   0  0  0  0  0  0  0  0  0  0  0  0
   11.2792    2.1567    5.4260 C   0  0  0  0  0  0  0  0  0  0  0  0
   11.8275    2.6851    4.6546 H   0  0  0  0  0  0  0  0  0  0  0  0
   11.8618    1.0858    6.0755 C   0  0  0  0  0  0  0  0  0  0  0  0
   12.8698    0.7917    5.8266 H   0  0  0  0  0  0  0  0  0  0  0  0
   11.1440    0.3815    7.0308 C   0  0  0  0  0  0  0  0  0  0  0  0
   11.5999   -0.4593    7.5296 H   0  0  0  0  0  0  0  0  0  0  0  0
    9.8375    0.7368    7.3305 C   0  0  0  0  0  0  0  0  0  0  0  0
    9.2747    0.1717    8.0568 H   0  0  0  0  0  0  0  0  0  0  0  0
    9.2394    1.8032    6.6865 C   0  0  0  0  0  0  0  0  0  0  0  0
    8.2097    2.0605    6.8906 H   0  0  0  0  0  0  0  0  0  0  0  0
  1  3  1  0  0  0  0
  1  5  1  0  0  0  0
  2  1  1  0  0  0  0
  4  1  1  0  0  0  0
  4  6  1  0  0  0  0
  5  7  1  0  0  0  0
  5 32  1  0  0  0  0
  5 43  1  0  0  0  0
  6 10  1  0  0  0  0
  6 21  1  0  0  0  0
  6  7  1  0  0  0  0
  7  8  1  0  0  0  0
  9  7  1  0  0  0  0
 10 19  1  0  0  0  0
 11 10  2  0  0  0  0
 12 11  1  0  0  0  0
 13 11  1  0  0  0  0
 13 15  2  0  0  0  0
 14 13  1  0  0  0  0
 15 17  1  0  0  0  0
 16 15  1  0  0  0  0
 17 19  2  0  0  0  0
 17 18  1  0  0  0  0
 19 20  1  0  0  0  0
 21 30  1  0  0  0  0
 22 24  1  0  0  0  0
 22 21  2  0  0  0  0
 23 22  1  0  0  0  0
 24 26  2  0  0  0  0
 25 24  1  0  0  0  0
 26 27  1  0  0  0  0
 26 28  1  0  0  0  0
 28 29  1  0  0  0  0
 30 28  2  0  0  0  0
 30 31  1  0  0  0  0
 32 41  1  0  0  0  0
 33 35  1  0  0  0  0
 33 32  2  0  0  0  0
 34 33  1  0  0  0  0
 35 37  2  0  0  0  0
 36 35  1  0  0  0  0
 37 38  1  0  0  0  0
 37 39  1  0  0  0  0
 39 40  1  0  0  0  0
 41 42  1  0  0  0  0
 41 39  2  0  0  0  0
 43 52  1  0  0  0  0
 44 43  2  0  0  0  0
 44 46  1  0  0  0  0
 45 44  1  0  0  0  0
 46 48  2  0  0  0  0
 47 46  1  0  0  0  0
 48 50  1  0  0  0  0
 48 49  1  0  0  0  0
 50 51  1  0  0  0  0
 52 53  1  0  0  0  0
 52 50  2  0  0  0  0
M  END
$$$$
