CSD_code = ODAYUO | q = 0 | S = 0 | Stoichiometry = C12H17Br3N2OZn | MND = 4
 OpenBabel04212202073D

 36 37  0  0  0  0  0  0  0  0999 V2000
    2.0573   10.4690    1.3885 Zn  0  0  0  0  0  0  0  0  0  0  0  0
    6.6498    8.9383    6.7788 Br  0  0  0  0  0  0  0  0  0  0  0  0
    0.7377   11.7973    0.0055 Br  0  0  0  0  0  0  0  0  0  0  0  0
    2.6716    8.2947    0.3789 Br  0  0  0  0  0  0  0  0  0  0  0  0
    2.0273   10.3248    3.2206 O   0  0  0  0  0  0  0  0  0  0  0  0
    4.0509   11.1862    1.2792 N   0  0  0  0  0  0  0  0  0  0  0  0
    4.3293   10.1850   -1.5824 N   0  0  0  0  0  4  0  0  0  0  0  0
    5.3144    9.9376   -1.4536 H   0  0  0  0  0  0  0  0  0  0  0  0
    3.7742    9.5317   -0.9397 H   0  0  0  0  0  0  0  0  0  0  0  0
    4.4047   10.2790    3.5185 C   0  0  0  0  0  0  0  0  0  0  0  0
    3.0541   10.0443    3.9299 C   0  0  0  0  0  0  0  0  0  0  0  0
    2.8510    9.4856    5.2218 C   0  0  0  0  0  0  0  0  0  0  0  0
    1.8288    9.3168    5.5246 H   0  0  0  0  0  0  0  0  0  0  0  0
    3.8872    9.1591    6.0471 C   0  0  0  0  0  0  0  0  0  0  0  0
    3.7038    8.7263    7.0190 H   0  0  0  0  0  0  0  0  0  0  0  0
    5.2005    9.3909    5.6233 C   0  0  0  0  0  0  0  0  0  0  0  0
    5.4541    9.9424    4.4000 C   0  0  0  0  0  0  0  0  0  0  0  0
    6.4739   10.1207    4.0891 H   0  0  0  0  0  0  0  0  0  0  0  0
    4.7901   10.8812    2.2914 C   0  0  0  0  0  3  0  0  0  0  0  0
    5.8613   11.1128    2.2252 H   0  0  0  0  0  0  0  0  0  0  0  0
    4.6948   11.9004    0.1960 C   0  0  0  0  0  0  0  0  0  0  0  0
    5.7804   11.7119    0.2035 H   0  0  0  0  0  0  0  0  0  0  0  0
    4.5418   12.9738    0.3630 H   0  0  0  0  0  0  0  0  0  0  0  0
    4.1152   11.5897   -1.1821 C   0  0  0  0  0  0  0  0  0  0  0  0
    4.5982   12.2406   -1.9150 H   0  0  0  0  0  0  0  0  0  0  0  0
    3.0443   11.7981   -1.1834 H   0  0  0  0  0  0  0  0  0  0  0  0
    3.9242    9.8386   -2.9778 C   0  0  0  0  0  0  0  0  0  0  0  0
    4.3905   10.5686   -3.6496 H   0  0  0  0  0  0  0  0  0  0  0  0
    2.4118    9.8920   -3.1095 C   0  0  0  0  0  0  0  0  0  0  0  0
    2.1294    9.6274   -4.1234 H   0  0  0  0  0  0  0  0  0  0  0  0
    2.0105   10.8783   -2.8985 H   0  0  0  0  0  0  0  0  0  0  0  0
    1.9524    9.1761   -2.4343 H   0  0  0  0  0  0  0  0  0  0  0  0
    4.4488    8.4396   -3.2647 C   0  0  0  0  0  0  0  0  0  0  0  0
    4.0186    7.7318   -2.5599 H   0  0  0  0  0  0  0  0  0  0  0  0
    5.5337    8.3971   -3.1947 H   0  0  0  0  0  0  0  0  0  0  0  0
    4.1659    8.1374   -4.2677 H   0  0  0  0  0  0  0  0  0  0  0  0
  1  5  1  0  0  0  0
  3  1  1  0  0  0  0
  4  1  1  0  0  0  0
  5 11  1  0  0  0  0
  6  1  1  0  0  0  0
  6 19  1  0  0  0  0
  7  8  1  0  0  0  0
  7 24  1  0  0  0  0
  7  9  1  0  0  0  0
 10 11  2  0  0  0  0
 10 17  1  0  0  0  0
 11 12  1  0  0  0  0
 12 13  1  0  0  0  0
 12 14  2  0  0  0  0
 14 15  1  0  0  0  0
 16 14  1  0  0  0  0
 16  2  1  0  0  0  0
 17 16  2  0  0  0  0
 18 17  1  0  0  0  0
 19 10  1  0  0  0  0
 20 19  1  0  0  0  0
 21 22  1  0  0  0  0
 21 23  1  0  0  0  0
 21  6  1  0  0  0  0
 24 21  1  0  0  0  0
 25 24  1  0  0  0  0
 26 24  1  0  0  0  0
 27  7  1  0  0  0  0
 28 27  1  0  0  0  0
 29 27  1  0  0  0  0
 29 31  1  0  0  0  0
 29 32  1  0  0  0  0
 30 29  1  0  0  0  0
 33 35  1  0  0  0  0
 33 27  1  0  0  0  0
 33 34  1  0  0  0  0
 36 33  1  0  0  0  0
M  END
$$$$
