CSD_code = ODECIM | q = 0 | S = 0 | Stoichiometry = C16H10BrN4O3Re | MND = 6
 OpenBabel04212202073D

 35 38  0  0  0  0  0  0  0  0999 V2000
    1.3652    4.4870    7.3509 Br  0  0  0  0  0  0  0  0  0  0  0  0
    0.0725    1.6995    9.8971 C   0  0  0  0  0  0  0  0  0  0  0  0
    0.9809    1.7533   11.0388 C   0  0  0  0  0  0  0  0  0  0  0  0
    1.6666    0.7903   11.7545 C   0  0  0  0  0  0  0  0  0  0  0  0
    1.5875   -0.2611   11.5205 H   0  0  0  0  0  0  0  0  0  0  0  0
    2.4782    1.2234   12.7954 C   0  0  0  0  0  0  0  0  0  0  0  0
    3.0335    0.4968   13.3693 H   0  0  0  0  0  0  0  0  0  0  0  0
    2.5941    2.5711   13.1088 C   0  0  0  0  0  0  0  0  0  0  0  0
    3.2398    2.8694   13.9208 H   0  0  0  0  0  0  0  0  0  0  0  0
    1.8978    3.5407   12.3970 C   0  0  0  0  0  0  0  0  0  0  0  0
    1.9819    4.5895   12.6305 H   0  0  0  0  0  0  0  0  0  0  0  0
    1.0942    3.1127   11.3622 C   0  0  0  0  0  0  0  0  0  0  0  0
    0.2324    3.8340   10.4196 C   0  0  0  0  0  0  0  0  0  0  0  0
   -0.7912    5.8918    9.8091 C   0  0  0  0  0  0  0  0  0  0  0  0
   -0.8985    7.1967   10.3188 C   0  0  0  0  0  0  0  0  0  0  0  0
   -0.3365    7.4272   11.2087 H   0  0  0  0  0  0  0  0  0  0  0  0
   -1.6911    8.1238    9.6855 C   0  0  0  0  0  0  0  0  0  0  0  0
   -1.7752    9.1328   10.0591 H   0  0  0  0  0  0  0  0  0  0  0  0
   -2.3813    7.7196    8.5495 C   0  0  0  0  0  0  0  0  0  0  0  0
   -3.0265    8.3957    8.0124 H   0  0  0  0  0  0  0  0  0  0  0  0
   -2.2236    6.4242    8.0994 C   0  0  0  0  0  0  0  0  0  0  0  0
   -2.7614    6.0990    7.2169 H   0  0  0  0  0  0  0  0  0  0  0  0
   -1.4919    4.4158    5.8480 C   0  0  0  0  0  2  0  0  0  0  0  0
   -2.8496    2.9864    7.9113 C   0  0  0  0  0  2  0  0  0  0  0  0
   -0.4974    2.0173    6.5854 C   0  0  0  0  0  2  0  0  0  0  0  0
   -0.3439    0.5742    9.3213 N   0  0  0  0  0  0  0  0  0  0  0  0
   -0.9454    0.6227    8.5111 H   0  0  0  0  0  0  0  0  0  0  0  0
    0.0769   -0.3050    9.5662 H   0  0  0  0  0  0  0  0  0  0  0  0
   -0.3220    2.9071    9.5360 N   0  0  0  0  0  0  0  0  0  0  0  0
    0.0128    5.0841   10.5537 N   0  0  0  0  0  0  0  0  0  0  0  0
   -1.4419    5.5162    8.6886 N   0  0  0  0  0  0  0  0  0  0  0  0
   -1.6830    4.9056    4.8308 O   0  0  0  0  0  1  0  0  0  0  0  0
   -3.9201    2.6147    8.1111 O   0  0  0  0  0  1  0  0  0  0  0  0
   -0.1036    1.1149    5.9897 O   0  0  0  0  0  1  0  0  0  0  0  0
   -1.0468    3.6046    7.5641 Re  0  0  0  0  0  0  0  0  0  0  0  0
  1 35  1  0  0  0  0
  2  3  2  0  0  0  0
  3 12  1  0  0  0  0
  3  4  1  0  0  0  0
  4  6  2  0  0  0  0
  5  4  1  0  0  0  0
  6  8  1  0  0  0  0
  6  7  1  0  0  0  0
  8  9  1  0  0  0  0
 10 11  1  0  0  0  0
 10  8  2  0  0  0  0
 12 10  1  0  0  0  0
 13 30  1  0  0  0  0
 13 12  2  0  0  0  0
 14 15  1  0  0  0  0
 14 30  2  0  0  0  0
 15 16  1  0  0  0  0
 17 18  1  0  0  0  0
 17 15  2  0  0  0  0
 19 17  1  0  0  0  0
 20 19  1  0  0  0  0
 21 19  2  0  0  0  0
 21 31  1  0  0  0  0
 22 21  1  0  0  0  0
 23 35  1  0  0  0  0
 24 33  1  0  0  0  0
 25 35  1  0  0  0  0
 26 28  1  0  0  0  0
 26  2  1  0  0  0  0
 27 26  1  0  0  0  0
 29  2  1  0  0  0  0
 29 13  1  0  0  0  0
 31 14  1  0  0  0  0
 32 23  1  0  0  0  0
 34 25  1  0  0  0  0
 35 24  1  0  0  0  0
 35 31  1  0  0  0  0
 35 29  1  0  0  0  0
M  END
$$$$
