CSD_code = ODERAQ | q = 0 | S = 0 | Stoichiometry = C14H18CdI2N2 | MND = 4
 OpenBabel04212202073D

 37 38  0  0  0  0  0  0  0  0999 V2000
    1.5828    3.3279    3.1946 Cd  0  0  0  0  0  0  0  0  0  0  0  0
   -0.3451    5.1195    3.7435 I   0  0  0  0  0  0  0  0  0  0  0  0
    4.2485    2.9863    3.1617 I   0  0  0  0  0  0  0  0  0  0  0  0
    0.7888    1.3272    4.2938 N   0  0  0  0  0  0  0  0  0  0  0  0
    1.6008    0.2937    4.4930 C   0  0  0  0  0  3  0  0  0  0  0  0
    2.6219    0.4082    4.1489 H   0  0  0  0  0  0  0  0  0  0  0  0
    1.1991   -0.8832    5.1130 C   0  0  0  0  0  0  0  0  0  0  0  0
   -0.1224   -0.9643    5.5353 C   0  0  0  0  0  0  0  0  0  0  0  0
   -0.4778   -1.8604    6.0251 H   0  0  0  0  0  0  0  0  0  0  0  0
   -0.9863    0.1048    5.3334 C   0  0  0  0  0  0  0  0  0  0  0  0
   -0.4720    1.2320    4.7035 C   0  0  0  0  0  0  0  0  0  0  0  0
   -1.1034    2.0952    4.5287 H   0  0  0  0  0  0  0  0  0  0  0  0
    2.1606   -2.0051    5.3356 C   0  0  0  0  0  0  0  0  0  0  0  0
    2.4967   -2.0020    6.3724 H   0  0  0  0  0  0  0  0  0  0  0  0
    3.0330   -1.9018    4.6960 H   0  0  0  0  0  0  0  0  0  0  0  0
    1.6848   -2.9640    5.1415 H   0  0  0  0  0  0  0  0  0  0  0  0
   -2.4178    0.0460    5.7585 C   0  0  0  0  0  0  0  0  0  0  0  0
   -3.0060   -0.4801    5.0062 H   0  0  0  0  0  0  0  0  0  0  0  0
   -2.8289    1.0454    5.8735 H   0  0  0  0  0  0  0  0  0  0  0  0
   -2.5179   -0.4920    6.6983 H   0  0  0  0  0  0  0  0  0  0  0  0
    0.8936    2.4292    1.0582 N   0  0  0  0  0  0  0  0  0  0  0  0
    1.7326    1.7132    0.3162 C   0  0  0  0  0  3  0  0  0  0  0  0
    2.7272    1.5643    0.7197 H   0  0  0  0  0  0  0  0  0  0  0  0
    1.3900    1.1759   -0.9186 C   0  0  0  0  0  0  0  0  0  0  0  0
    0.1003    1.4086   -1.3810 C   0  0  0  0  0  0  0  0  0  0  0  0
   -0.2091    1.0124   -2.3384 H   0  0  0  0  0  0  0  0  0  0  0  0
   -0.7913    2.1528   -0.6180 C   0  0  0  0  0  0  0  0  0  0  0  0
   -0.3366    2.6406    0.6010 C   0  0  0  0  0  0  0  0  0  0  0  0
   -0.9908    3.2316    1.2310 H   0  0  0  0  0  0  0  0  0  0  0  0
    2.3749    0.3915   -1.7234 C   0  0  0  0  0  0  0  0  0  0  0  0
    1.9433   -0.5585   -2.0336 H   0  0  0  0  0  0  0  0  0  0  0  0
    3.2794    0.2011   -1.1526 H   0  0  0  0  0  0  0  0  0  0  0  0
    2.6442    0.9441   -2.6229 H   0  0  0  0  0  0  0  0  0  0  0  0
   -2.1866    2.4137   -1.0854 C   0  0  0  0  0  0  0  0  0  0  0  0
   -2.1816    2.7834   -2.1089 H   0  0  0  0  0  0  0  0  0  0  0  0
   -2.6790    3.1435   -0.4486 H   0  0  0  0  0  0  0  0  0  0  0  0
   -2.7655    1.4905   -1.0677 H   0  0  0  0  0  0  0  0  0  0  0  0
  1  2  1  0  0  0  0
  1  4  1  0  0  0  0
  3  1  1  0  0  0  0
  4  5  1  0  0  0  0
  4 11  1  0  0  0  0
  5  7  1  0  0  0  0
  6  5  1  0  0  0  0
  7 13  1  0  0  0  0
  7  8  2  0  0  0  0
  8  9  1  0  0  0  0
 10  8  1  0  0  0  0
 10 17  1  0  0  0  0
 11 10  2  0  0  0  0
 12 11  1  0  0  0  0
 13 14  1  0  0  0  0
 15 13  1  0  0  0  0
 16 13  1  0  0  0  0
 17 19  1  0  0  0  0
 17 20  1  0  0  0  0
 18 17  1  0  0  0  0
 21  1  1  0  0  0  0
 22 23  1  0  0  0  0
 22 21  1  0  0  0  0
 24 22  1  0  0  0  0
 25 24  2  0  0  0  0
 25 27  1  0  0  0  0
 26 25  1  0  0  0  0
 27 28  2  0  0  0  0
 28 21  1  0  0  0  0
 28 29  1  0  0  0  0
 30 32  1  0  0  0  0
 30 24  1  0  0  0  0
 31 30  1  0  0  0  0
 33 30  1  0  0  0  0
 34 37  1  0  0  0  0
 34 27  1  0  0  0  0
 34 36  1  0  0  0  0
 35 34  1  0  0  0  0
M  END
$$$$
