CSD_code = ODIFAJ | q = 0 | S = 0 | Stoichiometry = C18H16Cl2N6O4Pt | MND = 4
 OpenBabel04212202073D

 47 51  0  0  0  0  0  0  0  0999 V2000
   20.1248   14.0110   10.8486 Pt  0  0  0  0  0  0  0  0  0  0  0  0
   17.9288   13.8115   10.5777 Cl  0  0  0  0  0  0  0  0  0  0  0  0
   19.8954   16.2164   10.7089 Cl  0  0  0  0  0  0  0  0  0  0  0  0
   21.1031    6.2915   11.5129 O   0  0  0  0  0  0  0  0  0  0  0  0
   22.5453    7.8744   11.4235 O   0  0  0  0  0  0  0  0  0  0  0  0
   26.5808   12.8113   11.7004 O   0  0  0  0  0  0  0  0  0  0  0  0
   27.8368   14.5272   11.9668 O   0  0  0  0  0  0  0  0  0  0  0  0
   20.4869   12.0092   10.9963 N   0  0  0  0  0  0  0  0  0  0  0  0
   21.9882   10.3824   11.2721 N   0  0  0  0  0  0  0  0  0  0  0  0
   22.8475    9.8625   11.4001 H   0  0  0  0  0  0  0  0  0  0  0  0
   22.1479   14.0405   11.1074 N   0  0  0  0  0  0  0  0  0  0  0  0
   24.0247   12.8734   11.4103 N   0  0  0  0  0  0  0  0  0  0  0  0
   24.6985   12.1267   11.5267 H   0  0  0  0  0  0  0  0  0  0  0  0
   21.3913    7.4595   11.3764 N   0  0  0  0  0  0  0  0  0  0  0  0
   26.7592   14.0248   11.7386 N   0  0  0  0  0  0  0  0  0  0  0  0
   21.7784   11.7249   11.1788 C   0  0  0  0  0  0  0  0  0  0  0  0
   20.7720    9.7800   11.1406 C   0  0  0  0  0  0  0  0  0  0  0  0
   20.3758    8.4349   11.1622 C   0  0  0  0  0  0  0  0  0  0  0  0
   19.0130    8.1339   10.9805 C   0  0  0  0  0  0  0  0  0  0  0  0
   18.0818    9.1855   10.8173 C   0  0  0  0  0  0  0  0  0  0  0  0
   18.4792   10.5115   10.8119 C   0  0  0  0  0  0  0  0  0  0  0  0
   17.7750   11.3210   10.6890 H   0  0  0  0  0  0  0  0  0  0  0  0
   19.8261   10.8129   10.9673 C   0  0  0  0  0  0  0  0  0  0  0  0
   18.5495    6.7162   10.9567 C   0  0  0  0  0  0  0  0  0  0  0  0
   19.1626    6.1209   10.2821 H   0  0  0  0  0  0  0  0  0  0  0  0
   17.5138    6.6391   10.6504 H   0  0  0  0  0  0  0  0  0  0  0  0
   18.6593    6.2679   11.9441 H   0  0  0  0  0  0  0  0  0  0  0  0
   16.6193    8.8982   10.6507 C   0  0  0  0  0  0  0  0  0  0  0  0
   16.0664    9.8313   10.6003 H   0  0  0  0  0  0  0  0  0  0  0  0
   16.2376    8.3175   11.4882 H   0  0  0  0  0  0  0  0  0  0  0  0
   16.4327    8.3440    9.7320 H   0  0  0  0  0  0  0  0  0  0  0  0
   22.6745   12.8209   11.2392 C   0  0  0  0  0  0  0  0  0  0  0  0
   23.1876   14.9240   11.1928 C   0  0  0  0  0  0  0  0  0  0  0  0
   23.2215   16.3109   11.1277 C   0  0  0  0  0  0  0  0  0  0  0  0
   22.2955   16.8487   10.9878 H   0  0  0  0  0  0  0  0  0  0  0  0
   24.4390   16.9599   11.2416 C   0  0  0  0  0  0  0  0  0  0  0  0
   25.6449   16.2449   11.4268 C   0  0  0  0  0  0  0  0  0  0  0  0
   25.6133   14.8406   11.5157 C   0  0  0  0  0  0  0  0  0  0  0  0
   24.3778   14.1901   11.3840 C   0  0  0  0  0  0  0  0  0  0  0  0
   24.4368   18.4578   11.1679 C   0  0  0  0  0  0  0  0  0  0  0  0
   23.4165   18.8184   11.0792 H   0  0  0  0  0  0  0  0  0  0  0  0
   24.9959   18.8066   10.3010 H   0  0  0  0  0  0  0  0  0  0  0  0
   24.8784   18.8934   12.0621 H   0  0  0  0  0  0  0  0  0  0  0  0
   26.9403   16.9783   11.5237 C   0  0  0  0  0  0  0  0  0  0  0  0
   27.6805   16.5437   10.8537 H   0  0  0  0  0  0  0  0  0  0  0  0
   27.3495   16.8877   12.5300 H   0  0  0  0  0  0  0  0  0  0  0  0
   26.8243   18.0285   11.2858 H   0  0  0  0  0  0  0  0  0  0  0  0
  1  8  1  0  0  0  0
  1 11  1  0  0  0  0
  2  1  1  0  0  0  0
  3  1  1  0  0  0  0
  6 15  2  0  0  0  0
  8 16  1  0  0  0  0
  9 10  1  0  0  0  0
 11 33  1  0  0  0  0
 11 32  1  0  0  0  0
 12 13  1  0  0  0  0
 14  5  2  0  0  0  0
 14  4  2  0  0  0  0
 15  7  2  0  0  0  0
 16 32  2  0  0  0  0
 16  9  1  0  0  0  0
 17 18  1  0  0  0  0
 17  9  1  0  0  0  0
 18 14  1  0  0  0  0
 19 18  2  0  0  0  0
 20 19  1  0  0  0  0
 21 20  2  0  0  0  0
 21 23  1  0  0  0  0
 22 21  1  0  0  0  0
 23  8  1  0  0  0  0
 23 17  2  0  0  0  0
 24 19  1  0  0  0  0
 24 27  1  0  0  0  0
 25 24  1  0  0  0  0
 26 24  1  0  0  0  0
 28 20  1  0  0  0  0
 28 30  1  0  0  0  0
 29 28  1  0  0  0  0
 31 28  1  0  0  0  0
 32 12  1  0  0  0  0
 33 39  1  0  0  0  0
 34 33  2  0  0  0  0
 34 36  1  0  0  0  0
 35 34  1  0  0  0  0
 36 37  2  0  0  0  0
 37 38  1  0  0  0  0
 37 44  1  0  0  0  0
 38 15  1  0  0  0  0
 39 12  1  0  0  0  0
 39 38  2  0  0  0  0
 40 36  1  0  0  0  0
 40 43  1  0  0  0  0
 41 40  1  0  0  0  0
 42 40  1  0  0  0  0
 44 46  1  0  0  0  0
 45 44  1  0  0  0  0
 47 44  1  0  0  0  0
M  END
$$$$
