CSD_code = ODIHIS | q = 0 | S = 0 | Stoichiometry = C14H21ClO2PdS2 | MND = 4
 OpenBabel04212202073D

 41 43  0  0  0  0  0  0  0  0999 V2000
    3.0433    6.0089    4.2170 Pd  0  0  1  0  0  0  0  0  0  0  0  0
    1.2577    7.4132    3.7573 Cl  0  0  0  0  0  0  0  0  0  0  0  0
    4.6243    4.7947    4.6008 C   0  0  0  0  0  0  0  0  0  0  0  0
    3.1843    6.5290    6.3490 S   0  0  1  0  0  0  0  0  0  0  0  0
    2.2158    6.0618    7.3146 O   0  0  0  0  0  1  0  0  0  0  0  0
    5.2994    4.8826    5.8198 C   0  0  0  0  0  0  0  0  0  0  0  0
    6.4159    4.0846    6.0546 C   0  0  0  0  0  0  0  0  0  0  0  0
    6.9314    4.1542    7.0014 H   0  0  0  0  0  0  0  0  0  0  0  0
    6.8653    3.2096    5.0833 C   0  0  0  0  0  0  0  0  0  0  0  0
    7.7325    2.5952    5.2708 H   0  0  0  0  0  0  0  0  0  0  0  0
    6.2011    3.1153    3.8736 C   0  0  0  0  0  0  0  0  0  0  0  0
    6.5462    2.4239    3.1185 H   0  0  0  0  0  0  0  0  0  0  0  0
    3.1719    5.1947    2.1714 S   0  0  2  0  0  0  0  0  0  0  0  0
    2.0538    4.7342    1.3810 O   0  0  0  0  0  1  0  0  0  0  0  0
    5.0791    3.9001    3.6273 C   0  0  0  0  0  0  0  0  0  0  0  0
    4.8187    5.8354    6.8737 C   0  0  0  0  0  0  0  0  0  0  0  0
    5.5224    6.6543    7.0227 H   0  0  0  0  0  0  0  0  0  0  0  0
    4.6428    5.3352    7.8258 H   0  0  0  0  0  0  0  0  0  0  0  0
    3.4845    8.3353    6.6033 C   0  0  0  0  0  0  0  0  0  0  0  0
    4.0812    8.4344    7.5124 H   0  0  0  0  0  0  0  0  0  0  0  0
    4.2337    8.7846    5.3629 C   0  0  0  0  0  0  0  0  0  0  0  0
    5.1799    8.2479    5.2572 H   0  0  0  0  0  0  0  0  0  0  0  0
    4.4462    9.8505    5.4053 H   0  0  0  0  0  0  0  0  0  0  0  0
    3.5972    8.6003    4.4827 H   0  0  0  0  0  0  0  0  0  0  0  0
    2.1344    9.0063    6.7577 C   0  0  0  0  0  0  0  0  0  0  0  0
    1.5890    8.5480    7.5793 H   0  0  0  0  0  0  0  0  0  0  0  0
    1.5546    8.8770    5.8446 H   0  0  0  0  0  0  0  0  0  0  0  0
    2.2518   10.0690    6.9584 H   0  0  0  0  0  0  0  0  0  0  0  0
    4.3344    3.7730    2.3333 C   0  0  0  0  0  0  0  0  0  0  0  0
    3.6872    2.8935    2.3351 H   0  0  0  0  0  0  0  0  0  0  0  0
    4.9867    3.7234    1.4621 H   0  0  0  0  0  0  0  0  0  0  0  0
    4.1683    6.3533    1.1365 C   0  0  0  0  0  0  0  0  0  0  0  0
    4.4871    5.8007    0.2516 H   0  0  0  0  0  0  0  0  0  0  0  0
    5.3344    6.8201    1.9850 C   0  0  0  0  0  0  0  0  0  0  0  0
    6.0555    6.0231    2.1551 H   0  0  0  0  0  0  0  0  0  0  0  0
    4.9486    7.1645    2.9605 H   0  0  0  0  0  0  0  0  0  0  0  0
    5.8456    7.6525    1.5057 H   0  0  0  0  0  0  0  0  0  0  0  0
    3.2285    7.4874    0.7703 C   0  0  0  0  0  0  0  0  0  0  0  0
    2.3778    7.0971    0.2169 H   0  0  0  0  0  0  0  0  0  0  0  0
    3.7334    8.2352    0.1627 H   0  0  0  0  0  0  0  0  0  0  0  0
    2.8494    7.9599    1.6794 H   0  0  0  0  0  0  0  0  0  0  0  0
  1  2  1  6  0  0  0
  1  3  1  0  0  0  0
  1  4  1  0  0  0  0
  3  6  1  0  0  0  0
  4 19  1  0  0  0  0
  4 16  1  0  0  0  0
  4  5  1  1  0  0  0
  6  7  2  0  0  0  0
  6 16  1  0  0  0  0
  7  8  1  0  0  0  0
  9 10  1  0  0  0  0
  9  7  1  0  0  0  0
 11  9  2  0  0  0  0
 12 11  1  0  0  0  0
 13 14  1  6  0  0  0
 13 29  1  0  0  0  0
 13  1  1  0  0  0  0
 15 11  1  0  0  0  0
 15  3  2  0  0  0  0
 16 17  1  0  0  0  0
 16 18  1  0  0  0  0
 19 25  1  0  0  0  0
 19 20  1  0  0  0  0
 21 23  1  0  0  0  0
 21 19  1  0  0  0  0
 22 21  1  0  0  0  0
 24 21  1  0  0  0  0
 25 28  1  0  0  0  0
 25 26  1  0  0  0  0
 27 25  1  0  0  0  0
 29 30  1  0  0  0  0
 29 15  1  0  0  0  0
 31 29  1  0  0  0  0
 32 34  1  0  0  0  0
 32 13  1  0  0  0  0
 33 32  1  0  0  0  0
 34 35  1  0  0  0  0
 34 36  1  0  0  0  0
 37 34  1  0  0  0  0
 38 32  1  0  0  0  0
 38 41  1  0  0  0  0
 39 38  1  0  0  0  0
 40 38  1  0  0  0  0
M  END
$$$$
