CSD_code = ODINOF | q = 0 | S = 0 | Stoichiometry = C27H21Br2NO2PRe | MND = 6
 OpenBabel04212202073D

 55 60  0  0  0  0  0  0  0  0999 V2000
    1.1733   -0.3747    4.0666 Re  0  0  0  0  0  0  0  0  0  0  0  0
    1.0778   -2.2978    5.5672 Br  0  0  0  0  0  0  0  0  0  0  0  0
    0.4642   -1.7811    2.1410 Br  0  0  0  0  0  0  0  0  0  0  0  0
    2.3213    0.8672    5.8781 P   0  0  0  0  0  4  0  0  0  0  0  0
    3.3423    2.1608    5.1232 C   0  0  0  0  0  0  0  0  0  0  0  0
    2.6910    3.2653    4.5739 C   0  0  0  0  0  0  0  0  0  0  0  0
    1.6233    3.3752    4.7157 H   0  0  0  0  0  0  0  0  0  0  0  0
    3.4049    4.2020    3.8529 C   0  0  0  0  0  0  0  0  0  0  0  0
    2.8971    5.0561    3.4301 H   0  0  0  0  0  0  0  0  0  0  0  0
    4.7688    4.0382    3.6635 C   0  0  0  0  0  0  0  0  0  0  0  0
    5.3237    4.7637    3.0884 H   0  0  0  0  0  0  0  0  0  0  0  0
    5.4194    2.9450    4.2098 C   0  0  0  0  0  0  0  0  0  0  0  0
    6.4815    2.8186    4.0630 H   0  0  0  0  0  0  0  0  0  0  0  0
    4.7114    2.0048    4.9379 C   0  0  0  0  0  0  0  0  0  0  0  0
    5.2192    1.1501    5.3632 H   0  0  0  0  0  0  0  0  0  0  0  0
    1.1889    1.7496    6.9854 C   0  0  0  0  0  0  0  0  0  0  0  0
   -0.0571    1.1909    7.2532 C   0  0  0  0  0  0  0  0  0  0  0  0
   -0.3474    0.2649    6.7737 H   0  0  0  0  0  0  0  0  0  0  0  0
   -0.9268    1.8317    8.1178 C   0  0  0  0  0  0  0  0  0  0  0  0
   -1.8946    1.3995    8.3205 H   0  0  0  0  0  0  0  0  0  0  0  0
   -0.5570    3.0247    8.7171 C   0  0  0  0  0  0  0  0  0  0  0  0
   -1.2379    3.5260    9.3886 H   0  0  0  0  0  0  0  0  0  0  0  0
    0.6860    3.5800    8.4550 C   0  0  0  0  0  0  0  0  0  0  0  0
    0.9747    4.5092    8.9238 H   0  0  0  0  0  0  0  0  0  0  0  0
    1.5618    2.9466    7.5929 C   0  0  0  0  0  0  0  0  0  0  0  0
    2.5330    3.3774    7.3889 H   0  0  0  0  0  0  0  0  0  0  0  0
    3.4283   -0.0652    6.9743 C   0  0  0  0  0  0  0  0  0  0  0  0
    3.4565    0.1917    8.3416 C   0  0  0  0  0  0  0  0  0  0  0  0
    2.8086    0.9436    8.7673 H   0  0  0  0  0  0  0  0  0  0  0  0
    4.3100   -0.5276    9.1583 C   0  0  0  0  0  0  0  0  0  0  0  0
    4.3261   -0.3278   10.2190 H   0  0  0  0  0  0  0  0  0  0  0  0
    5.1307   -1.5064    8.6235 C   0  0  0  0  0  0  0  0  0  0  0  0
    5.7886   -2.0703    9.2674 H   0  0  0  0  0  0  0  0  0  0  0  0
    5.0958   -1.7730    7.2646 C   0  0  0  0  0  0  0  0  0  0  0  0
    5.7223   -2.5463    6.8470 H   0  0  0  0  0  0  0  0  0  0  0  0
    4.2471   -1.0586    6.4406 C   0  0  0  0  0  0  0  0  0  0  0  0
    4.2049   -1.2891    5.3857 H   0  0  0  0  0  0  0  0  0  0  0  0
    1.6000    1.1931    2.6106 N   0  0  0  0  0  0  0  0  0  0  0  0
    0.7836    2.1166    2.1618 C   0  0  0  0  0  0  0  0  0  0  0  0
   -0.2151    2.1194    2.5762 H   0  0  0  0  0  0  0  0  0  0  0  0
    1.1906    3.0422    1.1927 C   0  0  0  0  0  0  0  0  0  0  0  0
    0.4832    3.7800    0.8496 H   0  0  0  0  0  0  0  0  0  0  0  0
    2.4681    2.9978    0.6956 C   0  0  0  0  0  0  0  0  0  0  0  0
    2.8007    3.7031   -0.0514 H   0  0  0  0  0  0  0  0  0  0  0  0
    3.3606    2.0079    1.1582 C   0  0  0  0  0  0  0  0  0  0  0  0
    2.8497    1.1155    2.1255 C   0  0  0  0  0  0  0  0  0  0  0  0
    4.6907    1.8302    0.7397 C   0  0  0  0  0  3  0  0  0  0  0  0
    5.1008    2.4976   -0.0020 H   0  0  0  0  0  0  0  0  0  0  0  0
    5.4474    0.8098    1.2637 C   0  0  0  0  0  0  0  0  0  0  0  0
    6.4653    0.6795    0.9271 H   0  0  0  0  0  0  0  0  0  0  0  0
    4.9501   -0.0763    2.2199 C   0  0  0  0  0  0  0  0  0  0  0  0
    5.5664   -0.8727    2.6071 H   0  0  0  0  0  0  0  0  0  0  0  0
    3.6459    0.0611    2.6674 C   0  0  0  0  0  0  0  0  0  0  0  0
    3.0536   -0.6789    3.5600 O   0  0  0  0  0  0  0  0  0  0  0  0
   -0.3057    0.3051    4.3795 O   0  0  0  0  0  1  0  0  0  0  0  0
  1 55  1  0  0  0  0
  1  2  1  0  0  0  0
  1  4  1  0  0  0  0
  3  1  1  0  0  0  0
  4 27  1  0  0  0  0
  4 16  1  0  0  0  0
  5  4  1  0  0  0  0
  6  7  1  0  0  0  0
  6  5  2  0  0  0  0
  8  6  1  0  0  0  0
  9  8  1  0  0  0  0
 10  8  2  0  0  0  0
 10 12  1  0  0  0  0
 11 10  1  0  0  0  0
 12 14  2  0  0  0  0
 13 12  1  0  0  0  0
 14  5  1  0  0  0  0
 14 15  1  0  0  0  0
 16 17  2  0  0  0  0
 16 25  1  0  0  0  0
 17 19  1  0  0  0  0
 18 17  1  0  0  0  0
 19 20  1  0  0  0  0
 19 21  2  0  0  0  0
 21 22  1  0  0  0  0
 23 21  1  0  0  0  0
 23 24  1  0  0  0  0
 25 23  2  0  0  0  0
 26 25  1  0  0  0  0
 27 28  1  0  0  0  0
 28 29  1  0  0  0  0
 28 30  2  0  0  0  0
 30 31  1  0  0  0  0
 32 30  1  0  0  0  0
 32 33  1  0  0  0  0
 34 32  2  0  0  0  0
 35 34  1  0  0  0  0
 36 27  2  0  0  0  0
 36 34  1  0  0  0  0
 37 36  1  0  0  0  0
 38  1  1  0  0  0  0
 39 40  1  0  0  0  0
 39 38  1  0  0  0  0
 41 39  2  0  0  0  0
 42 41  1  0  0  0  0
 43 45  2  0  0  0  0
 43 41  1  0  0  0  0
 44 43  1  0  0  0  0
 45 46  1  0  0  0  0
 46 38  1  0  0  0  0
 46 53  2  0  0  0  0
 47 45  1  0  0  0  0
 47 49  1  0  0  0  0
 48 47  1  0  0  0  0
 49 51  2  0  0  0  0
 50 49  1  0  0  0  0
 51 52  1  0  0  0  0
 51 53  1  0  0  0  0
 53 54  1  0  0  0  0
 54  1  1  0  0  0  0
M  END
$$$$
