CSD_code = ODINIZ | q = 0 | S = 0 | Stoichiometry = C27H21AsCl2NO2Re | MND = 6
 OpenBabel04212202073D

 55 59  0  0  0  0  0  0  0  0999 V2000
    2.5940    0.4366    4.0236 Re  0  0  0  0  0  0  0  0  0  0  0  0
    1.4558   -0.7420    5.8977 As  0  0  0  0  0  0  0  0  0  0  0  0
    2.8504    1.9201    2.3099 Cl  0  0  0  0  0  0  0  0  0  0  0  0
    2.5235    2.1798    5.4826 Cl  0  0  0  0  0  0  0  0  0  0  0  0
    4.0907   -0.2226    4.3206 O   0  0  0  0  0  1  0  0  0  0  0  0
    0.5232    0.5941    3.5783 O   0  0  0  0  0  0  0  0  0  0  0  0
    2.2426   -1.0330    2.4827 N   0  0  0  0  0  0  0  0  0  0  0  0
    0.3087   -2.1370    5.1727 C   0  0  0  0  0  0  0  0  0  0  0  0
    0.9817   -1.0658    2.0099 C   0  0  0  0  0  0  0  0  0  0  0  0
    0.0623   -0.1621    2.6294 C   0  0  0  0  0  0  0  0  0  0  0  0
    2.6089   -1.7178    7.1247 C   0  0  0  0  0  0  0  0  0  0  0  0
    0.2874    0.2750    7.0690 C   0  0  0  0  0  0  0  0  0  0  0  0
   -1.6546   -1.0516    1.1883 C   0  0  0  0  0  0  0  0  0  0  0  0
   -2.6874   -1.0361    0.8717 H   0  0  0  0  0  0  0  0  0  0  0  0
    0.9323   -3.1918    4.5084 C   0  0  0  0  0  0  0  0  0  0  0  0
    2.0167   -3.2664    4.5451 H   0  0  0  0  0  0  0  0  0  0  0  0
    0.3199    0.0908    8.4480 C   0  0  0  0  0  0  0  0  0  0  0  0
    1.0064   -0.6319    8.8782 H   0  0  0  0  0  0  0  0  0  0  0  0
    4.7375   -1.8811    8.2269 C   0  0  0  0  0  0  0  0  0  0  0  0
    5.7321   -1.4993    8.4023 H   0  0  0  0  0  0  0  0  0  0  0  0
    4.3112   -3.0303    8.8730 C   0  0  0  0  0  0  0  0  0  0  0  0
    4.9743   -3.5444    9.5528 H   0  0  0  0  0  0  0  0  0  0  0  0
    0.5671   -1.9509    0.9857 C   0  0  0  0  0  0  0  0  0  0  0  0
   -1.3708    1.7748    8.7127 C   0  0  0  0  0  0  0  0  0  0  0  0
   -2.0126    2.3616    9.3530 H   0  0  0  0  0  0  0  0  0  0  0  0
    3.1493   -1.8317    1.9623 C   0  0  0  0  0  0  0  0  0  0  0  0
    4.1456   -1.7616    2.3763 H   0  0  0  0  0  0  0  0  0  0  0  0
   -1.1983   -3.9915    3.7597 C   0  0  0  0  0  0  0  0  0  0  0  0
   -1.7843   -4.7045    3.1997 H   0  0  0  0  0  0  0  0  0  0  0  0
    2.1834   -2.8734    7.7743 C   0  0  0  0  0  0  0  0  0  0  0  0
    1.1818   -3.2519    7.5870 H   0  0  0  0  0  0  0  0  0  0  0  0
   -0.5118    0.8393    9.2646 C   0  0  0  0  0  0  0  0  0  0  0  0
   -0.4820    0.6975   10.3350 H   0  0  0  0  0  0  0  0  0  0  0  0
   -1.0755   -2.0227    5.1280 C   0  0  0  0  0  0  0  0  0  0  0  0
   -1.5583   -1.1963    5.6401 H   0  0  0  0  0  0  0  0  0  0  0  0
    3.0374   -3.5275    8.6459 C   0  0  0  0  0  0  0  0  0  0  0  0
    2.7102   -4.4262    9.1481 H   0  0  0  0  0  0  0  0  0  0  0  0
   -1.2588   -0.1789    2.1982 C   0  0  0  0  0  0  0  0  0  0  0  0
   -1.9687    0.4948    2.6524 H   0  0  0  0  0  0  0  0  0  0  0  0
    1.5606   -2.7943    0.4453 C   0  0  0  0  0  0  0  0  0  0  0  0
    1.2989   -3.4788   -0.3481 H   0  0  0  0  0  0  0  0  0  0  0  0
    0.1818   -4.1173    3.8085 C   0  0  0  0  0  0  0  0  0  0  0  0
    0.6703   -4.9296    3.2903 H   0  0  0  0  0  0  0  0  0  0  0  0
   -0.7787   -1.9242    0.5870 C   0  0  0  0  0  3  0  0  0  0  0  0
   -1.1086   -2.5899   -0.1952 H   0  0  0  0  0  0  0  0  0  0  0  0
   -1.3981    1.9676    7.3407 C   0  0  0  0  0  0  0  0  0  0  0  0
   -2.0579    2.7076    6.9121 H   0  0  0  0  0  0  0  0  0  0  0  0
    3.8889   -1.2257    7.3507 C   0  0  0  0  0  0  0  0  0  0  0  0
    4.2122   -0.3354    6.8183 H   0  0  0  0  0  0  0  0  0  0  0  0
    2.8401   -2.7270    0.9317 C   0  0  0  0  0  0  0  0  0  0  0  0
    3.6228   -3.3544    0.5358 H   0  0  0  0  0  0  0  0  0  0  0  0
   -0.5710    1.2226    6.5194 C   0  0  0  0  0  0  0  0  0  0  0  0
   -0.5660    1.3888    5.4483 H   0  0  0  0  0  0  0  0  0  0  0  0
   -1.8250   -2.9511    4.4238 C   0  0  0  0  0  0  0  0  0  0  0  0
   -2.9000   -2.8558    4.3844 H   0  0  0  0  0  0  0  0  0  0  0  0
  1  5  1  0  0  0  0
  1  4  1  0  0  0  0
  2 12  1  0  0  0  0
  2 11  1  0  0  0  0
  3  1  1  0  0  0  0
  6  1  1  0  0  0  0
  7  1  1  0  0  0  0
  8  2  1  0  0  0  0
  9  7  1  0  0  0  0
  9 10  2  0  0  0  0
 10  6  1  0  0  0  0
 11 48  2  0  0  0  0
 11 30  1  0  0  0  0
 12 17  1  0  0  0  0
 13 38  2  0  0  0  0
 14 13  1  0  0  0  0
 15 16  1  0  0  0  0
 15  8  2  0  0  0  0
 17 18  1  0  0  0  0
 17 32  2  0  0  0  0
 19 20  1  0  0  0  0
 19 21  2  0  0  0  0
 21 22  1  0  0  0  0
 23  9  1  0  0  0  0
 24 32  1  0  0  0  0
 24 25  1  0  0  0  0
 26 27  1  0  0  0  0
 26  7  1  0  0  0  0
 28 42  2  0  0  0  0
 28 54  1  0  0  0  0
 29 28  1  0  0  0  0
 30 36  2  0  0  0  0
 31 30  1  0  0  0  0
 32 33  1  0  0  0  0
 34  8  1  0  0  0  0
 34 35  1  0  0  0  0
 36 21  1  0  0  0  0
 36 37  1  0  0  0  0
 38 10  1  0  0  0  0
 38 39  1  0  0  0  0
 40 50  1  0  0  0  0
 40 23  2  0  0  0  0
 41 40  1  0  0  0  0
 42 15  1  0  0  0  0
 43 42  1  0  0  0  0
 44 23  1  0  0  0  0
 44 13  1  0  0  0  0
 45 44  1  0  0  0  0
 46 24  2  0  0  0  0
 47 46  1  0  0  0  0
 48 19  1  0  0  0  0
 49 48  1  0  0  0  0
 50 26  2  0  0  0  0
 51 50  1  0  0  0  0
 52 12  2  0  0  0  0
 52 46  1  0  0  0  0
 53 52  1  0  0  0  0
 54 34  2  0  0  0  0
 55 54  1  0  0  0  0
M  END
$$$$
