CSD_code = ODIPIB | q = 0 | S = 0 | Stoichiometry = C25H34ClNZr | MND = 13
 OpenBabel04212202073D

 62 61  0  0  1  0  0  0  0  0999 V2000
   -0.0012    4.1874    1.2710 Zr  0  0  0  0  0  0  0  0  0  0  0  0
   -1.2298    4.7823    3.2603 Cl  0  0  0  0  0 15  0  0  0  0  0  0
    1.6449    4.4589    2.6203 N   0  0  0  0  0  0  0  0  0  0  0  0
    2.2341    4.0839    1.4549 C   0  0  0  0  0  2  0  0  0  0  0  0
    3.6351    3.9412    1.4722 C   0  0  0  0  0  0  0  0  0  0  0  0
    4.1540    3.6454    0.5673 H   0  0  0  0  0  0  0  0  0  0  0  0
    4.3637    4.1774    2.6250 C   0  0  0  0  0  0  0  0  0  0  0  0
    5.4404    4.0677    2.6283 H   0  0  0  0  0  0  0  0  0  0  0  0
    3.7028    4.5587    3.7860 C   0  0  0  0  0  0  0  0  0  0  0  0
    4.2430    4.7502    4.7007 H   0  0  0  0  0  0  0  0  0  0  0  0
    2.3265    4.6868    3.7388 C   0  0  0  0  0  0  0  0  0  0  0  0
    1.7509    4.9801    4.6125 H   0  0  0  0  0  0  0  0  0  0  0  0
   -0.1912    6.6718    1.0397 C   0  0  0  0  0  0  0  0  0  0  0  0
   -1.3632    6.1101    0.4650 C   0  0  2  0  0  3  0  0  0  0  0  0
   -0.9829    5.3929   -0.7077 C   0  0  0  0  0  0  0  0  0  0  0  0
    0.4345    5.4983   -0.8369 C   0  0  0  0  0  0  0  0  0  0  0  0
    0.9138    6.3052    0.2320 C   0  0  0  0  0  0  0  0  0  0  0  0
   -0.1232    7.6053    2.2151 C   0  0  0  0  0  0  0  0  0  0  0  0
    0.0378    8.6316    1.8755 H   0  0  0  0  0  0  0  0  0  0  0  0
    0.7010    7.3368    2.8804 H   0  0  0  0  0  0  0  0  0  0  0  0
   -1.0471    7.5734    2.7877 H   0  0  0  0  0  0  0  0  0  0  0  0
   -2.7766    6.4142    0.8812 C   0  0  0  0  0  0  0  0  0  0  0  0
   -3.0420    7.4341    0.5924 H   0  0  0  0  0  0  0  0  0  0  0  0
   -2.8939    6.3290    1.9617 H   0  0  0  0  0  0  0  0  0  0  0  0
   -3.4805    5.7357    0.4017 H   0  0  0  0  0  0  0  0  0  0  0  0
   -1.9525    5.0689   -1.8153 C   0  0  0  0  0  0  0  0  0  0  0  0
   -2.3422    6.0043   -2.2264 H   0  0  0  0  0  0  0  0  0  0  0  0
   -2.8073    4.4896   -1.4679 H   0  0  0  0  0  0  0  0  0  0  0  0
   -1.4731    4.5318   -2.6288 H   0  0  0  0  0  0  0  0  0  0  0  0
    1.2886    5.0314   -1.9841 C   0  0  0  0  0  0  0  0  0  0  0  0
    1.6080    5.8828   -2.5898 H   0  0  0  0  0  0  0  0  0  0  0  0
    0.7451    4.3495   -2.6351 H   0  0  0  0  0  0  0  0  0  0  0  0
    2.1851    4.5257   -1.6184 H   0  0  0  0  0  0  0  0  0  0  0  0
    2.3009    6.8710    0.3649 C   0  0  0  0  0  0  0  0  0  0  0  0
    2.3294    7.8776   -0.0610 H   0  0  0  0  0  0  0  0  0  0  0  0
    3.0314    6.2622   -0.1643 H   0  0  0  0  0  0  0  0  0  0  0  0
    2.6036    6.9489    1.4103 H   0  0  0  0  0  0  0  0  0  0  0  0
   -1.5597    2.3232    1.0906 C   0  0  0  0  0  0  0  0  0  0  0  0
   -0.6944    2.2117   -0.0438 C   0  0  0  0  0  0  0  0  0  0  0  0
    0.5981    1.8475    0.4363 C   0  0  0  0  0  0  0  0  0  0  0  0
    0.5264    1.7105    1.8463 C   0  0  0  0  0  0  0  0  0  0  0  0
   -0.8020    1.9884    2.2472 C   0  0  2  0  0  3  0  0  0  0  0  0
   -3.0427    2.5909    1.0941 C   0  0  0  0  0  0  0  0  0  0  0  0
   -3.5919    1.6939    1.3900 H   0  0  0  0  0  0  0  0  0  0  0  0
   -3.3960    2.8843    0.1061 H   0  0  0  0  0  0  0  0  0  0  0  0
   -3.2884    3.3844    1.8061 H   0  0  0  0  0  0  0  0  0  0  0  0
   -1.1127    1.9741   -1.4712 C   0  0  0  0  0  0  0  0  0  0  0  0
   -1.0551    0.9020   -1.6799 H   0  0  0  0  0  0  0  0  0  0  0  0
   -0.4577    2.4741   -2.1831 H   0  0  0  0  0  0  0  0  0  0  0  0
   -2.1376    2.2845   -1.6533 H   0  0  0  0  0  0  0  0  0  0  0  0
    1.7468    1.4502   -0.4471 C   0  0  0  0  0  0  0  0  0  0  0  0
    1.5925    0.4385   -0.8317 H   0  0  0  0  0  0  0  0  0  0  0  0
    2.6854    1.4585    0.1024 H   0  0  0  0  0  0  0  0  0  0  0  0
    1.8391    2.1203   -1.3010 H   0  0  0  0  0  0  0  0  0  0  0  0
    1.6065    1.2152    2.7666 C   0  0  0  0  0  0  0  0  0  0  0  0
    1.4583    0.1556    2.9883 H   0  0  0  0  0  0  0  0  0  0  0  0
    1.5916    1.7569    3.7144 H   0  0  0  0  0  0  0  0  0  0  0  0
    2.5937    1.3300    2.3210 H   0  0  0  0  0  0  0  0  0  0  0  0
   -1.3402    1.7554    3.6301 C   0  0  0  0  0  0  0  0  0  0  0  0
   -1.4327    0.6813    3.8127 H   0  0  0  0  0  0  0  0  0  0  0  0
   -2.3191    2.2120    3.7532 H   0  0  0  0  0  0  0  0  0  0  0  0
   -0.6753    2.1693    4.3889 H   0  0  0  0  0  0  0  0  0  0  0  0
  1  3  1  0  0  0  0
  3 11  1  0  0  0  0
  4  5  1  0  0  0  0
  4  3  1  0  0  0  0
  5  7  2  0  0  0  0
  6  5  1  0  0  0  0
  7  8  1  0  0  0  0
  7  9  1  0  0  0  0
  9 10  1  0  0  0  0
 11  9  2  0  0  0  0
 11 12  1  0  0  0  0
 13 18  1  0  0  0  0
 14 22  1  6  0  0  0
 14 13  1  0  0  0  0
 15 14  1  0  0  0  0
 16 15  2  0  0  0  0
 16 17  1  0  0  0  0
 17 34  1  0  0  0  0
 17 13  2  0  0  0  0
 18 21  1  0  0  0  0
 18 20  1  0  0  0  0
 19 18  1  0  0  0  0
 22 24  1  0  0  0  0
 23 22  1  0  0  0  0
 25 22  1  0  0  0  0
 26 28  1  0  0  0  0
 26 15  1  0  0  0  0
 27 26  1  0  0  0  0
 29 26  1  0  0  0  0
 30 33  1  0  0  0  0
 30 16  1  0  0  0  0
 31 30  1  0  0  0  0
 32 30  1  0  0  0  0
 34 37  1  0  0  0  0
 35 34  1  0  0  0  0
 36 34  1  0  0  0  0
 38 43  1  0  0  0  0
 38 42  1  0  0  0  0
 39 40  1  0  0  0  0
 39 38  2  0  0  0  0
 40 41  2  0  0  0  0
 41 42  1  0  0  0  0
 41 55  1  0  0  0  0
 42 59  1  6  0  0  0
 43 44  1  0  0  0  0
 43 46  1  0  0  0  0
 45 43  1  0  0  0  0
 47 39  1  0  0  0  0
 48 47  1  0  0  0  0
 49 47  1  0  0  0  0
 50 47  1  0  0  0  0
 51 53  1  0  0  0  0
 51 40  1  0  0  0  0
 52 51  1  0  0  0  0
 54 51  1  0  0  0  0
 55 56  1  0  0  0  0
 55 57  1  0  0  0  0
 58 55  1  0  0  0  0
 59 61  1  0  0  0  0
 59 60  1  0  0  0  0
 59 62  1  0  0  0  0
M  END
$$$$
