CSD_code = ODISIG | q = 0 | S = 0 | Stoichiometry = C17H40Cl2N2P2Pd | MND = 4
 OpenBabel04212202073D

 64 64  0  0  0  0  0  0  0  0999 V2000
    3.3099    0.4364    4.4390 Pd  0  0  0  0  0  0  0  0  0  0  0  0
    1.2320    3.3288    3.6998 C   0  0  0  0  0  0  0  0  0  0  0  0
    1.3801    4.0837    2.9143 H   0  0  0  0  0  0  0  0  0  0  0  0
    2.2170    3.0694    4.1097 H   0  0  0  0  0  0  0  0  0  0  0  0
    4.0939   -1.0201    2.8347 Cl  0  0  0  0  0  0  0  0  0  0  0  0
    5.1714   -0.0546    5.6885 Cl  0  0  0  0  0  0  0  0  0  0  0  0
    0.3683    3.9321    4.8163 C   0  0  0  0  0  0  0  0  0  0  0  0
   -0.6431    3.5347    4.7550 H   0  0  0  0  0  0  0  0  0  0  0  0
    0.3007    5.0137    4.6862 H   0  0  0  0  0  0  0  0  0  0  0  0
    1.7924    0.8718    2.8181 P   0  0  0  0  0  4  0  0  0  0  0  0
    2.6338    1.4948    6.3357 P   0  0  0  0  0  4  0  0  0  0  0  0
    0.6664    2.1168    3.1288 N   0  0  0  0  0  0  0  0  0  0  0  0
    1.1539    2.3002    6.5989 N   0  0  0  0  0  0  0  0  0  0  0  0
    0.9460    3.6826    6.2154 C   0  0  0  0  0  0  0  0  0  0  0  0
    1.8966    4.2064    6.2879 H   0  0  0  0  0  0  0  0  0  0  0  0
    0.2582    4.1230    6.9509 H   0  0  0  0  0  0  0  0  0  0  0  0
   -0.5117    2.3698    2.3141 C   0  0  0  0  0  0  0  0  0  0  0  0
   -0.4381    3.3333    1.8011 H   0  0  0  0  0  0  0  0  0  0  0  0
   -1.4113    2.3898    2.9374 H   0  0  0  0  0  0  0  0  0  0  0  0
   -0.6409    1.5974    1.5614 H   0  0  0  0  0  0  0  0  0  0  0  0
   -0.0280    1.4822    6.3836 C   0  0  0  0  0  0  0  0  0  0  0  0
   -0.8803    1.9638    6.8673 H   0  0  0  0  0  0  0  0  0  0  0  0
    0.1206    0.5076    6.8370 H   0  0  0  0  0  0  0  0  0  0  0  0
   -0.2506    1.3408    5.3213 H   0  0  0  0  0  0  0  0  0  0  0  0
    2.7193    1.3342    1.2471 C   0  0  0  0  0  0  0  0  0  0  0  0
    3.1224    0.3936    0.8636 H   0  0  0  0  0  0  0  0  0  0  0  0
    3.8962    2.2227    1.6610 C   0  0  0  0  0  0  0  0  0  0  0  0
    4.5836    2.3479    0.8260 H   0  0  0  0  0  0  0  0  0  0  0  0
    4.4561    1.7584    2.4886 H   0  0  0  0  0  0  0  0  0  0  0  0
    3.5555    3.2105    1.9725 H   0  0  0  0  0  0  0  0  0  0  0  0
    1.8831    2.0115    0.1682 C   0  0  0  0  0  0  0  0  0  0  0  0
    1.5324    2.9875    0.4965 H   0  0  0  0  0  0  0  0  0  0  0  0
    1.0229    1.4089   -0.1148 H   0  0  0  0  0  0  0  0  0  0  0  0
    2.4950    2.1593   -0.7208 H   0  0  0  0  0  0  0  0  0  0  0  0
    0.6834   -0.5900    2.4787 C   0  0  0  0  0  0  0  0  0  0  0  0
   -0.3399   -0.2205    2.3505 H   0  0  0  0  0  0  0  0  0  0  0  0
    1.0886   -1.4124    1.2614 C   0  0  0  0  0  0  0  0  0  0  0  0
    2.1162   -1.7520    1.3678 H   0  0  0  0  0  0  0  0  0  0  0  0
    0.9974   -0.8419    0.3400 H   0  0  0  0  0  0  0  0  0  0  0  0
    0.4436   -2.2867    1.1838 H   0  0  0  0  0  0  0  0  0  0  0  0
    0.7253   -1.4471    3.7454 C   0  0  0  0  0  0  0  0  0  0  0  0
    0.0555   -2.3008    3.6536 H   0  0  0  0  0  0  0  0  0  0  0  0
    0.4216   -0.8560    4.6114 H   0  0  0  0  0  0  0  0  0  0  0  0
    1.7419   -1.8228    3.9049 H   0  0  0  0  0  0  0  0  0  0  0  0
    3.9740    2.6568    6.9157 C   0  0  0  0  0  0  0  0  0  0  0  0
    4.7714    1.9362    7.1414 H   0  0  0  0  0  0  0  0  0  0  0  0
    4.4949    3.4926    5.7439 C   0  0  0  0  0  0  0  0  0  0  0  0
    3.8258    4.3068    5.4690 H   0  0  0  0  0  0  0  0  0  0  0  0
    4.6421    2.8368    4.8725 H   0  0  0  0  0  0  0  0  0  0  0  0
    5.4609    3.9251    5.9993 H   0  0  0  0  0  0  0  0  0  0  0  0
    3.7173    3.4706    8.1793 C   0  0  0  0  0  0  0  0  0  0  0  0
    4.5994    4.0736    8.3922 H   0  0  0  0  0  0  0  0  0  0  0  0
    3.5516    2.8131    9.0280 H   0  0  0  0  0  0  0  0  0  0  0  0
    2.8662    4.1400    8.0926 H   0  0  0  0  0  0  0  0  0  0  0  0
    2.6201    0.1998    7.6963 C   0  0  0  0  0  0  0  0  0  0  0  0
    3.6804    0.1685    7.9752 H   0  0  0  0  0  0  0  0  0  0  0  0
    2.2756   -1.1860    7.1431 C   0  0  0  0  0  0  0  0  0  0  0  0
    2.5761   -1.9519    7.8563 H   0  0  0  0  0  0  0  0  0  0  0  0
    2.8202   -1.3702    6.2048 H   0  0  0  0  0  0  0  0  0  0  0  0
    1.2084   -1.3028    6.9572 H   0  0  0  0  0  0  0  0  0  0  0  0
    1.7873    0.5459    8.9315 C   0  0  0  0  0  0  0  0  0  0  0  0
    0.7965    0.1002    8.8799 H   0  0  0  0  0  0  0  0  0  0  0  0
    1.6645    1.6203    9.0382 H   0  0  0  0  0  0  0  0  0  0  0  0
    2.2726    0.1612    9.8263 H   0  0  0  0  0  0  0  0  0  0  0  0
  1  6  1  0  0  0  0
  1 11  1  0  0  0  0
  2  4  1  0  0  0  0
  2  7  1  0  0  0  0
  3  2  1  0  0  0  0
  5  1  1  0  0  0  0
  7 14  1  0  0  0  0
  8  7  1  0  0  0  0
  9  7  1  0  0  0  0
 10 12  1  0  0  0  0
 10  1  1  0  0  0  0
 11 13  1  0  0  0  0
 11 45  1  0  0  0  0
 11 55  1  0  0  0  0
 12  2  1  0  0  0  0
 14 15  1  0  0  0  0
 14 13  1  0  0  0  0
 14 16  1  0  0  0  0
 17 19  1  0  0  0  0
 17 12  1  0  0  0  0
 18 17  1  0  0  0  0
 20 17  1  0  0  0  0
 21 13  1  0  0  0  0
 21 23  1  0  0  0  0
 21 22  1  0  0  0  0
 24 21  1  0  0  0  0
 25 27  1  0  0  0  0
 25 10  1  0  0  0  0
 26 25  1  0  0  0  0
 27 30  1  0  0  0  0
 27 29  1  0  0  0  0
 28 27  1  0  0  0  0
 31 32  1  0  0  0  0
 31 25  1  0  0  0  0
 33 31  1  0  0  0  0
 34 31  1  0  0  0  0
 35 10  1  0  0  0  0
 35 41  1  0  0  0  0
 36 35  1  0  0  0  0
 37 38  1  0  0  0  0
 37 35  1  0  0  0  0
 39 37  1  0  0  0  0
 40 37  1  0  0  0  0
 41 44  1  0  0  0  0
 41 43  1  0  0  0  0
 42 41  1  0  0  0  0
 45 46  1  0  0  0  0
 45 51  1  0  0  0  0
 47 50  1  0  0  0  0
 47 45  1  0  0  0  0
 48 47  1  0  0  0  0
 49 47  1  0  0  0  0
 51 52  1  0  0  0  0
 51 53  1  0  0  0  0
 54 51  1  0  0  0  0
 55 56  1  0  0  0  0
 55 61  1  0  0  0  0
 57 55  1  0  0  0  0
 57 58  1  0  0  0  0
 59 57  1  0  0  0  0
 60 57  1  0  0  0  0
 61 63  1  0  0  0  0
 61 64  1  0  0  0  0
 62 61  1  0  0  0  0
M  END
$$$$
