CSD_code = ODIWUU | q = 0 | S = 0 | Stoichiometry = C14H9ClN5O3Re | MND = 6
 OpenBabel04212202073D

 33 36  0  0  1  0  0  0  0  0999 V2000
    1.0902    2.1950    1.9585 Re  0  0  0  0  0  0  0  0  0  0  0  0
    1.9479    3.0910    3.9746 Cl  0  0  0  0  0  0  0  0  0  0  0  0
   -0.7092    2.0147    2.6679 C   0  0  0  0  0  2  0  0  0  0  0  0
   -1.7256    1.8986    3.1792 O   0  0  0  0  0  1  0  0  0  0  0  0
    0.7120    4.0309    1.4188 C   0  0  0  0  0  2  0  0  0  0  0  0
    0.5652    5.1464    1.2190 O   0  0  0  0  0  1  0  0  0  0  0  0
    0.5788    1.3609    0.2843 C   0  0  0  0  0  2  0  0  0  0  0  0
    0.2911    0.8441   -0.7041 O   0  0  0  0  0  1  0  0  0  0  0  0
    3.3975    2.2402    1.5749 N   0  0  0  0  0  0  0  0  0  0  0  0
    3.9837    1.4379    2.4749 C   0  0  1  0  0  3  0  0  0  0  0  0
    5.2841    1.6174    2.9262 C   0  0  0  0  0  0  0  0  0  0  0  0
    5.7049    0.9616    3.6687 H   0  0  0  0  0  0  0  0  0  0  0  0
    5.9993    2.7037    2.4481 C   0  0  0  0  0  0  0  0  0  0  0  0
    6.9960    2.8993    2.8104 H   0  0  0  0  0  0  0  0  0  0  0  0
    5.4203    3.5241    1.5035 C   0  0  0  0  0  0  0  0  0  0  0  0
    5.9220    4.3829    1.0911 H   0  0  0  0  0  0  0  0  0  0  0  0
    4.1210    3.2451    1.0738 C   0  0  0  0  0  0  0  0  0  0  0  0
    3.1952    0.3956    2.9534 N   0  0  0  0  0  0  0  0  0  0  0  0
    1.8713    0.4091    2.7598 N   0  0  1  0  0  0  0  0  0  0  0  0
    1.3853   -0.6746    3.3279 C   0  0  0  0  0  3  0  0  0  0  0  0
    0.3325   -0.8825    3.3088 H   0  0  0  0  0  0  0  0  0  0  0  0
    2.4228   -1.4234    3.9015 C   0  0  0  0  0  0  0  0  0  0  0  0
    2.3390   -2.3504    4.4293 H   0  0  0  0  0  0  0  0  0  0  0  0
    3.5642   -0.7093    3.6463 C   0  0  0  0  0  0  0  0  0  0  0  0
    4.5830   -0.9234    3.8937 H   0  0  0  0  0  0  0  0  0  0  0  0
    3.5782    4.0546    0.0900 N   0  0  0  0  0  0  0  0  0  0  0  0
    2.6285    3.7617   -0.8452 C   0  0  0  0  0  0  0  0  0  0  0  0
    2.1772    2.7938   -0.9149 H   0  0  0  0  0  0  0  0  0  0  0  0
    2.4817    4.8785   -1.6191 C   0  0  0  0  0  0  0  0  0  0  0  0
    1.8252    5.0132   -2.4527 H   0  0  0  0  0  0  0  0  0  0  0  0
    3.3894    5.8130   -1.0787 C   0  0  0  0  0  0  0  0  0  0  0  0
    3.5785    6.8198   -1.3930 H   0  0  0  0  0  0  0  0  0  0  0  0
    4.0484    5.3014   -0.0704 N   0  0  0  0  0  0  0  0  0  0  0  0
  1  3  1  0  0  0  0
  1 19  1  0  0  0  0
  1  2  1  0  0  0  0
  3  4  1  0  0  0  0
  5  1  1  0  0  0  0
  6  5  1  0  0  0  0
  7  1  1  0  0  0  0
  8  7  1  0  0  0  0
  9  1  1  0  0  0  0
  9 10  1  0  0  0  0
 10 11  1  1  0  0  0
 10 18  1  0  0  0  0
 11 12  1  0  0  0  0
 13 14  1  0  0  0  0
 13 11  2  0  0  0  0
 15 13  1  0  0  0  0
 16 15  1  0  0  0  0
 17 15  2  0  0  0  0
 17  9  1  0  0  0  0
 18 24  1  0  0  0  0
 19 18  1  0  0  0  0
 19 20  1  1  0  0  0
 20 22  1  0  0  0  0
 21 20  1  0  0  0  0
 22 23  1  0  0  0  0
 24 25  1  0  0  0  0
 24 22  2  0  0  0  0
 26 17  1  0  0  0  0
 27 26  1  0  0  0  0
 28 27  1  0  0  0  0
 29 31  1  0  0  0  0
 29 27  2  0  0  0  0
 30 29  1  0  0  0  0
 31 33  2  0  0  0  0
 32 31  1  0  0  0  0
 33 26  1  0  0  0  0
M  END
$$$$
