CSD_code = ODIYOQ | q = 1 | S = 0 | Stoichiometry = C14H22ClN4PtS(1+) | MND = 4
 OpenBabel04212202073D

 43 46  0  0  1  0  0  0  0  0999 V2000
    7.2503    3.0958    7.3158 Pt  0  0  1  0  0  0  0  0  0  0  0  0
    6.8694    2.8764    9.5407 Cl  0  0  0  0  0  0  0  0  0  0  0  0
    7.9828    3.7261    5.0475 S   0  0  2  0  0  3  0  0  0  0  0  0
    8.7807    1.8359    7.4571 N   0  0  1  0  0  0  0  0  0  0  0  0
   10.0418    2.2274    7.1963 N   0  0  0  0  0  0  0  0  0  0  0  0
    5.8631    5.6236    6.7969 N   0  0  1  0  0  0  0  0  0  0  0  0
    5.7071    4.3412    7.1757 N   0  0  0  0  0  0  0  0  0  0  0  0
    8.8152    0.5556    7.8068 C   0  0  2  0  0  3  0  0  0  0  0  0
   10.1447    0.1157    7.7633 C   0  0  0  0  0  0  0  0  0  0  0  0
   10.4995   -0.8667    7.9940 H   0  0  0  0  0  0  0  0  0  0  0  0
   10.9030    1.1978    7.3680 C   0  0  0  0  0  0  0  0  0  0  0  0
    7.5882   -0.1994    8.1520 C   0  0  0  0  0  0  0  0  0  0  0  0
    6.7070    0.3640    7.8424 H   0  0  0  0  0  0  0  0  0  0  0  0
    7.5375   -0.3553    9.2284 H   0  0  0  0  0  0  0  0  0  0  0  0
    7.5912   -1.1722    7.6665 H   0  0  0  0  0  0  0  0  0  0  0  0
   12.3654    1.3154    7.1590 C   0  0  0  0  0  0  0  0  0  0  0  0
   12.5978    1.6179    6.1384 H   0  0  0  0  0  0  0  0  0  0  0  0
   12.8329    0.3539    7.3472 H   0  0  0  0  0  0  0  0  0  0  0  0
   12.7982    2.0453    7.8428 H   0  0  0  0  0  0  0  0  0  0  0  0
   10.2870    3.5619    6.7280 C   0  0  0  0  0  0  0  0  0  0  0  0
   11.3609    3.7555    6.7740 H   0  0  0  0  0  0  0  0  0  0  0  0
    9.7771    4.2659    7.4002 H   0  0  0  0  0  0  0  0  0  0  0  0
    9.8073    3.7406    5.2846 C   0  0  0  0  0  0  0  0  0  0  0  0
   10.1724    2.9160    4.6703 H   0  0  0  0  0  0  0  0  0  0  0  0
   10.1774    4.6761    4.8697 H   0  0  0  0  0  0  0  0  0  0  0  0
    7.5817    5.5206    5.0542 C   0  0  0  0  0  0  0  0  0  0  0  0
    8.4526    6.0453    4.6658 H   0  0  0  0  0  0  0  0  0  0  0  0
    6.7636    5.6237    4.3394 H   0  0  0  0  0  0  0  0  0  0  0  0
    7.1614    6.0974    6.4092 C   0  0  0  0  0  0  0  0  0  0  0  0
    7.8815    5.8219    7.1919 H   0  0  0  0  0  0  0  0  0  0  0  0
    7.1273    7.1868    6.3386 H   0  0  0  0  0  0  0  0  0  0  0  0
    4.6708    6.2637    6.7870 C   0  0  1  0  0  3  0  0  0  0  0  0
    3.7279    5.3400    7.1868 C   0  0  0  0  0  0  0  0  0  0  0  0
    2.6767    5.5031    7.2991 H   0  0  0  0  0  0  0  0  0  0  0  0
    4.4172    4.1431    7.4211 C   0  0  0  0  0  0  0  0  0  0  0  0
    4.5143    7.6893    6.4135 C   0  0  0  0  0  0  0  0  0  0  0  0
    5.0706    8.3329    7.0946 H   0  0  0  0  0  0  0  0  0  0  0  0
    3.4648    7.9613    6.4695 H   0  0  0  0  0  0  0  0  0  0  0  0
    4.8648    7.8748    5.3986 H   0  0  0  0  0  0  0  0  0  0  0  0
    3.8895    2.8275    7.8517 C   0  0  0  0  0  0  0  0  0  0  0  0
    4.6255    2.0479    7.6505 H   0  0  0  0  0  0  0  0  0  0  0  0
    2.9626    2.6011    7.3308 H   0  0  0  0  0  0  0  0  0  0  0  0
    3.6862    2.8404    8.9215 H   0  0  0  0  0  0  0  0  0  0  0  0
  1  4  1  0  0  0  0
  1  2  1  1  0  0  0
  3 26  1  1  0  0  0
  3 23  1  0  0  0  0
  3  1  1  0  0  0  0
  4  5  1  1  0  0  0
  4  8  1  0  0  0  0
  5 11  1  0  0  0  0
  6 29  1  6  0  0  0
  6  7  1  0  0  0  0
  7  1  1  0  0  0  0
  7 35  1  0  0  0  0
  8 12  1  6  0  0  0
  9  8  1  0  0  0  0
  9 10  1  0  0  0  0
 11  9  2  0  0  0  0
 12 14  1  0  0  0  0
 13 12  1  0  0  0  0
 15 12  1  0  0  0  0
 16 18  1  0  0  0  0
 16 11  1  0  0  0  0
 16 19  1  0  0  0  0
 17 16  1  0  0  0  0
 20 21  1  0  0  0  0
 20  5  1  0  0  0  0
 20 22  1  0  0  0  0
 23 20  1  0  0  0  0
 24 23  1  0  0  0  0
 25 23  1  0  0  0  0
 26 29  1  0  0  0  0
 27 26  1  0  0  0  0
 28 26  1  0  0  0  0
 29 30  1  0  0  0  0
 31 29  1  0  0  0  0
 32 36  1  1  0  0  0
 32  6  1  0  0  0  0
 32 33  1  0  0  0  0
 33 34  1  0  0  0  0
 33 35  2  0  0  0  0
 35 40  1  0  0  0  0
 36 38  1  0  0  0  0
 36 37  1  0  0  0  0
 39 36  1  0  0  0  0
 40 43  1  0  0  0  0
 41 40  1  0  0  0  0
 42 40  1  0  0  0  0
M  END
$$$$
