CSD_code = ODOCUF | q = 0 | S = 0 | Stoichiometry = C27H36ClCuN3P | MND = 3
 OpenBabel04212202073D

 69 72  0  0  0  0  0  0  0  0999 V2000
    2.9423    1.6629   10.8193 Cu  0  0  0  0  0  0  0  0  0  0  0  0
    4.9596    1.6398   11.7038 Cl  0  0  0  0  0  0  0  0  0  0  0  0
    1.1352    0.6240   10.0620 P   0  0  0  0  0  4  0  0  0  0  0  0
    2.5482    3.6631   10.2220 N   0  0  0  0  0  4  0  0  0  0  0  0
    0.7284    0.6811   12.8704 N   0  0  0  0  0  0  0  0  0  0  0  0
    2.8718   -1.2426    9.4242 N   0  0  0  0  0  0  0  0  0  0  0  0
   -0.1832    1.8998   10.2523 C   0  0  0  0  0  0  0  0  0  0  0  0
    0.0945    3.2449    9.9684 C   0  0  0  0  0  0  0  0  0  0  0  0
   -0.8841    4.2015   10.2071 C   0  0  0  0  0  0  0  0  0  0  0  0
   -0.6713    5.2397    9.9899 H   0  0  0  0  0  0  0  0  0  0  0  0
   -2.1280    3.8563   10.7050 C   0  0  0  0  0  0  0  0  0  0  0  0
   -2.8697    4.6203   10.8856 H   0  0  0  0  0  0  0  0  0  0  0  0
   -2.4155    2.5259   10.9487 C   0  0  0  0  0  0  0  0  0  0  0  0
   -3.3906    2.2359   11.3124 H   0  0  0  0  0  0  0  0  0  0  0  0
   -1.4481    1.5639   10.7235 C   0  0  0  0  0  0  0  0  0  0  0  0
   -1.6808    0.5255   10.9033 H   0  0  0  0  0  0  0  0  0  0  0  0
    1.3867    3.6911    9.3306 C   0  0  0  0  0  0  0  0  0  0  0  0
    1.6081    3.0338    8.4824 H   0  0  0  0  0  0  0  0  0  0  0  0
    1.2479    4.7128    8.9381 H   0  0  0  0  0  0  0  0  0  0  0  0
    2.3448    4.5209   11.3802 C   0  0  0  0  0  0  0  0  0  0  0  0
    2.2391    5.5744   11.0867 H   0  0  0  0  0  0  0  0  0  0  0  0
    3.1990    4.4237   12.0480 H   0  0  0  0  0  0  0  0  0  0  0  0
    1.4456    4.2102   11.9088 H   0  0  0  0  0  0  0  0  0  0  0  0
    3.7415    4.0845    9.4982 C   0  0  0  0  0  0  0  0  0  0  0  0
    3.6708    5.1326    9.1769 H   0  0  0  0  0  0  0  0  0  0  0  0
    3.8794    3.4563    8.6186 H   0  0  0  0  0  0  0  0  0  0  0  0
    4.6092    3.9654   10.1451 H   0  0  0  0  0  0  0  0  0  0  0  0
    0.2574   -0.9081   10.5121 C   0  0  0  0  0  0  0  0  0  0  0  0
    0.4839   -1.4468   11.7813 C   0  0  0  0  0  0  0  0  0  0  0  0
   -0.0956   -2.6596   12.1200 C   0  0  0  0  0  0  0  0  0  0  0  0
    0.0820   -3.0785   13.1010 H   0  0  0  0  0  0  0  0  0  0  0  0
   -0.9005   -3.3354   11.2177 C   0  0  0  0  0  0  0  0  0  0  0  0
   -1.3453   -4.2803   11.4933 H   0  0  0  0  0  0  0  0  0  0  0  0
   -1.1431   -2.7898    9.9690 C   0  0  0  0  0  0  0  0  0  0  0  0
   -1.7827   -3.3047    9.2669 H   0  0  0  0  0  0  0  0  0  0  0  0
   -0.5609   -1.5850    9.6151 C   0  0  0  0  0  0  0  0  0  0  0  0
   -0.7487   -1.1676    8.6364 H   0  0  0  0  0  0  0  0  0  0  0  0
    1.3007   -0.6553   12.7579 C   0  0  0  0  0  0  0  0  0  0  0  0
    1.3515   -1.1673   13.7332 H   0  0  0  0  0  0  0  0  0  0  0  0
    2.3168   -0.5391   12.3697 H   0  0  0  0  0  0  0  0  0  0  0  0
    1.6263    1.5786   13.5733 C   0  0  0  0  0  0  0  0  0  0  0  0
    1.8451    1.2301   14.5928 H   0  0  0  0  0  0  0  0  0  0  0  0
    1.1666    2.5639   13.6369 H   0  0  0  0  0  0  0  0  0  0  0  0
    2.5662    1.6640   13.0265 H   0  0  0  0  0  0  0  0  0  0  0  0
   -0.5416    0.6284   13.5730 C   0  0  0  0  0  0  0  0  0  0  0  0
   -1.0188    1.6067   13.5309 H   0  0  0  0  0  0  0  0  0  0  0  0
   -0.4113    0.3459   14.6290 H   0  0  0  0  0  0  0  0  0  0  0  0
   -1.1976   -0.1020   13.1037 H   0  0  0  0  0  0  0  0  0  0  0  0
    1.1166    0.5699    8.2244 C   0  0  0  0  0  0  0  0  0  0  0  0
    2.2798    0.1552    7.5697 C   0  0  0  0  0  0  0  0  0  0  0  0
    2.3454    0.1841    6.1857 C   0  0  0  0  0  0  0  0  0  0  0  0
    3.2501   -0.1369    5.6887 H   0  0  0  0  0  0  0  0  0  0  0  0
    1.2623    0.6178    5.4401 C   0  0  0  0  0  0  0  0  0  0  0  0
    1.3206    0.6359    4.3620 H   0  0  0  0  0  0  0  0  0  0  0  0
    0.1029    1.0193    6.0817 C   0  0  0  0  0  0  0  0  0  0  0  0
   -0.7497    1.3488    5.5060 H   0  0  0  0  0  0  0  0  0  0  0  0
    0.0334    1.0031    7.4637 C   0  0  0  0  0  0  0  0  0  0  0  0
   -0.8710    1.3346    7.9553 H   0  0  0  0  0  0  0  0  0  0  0  0
    3.4118   -0.3440    8.4127 C   0  0  0  0  0  0  0  0  0  0  0  0
    4.1838   -0.8286    7.7949 H   0  0  0  0  0  0  0  0  0  0  0  0
    3.8738    0.5033    8.9403 H   0  0  0  0  0  0  0  0  0  0  0  0
    2.3885   -2.4635    8.8019 C   0  0  0  0  0  0  0  0  0  0  0  0
    1.6320   -2.2273    8.0556 H   0  0  0  0  0  0  0  0  0  0  0  0
    1.9407   -3.1043    9.5598 H   0  0  0  0  0  0  0  0  0  0  0  0
    3.2021   -3.0160    8.3107 H   0  0  0  0  0  0  0  0  0  0  0  0
    3.8855   -1.5735   10.4123 C   0  0  0  0  0  0  0  0  0  0  0  0
    3.4544   -2.2383   11.1592 H   0  0  0  0  0  0  0  0  0  0  0  0
    4.2383   -0.6645   10.8994 H   0  0  0  0  0  0  0  0  0  0  0  0
    4.7468   -2.0770    9.9537 H   0  0  0  0  0  0  0  0  0  0  0  0
  1  2  1  0  0  0  0
  3  7  1  0  0  0  0
  3 28  1  0  0  0  0
  3  1  1  0  0  0  0
  4  1  1  0  0  0  0
  4 20  1  0  0  0  0
  5 45  1  0  0  0  0
  5 41  1  0  0  0  0
  6 66  1  0  0  0  0
  7 15  1  0  0  0  0
  8  9  1  0  0  0  0
  8  7  2  0  0  0  0
  9 11  2  0  0  0  0
 10  9  1  0  0  0  0
 11 12  1  0  0  0  0
 11 13  1  0  0  0  0
 13 14  1  0  0  0  0
 15 16  1  0  0  0  0
 15 13  2  0  0  0  0
 17  8  1  0  0  0  0
 17  4  1  0  0  0  0
 18 17  1  0  0  0  0
 19 17  1  0  0  0  0
 20 23  1  0  0  0  0
 20 22  1  0  0  0  0
 21 20  1  0  0  0  0
 24 27  1  0  0  0  0
 24  4  1  0  0  0  0
 25 24  1  0  0  0  0
 26 24  1  0  0  0  0
 28 29  1  0  0  0  0
 29 30  2  0  0  0  0
 29 38  1  0  0  0  0
 30 31  1  0  0  0  0
 32 33  1  0  0  0  0
 32 30  1  0  0  0  0
 34 32  2  0  0  0  0
 35 34  1  0  0  0  0
 36 34  1  0  0  0  0
 36 28  2  0  0  0  0
 37 36  1  0  0  0  0
 38  5  1  0  0  0  0
 38 39  1  0  0  0  0
 40 38  1  0  0  0  0
 41 43  1  0  0  0  0
 41 42  1  0  0  0  0
 44 41  1  0  0  0  0
 45 47  1  0  0  0  0
 46 45  1  0  0  0  0
 48 45  1  0  0  0  0
 49  3  1  0  0  0  0
 50 49  1  0  0  0  0
 50 59  1  0  0  0  0
 51 50  2  0  0  0  0
 52 51  1  0  0  0  0
 53 55  2  0  0  0  0
 53 51  1  0  0  0  0
 54 53  1  0  0  0  0
 55 57  1  0  0  0  0
 56 55  1  0  0  0  0
 57 58  1  0  0  0  0
 57 49  2  0  0  0  0
 59 61  1  0  0  0  0
 59  6  1  0  0  0  0
 60 59  1  0  0  0  0
 62  6  1  0  0  0  0
 62 64  1  0  0  0  0
 63 62  1  0  0  0  0
 65 62  1  0  0  0  0
 66 68  1  0  0  0  0
 66 67  1  0  0  0  0
 69 66  1  0  0  0  0
M  END
$$$$
