CSD_code = ODOGIX | q = 0 | S = 0 | Stoichiometry = C13H18ClN5PdS | MND = 4
 OpenBabel04212202073D

 39 42  0  0  0  0  0  0  0  0999 V2000
    2.9008    8.2115    6.0304 Pd  0  0  2  0  0  0  0  0  0  0  0  0
    3.2808    9.8373    7.4772 Cl  0  0  0  0  0  0  0  0  0  0  0  0
    0.8006    7.6252    6.7122 S   0  0  0  0  0  0  0  0  0  0  0  0
    4.7400    8.3402    5.0595 N   0  0  0  0  0  0  0  0  0  0  0  0
    2.6559    6.8141    4.7149 N   0  0  0  0  0  0  0  0  0  0  0  0
    1.5306    6.0880    4.6086 N   0  0  0  0  0  0  0  0  0  0  0  0
   -0.5743    5.7391    5.4347 N   0  0  0  0  0  0  0  0  0  0  0  0
    3.5901    5.5752    2.9539 N   0  0  0  0  0  0  0  0  0  0  0  0
    2.6546    5.1981    2.8752 H   0  0  0  0  0  0  0  0  0  0  0  0
    4.0567    5.7316    2.0753 H   0  0  0  0  0  0  0  0  0  0  0  0
    5.7630    9.1424    5.3103 C   0  0  0  0  0  0  0  0  0  0  0  0
    5.6149    9.8573    6.1124 H   0  0  0  0  0  0  0  0  0  0  0  0
    6.9500    9.0740    4.5963 C   0  0  0  0  0  0  0  0  0  0  0  0
    7.7611    9.7439    4.8285 H   0  0  0  0  0  0  0  0  0  0  0  0
    7.0675    8.1236    3.5895 C   0  0  0  0  0  0  0  0  0  0  0  0
    7.9811    8.0375    3.0207 H   0  0  0  0  0  0  0  0  0  0  0  0
    6.0027    7.2845    3.3243 C   0  0  0  0  0  0  0  0  0  0  0  0
    6.0753    6.5287    2.5586 H   0  0  0  0  0  0  0  0  0  0  0  0
    4.8292    7.4108    4.0753 C   0  0  0  0  0  0  0  0  0  0  0  0
    3.6489    6.5907    3.8877 C   0  0  0  0  0  0  0  0  0  0  0  0
    0.5985    6.3890    5.4883 C   0  0  0  0  0  0  0  0  0  0  0  0
   -1.5677    5.9007    6.4673 C   0  0  0  0  0  0  0  0  0  0  0  0
   -2.5099    5.5238    6.0644 H   0  0  0  0  0  0  0  0  0  0  0  0
   -1.6859    6.9675    6.6732 H   0  0  0  0  0  0  0  0  0  0  0  0
   -1.2182    5.1659    7.7748 C   0  0  0  0  0  0  0  0  0  0  0  0
   -0.7028    5.8533    8.4457 H   0  0  0  0  0  0  0  0  0  0  0  0
   -2.1505    4.8652    8.2555 H   0  0  0  0  0  0  0  0  0  0  0  0
   -0.3216    3.9423    7.5755 C   0  0  0  0  0  0  0  0  0  0  0  0
   -0.2807    3.4092    8.5274 H   0  0  0  0  0  0  0  0  0  0  0  0
    0.6945    4.2742    7.3518 H   0  0  0  0  0  0  0  0  0  0  0  0
   -0.7842    2.9805    6.4754 C   0  0  0  0  0  0  0  0  0  0  0  0
   -1.8748    2.9716    6.4226 H   0  0  0  0  0  0  0  0  0  0  0  0
   -0.4624    1.9696    6.7347 H   0  0  0  0  0  0  0  0  0  0  0  0
   -0.1971    3.3183    5.1045 C   0  0  0  0  0  0  0  0  0  0  0  0
   -0.4208    2.5140    4.4007 H   0  0  0  0  0  0  0  0  0  0  0  0
    0.8880    3.3997    5.1912 H   0  0  0  0  0  0  0  0  0  0  0  0
   -0.7401    4.6266    4.5269 C   0  0  0  0  0  0  0  0  0  0  0  0
   -0.2149    4.8650    3.5998 H   0  0  0  0  0  0  0  0  0  0  0  0
   -1.8072    4.5253    4.3125 H   0  0  0  0  0  0  0  0  0  0  0  0
  1  3  1  0  0  0  0
  1  2  1  6  0  0  0
  4 11  1  0  0  0  0
  4  1  1  0  0  0  0
  5  1  1  0  0  0  0
  6  5  1  0  0  0  0
  6 21  2  0  0  0  0
  7 21  1  0  0  0  0
  7 22  1  0  0  0  0
  8 20  1  0  0  0  0
  9  8  1  0  0  0  0
 10  8  1  0  0  0  0
 11 12  1  0  0  0  0
 13 14  1  0  0  0  0
 13 11  2  0  0  0  0
 15 13  1  0  0  0  0
 16 15  1  0  0  0  0
 17 15  2  0  0  0  0
 17 19  1  0  0  0  0
 18 17  1  0  0  0  0
 19  4  1  0  0  0  0
 20 19  2  0  0  0  0
 20  5  1  0  0  0  0
 21  3  1  0  0  0  0
 22 24  1  0  0  0  0
 22 25  1  0  0  0  0
 23 22  1  0  0  0  0
 25 27  1  0  0  0  0
 25 26  1  0  0  0  0
 28 25  1  0  0  0  0
 28 29  1  0  0  0  0
 30 28  1  0  0  0  0
 31 33  1  0  0  0  0
 31 28  1  0  0  0  0
 32 31  1  0  0  0  0
 34 36  1  0  0  0  0
 34 31  1  0  0  0  0
 35 34  1  0  0  0  0
 37 34  1  0  0  0  0
 37  7  1  0  0  0  0
 38 37  1  0  0  0  0
 39 37  1  0  0  0  0
M  END
$$$$
