CSD_code = ODOPEF | q = 0 | S = 0 | Stoichiometry = C12H19BrHgN2 | MND = 4
 OpenBabel04212202073D

 35 35  0  0  0  0  0  0  0  0999 V2000
    3.0964    4.8639    9.0219 Hg  0  0  0  0  0  0  0  0  0  0  0  0
    5.4444    3.8893    9.1295 Br  0  0  0  0  0  0  0  0  0  0  0  0
    3.1087    6.0699   11.4311 N   0  0  0  0  0  0  0  0  0  0  0  0
    4.0900    7.4869    8.9142 N   0  0  0  0  0  0  0  0  0  0  0  0
    1.0265    5.5369    9.3994 C   0  0  0  0  0  0  0  0  0  0  0  0
    0.0579    5.7273    8.4185 C   0  0  0  0  0  0  0  0  0  0  0  0
    0.2452    5.4188    7.3978 H   0  0  0  0  0  0  0  0  0  0  0  0
   -1.1667    6.3043    8.7220 C   0  0  0  0  0  0  0  0  0  0  0  0
   -1.9048    6.4346    7.9441 H   0  0  0  0  0  0  0  0  0  0  0  0
   -1.4364    6.7132   10.0140 C   0  0  0  0  0  0  0  0  0  0  0  0
   -2.3851    7.1687   10.2571 H   0  0  0  0  0  0  0  0  0  0  0  0
   -0.4802    6.5377   10.9981 C   0  0  0  0  0  0  0  0  0  0  0  0
   -0.6873    6.8571   12.0107 H   0  0  0  0  0  0  0  0  0  0  0  0
    0.7456    5.9525   10.7054 C   0  0  0  0  0  0  0  0  0  0  0  0
    1.7391    5.7398   11.8263 C   0  0  0  0  0  0  0  0  0  0  0  0
    1.4337    6.3216   12.7110 H   0  0  0  0  0  0  0  0  0  0  0  0
    1.7208    4.6804   12.1060 H   0  0  0  0  0  0  0  0  0  0  0  0
    4.0612    5.5459   12.4001 C   0  0  0  0  0  0  0  0  0  0  0  0
    3.8992    5.9705   13.4013 H   0  0  0  0  0  0  0  0  0  0  0  0
    5.0751    5.7754   12.0819 H   0  0  0  0  0  0  0  0  0  0  0  0
    3.9649    4.4629   12.4583 H   0  0  0  0  0  0  0  0  0  0  0  0
    3.2617    7.5162   11.2749 C   0  0  0  0  0  0  0  0  0  0  0  0
    3.4809    7.9888   12.2453 H   0  0  0  0  0  0  0  0  0  0  0  0
    2.3154    7.9196   10.9112 H   0  0  0  0  0  0  0  0  0  0  0  0
    4.3774    7.8803   10.2953 C   0  0  0  0  0  0  0  0  0  0  0  0
    4.5567    8.9665   10.3556 H   0  0  0  0  0  0  0  0  0  0  0  0
    5.2931    7.3696   10.5987 H   0  0  0  0  0  0  0  0  0  0  0  0
    5.3221    7.5472    8.1307 C   0  0  0  0  0  0  0  0  0  0  0  0
    5.7544    8.5573    8.1341 H   0  0  0  0  0  0  0  0  0  0  0  0
    5.1096    7.2635    7.1011 H   0  0  0  0  0  0  0  0  0  0  0  0
    6.0522    6.8498    8.5364 H   0  0  0  0  0  0  0  0  0  0  0  0
    3.1041    8.3798    8.3148 C   0  0  0  0  0  0  0  0  0  0  0  0
    3.4437    9.4254    8.3343 H   0  0  0  0  0  0  0  0  0  0  0  0
    2.1552    8.3069    8.8414 H   0  0  0  0  0  0  0  0  0  0  0  0
    2.9377    8.0875    7.2793 H   0  0  0  0  0  0  0  0  0  0  0  0
  1  2  1  0  0  0  0
  1  5  1  0  0  0  0
  3 15  1  0  0  0  0
  3 18  1  0  0  0  0
  4 25  1  0  0  0  0
  5 14  1  0  0  0  0
  6  8  1  0  0  0  0
  6  5  2  0  0  0  0
  7  6  1  0  0  0  0
  8 10  2  0  0  0  0
  9  8  1  0  0  0  0
 10 11  1  0  0  0  0
 10 12  1  0  0  0  0
 12 13  1  0  0  0  0
 14 12  2  0  0  0  0
 14 15  1  0  0  0  0
 15 17  1  0  0  0  0
 15 16  1  0  0  0  0
 18 21  1  0  0  0  0
 18 19  1  0  0  0  0
 20 18  1  0  0  0  0
 22  3  1  0  0  0  0
 22 23  1  0  0  0  0
 24 22  1  0  0  0  0
 25 26  1  0  0  0  0
 25 27  1  0  0  0  0
 25 22  1  0  0  0  0
 28 29  1  0  0  0  0
 28 31  1  0  0  0  0
 28  4  1  0  0  0  0
 30 28  1  0  0  0  0
 32 33  1  0  0  0  0
 32 34  1  0  0  0  0
 32  4  1  0  0  0  0
 35 32  1  0  0  0  0
M  END
$$$$
