CSD_code = ODORIJ | q = 1 | S = 0 | Stoichiometry = C12H16I2N12Rh(1+) | MND = 6
 OpenBabel04212202073D

 43 48  0  0  1  0  0  0  0  0999 V2000
    4.7676    4.4559    3.9142 Rh  0  0  0  0  0  0  0  0  0  0  0  0
    3.9953    4.9173    1.3664 I   0  0  0  0  0  0  0  0  0  0  0  0
    2.9758    2.4948    4.4096 I   0  0  0  0  0  0  0  0  0  0  0  0
    6.5803    2.3743    4.6834 N   0  0  0  0  0  0  0  0  0  0  0  0
    7.1750    1.0368    3.1035 N   0  0  0  0  0  0  0  0  0  0  0  0
    6.4133    2.0209    2.6019 N   0  0  0  0  0  0  0  0  0  0  0  0
    6.2525    2.9739    5.8526 N   0  0  0  0  0  0  0  0  0  0  0  0
    5.8574    3.5225    7.9016 N   0  0  0  0  0  0  0  0  0  0  0  0
    5.1730    4.3272    7.0737 N   0  0  0  0  0  0  0  0  0  0  0  0
    5.4714    7.2180    3.7305 N   0  0  0  0  0  0  0  0  0  0  0  0
    7.4441    7.5945    2.9418 N   0  0  0  0  0  0  0  0  0  0  0  0
    7.2449    6.2725    3.0607 N   0  0  0  0  0  0  0  0  0  0  0  0
    4.1769    7.2515    4.1271 N   0  0  0  0  0  0  0  0  0  0  0  0
    2.1171    7.7324    4.5332 N   0  0  0  0  0  0  0  0  0  0  0  0
    2.2854    6.4014    4.5572 N   0  0  0  0  0  0  0  0  0  0  0  0
    6.0193    2.8815    3.5384 C   0  0  1  0  0  3  0  0  0  0  0  0
    7.2712    1.2414    4.3722 C   0  0  0  0  0  0  0  0  0  0  0  0
    7.8049    0.6223    5.0616 H   0  0  0  0  0  0  0  0  0  0  0  0
    6.0737    1.9705    1.2079 C   0  0  0  0  0  0  0  0  0  0  0  0
    4.9978    1.8347    1.0880 H   0  0  0  0  0  0  0  0  0  0  0  0
    6.5964    1.1197    0.7775 H   0  0  0  0  0  0  0  0  0  0  0  0
    6.3672    2.8859    0.6961 H   0  0  0  0  0  0  0  0  0  0  0  0
    5.3839    4.0260    5.7927 C   0  0  2  0  0  3  0  0  0  0  0  0
    6.5091    2.6922    7.1602 C   0  0  0  0  0  0  0  0  0  0  0  0
    7.1453    1.9121    7.5216 H   0  0  0  0  0  0  0  0  0  0  0  0
    4.2897    5.3134    7.6279 C   0  0  0  0  0  0  0  0  0  0  0  0
    4.5605    6.3131    7.2865 H   0  0  0  0  0  0  0  0  0  0  0  0
    4.3827    5.2617    8.7106 H   0  0  0  0  0  0  0  0  0  0  0  0
    3.2592    5.0942    7.3448 H   0  0  0  0  0  0  0  0  0  0  0  0
    6.0358    5.9885    3.5442 C   0  0  2  0  0  3  0  0  0  0  0  0
    6.3622    8.1720    3.3415 C   0  0  0  0  0  0  0  0  0  0  0  0
    6.1991    9.2288    3.3610 H   0  0  0  0  0  0  0  0  0  0  0  0
    8.2650    5.3684    2.6115 C   0  0  0  0  0  0  0  0  0  0  0  0
    8.5644    4.6921    3.4128 H   0  0  0  0  0  0  0  0  0  0  0  0
    9.1186    5.9681    2.3030 H   0  0  0  0  0  0  0  0  0  0  0  0
    7.9047    4.7915    1.7583 H   0  0  0  0  0  0  0  0  0  0  0  0
    3.5460    6.0475    4.3150 C   0  0  1  0  0  3  0  0  0  0  0  0
    3.2635    8.2543    4.2613 C   0  0  0  0  0  0  0  0  0  0  0  0
    3.4603    9.3004    4.1590 H   0  0  0  0  0  0  0  0  0  0  0  0
    1.1262    5.5760    4.7473 C   0  0  0  0  0  0  0  0  0  0  0  0
    0.9416    4.9766    3.8545 H   0  0  0  0  0  0  0  0  0  0  0  0
    0.2814    6.2384    4.9199 H   0  0  0  0  0  0  0  0  0  0  0  0
    1.2530    4.9050    5.5956 H   0  0  0  0  0  0  0  0  0  0  0  0
  1 37  1  0  0  0  0
  1  3  1  0  0  0  0
  1 23  1  0  0  0  0
  2  1  1  0  0  0  0
  4  7  1  0  0  0  0
  5 17  2  0  0  0  0
  6  5  1  0  0  0  0
  7 24  1  0  0  0  0
  9 26  1  0  0  0  0
  9  8  1  0  0  0  0
 10 13  1  0  0  0  0
 11 12  1  0  0  0  0
 11 31  2  0  0  0  0
 13 38  1  0  0  0  0
 14 15  1  0  0  0  0
 15 40  1  0  0  0  0
 16  6  1  1  0  0  0
 16  1  1  0  0  0  0
 16  4  1  0  0  0  0
 17  4  1  0  0  0  0
 17 18  1  0  0  0  0
 19  6  1  0  0  0  0
 20 19  1  0  0  0  0
 21 19  1  0  0  0  0
 22 19  1  0  0  0  0
 23  7  1  1  0  0  0
 23  9  1  0  0  0  0
 24 25  1  0  0  0  0
 24  8  2  0  0  0  0
 26 28  1  0  0  0  0
 27 26  1  0  0  0  0
 29 26  1  0  0  0  0
 30 12  1  6  0  0  0
 30 10  1  0  0  0  0
 30  1  1  0  0  0  0
 31 32  1  0  0  0  0
 31 10  1  0  0  0  0
 33 12  1  0  0  0  0
 33 34  1  0  0  0  0
 35 33  1  0  0  0  0
 36 33  1  0  0  0  0
 37 13  1  6  0  0  0
 37 15  1  0  0  0  0
 38 14  2  0  0  0  0
 39 38  1  0  0  0  0
 40 42  1  0  0  0  0
 40 43  1  0  0  0  0
 41 40  1  0  0  0  0
M  END
$$$$
