CSD_code = ODUDEY | q = 0 | S = 0 | Stoichiometry = C23H28ClN3Pd | MND = 4
 OpenBabel04212202073D

 56 59  0  0  1  0  0  0  0  0999 V2000
    5.2469    2.7317   11.0933 C   0  0  0  0  0  0  0  0  0  0  0  0
    6.8230    1.5333   10.0526 C   0  0  0  0  0  0  0  0  0  0  0  0
    7.3136    0.6446    9.7118 H   0  0  0  0  0  0  0  0  0  0  0  0
    7.1656    2.8307    9.9054 C   0  0  0  0  0  0  0  0  0  0  0  0
    8.0056    3.2742    9.4131 H   0  0  0  0  0  0  0  0  0  0  0  0
    6.1760    4.9238   10.8540 C   0  0  2  0  0  3  0  0  0  0  0  0
    7.0269    5.8358   10.0255 C   0  0  0  0  0  0  0  0  0  0  0  0
    6.7738    6.8701   10.2478 H   0  0  0  0  0  0  0  0  0  0  0  0
    6.8686    5.6445    8.9650 H   0  0  0  0  0  0  0  0  0  0  0  0
    8.0825    5.6793   10.2483 H   0  0  0  0  0  0  0  0  0  0  0  0
    5.1509    6.5901   12.1888 C   0  0  0  0  0  0  0  0  0  0  0  0
    3.9991    7.2109   11.6912 C   0  0  0  0  0  0  0  0  0  0  0  0
    3.7167    8.5018   12.1063 C   0  0  0  0  0  0  0  0  0  0  0  0
    2.8296    8.9932   11.7346 H   0  0  0  0  0  0  0  0  0  0  0  0
    4.5465    9.1558   13.0003 C   0  0  0  0  0  0  0  0  0  0  0  0
    4.3117   10.1610   13.3167 H   0  0  0  0  0  0  0  0  0  0  0  0
    5.6601    8.5144   13.5116 C   0  0  0  0  0  0  0  0  0  0  0  0
    6.2885    9.0147   14.2342 H   0  0  0  0  0  0  0  0  0  0  0  0
    5.9767    7.2232   13.1191 C   0  0  0  0  0  0  0  0  0  0  0  0
    3.0962    6.4532   10.7645 C   0  0  0  0  0  0  0  0  0  0  0  0
    2.1786    7.0071   10.5850 H   0  0  0  0  0  0  0  0  0  0  0  0
    2.8351    5.4755   11.2196 H   0  0  0  0  0  0  0  0  0  0  0  0
    3.5834    6.2631    9.8048 H   0  0  0  0  0  0  0  0  0  0  0  0
    7.1418    6.4783   13.6985 C   0  0  0  0  0  0  0  0  0  0  0  0
    6.8152    5.4893   14.0254 H   0  0  0  0  0  0  0  0  0  0  0  0
    7.5526    7.0121   14.5513 H   0  0  0  0  0  0  0  0  0  0  0  0
    7.9345    6.3455   12.9601 H   0  0  0  0  0  0  0  0  0  0  0  0
    5.0458    0.2964   11.2516 C   0  0  0  0  0  0  0  0  0  0  0  0
    4.4239   -0.5572   10.3422 C   0  0  0  0  0  0  0  0  0  0  0  0
    3.8473   -1.7244   10.8191 C   0  0  0  0  0  0  0  0  0  0  0  0
    3.3579   -2.3905   10.1233 H   0  0  0  0  0  0  0  0  0  0  0  0
    3.8750   -2.0453   12.1685 C   0  0  0  0  0  0  0  0  0  0  0  0
    4.4944   -1.1715   13.0511 C   0  0  0  0  0  0  0  0  0  0  0  0
    4.5120   -1.4103   14.1044 H   0  0  0  0  0  0  0  0  0  0  0  0
    5.0858    0.0053   12.6185 C   0  0  0  0  0  0  0  0  0  0  0  0
    4.3574   -0.2064    8.8856 C   0  0  0  0  0  0  0  0  0  0  0  0
    4.1084    0.8459    8.7570 H   0  0  0  0  0  0  0  0  0  0  0  0
    3.6013   -0.8064    8.3866 H   0  0  0  0  0  0  0  0  0  0  0  0
    5.3134   -0.3913    8.3952 H   0  0  0  0  0  0  0  0  0  0  0  0
    5.7380    0.9357   13.5955 C   0  0  0  0  0  0  0  0  0  0  0  0
    5.8302    0.4606   14.5683 H   0  0  0  0  0  0  0  0  0  0  0  0
    5.1235    1.8516   13.7161 H   0  0  0  0  0  0  0  0  0  0  0  0
    6.7307    1.2327   13.2543 H   0  0  0  0  0  0  0  0  0  0  0  0
    3.2210   -3.2945   12.6725 C   0  0  0  0  0  0  0  0  0  0  0  0
    2.2134   -3.0666   13.0207 H   0  0  0  0  0  0  0  0  0  0  0  0
    3.7767   -3.7125   13.5087 H   0  0  0  0  0  0  0  0  0  0  0  0
    3.1466   -4.0416   11.8863 H   0  0  0  0  0  0  0  0  0  0  0  0
    2.5041    2.1765   12.3206 C   0  0  0  0  0  0  0  0  0  0  0  0
    2.5761    1.4610   11.4957 H   0  0  0  0  0  0  0  0  0  0  0  0
    1.5689    2.7407   12.2244 H   0  0  0  0  0  0  0  0  0  0  0  0
    2.4763    1.6295   13.2678 H   0  0  0  0  0  0  0  0  0  0  0  0
    2.9725    4.6258   14.0223 Cl  0  0  0  0  0  0  0  0  0  0  0  0
    6.2045    3.5670   10.5683 N   0  0  0  0  0  0  0  0  0  0  0  0
    5.6598    1.4894   10.7856 N   0  0  0  0  0  0  0  0  0  0  0  0
    5.4049    5.2649   11.8109 N   0  0  0  0  0  0  0  0  0  0  0  0
    3.9946    3.5849   12.3357 Pd  0  0  1  0  0  0  0  0  0  0  0  0
  1 56  2  0  0  0  0
  2 54  1  0  0  0  0
  3  2  1  0  0  0  0
  4  2  2  0  0  0  0
  4 53  1  0  0  0  0
  5  4  1  0  0  0  0
  6  7  1  6  0  0  0
  6 55  1  0  0  0  0
  7  8  1  0  0  0  0
  7 10  1  0  0  0  0
  9  7  1  0  0  0  0
 11 19  1  0  0  0  0
 12 13  1  0  0  0  0
 12 11  2  0  0  0  0
 13 15  2  0  0  0  0
 14 13  1  0  0  0  0
 15 16  1  0  0  0  0
 15 17  1  0  0  0  0
 17 18  1  0  0  0  0
 19 17  2  0  0  0  0
 19 24  1  0  0  0  0
 20 22  1  0  0  0  0
 20 12  1  0  0  0  0
 21 20  1  0  0  0  0
 23 20  1  0  0  0  0
 24 25  1  0  0  0  0
 24 26  1  0  0  0  0
 27 24  1  0  0  0  0
 28 35  1  0  0  0  0
 29 30  1  0  0  0  0
 29 28  2  0  0  0  0
 30 32  2  0  0  0  0
 31 30  1  0  0  0  0
 32 44  1  0  0  0  0
 32 33  1  0  0  0  0
 33 34  1  0  0  0  0
 35 33  2  0  0  0  0
 35 40  1  0  0  0  0
 36 29  1  0  0  0  0
 37 36  1  0  0  0  0
 38 36  1  0  0  0  0
 39 36  1  0  0  0  0
 40 42  1  0  0  0  0
 40 41  1  0  0  0  0
 43 40  1  0  0  0  0
 44 45  1  0  0  0  0
 44 46  1  0  0  0  0
 47 44  1  0  0  0  0
 48 56  1  0  0  0  0
 48 51  1  0  0  0  0
 49 48  1  0  0  0  0
 50 48  1  0  0  0  0
 53  6  1  0  0  0  0
 53  1  1  0  0  0  0
 54  1  1  0  0  0  0
 54 28  1  0  0  0  0
 55 11  1  0  0  0  0
 55 56  1  0  0  0  0
 56 52  1  1  0  0  0
M  END
$$$$
