CSD_code = ODUFOK | q = 0 | S = 0 | Stoichiometry = C13H18AuBrN2 | MND = 2
 OpenBabel04212202073D

 35 36  0  0  0  0  0  0  0  0999 V2000
   10.2643    1.2255    1.2968 Au  0  0  0  0  0  0  0  0  0  0  0  0
   12.2284    2.2185    0.4434 Br  0  0  0  0  0  0  0  0  0  0  0  0
    7.3156    0.8128    1.8498 N   0  0  0  0  0  0  0  0  0  0  0  0
    8.5148   -0.7454    2.7845 N   0  0  0  0  0  0  0  0  0  0  0  0
    8.5742    0.3691    2.0307 C   0  0  0  0  0  3  0  0  0  0  0  0
    6.4266   -0.0223    2.4924 C   0  0  0  0  0  0  0  0  0  0  0  0
    5.0432   -0.0188    2.6167 C   0  0  0  0  0  0  0  0  0  0  0  0
    4.4302    0.7410    2.1612 H   0  0  0  0  0  0  0  0  0  0  0  0
    4.4614   -1.0314    3.3515 C   0  0  0  0  0  0  0  0  0  0  0  0
    3.3885   -1.0526    3.4639 H   0  0  0  0  0  0  0  0  0  0  0  0
    5.2287   -2.0269    3.9513 C   0  0  0  0  0  0  0  0  0  0  0  0
    4.7369   -2.8019    4.5185 H   0  0  0  0  0  0  0  0  0  0  0  0
    6.6036   -2.0435    3.8355 C   0  0  0  0  0  0  0  0  0  0  0  0
    7.1775   -2.8234    4.3076 H   0  0  0  0  0  0  0  0  0  0  0  0
    7.2029   -1.0305    3.0982 C   0  0  0  0  0  0  0  0  0  0  0  0
    6.9984    2.0015    1.0805 C   0  0  0  0  0  0  0  0  0  0  0  0
    7.9686    2.3869    0.7400 H   0  0  0  0  0  0  0  0  0  0  0  0
    6.1636    1.6506   -0.1487 C   0  0  0  0  0  0  0  0  0  0  0  0
    6.6702    0.8918   -0.7411 H   0  0  0  0  0  0  0  0  0  0  0  0
    6.0362    2.5370   -0.7636 H   0  0  0  0  0  0  0  0  0  0  0  0
    5.1818    1.2765    0.1267 H   0  0  0  0  0  0  0  0  0  0  0  0
    6.3414    3.0641    1.9579 C   0  0  0  0  0  0  0  0  0  0  0  0
    5.3602    2.7506    2.3021 H   0  0  0  0  0  0  0  0  0  0  0  0
    6.2307    3.9831    1.3893 H   0  0  0  0  0  0  0  0  0  0  0  0
    6.9637    3.2701    2.8261 H   0  0  0  0  0  0  0  0  0  0  0  0
    9.6916   -1.4961    3.1808 C   0  0  0  0  0  0  0  0  0  0  0  0
   10.5369   -0.9565    2.7335 H   0  0  0  0  0  0  0  0  0  0  0  0
    9.6628   -2.9080    2.6007 C   0  0  0  0  0  0  0  0  0  0  0  0
    8.8642   -3.5037    3.0334 H   0  0  0  0  0  0  0  0  0  0  0  0
   10.6096   -3.4005    2.8031 H   0  0  0  0  0  0  0  0  0  0  0  0
    9.5200   -2.8676    1.5231 H   0  0  0  0  0  0  0  0  0  0  0  0
    9.8628   -1.4840    4.6978 C   0  0  0  0  0  0  0  0  0  0  0  0
    9.0616   -2.0222    5.1959 H   0  0  0  0  0  0  0  0  0  0  0  0
    9.8733   -0.4602    5.0654 H   0  0  0  0  0  0  0  0  0  0  0  0
   10.8081   -1.9517    4.9581 H   0  0  0  0  0  0  0  0  0  0  0  0
  1  5  1  0  0  0  0
  2  1  1  0  0  0  0
  3  5  1  0  0  0  0
  3  6  1  0  0  0  0
  4 15  1  0  0  0  0
  4 26  1  0  0  0  0
  5  4  1  0  0  0  0
  6  7  2  0  0  0  0
  6 15  1  0  0  0  0
  7  9  1  0  0  0  0
  8  7  1  0  0  0  0
  9 10  1  0  0  0  0
  9 11  2  0  0  0  0
 11 12  1  0  0  0  0
 13 11  1  0  0  0  0
 13 14  1  0  0  0  0
 15 13  2  0  0  0  0
 16  3  1  0  0  0  0
 16 22  1  0  0  0  0
 17 16  1  0  0  0  0
 18 21  1  0  0  0  0
 18 16  1  0  0  0  0
 19 18  1  0  0  0  0
 20 18  1  0  0  0  0
 22 23  1  0  0  0  0
 22 25  1  0  0  0  0
 24 22  1  0  0  0  0
 26 32  1  0  0  0  0
 27 26  1  0  0  0  0
 28 30  1  0  0  0  0
 28 29  1  0  0  0  0
 28 26  1  0  0  0  0
 31 28  1  0  0  0  0
 32 35  1  0  0  0  0
 32 34  1  0  0  0  0
 32 33  1  0  0  0  0
M  END
$$$$
