CSD_code = ODUGAX | q = 0 | S = 0 | Stoichiometry = C13H18AuCl3N2 | MND = 4
 OpenBabel04212202073D

 37 38  0  0  0  0  0  0  0  0999 V2000
    4.1853    4.5851    5.1811 Au  0  0  0  0  0  0  0  0  0  0  0  0
    5.3977    6.0186    3.8835 Cl  0  0  0  0  0  0  0  0  0  0  0  0
    5.7753    2.9912    5.1792 Cl  0  0  0  0  0  0  0  0  0  0  0  0
    1.7345    6.0389    4.3428 N   0  0  0  0  0  0  0  0  0  0  0  0
    2.7731    5.9951    5.1797 C   0  0  0  0  0  0  0  0  0  0  0  0
    0.9734    7.1516    4.6413 C   0  0  0  0  0  0  0  0  0  0  0  0
   -0.1975    7.6679    4.0990 C   0  0  0  0  0  0  0  0  0  0  0  0
   -0.7069    7.1902    3.2793 H   0  0  0  0  0  0  0  0  0  0  0  0
   -0.6996    8.8287    4.6488 C   0  0  0  0  0  0  0  0  0  0  0  0
   -1.6073    9.2527    4.2488 H   0  0  0  0  0  0  0  0  0  0  0  0
    1.4852    5.0494    3.3047 C   0  0  0  0  0  0  0  0  0  0  0  0
    2.3131    4.3326    3.3752 H   0  0  0  0  0  0  0  0  0  0  0  0
    0.1865    4.3003    3.5863 C   0  0  0  0  0  0  0  0  0  0  0  0
    0.2315    3.8481    4.5745 H   0  0  0  0  0  0  0  0  0  0  0  0
    0.0619    3.5094    2.8522 H   0  0  0  0  0  0  0  0  0  0  0  0
   -0.6762    4.9580    3.5386 H   0  0  0  0  0  0  0  0  0  0  0  0
    1.5363    5.6981    1.9248 C   0  0  0  0  0  0  0  0  0  0  0  0
    0.7216    6.4009    1.7791 H   0  0  0  0  0  0  0  0  0  0  0  0
    1.4686    4.9264    1.1633 H   0  0  0  0  0  0  0  0  0  0  0  0
    2.4801    6.2238    1.7980 H   0  0  0  0  0  0  0  0  0  0  0  0
    2.7292    7.0338    6.0164 N   0  0  0  0  0  0  0  0  0  0  0  0
    1.6165    7.7947    5.7177 C   0  0  0  0  0  0  0  0  0  0  0  0
    1.1002    8.9657    6.2600 C   0  0  0  0  0  0  0  0  0  0  0  0
    1.5779    9.4751    7.0796 H   0  0  0  0  0  0  0  0  0  0  0  0
   -0.0605    9.4678    5.7101 C   0  0  0  0  0  0  0  0  0  0  0  0
   -0.4846   10.3755    6.1101 H   0  0  0  0  0  0  0  0  0  0  0  0
    3.7188    7.2830    7.0543 C   0  0  0  0  0  0  0  0  0  0  0  0
    4.4356    6.4551    6.9838 H   0  0  0  0  0  0  0  0  0  0  0  0
    4.4679    8.5817    6.7727 C   0  0  0  0  0  0  0  0  0  0  0  0
    4.9200    8.5367    5.7845 H   0  0  0  0  0  0  0  0  0  0  0  0
    5.2588    8.7063    7.5068 H   0  0  0  0  0  0  0  0  0  0  0  0
    3.8102    9.4444    6.8205 H   0  0  0  0  0  0  0  0  0  0  0  0
    3.0701    7.2319    8.4342 C   0  0  0  0  0  0  0  0  0  0  0  0
    2.3673    8.0467    8.5800 H   0  0  0  0  0  0  0  0  0  0  0  0
    3.8418    7.2996    9.1957 H   0  0  0  0  0  0  0  0  0  0  0  0
    2.5444    6.2881    8.5610 H   0  0  0  0  0  0  0  0  0  0  0  0
    2.7499    3.3702    6.4740 Cl  0  0  0  0  0  0  0  0  0  0  0  0
  1 37  1  0  0  0  0
  2  1  1  0  0  0  0
  3  1  1  0  0  0  0
  4  6  1  0  0  0  0
  4  5  1  0  0  0  0
  5  1  2  0  0  0  0
  5 21  1  0  0  0  0
  6 22  1  0  0  0  0
  7  6  2  0  0  0  0
  7  9  1  0  0  0  0
  8  7  1  0  0  0  0
  9 25  2  0  0  0  0
 10  9  1  0  0  0  0
 11 12  1  0  0  0  0
 11 13  1  0  0  0  0
 11  4  1  0  0  0  0
 13 14  1  0  0  0  0
 15 13  1  0  0  0  0
 16 13  1  0  0  0  0
 17 11  1  0  0  0  0
 18 17  1  0  0  0  0
 19 17  1  0  0  0  0
 20 17  1  0  0  0  0
 21 27  1  0  0  0  0
 22 21  1  0  0  0  0
 22 23  2  0  0  0  0
 23 24  1  0  0  0  0
 25 26  1  0  0  0  0
 25 23  1  0  0  0  0
 27 33  1  0  0  0  0
 28 27  1  0  0  0  0
 29 32  1  0  0  0  0
 29 27  1  0  0  0  0
 29 31  1  0  0  0  0
 30 29  1  0  0  0  0
 33 36  1  0  0  0  0
 33 34  1  0  0  0  0
 33 35  1  0  0  0  0
M  END
$$$$
