CSD_code = ODUJAZ | q = 0 | S = 0 | Stoichiometry = C14H22BClN7PRu | MND = 6
 OpenBabel04212202073D

 47 51  0  0  1  0  0  0  0  0999 V2000
    7.4608    9.3951    3.0564 Ru  0  0  0  0  0  0  0  0  0  0  0  0
    9.5213    9.8630    1.9766 Cl  0  0  0  0  0  0  0  0  0  0  0  0
    6.3279   10.2623    1.2430 P   0  0  0  0  0  4  0  0  0  0  0  0
    5.7725    8.8869    4.0820 N   0  0  1  0  0  0  0  0  0  0  0  0
    5.6839    7.6859    4.6496 N   0  0  0  0  0  0  0  0  0  0  0  0
    7.4838    7.5069    2.2966 N   0  0  2  0  0  0  0  0  0  0  0  0
    7.1666    6.4738    3.0814 N   0  0  0  0  0  0  0  0  0  0  0  0
    8.4921    8.5634    4.6075 N   0  0  1  0  0  0  0  0  0  0  0  0
    8.0805    7.4155    5.1467 N   0  0  0  0  0  0  0  0  0  0  0  0
    7.6050   11.0857    3.8808 N   0  0  0  0  0  2  0  0  0  0  0  0
    4.6598    9.5508    4.3585 C   0  0  0  0  0  3  0  0  0  0  0  0
    4.5099   10.5554    4.0094 H   0  0  0  0  0  0  0  0  0  0  0  0
    3.8157    8.7506    5.1296 C   0  0  0  0  0  0  0  0  0  0  0  0
    2.8465    8.9996    5.5102 H   0  0  0  0  0  0  0  0  0  0  0  0
    4.5101    7.5713    5.2908 C   0  0  0  0  0  0  0  0  0  0  0  0
    4.2467    6.6738    5.8121 H   0  0  0  0  0  0  0  0  0  0  0  0
    7.8515    7.0257    1.1195 C   0  0  0  0  0  3  0  0  0  0  0  0
    8.1873    7.6781    0.3362 H   0  0  0  0  0  0  0  0  0  0  0  0
    7.7623    5.6332    1.1338 C   0  0  0  0  0  0  0  0  0  0  0  0
    7.9900    4.9566    0.3360 H   0  0  0  0  0  0  0  0  0  0  0  0
    7.3247    5.3259    2.4032 C   0  0  0  0  0  0  0  0  0  0  0  0
    7.1215    4.3790    2.8610 H   0  0  0  0  0  0  0  0  0  0  0  0
    9.5939    8.9422    5.2331 C   0  0  0  0  0  3  0  0  0  0  0  0
   10.1143    9.8377    4.9477 H   0  0  0  0  0  0  0  0  0  0  0  0
    9.9117    8.0067    6.2194 C   0  0  0  0  0  0  0  0  0  0  0  0
   10.7436    8.0263    6.8930 H   0  0  0  0  0  0  0  0  0  0  0  0
    8.9224    7.0521    6.1271 C   0  0  0  0  0  0  0  0  0  0  0  0
    8.7679    6.1509    6.6853 H   0  0  0  0  0  0  0  0  0  0  0  0
    7.9764   12.0688    4.3586 C   0  0  0  0  0  2  0  0  0  0  0  0
    8.4156   13.3099    4.9374 C   0  0  0  0  0  0  0  0  0  0  0  0
    8.3465   13.2610    6.0244 H   0  0  0  0  0  0  0  0  0  0  0  0
    7.7970   14.1319    4.5756 H   0  0  0  0  0  0  0  0  0  0  0  0
    9.4520   13.4930    4.6526 H   0  0  0  0  0  0  0  0  0  0  0  0
    5.7624   12.0045    1.3915 C   0  0  0  0  0  0  0  0  0  0  0  0
    6.6473   12.6368    1.4571 H   0  0  0  0  0  0  0  0  0  0  0  0
    5.1723   12.1335    2.2967 H   0  0  0  0  0  0  0  0  0  0  0  0
    5.1693   12.2905    0.5234 H   0  0  0  0  0  0  0  0  0  0  0  0
    7.1802   10.3687   -0.3740 C   0  0  0  0  0  0  0  0  0  0  0  0
    6.6384   11.0350   -1.0451 H   0  0  0  0  0  0  0  0  0  0  0  0
    7.2466    9.3789   -0.8208 H   0  0  0  0  0  0  0  0  0  0  0  0
    8.1891   10.7409   -0.1984 H   0  0  0  0  0  0  0  0  0  0  0  0
    4.7713    9.4184    0.7501 C   0  0  0  0  0  0  0  0  0  0  0  0
    4.0598    9.4502    1.5730 H   0  0  0  0  0  0  0  0  0  0  0  0
    4.9955    8.3765    0.5242 H   0  0  0  0  0  0  0  0  0  0  0  0
    4.3383    9.8960   -0.1279 H   0  0  0  0  0  0  0  0  0  0  0  0
    6.8540    6.6951    4.5669 B   0  0  1  0  0  0  0  0  0  0  0  0
    6.6185    5.6842    5.1309 H   0  0  0  0  0  0  0  0  0  0  0  0
  1 10  1  0  0  0  0
  1  4  1  0  0  0  0
  1  8  1  0  0  0  0
  2  1  1  0  0  0  0
  3 34  1  0  0  0  0
  3  1  1  0  0  0  0
  4 11  1  1  0  0  0
  4  5  1  0  0  0  0
  5 15  1  0  0  0  0
  6 17  1  1  0  0  0
  6  1  1  0  0  0  0
  6  7  1  0  0  0  0
  7 46  1  0  0  0  0
  8  9  1  0  0  0  0
  8 23  1  6  0  0  0
  9 27  1  0  0  0  0
 10 29  1  0  0  0  0
 11 13  1  0  0  0  0
 12 11  1  0  0  0  0
 13 15  2  0  0  0  0
 13 14  1  0  0  0  0
 15 16  1  0  0  0  0
 17 19  1  0  0  0  0
 18 17  1  0  0  0  0
 19 21  2  0  0  0  0
 20 19  1  0  0  0  0
 21 22  1  0  0  0  0
 21  7  1  0  0  0  0
 23 25  1  0  0  0  0
 24 23  1  0  0  0  0
 25 26  1  0  0  0  0
 27 25  2  0  0  0  0
 27 28  1  0  0  0  0
 29 30  1  0  0  0  0
 30 31  1  0  0  0  0
 32 30  1  0  0  0  0
 33 30  1  0  0  0  0
 34 35  1  0  0  0  0
 34 36  1  0  0  0  0
 37 34  1  0  0  0  0
 38 41  1  0  0  0  0
 38  3  1  0  0  0  0
 39 38  1  0  0  0  0
 40 38  1  0  0  0  0
 42  3  1  0  0  0  0
 42 43  1  0  0  0  0
 44 42  1  0  0  0  0
 45 42  1  0  0  0  0
 46  5  1  0  0  0  0
 46 47  1  1  0  0  0
 46  9  1  0  0  0  0
M  END
$$$$
