CSD_code = OFABAZ | q = 0 | S = 0 | Stoichiometry = C28H33Cl2FeN3 | MND = 5
 OpenBabel04212202073D

 67 72  0  0  0  0  0  0  0  0999 V2000
    6.0496   12.7972    5.4564 Fe  0  0  0  0  0  0  0  0  0  0  0  0
    7.7139   11.6903    4.7988 Cl  0  0  0  0  0  0  0  0  0  0  0  0
    4.6045   11.5072    6.1521 Cl  0  0  0  0  0  0  0  0  0  0  0  0
    6.7737   14.4073    5.1719 N   0  0  0  0  0  0  0  0  0  0  0  0
    6.9110   13.0620    7.4357 N   0  0  0  0  0  4  0  0  0  0  0  0
    5.2012   13.0794    3.6793 N   0  0  0  0  0  0  0  0  0  0  0  0
    5.3208   14.9873    1.9880 C   0  0  0  0  0  0  0  0  0  0  0  0
    4.5834   14.7878    0.8468 C   0  0  0  0  0  0  0  0  0  0  0  0
    4.0167   13.8825    0.6879 H   0  0  0  0  0  0  0  0  0  0  0  0
    4.5744   15.8053   -0.1255 C   0  0  0  0  0  0  0  0  0  0  0  0
    3.9950   15.6455   -1.0235 H   0  0  0  0  0  0  0  0  0  0  0  0
    5.2630   16.9844    0.0259 C   0  0  0  0  0  0  0  0  0  0  0  0
    5.2221   17.7403   -0.7451 H   0  0  0  0  0  0  0  0  0  0  0  0
    6.0279   17.2228    1.1908 C   0  0  0  0  0  0  0  0  0  0  0  0
    6.7821   18.3773    1.5084 C   0  0  0  0  0  0  0  0  0  0  0  0
    6.8179   19.2003    0.8101 H   0  0  0  0  0  0  0  0  0  0  0  0
    7.4599   18.4475    2.7001 C   0  0  0  0  0  0  0  0  0  0  0  0
    8.0280   19.3381    2.9291 H   0  0  0  0  0  0  0  0  0  0  0  0
    7.4542   17.4085    3.6497 C   0  0  0  0  0  0  0  0  0  0  0  0
    8.0063   17.5351    4.5691 H   0  0  0  0  0  0  0  0  0  0  0  0
    6.7417   16.2638    3.3742 C   0  0  0  0  0  0  0  0  0  0  0  0
    6.0340   16.2016    2.1400 C   0  0  0  0  0  0  0  0  0  0  0  0
    6.4718   15.0042    4.0314 C   0  0  0  0  0  0  0  0  0  0  0  0
    5.5979   14.2299    3.2008 C   0  0  0  0  0  0  0  0  0  0  0  0
    7.6408   15.0245    6.1458 C   0  0  0  0  0  0  0  0  0  0  0  0
    7.1146   15.8518    6.6391 H   0  0  0  0  0  0  0  0  0  0  0  0
    8.5321   15.4320    5.6577 H   0  0  0  0  0  0  0  0  0  0  0  0
    8.0492   13.9424    7.1476 C   0  0  0  0  0  0  0  0  0  0  0  0
    8.8197   13.3252    6.6835 H   0  0  0  0  0  0  0  0  0  0  0  0
    8.4477   14.3898    8.0686 H   0  0  0  0  0  0  0  0  0  0  0  0
    5.9171   13.7356    8.2659 C   0  0  0  0  0  0  0  0  0  0  0  0
    6.3519   14.0543    9.2216 H   0  0  0  0  0  0  0  0  0  0  0  0
    5.0929   13.0519    8.4602 H   0  0  0  0  0  0  0  0  0  0  0  0
    5.5215   14.6082    7.7478 H   0  0  0  0  0  0  0  0  0  0  0  0
    7.3676   11.8469    8.1028 C   0  0  0  0  0  0  0  0  0  0  0  0
    7.8561   12.0755    9.0570 H   0  0  0  0  0  0  0  0  0  0  0  0
    8.0660   11.3234    7.4529 H   0  0  0  0  0  0  0  0  0  0  0  0
    6.5122   11.1986    8.2816 H   0  0  0  0  0  0  0  0  0  0  0  0
    4.2222   12.3299    3.0039 C   0  0  0  0  0  0  0  0  0  0  0  0
    4.5865   11.3403    2.0849 C   0  0  0  0  0  0  0  0  0  0  0  0
    3.5814   10.6289    1.4451 C   0  0  0  0  0  0  0  0  0  0  0  0
    3.8447    9.8609    0.7337 H   0  0  0  0  0  0  0  0  0  0  0  0
    2.2498   10.8937    1.6994 C   0  0  0  0  0  0  0  0  0  0  0  0
    1.4793   10.3363    1.1868 H   0  0  0  0  0  0  0  0  0  0  0  0
    1.9030   11.8712    2.6133 C   0  0  0  0  0  0  0  0  0  0  0  0
    0.8598   12.0718    2.8041 H   0  0  0  0  0  0  0  0  0  0  0  0
    2.8739   12.5959    3.2866 C   0  0  0  0  0  0  0  0  0  0  0  0
    2.4828   13.6664    4.2797 C   0  0  0  0  0  0  0  0  0  0  0  0
    3.3877   13.9930    4.8117 H   0  0  0  0  0  0  0  0  0  0  0  0
    1.8910   14.8746    3.5491 C   0  0  0  0  0  0  0  0  0  0  0  0
    1.6259   15.6536    4.2612 H   0  0  0  0  0  0  0  0  0  0  0  0
    0.9947   14.5874    3.0039 H   0  0  0  0  0  0  0  0  0  0  0  0
    2.6076   15.2844    2.8395 H   0  0  0  0  0  0  0  0  0  0  0  0
    1.5084   13.1286    5.3281 C   0  0  0  0  0  0  0  0  0  0  0  0
    1.3078   13.8942    6.0752 H   0  0  0  0  0  0  0  0  0  0  0  0
    1.9416   12.2640    5.8244 H   0  0  0  0  0  0  0  0  0  0  0  0
    0.5631   12.8373    4.8784 H   0  0  0  0  0  0  0  0  0  0  0  0
    6.0378   11.0489    1.7936 C   0  0  0  0  0  0  0  0  0  0  0  0
    6.6570   11.7215    2.3930 H   0  0  0  0  0  0  0  0  0  0  0  0
    6.3639   11.2948    0.3193 C   0  0  0  0  0  0  0  0  0  0  0  0
    6.1374   12.3236    0.0442 H   0  0  0  0  0  0  0  0  0  0  0  0
    5.7922   10.6310   -0.3253 H   0  0  0  0  0  0  0  0  0  0  0  0
    7.4221   11.1176    0.1416 H   0  0  0  0  0  0  0  0  0  0  0  0
    6.3813    9.6165    2.2047 C   0  0  0  0  0  0  0  0  0  0  0  0
    6.1427    9.4666    3.2549 H   0  0  0  0  0  0  0  0  0  0  0  0
    7.4452    9.4384    2.0703 H   0  0  0  0  0  0  0  0  0  0  0  0
    5.8262    8.8918    1.6133 H   0  0  0  0  0  0  0  0  0  0  0  0
  1  3  1  0  0  0  0
  1  5  1  0  0  0  0
  2  1  1  0  0  0  0
  4  1  1  0  0  0  0
  4 25  1  0  0  0  0
  5 35  1  0  0  0  0
  5 31  1  0  0  0  0
  6  1  1  0  0  0  0
  7 22  2  0  0  0  0
  7 24  1  0  0  0  0
  8  7  1  0  0  0  0
  9  8  1  0  0  0  0
 10 12  1  0  0  0  0
 10  8  2  0  0  0  0
 11 10  1  0  0  0  0
 12 14  2  0  0  0  0
 13 12  1  0  0  0  0
 14 15  1  0  0  0  0
 14 22  1  0  0  0  0
 15 17  2  0  0  0  0
 16 15  1  0  0  0  0
 17 18  1  0  0  0  0
 17 19  1  0  0  0  0
 19 20  1  0  0  0  0
 21 19  2  0  0  0  0
 21 23  1  0  0  0  0
 22 21  1  0  0  0  0
 23  4  1  0  0  0  0
 24  6  1  0  0  0  0
 24 23  2  0  0  0  0
 25 26  1  0  0  0  0
 25 28  1  0  0  0  0
 27 25  1  0  0  0  0
 28  5  1  0  0  0  0
 28 30  1  0  0  0  0
 29 28  1  0  0  0  0
 31 33  1  0  0  0  0
 31 32  1  0  0  0  0
 34 31  1  0  0  0  0
 35 38  1  0  0  0  0
 35 36  1  0  0  0  0
 37 35  1  0  0  0  0
 39 47  1  0  0  0  0
 39  6  1  0  0  0  0
 40 39  2  0  0  0  0
 41 43  2  0  0  0  0
 41 40  1  0  0  0  0
 42 41  1  0  0  0  0
 43 45  1  0  0  0  0
 44 43  1  0  0  0  0
 45 46  1  0  0  0  0
 45 47  2  0  0  0  0
 47 48  1  0  0  0  0
 48 49  1  0  0  0  0
 48 54  1  0  0  0  0
 50 51  1  0  0  0  0
 50 48  1  0  0  0  0
 52 50  1  0  0  0  0
 53 50  1  0  0  0  0
 54 56  1  0  0  0  0
 54 55  1  0  0  0  0
 57 54  1  0  0  0  0
 58 40  1  0  0  0  0
 58 64  1  0  0  0  0
 58 59  1  0  0  0  0
 60 58  1  0  0  0  0
 61 60  1  0  0  0  0
 62 60  1  0  0  0  0
 63 60  1  0  0  0  0
 64 65  1  0  0  0  0
 66 64  1  0  0  0  0
 67 64  1  0  0  0  0
M  END
$$$$
