CSD_code = OFAHUY | q = -1 | S = 0 | Stoichiometry = C23H21CdClN5O5(1-) | MND = 7
 OpenBabel04212202073D

 56 61  0  0  1  0  0  0  0  0999 V2000
    1.8021   12.1442   -0.0000 Cd  0  0  0  0  0  0  0  0  0  0  0  0
    1.7004    9.7853    0.0002 Cl  0  0  0  0  0  0  0  0  0  0  0  0
    1.3395   14.7557   -0.0000 O   0  0  0  0  0  0  0  0  0  0  0  0
    0.8358   14.4180    0.7553 H   0  0  0  0  0  0  0  0  0  0  0  0
    2.6971   12.3776   -2.1482 N   0  0  0  0  0  0  0  0  0  0  0  0
    4.1611   12.4435    0.0000 N   0  0  0  0  0  0  0  0  0  0  0  0
    0.1504   12.7919   -1.6621 O   0  0  0  0  0  0  0  0  0  0  0  0
    1.8290   12.3217   -3.1632 N   0  0  0  0  0  0  0  0  0  0  0  0
    0.5420   12.4516   -2.7983 C   0  0  0  0  0  0  0  0  0  0  0  0
   -0.4376   12.2446   -3.8950 C   0  0  0  0  0  0  0  0  0  0  0  0
    1.7599   11.9137   -4.7340 H   0  0  0  0  0  0  0  0  0  0  0  0
   -0.0558   11.9281   -5.2112 C   0  0  0  0  0  0  0  0  0  0  0  0
    1.2258   11.7780   -5.5759 O   0  0  0  0  0  0  0  0  0  0  0  0
   -1.0452   11.7690   -6.1831 C   0  0  0  0  0  0  0  0  0  0  0  0
   -0.7351   11.5295   -7.1894 H   0  0  0  0  0  0  0  0  0  0  0  0
   -2.3799   11.9057   -5.8620 C   0  0  0  0  0  0  0  0  0  0  0  0
   -3.1302   11.7735   -6.6298 H   0  0  0  0  0  0  0  0  0  0  0  0
   -2.7603   12.2063   -4.5621 C   0  0  0  0  0  0  0  0  0  0  0  0
   -3.8061   12.3074   -4.3103 H   0  0  0  0  0  0  0  0  0  0  0  0
   -1.7913   12.3733   -3.5946 C   0  0  0  0  0  0  0  0  0  0  0  0
   -2.0554   12.6049   -2.5730 H   0  0  0  0  0  0  0  0  0  0  0  0
    3.9674   12.4291   -2.3543 C   0  0  0  0  0  0  0  0  0  0  0  0
    4.6014   12.5039   -3.7177 C   0  0  0  0  0  0  0  0  0  0  0  0
    3.8358   12.7150   -4.4598 H   0  0  0  0  0  0  0  0  0  0  0  0
    5.0752   11.5547   -3.9680 H   0  0  0  0  0  0  0  0  0  0  0  0
    5.3542   13.2902   -3.7480 H   0  0  0  0  0  0  0  0  0  0  0  0
    4.8047   12.3943   -1.1619 C   0  0  0  0  0  0  0  0  0  0  0  0
    6.2032   12.3019   -1.1990 C   0  0  0  0  0  0  0  0  0  0  0  0
    6.7333   12.2537   -2.1365 H   0  0  0  0  0  0  0  0  0  0  0  0
    6.8920   12.2560    0.0000 C   0  0  0  0  0  0  0  0  0  0  0  0
    7.9715   12.1783    0.0000 H   0  0  0  0  0  0  0  0  0  0  0  0
    0.8357   14.4181   -0.7554 H   0  0  0  0  0  0  0  0  0  0  0  0
    2.6971   12.3777    2.1482 N   0  0  0  0  0  0  0  0  0  0  0  0
    1.8290   12.3219    3.1632 N   0  0  0  0  0  0  0  0  0  0  0  0
    0.5419   12.4517    2.7982 C   0  0  0  0  0  0  0  0  0  0  0  0
    0.1504   12.7921    1.6620 O   0  0  0  0  0  0  0  0  0  0  0  0
    6.2032   12.3019    1.1991 C   0  0  0  0  0  0  0  0  0  0  0  0
    4.8047   12.3943    1.1620 C   0  0  0  0  0  0  0  0  0  0  0  0
    3.9674   12.4292    2.3543 C   0  0  2  0  0  3  0  0  0  0  0  0
    4.6013   12.5039    3.7177 C   0  0  0  0  0  0  0  0  0  0  0  0
    3.8357   12.7150    4.4598 H   0  0  0  0  0  0  0  0  0  0  0  0
    5.0751   11.5547    3.9680 H   0  0  0  0  0  0  0  0  0  0  0  0
    5.3542   13.2902    3.7481 H   0  0  0  0  0  0  0  0  0  0  0  0
    6.7332   12.2535    2.1366 H   0  0  0  0  0  0  0  0  0  0  0  0
   -0.4376   12.2447    3.8949 C   0  0  0  0  0  0  0  0  0  0  0  0
   -0.0557   11.9280    5.2111 C   0  0  0  0  0  0  0  0  0  0  0  0
    1.2259   11.7779    5.5757 O   0  0  0  0  0  0  0  0  0  0  0  0
    1.7599   11.9137    4.7337 H   0  0  0  0  0  0  0  0  0  0  0  0
   -1.0452   11.7689    6.1830 C   0  0  0  0  0  0  0  0  0  0  0  0
   -0.7349   11.5293    7.1893 H   0  0  0  0  0  0  0  0  0  0  0  0
   -2.3798   11.9056    5.8620 C   0  0  0  0  0  0  0  0  0  0  0  0
   -3.1301   11.7734    6.6299 H   0  0  0  0  0  0  0  0  0  0  0  0
   -2.7603   12.2064    4.5622 C   0  0  0  0  0  0  0  0  0  0  0  0
   -3.8061   12.3076    4.3105 H   0  0  0  0  0  0  0  0  0  0  0  0
   -1.7914   12.3735    3.5946 C   0  0  0  0  0  0  0  0  0  0  0  0
   -2.0555   12.6052    2.5731 H   0  0  0  0  0  0  0  0  0  0  0  0
  1  6  1  0  0  0  0
  1  2  1  0  0  0  0
  1 36  1  0  0  0  0
  1 33  1  0  0  0  0
  3  4  1  0  0  0  0
  5  1  1  0  0  0  0
  6 38  1  0  0  0  0
  7  1  1  0  0  0  0
  8  9  2  0  0  0  0
  8  5  1  0  0  0  0
  9  7  1  0  0  0  0
 10 20  1  0  0  0  0
 10  9  1  0  0  0  0
 12 10  2  0  0  0  0
 13 12  1  0  0  0  0
 13 11  1  0  0  0  0
 14 16  2  0  0  0  0
 14 12  1  0  0  0  0
 15 14  1  0  0  0  0
 16 18  1  0  0  0  0
 17 16  1  0  0  0  0
 18 19  1  0  0  0  0
 18 20  2  0  0  0  0
 20 21  1  0  0  0  0
 22  5  1  0  0  0  0
 22 27  2  0  0  0  0
 23 22  1  0  0  0  0
 24 23  1  0  0  0  0
 25 23  1  0  0  0  0
 26 23  1  0  0  0  0
 27  6  1  0  0  0  0
 28 27  1  0  0  0  0
 28 30  2  0  0  0  0
 29 28  1  0  0  0  0
 30 31  1  0  0  0  0
 30 37  1  0  0  0  0
 32  3  1  0  0  0  0
 33 39  1  0  0  0  0
 33 34  1  0  0  0  0
 35 34  2  0  0  0  0
 35 45  1  0  0  0  0
 36 35  1  0  0  0  0
 37 44  1  0  0  0  0
 38 37  2  0  0  0  0
 38 39  1  0  0  0  0
 39 40  1  1  0  0  0
 40 43  1  0  0  0  0
 40 42  1  0  0  0  0
 40 41  1  0  0  0  0
 45 46  1  0  0  0  0
 46 47  1  0  0  0  0
 46 49  2  0  0  0  0
 48 47  1  0  0  0  0
 49 50  1  0  0  0  0
 51 49  1  0  0  0  0
 51 52  1  0  0  0  0
 53 51  2  0  0  0  0
 54 53  1  0  0  0  0
 55 45  2  0  0  0  0
 55 53  1  0  0  0  0
 56 55  1  0  0  0  0
M  END
$$$$
