CSD_code = OFAJUA | q = 0 | S = 0 | Stoichiometry = C26H38Cl2Ti | MND = 12
 OpenBabel04212202073D

 67 69  0  0  1  0  0  0  0  0999 V2000
    4.2962    4.7802   -2.9748 Ti  0  0  0  0  0  0  0  0  0  0  0  0
    5.1576    6.7561   -3.6643 Cl  0  0  0  0  0  0  0  0  0  0  0  0
    2.4288    5.8759   -2.3733 Cl  0  0  0  0  0  0  0  0  0  0  0  0
    4.4956    2.8794   -4.4003 C   0  0  1  0  0  3  0  0  0  0  0  0
    4.8281    4.0849   -5.0874 C   0  0  1  0  0  0  0  0  0  0  0  0
    3.6277    4.8346   -5.2589 C   0  0  2  0  0  3  0  0  0  0  0  0
    2.5656    4.1081   -4.6710 C   0  0  0  0  0  0  0  0  0  0  0  0
    3.1023    2.9309   -4.0862 C   0  0  0  0  0  0  0  0  0  0  0  0
    2.2500    1.8067   -3.5541 C   0  0  0  0  0  0  0  0  0  0  0  0
    1.4491    2.1940   -2.3420 C   0  0  0  0  0  0  0  0  0  0  0  0
    1.2542    1.4097   -1.2913 C   0  0  0  0  0  0  0  0  0  0  0  0
    0.4533    1.7689   -0.0765 C   0  0  0  0  0  0  0  0  0  0  0  0
    1.2016    1.5457    1.2552 C   0  0  0  0  0  0  0  0  0  0  0  0
    1.8050    2.7910    1.9214 C   0  0  0  0  0  0  0  0  0  0  0  0
    3.1531    3.2565    1.3644 C   0  0  0  0  0  0  0  0  0  0  0  0
    2.9854    4.0165    0.0442 C   0  0  0  0  0  0  0  0  0  0  0  0
    4.2651    4.2306   -0.7138 C   0  0  1  0  0  0  0  0  0  0  0  0
    5.0211    3.2121   -1.3627 C   0  0  1  0  0  3  0  0  0  0  0  0
    6.2155    3.8100   -1.8685 C   0  0  0  0  0  0  0  0  0  0  0  0
    6.1979    5.1809   -1.5200 C   0  0  0  0  0  0  0  0  0  0  0  0
    4.9887    5.4516   -0.8267 C   0  0  2  0  0  3  0  0  0  0  0  0
    5.3069    1.6219   -4.5433 C   0  0  0  0  0  0  0  0  0  0  0  0
    6.1287    4.3725   -5.7812 C   0  0  0  0  0  0  0  0  0  0  0  0
    3.4403    6.0567   -6.1050 C   0  0  0  0  0  0  0  0  0  0  0  0
    1.1175    4.4427   -4.8516 C   0  0  0  0  0  0  0  0  0  0  0  0
    4.8265    1.7395   -1.1515 C   0  0  0  0  0  0  0  0  0  0  0  0
    7.4695    3.1104   -2.3075 C   0  0  0  0  0  0  0  0  0  0  0  0
    7.3650    6.1067   -1.6654 C   0  0  0  0  0  0  0  0  0  0  0  0
    4.6504    6.7745   -0.2102 C   0  0  0  0  0  0  0  0  0  0  0  0
    1.5488    1.5159   -4.3494 H   0  0  0  0  0  0  0  0  0  0  0  0
    2.8579    0.9288   -3.3277 H   0  0  0  0  0  0  0  0  0  0  0  0
    1.0129    3.1856   -2.3734 H   0  0  0  0  0  0  0  0  0  0  0  0
    1.6700    0.4075   -1.2795 H   0  0  0  0  0  0  0  0  0  0  0  0
   -0.4335    1.1265   -0.0766 H   0  0  0  0  0  0  0  0  0  0  0  0
    0.1054    2.8006   -0.1454 H   0  0  0  0  0  0  0  0  0  0  0  0
    1.9889    0.8024    1.1094 H   0  0  0  0  0  0  0  0  0  0  0  0
    0.4915    1.1200    1.9680 H   0  0  0  0  0  0  0  0  0  0  0  0
    1.0883    3.6133    1.8684 H   0  0  0  0  0  0  0  0  0  0  0  0
    1.9460    2.5523    2.9791 H   0  0  0  0  0  0  0  0  0  0  0  0
    3.7997    2.3906    1.2264 H   0  0  0  0  0  0  0  0  0  0  0  0
    3.6356    3.9103    2.0947 H   0  0  0  0  0  0  0  0  0  0  0  0
    2.5150    4.9789    0.2556 H   0  0  0  0  0  0  0  0  0  0  0  0
    2.3056    3.4515   -0.5868 H   0  0  0  0  0  0  0  0  0  0  0  0
    6.3470    1.7511   -4.2582 H   0  0  0  0  0  0  0  0  0  0  0  0
    5.2926    1.3332   -5.5983 H   0  0  0  0  0  0  0  0  0  0  0  0
    4.8837    0.7965   -3.9774 H   0  0  0  0  0  0  0  0  0  0  0  0
    6.0203    4.2019   -6.8552 H   0  0  0  0  0  0  0  0  0  0  0  0
    6.4284    5.4109   -5.6319 H   0  0  0  0  0  0  0  0  0  0  0  0
    6.9225    3.7236   -5.4156 H   0  0  0  0  0  0  0  0  0  0  0  0
    4.3941    6.5183   -6.3483 H   0  0  0  0  0  0  0  0  0  0  0  0
    2.8200    6.7902   -5.5881 H   0  0  0  0  0  0  0  0  0  0  0  0
    2.9407    5.7816   -7.0378 H   0  0  0  0  0  0  0  0  0  0  0  0
    0.7860    5.2022   -4.1419 H   0  0  0  0  0  0  0  0  0  0  0  0
    0.9620    4.8367   -5.8560 H   0  0  0  0  0  0  0  0  0  0  0  0
    0.4965    3.5585   -4.7243 H   0  0  0  0  0  0  0  0  0  0  0  0
    5.2653    1.1499   -1.9504 H   0  0  0  0  0  0  0  0  0  0  0  0
    5.3285    1.4479   -0.2241 H   0  0  0  0  0  0  0  0  0  0  0  0
    3.7730    1.4922   -1.0616 H   0  0  0  0  0  0  0  0  0  0  0  0
    7.3356    2.0324   -2.3469 H   0  0  0  0  0  0  0  0  0  0  0  0
    8.2601    3.3189   -1.5828 H   0  0  0  0  0  0  0  0  0  0  0  0
    7.8198    3.4681   -3.2768 H   0  0  0  0  0  0  0  0  0  0  0  0
    7.0570    7.1449   -1.5740 H   0  0  0  0  0  0  0  0  0  0  0  0
    7.8530    5.9758   -2.6304 H   0  0  0  0  0  0  0  0  0  0  0  0
    8.0950    5.8921   -0.8797 H   0  0  0  0  0  0  0  0  0  0  0  0
    4.7641    7.5766   -0.9422 H   0  0  0  0  0  0  0  0  0  0  0  0
    5.3221    6.9777    0.6268 H   0  0  0  0  0  0  0  0  0  0  0  0
    3.6260    6.7910    0.1554 H   0  0  0  0  0  0  0  0  0  0  0  0
  1  3  1  0  0  0  0
  1 17  1  0  0  0  0
  2  1  1  0  0  0  0
  4 22  1  6  0  0  0
  4  8  1  0  0  0  0
  5 23  1  6  0  0  0
  5  4  1  0  0  0  0
  5  1  1  0  0  0  0
  6 24  1  6  0  0  0
  6  5  1  0  0  0  0
  6  7  1  0  0  0  0
  7  8  2  0  0  0  0
  8  9  1  0  0  0  0
  9 31  1  0  0  0  0
  9 10  1  0  0  0  0
 10 11  2  0  0  0  0
 11 33  1  0  0  0  0
 11 12  1  0  0  0  0
 12 13  1  0  0  0  0
 13 14  1  0  0  0  0
 13 37  1  0  0  0  0
 14 39  1  0  0  0  0
 15 14  1  0  0  0  0
 15 41  1  0  0  0  0
 16 42  1  0  0  0  0
 16 15  1  0  0  0  0
 17 16  1  1  0  0  0
 18 26  1  1  0  0  0
 18 17  1  0  0  0  0
 19 20  2  0  0  0  0
 19 18  1  0  0  0  0
 20 21  1  0  0  0  0
 21 17  1  0  0  0  0
 21 29  1  1  0  0  0
 22 44  1  0  0  0  0
 22 46  1  0  0  0  0
 23 48  1  0  0  0  0
 23 49  1  0  0  0  0
 24 51  1  0  0  0  0
 25 55  1  0  0  0  0
 25  7  1  0  0  0  0
 25 53  1  0  0  0  0
 26 58  1  0  0  0  0
 26 57  1  0  0  0  0
 27 19  1  0  0  0  0
 27 60  1  0  0  0  0
 28 62  1  0  0  0  0
 28 20  1  0  0  0  0
 28 64  1  0  0  0  0
 29 67  1  0  0  0  0
 29 66  1  0  0  0  0
 30  9  1  0  0  0  0
 32 10  1  0  0  0  0
 34 12  1  0  0  0  0
 35 12  1  0  0  0  0
 36 13  1  0  0  0  0
 38 14  1  0  0  0  0
 40 15  1  0  0  0  0
 43 16  1  0  0  0  0
 45 22  1  0  0  0  0
 47 23  1  0  0  0  0
 50 24  1  0  0  0  0
 52 24  1  0  0  0  0
 54 25  1  0  0  0  0
 56 26  1  0  0  0  0
 59 27  1  0  0  0  0
 61 27  1  0  0  0  0
 63 28  1  0  0  0  0
 65 29  1  0  0  0  0
M  END
$$$$
