CSD_code = OFANEP | q = 0 | S = 0 | Stoichiometry = C16H34ClNNiP2 | MND = 4
 OpenBabel04212202073D

 55 55  0  0  0  0  0  0  0  0999 V2000
   15.1603    3.9903   15.6955 Ni  0  0  0  0  0  0  0  0  0  0  0  0
   14.1292    3.3424   17.4363 Cl  0  0  0  0  0  0  0  0  0  0  0  0
   13.3477    3.5890   14.5483 P   0  0  0  0  0  4  0  0  0  0  0  0
   16.3683    3.7606   13.8914 P   0  0  0  0  0  4  0  0  0  0  0  0
   16.5988    4.7843   16.7950 C   0  0  0  0  0  0  0  0  0  0  0  0
   16.6694    4.4139   17.8195 H   0  0  0  0  0  0  0  0  0  0  0  0
   17.5918    4.9323   16.3599 H   0  0  0  0  0  0  0  0  0  0  0  0
   15.7909    5.9404   16.6875 C   0  0  0  0  0  0  0  0  0  0  0  0
   15.1334    6.8834   16.5483 N   0  0  0  0  0  0  0  0  0  0  0  0
   13.8530    3.3750   12.7649 C   0  0  0  0  0  0  0  0  0  0  0  0
   13.1634    2.7124   12.2372 H   0  0  0  0  0  0  0  0  0  0  0  0
   13.8078    4.3560   12.2867 H   0  0  0  0  0  0  0  0  0  0  0  0
   15.2799    2.8341   12.7056 C   0  0  0  0  0  0  0  0  0  0  0  0
   15.6752    2.8628   11.6888 H   0  0  0  0  0  0  0  0  0  0  0  0
   15.2902    1.7962   13.0490 H   0  0  0  0  0  0  0  0  0  0  0  0
   17.1859    5.1299   12.9089 C   0  0  0  0  0  0  0  0  0  0  0  0
   18.2094    5.1717   13.3058 H   0  0  0  0  0  0  0  0  0  0  0  0
   16.4944    6.4578   13.2144 C   0  0  0  0  0  0  0  0  0  0  0  0
   17.0626    7.2864   12.7954 H   0  0  0  0  0  0  0  0  0  0  0  0
   16.3958    6.6177   14.2861 H   0  0  0  0  0  0  0  0  0  0  0  0
   15.4980    6.4772   12.7787 H   0  0  0  0  0  0  0  0  0  0  0  0
   17.2455    4.9197   11.3989 C   0  0  0  0  0  0  0  0  0  0  0  0
   17.8513    5.7081   10.9545 H   0  0  0  0  0  0  0  0  0  0  0  0
   16.2510    4.9832   10.9617 H   0  0  0  0  0  0  0  0  0  0  0  0
   17.6874    3.9647   11.1279 H   0  0  0  0  0  0  0  0  0  0  0  0
   17.7650    2.5673   14.2175 C   0  0  0  0  0  0  0  0  0  0  0  0
   18.5096    3.1670   14.7593 H   0  0  0  0  0  0  0  0  0  0  0  0
   17.2504    1.4843   15.1661 C   0  0  0  0  0  0  0  0  0  0  0  0
   18.0787    0.9579   15.6358 H   0  0  0  0  0  0  0  0  0  0  0  0
   16.6448    0.7532   14.6336 H   0  0  0  0  0  0  0  0  0  0  0  0
   16.6377    1.9353   15.9587 H   0  0  0  0  0  0  0  0  0  0  0  0
   18.4325    1.9563   12.9908 C   0  0  0  0  0  0  0  0  0  0  0  0
   19.1803    1.2329   13.3129 H   0  0  0  0  0  0  0  0  0  0  0  0
   18.9374    2.7120   12.3948 H   0  0  0  0  0  0  0  0  0  0  0  0
   17.7111    1.4346   12.3658 H   0  0  0  0  0  0  0  0  0  0  0  0
   12.0643    4.9315   14.4594 C   0  0  0  0  0  0  0  0  0  0  0  0
   11.3651    4.6752   13.6526 H   0  0  0  0  0  0  0  0  0  0  0  0
   11.3362    5.0232   15.7974 C   0  0  0  0  0  0  0  0  0  0  0  0
   10.6719    5.8857   15.8029 H   0  0  0  0  0  0  0  0  0  0  0  0
   12.0602    5.1463   16.6019 H   0  0  0  0  0  0  0  0  0  0  0  0
   10.7430    4.1348   16.0004 H   0  0  0  0  0  0  0  0  0  0  0  0
   12.7366    6.2657   14.1497 C   0  0  0  0  0  0  0  0  0  0  0  0
   12.0011    7.0678   14.1686 H   0  0  0  0  0  0  0  0  0  0  0  0
   13.2033    6.2661   13.1661 H   0  0  0  0  0  0  0  0  0  0  0  0
   13.4960    6.4873   14.9013 H   0  0  0  0  0  0  0  0  0  0  0  0
   12.3642    2.0604   14.9460 C   0  0  0  0  0  0  0  0  0  0  0  0
   12.0390    2.2252   15.9800 H   0  0  0  0  0  0  0  0  0  0  0  0
   11.1468    1.8177   14.0614 C   0  0  0  0  0  0  0  0  0  0  0  0
   10.6300    0.9232   14.4062 H   0  0  0  0  0  0  0  0  0  0  0  0
   11.4313    1.6542   13.0235 H   0  0  0  0  0  0  0  0  0  0  0  0
   10.4442    2.6456   14.1020 H   0  0  0  0  0  0  0  0  0  0  0  0
   13.2954    0.8506   14.9472 C   0  0  0  0  0  0  0  0  0  0  0  0
   12.7942   -0.0102   15.3860 H   0  0  0  0  0  0  0  0  0  0  0  0
   14.1797    1.0688   15.5464 H   0  0  0  0  0  0  0  0  0  0  0  0
   13.5982    0.5843   13.9353 H   0  0  0  0  0  0  0  0  0  0  0  0
  1  5  1  0  0  0  0
  1  2  1  0  0  0  0
  3 46  1  0  0  0  0
  3  1  1  0  0  0  0
  4 26  1  0  0  0  0
  4  1  1  0  0  0  0
  5  6  1  0  0  0  0
  7  5  1  0  0  0  0
  8  5  1  0  0  0  0
  9  8  3  0  0  0  0
 10  3  1  0  0  0  0
 11 10  1  0  0  0  0
 12 10  1  0  0  0  0
 13 10  1  0  0  0  0
 13 15  1  0  0  0  0
 13  4  1  0  0  0  0
 14 13  1  0  0  0  0
 16 18  1  0  0  0  0
 16 17  1  0  0  0  0
 16  4  1  0  0  0  0
 18 20  1  0  0  0  0
 19 18  1  0  0  0  0
 21 18  1  0  0  0  0
 22 16  1  0  0  0  0
 23 22  1  0  0  0  0
 24 22  1  0  0  0  0
 25 22  1  0  0  0  0
 26 27  1  0  0  0  0
 26 28  1  0  0  0  0
 28 29  1  0  0  0  0
 28 31  1  0  0  0  0
 30 28  1  0  0  0  0
 32 33  1  0  0  0  0
 32 26  1  0  0  0  0
 34 32  1  0  0  0  0
 35 32  1  0  0  0  0
 36  3  1  0  0  0  0
 36 38  1  0  0  0  0
 37 36  1  0  0  0  0
 38 39  1  0  0  0  0
 38 41  1  0  0  0  0
 38 40  1  0  0  0  0
 42 43  1  0  0  0  0
 42 36  1  0  0  0  0
 42 45  1  0  0  0  0
 44 42  1  0  0  0  0
 46 52  1  0  0  0  0
 46 47  1  0  0  0  0
 48 51  1  0  0  0  0
 48 49  1  0  0  0  0
 48 46  1  0  0  0  0
 50 48  1  0  0  0  0
 52 53  1  0  0  0  0
 52 54  1  0  0  0  0
 55 52  1  0  0  0  0
M  END
$$$$
