CSD_code = OFAPUJ | q = 0 | S = 0 | Stoichiometry = C26H36Cl2N2O2Ti | MND = 6
 OpenBabel04212202073D

 69 72  0  0  1  0  0  0  0  0999 V2000
    4.3365    1.7964   24.3329 Ti  0  0  0  0  0  0  0  0  0  0  0  0
    4.2555    2.0313   26.5043 Cl  0  0  0  0  0  0  0  0  0  0  0  0
    4.3772   -0.3889   24.3018 Cl  0  0  0  0  0  0  0  0  0  0  0  0
    4.9827    1.8403   22.4767 O   0  0  0  0  0  0  0  0  0  0  0  0
    3.7280    3.6526   24.1045 O   0  0  0  0  0  0  0  0  0  0  0  0
    6.2600    2.2595   24.1601 N   0  0  0  0  0  0  0  0  0  0  0  0
    2.4265    1.9602   23.8157 N   0  0  0  0  0  0  0  0  0  0  0  0
    1.3553    1.1123   23.5071 C   0  0  0  0  0  0  0  0  0  0  0  0
    2.5241    3.2540   23.9169 C   0  0  1  0  0  3  0  0  0  0  0  0
    1.4267    4.3086   23.9200 C   0  0  0  0  0  0  0  0  0  0  0  0
    7.2987    1.9134   21.8520 C   0  0  0  0  0  0  0  0  0  0  0  0
    7.9489    1.6501   25.7848 C   0  0  0  0  0  0  0  0  0  0  0  0
    6.1833    2.0392   22.8798 C   0  0  1  0  0  3  0  0  0  0  0  0
    0.6925    0.4317   24.5366 C   0  0  0  0  0  0  0  0  0  0  0  0
    6.9842    2.9010   20.7198 C   0  0  0  0  0  0  0  0  0  0  0  0
    5.9691    2.7438   20.3617 H   0  0  0  0  0  0  0  0  0  0  0  0
    7.6783    2.7556   19.8951 H   0  0  0  0  0  0  0  0  0  0  0  0
    7.0714    3.9274   21.0713 H   0  0  0  0  0  0  0  0  0  0  0  0
    0.0254   -0.0267   21.8695 C   0  0  0  0  0  0  0  0  0  0  0  0
   -0.2210   -0.2253   20.8365 H   0  0  0  0  0  0  0  0  0  0  0  0
    8.6657    4.3344   26.0062 C   0  0  0  0  0  0  0  0  0  0  0  0
    8.9311    5.3763   26.1123 H   0  0  0  0  0  0  0  0  0  0  0  0
    7.2061    0.4739   21.3188 C   0  0  0  0  0  0  0  0  0  0  0  0
    7.4287   -0.2413   22.1092 H   0  0  0  0  0  0  0  0  0  0  0  0
    7.9162    0.3307   20.5073 H   0  0  0  0  0  0  0  0  0  0  0  0
    6.2007    0.2750   20.9530 H   0  0  0  0  0  0  0  0  0  0  0  0
    1.0511    0.8586   22.1632 C   0  0  0  0  0  0  0  0  0  0  0  0
    7.3220    2.6243   24.9971 C   0  0  0  0  0  0  0  0  0  0  0  0
    7.4886    0.2265   25.7111 C   0  0  0  0  0  0  0  0  0  0  0  0
    8.1657   -0.4279   26.2546 H   0  0  0  0  0  0  0  0  0  0  0  0
    7.4142   -0.1183   24.6779 H   0  0  0  0  0  0  0  0  0  0  0  0
    6.4904    0.1430   26.1561 H   0  0  0  0  0  0  0  0  0  0  0  0
   -0.6713   -0.6646   22.8805 C   0  0  0  0  0  0  0  0  0  0  0  0
   -1.4695   -1.3492   22.6364 H   0  0  0  0  0  0  0  0  0  0  0  0
    1.7837    5.3367   22.8375 C   0  0  0  0  0  0  0  0  0  0  0  0
    2.8013    5.6915   22.9842 H   0  0  0  0  0  0  0  0  0  0  0  0
    1.1017    6.1826   22.8877 H   0  0  0  0  0  0  0  0  0  0  0  0
    1.7126    4.8908   21.8472 H   0  0  0  0  0  0  0  0  0  0  0  0
    8.9590    2.0442   26.6491 C   0  0  0  0  0  0  0  0  0  0  0  0
    9.4540    1.3000   27.2555 H   0  0  0  0  0  0  0  0  0  0  0  0
    0.0209    3.7610   23.6845 C   0  0  0  0  0  0  0  0  0  0  0  0
   -0.0657    3.2856   22.7114 H   0  0  0  0  0  0  0  0  0  0  0  0
   -0.6898    4.5848   23.7253 H   0  0  0  0  0  0  0  0  0  0  0  0
   -0.2544    3.0366   24.4465 H   0  0  0  0  0  0  0  0  0  0  0  0
    9.3269    3.3740   26.7510 C   0  0  0  0  0  0  0  0  0  0  0  0
   10.1164    3.6653   27.4273 H   0  0  0  0  0  0  0  0  0  0  0  0
    1.8536    1.5196   21.0822 C   0  0  0  0  0  0  0  0  0  0  0  0
    1.5840    2.5724   20.9822 H   0  0  0  0  0  0  0  0  0  0  0  0
    1.6812    1.0309   20.1262 H   0  0  0  0  0  0  0  0  0  0  0  0
    2.9178    1.4702   21.3279 H   0  0  0  0  0  0  0  0  0  0  0  0
    7.6514    3.9796   25.1302 C   0  0  0  0  0  0  0  0  0  0  0  0
    8.6995    2.1701   22.4027 C   0  0  0  0  0  0  0  0  0  0  0  0
    8.8004    3.1825   22.7842 H   0  0  0  0  0  0  0  0  0  0  0  0
    9.4237    2.0349   21.6011 H   0  0  0  0  0  0  0  0  0  0  0  0
    8.9439    1.4757   23.2022 H   0  0  0  0  0  0  0  0  0  0  0  0
   -0.3279   -0.4458   24.2028 C   0  0  0  0  0  0  0  0  0  0  0  0
   -0.8508   -0.9699   24.9893 H   0  0  0  0  0  0  0  0  0  0  0  0
    1.4993    4.9739   25.3045 C   0  0  0  0  0  0  0  0  0  0  0  0
    1.2484    4.2583   26.0860 H   0  0  0  0  0  0  0  0  0  0  0  0
    0.8007    5.8062   25.3552 H   0  0  0  0  0  0  0  0  0  0  0  0
    2.5067    5.3414   25.4900 H   0  0  0  0  0  0  0  0  0  0  0  0
    1.1262    0.6295   25.9567 C   0  0  0  0  0  0  0  0  0  0  0  0
    2.1145    0.1781   26.1018 H   0  0  0  0  0  0  0  0  0  0  0  0
    0.4268    0.1600   26.6441 H   0  0  0  0  0  0  0  0  0  0  0  0
    1.2125    1.6889   26.2062 H   0  0  0  0  0  0  0  0  0  0  0  0
    6.8870    5.0098   24.3530 C   0  0  0  0  0  0  0  0  0  0  0  0
    7.0672    6.0033   24.7568 H   0  0  0  0  0  0  0  0  0  0  0  0
    5.8171    4.7892   24.3970 H   0  0  0  0  0  0  0  0  0  0  0  0
    7.1841    5.0081   23.3028 H   0  0  0  0  0  0  0  0  0  0  0  0
  1  2  1  0  0  0  0
  3  1  1  0  0  0  0
  4 13  1  0  0  0  0
  4  1  1  0  0  0  0
  5  1  1  0  0  0  0
  6  1  1  0  0  0  0
  6 28  1  0  0  0  0
  7  9  1  0  0  0  0
  7  1  1  0  0  0  0
  8  7  1  0  0  0  0
  8 14  1  0  0  0  0
  9 10  1  1  0  0  0
  9  5  1  0  0  0  0
 10 58  1  0  0  0  0
 11 52  1  0  0  0  0
 12 39  1  0  0  0  0
 13 11  1  1  0  0  0
 13  6  1  0  0  0  0
 14 62  1  0  0  0  0
 15 18  1  0  0  0  0
 15 11  1  0  0  0  0
 16 15  1  0  0  0  0
 17 15  1  0  0  0  0
 19 27  1  0  0  0  0
 19 33  2  0  0  0  0
 20 19  1  0  0  0  0
 21 22  1  0  0  0  0
 21 45  1  0  0  0  0
 23 11  1  0  0  0  0
 23 24  1  0  0  0  0
 25 23  1  0  0  0  0
 26 23  1  0  0  0  0
 27  8  2  0  0  0  0
 28 51  1  0  0  0  0
 28 12  2  0  0  0  0
 29 12  1  0  0  0  0
 29 32  1  0  0  0  0
 29 30  1  0  0  0  0
 31 29  1  0  0  0  0
 33 56  1  0  0  0  0
 34 33  1  0  0  0  0
 35 37  1  0  0  0  0
 35 36  1  0  0  0  0
 35 10  1  0  0  0  0
 38 35  1  0  0  0  0
 39 45  2  0  0  0  0
 39 40  1  0  0  0  0
 41 43  1  0  0  0  0
 41 10  1  0  0  0  0
 41 44  1  0  0  0  0
 42 41  1  0  0  0  0
 45 46  1  0  0  0  0
 47 50  1  0  0  0  0
 47 27  1  0  0  0  0
 48 47  1  0  0  0  0
 49 47  1  0  0  0  0
 51 21  2  0  0  0  0
 52 53  1  0  0  0  0
 52 55  1  0  0  0  0
 54 52  1  0  0  0  0
 56 14  2  0  0  0  0
 56 57  1  0  0  0  0
 58 60  1  0  0  0  0
 58 61  1  0  0  0  0
 58 59  1  0  0  0  0
 62 63  1  0  0  0  0
 62 65  1  0  0  0  0
 62 64  1  0  0  0  0
 66 68  1  0  0  0  0
 66 67  1  0  0  0  0
 66 51  1  0  0  0  0
 69 66  1  0  0  0  0
M  END
$$$$
