CSD_code = OFEGEN | q = 0 | S = 0 | Stoichiometry = C28H23ClF2N2O3Pd | MND = 4
 OpenBabel04212202073D

 60 65  0  0  0  0  0  0  0  0999 V2000
   11.7300    2.1770    4.0603 Pd  0  0  2  0  0  0  0  0  0  0  0  0
   12.6049    2.5727    6.0106 Cl  0  0  0  0  0  0  0  0  0  0  0  0
   13.6878    2.0621    2.9797 N   0  0  0  0  0  0  0  0  0  0  0  0
   11.0794    1.8898    2.2357 N   0  0  0  0  0  0  0  0  0  0  0  0
    6.8399   -0.4261    1.9524 O   0  0  0  0  0  0  0  0  0  0  0  0
    5.7582    1.6612    0.6660 O   0  0  0  0  0  0  0  0  0  0  0  0
    7.1379    3.9265    0.2864 O   0  0  0  0  0  0  0  0  0  0  0  0
   16.9526    1.0088    6.2410 F   0  0  0  0  0  0  0  0  0  0  0  0
   17.7575    4.5338    3.2493 F   0  0  0  0  0  0  0  0  0  0  0  0
    9.8542    2.2958    4.9064 C   0  0  0  0  0  0  0  0  0  0  0  0
    9.8977    2.6730    5.9300 H   0  0  0  0  0  0  0  0  0  0  0  0
    9.4199    1.2871    4.9210 H   0  0  0  0  0  0  0  0  0  0  0  0
    9.2149    2.9556    4.3064 H   0  0  0  0  0  0  0  0  0  0  0  0
   12.0121    1.8394    1.3225 C   0  0  0  0  0  0  0  0  0  0  0  0
   13.4165    1.9382    1.7178 C   0  0  0  0  0  0  0  0  0  0  0  0
   14.2312    1.7875    0.5132 C   0  0  0  0  0  0  0  0  0  0  0  0
   13.3140    1.6198   -0.5535 C   0  0  0  0  0  0  0  0  0  0  0  0
   11.9633    1.6432   -0.1205 C   0  0  0  0  0  0  0  0  0  0  0  0
   10.9738    1.4510   -1.0569 C   0  0  0  0  0  0  0  0  0  0  0  0
    9.9288    1.4375   -0.7890 H   0  0  0  0  0  0  0  0  0  0  0  0
   11.3463    1.2604   -2.4004 C   0  0  0  0  0  0  0  0  0  0  0  0
   10.5599    1.1170   -3.1269 H   0  0  0  0  0  0  0  0  0  0  0  0
   12.6546    1.2433   -2.8169 C   0  0  0  0  0  0  0  0  0  0  0  0
   12.8946    1.0893   -3.8585 H   0  0  0  0  0  0  0  0  0  0  0  0
   13.6996    1.4153   -1.8807 C   0  0  0  0  0  0  0  0  0  0  0  0
   15.0898    1.3853   -2.1296 C   0  0  0  0  0  0  0  0  0  0  0  0
   15.4452    1.2375   -3.1387 H   0  0  0  0  0  0  0  0  0  0  0  0
   15.9821    1.5295   -1.0952 C   0  0  0  0  0  0  0  0  0  0  0  0
   17.0413    1.4907   -1.3029 H   0  0  0  0  0  0  0  0  0  0  0  0
   15.5768    1.7263    0.2371 C   0  0  0  0  0  0  0  0  0  0  0  0
   16.3238    1.8196    1.0103 H   0  0  0  0  0  0  0  0  0  0  0  0
   14.9433    2.2792    3.5167 C   0  0  0  0  0  0  0  0  0  0  0  0
   15.3386    1.5069    4.6126 C   0  0  0  0  0  0  0  0  0  0  0  0
   14.6922    0.7286    4.9924 H   0  0  0  0  0  0  0  0  0  0  0  0
   16.5567    1.7666    5.2055 C   0  0  0  0  0  0  0  0  0  0  0  0
   17.3973    2.7779    4.7692 C   0  0  0  0  0  0  0  0  0  0  0  0
   18.3390    2.9733    5.2537 H   0  0  0  0  0  0  0  0  0  0  0  0
   16.9674    3.5388    3.6965 C   0  0  0  0  0  0  0  0  0  0  0  0
   15.7683    3.3081    3.0536 C   0  0  0  0  0  0  0  0  0  0  0  0
   15.4591    3.9418    2.2367 H   0  0  0  0  0  0  0  0  0  0  0  0
    9.7303    1.8390    1.8467 C   0  0  0  0  0  0  0  0  0  0  0  0
    8.9921    0.6922    2.1103 C   0  0  0  0  0  0  0  0  0  0  0  0
    9.4842   -0.1340    2.6001 H   0  0  0  0  0  0  0  0  0  0  0  0
    7.6533    0.6367    1.7396 C   0  0  0  0  0  0  0  0  0  0  0  0
    7.0632    1.7365    1.0983 C   0  0  0  0  0  0  0  0  0  0  0  0
    7.8090    2.9024    0.8698 C   0  0  0  0  0  0  0  0  0  0  0  0
    9.1508    2.9432    1.2312 C   0  0  0  0  0  0  0  0  0  0  0  0
    9.7552    3.8213    1.0666 H   0  0  0  0  0  0  0  0  0  0  0  0
    7.3768   -1.5735    2.5654 C   0  0  0  0  0  0  0  0  0  0  0  0
    6.5555   -2.2859    2.6215 H   0  0  0  0  0  0  0  0  0  0  0  0
    7.7389   -1.3580    3.5756 H   0  0  0  0  0  0  0  0  0  0  0  0
    8.1887   -2.0042    1.9712 H   0  0  0  0  0  0  0  0  0  0  0  0
    4.8056    2.0914    1.6184 C   0  0  0  0  0  0  0  0  0  0  0  0
    3.8337    1.9762    1.1432 H   0  0  0  0  0  0  0  0  0  0  0  0
    4.9612    3.1419    1.8849 H   0  0  0  0  0  0  0  0  0  0  0  0
    4.8470    1.4762    2.5231 H   0  0  0  0  0  0  0  0  0  0  0  0
    7.8401    5.1073   -0.0158 C   0  0  0  0  0  0  0  0  0  0  0  0
    7.1130    5.7672   -0.4861 H   0  0  0  0  0  0  0  0  0  0  0  0
    8.6623    4.9194   -0.7138 H   0  0  0  0  0  0  0  0  0  0  0  0
    8.2313    5.5859    0.8878 H   0  0  0  0  0  0  0  0  0  0  0  0
  1 10  1  0  0  0  0
  1  2  1  6  0  0  0
  3 32  1  0  0  0  0
  3  1  1  0  0  0  0
  4  1  1  0  0  0  0
  5 49  1  0  0  0  0
  6 45  1  0  0  0  0
  6 53  1  0  0  0  0
  7 46  1  0  0  0  0
  9 38  1  0  0  0  0
 10 12  1  0  0  0  0
 10 11  1  0  0  0  0
 13 10  1  0  0  0  0
 14 15  2  0  0  0  0
 14  4  1  0  0  0  0
 15  3  1  0  0  0  0
 16 15  1  0  0  0  0
 17 18  1  0  0  0  0
 17 16  2  0  0  0  0
 18 14  1  0  0  0  0
 19 20  1  0  0  0  0
 19 18  2  0  0  0  0
 21 19  1  0  0  0  0
 22 21  1  0  0  0  0
 23 21  2  0  0  0  0
 23 25  1  0  0  0  0
 24 23  1  0  0  0  0
 25 17  1  0  0  0  0
 26 25  2  0  0  0  0
 26 28  1  0  0  0  0
 27 26  1  0  0  0  0
 28 30  2  0  0  0  0
 29 28  1  0  0  0  0
 30 16  1  0  0  0  0
 30 31  1  0  0  0  0
 32 33  1  0  0  0  0
 33 34  1  0  0  0  0
 33 35  2  0  0  0  0
 35  8  1  0  0  0  0
 36 35  1  0  0  0  0
 36 37  1  0  0  0  0
 38 36  2  0  0  0  0
 39 32  2  0  0  0  0
 39 38  1  0  0  0  0
 40 39  1  0  0  0  0
 41 42  1  0  0  0  0
 41  4  1  0  0  0  0
 42 43  1  0  0  0  0
 44  5  1  0  0  0  0
 44 42  2  0  0  0  0
 45 44  1  0  0  0  0
 46 45  2  0  0  0  0
 46 47  1  0  0  0  0
 47 41  2  0  0  0  0
 48 47  1  0  0  0  0
 49 50  1  0  0  0  0
 49 51  1  0  0  0  0
 52 49  1  0  0  0  0
 53 55  1  0  0  0  0
 53 56  1  0  0  0  0
 54 53  1  0  0  0  0
 57  7  1  0  0  0  0
 57 60  1  0  0  0  0
 58 57  1  0  0  0  0
 59 57  1  0  0  0  0
M  END
$$$$
