CSD_code = OFEGAJ | q = 0 | S = 0 | Stoichiometry = C29H21ClF6N2Pd | MND = 4
 OpenBabel04212202073D

 60 65  0  0  0  0  0  0  0  0999 V2000
   10.6731    5.9000    5.7926 Pd  0  0  2  0  0  0  0  0  0  0  0  0
   11.3071    7.9188    5.2748 Cl  0  0  0  0  0  0  0  0  0  0  0  0
   12.5401    5.3780    6.9261 N   0  0  0  0  0  0  0  0  0  0  0  0
   10.3388    4.0010    6.1461 N   0  0  0  0  0  0  0  0  0  0  0  0
    8.8207    6.3336    5.0012 C   0  0  0  0  0  0  0  0  0  0  0  0
    8.5786    7.3821    5.1957 H   0  0  0  0  0  0  0  0  0  0  0  0
    8.0497    5.6934    5.4450 H   0  0  0  0  0  0  0  0  0  0  0  0
    8.8476    6.1791    3.9151 H   0  0  0  0  0  0  0  0  0  0  0  0
   12.4805    4.1122    7.2062 C   0  0  0  0  0  0  0  0  0  0  0  0
   11.3085    3.3674    6.7501 C   0  0  0  0  0  0  0  0  0  0  0  0
   11.5111    1.9649    7.0978 C   0  0  0  0  0  0  0  0  0  0  0  0
   10.8359    0.7859    6.8846 C   0  0  0  0  0  0  0  0  0  0  0  0
    9.9115    0.7501    6.3297 H   0  0  0  0  0  0  0  0  0  0  0  0
   11.3753   -0.4043    7.4070 C   0  0  0  0  0  0  0  0  0  0  0  0
   10.8348   -1.3231    7.2327 H   0  0  0  0  0  0  0  0  0  0  0  0
   12.5438   -0.4414    8.1268 C   0  0  0  0  0  0  0  0  0  0  0  0
   12.9158   -1.3767    8.5178 H   0  0  0  0  0  0  0  0  0  0  0  0
   13.2729    0.7476    8.3564 C   0  0  0  0  0  0  0  0  0  0  0  0
   14.4856    0.8893    9.0671 C   0  0  0  0  0  0  0  0  0  0  0  0
   14.9487    0.0174    9.5050 H   0  0  0  0  0  0  0  0  0  0  0  0
   15.0696    2.1255    9.2046 C   0  0  0  0  0  0  0  0  0  0  0  0
   15.9924    2.2158    9.7579 H   0  0  0  0  0  0  0  0  0  0  0  0
   14.5208    3.2916    8.6426 C   0  0  0  0  0  0  0  0  0  0  0  0
   15.0256    4.2350    8.7849 H   0  0  0  0  0  0  0  0  0  0  0  0
   13.3488    3.1889    7.9299 C   0  0  0  0  0  0  0  0  0  0  0  0
   12.7328    1.9179    7.8171 C   0  0  0  0  0  0  0  0  0  0  0  0
   13.5965    6.2268    7.1583 C   0  0  0  0  0  0  0  0  0  0  0  0
   14.9019    5.9149    6.7721 C   0  0  0  0  0  0  0  0  0  0  0  0
   15.1172    4.9602    6.3142 H   0  0  0  0  0  0  0  0  0  0  0  0
   15.9090    6.8527    6.9349 C   0  0  0  0  0  0  0  0  0  0  0  0
   15.6513    8.1010    7.4808 C   0  0  0  0  0  0  0  0  0  0  0  0
   16.4411    8.8246    7.6068 H   0  0  0  0  0  0  0  0  0  0  0  0
   14.3454    8.4051    7.8526 C   0  0  0  0  0  0  0  0  0  0  0  0
   13.3204    7.4934    7.6936 C   0  0  0  0  0  0  0  0  0  0  0  0
   12.3024    7.7394    7.9696 H   0  0  0  0  0  0  0  0  0  0  0  0
    9.2063    3.3007    5.7019 C   0  0  0  0  0  0  0  0  0  0  0  0
    8.9837    3.1862    4.3337 C   0  0  0  0  0  0  0  0  0  0  0  0
    9.7022    3.6210    3.6479 H   0  0  0  0  0  0  0  0  0  0  0  0
    7.8581    2.5262    3.8621 C   0  0  0  0  0  0  0  0  0  0  0  0
    6.9590    1.9954    4.7772 C   0  0  0  0  0  0  0  0  0  0  0  0
    6.0756    1.4870    4.4187 H   0  0  0  0  0  0  0  0  0  0  0  0
    7.1628    2.1099    6.1475 C   0  0  0  0  0  0  0  0  0  0  0  0
    8.2979    2.7597    6.6073 C   0  0  0  0  0  0  0  0  0  0  0  0
    8.4778    2.8693    7.6673 H   0  0  0  0  0  0  0  0  0  0  0  0
   17.3053    6.4570    6.5428 C   0  0  0  0  0  0  0  0  0  0  0  0
   14.0815    9.7664    8.4387 C   0  0  0  0  0  0  0  0  0  0  0  0
    7.6159    2.4199    2.3883 C   0  0  0  0  0  0  0  0  0  0  0  0
    6.8679    1.6626    2.1687 H   0  0  0  0  0  0  0  0  0  0  0  0
    8.5357    2.1726    1.8628 H   0  0  0  0  0  0  0  0  0  0  0  0
    7.2592    3.3749    2.0033 H   0  0  0  0  0  0  0  0  0  0  0  0
    6.1611    1.5508    7.1106 C   0  0  0  0  0  0  0  0  0  0  0  0
    6.5882    1.4517    8.1053 H   0  0  0  0  0  0  0  0  0  0  0  0
    5.8075    0.5772    6.7779 H   0  0  0  0  0  0  0  0  0  0  0  0
    5.2989    2.2145    7.1744 H   0  0  0  0  0  0  0  0  0  0  0  0
   14.8649    9.9987    9.5120 F   0  0  0  0  0  0  0  0  0  0  0  0
   14.3433   10.7542    7.5707 F   0  0  0  0  0  0  0  0  0  0  0  0
   12.8222    9.9319    8.8523 F   0  0  0  0  0  0  0  0  0  0  0  0
   17.8058    5.5320    7.3908 F   0  0  0  0  0  0  0  0  0  0  0  0
   18.1706    7.4735    6.5406 F   0  0  0  0  0  0  0  0  0  0  0  0
   17.3569    5.8979    5.3233 F   0  0  0  0  0  0  0  0  0  0  0  0
  1  2  1  6  0  0  0
  1  4  1  0  0  0  0
  1  3  1  0  0  0  0
  3 27  1  0  0  0  0
  3  9  1  0  0  0  0
  4 10  1  0  0  0  0
  5  6  1  0  0  0  0
  5  7  1  0  0  0  0
  5  1  1  0  0  0  0
  8  5  1  0  0  0  0
  9 25  1  0  0  0  0
 10 11  1  0  0  0  0
 10  9  2  0  0  0  0
 11 26  1  0  0  0  0
 12 11  2  0  0  0  0
 12 14  1  0  0  0  0
 13 12  1  0  0  0  0
 14 16  2  0  0  0  0
 15 14  1  0  0  0  0
 16 18  1  0  0  0  0
 16 17  1  0  0  0  0
 18 19  1  0  0  0  0
 19 21  2  0  0  0  0
 19 20  1  0  0  0  0
 21 22  1  0  0  0  0
 23 24  1  0  0  0  0
 23 21  1  0  0  0  0
 25 23  2  0  0  0  0
 26 25  1  0  0  0  0
 26 18  2  0  0  0  0
 27 34  1  0  0  0  0
 28 30  1  0  0  0  0
 28 27  2  0  0  0  0
 29 28  1  0  0  0  0
 30 31  2  0  0  0  0
 31 32  1  0  0  0  0
 31 33  1  0  0  0  0
 33 46  1  0  0  0  0
 34 33  2  0  0  0  0
 34 35  1  0  0  0  0
 36  4  1  0  0  0  0
 36 43  1  0  0  0  0
 37 36  2  0  0  0  0
 38 37  1  0  0  0  0
 39 37  1  0  0  0  0
 39 40  2  0  0  0  0
 40 42  1  0  0  0  0
 41 40  1  0  0  0  0
 42 43  2  0  0  0  0
 42 51  1  0  0  0  0
 43 44  1  0  0  0  0
 45 30  1  0  0  0  0
 45 58  1  0  0  0  0
 46 57  1  0  0  0  0
 46 55  1  0  0  0  0
 47 39  1  0  0  0  0
 48 47  1  0  0  0  0
 49 47  1  0  0  0  0
 50 47  1  0  0  0  0
 51 54  1  0  0  0  0
 51 52  1  0  0  0  0
 53 51  1  0  0  0  0
 56 46  1  0  0  0  0
 59 45  1  0  0  0  0
 60 45  1  0  0  0  0
M  END
$$$$
