CSD_code = OFELUG | q = 0 | S = 0 | Stoichiometry = C30H28Cl5NPtS | MND = 6
 OpenBabel04212202073D

 66 70  0  0  0  0  0  0  0  0999 V2000
    9.0470    9.1386    5.9743 C   0  0  0  0  0  0  0  0  0  0  0  0
    9.9948    9.6337    6.1910 H   0  0  0  0  0  0  0  0  0  0  0  0
    8.7045    9.4745    4.9970 H   0  0  0  0  0  0  0  0  0  0  0  0
    9.2232    8.0637    5.9266 H   0  0  0  0  0  0  0  0  0  0  0  0
    7.3793   11.3596    6.5319 C   0  0  0  0  0  0  0  0  0  0  0  0
    8.3322   11.8731    6.4064 H   0  0  0  0  0  0  0  0  0  0  0  0
    6.7338   11.9547    7.1801 H   0  0  0  0  0  0  0  0  0  0  0  0
    6.9003   11.2357    5.5616 H   0  0  0  0  0  0  0  0  0  0  0  0
    5.9548    8.8291    6.7053 C   0  0  0  0  0  0  0  0  0  0  0  0
    5.6624    8.0437    5.5970 C   0  0  0  0  0  0  0  0  0  0  0  0
    4.3542    7.7280    5.2243 C   0  0  0  0  0  0  0  0  0  0  0  0
    3.2830    8.1873    5.9840 C   0  0  0  0  0  0  0  0  0  0  0  0
    3.5392    8.9267    7.1290 C   0  0  0  0  0  0  0  0  0  0  0  0
    4.8534    9.2409    7.4909 C   0  0  0  0  0  0  0  0  0  0  0  0
    5.1224    9.9431    8.7238 C   0  0  0  0  0  3  0  0  0  0  0  0
    4.2759   10.2937    9.3148 H   0  0  0  0  0  0  0  0  0  0  0  0
    6.5913   10.7315   10.3831 C   0  0  0  0  0  0  0  0  0  0  0  0
    5.7850   11.4233   10.6602 H   0  0  0  0  0  0  0  0  0  0  0  0
    7.5376   11.2711   10.2993 H   0  0  0  0  0  0  0  0  0  0  0  0
    6.7154    9.6406   11.4231 C   0  0  0  0  0  0  0  0  0  0  0  0
    5.5835    9.1768   12.0804 C   0  0  0  0  0  0  0  0  0  0  0  0
    4.6209    9.6269   11.8806 H   0  0  0  0  0  0  0  0  0  0  0  0
    5.6830    8.1454   12.9974 C   0  0  0  0  0  0  0  0  0  0  0  0
    4.7993    7.7937   13.5097 H   0  0  0  0  0  0  0  0  0  0  0  0
    6.9131    7.5636   13.2547 C   0  0  0  0  0  0  0  0  0  0  0  0
    6.9891    6.7541   13.9655 H   0  0  0  0  0  0  0  0  0  0  0  0
    8.0436    8.0220   12.6002 C   0  0  0  0  0  0  0  0  0  0  0  0
    9.0019    7.5664   12.7994 H   0  0  0  0  0  0  0  0  0  0  0  0
    7.9468    9.0582   11.6873 C   0  0  0  0  0  0  0  0  0  0  0  0
    8.8240    9.4195   11.1719 H   0  0  0  0  0  0  0  0  0  0  0  0
    9.9655    7.0006    8.5235 C   0  0  0  0  0  0  0  0  0  0  0  0
   10.0039    6.5935    7.5142 H   0  0  0  0  0  0  0  0  0  0  0  0
   10.4785    7.9623    8.5646 H   0  0  0  0  0  0  0  0  0  0  0  0
   10.4967    6.0463    9.5388 C   0  0  0  0  0  0  0  0  0  0  0  0
   10.9059    6.5170   10.7817 C   0  0  0  0  0  0  0  0  0  0  0  0
   10.8637    7.5775   10.9807 H   0  0  0  0  0  0  0  0  0  0  0  0
   11.3692    5.6406   11.7445 C   0  0  0  0  0  0  0  0  0  0  0  0
   11.6907    6.0154   12.7053 H   0  0  0  0  0  0  0  0  0  0  0  0
   11.4275    4.2822   11.4771 C   0  0  0  0  0  0  0  0  0  0  0  0
   11.7897    3.5969   12.2288 H   0  0  0  0  0  0  0  0  0  0  0  0
   11.0258    3.8060   10.2413 C   0  0  0  0  0  0  0  0  0  0  0  0
   11.0751    2.7488   10.0262 H   0  0  0  0  0  0  0  0  0  0  0  0
   10.5604    4.6833    9.2769 C   0  0  0  0  0  0  0  0  0  0  0  0
   10.2592    4.3061    8.3091 H   0  0  0  0  0  0  0  0  0  0  0  0
    7.3916    5.9133    8.2520 C   0  0  0  0  0  0  0  0  0  0  0  0
    7.6436    5.8099    7.1959 H   0  0  0  0  0  0  0  0  0  0  0  0
    7.8127    5.0750    8.8144 H   0  0  0  0  0  0  0  0  0  0  0  0
    5.9081    5.9861    8.4445 C   0  0  0  0  0  0  0  0  0  0  0  0
    5.0548    5.4665    7.4795 C   0  0  0  0  0  0  0  0  0  0  0  0
    5.4652    5.0261    6.5823 H   0  0  0  0  0  0  0  0  0  0  0  0
    3.6843    5.5007    7.6652 C   0  0  0  0  0  0  0  0  0  0  0  0
    3.0318    5.0849    6.9122 H   0  0  0  0  0  0  0  0  0  0  0  0
    3.1510    6.0694    8.8089 C   0  0  0  0  0  0  0  0  0  0  0  0
    2.0810    6.1027    8.9487 H   0  0  0  0  0  0  0  0  0  0  0  0
    3.9960    6.5948    9.7712 C   0  0  0  0  0  0  0  0  0  0  0  0
    3.5902    7.0392   10.6678 H   0  0  0  0  0  0  0  0  0  0  0  0
    5.3667    6.5455    9.5950 C   0  0  0  0  0  0  0  0  0  0  0  0
    6.0229    6.9433   10.3554 H   0  0  0  0  0  0  0  0  0  0  0  0
    6.3214   10.1104    9.1127 N   0  0  0  0  0  0  0  0  0  0  0  0
    8.2139    7.4130    8.9099 S   0  0  0  0  0  3  0  0  0  0  0  0
    9.5268   10.4706    8.7078 Cl  0  0  0  0  0  0  0  0  0  0  0  0
    6.9090    7.3512    4.6378 Cl  0  0  0  0  0  0  0  0  0  0  0  0
    4.0479    6.7540    3.8471 Cl  0  0  0  0  0  0  0  0  0  0  0  0
    1.6728    7.7994    5.5302 Cl  0  0  0  0  0  0  0  0  0  0  0  0
    2.2073    9.4185    8.0959 Cl  0  0  0  0  0  0  0  0  0  0  0  0
    7.7095    9.5554    7.4958 Pt  0  0  0  0  0  0  0  0  0  0  0  0
  1  2  1  0  0  0  0
  1 66  1  0  0  0  0
  3  1  1  0  0  0  0
  4  1  1  0  0  0  0
  5  7  1  0  0  0  0
  5 66  1  0  0  0  0
  6  5  1  0  0  0  0
  8  5  1  0  0  0  0
  9 14  1  0  0  0  0
  9 66  1  0  0  0  0
 10  9  2  0  0  0  0
 11 10  1  0  0  0  0
 11 12  2  0  0  0  0
 12 13  1  0  0  0  0
 13 14  2  0  0  0  0
 13 65  1  0  0  0  0
 14 15  1  0  0  0  0
 15 59  1  0  0  0  0
 15 16  1  0  0  0  0
 17 18  1  0  0  0  0
 17 20  1  0  0  0  0
 19 17  1  0  0  0  0
 20 29  2  0  0  0  0
 20 21  1  0  0  0  0
 21 23  2  0  0  0  0
 22 21  1  0  0  0  0
 23 25  1  0  0  0  0
 23 24  1  0  0  0  0
 25 26  1  0  0  0  0
 27 28  1  0  0  0  0
 27 25  2  0  0  0  0
 29 27  1  0  0  0  0
 30 29  1  0  0  0  0
 31 33  1  0  0  0  0
 31 60  1  0  0  0  0
 31 34  1  0  0  0  0
 32 31  1  0  0  0  0
 34 35  1  0  0  0  0
 35 36  1  0  0  0  0
 35 37  2  0  0  0  0
 37 38  1  0  0  0  0
 39 37  1  0  0  0  0
 39 40  1  0  0  0  0
 41 39  2  0  0  0  0
 42 41  1  0  0  0  0
 43 34  2  0  0  0  0
 43 41  1  0  0  0  0
 44 43  1  0  0  0  0
 45 48  1  0  0  0  0
 45 47  1  0  0  0  0
 45 60  1  0  0  0  0
 46 45  1  0  0  0  0
 48 57  1  0  0  0  0
 49 51  1  0  0  0  0
 49 48  2  0  0  0  0
 50 49  1  0  0  0  0
 51 53  2  0  0  0  0
 52 51  1  0  0  0  0
 53 54  1  0  0  0  0
 53 55  1  0  0  0  0
 55 56  1  0  0  0  0
 57 55  2  0  0  0  0
 57 58  1  0  0  0  0
 59 17  1  0  0  0  0
 62 10  1  0  0  0  0
 63 11  1  0  0  0  0
 64 12  1  0  0  0  0
 66 61  1  0  0  0  0
 66 60  1  0  0  0  0
 66 59  1  0  0  0  0
M  END
$$$$
